=
 OpenBabel11062409383D

 34 38  0  0  1  0  0  0  0  0999 V2000
  160.8860  208.8170  153.2990 C   0  0  1  0  0  3  0  0  0  0  0  0
  161.5950  208.4490  154.5890 C   0  0  0  0  0  1  0  0  0  0  0  0
  159.2650  210.2110  154.5080 N   0  0  0  0  0  0  0  0  0  0  0  0
  158.1010  213.6160  154.0010 C   0  0  0  0  0  2  0  0  0  0  0  0
  159.3770  212.2310  152.6970 N   0  0  0  0  0  0  0  0  0  0  0  0
  160.1110  211.1110  152.4820 C   0  0  0  0  0  0  0  0  0  0  0  0
  160.1000  210.0910  153.4460 C   0  0  0  0  0  0  0  0  0  0  0  0
  160.9050  211.0080  151.3030 N   0  0  0  0  0  1  0  0  0  0  0  0
  157.5040  214.1170  155.2710 C   0  0  0  0  0  2  0  0  0  0  0  0
  156.2980  213.3550  155.6920 C   0  0  0  0  0  0  0  0  0  0  0  0
  156.3780  212.0490  155.9420 C   0  0  0  0  0  3  0  0  0  0  0  0
  158.5990  212.3920  153.8000 C   0  0  0  0  0  0  0  0  0  0  0  0
  157.5220  211.1680  155.6430 C   0  0  0  0  0  2  0  0  0  0  0  0
  158.4750  211.3010  154.7060 C   0  0  0  0  0  0  0  0  0  0  0  0
  155.0900  214.0690  155.9890 N   0  0  0  0  0  0  0  0  0  0  0  0
  154.2440  214.4480  154.9720 O   0  0  0  0  0  0  0  0  0  0  0  0
  154.7760  214.3340  157.1690 O   0  0  0  0  0  0  0  0  0  0  0  0
  161.8780  208.8780  152.1420 C   0  0  0  0  0  2  0  0  0  0  0  0
  161.4700  205.2690  148.2820 C   0  0  0  0  0  3  0  0  0  0  0  0
  161.1520  204.0950  150.8480 C   0  0  0  0  0  3  0  0  0  0  0  0
  160.8670  201.7240  147.3750 C   0  0  0  0  0  0  0  0  0  0  0  0
  161.7760  207.6600  151.2870 C   0  0  0  0  0  0  0  0  0  0  0  0
  161.8420  207.6680  149.5970 S   0  0  0  0  0  0  0  0  0  0  0  0
  161.1200  203.0980  147.2630 C   0  0  0  0  0  3  0  0  0  0  0  0
  161.2170  203.8950  148.4050 C   0  0  0  0  0  0  0  0  0  0  0  0
  161.5190  206.3740  151.7610 C   0  0  0  0  0  3  0  0  0  0  0  0
  160.8050  201.9370  149.7980 C   0  0  0  0  0  3  0  0  0  0  0  0
  161.0580  203.3060  149.6910 C   0  0  0  0  0  0  0  0  0  0  0  0
  160.7110  201.1510  148.6470 C   0  0  0  0  0  3  0  0  0  0  0  0
  161.4050  205.4600  150.7100 C   0  0  0  0  0  0  0  0  0  0  0  0
  161.5600  206.0220  149.4500 C   0  0  0  0  0  0  0  0  0  0  0  0
  160.7670  200.8920  146.1650 C   0  0  0  0  0  0  0  0  0  0  0  0
  161.2070  199.7120  146.1630 O   0  0  0  0  0  1  0  0  0  0  0  0
  160.1820  201.4020  145.0110 O   0  0  0  0  0  0  0  0  0  0  0  0
  1  7  1  0  0  0  0
  1  2  1  1  0  0  0
  3 14  1  0  0  0  0
  4  9  1  0  0  0  0
  5 12  1  0  0  0  0
  6  5  2  0  0  0  0
  6  7  1  0  0  0  0
  7  3  2  0  0  0  0
  8  6  1  0  0  0  0
  9 10  1  0  0  0  0
 10 11  2  0  0  0  0
 10 15  1  0  0  0  0
 12  4  1  0  0  0  0
 12 14  2  0  0  0  0
 13 11  1  0  0  0  0
 14 13  1  0  0  0  0
 15 17  2  0  0  0  0
 16 15  2  0  0  0  0
 18  1  1  0  0  0  0
 19 25  2  0  0  0  0
 19 31  1  0  0  0  0
 21 29  1  0  0  0  0
 22 26  2  0  0  0  0
 22 18  1  0  0  0  0
 23 22  1  0  0  0  0
 24 21  2  0  0  0  0
 24 25  1  0  0  0  0
 25 28  1  0  0  0  0
 28 27  1  0  0  0  0
 28 20  2  0  0  0  0
 29 27  2  0  0  0  0
 30 20  1  0  0  0  0
 30 26  1  0  0  0  0
 31 23  1  0  0  0  0
 31 30  2  0  0  0  0
 32 21  1  0  0  0  0
 33 32  1  0  0  0  0
 34 32  2  0  0  0  0
M  END
>  <MODEL>
1

>  <REMARK>
 VINA RESULT:      -9.3      0.000      0.000
  Name = 
  5 active torsions:
  status: ('A' for Active; 'I' for Inactive)
    1  A    between atoms: N_3  and  C_25
    2  A    between atoms: C_7  and  C_11
    3  A    between atoms: C_8  and  C_17
    4  A    between atoms: C_10  and  C_17
    5  A    between atoms: C_10  and  C_20
                            x       y       z     vdW  Elec       q    Type
                         _______ _______ _______ _____ _____    ______ ____

>  <TORSDO>
F 5

$$$$
=
 OpenBabel11062409383D

 34 38  0  0  1  0  0  0  0  0999 V2000
  160.4630  208.0490  154.8850 C   0  0  1  0  0  3  0  0  0  0  0  0
  160.6940  207.4030  156.2390 C   0  0  0  0  0  1  0  0  0  0  0  0
  158.6100  209.5510  155.4730 N   0  0  0  0  0  0  0  0  0  0  0  0
  158.3420  213.1720  155.6180 C   0  0  0  0  0  2  0  0  0  0  0  0
  159.9710  211.7960  154.7800 N   0  0  0  0  0  0  0  0  0  0  0  0
  160.5630  210.5880  154.6120 C   0  0  0  0  0  0  0  0  0  0  0  0
  159.8850  209.4310  155.0240 C   0  0  0  0  0  0  0  0  0  0  0  0
  161.8730  210.5200  154.0560 N   0  0  0  0  0  1  0  0  0  0  0  0
  157.1840  213.5370  156.4810 C   0  0  0  0  0  2  0  0  0  0  0  0
  155.8800  213.0750  155.9360 C   0  0  0  0  0  0  0  0  0  0  0  0
  155.6530  211.7770  155.7350 C   0  0  0  0  0  3  0  0  0  0  0  0
  158.7240  211.9300  155.3030 C   0  0  0  0  0  0  0  0  0  0  0  0
  156.6530  210.6940  155.7920 C   0  0  0  0  0  2  0  0  0  0  0  0
  157.9790  210.7500  155.5880 C   0  0  0  0  0  0  0  0  0  0  0  0
  154.8100  214.0190  155.7880 N   0  0  0  0  0  0  0  0  0  0  0  0
  154.4390  214.4510  154.5360 O   0  0  0  0  0  0  0  0  0  0  0  0
  154.1870  214.4430  156.7850 O   0  0  0  0  0  0  0  0  0  0  0  0
  161.7460  208.0370  154.0610 C   0  0  0  0  0  2  0  0  0  0  0  0
  161.5800  205.2920  149.5300 C   0  0  0  0  0  3  0  0  0  0  0  0
  160.8790  203.6760  151.7570 C   0  0  0  0  0  3  0  0  0  0  0  0
  160.8660  202.0550  147.8660 C   0  0  0  0  0  0  0  0  0  0  0  0
  161.6710  207.0210  152.9710 C   0  0  0  0  0  0  0  0  0  0  0  0
  161.9410  207.3500  151.3340 S   0  0  0  0  0  0  0  0  0  0  0  0
  161.2180  203.3980  148.0610 C   0  0  0  0  0  3  0  0  0  0  0  0
  161.2270  203.9480  149.3450 C   0  0  0  0  0  0  0  0  0  0  0  0
  161.2770  205.6950  153.1450 C   0  0  0  0  0  3  0  0  0  0  0  0
  160.5250  201.8000  150.2620 C   0  0  0  0  0  3  0  0  0  0  0  0
  160.8750  203.1370  150.4610 C   0  0  0  0  0  0  0  0  0  0  0  0
  160.5210  201.2630  148.9720 C   0  0  0  0  0  3  0  0  0  0  0  0
  161.2330  205.0150  151.9250 C   0  0  0  0  0  0  0  0  0  0  0  0
  161.5740  205.7940  150.8280 C   0  0  0  0  0  0  0  0  0  0  0  0
  160.8600  201.4850  146.5090 C   0  0  0  0  0  0  0  0  0  0  0  0
  160.5400  202.1960  145.5200 O   0  0  0  0  0  0  0  0  0  0  0  0
  161.2120  200.1550  146.3070 O   0  0  0  0  0  1  0  0  0  0  0  0
  1  7  1  0  0  0  0
  1  2  1  1  0  0  0
  3 14  1  0  0  0  0
  4  9  1  0  0  0  0
  5 12  1  0  0  0  0
  6  5  2  0  0  0  0
  6  7  1  0  0  0  0
  7  3  2  0  0  0  0
  8  6  1  0  0  0  0
 10  9  1  0  0  0  0
 11 13  1  0  0  0  0
 11 10  2  0  0  0  0
 12 14  2  0  0  0  0
 12  4  1  0  0  0  0
 14 13  1  0  0  0  0
 15 10  1  0  0  0  0
 15 17  2  0  0  0  0
 16 15  2  0  0  0  0
 18  1  1  0  0  0  0
 19 31  1  0  0  0  0
 20 30  1  0  0  0  0
 21 24  2  0  0  0  0
 21 29  1  0  0  0  0
 22 26  2  0  0  0  0
 22 18  1  0  0  0  0
 23 22  1  0  0  0  0
 24 25  1  0  0  0  0
 25 19  2  0  0  0  0
 25 28  1  0  0  0  0
 27 28  1  0  0  0  0
 28 20  2  0  0  0  0
 29 27  2  0  0  0  0
 30 26  1  0  0  0  0
 31 23  1  0  0  0  0
 31 30  2  0  0  0  0
 32 21  1  0  0  0  0
 33 32  2  0  0  0  0
 34 32  1  0  0  0  0
M  END
>  <MODEL>
2

>  <REMARK>
 VINA RESULT:      -9.1      1.261      1.506
  Name = 
  5 active torsions:
  status: ('A' for Active; 'I' for Inactive)
    1  A    between atoms: N_3  and  C_25
    2  A    between atoms: C_7  and  C_11
    3  A    between atoms: C_8  and  C_17
    4  A    between atoms: C_10  and  C_17
    5  A    between atoms: C_10  and  C_20
                            x       y       z     vdW  Elec       q    Type
                         _______ _______ _______ _____ _____    ______ ____

>  <TORSDO>
F 5

$$$$
=
 OpenBabel11062409383D

 34 38  0  0  1  0  0  0  0  0999 V2000
  160.3710  208.7150  154.1850 C   0  0  1  0  0  3  0  0  0  0  0  0
  160.0770  209.0060  155.6450 C   0  0  0  0  0  1  0  0  0  0  0  0
  160.7910  209.9140  152.0830 N   0  0  0  0  0  0  0  0  0  0  0  0
  159.9600  213.2720  150.9680 C   0  0  0  0  0  2  0  0  0  0  0  0
  159.8340  212.2730  153.0260 N   0  0  0  0  0  0  0  0  0  0  0  0
  159.8670  211.1980  153.8510 C   0  0  0  0  0  0  0  0  0  0  0  0
  160.3060  209.9640  153.3490 C   0  0  0  0  0  0  0  0  0  0  0  0
  159.4220  211.3340  155.1990 N   0  0  0  0  0  1  0  0  0  0  0  0
  160.0120  213.3140  149.4790 C   0  0  0  0  0  2  0  0  0  0  0  0
  161.3700  213.0500  148.9340 C   0  0  0  0  0  0  0  0  0  0  0  0
  161.9850  211.8950  149.1810 C   0  0  0  0  0  3  0  0  0  0  0  0
  160.2440  212.2120  151.7320 C   0  0  0  0  0  0  0  0  0  0  0  0
  161.5600  210.8650  150.1480 C   0  0  0  0  0  2  0  0  0  0  0  0
  160.8220  210.9980  151.2620 C   0  0  0  0  0  0  0  0  0  0  0  0
  161.9400  213.9790  148.0010 N   0  0  0  0  0  0  0  0  0  0  0  0
  161.2200  214.3810  146.9000 O   0  0  0  0  0  0  0  0  0  0  0  0
  163.0820  214.4530  148.1850 O   0  0  0  0  0  0  0  0  0  0  0  0
  161.7040  207.9890  154.0420 C   0  0  0  0  0  2  0  0  0  0  0  0
  161.5800  205.1900  149.5430 C   0  0  0  0  0  3  0  0  0  0  0  0
  160.8570  203.6010  151.7830 C   0  0  0  0  0  3  0  0  0  0  0  0
  160.8800  201.9330  147.9120 C   0  0  0  0  0  0  0  0  0  0  0  0
  161.6390  206.9600  152.9640 C   0  0  0  0  0  0  0  0  0  0  0  0
  161.9250  207.2690  151.3260 S   0  0  0  0  0  0  0  0  0  0  0  0
  161.2310  203.2780  148.0940 C   0  0  0  0  0  3  0  0  0  0  0  0
  161.2270  203.8430  149.3720 C   0  0  0  0  0  0  0  0  0  0  0  0
  161.2430  205.6360  153.1500 C   0  0  0  0  0  3  0  0  0  0  0  0
  160.5160  201.7070  150.3070 C   0  0  0  0  0  3  0  0  0  0  0  0
  160.8650  203.0460  150.4940 C   0  0  0  0  0  0  0  0  0  0  0  0
  160.5240  201.1550  149.0240 C   0  0  0  0  0  3  0  0  0  0  0  0
  161.2110  204.9420  151.9380 C   0  0  0  0  0  0  0  0  0  0  0  0
  161.5620  205.7080  150.8360 C   0  0  0  0  0  0  0  0  0  0  0  0
  160.8870  201.3470  146.5620 C   0  0  0  0  0  0  0  0  0  0  0  0
  160.5680  202.0440  145.5620 O   0  0  0  0  0  0  0  0  0  0  0  0
  161.2490  200.0170  146.3780 O   0  0  0  0  0  1  0  0  0  0  0  0
  1  2  1  1  0  0  0
  3  7  1  0  0  0  0
  4 12  1  0  0  0  0
  5  6  1  0  0  0  0
  6  8  1  0  0  0  0
  7  6  2  0  0  0  0
  7  1  1  0  0  0  0
  9  4  1  0  0  0  0
 10 11  2  0  0  0  0
 10  9  1  0  0  0  0
 11 13  1  0  0  0  0
 12  5  2  0  0  0  0
 13 14  1  0  0  0  0
 14 12  1  0  0  0  0
 14  3  2  0  0  0  0
 15 17  2  0  0  0  0
 15 10  1  0  0  0  0
 16 15  2  0  0  0  0
 18  1  1  0  0  0  0
 19 31  1  0  0  0  0
 20 30  1  0  0  0  0
 21 24  2  0  0  0  0
 21 29  1  0  0  0  0
 22 26  2  0  0  0  0
 22 18  1  0  0  0  0
 23 22  1  0  0  0  0
 24 25  1  0  0  0  0
 25 19  2  0  0  0  0
 25 28  1  0  0  0  0
 27 28  1  0  0  0  0
 28 20  2  0  0  0  0
 29 27  2  0  0  0  0
 30 26  1  0  0  0  0
 31 23  1  0  0  0  0
 31 30  2  0  0  0  0
 32 21  1  0  0  0  0
 33 32  2  0  0  0  0
 34 32  1  0  0  0  0
M  END
>  <MODEL>
3

>  <REMARK>
 VINA RESULT:      -8.9      3.397      4.586
  Name = 
  5 active torsions:
  status: ('A' for Active; 'I' for Inactive)
    1  A    between atoms: N_3  and  C_25
    2  A    between atoms: C_7  and  C_11
    3  A    between atoms: C_8  and  C_17
    4  A    between atoms: C_10  and  C_17
    5  A    between atoms: C_10  and  C_20
                            x       y       z     vdW  Elec       q    Type
                         _______ _______ _______ _____ _____    ______ ____

>  <TORSDO>
F 5

$$$$
=
 OpenBabel11062409383D

 34 38  0  0  1  0  0  0  0  0999 V2000
  160.5810  207.1660  153.9800 C   0  0  1  0  0  3  0  0  0  0  0  0
  160.3990  207.3200  155.4790 C   0  0  0  0  0  1  0  0  0  0  0  0
  161.0360  208.5230  151.9840 N   0  0  0  0  0  0  0  0  0  0  0  0
  160.8330  212.0960  151.3510 C   0  0  0  0  0  2  0  0  0  0  0  0
  160.7030  210.8810  153.2890 N   0  0  0  0  0  0  0  0  0  0  0  0
  160.5870  209.7220  153.9820 C   0  0  0  0  0  0  0  0  0  0  0  0
  160.7020  208.5010  153.2990 C   0  0  0  0  0  0  0  0  0  0  0  0
  160.3180  209.7650  155.3810 N   0  0  0  0  0  1  0  0  0  0  0  0
  160.7450  212.3220  149.8810 C   0  0  0  0  0  2  0  0  0  0  0  0
  161.9550  211.8670  149.1450 C   0  0  0  0  0  0  0  0  0  0  0  0
  162.3310  210.5900  149.1870 C   0  0  0  0  0  3  0  0  0  0  0  0
  160.9600  210.9090  151.9540 C   0  0  0  0  0  0  0  0  0  0  0  0
  161.7940  209.5470  150.0820 C   0  0  0  0  0  2  0  0  0  0  0  0
  161.2170  209.6770  151.2880 C   0  0  0  0  0  0  0  0  0  0  0  0
  162.6150  212.7780  148.2550 N   0  0  0  0  0  0  0  0  0  0  0  0
  163.7200  212.3690  147.5430 O   0  0  0  0  0  0  0  0  0  0  0  0
  162.1870  213.9410  148.0940 O   0  0  0  0  0  0  0  0  0  0  0  0
  161.7630  206.2510  153.6760 C   0  0  0  0  0  2  0  0  0  0  0  0
  160.8290  202.6030  149.9470 C   0  0  0  0  0  3  0  0  0  0  0  0
  161.6340  205.0770  148.8100 C   0  0  0  0  0  3  0  0  0  0  0  0
  160.8080  201.7670  146.3340 C   0  0  0  0  0  0  0  0  0  0  0  0
  161.5220  205.4620  152.4330 C   0  0  0  0  0  0  0  0  0  0  0  0
  161.0490  203.8380  152.4060 S   0  0  0  0  0  0  0  0  0  0  0  0
  160.6850  201.6460  147.7250 C   0  0  0  0  0  3  0  0  0  0  0  0
  160.9550  202.7350  148.5570 C   0  0  0  0  0  0  0  0  0  0  0  0
  161.7470  205.9290  151.1380 C   0  0  0  0  0  3  0  0  0  0  0  0
  161.4800  204.0910  146.6000 C   0  0  0  0  0  3  0  0  0  0  0  0
  161.3580  203.9740  147.9860 C   0  0  0  0  0  0  0  0  0  0  0  0
  161.2060  202.9930  145.7800 C   0  0  0  0  0  3  0  0  0  0  0  0
  161.5020  204.9310  150.1910 C   0  0  0  0  0  0  0  0  0  0  0  0
  161.1080  203.7160  150.7350 C   0  0  0  0  0  0  0  0  0  0  0  0
  160.5210  200.6140  145.4660 C   0  0  0  0  0  0  0  0  0  0  0  0
  159.7060  200.7210  144.5110 O   0  0  0  0  0  0  0  0  0  0  0  0
  161.1500  199.3950  145.6900 O   0  0  0  0  0  1  0  0  0  0  0  0
  1  2  1  1  0  0  0
  3  7  1  0  0  0  0
  4 12  1  0  0  0  0
  5  6  1  0  0  0  0
  6  8  1  0  0  0  0
  7  1  1  0  0  0  0
  7  6  2  0  0  0  0
  9  4  1  0  0  0  0
 10 11  2  0  0  0  0
 10  9  1  0  0  0  0
 11 13  1  0  0  0  0
 12  5  2  0  0  0  0
 13 14  1  0  0  0  0
 14 12  1  0  0  0  0
 14  3  2  0  0  0  0
 15 10  1  0  0  0  0
 16 15  2  0  0  0  0
 17 15  2  0  0  0  0
 18  1  1  0  0  0  0
 19 31  1  0  0  0  0
 20 30  1  0  0  0  0
 21 24  2  0  0  0  0
 22 18  1  0  0  0  0
 23 22  1  0  0  0  0
 24 25  1  0  0  0  0
 25 19  2  0  0  0  0
 26 22  2  0  0  0  0
 27 28  1  0  0  0  0
 28 25  1  0  0  0  0
 28 20  2  0  0  0  0
 29 21  1  0  0  0  0
 29 27  2  0  0  0  0
 30 31  2  0  0  0  0
 30 26  1  0  0  0  0
 31 23  1  0  0  0  0
 32 34  1  0  0  0  0
 32 21  1  0  0  0  0
 33 32  2  0  0  0  0
M  END
>  <MODEL>
4

>  <REMARK>
 VINA RESULT:      -8.8      3.785      5.055
  Name = 
  5 active torsions:
  status: ('A' for Active; 'I' for Inactive)
    1  A    between atoms: N_3  and  C_25
    2  A    between atoms: C_7  and  C_11
    3  A    between atoms: C_8  and  C_17
    4  A    between atoms: C_10  and  C_17
    5  A    between atoms: C_10  and  C_20
                            x       y       z     vdW  Elec       q    Type
                         _______ _______ _______ _____ _____    ______ ____

>  <TORSDO>
F 5

$$$$
=
 OpenBabel11062409383D

 34 38  0  0  1  0  0  0  0  0999 V2000
  161.3030  212.6320  148.7630 C   0  0  1  0  0  3  0  0  0  0  0  0
  160.8170  211.9020  147.5250 C   0  0  0  0  0  1  0  0  0  0  0  0
  160.1350  212.4240  150.9140 N   0  0  0  0  0  0  0  0  0  0  0  0
  157.2000  214.0760  152.2800 C   0  0  0  0  0  2  0  0  0  0  0  0
  158.0950  214.0550  150.1710 N   0  0  0  0  0  0  0  0  0  0  0  0
  159.0780  213.7800  149.2790 C   0  0  0  0  0  0  0  0  0  0  0  0
  160.1630  212.9850  149.6790 C   0  0  0  0  0  0  0  0  0  0  0  0
  159.0090  214.3320  147.9670 N   0  0  0  0  0  1  0  0  0  0  0  0
  157.2150  213.9400  153.7640 C   0  0  0  0  0  2  0  0  0  0  0  0
  157.1130  212.5290  154.2230 C   0  0  0  0  0  0  0  0  0  0  0  0
  158.0380  211.6370  153.8730 C   0  0  0  0  0  3  0  0  0  0  0  0
  158.1010  213.5600  151.4370 C   0  0  0  0  0  0  0  0  0  0  0  0
  159.0990  211.8230  152.8650 C   0  0  0  0  0  2  0  0  0  0  0  0
  159.1250  212.6390  151.7990 C   0  0  0  0  0  0  0  0  0  0  0  0
  156.1070  212.1790  155.1830 N   0  0  0  0  0  0  0  0  0  0  0  0
  155.5810  210.9070  155.1980 O   0  0  0  0  0  0  0  0  0  0  0  0
  155.7110  213.0080  156.0300 O   0  0  0  0  0  0  0  0  0  0  0  0
  162.3860  211.8250  149.4700 C   0  0  0  0  0  2  0  0  0  0  0  0
  161.1820  206.7830  150.5730 C   0  0  0  0  0  3  0  0  0  0  0  0
  161.8720  207.1190  147.8390 C   0  0  0  0  0  3  0  0  0  0  0  0
  160.8750  203.3030  149.3280 C   0  0  0  0  0  0  0  0  0  0  0  0
  162.0520  210.3710  149.4750 C   0  0  0  0  0  0  0  0  0  0  0  0
  161.5910  209.4990  150.8490 S   0  0  0  0  0  0  0  0  0  0  0  0
  160.8660  204.4110  150.1870 C   0  0  0  0  0  3  0  0  0  0  0  0
  161.1940  205.6810  149.7060 C   0  0  0  0  0  0  0  0  0  0  0  0
  162.1670  209.5240  148.3730 C   0  0  0  0  0  3  0  0  0  0  0  0
  161.5470  204.7420  147.4840 C   0  0  0  0  0  3  0  0  0  0  0  0
  161.5390  205.8480  148.3360 C   0  0  0  0  0  0  0  0  0  0  0  0
  161.2170  203.4770  147.9780 C   0  0  0  0  0  3  0  0  0  0  0  0
  161.8540  208.2060  148.7140 C   0  0  0  0  0  0  0  0  0  0  0  0
  161.5150  208.0280  150.0480 C   0  0  0  0  0  0  0  0  0  0  0  0
  160.5280  201.9690  149.8430 C   0  0  0  0  0  0  0  0  0  0  0  0
  161.2520  201.4110  150.7110 O   0  0  0  0  0  1  0  0  0  0  0  0
  159.3940  201.3120  149.3790 O   0  0  0  0  0  0  0  0  0  0  0  0
  1  2  1  6  0  0  0
  1 18  1  0  0  0  0
  1  7  1  0  0  0  0
  3 14  1  0  0  0  0
  4  9  1  0  0  0  0
  5 12  1  0  0  0  0
  6  7  1  0  0  0  0
  6  5  2  0  0  0  0
  7  3  2  0  0  0  0
  8  6  1  0  0  0  0
  9 10  1  0  0  0  0
 10 15  1  0  0  0  0
 11 10  2  0  0  0  0
 12 14  2  0  0  0  0
 12  4  1  0  0  0  0
 13 11  1  0  0  0  0
 14 13  1  0  0  0  0
 15 16  2  0  0  0  0
 15 17  2  0  0  0  0
 18 22  1  0  0  0  0
 20 28  2  0  0  0  0
 20 30  1  0  0  0  0
 21 32  1  0  0  0  0
 21 24  2  0  0  0  0
 22 23  1  0  0  0  0
 25 24  1  0  0  0  0
 25 19  2  0  0  0  0
 26 30  1  0  0  0  0
 26 22  2  0  0  0  0
 27 29  2  0  0  0  0
 27 28  1  0  0  0  0
 28 25  1  0  0  0  0
 29 21  1  0  0  0  0
 30 31  2  0  0  0  0
 31 19  1  0  0  0  0
 31 23  1  0  0  0  0
 32 33  1  0  0  0  0
 34 32  2  0  0  0  0
M  END
>  <MODEL>
5

>  <REMARK>
 VINA RESULT:      -8.5      2.726      3.709
  Name = 
  5 active torsions:
  status: ('A' for Active; 'I' for Inactive)
    1  A    between atoms: N_3  and  C_25
    2  A    between atoms: C_7  and  C_11
    3  A    between atoms: C_8  and  C_17
    4  A    between atoms: C_10  and  C_17
    5  A    between atoms: C_10  and  C_20
                            x       y       z     vdW  Elec       q    Type
                         _______ _______ _______ _____ _____    ______ ____

>  <TORSDO>
F 5

$$$$
=
 OpenBabel11062409383D

 34 38  0  0  1  0  0  0  0  0999 V2000
  161.0990  206.4460  149.1990 C   0  0  1  0  0  3  0  0  0  0  0  0
  161.1970  207.1610  147.8650 C   0  0  0  0  0  1  0  0  0  0  0  0
  161.2760  204.4460  147.7830 N   0  0  0  0  0  0  0  0  0  0  0  0
  161.1750  200.8920  148.5370 C   0  0  0  0  0  2  0  0  0  0  0  0
  160.7060  202.7360  149.8140 N   0  0  0  0  0  0  0  0  0  0  0  0
  160.7090  204.0700  150.0560 C   0  0  0  0  0  0  0  0  0  0  0  0
  161.0600  204.9520  149.0230 C   0  0  0  0  0  0  0  0  0  0  0  0
  160.3900  204.5460  151.3610 N   0  0  0  0  0  1  0  0  0  0  0  0
  161.8050  200.1420  147.4140 C   0  0  0  0  0  2  0  0  0  0  0  0
  161.0700  200.2860  146.1290 C   0  0  0  0  0  0  0  0  0  0  0  0
  160.9040  201.4860  145.5760 C   0  0  0  0  0  3  0  0  0  0  0  0
  160.9990  202.2170  148.5920 C   0  0  0  0  0  0  0  0  0  0  0  0
  161.1920  202.7890  146.2070 C   0  0  0  0  0  2  0  0  0  0  0  0
  161.2160  203.1150  147.5090 C   0  0  0  0  0  0  0  0  0  0  0  0
  160.6890  199.1060  145.4070 N   0  0  0  0  0  0  0  0  0  0  0  0
  161.5550  198.0400  145.3210 O   0  0  0  0  0  0  0  0  0  0  0  0
  159.5660  199.0190  144.8670 O   0  0  0  0  0  0  0  0  0  0  0  0
  162.2220  206.8910  150.1300 C   0  0  0  0  0  2  0  0  0  0  0  0
  160.8260  211.0890  153.0490 C   0  0  0  0  0  3  0  0  0  0  0  0
  160.5460  208.6660  154.5020 C   0  0  0  0  0  3  0  0  0  0  0  0
  159.6410  212.3570  156.3260 C   0  0  0  0  0  0  0  0  0  0  0  0
  161.7210  207.8610  151.1460 C   0  0  0  0  0  0  0  0  0  0  0  0
  161.6630  209.5370  150.9240 S   0  0  0  0  0  0  0  0  0  0  0  0
  160.0820  212.3260  154.9960 C   0  0  0  0  0  3  0  0  0  0  0  0
  160.3850  211.1090  154.3790 C   0  0  0  0  0  0  0  0  0  0  0  0
  161.3270  207.5250  152.4410 C   0  0  0  0  0  3  0  0  0  0  0  0
  159.8050  209.9310  156.4330 C   0  0  0  0  0  3  0  0  0  0  0  0
  160.2440  209.8950  155.1080 C   0  0  0  0  0  0  0  0  0  0  0  0
  159.5050  211.1550  157.0370 C   0  0  0  0  0  3  0  0  0  0  0  0
  160.9820  208.6610  153.1770 C   0  0  0  0  0  0  0  0  0  0  0  0
  161.1150  209.8530  152.4770 C   0  0  0  0  0  0  0  0  0  0  0  0
  159.3240  213.6430  156.9670 C   0  0  0  0  0  0  0  0  0  0  0  0
  160.2420  214.4530  157.2610 O   0  0  0  0  0  1  0  0  0  0  0  0
  158.0050  213.9770  157.2520 O   0  0  0  0  0  0  0  0  0  0  0  0
  1  2  1  6  0  0  0
  1 18  1  0  0  0  0
  3  7  1  0  0  0  0
  4 12  1  0  0  0  0
  5  6  1  0  0  0  0
  6  8  1  0  0  0  0
  7  1  1  0  0  0  0
  7  6  2  0  0  0  0
  9  4  1  0  0  0  0
 10  9  1  0  0  0  0
 11 10  2  0  0  0  0
 11 13  1  0  0  0  0
 12  5  2  0  0  0  0
 13 14  1  0  0  0  0
 14  3  2  0  0  0  0
 14 12  1  0  0  0  0
 15 10  1  0  0  0  0
 16 15  2  0  0  0  0
 17 15  2  0  0  0  0
 18 22  1  0  0  0  0
 19 25  1  0  0  0  0
 20 28  1  0  0  0  0
 21 32  1  0  0  0  0
 21 29  1  0  0  0  0
 22 26  2  0  0  0  0
 23 22  1  0  0  0  0
 23 31  1  0  0  0  0
 24 21  2  0  0  0  0
 25 24  1  0  0  0  0
 25 28  2  0  0  0  0
 26 30  1  0  0  0  0
 27 29  2  0  0  0  0
 28 27  1  0  0  0  0
 30 20  2  0  0  0  0
 31 19  2  0  0  0  0
 31 30  1  0  0  0  0
 32 34  2  0  0  0  0
 32 33  1  0  0  0  0
M  END
>  <MODEL>
6

>  <REMARK>
 VINA RESULT:      -8.2      3.644     11.995
  Name = 
  5 active torsions:
  status: ('A' for Active; 'I' for Inactive)
    1  A    between atoms: N_3  and  C_25
    2  A    between atoms: C_7  and  C_11
    3  A    between atoms: C_8  and  C_17
    4  A    between atoms: C_10  and  C_17
    5  A    between atoms: C_10  and  C_20
                            x       y       z     vdW  Elec       q    Type
                         _______ _______ _______ _____ _____    ______ ____

>  <TORSDO>
F 5

$$$$
=
 OpenBabel11062409383D

 34 38  0  0  1  0  0  0  0  0999 V2000
  161.8800  210.0700  152.1730 C   0  0  1  0  0  3  0  0  0  0  0  0
  163.1740  210.2990  152.9330 C   0  0  0  0  0  1  0  0  0  0  0  0
  160.1790  210.7540  153.8090 N   0  0  0  0  0  0  0  0  0  0  0  0
  157.9990  213.6540  154.0110 C   0  0  0  0  0  2  0  0  0  0  0  0
  159.3550  212.8790  152.3340 N   0  0  0  0  0  0  0  0  0  0  0  0
  160.3300  212.0750  151.8440 C   0  0  0  0  0  0  0  0  0  0  0  0
  160.7980  211.0110  152.6290 C   0  0  0  0  0  0  0  0  0  0  0  0
  160.8830  212.3470  150.5590 N   0  0  0  0  0  1  0  0  0  0  0  0
  157.5310  213.8100  155.4170 C   0  0  0  0  0  2  0  0  0  0  0  0
  156.7020  212.6690  155.8880 C   0  0  0  0  0  0  0  0  0  0  0  0
  157.2040  211.4360  155.9190 C   0  0  0  0  0  3  0  0  0  0  0  0
  158.7850  212.6740  153.5510 C   0  0  0  0  0  0  0  0  0  0  0  0
  158.4790  210.9940  155.3220 C   0  0  0  0  0  2  0  0  0  0  0  0
  159.1580  211.5140  154.2870 C   0  0  0  0  0  0  0  0  0  0  0  0
  155.4160  212.9330  156.4670 N   0  0  0  0  0  0  0  0  0  0  0  0
  154.7430  214.0920  156.1550 O   0  0  0  0  0  0  0  0  0  0  0  0
  154.8800  212.1100  157.2400 O   0  0  0  0  0  0  0  0  0  0  0  0
  162.1210  210.1490  150.6690 C   0  0  0  0  0  2  0  0  0  0  0  0
  161.2550  205.0800  149.3870 C   0  0  0  0  0  3  0  0  0  0  0  0
  161.9090  206.6380  147.1060 C   0  0  0  0  0  3  0  0  0  0  0  0
  161.1710  202.5060  146.7190 C   0  0  0  0  0  0  0  0  0  0  0  0
  161.8820  208.8270  150.0200 C   0  0  0  0  0  0  0  0  0  0  0  0
  161.4860  207.4090  150.8510 S   0  0  0  0  0  0  0  0  0  0  0  0
  161.0930  203.1130  147.9800 C   0  0  0  0  0  3  0  0  0  0  0  0
  161.3350  204.4820  148.1220 C   0  0  0  0  0  0  0  0  0  0  0  0
  162.0480  208.5680  148.6600 C   0  0  0  0  0  3  0  0  0  0  0  0
  161.7400  204.6520  145.7240 C   0  0  0  0  0  3  0  0  0  0  0  0
  161.6630  205.2620  146.9780 C   0  0  0  0  0  0  0  0  0  0  0  0
  161.4950  203.2820  145.5960 C   0  0  0  0  0  3  0  0  0  0  0  0
  161.8240  207.2190  148.3710 C   0  0  0  0  0  0  0  0  0  0  0  0
  161.5030  206.4470  149.4790 C   0  0  0  0  0  0  0  0  0  0  0  0
  160.9140  201.0630  146.5800 C   0  0  0  0  0  0  0  0  0  0  0  0
  160.1610  200.6350  145.6650 O   0  0  0  0  0  0  0  0  0  0  0  0
  161.5030  200.1590  147.4560 O   0  0  0  0  0  1  0  0  0  0  0  0
  1  7  1  0  0  0  0
  1  2  1  1  0  0  0
  3 14  1  0  0  0  0
  4  9  1  0  0  0  0
  5 12  1  0  0  0  0
  6  5  2  0  0  0  0
  6  7  1  0  0  0  0
  7  3  2  0  0  0  0
  8  6  1  0  0  0  0
  9 10  1  0  0  0  0
 10 11  2  0  0  0  0
 10 15  1  0  0  0  0
 12  4  1  0  0  0  0
 12 14  2  0  0  0  0
 13 11  1  0  0  0  0
 14 13  1  0  0  0  0
 15 17  2  0  0  0  0
 16 15  2  0  0  0  0
 18  1  1  0  0  0  0
 19 31  1  0  0  0  0
 20 30  1  0  0  0  0
 21 24  2  0  0  0  0
 22 18  1  0  0  0  0
 22 23  1  0  0  0  0
 24 25  1  0  0  0  0
 25 19  2  0  0  0  0
 26 22  2  0  0  0  0
 27 28  1  0  0  0  0
 28 20  2  0  0  0  0
 28 25  1  0  0  0  0
 29 27  2  0  0  0  0
 29 21  1  0  0  0  0
 30 26  1  0  0  0  0
 30 31  2  0  0  0  0
 31 23  1  0  0  0  0
 32 21  1  0  0  0  0
 32 34  1  0  0  0  0
 33 32  2  0  0  0  0
M  END
>  <MODEL>
7

>  <REMARK>
 VINA RESULT:      -7.8      1.335      2.113
  Name = 
  5 active torsions:
  status: ('A' for Active; 'I' for Inactive)
    1  A    between atoms: N_3  and  C_25
    2  A    between atoms: C_7  and  C_11
    3  A    between atoms: C_8  and  C_17
    4  A    between atoms: C_10  and  C_17
    5  A    between atoms: C_10  and  C_20
                            x       y       z     vdW  Elec       q    Type
                         _______ _______ _______ _____ _____    ______ ____

>  <TORSDO>
F 5

$$$$
=
 OpenBabel11062409383D

 34 38  0  0  1  0  0  0  0  0999 V2000
  161.4930  205.0560  152.5520 C   0  0  1  0  0  3  0  0  0  0  0  0
  160.1180  205.3670  153.1130 C   0  0  0  0  0  1  0  0  0  0  0  0
  161.5480  205.3530  150.1140 N   0  0  0  0  0  0  0  0  0  0  0  0
  161.3960  202.9950  147.3540 C   0  0  0  0  0  2  0  0  0  0  0  0
  161.0390  202.7360  149.6020 N   0  0  0  0  0  0  0  0  0  0  0  0
  161.0880  203.1580  150.8890 C   0  0  0  0  0  0  0  0  0  0  0  0
  161.4080  204.4980  151.1580 C   0  0  0  0  0  0  0  0  0  0  0  0
  160.8490  202.2280  151.9430 N   0  0  0  0  0  1  0  0  0  0  0  0
  161.9490  203.6440  146.1320 C   0  0  0  0  0  2  0  0  0  0  0  0
  161.1530  204.8170  145.6820 C   0  0  0  0  0  0  0  0  0  0  0  0
  160.9900  205.8700  146.4820 C   0  0  0  0  0  3  0  0  0  0  0  0
  161.2560  203.5710  148.5520 C   0  0  0  0  0  0  0  0  0  0  0  0
  161.3420  205.9460  147.9130 C   0  0  0  0  0  2  0  0  0  0  0  0
  161.4400  204.9580  148.8170 C   0  0  0  0  0  0  0  0  0  0  0  0
  160.7070  204.8780  144.3200 N   0  0  0  0  0  0  0  0  0  0  0  0
  161.2950  205.7570  143.4400 O   0  0  0  0  0  0  0  0  0  0  0  0
  159.8010  204.1230  143.9080 O   0  0  0  0  0  0  0  0  0  0  0  0
  162.3930  206.2850  152.6310 C   0  0  0  0  0  2  0  0  0  0  0  0
  159.6850  209.8970  155.4080 C   0  0  0  0  0  3  0  0  0  0  0  0
  159.7560  210.5420  152.6440 C   0  0  0  0  0  3  0  0  0  0  0  0
  157.6870  213.0220  155.3540 C   0  0  0  0  0  0  0  0  0  0  0  0
  161.6420  207.4650  153.1520 C   0  0  0  0  0  0  0  0  0  0  0  0
  161.2080  207.6850  154.7720 S   0  0  0  0  0  0  0  0  0  0  0  0
  158.3430  211.8730  155.8190 C   0  0  0  0  0  3  0  0  0  0  0  0
  159.0320  211.0440  154.9320 C   0  0  0  0  0  0  0  0  0  0  0  0
  161.1180  208.4870  152.3610 C   0  0  0  0  0  3  0  0  0  0  0  0
  158.4130  212.5120  153.0870 C   0  0  0  0  0  3  0  0  0  0  0  0
  159.0680  211.3680  153.5470 C   0  0  0  0  0  0  0  0  0  0  0  0
  157.7270  213.3340  153.9860 C   0  0  0  0  0  3  0  0  0  0  0  0
  160.4010  209.4060  153.1320 C   0  0  0  0  0  0  0  0  0  0  0  0
  160.3600  209.1020  154.4860 C   0  0  0  0  0  0  0  0  0  0  0  0
  156.9640  213.8900  156.2960 C   0  0  0  0  0  0  0  0  0  0  0  0
  157.5750  214.4530  157.2430 O   0  0  0  0  0  1  0  0  0  0  0  0
  155.5970  214.0980  156.1480 O   0  0  0  0  0  0  0  0  0  0  0  0
  1 18  1  0  0  0  0
  1  2  1  6  0  0  0
  3  7  1  0  0  0  0
  4 12  1  0  0  0  0
  5  6  1  0  0  0  0
  6  7  2  0  0  0  0
  6  8  1  0  0  0  0
  7  1  1  0  0  0  0
  9  4  1  0  0  0  0
 10  9  1  0  0  0  0
 10 11  2  0  0  0  0
 11 13  1  0  0  0  0
 12 14  1  0  0  0  0
 12  5  2  0  0  0  0
 13 14  1  0  0  0  0
 14  3  2  0  0  0  0
 15 10  1  0  0  0  0
 16 15  2  0  0  0  0
 17 15  2  0  0  0  0
 18 22  1  0  0  0  0
 20 30  2  0  0  0  0
 20 28  1  0  0  0  0
 21 24  1  0  0  0  0
 21 32  1  0  0  0  0
 22 23  1  0  0  0  0
 25 19  1  0  0  0  0
 25 24  2  0  0  0  0
 26 30  1  0  0  0  0
 26 22  2  0  0  0  0
 27 28  2  0  0  0  0
 27 29  1  0  0  0  0
 28 25  1  0  0  0  0
 29 21  2  0  0  0  0
 30 31  1  0  0  0  0
 31 23  1  0  0  0  0
 31 19  2  0  0  0  0
 32 33  1  0  0  0  0
 34 32  2  0  0  0  0
M  END
>  <MODEL>
8

>  <REMARK>
 VINA RESULT:      -7.7      3.421     11.150
  Name = 
  5 active torsions:
  status: ('A' for Active; 'I' for Inactive)
    1  A    between atoms: N_3  and  C_25
    2  A    between atoms: C_7  and  C_11
    3  A    between atoms: C_8  and  C_17
    4  A    between atoms: C_10  and  C_17
    5  A    between atoms: C_10  and  C_20
                            x       y       z     vdW  Elec       q    Type
                         _______ _______ _______ _____ _____    ______ ____

>  <TORSDO>
F 5

$$$$
=
 OpenBabel11062409383D

 34 38  0  0  1  0  0  0  0  0999 V2000
  161.0530  210.9620  155.1100 C   0  0  1  0  0  3  0  0  0  0  0  0
  161.6460  211.0640  156.5030 C   0  0  0  0  0  1  0  0  0  0  0  0
  161.3640  209.2830  153.3440 N   0  0  0  0  0  0  0  0  0  0  0  0
  161.1240  205.6570  153.3390 C   0  0  0  0  0  2  0  0  0  0  0  0
  160.5380  207.2220  154.9060 N   0  0  0  0  0  0  0  0  0  0  0  0
  160.5320  208.4790  155.4150 C   0  0  0  0  0  0  0  0  0  0  0  0
  161.0130  209.5370  154.6300 C   0  0  0  0  0  0  0  0  0  0  0  0
  160.0720  208.6940  156.7470 N   0  0  0  0  0  1  0  0  0  0  0  0
  161.8680  205.1250  152.1630 C   0  0  0  0  0  2  0  0  0  0  0  0
  161.2890  205.5520  150.8620 C   0  0  0  0  0  0  0  0  0  0  0  0
  161.2060  206.8450  150.5510 C   0  0  0  0  0  3  0  0  0  0  0  0
  160.9620  206.9490  153.6440 C   0  0  0  0  0  0  0  0  0  0  0  0
  161.4380  207.9820  151.4620 C   0  0  0  0  0  2  0  0  0  0  0  0
  161.3160  208.0380  152.7980 C   0  0  0  0  0  0  0  0  0  0  0  0
  160.9770  204.5580  149.8760 N   0  0  0  0  0  0  0  0  0  0  0  0
  160.9580  204.8920  148.5410 O   0  0  0  0  0  0  0  0  0  0  0  0
  160.7440  203.3760  150.2080 O   0  0  0  0  0  0  0  0  0  0  0  0
  159.6830  211.6290  155.0610 C   0  0  0  0  0  2  0  0  0  0  0  0
  157.5220  213.0170  150.4250 C   0  0  0  0  0  3  0  0  0  0  0  0
  160.3580  212.9810  150.2870 C   0  0  0  0  0  3  0  0  0  0  0  0
  158.0760  213.9550  146.8800 C   0  0  0  0  0  0  0  0  0  0  0  0
  159.3630  212.0930  153.6800 C   0  0  0  0  0  0  0  0  0  0  0  0
  157.7970  212.2900  153.0740 S   0  0  0  0  0  0  0  0  0  0  0  0
  157.4320  213.6470  148.0860 C   0  0  0  0  0  3  0  0  0  0  0  0
  158.1760  213.3230  149.2230 C   0  0  0  0  0  0  0  0  0  0  0  0
  160.3080  212.3320  152.6820 C   0  0  0  0  0  3  0  0  0  0  0  0
  160.2350  213.6120  147.9490 C   0  0  0  0  0  3  0  0  0  0  0  0
  159.5970  213.3060  149.1530 C   0  0  0  0  0  0  0  0  0  0  0  0
  159.4780  213.9350  146.8200 C   0  0  0  0  0  3  0  0  0  0  0  0
  159.6940  212.6790  151.4760 C   0  0  0  0  0  0  0  0  0  0  0  0
  158.3070  212.7010  151.5310 C   0  0  0  0  0  0  0  0  0  0  0  0
  157.2830  214.2960  145.6880 C   0  0  0  0  0  0  0  0  0  0  0  0
  157.8450  214.4530  144.5710 O   0  0  0  0  0  0  0  0  0  0  0  0
  155.9040  214.4450  145.7830 O   0  0  0  0  0  1  0  0  0  0  0  0
  1  2  1  1  0  0  0
  3  7  1  0  0  0  0
  4 12  1  0  0  0  0
  5  6  1  0  0  0  0
  6  8  1  0  0  0  0
  7  1  1  0  0  0  0
  7  6  2  0  0  0  0
  9  4  1  0  0  0  0
 10  9  1  0  0  0  0
 11 10  2  0  0  0  0
 11 13  1  0  0  0  0
 12  5  2  0  0  0  0
 13 14  1  0  0  0  0
 14  3  2  0  0  0  0
 14 12  1  0  0  0  0
 15 17  2  0  0  0  0
 15 10  1  0  0  0  0
 16 15  2  0  0  0  0
 18  1  1  0  0  0  0
 19 31  1  0  0  0  0
 20 30  1  0  0  0  0
 21 24  2  0  0  0  0
 22 18  1  0  0  0  0
 23 22  1  0  0  0  0
 24 25  1  0  0  0  0
 25 19  2  0  0  0  0
 26 22  2  0  0  0  0
 27 28  1  0  0  0  0
 28 25  1  0  0  0  0
 28 20  2  0  0  0  0
 29 21  1  0  0  0  0
 29 27  2  0  0  0  0
 30 31  2  0  0  0  0
 30 26  1  0  0  0  0
 31 23  1  0  0  0  0
 32 34  1  0  0  0  0
 32 21  1  0  0  0  0
 33 32  2  0  0  0  0
M  END
>  <MODEL>
9

>  <REMARK>
 VINA RESULT:      -7.5      4.504      9.309
  Name = 
  5 active torsions:
  status: ('A' for Active; 'I' for Inactive)
    1  A    between atoms: N_3  and  C_25
    2  A    between atoms: C_7  and  C_11
    3  A    between atoms: C_8  and  C_17
    4  A    between atoms: C_10  and  C_17
    5  A    between atoms: C_10  and  C_20
                            x       y       z     vdW  Elec       q    Type
                         _______ _______ _______ _____ _____    ______ ____

>  <TORSDO>
F 5

$$$$
