=
 OpenBabel11052422093D

 25 27  0  0  1  0  0  0  0  0999 V2000
  161.5010  206.6210  148.1950 N   0  0  0  0  0  0  0  0  0  0  0  0
  161.2990  205.9250  149.3360 C   0  0  0  0  0  0  0  0  0  0  0  0
  162.0550  209.2530  150.5950 C   0  0  0  0  0  1  0  0  0  0  0  0
  161.7770  207.9850  149.8670 C   0  0  0  0  0  0  0  0  0  0  0  0
  161.2960  206.3010  151.7280 C   0  0  0  0  0  0  0  0  0  0  0  0
  161.5000  207.3420  153.1250 Cl  0  0  0  0  0  0  0  0  0  0  0  0
  160.9490  204.5840  149.4920 C   0  0  0  0  0  3  0  0  0  0  0  0
  161.7950  207.8770  148.5200 N   0  0  0  0  0  0  0  0  0  0  0  0
  160.9490  204.9510  151.9090 C   0  0  0  0  0  3  0  0  0  0  0  0
  160.7740  204.0950  150.8000 C   0  0  0  0  0  0  0  0  0  0  0  0
  161.4610  206.7550  150.4150 C   0  0  0  0  0  0  0  0  0  0  0  0
  161.4480  206.1290  146.8370 C   0  0  0  0  0  0  0  0  0  0  0  0
  161.2790  205.1580  144.2000 C   0  0  0  0  0  3  0  0  0  0  0  0
  162.4810  205.3250  146.3000 C   0  0  0  0  0  0  0  0  0  0  0  0
  162.3890  204.8490  144.9880 C   0  0  0  0  0  3  0  0  0  0  0  0
  160.2540  205.9490  144.7190 C   0  0  0  0  0  3  0  0  0  0  0  0
  163.6440  205.0090  147.0580 N   0  0  0  0  0  1  0  0  0  0  0  0
  160.3390  206.4290  146.0270 C   0  0  0  0  0  3  0  0  0  0  0  0
  160.3970  202.6570  151.0160 C   0  0  0  0  0  2  0  0  0  0  0  0
  161.0770  201.7230  150.1080 N   0  0  0  0  0  0  0  0  0  0  0  0
  161.1390  200.5060  150.7010 O   0  0  0  0  0  1  0  0  0  0  0  0
  160.3100  201.5750  148.8740 C   0  0  0  0  0  2  0  0  0  0  0  0
  161.4880  199.9730  147.5270 O   0  0  0  0  0  1  0  0  0  0  0  0
  160.6080  201.8860  146.4040 C   0  0  0  0  0  1  0  0  0  0  0  0
  161.2240  201.3340  147.6770 C   0  0  1  0  0  3  0  0  0  0  0  0
  1  8  1  0  0  0  0
  1  2  1  0  0  0  0
  2  7  2  0  0  0  0
  2 11  1  0  0  0  0
  4 11  1  0  0  0  0
  4  3  1  0  0  0  0
  5  9  1  0  0  0  0
  5  6  1  0  0  0  0
  7 10  1  0  0  0  0
  8  4  2  0  0  0  0
 10 19  1  0  0  0  0
 10  9  2  0  0  0  0
 11  5  2  0  0  0  0
 12  1  1  0  0  0  0
 13 16  2  0  0  0  0
 13 15  1  0  0  0  0
 14 12  1  0  0  0  0
 14 17  1  0  0  0  0
 15 14  2  0  0  0  0
 16 18  1  0  0  0  0
 18 12  2  0  0  0  0
 20 21  1  0  0  0  0
 20 19  1  0  0  0  0
 22 20  1  0  0  0  0
 23 25  1  0  0  0  0
 25 24  1  6  0  0  0
 25 22  1  0  0  0  0
M  END
>  <MODEL>
1

>  <REMARK>
 VINA RESULT:      -7.7      0.000      0.000
  Name = 
  5 active torsions:
  status: ('A' for Active; 'I' for Inactive)
    1  A    between atoms: N_1  and  C_5
    2  A    between atoms: C_2  and  N_15
    3  A    between atoms: C_2  and  C_21
    4  A    between atoms: C_6  and  N_15
    5  A    between atoms: C_6  and  C_23
                            x       y       z     vdW  Elec       q    Type
                         _______ _______ _______ _____ _____    ______ ____

>  <TORSDO>
F 5

$$$$
=
 OpenBabel11052422093D

 25 27  0  0  1  0  0  0  0  0999 V2000
  161.2970  205.6520  149.6840 N   0  0  0  0  0  0  0  0  0  0  0  0
  161.2950  206.3810  150.8230 C   0  0  0  0  0  0  0  0  0  0  0  0
  161.8740  208.9250  148.2880 C   0  0  0  0  0  1  0  0  0  0  0  0
  161.6340  207.7330  149.1460 C   0  0  0  0  0  0  0  0  0  0  0  0
  161.5330  208.6900  151.5130 C   0  0  0  0  0  0  0  0  0  0  0  0
  161.7980  210.3860  151.1550 Cl  0  0  0  0  0  0  0  0  0  0  0  0
  161.0940  205.9530  152.1350 C   0  0  0  0  0  3  0  0  0  0  0  0
  161.5070  206.4770  148.6620 N   0  0  0  0  0  0  0  0  0  0  0  0
  161.3380  208.2810  152.8440 C   0  0  0  0  0  3  0  0  0  0  0  0
  161.1180  206.9210  153.1560 C   0  0  0  0  0  0  0  0  0  0  0  0
  161.5010  207.7030  150.5220 C   0  0  0  0  0  0  0  0  0  0  0  0
  161.1340  204.2220  149.5490 C   0  0  0  0  0  0  0  0  0  0  0  0
  160.8490  201.4290  149.3430 C   0  0  0  0  0  3  0  0  0  0  0  0
  161.2710  203.5760  148.2980 C   0  0  0  0  0  0  0  0  0  0  0  0
  161.1260  202.1890  148.2060 C   0  0  0  0  0  3  0  0  0  0  0  0
  160.7130  202.0550  150.5820 C   0  0  0  0  0  3  0  0  0  0  0  0
  161.5250  204.3150  147.1070 N   0  0  0  0  0  1  0  0  0  0  0  0
  160.8550  203.4400  150.6830 C   0  0  0  0  0  3  0  0  0  0  0  0
  160.9060  206.5060  154.5840 C   0  0  0  0  0  2  0  0  0  0  0  0
  160.2820  207.5440  155.4160 N   0  0  0  0  0  0  0  0  0  0  0  0
  159.2490  206.9930  156.0990 O   0  0  0  0  0  1  0  0  0  0  0  0
  161.2420  208.0450  156.3960 C   0  0  0  0  0  2  0  0  0  0  0  0
  162.4370  210.0480  155.8220 O   0  0  0  0  0  1  0  0  0  0  0  0
  160.0550  210.1450  155.7150 C   0  0  0  0  0  1  0  0  0  0  0  0
  161.2700  209.5700  156.4180 C   0  0  1  0  0  3  0  0  0  0  0  0
  1  2  1  0  0  0  0
  2  7  1  0  0  0  0
  3  4  1  0  0  0  0
  4 11  1  0  0  0  0
  5  9  2  0  0  0  0
  6  5  1  0  0  0  0
  7 10  2  0  0  0  0
  8  4  2  0  0  0  0
  8  1  1  0  0  0  0
  9 10  1  0  0  0  0
 10 19  1  0  0  0  0
 11  2  2  0  0  0  0
 11  5  1  0  0  0  0
 12  1  1  0  0  0  0
 12 18  1  0  0  0  0
 13 16  1  0  0  0  0
 14 12  2  0  0  0  0
 15 14  1  0  0  0  0
 15 13  2  0  0  0  0
 16 18  2  0  0  0  0
 17 14  1  0  0  0  0
 19 20  1  0  0  0  0
 20 21  1  0  0  0  0
 20 22  1  0  0  0  0
 22 25  1  0  0  0  0
 23 25  1  0  0  0  0
 25 24  1  6  0  0  0
M  END
>  <MODEL>
2

>  <REMARK>
 VINA RESULT:      -7.5      3.909      6.224
  Name = 
  5 active torsions:
  status: ('A' for Active; 'I' for Inactive)
    1  A    between atoms: N_1  and  C_5
    2  A    between atoms: C_2  and  N_15
    3  A    between atoms: C_2  and  C_21
    4  A    between atoms: C_6  and  N_15
    5  A    between atoms: C_6  and  C_23
                            x       y       z     vdW  Elec       q    Type
                         _______ _______ _______ _____ _____    ______ ____

>  <TORSDO>
F 5

$$$$
=
 OpenBabel11052422093D

 25 27  0  0  1  0  0  0  0  0999 V2000
  161.2120  206.2700  151.9810 N   0  0  0  0  0  0  0  0  0  0  0  0
  161.1120  205.8460  150.7020 C   0  0  0  0  0  0  0  0  0  0  0  0
  161.0550  202.7140  152.5490 C   0  0  0  0  0  1  0  0  0  0  0  0
  161.0980  204.0970  152.0040 C   0  0  0  0  0  0  0  0  0  0  0  0
  160.9090  203.7680  149.4760 C   0  0  0  0  0  0  0  0  0  0  0  0
  160.8100  202.0180  149.4160 Cl  0  0  0  0  0  0  0  0  0  0  0  0
  161.0580  206.6040  149.5310 C   0  0  0  0  0  3  0  0  0  0  0  0
  161.2060  205.2020  152.7750 N   0  0  0  0  0  0  0  0  0  0  0  0
  160.8590  204.5100  148.2840 C   0  0  0  0  0  3  0  0  0  0  0  0
  160.9310  205.9200  148.3080 C   0  0  0  0  0  0  0  0  0  0  0  0
  161.0340  204.4780  150.6760 C   0  0  0  0  0  0  0  0  0  0  0  0
  161.3350  207.6290  152.4560 C   0  0  0  0  0  0  0  0  0  0  0  0
  161.6330  210.2830  153.3480 C   0  0  0  0  0  3  0  0  0  0  0  0
  160.9900  207.9850  153.7810 C   0  0  0  0  0  0  0  0  0  0  0  0
  161.1400  209.3070  154.2140 C   0  0  0  0  0  3  0  0  0  0  0  0
  161.9770  209.9440  152.0390 C   0  0  0  0  0  3  0  0  0  0  0  0
  160.4560  207.0280  154.6910 N   0  0  0  0  0  1  0  0  0  0  0  0
  161.8290  208.6280  151.5990 C   0  0  0  0  0  3  0  0  0  0  0  0
  160.8690  206.6950  147.0230 C   0  0  0  0  0  2  0  0  0  0  0  0
  160.9030  205.8510  145.8200 N   0  0  0  0  0  0  0  0  0  0  0  0
  160.0810  206.3890  144.8860 O   0  0  0  0  0  1  0  0  0  0  0  0
  162.2520  205.8280  145.2610 C   0  0  0  0  0  2  0  0  0  0  0  0
  163.7740  204.3290  146.3600 O   0  0  0  0  0  1  0  0  0  0  0  0
  161.7690  203.3780  145.4800 C   0  0  0  0  0  1  0  0  0  0  0  0
  162.8530  204.4280  145.3160 C   0  0  1  0  0  3  0  0  0  0  0  0
  1 12  1  0  0  0  0
  1  8  1  0  0  0  0
  2  1  1  0  0  0  0
  4  3  1  0  0  0  0
  4  8  2  0  0  0  0
  5 11  2  0  0  0  0
  6  5  1  0  0  0  0
  7  2  2  0  0  0  0
  9 10  2  0  0  0  0
  9  5  1  0  0  0  0
 10  7  1  0  0  0  0
 11  2  1  0  0  0  0
 11  4  1  0  0  0  0
 12 14  1  0  0  0  0
 13 15  1  0  0  0  0
 14 15  2  0  0  0  0
 14 17  1  0  0  0  0
 16 13  2  0  0  0  0
 18 16  1  0  0  0  0
 18 12  2  0  0  0  0
 19 10  1  0  0  0  0
 20 19  1  0  0  0  0
 21 20  1  0  0  0  0
 22 25  1  0  0  0  0
 22 20  1  0  0  0  0
 25 24  1  1  0  0  0
 25 23  1  0  0  0  0
M  END
>  <MODEL>
3

>  <REMARK>
 VINA RESULT:      -7.3      3.157      6.051
  Name = 
  5 active torsions:
  status: ('A' for Active; 'I' for Inactive)
    1  A    between atoms: N_1  and  C_5
    2  A    between atoms: C_2  and  N_15
    3  A    between atoms: C_2  and  C_21
    4  A    between atoms: C_6  and  N_15
    5  A    between atoms: C_6  and  C_23
                            x       y       z     vdW  Elec       q    Type
                         _______ _______ _______ _____ _____    ______ ____

>  <TORSDO>
F 5

$$$$
=
 OpenBabel11052422093D

 25 27  0  0  1  0  0  0  0  0999 V2000
  161.2760  207.8570  151.6190 N   0  0  0  0  0  0  0  0  0  0  0  0
  161.1630  206.7710  150.8220 C   0  0  0  0  0  0  0  0  0  0  0  0
  162.2760  209.3220  148.4810 C   0  0  0  0  0  1  0  0  0  0  0  0
  161.8300  208.4490  149.5990 C   0  0  0  0  0  0  0  0  0  0  0  0
  161.4970  206.1650  148.5020 C   0  0  0  0  0  0  0  0  0  0  0  0
  161.9320  206.5680  146.8510 Cl  0  0  0  0  0  0  0  0  0  0  0  0
  160.7920  205.4700  151.1640 C   0  0  0  0  0  3  0  0  0  0  0  0
  161.6800  208.8810  150.8720 N   0  0  0  0  0  0  0  0  0  0  0  0
  161.1200  204.8500  148.8220 C   0  0  0  0  0  3  0  0  0  0  0  0
  160.7710  204.5010  150.1460 C   0  0  0  0  0  0  0  0  0  0  0  0
  161.5090  207.1050  149.5380 C   0  0  0  0  0  0  0  0  0  0  0  0
  160.9920  207.9510  153.0330 C   0  0  0  0  0  0  0  0  0  0  0  0
  160.4120  208.0730  155.7850 C   0  0  0  0  0  3  0  0  0  0  0  0
  160.5360  209.1550  153.6180 C   0  0  0  0  0  0  0  0  0  0  0  0
  160.2520  209.2060  154.9870 C   0  0  0  0  0  3  0  0  0  0  0  0
  160.8610  206.8800  155.2190 C   0  0  0  0  0  3  0  0  0  0  0  0
  160.3840  210.3440  152.8480 N   0  0  0  0  0  1  0  0  0  0  0  0
  161.1480  206.8210  153.8540 C   0  0  0  0  0  3  0  0  0  0  0  0
  160.3780  203.0870  150.4680 C   0  0  0  0  0  2  0  0  0  0  0  0
  161.1070  202.0770  149.6880 N   0  0  0  0  0  0  0  0  0  0  0  0
  161.2920  200.9790  150.4620 O   0  0  0  0  0  1  0  0  0  0  0  0
  160.3180  201.6720  148.5290 C   0  0  0  0  0  2  0  0  0  0  0  0
  161.5160  199.9710  147.3270 O   0  0  0  0  0  1  0  0  0  0  0  0
  160.5470  201.7280  146.0330 C   0  0  0  0  0  1  0  0  0  0  0  0
  161.2100  201.3330  147.3400 C   0  0  1  0  0  3  0  0  0  0  0  0
  1 12  1  0  0  0  0
  2  7  1  0  0  0  0
  2  1  1  0  0  0  0
  3  4  1  0  0  0  0
  4  8  2  0  0  0  0
  5  9  2  0  0  0  0
  5 11  1  0  0  0  0
  6  5  1  0  0  0  0
  8  1  1  0  0  0  0
  9 10  1  0  0  0  0
 10 19  1  0  0  0  0
 10  7  2  0  0  0  0
 11  4  1  0  0  0  0
 11  2  2  0  0  0  0
 12 14  2  0  0  0  0
 12 18  1  0  0  0  0
 14 15  1  0  0  0  0
 15 13  2  0  0  0  0
 16 13  1  0  0  0  0
 17 14  1  0  0  0  0
 18 16  2  0  0  0  0
 20 21  1  0  0  0  0
 20 19  1  0  0  0  0
 22 20  1  0  0  0  0
 23 25  1  0  0  0  0
 25 24  1  6  0  0  0
 25 22  1  0  0  0  0
M  END
>  <MODEL>
4

>  <REMARK>
 VINA RESULT:      -7.2      2.585      5.372
  Name = 
  5 active torsions:
  status: ('A' for Active; 'I' for Inactive)
    1  A    between atoms: N_1  and  C_5
    2  A    between atoms: C_2  and  N_15
    3  A    between atoms: C_2  and  C_21
    4  A    between atoms: C_6  and  N_15
    5  A    between atoms: C_6  and  C_23
                            x       y       z     vdW  Elec       q    Type
                         _______ _______ _______ _____ _____    ______ ____

>  <TORSDO>
F 5

$$$$
=
 OpenBabel11052422093D

 25 27  0  0  1  0  0  0  0  0999 V2000
  161.1970  206.1370  151.3710 N   0  0  0  0  0  0  0  0  0  0  0  0
  161.4310  207.4420  151.1080 C   0  0  0  0  0  0  0  0  0  0  0  0
  160.9510  207.4630  154.7140 C   0  0  0  0  0  1  0  0  0  0  0  0
  161.1090  207.2240  153.2540 C   0  0  0  0  0  0  0  0  0  0  0  0
  161.6090  209.5420  152.3010 C   0  0  0  0  0  0  0  0  0  0  0  0
  161.5560  210.4830  153.7800 Cl  0  0  0  0  0  0  0  0  0  0  0  0
  161.7120  208.0510  149.8850 C   0  0  0  0  0  3  0  0  0  0  0  0
  160.9980  206.0050  152.6790 N   0  0  0  0  0  0  0  0  0  0  0  0
  161.8880  210.1780  151.0790 C   0  0  0  0  0  3  0  0  0  0  0  0
  161.9420  209.4390  149.8760 C   0  0  0  0  0  0  0  0  0  0  0  0
  161.3870  208.1600  152.2750 C   0  0  0  0  0  0  0  0  0  0  0  0
  161.1340  205.0420  150.4290 C   0  0  0  0  0  0  0  0  0  0  0  0
  160.9780  202.9490  148.5520 C   0  0  0  0  0  3  0  0  0  0  0  0
  160.9070  203.7120  150.8530 C   0  0  0  0  0  0  0  0  0  0  0  0
  160.8330  202.6790  149.9140 C   0  0  0  0  0  3  0  0  0  0  0  0
  161.2030  204.2570  148.1220 C   0  0  0  0  0  3  0  0  0  0  0  0
  160.7800  203.3860  152.2340 N   0  0  0  0  0  1  0  0  0  0  0  0
  161.2790  205.2930  149.0540 C   0  0  0  0  0  3  0  0  0  0  0  0
  162.2480  210.1380  148.5820 C   0  0  0  0  0  2  0  0  0  0  0  0
  162.1070  211.5990  148.6500 N   0  0  0  0  0  0  0  0  0  0  0  0
  163.2480  212.1690  148.1910 O   0  0  0  0  0  1  0  0  0  0  0  0
  161.0150  212.0380  147.7860 C   0  0  0  0  0  2  0  0  0  0  0  0
  159.1500  213.5510  147.7210 O   0  0  0  0  0  1  0  0  0  0  0  0
  160.3400  213.3930  149.7840 C   0  0  0  0  0  1  0  0  0  0  0  0
  160.4180  213.3560  148.2690 C   0  0  1  0  0  3  0  0  0  0  0  0
  1  8  1  0  0  0  0
  2  1  1  0  0  0  0
  2 11  1  0  0  0  0
  4  3  1  0  0  0  0
  5  6  1  0  0  0  0
  7  2  2  0  0  0  0
  8  4  2  0  0  0  0
  9  5  1  0  0  0  0
 10  7  1  0  0  0  0
 10  9  2  0  0  0  0
 11  5  2  0  0  0  0
 11  4  1  0  0  0  0
 12 14  1  0  0  0  0
 12  1  1  0  0  0  0
 13 15  1  0  0  0  0
 14 17  1  0  0  0  0
 15 14  2  0  0  0  0
 16 13  2  0  0  0  0
 16 18  1  0  0  0  0
 18 12  2  0  0  0  0
 19 20  1  0  0  0  0
 19 10  1  0  0  0  0
 21 20  1  0  0  0  0
 22 25  1  0  0  0  0
 22 20  1  0  0  0  0
 23 25  1  0  0  0  0
 25 24  1  1  0  0  0
M  END
>  <MODEL>
5

>  <REMARK>
 VINA RESULT:      -7.2      4.430      7.023
  Name = 
  5 active torsions:
  status: ('A' for Active; 'I' for Inactive)
    1  A    between atoms: N_1  and  C_5
    2  A    between atoms: C_2  and  N_15
    3  A    between atoms: C_2  and  C_21
    4  A    between atoms: C_6  and  N_15
    5  A    between atoms: C_6  and  C_23
                            x       y       z     vdW  Elec       q    Type
                         _______ _______ _______ _____ _____    ______ ____

>  <TORSDO>
F 5

$$$$
=
 OpenBabel11052422093D

 25 27  0  0  1  0  0  0  0  0999 V2000
  161.2900  205.7160  148.5840 N   0  0  0  0  0  0  0  0  0  0  0  0
  161.4860  206.7710  149.4060 C   0  0  0  0  0  0  0  0  0  0  0  0
  160.9320  204.0600  151.7660 C   0  0  0  0  0  1  0  0  0  0  0  0
  161.1270  205.0060  150.6350 C   0  0  0  0  0  0  0  0  0  0  0  0
  161.5700  207.2490  151.7780 C   0  0  0  0  0  0  0  0  0  0  0  0
  161.4550  206.7500  153.4550 Cl  0  0  0  0  0  0  0  0  0  0  0  0
  161.7720  208.0960  149.0740 C   0  0  0  0  0  3  0  0  0  0  0  0
  161.0690  204.6400  149.3350 N   0  0  0  0  0  0  0  0  0  0  0  0
  161.8530  208.5900  151.4670 C   0  0  0  0  0  3  0  0  0  0  0  0
  161.9560  209.0140  150.1240 C   0  0  0  0  0  0  0  0  0  0  0  0
  161.3950  206.3610  150.7100 C   0  0  0  0  0  0  0  0  0  0  0  0
  161.2840  205.7080  147.1390 C   0  0  0  0  0  0  0  0  0  0  0  0
  161.2060  205.6770  144.3250 C   0  0  0  0  0  3  0  0  0  0  0  0
  162.3710  205.1920  146.3960 C   0  0  0  0  0  0  0  0  0  0  0  0
  162.3240  205.1830  144.9980 C   0  0  0  0  0  3  0  0  0  0  0  0
  160.1280  206.1880  145.0470 C   0  0  0  0  0  3  0  0  0  0  0  0
  163.5440  204.7030  147.0400 N   0  0  0  0  0  1  0  0  0  0  0  0
  160.1680  206.2030  146.4420 C   0  0  0  0  0  3  0  0  0  0  0  0
  162.2660  210.4510  149.8150 C   0  0  0  0  0  2  0  0  0  0  0  0
  162.1720  210.7830  148.3860 N   0  0  0  0  0  0  0  0  0  0  0  0
  160.9100  211.1980  148.1170 O   0  0  0  0  0  1  0  0  0  0  0  0
  163.0770  211.8830  148.0670 C   0  0  0  0  0  2  0  0  0  0  0  0
  162.5730  214.2240  148.2600 O   0  0  0  0  0  1  0  0  0  0  0  0
  162.6950  213.3250  146.0520 C   0  0  0  0  0  1  0  0  0  0  0  0
  162.3200  213.0800  147.5020 C   0  0  1  0  0  3  0  0  0  0  0  0
  1  8  1  0  0  0  0
  1  2  1  0  0  0  0
  2 11  1  0  0  0  0
  4 11  1  0  0  0  0
  4  3  1  0  0  0  0
  5  6  1  0  0  0  0
  7  2  2  0  0  0  0
  7 10  1  0  0  0  0
  8  4  2  0  0  0  0
  9  5  1  0  0  0  0
 10  9  2  0  0  0  0
 11  5  2  0  0  0  0
 12  1  1  0  0  0  0
 13 15  2  0  0  0  0
 13 16  1  0  0  0  0
 14 17  1  0  0  0  0
 14 12  2  0  0  0  0
 15 14  1  0  0  0  0
 16 18  2  0  0  0  0
 18 12  1  0  0  0  0
 19 10  1  0  0  0  0
 20 19  1  0  0  0  0
 21 20  1  0  0  0  0
 22 20  1  0  0  0  0
 25 24  1  6  0  0  0
 25 22  1  0  0  0  0
 25 23  1  0  0  0  0
M  END
>  <MODEL>
6

>  <REMARK>
 VINA RESULT:      -7.1      4.091      6.249
  Name = 
  5 active torsions:
  status: ('A' for Active; 'I' for Inactive)
    1  A    between atoms: N_1  and  C_5
    2  A    between atoms: C_2  and  N_15
    3  A    between atoms: C_2  and  C_21
    4  A    between atoms: C_6  and  N_15
    5  A    between atoms: C_6  and  C_23
                            x       y       z     vdW  Elec       q    Type
                         _______ _______ _______ _____ _____    ______ ____

>  <TORSDO>
F 5

$$$$
=
 OpenBabel11052422093D

 25 27  0  0  1  0  0  0  0  0999 V2000
  161.2450  204.9400  148.3530 N   0  0  0  0  0  0  0  0  0  0  0  0
  161.3060  205.7770  149.4130 C   0  0  0  0  0  0  0  0  0  0  0  0
  160.9230  202.5380  151.0220 C   0  0  0  0  0  1  0  0  0  0  0  0
  161.0700  203.7430  150.1630 C   0  0  0  0  0  0  0  0  0  0  0  0
  161.2490  205.6710  151.8310 C   0  0  0  0  0  0  0  0  0  0  0  0
  161.1160  204.7720  153.3310 Cl  0  0  0  0  0  0  0  0  0  0  0  0
  161.4750  207.1620  149.4240 C   0  0  0  0  0  3  0  0  0  0  0  0
  161.0990  203.7000  148.8120 N   0  0  0  0  0  0  0  0  0  0  0  0
  161.4130  207.0660  151.8670 C   0  0  0  0  0  3  0  0  0  0  0  0
  161.5280  207.8100  150.6720 C   0  0  0  0  0  0  0  0  0  0  0  0
  161.2020  205.0570  150.5750 C   0  0  0  0  0  0  0  0  0  0  0  0
  161.2970  205.2830  146.9510 C   0  0  0  0  0  0  0  0  0  0  0  0
  161.3340  205.9270  144.2100 C   0  0  0  0  0  3  0  0  0  0  0  0
  162.4640  205.0750  146.1790 C   0  0  0  0  0  0  0  0  0  0  0  0
  162.4740  205.4000  144.8190 C   0  0  0  0  0  3  0  0  0  0  0  0
  160.1770  206.1360  144.9610 C   0  0  0  0  0  3  0  0  0  0  0  0
  163.6590  204.5650  146.7650 N   0  0  0  0  0  1  0  0  0  0  0  0
  160.1600  205.8160  146.3190 C   0  0  0  0  0  3  0  0  0  0  0  0
  161.7090  209.3000  150.7330 C   0  0  0  0  0  2  0  0  0  0  0  0
  161.6740  209.8460  152.0970 N   0  0  0  0  0  0  0  0  0  0  0  0
  162.8940  210.3570  152.3930 O   0  0  0  0  0  1  0  0  0  0  0  0
  160.7070  210.9380  152.1750 C   0  0  0  0  0  2  0  0  0  0  0  0
  160.2080  209.7080  154.1770 O   0  0  0  0  0  1  0  0  0  0  0  0
  159.9360  212.0780  154.2700 C   0  0  0  0  0  1  0  0  0  0  0  0
  159.8380  210.8220  153.4230 C   0  0  1  0  0  3  0  0  0  0  0  0
  1  8  1  0  0  0  0
  1  2  1  0  0  0  0
  2  7  2  0  0  0  0
  2 11  1  0  0  0  0
  4 11  1  0  0  0  0
  4  3  1  0  0  0  0
  5  9  1  0  0  0  0
  5  6  1  0  0  0  0
  7 10  1  0  0  0  0
  8  4  2  0  0  0  0
 10 19  1  0  0  0  0
 10  9  2  0  0  0  0
 11  5  2  0  0  0  0
 12  1  1  0  0  0  0
 13 15  2  0  0  0  0
 13 16  1  0  0  0  0
 14 17  1  0  0  0  0
 14 12  2  0  0  0  0
 15 14  1  0  0  0  0
 16 18  2  0  0  0  0
 18 12  1  0  0  0  0
 19 20  1  0  0  0  0
 20 22  1  0  0  0  0
 20 21  1  0  0  0  0
 22 25  1  0  0  0  0
 25 23  1  0  0  0  0
 25 24  1  1  0  0  0
M  END
>  <MODEL>
7

>  <REMARK>
 VINA RESULT:      -7.1      3.426      5.915
  Name = 
  5 active torsions:
  status: ('A' for Active; 'I' for Inactive)
    1  A    between atoms: N_1  and  C_5
    2  A    between atoms: C_2  and  N_15
    3  A    between atoms: C_2  and  C_21
    4  A    between atoms: C_6  and  N_15
    5  A    between atoms: C_6  and  C_23
                            x       y       z     vdW  Elec       q    Type
                         _______ _______ _______ _____ _____    ______ ____

>  <TORSDO>
F 5

$$$$
=
 OpenBabel11052422093D

 25 27  0  0  1  0  0  0  0  0999 V2000
  161.3180  208.9160  153.0260 N   0  0  0  0  0  0  0  0  0  0  0  0
  161.3000  207.8240  152.2290 C   0  0  0  0  0  0  0  0  0  0  0  0
  162.3310  210.4380  149.9190 C   0  0  0  0  0  1  0  0  0  0  0  0
  161.9020  209.5390  151.0240 C   0  0  0  0  0  0  0  0  0  0  0  0
  161.7500  207.2380  149.9230 C   0  0  0  0  0  0  0  0  0  0  0  0
  162.2140  207.6660  148.2870 Cl  0  0  0  0  0  0  0  0  0  0  0  0
  161.0000  206.5030  152.5620 C   0  0  0  0  0  3  0  0  0  0  0  0
  161.6820  209.9620  152.2890 N   0  0  0  0  0  0  0  0  0  0  0  0
  161.4460  205.9020  150.2340 C   0  0  0  0  0  3  0  0  0  0  0  0
  161.0740  205.5330  151.5460 C   0  0  0  0  0  0  0  0  0  0  0  0
  161.6680  208.1780  150.9560 C   0  0  0  0  0  0  0  0  0  0  0  0
  160.9810  208.9930  154.4290 C   0  0  0  0  0  0  0  0  0  0  0  0
  160.3260  209.0760  157.1660 C   0  0  0  0  0  3  0  0  0  0  0  0
  160.0370  209.9280  154.9140 C   0  0  0  0  0  0  0  0  0  0  0  0
  159.7190  209.9630  156.2750 C   0  0  0  0  0  3  0  0  0  0  0  0
  161.2580  208.1490  156.6990 C   0  0  0  0  0  3  0  0  0  0  0  0
  159.4140  210.8710  154.0460 N   0  0  0  0  0  1  0  0  0  0  0  0
  161.5810  208.1090  155.3420 C   0  0  0  0  0  3  0  0  0  0  0  0
  160.7590  204.0980  151.8590 C   0  0  0  0  0  2  0  0  0  0  0  0
  161.3670  203.1400  150.9240 N   0  0  0  0  0  0  0  0  0  0  0  0
  162.1020  202.2470  151.6310 O   0  0  0  0  0  1  0  0  0  0  0  0
  160.3260  202.3980  150.2190 C   0  0  0  0  0  2  0  0  0  0  0  0
  161.5760  203.2160  148.3380 O   0  0  0  0  0  1  0  0  0  0  0  0
  161.2050  200.8610  148.4440 C   0  0  0  0  0  1  0  0  0  0  0  0
  160.6580  202.2450  148.7380 C   0  0  1  0  0  3  0  0  0  0  0  0
  1 12  1  0  0  0  0
  2  7  1  0  0  0  0
  2  1  1  0  0  0  0
  3  4  1  0  0  0  0
  4  8  2  0  0  0  0
  5  9  2  0  0  0  0
  5 11  1  0  0  0  0
  6  5  1  0  0  0  0
  8  1  1  0  0  0  0
  9 10  1  0  0  0  0
 10 19  1  0  0  0  0
 10  7  2  0  0  0  0
 11  4  1  0  0  0  0
 11  2  2  0  0  0  0
 12 14  2  0  0  0  0
 12 18  1  0  0  0  0
 14 15  1  0  0  0  0
 15 13  2  0  0  0  0
 16 13  1  0  0  0  0
 17 14  1  0  0  0  0
 18 16  2  0  0  0  0
 20 21  1  0  0  0  0
 20 19  1  0  0  0  0
 22 20  1  0  0  0  0
 23 25  1  0  0  0  0
 25 24  1  1  0  0  0
 25 22  1  0  0  0  0
M  END
>  <MODEL>
8

>  <REMARK>
 VINA RESULT:      -7.0      3.446      6.329
  Name = 
  5 active torsions:
  status: ('A' for Active; 'I' for Inactive)
    1  A    between atoms: N_1  and  C_5
    2  A    between atoms: C_2  and  N_15
    3  A    between atoms: C_2  and  C_21
    4  A    between atoms: C_6  and  N_15
    5  A    between atoms: C_6  and  C_23
                            x       y       z     vdW  Elec       q    Type
                         _______ _______ _______ _____ _____    ______ ____

>  <TORSDO>
F 5

$$$$
=
 OpenBabel11052422093D

 25 27  0  0  1  0  0  0  0  0999 V2000
  161.5530  206.1530  149.9130 N   0  0  0  0  0  0  0  0  0  0  0  0
  161.6590  207.4980  149.9990 C   0  0  0  0  0  0  0  0  0  0  0  0
  161.2590  206.5400  153.4850 C   0  0  0  0  0  1  0  0  0  0  0  0
  161.4060  206.7030  152.0130 C   0  0  0  0  0  0  0  0  0  0  0  0
  161.6690  209.2250  151.6960 C   0  0  0  0  0  0  0  0  0  0  0  0
  161.5610  209.7430  153.3680 Cl  0  0  0  0  0  0  0  0  0  0  0  0
  161.8560  208.4270  148.9760 C   0  0  0  0  0  3  0  0  0  0  0  0
  161.3960  205.6690  151.1420 N   0  0  0  0  0  0  0  0  0  0  0  0
  161.8610  210.1790  150.6820 C   0  0  0  0  0  3  0  0  0  0  0  0
  161.9560  209.7850  149.3290 C   0  0  0  0  0  0  0  0  0  0  0  0
  161.5750  207.8820  151.3120 C   0  0  0  0  0  0  0  0  0  0  0  0
  161.5710  205.3380  148.7190 C   0  0  0  0  0  0  0  0  0  0  0  0
  161.5830  203.8020  146.3600 C   0  0  0  0  0  3  0  0  0  0  0  0
  161.1960  203.9750  148.7480 C   0  0  0  0  0  0  0  0  0  0  0  0
  161.2070  203.2200  147.5710 C   0  0  0  0  0  3  0  0  0  0  0  0
  161.9540  205.1460  146.3200 C   0  0  0  0  0  3  0  0  0  0  0  0
  160.8320  203.3310  149.9650 N   0  0  0  0  0  1  0  0  0  0  0  0
  161.9480  205.9060  147.4900 C   0  0  0  0  0  3  0  0  0  0  0  0
  162.1680  210.8200  148.2610 C   0  0  0  0  0  2  0  0  0  0  0  0
  162.3470  212.1820  148.7830 N   0  0  0  0  0  0  0  0  0  0  0  0
  163.4800  212.7060  148.2540 O   0  0  0  0  0  1  0  0  0  0  0  0
  161.2330  213.0290  148.3690 C   0  0  0  0  0  2  0  0  0  0  0  0
  159.2490  212.5790  147.0910 O   0  0  0  0  0  1  0  0  0  0  0  0
  161.1320  213.4280  145.8960 C   0  0  0  0  0  1  0  0  0  0  0  0
  160.6430  212.5620  147.0420 C   0  0  1  0  0  3  0  0  0  0  0  0
  1  2  1  0  0  0  0
  1  8  1  0  0  0  0
  2 11  1  0  0  0  0
  4  3  1  0  0  0  0
  5  6  1  0  0  0  0
  7 10  1  0  0  0  0
  7  2  2  0  0  0  0
  8  4  2  0  0  0  0
  9  5  1  0  0  0  0
 10  9  2  0  0  0  0
 11  5  2  0  0  0  0
 11  4  1  0  0  0  0
 12 14  1  0  0  0  0
 12  1  1  0  0  0  0
 13 15  1  0  0  0  0
 14 17  1  0  0  0  0
 15 14  2  0  0  0  0
 16 13  2  0  0  0  0
 16 18  1  0  0  0  0
 18 12  2  0  0  0  0
 19 20  1  0  0  0  0
 19 10  1  0  0  0  0
 21 20  1  0  0  0  0
 22 20  1  0  0  0  0
 25 24  1  6  0  0  0
 25 23  1  0  0  0  0
 25 22  1  0  0  0  0
M  END
>  <MODEL>
9

>  <REMARK>
 VINA RESULT:      -6.8      4.368      6.656
  Name = 
  5 active torsions:
  status: ('A' for Active; 'I' for Inactive)
    1  A    between atoms: N_1  and  C_5
    2  A    between atoms: C_2  and  N_15
    3  A    between atoms: C_2  and  C_21
    4  A    between atoms: C_6  and  N_15
    5  A    between atoms: C_6  and  C_23
                            x       y       z     vdW  Elec       q    Type
                         _______ _______ _______ _____ _____    ______ ____

>  <TORSDO>
F 5

$$$$
