=
 OpenBabel11052422073D

 25 27  0  0  1  0  0  0  0  0999 V2000
  160.8200  206.5190  148.2150 C   0  0  1  0  0  3  0  0  0  0  0  0
  161.0590  205.8470  149.5470 C   0  0  0  0  0  0  0  0  0  0  0  0
  162.3390  208.3650  149.0080 C   0  0  0  0  0  2  0  0  0  0  0  0
  162.1720  207.9410  150.4610 C   0  0  0  0  0  2  0  0  0  0  0  0
  161.9920  205.8190  151.7970 C   0  0  0  0  0  0  0  0  0  0  0  0
  162.6650  206.4430  152.8410 O   0  0  0  0  0  1  0  0  0  0  0  0
  160.6160  204.5310  149.7290 C   0  0  0  0  0  3  0  0  0  0  0  0
  161.0750  208.0300  148.2300 C   0  0  0  0  0  2  0  0  0  0  0  0
  161.5460  204.5060  151.9610 C   0  0  0  0  0  3  0  0  0  0  0  0
  160.8530  203.8630  150.9320 C   0  0  0  0  0  0  0  0  0  0  0  0
  161.7610  206.4980  150.5890 C   0  0  0  0  0  0  0  0  0  0  0  0
  161.5280  205.8400  147.0720 C   0  0  0  0  0  0  0  0  0  0  0  0
  162.7660  204.2900  144.9930 C   0  0  0  0  0  3  0  0  0  0  0  0
  160.9360  205.7160  145.7190 C   0  0  0  0  0  0  0  0  0  0  0  0
  161.5820  204.8440  144.7300 C   0  0  0  0  0  3  0  0  0  0  0  0
  163.5310  204.5820  146.2580 C   0  0  0  0  0  2  0  0  0  0  0  0
  159.8740  206.3180  145.4130 O   0  0  0  0  0  0  0  0  0  0  0  0
  162.7070  205.2630  147.3230 C   0  0  0  0  0  3  0  0  0  0  0  0
  160.3990  202.4570  151.1050 C   0  0  0  0  0  2  0  0  0  0  0  0
  161.1520  201.5450  150.1520 C   0  0  0  0  0  2  0  0  0  0  0  0
  160.3240  201.2800  148.9400 C   0  0  0  0  0  0  0  0  0  0  0  0
  159.0680  201.3010  149.0360 O   0  0  0  0  0  0  0  0  0  0  0  0
  160.9570  200.9690  147.6510 C   0  0  0  0  0  0  0  0  0  0  0  0
  160.8030  201.8550  146.5470 N   0  0  0  0  0  1  0  0  0  0  0  0
  161.6410  199.9210  147.5140 O   0  0  0  0  0  0  0  0  0  0  0  0
  1 12  1  6  0  0  0
  1  8  1  0  0  0  0
  1  2  1  0  0  0  0
  2  7  2  0  0  0  0
  2 11  1  0  0  0  0
  3  4  1  0  0  0  0
  4 11  1  0  0  0  0
  5  9  1  0  0  0  0
  5  6  1  0  0  0  0
  7 10  1  0  0  0  0
  8  3  1  0  0  0  0
 10 19  1  0  0  0  0
 10  9  2  0  0  0  0
 11  5  2  0  0  0  0
 12 18  2  0  0  0  0
 13 16  1  0  0  0  0
 14 12  1  0  0  0  0
 15 13  2  0  0  0  0
 15 14  1  0  0  0  0
 16 18  1  0  0  0  0
 17 14  2  0  0  0  0
 20 19  1  0  0  0  0
 21 22  2  0  0  0  0
 21 20  1  0  0  0  0
 23 21  1  0  0  0  0
 24 23  1  0  0  0  0
 25 23  2  0  0  0  0
M  END
>  <MODEL>
1

>  <REMARK>
 VINA RESULT:      -8.4      0.000      0.000
  Name = 
  5 active torsions:
  status: ('A' for Active; 'I' for Inactive)
    1  A    between atoms: C_1  and  C_5
    2  A    between atoms: C_2  and  C_21
    3  A    between atoms: C_6  and  C_15
    4  A    between atoms: C_6  and  C_23
    5  A    between atoms: C_15  and  C_21
                            x       y       z     vdW  Elec       q    Type
                         _______ _______ _______ _____ _____    ______ ____

>  <TORSDO>
F 5

$$$$
=
 OpenBabel11052422073D

 25 27  0  0  1  0  0  0  0  0999 V2000
  162.2100  206.6630  151.8910 C   0  0  1  0  0  3  0  0  0  0  0  0
  161.8370  208.1240  151.7810 C   0  0  0  0  0  0  0  0  0  0  0  0
  160.6310  206.5290  153.8490 C   0  0  0  0  0  2  0  0  0  0  0  0
  160.6530  208.0420  154.0290 C   0  0  0  0  0  2  0  0  0  0  0  0
  160.6880  210.1100  152.6000 C   0  0  0  0  0  0  0  0  0  0  0  0
  159.9200  210.7610  153.5580 O   0  0  0  0  0  1  0  0  0  0  0  0
  162.2530  208.8450  150.6560 C   0  0  0  0  0  3  0  0  0  0  0  0
  161.9640  206.0650  153.2790 C   0  0  0  0  0  2  0  0  0  0  0  0
  161.1090  210.8130  151.4690 C   0  0  0  0  0  3  0  0  0  0  0  0
  161.8950  210.1850  150.5000 C   0  0  0  0  0  0  0  0  0  0  0  0
  161.0410  208.7600  152.7630 C   0  0  0  0  0  0  0  0  0  0  0  0
  161.6140  205.8160  150.7980 C   0  0  0  0  0  0  0  0  0  0  0  0
  160.7450  204.1920  148.5920 C   0  0  0  0  0  3  0  0  0  0  0  0
  161.4760  204.3440  150.9060 C   0  0  0  0  0  0  0  0  0  0  0  0
  161.1040  203.5690  149.7160 C   0  0  0  0  0  3  0  0  0  0  0  0
  160.6280  205.6920  148.5030 C   0  0  0  0  0  2  0  0  0  0  0  0
  161.7050  203.7440  151.9880 O   0  0  0  0  0  0  0  0  0  0  0  0
  161.2670  206.4220  149.6580 C   0  0  0  0  0  3  0  0  0  0  0  0
  162.3220  210.9350  149.2870 C   0  0  0  0  0  2  0  0  0  0  0  0
  161.4820  212.1910  149.1280 C   0  0  0  0  0  2  0  0  0  0  0  0
  161.3470  212.5330  147.6830 C   0  0  0  0  0  0  0  0  0  0  0  0
  160.4250  212.0030  147.0080 O   0  0  0  0  0  0  0  0  0  0  0  0
  162.2930  213.4550  147.0380 C   0  0  0  0  0  0  0  0  0  0  0  0
  162.5990  213.3130  145.6550 N   0  0  0  0  0  1  0  0  0  0  0  0
  162.8370  214.3760  147.7020 O   0  0  0  0  0  0  0  0  0  0  0  0
  1 12  1  6  0  0  0
  1  8  1  0  0  0  0
  2  1  1  0  0  0  0
  2 11  1  0  0  0  0
  3  4  1  0  0  0  0
  5 11  2  0  0  0  0
  5  6  1  0  0  0  0
  7  2  2  0  0  0  0
  8  3  1  0  0  0  0
  9  5  1  0  0  0  0
 10  7  1  0  0  0  0
 10  9  2  0  0  0  0
 11  4  1  0  0  0  0
 12 14  1  0  0  0  0
 13 15  2  0  0  0  0
 14 17  2  0  0  0  0
 15 14  1  0  0  0  0
 16 13  1  0  0  0  0
 16 18  1  0  0  0  0
 18 12  2  0  0  0  0
 19 10  1  0  0  0  0
 20 19  1  0  0  0  0
 21 20  1  0  0  0  0
 22 21  2  0  0  0  0
 23 21  1  0  0  0  0
 23 25  2  0  0  0  0
 24 23  1  0  0  0  0
M  END
>  <MODEL>
2

>  <REMARK>
 VINA RESULT:      -6.7      4.100      7.411
  Name = 
  5 active torsions:
  status: ('A' for Active; 'I' for Inactive)
    1  A    between atoms: C_1  and  C_5
    2  A    between atoms: C_2  and  C_21
    3  A    between atoms: C_6  and  C_15
    4  A    between atoms: C_6  and  C_23
    5  A    between atoms: C_15  and  C_21
                            x       y       z     vdW  Elec       q    Type
                         _______ _______ _______ _____ _____    ______ ____

>  <TORSDO>
F 5

$$$$
=
 OpenBabel11052422073D

 25 27  0  0  1  0  0  0  0  0999 V2000
  161.8680  203.4100  148.1630 C   0  0  1  0  0  3  0  0  0  0  0  0
  161.6040  203.8910  149.5710 C   0  0  0  0  0  0  0  0  0  0  0  0
  160.2250  201.5550  148.6160 C   0  0  0  0  0  2  0  0  0  0  0  0
  160.3480  201.7500  150.1210 C   0  0  0  0  0  2  0  0  0  0  0  0
  160.5740  203.6390  151.7640 C   0  0  0  0  0  0  0  0  0  0  0  0
  159.8260  202.9080  152.6790 O   0  0  0  0  0  1  0  0  0  0  0  0
  162.1030  205.1390  149.9630 C   0  0  0  0  0  3  0  0  0  0  0  0
  161.5380  201.9300  147.9430 C   0  0  0  0  0  2  0  0  0  0  0  0
  161.0780  204.8880  152.1380 C   0  0  0  0  0  3  0  0  0  0  0  0
  161.8470  205.6350  151.2430 C   0  0  0  0  0  0  0  0  0  0  0  0
  160.8250  203.1340  150.4780 C   0  0  0  0  0  0  0  0  0  0  0  0
  161.2460  204.2870  147.1100 C   0  0  0  0  0  0  0  0  0  0  0  0
  160.3310  206.0720  145.0510 C   0  0  0  0  0  3  0  0  0  0  0  0
  161.0340  203.8410  145.7120 C   0  0  0  0  0  0  0  0  0  0  0  0
  160.6420  204.8250  144.6960 C   0  0  0  0  0  3  0  0  0  0  0  0
  160.2890  206.5140  146.4920 C   0  0  0  0  0  2  0  0  0  0  0  0
  161.2170  202.6430  145.3750 O   0  0  0  0  0  0  0  0  0  0  0  0
  160.9470  205.5460  147.4440 C   0  0  0  0  0  3  0  0  0  0  0  0
  162.3620  206.9730  151.6400 C   0  0  0  0  0  2  0  0  0  0  0  0
  161.3320  208.0440  151.3240 C   0  0  0  0  0  2  0  0  0  0  0  0
  162.0160  209.2920  150.8780 C   0  0  0  0  0  0  0  0  0  0  0  0
  162.5280  210.0550  151.7400 O   0  0  0  0  0  0  0  0  0  0  0  0
  162.0710  209.6500  149.4540 C   0  0  0  0  0  0  0  0  0  0  0  0
  162.1010  211.0180  149.0620 N   0  0  0  0  0  1  0  0  0  0  0  0
  162.0950  208.7510  148.5720 O   0  0  0  0  0  0  0  0  0  0  0  0
  1 12  1  6  0  0  0
  1  2  1  0  0  0  0
  2  7  2  0  0  0  0
  2 11  1  0  0  0  0
  3  4  1  0  0  0  0
  4 11  1  0  0  0  0
  5  9  1  0  0  0  0
  5  6  1  0  0  0  0
  7 10  1  0  0  0  0
  8  1  1  0  0  0  0
  8  3  1  0  0  0  0
 10 19  1  0  0  0  0
 10  9  2  0  0  0  0
 11  5  2  0  0  0  0
 12 18  2  0  0  0  0
 13 16  1  0  0  0  0
 14 12  1  0  0  0  0
 15 13  2  0  0  0  0
 15 14  1  0  0  0  0
 16 18  1  0  0  0  0
 17 14  2  0  0  0  0
 20 19  1  0  0  0  0
 21 20  1  0  0  0  0
 21 22  2  0  0  0  0
 23 21  1  0  0  0  0
 24 23  1  0  0  0  0
 25 23  2  0  0  0  0
M  END
>  <MODEL>
3

>  <REMARK>
 VINA RESULT:      -6.6      2.717      5.392
  Name = 
  5 active torsions:
  status: ('A' for Active; 'I' for Inactive)
    1  A    between atoms: C_1  and  C_5
    2  A    between atoms: C_2  and  C_21
    3  A    between atoms: C_6  and  C_15
    4  A    between atoms: C_6  and  C_23
    5  A    between atoms: C_15  and  C_21
                            x       y       z     vdW  Elec       q    Type
                         _______ _______ _______ _____ _____    ______ ____

>  <TORSDO>
F 5

$$$$
=
 OpenBabel11052422073D

 25 27  0  0  1  0  0  0  0  0999 V2000
  162.3490  209.6990  151.8340 C   0  0  1  0  0  3  0  0  0  0  0  0
  161.9650  208.4000  151.1650 C   0  0  0  0  0  0  0  0  0  0  0  0
  161.9020  210.8300  149.6290 C   0  0  0  0  0  2  0  0  0  0  0  0
  162.0020  209.5080  148.8780 C   0  0  0  0  0  2  0  0  0  0  0  0
  161.3420  207.1040  149.1990 C   0  0  0  0  0  0  0  0  0  0  0  0
  161.1250  207.0010  147.8300 O   0  0  0  0  0  1  0  0  0  0  0  0
  161.7880  207.2580  151.9560 C   0  0  0  0  0  3  0  0  0  0  0  0
  162.8010  210.7890  150.8560 C   0  0  0  0  0  2  0  0  0  0  0  0
  161.1670  205.9760  150.0040 C   0  0  0  0  0  3  0  0  0  0  0  0
  161.3950  206.0490  151.3800 C   0  0  0  0  0  0  0  0  0  0  0  0
  161.7350  208.3250  149.7710 C   0  0  0  0  0  0  0  0  0  0  0  0
  161.3060  210.2020  152.7950 C   0  0  0  0  0  0  0  0  0  0  0  0
  159.2400  210.8800  154.6750 C   0  0  0  0  0  3  0  0  0  0  0  0
  161.5960  210.4900  154.2200 C   0  0  0  0  0  0  0  0  0  0  0  0
  160.4830  210.7520  155.1410 C   0  0  0  0  0  3  0  0  0  0  0  0
  158.9220  210.8430  153.2020 C   0  0  0  0  0  2  0  0  0  0  0  0
  162.7740  210.4820  154.6610 O   0  0  0  0  0  0  0  0  0  0  0  0
  160.0510  210.3180  152.3500 C   0  0  0  0  0  3  0  0  0  0  0  0
  161.1870  204.8490  152.2340 C   0  0  0  0  0  2  0  0  0  0  0  0
  160.2160  203.8930  151.5620 C   0  0  0  0  0  2  0  0  0  0  0  0
  160.9630  202.7520  150.9570 C   0  0  0  0  0  0  0  0  0  0  0  0
  161.9130  202.2290  151.5970 O   0  0  0  0  0  0  0  0  0  0  0  0
  160.6200  202.2570  149.6170 C   0  0  0  0  0  0  0  0  0  0  0  0
  161.2490  202.8120  148.4670 N   0  0  0  0  0  1  0  0  0  0  0  0
  159.7690  201.3390  149.4760 O   0  0  0  0  0  0  0  0  0  0  0  0
  1 12  1  6  0  0  0
  2  1  1  0  0  0  0
  2  7  1  0  0  0  0
  3  8  1  0  0  0  0
  4  3  1  0  0  0  0
  4 11  1  0  0  0  0
  5 11  1  0  0  0  0
  5  9  2  0  0  0  0
  6  5  1  0  0  0  0
  8  1  1  0  0  0  0
  9 10  1  0  0  0  0
 10  7  2  0  0  0  0
 10 19  1  0  0  0  0
 11  2  2  0  0  0  0
 12 14  1  0  0  0  0
 13 15  2  0  0  0  0
 14 17  2  0  0  0  0
 14 15  1  0  0  0  0
 16 13  1  0  0  0  0
 18 12  2  0  0  0  0
 18 16  1  0  0  0  0
 20 19  1  0  0  0  0
 21 20  1  0  0  0  0
 21 22  2  0  0  0  0
 23 21  1  0  0  0  0
 24 23  1  0  0  0  0
 25 23  2  0  0  0  0
M  END
>  <MODEL>
4

>  <REMARK>
 VINA RESULT:      -6.5      2.961      6.025
  Name = 
  5 active torsions:
  status: ('A' for Active; 'I' for Inactive)
    1  A    between atoms: C_1  and  C_5
    2  A    between atoms: C_2  and  C_21
    3  A    between atoms: C_6  and  C_15
    4  A    between atoms: C_6  and  C_23
    5  A    between atoms: C_15  and  C_21
                            x       y       z     vdW  Elec       q    Type
                         _______ _______ _______ _____ _____    ______ ____

>  <TORSDO>
F 5

$$$$
=
 OpenBabel11052422073D

 25 27  0  0  1  0  0  0  0  0999 V2000
  161.9320  202.6090  147.6210 C   0  0  1  0  0  3  0  0  0  0  0  0
  161.4890  203.5240  148.7380 C   0  0  0  0  0  0  0  0  0  0  0  0
  160.8810  200.7190  148.9110 C   0  0  0  0  0  2  0  0  0  0  0  0
  160.8870  201.5320  150.1990 C   0  0  0  0  0  2  0  0  0  0  0  0
  160.4970  203.9050  150.9310 C   0  0  0  0  0  0  0  0  0  0  0  0
  159.9590  203.4290  152.1210 O   0  0  0  0  0  1  0  0  0  0  0  0
  161.5910  204.9090  148.5590 C   0  0  0  0  0  3  0  0  0  0  0  0
  162.0530  201.1390  148.0360 C   0  0  0  0  0  2  0  0  0  0  0  0
  160.6040  205.2840  150.7340 C   0  0  0  0  0  3  0  0  0  0  0  0
  161.1560  205.7870  149.5530 C   0  0  0  0  0  0  0  0  0  0  0  0
  160.9300  203.0150  149.9350 C   0  0  0  0  0  0  0  0  0  0  0  0
  161.1220  202.7740  146.3630 C   0  0  0  0  0  0  0  0  0  0  0  0
  159.3670  203.2130  144.1290 C   0  0  0  0  0  3  0  0  0  0  0  0
  161.2690  203.9390  145.4580 C   0  0  0  0  0  0  0  0  0  0  0  0
  160.2890  204.1430  144.3850 C   0  0  0  0  0  3  0  0  0  0  0  0
  159.3270  201.8950  144.8580 C   0  0  0  0  0  2  0  0  0  0  0  0
  162.1980  204.7730  145.6130 O   0  0  0  0  0  0  0  0  0  0  0  0
  160.1810  201.8610  146.1020 C   0  0  0  0  0  3  0  0  0  0  0  0
  161.2480  207.2570  149.3410 C   0  0  0  0  0  2  0  0  0  0  0  0
  162.3170  207.8480  150.2440 C   0  0  0  0  0  2  0  0  0  0  0  0
  161.7940  209.0690  150.9210 C   0  0  0  0  0  0  0  0  0  0  0  0
  162.0810  210.2030  150.4550 O   0  0  0  0  0  0  0  0  0  0  0  0
  160.9750  208.9600  152.1370 C   0  0  0  0  0  0  0  0  0  0  0  0
  161.1370  207.8480  153.0100 N   0  0  0  0  0  1  0  0  0  0  0  0
  160.1260  209.8490  152.4140 O   0  0  0  0  0  0  0  0  0  0  0  0
  1 12  1  6  0  0  0
  1  8  1  0  0  0  0
  1  2  1  0  0  0  0
  2 11  1  0  0  0  0
  3  4  1  0  0  0  0
  5  6  1  0  0  0  0
  7  2  2  0  0  0  0
  7 10  1  0  0  0  0
  8  3  1  0  0  0  0
  9  5  1  0  0  0  0
 10  9  2  0  0  0  0
 11  4  1  0  0  0  0
 11  5  2  0  0  0  0
 13 15  2  0  0  0  0
 13 16  1  0  0  0  0
 14 17  2  0  0  0  0
 14 12  1  0  0  0  0
 15 14  1  0  0  0  0
 16 18  1  0  0  0  0
 18 12  2  0  0  0  0
 19 10  1  0  0  0  0
 19 20  1  0  0  0  0
 20 21  1  0  0  0  0
 21 23  1  0  0  0  0
 22 21  2  0  0  0  0
 23 25  2  0  0  0  0
 23 24  1  0  0  0  0
M  END
>  <MODEL>
5

>  <REMARK>
 VINA RESULT:      -6.5      2.782      5.720
  Name = 
  5 active torsions:
  status: ('A' for Active; 'I' for Inactive)
    1  A    between atoms: C_1  and  C_5
    2  A    between atoms: C_2  and  C_21
    3  A    between atoms: C_6  and  C_15
    4  A    between atoms: C_6  and  C_23
    5  A    between atoms: C_15  and  C_21
                            x       y       z     vdW  Elec       q    Type
                         _______ _______ _______ _____ _____    ______ ____

>  <TORSDO>
F 5

$$$$
=
 OpenBabel11052422073D

 25 27  0  0  1  0  0  0  0  0999 V2000
  162.3390  205.2120  146.9970 C   0  0  1  0  0  3  0  0  0  0  0  0
  161.7240  203.8340  146.9320 C   0  0  0  0  0  0  0  0  0  0  0  0
  161.0830  205.7450  144.8800 C   0  0  0  0  0  2  0  0  0  0  0  0
  160.8830  204.2670  144.5720 C   0  0  0  0  0  2  0  0  0  0  0  0
  160.3890  202.1340  145.8080 C   0  0  0  0  0  0  0  0  0  0  0  0
  159.6620  201.6890  144.7090 O   0  0  0  0  0  1  0  0  0  0  0  0
  161.8610  202.9790  148.0320 C   0  0  0  0  0  3  0  0  0  0  0  0
  162.3840  205.9350  145.6470 C   0  0  0  0  0  2  0  0  0  0  0  0
  160.5330  201.2950  146.9160 C   0  0  0  0  0  3  0  0  0  0  0  0
  161.2730  201.7130  148.0250 C   0  0  0  0  0  0  0  0  0  0  0  0
  160.9750  203.4100  145.8080 C   0  0  0  0  0  0  0  0  0  0  0  0
  161.7470  206.0750  148.0790 C   0  0  0  0  0  0  0  0  0  0  0  0
  160.7600  207.5540  150.3370 C   0  0  0  0  0  3  0  0  0  0  0  0
  162.3650  207.3470  148.5230 C   0  0  0  0  0  0  0  0  0  0  0  0
  161.8580  208.0080  149.7320 C   0  0  0  0  0  3  0  0  0  0  0  0
  159.9480  206.4110  149.7840 C   0  0  0  0  0  2  0  0  0  0  0  0
  163.3360  207.8530  147.9030 O   0  0  0  0  0  0  0  0  0  0  0  0
  160.6560  205.6260  148.7080 C   0  0  0  0  0  3  0  0  0  0  0  0
  161.4050  200.8230  149.2100 C   0  0  0  0  0  2  0  0  0  0  0  0
  160.6030  201.3820  150.3730 C   0  0  0  0  0  2  0  0  0  0  0  0
  161.5060  202.1130  151.3090 C   0  0  0  0  0  0  0  0  0  0  0  0
  162.5200  201.5250  151.7710 O   0  0  0  0  0  0  0  0  0  0  0  0
  161.2070  203.4930  151.7150 C   0  0  0  0  0  0  0  0  0  0  0  0
  162.2260  204.4850  151.6790 N   0  0  0  0  0  1  0  0  0  0  0  0
  160.0480  203.8080  152.0970 O   0  0  0  0  0  0  0  0  0  0  0  0
  1 12  1  1  0  0  0
  2  1  1  0  0  0  0
  2  7  1  0  0  0  0
  3  8  1  0  0  0  0
  4  3  1  0  0  0  0
  4 11  1  0  0  0  0
  5 11  1  0  0  0  0
  5  9  2  0  0  0  0
  6  5  1  0  0  0  0
  8  1  1  0  0  0  0
  9 10  1  0  0  0  0
 10  7  2  0  0  0  0
 10 19  1  0  0  0  0
 11  2  2  0  0  0  0
 12 14  1  0  0  0  0
 12 18  2  0  0  0  0
 14 15  1  0  0  0  0
 15 13  2  0  0  0  0
 16 13  1  0  0  0  0
 17 14  2  0  0  0  0
 18 16  1  0  0  0  0
 19 20  1  0  0  0  0
 20 21  1  0  0  0  0
 21 23  1  0  0  0  0
 21 22  2  0  0  0  0
 23 25  2  0  0  0  0
 24 23  1  0  0  0  0
M  END
>  <MODEL>
6

>  <REMARK>
 VINA RESULT:      -6.4      2.355      4.995
  Name = 
  5 active torsions:
  status: ('A' for Active; 'I' for Inactive)
    1  A    between atoms: C_1  and  C_5
    2  A    between atoms: C_2  and  C_21
    3  A    between atoms: C_6  and  C_15
    4  A    between atoms: C_6  and  C_23
    5  A    between atoms: C_15  and  C_21
                            x       y       z     vdW  Elec       q    Type
                         _______ _______ _______ _____ _____    ______ ____

>  <TORSDO>
F 5

$$$$
=
 OpenBabel11052422073D

 25 27  0  0  1  0  0  0  0  0999 V2000
  160.3210  205.7100  149.5430 C   0  0  1  0  0  3  0  0  0  0  0  0
  160.8770  206.6710  150.5680 C   0  0  0  0  0  0  0  0  0  0  0  0
  161.8230  206.8250  147.8560 C   0  0  0  0  0  2  0  0  0  0  0  0
  161.9880  208.0510  148.7450 C   0  0  0  0  0  2  0  0  0  0  0  0
  162.2470  208.5880  151.1870 C   0  0  0  0  0  0  0  0  0  0  0  0
  163.0680  209.6570  150.8450 O   0  0  0  0  0  1  0  0  0  0  0  0
  160.5820  206.4620  151.9200 C   0  0  0  0  0  3  0  0  0  0  0  0
  160.4570  206.2000  148.0980 C   0  0  0  0  0  2  0  0  0  0  0  0
  161.9450  208.3630  152.5330 C   0  0  0  0  0  3  0  0  0  0  0  0
  161.1090  207.3060  152.9000 C   0  0  0  0  0  0  0  0  0  0  0  0
  161.7230  207.7430  150.1950 C   0  0  0  0  0  0  0  0  0  0  0  0
  160.8320  204.3040  149.7110 C   0  0  0  0  0  0  0  0  0  0  0  0
  161.5240  201.5350  150.0480 C   0  0  0  0  0  3  0  0  0  0  0  0
  161.1650  203.4260  148.5630 C   0  0  0  0  0  0  0  0  0  0  0  0
  161.4320  202.0030  148.8030 C   0  0  0  0  0  3  0  0  0  0  0  0
  161.4400  202.4330  151.2560 C   0  0  0  0  0  2  0  0  0  0  0  0
  161.1910  203.8710  147.3870 O   0  0  0  0  0  0  0  0  0  0  0  0
  160.9120  203.8140  150.9510 C   0  0  0  0  0  3  0  0  0  0  0  0
  160.8090  207.0580  154.3360 C   0  0  0  0  0  2  0  0  0  0  0  0
  160.5210  208.3720  155.0430 C   0  0  0  0  0  2  0  0  0  0  0  0
  161.5680  208.6370  156.0710 C   0  0  0  0  0  0  0  0  0  0  0  0
  161.8220  207.7550  156.9330 O   0  0  0  0  0  0  0  0  0  0  0  0
  162.2810  209.9220  156.1040 C   0  0  0  0  0  0  0  0  0  0  0  0
  163.0180  210.3010  157.2610 N   0  0  0  0  0  1  0  0  0  0  0  0
  162.2460  210.6950  155.1100 O   0  0  0  0  0  0  0  0  0  0  0  0
  1 12  1  6  0  0  0
  1  2  1  0  0  0  0
  2  7  1  0  0  0  0
  3  8  1  0  0  0  0
  3  4  1  0  0  0  0
  4 11  1  0  0  0  0
  5  9  2  0  0  0  0
  6  5  1  0  0  0  0
  7 10  2  0  0  0  0
  8  1  1  0  0  0  0
  9 10  1  0  0  0  0
 10 19  1  0  0  0  0
 11  2  2  0  0  0  0
 11  5  1  0  0  0  0
 12 18  2  0  0  0  0
 13 16  1  0  0  0  0
 14 15  1  0  0  0  0
 14 12  1  0  0  0  0
 15 13  2  0  0  0  0
 17 14  2  0  0  0  0
 18 16  1  0  0  0  0
 19 20  1  0  0  0  0
 20 21  1  0  0  0  0
 21 23  1  0  0  0  0
 21 22  2  0  0  0  0
 23 24  1  0  0  0  0
 25 23  2  0  0  0  0
M  END
>  <MODEL>
7

>  <REMARK>
 VINA RESULT:      -6.3      3.856      6.527
  Name = 
  5 active torsions:
  status: ('A' for Active; 'I' for Inactive)
    1  A    between atoms: C_1  and  C_5
    2  A    between atoms: C_2  and  C_21
    3  A    between atoms: C_6  and  C_15
    4  A    between atoms: C_6  and  C_23
    5  A    between atoms: C_15  and  C_21
                            x       y       z     vdW  Elec       q    Type
                         _______ _______ _______ _____ _____    ______ ____

>  <TORSDO>
F 5

$$$$
=
 OpenBabel11052422073D

 25 27  0  0  1  0  0  0  0  0999 V2000
  162.2720  207.5690  151.9520 C   0  0  1  0  0  3  0  0  0  0  0  0
  161.7100  206.5250  151.0150 C   0  0  0  0  0  0  0  0  0  0  0  0
  161.6120  209.2930  150.2380 C   0  0  0  0  0  2  0  0  0  0  0  0
  161.5150  208.2360  149.1450 C   0  0  0  0  0  2  0  0  0  0  0  0
  160.7360  205.8610  148.8830 C   0  0  0  0  0  0  0  0  0  0  0  0
  160.3290  206.1580  147.5870 O   0  0  0  0  0  1  0  0  0  0  0  0
  161.5610  205.2120  151.4760 C   0  0  0  0  0  3  0  0  0  0  0  0
  162.6630  208.8770  151.2580 C   0  0  0  0  0  2  0  0  0  0  0  0
  160.5920  204.5560  149.3610 C   0  0  0  0  0  3  0  0  0  0  0  0
  161.0090  204.2290  150.6530 C   0  0  0  0  0  0  0  0  0  0  0  0
  161.2880  206.8570  149.7050 C   0  0  0  0  0  0  0  0  0  0  0  0
  161.4060  207.8090  153.1600 C   0  0  0  0  0  0  0  0  0  0  0  0
  159.9970  208.2310  155.6290 C   0  0  0  0  0  3  0  0  0  0  0  0
  161.1000  209.1650  153.6740 C   0  0  0  0  0  0  0  0  0  0  0  0
  160.4470  209.3060  154.9810 C   0  0  0  0  0  3  0  0  0  0  0  0
  160.0610  206.8460  155.0370 C   0  0  0  0  0  2  0  0  0  0  0  0
  161.4180  210.1960  153.0260 O   0  0  0  0  0  0  0  0  0  0  0  0
  160.9640  206.7420  153.8320 C   0  0  0  0  0  3  0  0  0  0  0  0
  160.8330  202.8420  151.1630 C   0  0  0  0  0  2  0  0  0  0  0  0
  161.5160  201.8540  150.2330 C   0  0  0  0  0  2  0  0  0  0  0  0
  160.5600  201.4020  149.1800 C   0  0  0  0  0  0  0  0  0  0  0  0
  159.3380  201.2940  149.4640 O   0  0  0  0  0  0  0  0  0  0  0  0
  161.0350  201.0580  147.8330 C   0  0  0  0  0  0  0  0  0  0  0  0
  160.8480  201.9680  146.7550 N   0  0  0  0  0  1  0  0  0  0  0  0
  161.6120  199.9570  147.6230 O   0  0  0  0  0  0  0  0  0  0  0  0
  1 12  1  1  0  0  0
  2  7  1  0  0  0  0
  2  1  1  0  0  0  0
  3  8  1  0  0  0  0
  4 11  1  0  0  0  0
  4  3  1  0  0  0  0
  5  9  2  0  0  0  0
  5 11  1  0  0  0  0
  6  5  1  0  0  0  0
  8  1  1  0  0  0  0
  9 10  1  0  0  0  0
 10 19  1  0  0  0  0
 10  7  2  0  0  0  0
 11  2  2  0  0  0  0
 12 14  1  0  0  0  0
 12 18  2  0  0  0  0
 14 15  1  0  0  0  0
 15 13  2  0  0  0  0
 16 13  1  0  0  0  0
 17 14  2  0  0  0  0
 18 16  1  0  0  0  0
 20 19  1  0  0  0  0
 21 22  2  0  0  0  0
 21 20  1  0  0  0  0
 23 21  1  0  0  0  0
 24 23  1  0  0  0  0
 25 23  2  0  0  0  0
M  END
>  <MODEL>
8

>  <REMARK>
 VINA RESULT:      -6.3      2.202      5.259
  Name = 
  5 active torsions:
  status: ('A' for Active; 'I' for Inactive)
    1  A    between atoms: C_1  and  C_5
    2  A    between atoms: C_2  and  C_21
    3  A    between atoms: C_6  and  C_15
    4  A    between atoms: C_6  and  C_23
    5  A    between atoms: C_15  and  C_21
                            x       y       z     vdW  Elec       q    Type
                         _______ _______ _______ _____ _____    ______ ____

>  <TORSDO>
F 5

$$$$
=
 OpenBabel11052422073D

 25 27  0  0  1  0  0  0  0  0999 V2000
  161.8840  203.4920  148.1770 C   0  0  1  0  0  3  0  0  0  0  0  0
  161.6180  204.0150  149.5700 C   0  0  0  0  0  0  0  0  0  0  0  0
  160.2500  201.6450  148.6850 C   0  0  0  0  0  2  0  0  0  0  0  0
  160.3720  201.8850  150.1840 C   0  0  0  0  0  2  0  0  0  0  0  0
  160.5900  203.8240  151.7700 C   0  0  0  0  0  0  0  0  0  0  0  0
  159.8440  203.1160  152.7060 O   0  0  0  0  0  1  0  0  0  0  0  0
  162.1120  205.2750  149.9250 C   0  0  0  0  0  3  0  0  0  0  0  0
  161.5610  202.0050  148.0020 C   0  0  0  0  0  2  0  0  0  0  0  0
  161.0880  205.0850  152.1060 C   0  0  0  0  0  3  0  0  0  0  0  0
  161.8530  205.8080  151.1890 C   0  0  0  0  0  0  0  0  0  0  0  0
  160.8430  203.2810  150.5000 C   0  0  0  0  0  0  0  0  0  0  0  0
  161.2590  204.3350  147.0980 C   0  0  0  0  0  0  0  0  0  0  0  0
  160.3350  206.0550  144.9890 C   0  0  0  0  0  3  0  0  0  0  0  0
  161.0560  203.8490  145.7120 C   0  0  0  0  0  0  0  0  0  0  0  0
  160.6580  204.8020  144.6690 C   0  0  0  0  0  3  0  0  0  0  0  0
  160.2830  206.5360  146.4160 C   0  0  0  0  0  2  0  0  0  0  0  0
  161.2510  202.6440  145.4080 O   0  0  0  0  0  0  0  0  0  0  0  0
  160.9460  205.6000  147.3970 C   0  0  0  0  0  3  0  0  0  0  0  0
  162.3630  207.1600  151.5460 C   0  0  0  0  0  2  0  0  0  0  0  0
  161.2730  207.9630  152.2350 C   0  0  0  0  0  2  0  0  0  0  0  0
  161.5370  209.4220  152.0740 C   0  0  0  0  0  0  0  0  0  0  0  0
  162.3440  209.8080  151.1870 O   0  0  0  0  0  0  0  0  0  0  0  0
  160.8900  210.4040  152.9560 C   0  0  0  0  0  0  0  0  0  0  0  0
  159.5810  210.8770  152.6590 N   0  0  0  0  0  1  0  0  0  0  0  0
  161.4870  210.8310  153.9790 O   0  0  0  0  0  0  0  0  0  0  0  0
  1 12  1  6  0  0  0
  1  2  1  0  0  0  0
  2  7  2  0  0  0  0
  2 11  1  0  0  0  0
  3  4  1  0  0  0  0
  4 11  1  0  0  0  0
  5  9  1  0  0  0  0
  5  6  1  0  0  0  0
  7 10  1  0  0  0  0
  8  1  1  0  0  0  0
  8  3  1  0  0  0  0
 10 19  1  0  0  0  0
 10  9  2  0  0  0  0
 11  5  2  0  0  0  0
 12 18  2  0  0  0  0
 13 16  1  0  0  0  0
 14 12  1  0  0  0  0
 15 13  2  0  0  0  0
 15 14  1  0  0  0  0
 16 18  1  0  0  0  0
 17 14  2  0  0  0  0
 19 20  1  0  0  0  0
 21 20  1  0  0  0  0
 21 23  1  0  0  0  0
 22 21  2  0  0  0  0
 23 25  2  0  0  0  0
 24 23  1  0  0  0  0
M  END
>  <MODEL>
9

>  <REMARK>
 VINA RESULT:      -6.2      3.041      5.895
  Name = 
  5 active torsions:
  status: ('A' for Active; 'I' for Inactive)
    1  A    between atoms: C_1  and  C_5
    2  A    between atoms: C_2  and  C_21
    3  A    between atoms: C_6  and  C_15
    4  A    between atoms: C_6  and  C_23
    5  A    between atoms: C_15  and  C_21
                            x       y       z     vdW  Elec       q    Type
                         _______ _______ _______ _____ _____    ______ ____

>  <TORSDO>
F 5

$$$$
