=
 OpenBabel11052422373D

 31 36  0  0  1  0  0  0  0  0999 V2000
  160.6580  205.1170  149.3460 C   0  0  2  0  0  3  0  0  0  0  0  0
  160.8860  203.6590  149.6940 C   0  0  0  0  0  0  0  0  0  0  0  0
  161.1230  201.3170  149.0850 C   0  0  0  0  0  0  0  0  0  0  0  0
  161.1490  205.4970  147.9660 C   0  0  0  0  0  0  0  0  0  0  0  0
  161.4460  205.8190  145.7350 C   0  0  0  0  0  0  0  0  0  0  0  0
  160.9570  202.6550  148.7160 C   0  0  0  0  0  3  0  0  0  0  0  0
  161.8060  207.3780  150.0250 C   0  0  1  0  0  3  0  0  0  0  0  0
  160.7810  204.3510  152.1020 C   0  0  0  0  0  2  0  0  0  0  0  0
  161.2040  200.3590  148.1330 F   0  0  0  0  0  0  0  0  0  0  0  0
  162.7060  207.2530  148.7920 C   0  0  0  0  0  2  0  0  0  0  0  0
  161.2720  206.0150  150.4220 C   0  0  0  0  0  0  0  0  0  0  0  0
  160.6330  204.9790  146.6680 C   0  0  0  0  0  3  0  0  0  0  0  0
  161.1970  200.9690  150.4360 C   0  0  0  0  0  3  0  0  0  0  0  0
  162.0150  206.4690  147.7220 C   0  0  1  0  0  3  0  0  0  0  0  0
  162.2230  206.6600  146.3330 N   0  0  0  0  0  0  0  0  0  0  0  0
  161.3170  205.6230  151.6550 N   0  0  0  0  0  0  0  0  0  0  0  0
  160.9530  203.2970  151.0520 C   0  0  0  0  0  0  0  0  0  0  0  0
  161.1040  201.9560  151.4200 C   0  0  0  0  0  3  0  0  0  0  0  0
  161.3770  205.7210  144.3040 C   0  0  0  0  0  0  0  0  0  0  0  0
  161.3210  205.6420  143.1510 N   0  0  0  0  0  0  0  0  0  0  0  0
  162.5570  208.0760  151.1560 C   0  0  0  0  0  2  0  0  0  0  0  0
  159.6200  210.3290  154.9410 C   0  0  0  0  0  0  0  0  0  0  0  0
  161.0070  208.5340  153.9810 C   0  0  0  0  0  3  0  0  0  0  0  0
  160.7830  211.2150  151.6320 N   0  0  0  0  0  0  0  0  0  0  0  0
  161.5450  210.3730  150.9330 N   0  0  0  0  0  0  0  0  0  0  0  0
  158.8000  210.8300  156.0750 C   0  0  0  0  0  1  0  0  0  0  0  0
  161.7840  209.2490  151.6570 C   0  0  0  0  0  0  0  0  0  0  0  0
  160.2240  209.0470  155.0350 C   0  0  0  0  0  2  0  0  0  0  0  0
  160.5280  210.6260  152.8090 C   0  0  0  0  0  0  0  0  0  0  0  0
  161.1490  209.3500  152.8700 C   0  0  0  0  0  0  0  0  0  0  0  0
  159.7750  211.1060  153.8250 N   0  0  0  0  0  0  0  0  0  0  0  0
  1  4  1  6  0  0  0
  1  2  1  0  0  0  0
  1 11  1  0  0  0  0
  2 17  1  0  0  0  0
  3 13  2  0  0  0  0
  5 15  2  0  0  0  0
  5 12  1  0  0  0  0
  6  3  1  0  0  0  0
  6  2  2  0  0  0  0
  7 11  1  0  0  0  0
  7 21  1  1  0  0  0
  9  3  1  0  0  0  0
 10  7  1  0  0  0  0
 11 16  2  0  0  0  0
 12  4  2  0  0  0  0
 13 18  1  0  0  0  0
 14  4  1  0  0  0  0
 14 10  1  1  0  0  0
 15 14  1  0  0  0  0
 16  8  1  0  0  0  0
 17 18  2  0  0  0  0
 17  8  1  0  0  0  0
 19  5  1  0  0  0  0
 20 19  3  0  0  0  0
 21 27  1  0  0  0  0
 22 28  1  0  0  0  0
 22 26  1  0  0  0  0
 23 28  1  0  0  0  0
 24 29  2  0  0  0  0
 25 24  1  0  0  0  0
 25 27  2  0  0  0  0
 27 30  1  0  0  0  0
 29 30  1  0  0  0  0
 29 31  1  0  0  0  0
 30 23  2  0  0  0  0
 31 22  2  0  0  0  0
M  END
>  <MODEL>
1

>  <REMARK>
 VINA RESULT:      -9.8      0.000      0.000
  Name = 
  3 active torsions:
  status: ('A' for Active; 'I' for Inactive)
    1  A    between atoms: C_2  and  C_13
    2  A    between atoms: C_9  and  C_23
    3  A    between atoms: C_15  and  C_23
                            x       y       z     vdW  Elec       q    Type
                         _______ _______ _______ _____ _____    ______ ____

>  <TORSDO>
F 3

$$$$
=
 OpenBabel11052422373D

 31 36  0  0  1  0  0  0  0  0999 V2000
  162.0070  207.7530  152.1090 C   0  0  2  0  0  3  0  0  0  0  0  0
  161.2340  208.2860  153.2990 C   0  0  0  0  0  0  0  0  0  0  0  0
  160.2940  210.1070  154.6080 C   0  0  0  0  0  0  0  0  0  0  0  0
  161.9010  208.6220  150.8750 C   0  0  0  0  0  0  0  0  0  0  0  0
  162.0870  210.2340  149.2820 C   0  0  0  0  0  0  0  0  0  0  0  0
  160.9710  209.6540  153.4720 C   0  0  0  0  0  3  0  0  0  0  0  0
  161.6280  205.8130  150.3820 C   0  0  1  0  0  3  0  0  0  0  0  0
  161.1970  205.9340  154.1670 C   0  0  0  0  0  2  0  0  0  0  0  0
  160.0340  211.4270  154.7590 F   0  0  0  0  0  0  0  0  0  0  0  0
  160.9450  206.8200  149.4510 C   0  0  0  0  0  2  0  0  0  0  0  0
  161.5840  206.3130  151.8130 C   0  0  0  0  0  0  0  0  0  0  0  0
  162.3990  210.0190  150.7290 C   0  0  0  0  0  2  0  0  0  0  0  0
  159.8940  209.2000  155.5920 C   0  0  0  0  0  3  0  0  0  0  0  0
  161.4770  208.1960  149.6950 C   0  0  0  0  0  0  0  0  0  0  0  0
  161.5670  209.2030  148.7020 N   0  0  0  0  0  0  0  0  0  0  0  0
  161.2140  205.5280  152.7740 N   0  0  0  0  0  0  0  0  0  0  0  0
  160.8350  207.3810  154.3000 C   0  0  0  0  0  0  0  0  0  0  0  0
  160.1700  207.8380  155.4420 C   0  0  0  0  0  3  0  0  0  0  0  0
  162.3390  211.4630  148.5840 C   0  0  0  0  0  0  0  0  0  0  0  0
  162.5420  212.4530  148.0210 N   0  0  0  0  0  0  0  0  0  0  0  0
  161.0000  204.4320  150.2140 C   0  0  0  0  0  2  0  0  0  0  0  0
  161.2320  200.4940  146.6810 C   0  0  0  0  0  0  0  0  0  0  0  0
  160.9970  201.4340  148.9460 C   0  0  0  0  0  3  0  0  0  0  0  0
  161.3590  204.1100  146.6080 N   0  0  0  0  0  0  0  0  0  0  0  0
  161.2580  204.8140  147.7360 N   0  0  0  0  0  0  0  0  0  0  0  0
  161.3030  199.2960  145.8060 C   0  0  0  0  0  1  0  0  0  0  0  0
  161.0920  203.9800  148.7950 C   0  0  0  0  0  0  0  0  0  0  0  0
  161.0670  200.3230  148.0810 C   0  0  0  0  0  2  0  0  0  0  0  0
  161.2610  202.8160  146.9460 C   0  0  0  0  0  0  0  0  0  0  0  0
  161.0940  202.6810  148.3500 C   0  0  0  0  0  0  0  0  0  0  0  0
  161.3320  201.7420  146.1270 N   0  0  0  0  0  0  0  0  0  0  0  0
  1  4  1  6  0  0  0
  1  2  1  0  0  0  0
  2  6  2  0  0  0  0
  2 17  1  0  0  0  0
  3  9  1  0  0  0  0
  3 13  2  0  0  0  0
  5 12  1  0  0  0  0
  6  3  1  0  0  0  0
  7 21  1  1  0  0  0
  7 11  1  0  0  0  0
  8 17  1  0  0  0  0
 10 14  1  0  0  0  0
 10  7  1  0  0  0  0
 11  1  1  0  0  0  0
 11 16  2  0  0  0  0
 12  4  1  0  0  0  0
 14  4  2  0  0  0  0
 15  5  2  0  0  0  0
 15 14  1  0  0  0  0
 16  8  1  0  0  0  0
 17 18  2  0  0  0  0
 18 13  1  0  0  0  0
 19  5  1  0  0  0  0
 20 19  3  0  0  0  0
 22 28  1  0  0  0  0
 24 29  2  0  0  0  0
 24 25  1  0  0  0  0
 25 27  2  0  0  0  0
 26 22  1  0  0  0  0
 27 21  1  0  0  0  0
 28 23  1  0  0  0  0
 29 30  1  0  0  0  0
 30 27  1  0  0  0  0
 30 23  2  0  0  0  0
 31 22  2  0  0  0  0
 31 29  1  0  0  0  0
M  END
>  <MODEL>
2

>  <REMARK>
 VINA RESULT:      -9.2      3.170      7.878
  Name = 
  3 active torsions:
  status: ('A' for Active; 'I' for Inactive)
    1  A    between atoms: C_2  and  C_13
    2  A    between atoms: C_9  and  C_23
    3  A    between atoms: C_15  and  C_23
                            x       y       z     vdW  Elec       q    Type
                         _______ _______ _______ _____ _____    ______ ____

>  <TORSDO>
F 3

$$$$
=
 OpenBabel11052422373D

 31 36  0  0  1  0  0  0  0  0999 V2000
  160.8580  207.0200  149.4830 C   0  0  2  0  0  3  0  0  0  0  0  0
  161.3870  206.0320  148.4610 C   0  0  0  0  0  0  0  0  0  0  0  0
  162.3500  205.4900  146.2950 C   0  0  0  0  0  0  0  0  0  0  0  0
  161.4990  208.3880  149.3940 C   0  0  0  0  0  0  0  0  0  0  0  0
  162.1450  210.4980  148.8420 C   0  0  0  0  0  0  0  0  0  0  0  0
  161.9150  206.4380  147.2260 C   0  0  0  0  0  3  0  0  0  0  0  0
  161.2080  207.3770  152.0590 C   0  0  1  0  0  3  0  0  0  0  0  0
  160.6190  204.2170  150.0110 C   0  0  0  0  0  2  0  0  0  0  0  0
  162.8700  205.8940  145.1130 F   0  0  0  0  0  0  0  0  0  0  0  0
  162.3390  208.3580  151.7360 C   0  0  0  0  0  2  0  0  0  0  0  0
  160.9840  206.4370  150.8900 C   0  0  0  0  0  0  0  0  0  0  0  0
  161.4110  209.3370  148.2490 C   0  0  0  0  0  3  0  0  0  0  0  0
  162.2390  204.1280  146.5820 C   0  0  0  0  0  3  0  0  0  0  0  0
  162.1100  208.9930  150.4020 C   0  0  1  0  0  3  0  0  0  0  0  0
  162.5360  210.3010  150.0580 N   0  0  0  0  0  0  0  0  0  0  0  0
  160.8810  205.1600  151.0830 N   0  0  0  0  0  0  0  0  0  0  0  0
  161.2710  204.6570  148.7370 C   0  0  0  0  0  0  0  0  0  0  0  0
  161.6920  203.7100  147.7990 C   0  0  0  0  0  3  0  0  0  0  0  0
  162.3940  211.7270  148.1440 C   0  0  0  0  0  0  0  0  0  0  0  0
  162.5950  212.7180  147.5810 N   0  0  0  0  0  0  0  0  0  0  0  0
  161.5050  206.6440  153.3650 C   0  0  0  0  0  2  0  0  0  0  0  0
  160.5250  210.9460  156.2920 C   0  0  0  0  0  0  0  0  0  0  0  0
  161.5380  209.7280  154.4060 C   0  0  0  0  0  3  0  0  0  0  0  0
  159.5510  207.4610  156.3220 N   0  0  0  0  0  0  0  0  0  0  0  0
  160.0000  206.6240  155.3860 N   0  0  0  0  0  0  0  0  0  0  0  0
  160.3540  212.2230  157.0330 C   0  0  0  0  0  1  0  0  0  0  0  0
  160.7920  207.2890  154.5060 C   0  0  0  0  0  0  0  0  0  0  0  0
  161.3480  210.9190  155.1360 C   0  0  0  0  0  2  0  0  0  0  0  0
  160.0610  208.6700  156.0420 C   0  0  0  0  0  0  0  0  0  0  0  0
  160.8760  208.6070  154.8800 C   0  0  0  0  0  0  0  0  0  0  0  0
  159.8910  209.8170  156.7370 N   0  0  0  0  0  0  0  0  0  0  0  0
  1  2  1  6  0  0  0
  1 11  1  0  0  0  0
  2 17  1  0  0  0  0
  3 13  2  0  0  0  0
  3  6  1  0  0  0  0
  4  1  1  0  0  0  0
  4 14  1  0  0  0  0
  5 15  2  0  0  0  0
  6  2  2  0  0  0  0
  7 21  1  1  0  0  0
  8 16  1  0  0  0  0
  9  3  1  0  0  0  0
 10  7  1  0  0  0  0
 11 16  2  0  0  0  0
 11  7  1  0  0  0  0
 12  5  1  0  0  0  0
 12  4  2  0  0  0  0
 13 18  1  0  0  0  0
 14 10  1  6  0  0  0
 15 14  1  0  0  0  0
 17  8  1  0  0  0  0
 18 17  2  0  0  0  0
 19  5  1  0  0  0  0
 20 19  3  0  0  0  0
 21 27  1  0  0  0  0
 22 31  2  0  0  0  0
 22 26  1  0  0  0  0
 23 30  2  0  0  0  0
 23 28  1  0  0  0  0
 25 24  1  0  0  0  0
 27 30  1  0  0  0  0
 27 25  2  0  0  0  0
 28 22  1  0  0  0  0
 29 24  2  0  0  0  0
 29 31  1  0  0  0  0
 30 29  1  0  0  0  0
M  END
>  <MODEL>
3

>  <REMARK>
 VINA RESULT:      -8.9      2.660      4.156
  Name = 
  3 active torsions:
  status: ('A' for Active; 'I' for Inactive)
    1  A    between atoms: C_2  and  C_13
    2  A    between atoms: C_9  and  C_23
    3  A    between atoms: C_15  and  C_23
                            x       y       z     vdW  Elec       q    Type
                         _______ _______ _______ _____ _____    ______ ____

>  <TORSDO>
F 3

$$$$
=
 OpenBabel11052422373D

 31 36  0  0  1  0  0  0  0  0999 V2000
  160.6620  205.1000  149.1770 C   0  0  2  0  0  3  0  0  0  0  0  0
  160.8940  203.6560  149.5770 C   0  0  0  0  0  0  0  0  0  0  0  0
  161.1840  201.3010  149.0480 C   0  0  0  0  0  0  0  0  0  0  0  0
  161.2050  205.4470  147.8080 C   0  0  0  0  0  0  0  0  0  0  0  0
  161.5890  205.7080  145.5820 C   0  0  0  0  0  0  0  0  0  0  0  0
  161.0170  202.6260  148.6330 C   0  0  0  0  0  3  0  0  0  0  0  0
  161.7530  207.3950  149.8350 C   0  0  1  0  0  3  0  0  0  0  0  0
  160.6800  204.4160  151.9570 C   0  0  0  0  0  2  0  0  0  0  0  0
  161.3150  200.3160  148.1280 F   0  0  0  0  0  0  0  0  0  0  0  0
  162.7050  207.2470  148.6440 C   0  0  0  0  0  2  0  0  0  0  0  0
  161.2200  206.0370  150.2500 C   0  0  0  0  0  0  0  0  0  0  0  0
  160.7490  204.8840  146.5050 C   0  0  0  0  0  3  0  0  0  0  0  0
  161.2060  200.9930  150.4100 C   0  0  0  0  0  3  0  0  0  0  0  0
  162.0680  206.4220  147.5710 C   0  0  1  0  0  3  0  0  0  0  0  0
  162.3310  206.5760  146.1870 N   0  0  0  0  0  0  0  0  0  0  0  0
  161.2190  205.6820  151.4950 N   0  0  0  0  0  0  0  0  0  0  0  0
  160.9080  203.3340  150.9470 C   0  0  0  0  0  0  0  0  0  0  0  0
  161.0610  202.0070  151.3600 C   0  0  0  0  0  3  0  0  0  0  0  0
  161.5810  205.5670  144.1530 C   0  0  0  0  0  0  0  0  0  0  0  0
  161.5730  205.4530  143.0020 N   0  0  0  0  0  0  0  0  0  0  0  0
  162.4480  208.1350  150.9750 C   0  0  0  0  0  2  0  0  0  0  0  0
  160.8310  213.0400  149.8060 C   0  0  0  0  0  0  0  0  0  0  0  0
  161.9560  210.9010  149.3300 C   0  0  0  0  0  3  0  0  0  0  0  0
  160.5310  210.7630  152.6020 N   0  0  0  0  0  0  0  0  0  0  0  0
  161.0810  209.5490  152.5500 N   0  0  0  0  0  0  0  0  0  0  0  0
  160.4630  214.4070  149.3560 C   0  0  0  0  0  1  0  0  0  0  0  0
  161.6870  209.3630  151.3490 C   0  0  0  0  0  0  0  0  0  0  0  0
  161.5850  212.2030  148.9400 C   0  0  0  0  0  2  0  0  0  0  0  0
  160.7910  211.3610  151.4300 C   0  0  0  0  0  0  0  0  0  0  0  0
  161.5410  210.4960  150.5880 C   0  0  0  0  0  0  0  0  0  0  0  0
  160.4440  212.6100  151.0470 N   0  0  0  0  0  0  0  0  0  0  0  0
  1  4  1  6  0  0  0
  1  2  1  0  0  0  0
  1 11  1  0  0  0  0
  2 17  1  0  0  0  0
  3 13  2  0  0  0  0
  5 15  2  0  0  0  0
  5 12  1  0  0  0  0
  6  3  1  0  0  0  0
  6  2  2  0  0  0  0
  7 11  1  0  0  0  0
  7 21  1  1  0  0  0
  9  3  1  0  0  0  0
 10  7  1  0  0  0  0
 11 16  2  0  0  0  0
 12  4  2  0  0  0  0
 13 18  1  0  0  0  0
 14  4  1  0  0  0  0
 14 10  1  1  0  0  0
 15 14  1  0  0  0  0
 16  8  1  0  0  0  0
 17 18  2  0  0  0  0
 17  8  1  0  0  0  0
 19  5  1  0  0  0  0
 20 19  3  0  0  0  0
 21 27  1  0  0  0  0
 22 31  2  0  0  0  0
 23 30  2  0  0  0  0
 25 24  1  0  0  0  0
 26 22  1  0  0  0  0
 27 25  2  0  0  0  0
 28 23  1  0  0  0  0
 28 22  1  0  0  0  0
 29 24  2  0  0  0  0
 30 27  1  0  0  0  0
 30 29  1  0  0  0  0
 31 29  1  0  0  0  0
M  END
>  <MODEL>
4

>  <REMARK>
 VINA RESULT:      -8.9      1.594      2.528
  Name = 
  3 active torsions:
  status: ('A' for Active; 'I' for Inactive)
    1  A    between atoms: C_2  and  C_13
    2  A    between atoms: C_9  and  C_23
    3  A    between atoms: C_15  and  C_23
                            x       y       z     vdW  Elec       q    Type
                         _______ _______ _______ _____ _____    ______ ____

>  <TORSDO>
F 3

$$$$
=
 OpenBabel11052422373D

 31 36  0  0  1  0  0  0  0  0999 V2000
  161.9640  207.6200  152.1130 C   0  0  2  0  0  3  0  0  0  0  0  0
  161.2470  208.1220  153.3510 C   0  0  0  0  0  0  0  0  0  0  0  0
  160.4340  209.9090  154.7850 C   0  0  0  0  0  0  0  0  0  0  0  0
  161.8750  208.5640  150.9330 C   0  0  0  0  0  0  0  0  0  0  0  0
  162.1100  210.2550  149.4310 C   0  0  0  0  0  0  0  0  0  0  0  0
  161.0600  209.4890  153.6080 C   0  0  0  0  0  3  0  0  0  0  0  0
  161.4440  205.8060  150.2880 C   0  0  1  0  0  3  0  0  0  0  0  0
  161.1060  205.7280  154.0830 C   0  0  0  0  0  2  0  0  0  0  0  0
  160.2470  211.2300  155.0170 F   0  0  0  0  0  0  0  0  0  0  0  0
  160.7940  206.8990  149.4340 C   0  0  0  0  0  2  0  0  0  0  0  0
  161.4590  206.2230  151.7460 C   0  0  0  0  0  0  0  0  0  0  0  0
  162.4430  209.9390  150.8540 C   0  0  0  0  0  2  0  0  0  0  0  0
  160.0090  208.9670  155.7260 C   0  0  0  0  0  3  0  0  0  0  0  0
  161.4030  208.2300  149.7420 C   0  0  0  0  0  0  0  0  0  0  0  0
  161.5240  209.2870  148.8060 N   0  0  0  0  0  0  0  0  0  0  0  0
  161.0700  205.4030  152.6700 N   0  0  0  0  0  0  0  0  0  0  0  0
  160.8230  207.1820  154.3080 C   0  0  0  0  0  0  0  0  0  0  0  0
  160.2100  207.6040  155.4910 C   0  0  0  0  0  3  0  0  0  0  0  0
  162.4100  211.5070  148.7980 C   0  0  0  0  0  0  0  0  0  0  0  0
  162.6520  212.5170  148.2870 N   0  0  0  0  0  0  0  0  0  0  0  0
  160.7410  204.4710  150.0570 C   0  0  0  0  0  2  0  0  0  0  0  0
  161.2570  205.1400  144.8300 C   0  0  0  0  0  0  0  0  0  0  0  0
  160.8100  205.8960  147.1310 C   0  0  0  0  0  3  0  0  0  0  0  0
  161.6130  202.4160  147.1850 N   0  0  0  0  0  0  0  0  0  0  0  0
  161.4040  202.6150  148.4870 N   0  0  0  0  0  0  0  0  0  0  0  0
  161.3450  205.4640  143.3830 C   0  0  0  0  0  1  0  0  0  0  0  0
  161.0900  203.9160  148.7170 C   0  0  0  0  0  0  0  0  0  0  0  0
  160.9060  206.1630  145.7510 C   0  0  0  0  0  2  0  0  0  0  0  0
  161.4260  203.5960  146.5750 C   0  0  0  0  0  0  0  0  0  0  0  0
  161.0800  204.5950  147.5240 C   0  0  0  0  0  0  0  0  0  0  0  0
  161.5110  203.8630  145.2520 N   0  0  0  0  0  0  0  0  0  0  0  0
  1  4  1  6  0  0  0
  1  2  1  0  0  0  0
  2  6  2  0  0  0  0
  2 17  1  0  0  0  0
  3  9  1  0  0  0  0
  3 13  2  0  0  0  0
  5 12  1  0  0  0  0
  6  3  1  0  0  0  0
  7 21  1  1  0  0  0
  7 11  1  0  0  0  0
  8 17  1  0  0  0  0
 10 14  1  0  0  0  0
 10  7  1  0  0  0  0
 11  1  1  0  0  0  0
 11 16  2  0  0  0  0
 12  4  1  0  0  0  0
 14  4  2  0  0  0  0
 15  5  2  0  0  0  0
 15 14  1  0  0  0  0
 16  8  1  0  0  0  0
 17 18  2  0  0  0  0
 18 13  1  0  0  0  0
 19  5  1  0  0  0  0
 20 19  3  0  0  0  0
 22 31  2  0  0  0  0
 22 28  1  0  0  0  0
 23 30  2  0  0  0  0
 24 25  1  0  0  0  0
 25 27  2  0  0  0  0
 26 22  1  0  0  0  0
 27 21  1  0  0  0  0
 28 23  1  0  0  0  0
 29 24  2  0  0  0  0
 29 30  1  0  0  0  0
 30 27  1  0  0  0  0
 31 29  1  0  0  0  0
M  END
>  <MODEL>
5

>  <REMARK>
 VINA RESULT:      -8.1      3.071      7.602
  Name = 
  3 active torsions:
  status: ('A' for Active; 'I' for Inactive)
    1  A    between atoms: C_2  and  C_13
    2  A    between atoms: C_9  and  C_23
    3  A    between atoms: C_15  and  C_23
                            x       y       z     vdW  Elec       q    Type
                         _______ _______ _______ _____ _____    ______ ____

>  <TORSDO>
F 3

$$$$
=
 OpenBabel11052422373D

 31 36  0  0  1  0  0  0  0  0999 V2000
  160.7480  207.4500  150.1080 C   0  0  2  0  0  3  0  0  0  0  0  0
  160.9490  206.6790  151.3980 C   0  0  0  0  0  0  0  0  0  0  0  0
  161.1600  204.6050  152.6500 C   0  0  0  0  0  0  0  0  0  0  0  0
  161.2670  206.7310  148.8830 C   0  0  0  0  0  0  0  0  0  0  0  0
  161.6060  205.3630  147.0980 C   0  0  0  0  0  0  0  0  0  0  0  0
  161.0200  205.2770  151.4320 C   0  0  0  0  0  3  0  0  0  0  0  0
  161.9180  209.5190  148.9940 C   0  0  1  0  0  3  0  0  0  0  0  0
  160.8140  208.8820  152.5860 C   0  0  0  0  0  2  0  0  0  0  0  0
  161.2420  203.2530  152.6700 F   0  0  0  0  0  0  0  0  0  0  0  0
  162.8370  208.5510  148.2410 C   0  0  0  0  0  2  0  0  0  0  0  0
  161.3580  208.8470  150.2340 C   0  0  0  0  0  0  0  0  0  0  0  0
  160.7650  205.4400  148.3330 C   0  0  0  0  0  2  0  0  0  0  0  0
  161.2070  205.3250  153.8460 C   0  0  0  0  0  3  0  0  0  0  0  0
  162.1520  207.2380  148.0370 C   0  0  0  0  0  0  0  0  0  0  0  0
  162.3860  206.3800  146.9340 N   0  0  0  0  0  0  0  0  0  0  0  0
  161.3770  209.4540  151.3770 N   0  0  0  0  0  0  0  0  0  0  0  0
  160.9870  207.3950  152.6090 C   0  0  0  0  0  0  0  0  0  0  0  0
  161.1120  206.7200  153.8270 C   0  0  0  0  0  3  0  0  0  0  0  0
  161.5590  204.2720  146.1660 C   0  0  0  0  0  0  0  0  0  0  0  0
  161.5220  203.3930  145.4140 N   0  0  0  0  0  0  0  0  0  0  0  0
  162.6610  210.8150  149.3040 C   0  0  0  0  0  2  0  0  0  0  0  0
  159.5840  213.7040  146.1060 C   0  0  0  0  0  0  0  0  0  0  0  0
  160.0140  212.1870  147.9980 C   0  0  0  0  0  3  0  0  0  0  0  0
  163.1240  213.0400  146.4630 N   0  0  0  0  0  0  0  0  0  0  0  0
  163.5680  212.2320  147.4270 N   0  0  0  0  0  0  0  0  0  0  0  0
  158.6050  214.4480  145.2740 C   0  0  0  0  0  1  0  0  0  0  0  0
  162.5280  211.7820  148.1760 C   0  0  0  0  0  0  0  0  0  0  0  0
  159.1170  212.9100  147.1870 C   0  0  0  0  0  2  0  0  0  0  0  0
  161.7900  213.1050  146.5920 C   0  0  0  0  0  0  0  0  0  0  0  0
  161.3570  212.3040  147.6820 C   0  0  0  0  0  0  0  0  0  0  0  0
  160.9200  213.7910  145.8160 N   0  0  0  0  0  0  0  0  0  0  0  0
  1  4  1  6  0  0  0
  1 11  1  0  0  0  0
  1  2  1  0  0  0  0
  2  6  2  0  0  0  0
  2 17  1  0  0  0  0
  3  9  1  0  0  0  0
  3 13  2  0  0  0  0
  5 12  1  0  0  0  0
  6  3  1  0  0  0  0
  7 21  1  1  0  0  0
  7 11  1  0  0  0  0
  8 17  1  0  0  0  0
 10  7  1  0  0  0  0
 11 16  2  0  0  0  0
 12  4  1  0  0  0  0
 14 10  1  0  0  0  0
 14  4  2  0  0  0  0
 15  5  2  0  0  0  0
 15 14  1  0  0  0  0
 16  8  1  0  0  0  0
 17 18  2  0  0  0  0
 18 13  1  0  0  0  0
 19  5  1  0  0  0  0
 20 19  3  0  0  0  0
 22 28  1  0  0  0  0
 24 29  2  0  0  0  0
 24 25  1  0  0  0  0
 25 27  2  0  0  0  0
 26 22  1  0  0  0  0
 27 21  1  0  0  0  0
 28 23  1  0  0  0  0
 29 30  1  0  0  0  0
 30 23  2  0  0  0  0
 30 27  1  0  0  0  0
 31 22  2  0  0  0  0
 31 29  1  0  0  0  0
M  END
>  <MODEL>
6

>  <REMARK>
 VINA RESULT:      -7.7      3.797      5.162
  Name = 
  3 active torsions:
  status: ('A' for Active; 'I' for Inactive)
    1  A    between atoms: C_2  and  C_13
    2  A    between atoms: C_9  and  C_23
    3  A    between atoms: C_15  and  C_23
                            x       y       z     vdW  Elec       q    Type
                         _______ _______ _______ _____ _____    ______ ____

>  <TORSDO>
F 3

$$$$
=
 OpenBabel11052422373D

 31 36  0  0  1  0  0  0  0  0999 V2000
  160.6340  206.9530  150.0270 C   0  0  2  0  0  3  0  0  0  0  0  0
  160.9060  205.8980  151.0820 C   0  0  0  0  0  0  0  0  0  0  0  0
  161.1800  203.5870  151.7890 C   0  0  0  0  0  0  0  0  0  0  0  0
  161.0770  206.5510  148.6370 C   0  0  0  0  0  0  0  0  0  0  0  0
  161.3030  205.6500  146.5610 C   0  0  0  0  0  0  0  0  0  0  0  0
  160.9720  204.5300  150.7770 C   0  0  0  0  0  3  0  0  0  0  0  0
  161.7490  209.2370  149.3720 C   0  0  1  0  0  3  0  0  0  0  0  0
  160.8520  207.7540  152.7670 C   0  0  0  0  0  2  0  0  0  0  0  0
  161.2550  202.2710  151.4810 F   0  0  0  0  0  0  0  0  0  0  0  0
  162.6160  208.4860  148.3580 C   0  0  0  0  0  2  0  0  0  0  0  0
  161.2580  208.2850  150.4460 C   0  0  0  0  0  0  0  0  0  0  0  0
  160.5370  205.4240  147.8250 C   0  0  0  0  0  3  0  0  0  0  0  0
  161.2990  204.0030  153.1170 C   0  0  0  0  0  3  0  0  0  0  0  0
  161.9140  207.2520  147.8870 C   0  0  1  0  0  3  0  0  0  0  0  0
  162.0780  206.6840  146.5990 N   0  0  0  0  0  0  0  0  0  0  0  0
  161.3470  208.6020  151.6990 N   0  0  0  0  0  0  0  0  0  0  0  0
  161.0190  206.3050  152.4240 C   0  0  0  0  0  0  0  0  0  0  0  0
  161.2120  205.3610  153.4360 C   0  0  0  0  0  3  0  0  0  0  0  0
  161.1960  204.8130  145.4000 C   0  0  0  0  0  0  0  0  0  0  0  0
  161.1110  204.1380  144.4640 N   0  0  0  0  0  0  0  0  0  0  0  0
  162.5150  210.4290  149.9380 C   0  0  0  0  0  2  0  0  0  0  0  0
  158.8430  213.6510  151.9820 C   0  0  0  0  0  0  0  0  0  0  0  0
  160.3380  211.6930  152.0010 C   0  0  0  0  0  3  0  0  0  0  0  0
  160.8310  213.5020  148.9610 N   0  0  0  0  0  0  0  0  0  0  0  0
  161.7010  212.5090  148.7710 N   0  0  0  0  0  0  0  0  0  0  0  0
  157.7940  214.4530  152.6620 C   0  0  0  0  0  1  0  0  0  0  0  0
  161.7000  211.6750  149.8430 C   0  0  0  0  0  0  0  0  0  0  0  0
  159.3440  212.4830  152.6140 C   0  0  0  0  0  2  0  0  0  0  0  0
  160.2640  213.3000  150.1600 C   0  0  0  0  0  0  0  0  0  0  0  0
  160.7900  212.1280  150.7660 C   0  0  0  0  0  0  0  0  0  0  0  0
  159.3070  214.0470  150.7550 N   0  0  0  0  0  0  0  0  0  0  0  0
  1  4  1  6  0  0  0
  1 11  1  0  0  0  0
  1  2  1  0  0  0  0
  2 17  1  0  0  0  0
  3 13  2  0  0  0  0
  5 15  2  0  0  0  0
  5 12  1  0  0  0  0
  6  2  2  0  0  0  0
  6  3  1  0  0  0  0
  7 21  1  1  0  0  0
  7 11  1  0  0  0  0
  9  3  1  0  0  0  0
 10  7  1  0  0  0  0
 11 16  2  0  0  0  0
 12  4  2  0  0  0  0
 13 18  1  0  0  0  0
 14 10  1  1  0  0  0
 14  4  1  0  0  0  0
 15 14  1  0  0  0  0
 16  8  1  0  0  0  0
 17  8  1  0  0  0  0
 17 18  2  0  0  0  0
 19  5  1  0  0  0  0
 20 19  3  0  0  0  0
 22 28  1  0  0  0  0
 22 26  1  0  0  0  0
 23 28  1  0  0  0  0
 24 29  2  0  0  0  0
 25 24  1  0  0  0  0
 25 27  2  0  0  0  0
 27 21  1  0  0  0  0
 27 30  1  0  0  0  0
 29 31  1  0  0  0  0
 29 30  1  0  0  0  0
 30 23  2  0  0  0  0
 31 22  2  0  0  0  0
M  END
>  <MODEL>
7

>  <REMARK>
 VINA RESULT:      -7.0      2.257      3.073
  Name = 
  3 active torsions:
  status: ('A' for Active; 'I' for Inactive)
    1  A    between atoms: C_2  and  C_13
    2  A    between atoms: C_9  and  C_23
    3  A    between atoms: C_15  and  C_23
                            x       y       z     vdW  Elec       q    Type
                         _______ _______ _______ _____ _____    ______ ____

>  <TORSDO>
F 3

$$$$
