=
 OpenBabel11062410433D

 32 37  0  0  1  0  0  0  0  0999 V2000
  160.8980  201.9450  150.4630 C   0  0  1  0  0  3  0  0  0  0  0  0
  161.9410  207.0170  150.6040 C   0  0  1  0  0  3  0  0  0  0  0  0
  161.2860  207.8230  155.4910 C   0  0  0  0  0  2  0  0  0  0  0  0
  161.1280  209.2770  155.0780 C   0  0  0  0  0  2  0  0  0  0  0  0
  162.2170  209.2060  149.3760 C   0  0  0  0  0  0  0  0  0  0  0  0
  161.9930  210.5790  149.3060 C   0  0  0  0  0  0  0  0  0  0  0  0
  161.0870  204.7560  149.9780 C   0  0  1  0  0  3  0  0  0  0  0  0
  162.3140  205.1180  152.1580 C   0  0  0  0  0  2  0  0  0  0  0  0
  161.2680  212.6850  149.8870 C   0  0  1  0  0  3  0  0  0  0  0  0
  161.5970  202.8130  151.5190 C   0  0  0  0  0  2  0  0  0  0  0  0
  161.8090  207.0270  154.3350 C   0  0  0  0  0  3  0  0  0  0  0  0
  162.0230  206.5390  151.9890 N   0  0  0  0  0  0  0  0  0  0  0  0
  161.4530  207.2950  153.0710 C   0  0  0  0  0  0  0  0  0  0  0  0
  161.0740  209.2210  151.5460 C   0  0  0  0  0  0  0  0  0  0  0  0
  161.9600  212.7740  148.5820 N   0  0  0  0  0  0  0  0  0  0  0  0
  159.6530  202.6260  149.8780 C   0  0  0  0  0  2  0  0  0  0  0  0
  161.2400  204.3010  151.4420 C   0  0  2  0  0  3  0  0  0  0  0  0
  162.3740  211.4600  148.2790 N   0  0  0  0  0  0  0  0  0  0  0  0
  159.9640  203.9990  149.2600 C   0  0  0  0  0  2  0  0  0  0  0  0
  160.1300  209.3470  153.9280 C   0  0  0  0  0  2  0  0  0  0  0  0
  160.5390  208.4590  152.7330 C   0  0  2  0  0  3  0  0  0  0  0  0
  160.8560  210.6090  151.4150 C   0  0  0  0  0  3  0  0  0  0  0  0
  160.8320  206.2610  149.8770 C   0  0  0  0  0  2  0  0  0  0  0  0
  162.8860  208.5470  148.3490 O   0  0  0  0  0  1  0  0  0  0  0  0
  159.8820  213.0890  149.7310 N   0  0  0  0  0  1  0  0  0  0  0  0
  161.7460  208.5100  150.5110 C   0  0  0  0  0  0  0  0  0  0  0  0
  161.3370  211.2510  150.2760 C   0  0  0  0  0  0  0  0  0  0  0  0
  161.8870  201.5580  149.3730 C   0  0  0  0  0  2  0  0  0  0  0  0
  161.0590  201.5160  146.9860 C   0  0  0  0  0  0  0  0  0  0  0  0
  161.1910  200.9100  148.2720 N   0  0  0  0  0  2  0  0  0  0  0  0
  160.4550  200.9010  146.0690 O   0  0  0  0  0  0  0  0  0  0  0  0
  161.6220  202.8690  146.7070 C   0  0  0  0  0  1  0  0  0  0  0  0
  1 28  1  6  0  0  0
  1 10  1  0  0  0  0
  2 23  1  1  0  0  0
  2 12  1  0  0  0  0
  4  3  1  0  0  0  0
  5 26  1  0  0  0  0
  6  5  2  0  0  0  0
  6 27  1  0  0  0  0
  7 19  1  1  0  0  0
  7 17  1  0  0  0  0
  9 25  1  6  0  0  0
  9 27  1  0  0  0  0
 11  3  1  0  0  0  0
 12  8  1  0  0  0  0
 12 13  1  0  0  0  0
 13 11  2  0  0  0  0
 14 21  1  0  0  0  0
 15  9  1  0  0  0  0
 16  1  1  0  0  0  0
 17 10  1  6  0  0  0
 17  8  1  0  0  0  0
 18 15  2  0  0  0  0
 18  6  1  0  0  0  0
 19 16  1  0  0  0  0
 20  4  1  0  0  0  0
 21 13  1  0  0  0  0
 21 20  1  1  0  0  0
 22 14  1  0  0  0  0
 23  7  1  0  0  0  0
 24  5  1  0  0  0  0
 26  2  1  0  0  0  0
 26 14  2  0  0  0  0
 27 22  2  0  0  0  0
 29 30  1  0  0  0  0
 30 28  1  0  0  0  0
 31 29  2  0  0  0  0
 32 29  1  0  0  0  0
M  END
>  <MODEL>
1

>  <REMARK>
 VINA RESULT:      -6.2      0.000      0.000
  Name = 
  2 active torsions:
  status: ('A' for Active; 'I' for Inactive)
    1  A    between atoms: C_2  and  C_24
    2  A    between atoms: N_10  and  C_24
                            x       y       z     vdW  Elec       q    Type
                         _______ _______ _______ _____ _____    ______ ____

>  <TORSDO>
F 2

$$$$
=
 OpenBabel11062410433D

 32 37  0  0  1  0  0  0  0  0999 V2000
  160.8990  203.1620  151.3270 C   0  0  1  0  0  3  0  0  0  0  0  0
  161.9010  208.2100  150.7350 C   0  0  1  0  0  3  0  0  0  0  0  0
  160.9430  209.7560  155.3880 C   0  0  0  0  0  2  0  0  0  0  0  0
  160.8010  211.1260  154.7450 C   0  0  0  0  0  2  0  0  0  0  0  0
  162.2400  210.1840  149.1990 C   0  0  0  0  0  0  0  0  0  0  0  0
  162.0130  211.5260  148.9020 C   0  0  0  0  0  0  0  0  0  0  0  0
  161.1010  205.8660  150.4200 C   0  0  1  0  0  3  0  0  0  0  0  0
  162.1890  206.5820  152.5870 C   0  0  0  0  0  2  0  0  0  0  0  0
  161.2410  213.6850  149.1030 C   0  0  1  0  0  3  0  0  0  0  0  0
  161.5260  204.1940  152.2750 C   0  0  0  0  0  2  0  0  0  0  0  0
  161.5400  208.7990  154.4050 C   0  0  0  0  0  3  0  0  0  0  0  0
  161.9010  207.9540  152.1810 N   0  0  0  0  0  0  0  0  0  0  0  0
  161.2610  208.8610  153.0950 C   0  0  0  0  0  0  0  0  0  0  0  0
  160.9650  210.5190  151.2680 C   0  0  0  0  0  0  0  0  0  0  0  0
  162.0110  213.5810  147.8430 N   0  0  0  0  0  0  0  0  0  0  0  0
  159.6890  203.7250  150.5690 C   0  0  0  0  0  2  0  0  0  0  0  0
  161.1660  205.6470  151.9450 C   0  0  2  0  0  3  0  0  0  0  0  0
  162.4510  212.2430  147.7750 N   0  0  0  0  0  0  0  0  0  0  0  0
  160.0280  204.9890  149.7640 C   0  0  0  0  0  2  0  0  0  0  0  0
  159.8760  211.0010  153.5400 C   0  0  0  0  0  2  0  0  0  0  0  0
  160.3630  209.9430  152.5250 C   0  0  2  0  0  3  0  0  0  0  0  0
  160.7480  211.8670  150.9090 C   0  0  0  0  0  3  0  0  0  0  0  0
  160.8440  207.3330  150.0700 C   0  0  0  0  0  2  0  0  0  0  0  0
  162.9740  209.3840  148.3300 O   0  0  0  0  0  1  0  0  0  0  0  0
  159.8640  214.0390  148.8030 N   0  0  0  0  0  1  0  0  0  0  0  0
  161.7040  209.6670  150.3980 C   0  0  0  0  0  0  0  0  0  0  0  0
  161.2940  212.3310  149.7140 C   0  0  0  0  0  0  0  0  0  0  0  0
  161.9550  202.6260  150.3720 C   0  0  0  0  0  2  0  0  0  0  0  0
  161.1990  201.8930  148.0740 C   0  0  0  0  0  0  0  0  0  0  0  0
  161.3650  201.6470  149.4710 N   0  0  0  0  0  2  0  0  0  0  0  0
  160.6930  201.0040  147.3430 O   0  0  0  0  0  0  0  0  0  0  0  0
  161.6130  203.1900  147.4640 C   0  0  0  0  0  1  0  0  0  0  0  0
  1 28  1  6  0  0  0
  1 10  1  0  0  0  0
  2 23  1  6  0  0  0
  2 12  1  0  0  0  0
  4  3  1  0  0  0  0
  5 26  1  0  0  0  0
  6  5  2  0  0  0  0
  6 27  1  0  0  0  0
  7 19  1  1  0  0  0
  7 17  1  0  0  0  0
  9 25  1  6  0  0  0
  9 27  1  0  0  0  0
 11  3  1  0  0  0  0
 12  8  1  0  0  0  0
 12 13  1  0  0  0  0
 13 11  2  0  0  0  0
 14 21  1  0  0  0  0
 15  9  1  0  0  0  0
 16  1  1  0  0  0  0
 17 10  1  6  0  0  0
 17  8  1  0  0  0  0
 18 15  2  0  0  0  0
 18  6  1  0  0  0  0
 19 16  1  0  0  0  0
 20  4  1  0  0  0  0
 21 13  1  0  0  0  0
 21 20  1  1  0  0  0
 22 14  1  0  0  0  0
 23  7  1  0  0  0  0
 24  5  1  0  0  0  0
 26  2  1  0  0  0  0
 26 14  2  0  0  0  0
 27 22  2  0  0  0  0
 29 30  1  0  0  0  0
 30 28  1  0  0  0  0
 31 29  2  0  0  0  0
 32 29  1  0  0  0  0
M  END
>  <MODEL>
2

>  <REMARK>
 VINA RESULT:      -5.8      1.113      1.359
  Name = 
  2 active torsions:
  status: ('A' for Active; 'I' for Inactive)
    1  A    between atoms: C_2  and  C_24
    2  A    between atoms: N_10  and  C_24
                            x       y       z     vdW  Elec       q    Type
                         _______ _______ _______ _____ _____    ______ ____

>  <TORSDO>
F 2

$$$$
=
 OpenBabel11062410433D

 32 37  0  0  1  0  0  0  0  0999 V2000
  159.7380  211.7850  155.6350 C   0  0  1  0  0  3  0  0  0  0  0  0
  161.3410  207.6690  152.9280 C   0  0  1  0  0  3  0  0  0  0  0  0
  162.4400  209.9390  148.6160 C   0  0  0  0  0  2  0  0  0  0  0  0
  162.3210  208.5440  148.0230 C   0  0  0  0  0  2  0  0  0  0  0  0
  161.4430  205.1610  152.6590 C   0  0  0  0  0  0  0  0  0  0  0  0
  161.3680  204.0390  151.8380 C   0  0  0  0  0  0  0  0  0  0  0  0
  160.0760  209.2170  154.4230 C   0  0  1  0  0  3  0  0  0  0  0  0
  161.9880  210.0640  153.0040 C   0  0  0  0  0  2  0  0  0  0  0  0
  161.1220  202.7600  149.9400 C   0  0  1  0  0  3  0  0  0  0  0  0
  160.8420  211.6260  154.5800 C   0  0  0  0  0  2  0  0  0  0  0  0
  162.4550  209.8500  150.1100 C   0  0  0  0  0  3  0  0  0  0  0  0
  161.8230  208.8530  152.2060 N   0  0  0  0  0  0  0  0  0  0  0  0
  161.7340  208.9360  150.7730 C   0  0  0  0  0  0  0  0  0  0  0  0
  161.0940  206.5370  150.6590 C   0  0  0  0  0  0  0  0  0  0  0  0
  161.3470  201.8520  151.0870 N   0  0  0  0  0  0  0  0  0  0  0  0
  158.4560  211.0300  155.2580 C   0  0  0  0  0  2  0  0  0  0  0  0
  160.6520  210.4210  153.6520 C   0  0  2  0  0  3  0  0  0  0  0  0
  161.4850  202.6890  152.2140 N   0  0  0  0  0  0  0  0  0  0  0  0
  158.6990  209.5310  155.0210 C   0  0  0  0  0  2  0  0  0  0  0  0
  161.0140  207.9250  148.5030 C   0  0  0  0  0  2  0  0  0  0  0  0
  160.8990  207.9000  150.0430 C   0  0  2  0  0  3  0  0  0  0  0  0
  161.0050  205.3660  149.8760 C   0  0  0  0  0  3  0  0  0  0  0  0
  159.9750  207.9740  153.5380 C   0  0  0  0  0  2  0  0  0  0  0  0
  161.6540  205.0210  154.0270 O   0  0  0  0  0  1  0  0  0  0  0  0
  159.8180  202.4920  149.3580 N   0  0  0  0  0  1  0  0  0  0  0  0
  161.2990  206.4330  152.0650 C   0  0  0  0  0  0  0  0  0  0  0  0
  161.1510  204.1330  150.5080 C   0  0  0  0  0  0  0  0  0  0  0  0
  160.2580  211.3550  156.9980 C   0  0  0  0  0  2  0  0  0  0  0  0
  162.6870  210.6780  157.1650 C   0  0  0  0  0  0  0  0  0  0  0  0
  161.6700  211.6800  157.1220 N   0  0  0  0  0  2  0  0  0  0  0  0
  163.8930  211.0210  157.2610 O   0  0  0  0  0  0  0  0  0  0  0  0
  162.3450  209.2270  157.1010 C   0  0  0  0  0  1  0  0  0  0  0  0
  1 28  1  1  0  0  0
  2 23  1  6  0  0  0
  3 11  1  0  0  0  0
  4 20  1  0  0  0  0
  4  3  1  0  0  0  0
  5 24  1  0  0  0  0
  6 18  1  0  0  0  0
  6  5  2  0  0  0  0
  7 23  1  6  0  0  0
  7 19  1  0  0  0  0
  9 25  1  1  0  0  0
  9 27  1  0  0  0  0
  9 15  1  0  0  0  0
 10  1  1  0  0  0  0
 11 13  2  0  0  0  0
 12  2  1  0  0  0  0
 12  8  1  0  0  0  0
 13 12  1  0  0  0  0
 14 26  2  0  0  0  0
 15 18  2  0  0  0  0
 16  1  1  0  0  0  0
 17  8  1  1  0  0  0
 17  7  1  0  0  0  0
 17 10  1  0  0  0  0
 19 16  1  0  0  0  0
 21 20  1  6  0  0  0
 21 14  1  0  0  0  0
 21 13  1  0  0  0  0
 22 27  2  0  0  0  0
 22 14  1  0  0  0  0
 26  5  1  0  0  0  0
 26  2  1  0  0  0  0
 27  6  1  0  0  0  0
 28 30  1  0  0  0  0
 29 31  2  0  0  0  0
 30 29  1  0  0  0  0
 32 29  1  0  0  0  0
M  END
>  <MODEL>
3

>  <REMARK>
 VINA RESULT:      -5.1      3.017      8.431
  Name = 
  2 active torsions:
  status: ('A' for Active; 'I' for Inactive)
    1  A    between atoms: C_2  and  C_24
    2  A    between atoms: N_10  and  C_24
                            x       y       z     vdW  Elec       q    Type
                         _______ _______ _______ _____ _____    ______ ____

>  <TORSDO>
F 2

$$$$
=
 OpenBabel11062410433D

 32 37  0  0  1  0  0  0  0  0999 V2000
  161.3950  203.5080  150.3000 C   0  0  1  0  0  3  0  0  0  0  0  0
  161.3080  208.4560  151.8320 C   0  0  1  0  0  3  0  0  0  0  0  0
  161.0380  207.7490  156.7700 C   0  0  0  0  0  2  0  0  0  0  0  0
  160.5200  209.1770  156.7960 C   0  0  0  0  0  2  0  0  0  0  0  0
  160.9600  210.8920  151.2670 C   0  0  0  0  0  0  0  0  0  0  0  0
  160.4330  212.1370  151.6010 C   0  0  0  0  0  0  0  0  0  0  0  0
  160.9070  206.3070  150.6270 C   0  0  1  0  0  3  0  0  0  0  0  0
  162.2580  206.3600  152.7620 C   0  0  0  0  0  2  0  0  0  0  0  0
  159.3330  213.7720  152.7900 C   0  0  1  0  0  3  0  0  0  0  0  0
  161.9990  204.2060  151.5270 C   0  0  0  0  0  2  0  0  0  0  0  0
  161.5910  207.4400  155.4140 C   0  0  0  0  0  3  0  0  0  0  0  0
  161.6460  207.6600  153.0190 N   0  0  0  0  0  0  0  0  0  0  0  0
  161.0470  207.9410  154.2960 C   0  0  0  0  0  0  0  0  0  0  0  0
  160.0880  210.0520  153.4000 C   0  0  0  0  0  0  0  0  0  0  0  0
  159.8390  214.3700  151.5340 N   0  0  0  0  0  0  0  0  0  0  0  0
  159.9740  203.9990  149.9890 C   0  0  0  0  0  2  0  0  0  0  0  0
  161.3180  205.5290  151.8930 C   0  0  2  0  0  3  0  0  0  0  0  0
  160.4950  213.3250  150.8520 N   0  0  0  0  0  0  0  0  0  0  0  0
  159.9050  205.5190  149.7750 C   0  0  0  0  0  2  0  0  0  0  0  0
  159.4100  209.3080  155.7600 C   0  0  0  0  0  2  0  0  0  0  0  0
  159.8690  208.8960  154.3440 C   0  0  2  0  0  3  0  0  0  0  0  0
  159.5580  211.3300  153.6800 C   0  0  0  0  0  3  0  0  0  0  0  0
  160.3180  207.6760  150.9700 C   0  0  0  0  0  2  0  0  0  0  0  0
  161.6390  210.7120  150.0660 O   0  0  0  0  0  1  0  0  0  0  0  0
  157.8830  213.8570  152.8180 N   0  0  0  0  0  1  0  0  0  0  0  0
  160.7810  209.8270  152.1760 C   0  0  0  0  0  0  0  0  0  0  0  0
  159.7570  212.3480  152.7500 C   0  0  0  0  0  0  0  0  0  0  0  0
  162.3170  203.6760  149.1010 C   0  0  0  0  0  2  0  0  0  0  0  0
  161.7760  203.8120  146.6370 C   0  0  0  0  0  0  0  0  0  0  0  0
  161.6800  203.1560  147.9020 N   0  0  0  0  0  2  0  0  0  0  0  0
  161.2120  203.3080  145.6320 O   0  0  0  0  0  0  0  0  0  0  0  0
  162.5320  205.0890  146.4840 C   0  0  0  0  0  1  0  0  0  0  0  0
  1 28  1  6  0  0  0
  1 10  1  0  0  0  0
  2 23  1  1  0  0  0
  2 26  1  0  0  0  0
  2 12  1  0  0  0  0
  3  4  1  0  0  0  0
  5  6  2  0  0  0  0
  5 26  1  0  0  0  0
  6 27  1  0  0  0  0
  7 19  1  1  0  0  0
  7 23  1  0  0  0  0
  7 17  1  0  0  0  0
  8 12  1  0  0  0  0
  9 25  1  6  0  0  0
 11  3  1  0  0  0  0
 12 13  1  0  0  0  0
 13 21  1  0  0  0  0
 13 11  2  0  0  0  0
 14 22  1  0  0  0  0
 14 21  1  0  0  0  0
 15  9  1  0  0  0  0
 16  1  1  0  0  0  0
 17 10  1  6  0  0  0
 17  8  1  0  0  0  0
 18 15  2  0  0  0  0
 18  6  1  0  0  0  0
 19 16  1  0  0  0  0
 20  4  1  0  0  0  0
 21 20  1  1  0  0  0
 24  5  1  0  0  0  0
 26 14  2  0  0  0  0
 27  9  1  0  0  0  0
 27 22  2  0  0  0  0
 29 30  1  0  0  0  0
 30 28  1  0  0  0  0
 31 29  2  0  0  0  0
 32 29  1  0  0  0  0
M  END
>  <MODEL>
4

>  <REMARK>
 VINA RESULT:      -4.1      1.806      2.383
  Name = 
  2 active torsions:
  status: ('A' for Active; 'I' for Inactive)
    1  A    between atoms: C_2  and  C_24
    2  A    between atoms: N_10  and  C_24
                            x       y       z     vdW  Elec       q    Type
                         _______ _______ _______ _____ _____    ______ ____

>  <TORSDO>
F 2

$$$$
=
 OpenBabel11062410433D

 32 37  0  0  1  0  0  0  0  0999 V2000
  160.9940  204.7030  143.8840 C   0  0  1  0  0  3  0  0  0  0  0  0
  161.9550  206.3790  148.6920 C   0  0  1  0  0  3  0  0  0  0  0  0
  161.2060  202.1110  151.1790 C   0  0  0  0  0  2  0  0  0  0  0  0
  161.0320  203.0190  152.3860 C   0  0  0  0  0  2  0  0  0  0  0  0
  162.2180  208.3060  150.3010 C   0  0  0  0  0  0  0  0  0  0  0  0
  161.9740  208.8650  151.5530 C   0  0  0  0  0  0  0  0  0  0  0  0
  161.1470  206.1620  146.3390 C   0  0  1  0  0  3  0  0  0  0  0  0
  162.3310  204.2440  147.4820 C   0  0  0  0  0  2  0  0  0  0  0  0
  161.2060  209.0840  153.7120 C   0  0  1  0  0  3  0  0  0  0  0  0
  161.6610  204.0210  145.0870 C   0  0  0  0  0  2  0  0  0  0  0  0
  161.7600  202.9000  150.0340 C   0  0  0  0  0  3  0  0  0  0  0  0
  162.0210  204.9130  148.7420 N   0  0  0  0  0  0  0  0  0  0  0  0
  161.4210  204.1790  149.8240 C   0  0  0  0  0  0  0  0  0  0  0  0
  161.0380  206.2970  151.0680 C   0  0  0  0  0  0  0  0  0  0  0  0
  161.9180  210.3280  153.3420 N   0  0  0  0  0  0  0  0  0  0  0  0
  159.7480  205.5070  144.2860 C   0  0  0  0  0  2  0  0  0  0  0  0
  161.2820  204.6300  146.4420 C   0  0  2  0  0  3  0  0  0  0  0  0
  162.3580  210.1360  152.0160 N   0  0  0  0  0  0  0  0  0  0  0  0
  160.0480  206.5710  145.3520 C   0  0  0  0  0  2  0  0  0  0  0  0
  160.0530  204.1280  152.0200 C   0  0  0  0  0  2  0  0  0  0  0  0
  160.4960  204.9210  150.7700 C   0  0  2  0  0  3  0  0  0  0  0  0
  160.8010  206.9190  152.3130 C   0  0  0  0  0  3  0  0  0  0  0  0
  160.8700  206.7970  147.7030 C   0  0  0  0  0  2  0  0  0  0  0  0
  162.9140  209.0220  149.3320 O   0  0  0  0  0  1  0  0  0  0  0  0
  159.8170  209.3890  154.0050 N   0  0  0  0  0  1  0  0  0  0  0  0
  161.7390  207.0020  150.0480 C   0  0  0  0  0  0  0  0  0  0  0  0
  161.2910  208.2080  152.5140 C   0  0  0  0  0  0  0  0  0  0  0  0
  162.0060  205.5730  143.1540 C   0  0  0  0  0  2  0  0  0  0  0  0
  161.9560  206.6720  140.8790 C   0  0  0  0  0  0  0  0  0  0  0  0
  161.3410  206.3640  142.1310 N   0  0  0  0  0  2  0  0  0  0  0  0
  161.3260  207.3520  140.0280 O   0  0  0  0  0  0  0  0  0  0  0  0
  163.3360  206.2030  140.5600 C   0  0  0  0  0  1  0  0  0  0  0  0
  1 28  1  1  0  0  0
  1 16  1  0  0  0  0
  1 10  1  0  0  0  0
  2 23  1  6  0  0  0
  2 12  1  0  0  0  0
  2 26  1  0  0  0  0
  3  4  1  0  0  0  0
  5  6  1  0  0  0  0
  6 18  1  0  0  0  0
  6 27  2  0  0  0  0
  7 19  1  6  0  0  0
  7 17  1  0  0  0  0
  7 23  1  0  0  0  0
  8 12  1  0  0  0  0
  9 25  1  6  0  0  0
 11  3  1  0  0  0  0
 12 13  1  0  0  0  0
 13 11  2  0  0  0  0
 13 21  1  0  0  0  0
 14 22  2  0  0  0  0
 15  9  1  0  0  0  0
 16 19  1  0  0  0  0
 17 10  1  6  0  0  0
 17  8  1  0  0  0  0
 18 15  2  0  0  0  0
 20  4  1  0  0  0  0
 21 14  1  0  0  0  0
 21 20  1  1  0  0  0
 22 27  1  0  0  0  0
 24  5  1  0  0  0  0
 26  5  2  0  0  0  0
 26 14  1  0  0  0  0
 27  9  1  0  0  0  0
 29 30  1  0  0  0  0
 30 28  1  0  0  0  0
 31 29  2  0  0  0  0
 32 29  1  0  0  0  0
M  END
>  <MODEL>
5

>  <REMARK>
 VINA RESULT:      -3.4      3.568      5.343
  Name = 
  2 active torsions:
  status: ('A' for Active; 'I' for Inactive)
    1  A    between atoms: C_2  and  C_24
    2  A    between atoms: N_10  and  C_24
                            x       y       z     vdW  Elec       q    Type
                         _______ _______ _______ _____ _____    ______ ____

>  <TORSDO>
F 2

$$$$
