=
 OpenBabel11062409033D

 37 41  0  0  1  0  0  0  0  0999 V2000
  160.1860  207.0730  154.8680 C   0  0  0  0  0  2  0  0  0  0  0  0
  161.3050  209.9960  151.8560 C   0  0  0  0  0  0  0  0  0  0  0  0
  161.4910  207.6470  152.6920 C   0  0  2  0  0  3  0  0  0  0  0  0
  161.0530  211.3950  152.3110 C   0  0  2  0  0  3  0  0  0  0  0  0
  161.0970  209.1060  152.8240 C   0  0  0  0  0  0  0  0  0  0  0  0
  161.6110  207.2280  151.2240 C   0  0  0  0  0  2  0  0  0  0  0  0
  160.7450  209.7730  154.1140 C   0  0  1  0  0  3  0  0  0  0  0  0
  162.3580  209.8410  155.8610 O   0  0  0  0  0  0  0  0  0  0  0  0
  162.4330  208.2540  150.4490 C   0  0  0  0  0  2  0  0  0  0  0  0
  161.5280  209.1760  155.2610 C   0  0  0  0  0  0  0  0  0  0  0  0
  161.7310  209.6140  150.4620 C   0  0  0  0  0  2  0  0  0  0  0  0
  161.0360  211.2550  153.8470 C   0  0  0  0  0  2  0  0  0  0  0  0
  160.5540  206.6820  153.4290 C   0  0  0  0  0  2  0  0  0  0  0  0
  161.3280  207.7320  155.6490 C   0  0  0  0  0  2  0  0  0  0  0  0
  159.9530  211.7940  155.7260 O   0  0  0  0  0  0  0  0  0  0  0  0
  159.4310  212.1660  155.8840 N   0  0  0  0  0  2  0  0  0  0  0  0
  160.0840  212.1740  154.5440 C   0  0  0  0  0  1  0  0  0  0  0  0
  158.1930  213.1130  156.2030 C   0  0  1  0  0  3  0  0  0  0  0  0
  155.8210  212.8970  156.3560 O   0  0  0  0  0  0  0  0  0  0  0  0
  155.5000  210.6750  155.9350 O   0  0  0  0  0  1  0  0  0  0  0  0
  157.0340  212.2750  156.7060 C   0  0  1  0  0  3  0  0  0  0  0  0
  156.2230  211.8070  155.5620 C   0  0  2  0  0  3  0  0  0  0  0  0
  158.5690  214.1420  157.2600 C   0  0  0  0  0  2  0  0  0  0  0  0
  160.0540  214.4510  157.1980 C   0  0  0  0  0  1  0  0  0  0  0  0
  159.7860  212.0340  151.6790 C   0  0  2  0  0  3  0  0  0  0  0  0
  160.4820  214.4300  151.0470 C   0  0  0  0  0  2  0  0  0  0  0  0
  160.0310  213.1090  150.5840 C   0  0  2  0  0  0  0  0  0  0  0  0
  158.7260  214.4110  150.4700 S   0  0  0  0  0  0  0  0  0  0  0  0
  162.0140  212.8520  148.9220 C   0  0  0  0  0  2  0  0  0  0  0  0
  160.5170  212.6250  149.2040 C   0  0  0  0  0  3  0  0  0  0  0  0
  160.0450  212.6630  146.7020 C   0  0  0  0  0  2  0  0  0  0  0  0
  159.5530  213.0500  148.0880 C   0  0  0  0  0  2  0  0  0  0  0  0
  162.2720  213.8670  146.6630 C   0  0  0  0  0  2  0  0  0  0  0  0
  160.8510  213.8130  146.1110 C   0  0  0  0  0  2  0  0  0  0  0  0
  162.3020  214.1390  148.1610 C   0  0  0  0  0  2  0  0  0  0  0  0
  158.8150  212.4670  152.7770 C   0  0  0  0  0  2  0  0  0  0  0  0
  157.4630  211.8080  152.5760 C   0  0  0  0  0  1  0  0  0  0  0  0
  1 14  1  0  0  0  0
  2  4  1  0  0  0  0
  2  5  2  0  0  0  0
  3  6  1  6  0  0  0
  3  5  1  0  0  0  0
  3 13  1  0  0  0  0
  4 25  1  6  0  0  0
  4 12  1  0  0  0  0
  5  7  1  0  0  0  0
  7 12  1  6  0  0  0
  7 10  1  0  0  0  0
  9 11  1  0  0  0  0
  9  6  1  0  0  0  0
 10 14  1  0  0  0  0
 10  8  2  0  0  0  0
 11  2  1  0  0  0  0
 13  1  1  0  0  0  0
 15 16  1  0  0  0  0
 16 18  1  0  0  0  0
 17 15  1  0  0  0  0
 18 23  1  1  0  0  0
 19 21  1  0  0  0  0
 21 18  1  6  0  0  0
 22 20  1  1  0  0  0
 22 19  1  0  0  0  0
 22 21  1  0  0  0  0
 24 23  1  0  0  0  0
 25 36  1  1  0  0  0
 27 26  1  0  0  0  0
 27 25  1  1  0  0  0
 28 27  1  0  0  0  0
 28 26  1  0  0  0  0
 29 30  1  0  0  0  0
 30 27  1  0  0  0  0
 31 32  1  0  0  0  0
 32 30  1  0  0  0  0
 33 35  1  0  0  0  0
 34 33  1  0  0  0  0
 34 31  1  0  0  0  0
 35 29  1  0  0  0  0
 37 36  1  0  0  0  0
M  END
>  <MODEL>
1

>  <REMARK>
 VINA RESULT:      -4.5      0.000      0.000
  Name = 
  8 active torsions:
  status: ('A' for Active; 'I' for Inactive)
    1  A    between atoms: C_6  and  C_31
    2  A    between atoms: C_7  and  C_14
    3  A    between atoms: C_10  and  C_14
    4  A    between atoms: C_11  and  C_26
    5  A    between atoms: C_14  and  C_31
    6  A    between atoms: C_17  and  C_26
    7  A    between atoms: C_26  and  N_33
    8  A    between atoms: C_29  and  C_36
                            x       y       z     vdW  Elec       q    Type
                         _______ _______ _______ _____ _____    ______ ____

>  <TORSDO>
F 8

$$$$
=
 OpenBabel11062409033D

 37 41  0  0  1  0  0  0  0  0999 V2000
  162.3310  209.2340  156.9780 C   0  0  0  0  0  2  0  0  0  0  0  0
  160.0400  211.6510  154.1890 C   0  0  0  0  0  0  0  0  0  0  0  0
  160.6940  211.2130  156.5610 C   0  0  2  0  0  3  0  0  0  0  0  0
  159.8830  210.9810  152.8640 C   0  0  2  0  0  3  0  0  0  0  0  0
  160.6180  210.8580  155.0890 C   0  0  0  0  0  0  0  0  0  0  0  0
  160.5610  212.7210  156.7840 C   0  0  0  0  0  2  0  0  0  0  0  0
  160.8730  209.4940  154.5340 C   0  0  1  0  0  3  0  0  0  0  0  0
  159.5110  207.6790  155.2480 O   0  0  0  0  0  0  0  0  0  0  0  0
  159.3810  213.2700  155.9850 C   0  0  0  0  0  2  0  0  0  0  0  0
  160.4420  208.4250  155.5110 C   0  0  0  0  0  0  0  0  0  0  0  0
  159.6150  213.0650  154.4870 C   0  0  0  0  0  2  0  0  0  0  0  0
  160.1020  209.4930  153.2080 C   0  0  0  0  0  2  0  0  0  0  0  0
  161.9580  210.6980  157.2600 C   0  0  0  0  0  2  0  0  0  0  0  0
  161.1270  208.2960  156.8490 C   0  0  0  0  0  2  0  0  0  0  0  0
  160.1630  207.6290  151.9760 O   0  0  0  0  0  0  0  0  0  0  0  0
  160.6120  207.3190  151.6040 N   0  0  0  0  0  2  0  0  0  0  0  0
  160.7820  208.7010  152.1360 C   0  0  0  0  0  1  0  0  0  0  0  0
  161.7240  206.6460  150.6870 C   0  0  1  0  0  3  0  0  0  0  0  0
  162.5490  204.5480  151.4720 O   0  0  0  0  0  0  0  0  0  0  0  0
  160.6300  203.4430  152.0340 O   0  0  0  0  0  1  0  0  0  0  0  0
  161.5390  205.1410  150.6930 C   0  0  1  0  0  3  0  0  0  0  0  0
  161.2820  204.6740  152.0720 C   0  0  2  0  0  3  0  0  0  0  0  0
  161.6220  207.1620  149.2590 C   0  0  0  0  0  2  0  0  0  0  0  0
  160.5870  206.3710  148.4810 C   0  0  0  0  0  1  0  0  0  0  0  0
  160.8110  211.5610  151.7620 C   0  0  2  0  0  3  0  0  0  0  0  0
  159.9870  213.9480  151.2600 C   0  0  0  0  0  2  0  0  0  0  0  0
  160.1600  212.5700  150.7750 C   0  0  2  0  0  0  0  0  0  0  0  0
  158.4040  213.0000  151.1520 S   0  0  0  0  0  0  0  0  0  0  0  0
  161.8780  212.5650  148.8220 C   0  0  0  0  0  2  0  0  0  0  0  0
  160.4170  212.3640  149.2700 C   0  0  0  0  0  3  0  0  0  0  0  0
  159.6230  212.9570  146.9250 C   0  0  0  0  0  2  0  0  0  0  0  0
  159.3520  213.0670  148.4170 C   0  0  0  0  0  2  0  0  0  0  0  0
  161.9160  214.0200  146.8020 C   0  0  0  0  0  2  0  0  0  0  0  0
  160.4350  214.1610  146.4650 C   0  0  0  0  0  2  0  0  0  0  0  0
  162.1670  213.9670  148.3030 C   0  0  0  0  0  2  0  0  0  0  0  0
  161.5870  210.4320  151.0830 C   0  0  0  0  0  2  0  0  0  0  0  0
  163.0200  210.4020  151.5830 C   0  0  0  0  0  1  0  0  0  0  0  0
  1 13  1  0  0  0  0
  2 11  1  0  0  0  0
  2  5  2  0  0  0  0
  3  6  1  6  0  0  0
  3 13  1  0  0  0  0
  4 25  1  6  0  0  0
  4 12  1  0  0  0  0
  4  2  1  0  0  0  0
  5  3  1  0  0  0  0
  7 12  1  6  0  0  0
  7  5  1  0  0  0  0
  7 10  1  0  0  0  0
  8 10  2  0  0  0  0
  9  6  1  0  0  0  0
 10 14  1  0  0  0  0
 11  9  1  0  0  0  0
 14  1  1  0  0  0  0
 15 17  1  0  0  0  0
 16 15  1  0  0  0  0
 18 23  1  6  0  0  0
 18 16  1  0  0  0  0
 19 22  1  0  0  0  0
 21 18  1  1  0  0  0
 21 19  1  0  0  0  0
 21 22  1  0  0  0  0
 22 20  1  6  0  0  0
 24 23  1  0  0  0  0
 25 36  1  6  0  0  0
 27 28  1  0  0  0  0
 27 26  1  0  0  0  0
 27 25  1  1  0  0  0
 28 26  1  0  0  0  0
 29 30  1  0  0  0  0
 30 27  1  0  0  0  0
 31 32  1  0  0  0  0
 32 30  1  0  0  0  0
 33 35  1  0  0  0  0
 34 33  1  0  0  0  0
 34 31  1  0  0  0  0
 35 29  1  0  0  0  0
 36 37  1  0  0  0  0
M  END
>  <MODEL>
2

>  <REMARK>
 VINA RESULT:      -3.9      2.607      5.697
  Name = 
  8 active torsions:
  status: ('A' for Active; 'I' for Inactive)
    1  A    between atoms: C_6  and  C_31
    2  A    between atoms: C_7  and  C_14
    3  A    between atoms: C_10  and  C_14
    4  A    between atoms: C_11  and  C_26
    5  A    between atoms: C_14  and  C_31
    6  A    between atoms: C_17  and  C_26
    7  A    between atoms: C_26  and  N_33
    8  A    between atoms: C_29  and  C_36
                            x       y       z     vdW  Elec       q    Type
                         _______ _______ _______ _____ _____    ______ ____

>  <TORSDO>
F 8

$$$$
=
 OpenBabel11062409033D

 37 41  0  0  1  0  0  0  0  0999 V2000
  159.9080  209.9150  153.6490 C   0  0  0  0  0  2  0  0  0  0  0  0
  161.8690  206.8290  151.3050 C   0  0  0  0  0  0  0  0  0  0  0  0
  161.1100  207.6100  153.5550 C   0  0  2  0  0  3  0  0  0  0  0  0
  162.2880  207.3260  149.9610 C   0  0  2  0  0  3  0  0  0  0  0  0
  161.3950  207.8040  152.0780 C   0  0  0  0  0  0  0  0  0  0  0  0
  160.8920  206.1340  153.8960 C   0  0  0  0  0  2  0  0  0  0  0  0
  161.4940  209.1340  151.4040 C   0  0  1  0  0  3  0  0  0  0  0  0
  163.1440  210.6840  152.1330 O   0  0  0  0  0  0  0  0  0  0  0  0
  161.9930  205.2800  153.2720 C   0  0  0  0  0  2  0  0  0  0  0  0
  162.0540  210.1760  152.3450 C   0  0  0  0  0  0  0  0  0  0  0  0
  161.9490  205.3910  151.7470 C   0  0  0  0  0  2  0  0  0  0  0  0
  162.3650  208.8520  150.1730 C   0  0  0  0  0  2  0  0  0  0  0  0
  159.9270  208.4390  154.0720 C   0  0  0  0  0  2  0  0  0  0  0  0
  161.2930  210.5670  153.5870 C   0  0  0  0  0  2  0  0  0  0  0  0
  162.3560  210.8420  149.1540 O   0  0  0  0  0  0  0  0  0  0  0  0
  162.0210  211.1210  148.6580 N   0  0  0  0  0  2  0  0  0  0  0  0
  161.9750  209.6660  148.9800 C   0  0  0  0  0  1  0  0  0  0  0  0
  161.2090  211.7200  147.4290 C   0  0  1  0  0  3  0  0  0  0  0  0
  159.7270  213.5420  147.0010 O   0  0  0  0  0  0  0  0  0  0  0  0
  157.7200  212.7260  147.7280 O   0  0  0  0  0  1  0  0  0  0  0  0
  160.0500  212.5510  147.9460 C   0  0  1  0  0  3  0  0  0  0  0  0
  158.8900  212.4100  147.0400 C   0  0  2  0  0  3  0  0  0  0  0  0
  162.1110  212.5920  146.5680 C   0  0  0  0  0  2  0  0  0  0  0  0
  162.8760  213.5790  147.4300 C   0  0  0  0  0  1  0  0  0  0  0  0
  161.3620  206.8530  148.8080 C   0  0  2  0  0  3  0  0  0  0  0  0
  163.2190  205.2840  147.9580 C   0  0  0  0  0  2  0  0  0  0  0  0
  161.7750  205.5380  148.0900 C   0  0  2  0  0  0  0  0  0  0  0  0
  162.4060  205.7580  146.3680 S   0  0  0  0  0  0  0  0  0  0  0  0
  160.4030  204.0010  149.6770 C   0  0  0  0  0  2  0  0  0  0  0  0
  160.8410  204.3210  148.2350 C   0  0  0  0  0  3  0  0  0  0  0  0
  160.4880  201.8830  147.5930 C   0  0  0  0  0  2  0  0  0  0  0  0
  161.3390  203.1290  147.4060 C   0  0  0  0  0  2  0  0  0  0  0  0
  160.6970  201.5650  150.0950 C   0  0  0  0  0  2  0  0  0  0  0  0
  161.0710  201.0330  148.7150 C   0  0  0  0  0  2  0  0  0  0  0  0
  161.2700  202.9510  150.3570 C   0  0  0  0  0  2  0  0  0  0  0  0
  161.0670  208.0170  147.8620 C   0  0  0  0  0  2  0  0  0  0  0  0
  160.4830  207.5030  146.5590 C   0  0  0  0  0  1  0  0  0  0  0  0
  1 13  1  0  0  0  0
  2 11  1  0  0  0  0
  2  5  2  0  0  0  0
  3  6  1  6  0  0  0
  3 13  1  0  0  0  0
  4 25  1  6  0  0  0
  4 12  1  0  0  0  0
  4  2  1  0  0  0  0
  5  3  1  0  0  0  0
  7 12  1  6  0  0  0
  7  5  1  0  0  0  0
  7 10  1  0  0  0  0
  8 10  2  0  0  0  0
  9  6  1  0  0  0  0
 10 14  1  0  0  0  0
 11  9  1  0  0  0  0
 14  1  1  0  0  0  0
 16 15  1  0  0  0  0
 17 15  1  0  0  0  0
 18 23  1  1  0  0  0
 18 16  1  0  0  0  0
 19 22  1  0  0  0  0
 19 21  1  0  0  0  0
 21 18  1  6  0  0  0
 22 20  1  1  0  0  0
 22 21  1  0  0  0  0
 23 24  1  0  0  0  0
 25 36  1  6  0  0  0
 26 27  1  0  0  0  0
 27 30  1  0  0  0  0
 27 25  1  1  0  0  0
 28 26  1  0  0  0  0
 28 27  1  0  0  0  0
 29 35  1  0  0  0  0
 30 29  1  0  0  0  0
 31 34  1  0  0  0  0
 32 31  1  0  0  0  0
 32 30  1  0  0  0  0
 33 35  1  0  0  0  0
 34 33  1  0  0  0  0
 37 36  1  0  0  0  0
M  END
>  <MODEL>
3

>  <REMARK>
 VINA RESULT:      -3.9      4.255      7.783
  Name = 
  8 active torsions:
  status: ('A' for Active; 'I' for Inactive)
    1  A    between atoms: C_6  and  C_31
    2  A    between atoms: C_7  and  C_14
    3  A    between atoms: C_10  and  C_14
    4  A    between atoms: C_11  and  C_26
    5  A    between atoms: C_14  and  C_31
    6  A    between atoms: C_17  and  C_26
    7  A    between atoms: C_26  and  N_33
    8  A    between atoms: C_29  and  C_36
                            x       y       z     vdW  Elec       q    Type
                         _______ _______ _______ _____ _____    ______ ____

>  <TORSDO>
F 8

$$$$
=
 OpenBabel11062409033D

 37 41  0  0  1  0  0  0  0  0999 V2000
  155.7500  211.0510  155.0110 C   0  0  0  0  0  2  0  0  0  0  0  0
  159.9620  211.5580  154.0750 C   0  0  0  0  0  0  0  0  0  0  0  0
  158.2300  211.0250  155.7970 C   0  0  2  0  0  3  0  0  0  0  0  0
  160.1670  212.3010  152.7960 C   0  0  2  0  0  3  0  0  0  0  0  0
  158.6810  211.5220  154.4370 C   0  0  0  0  0  0  0  0  0  0  0  0
  159.2730  210.1020  156.4320 C   0  0  0  0  0  2  0  0  0  0  0  0
  157.8240  212.3070  153.4970 C   0  0  1  0  0  3  0  0  0  0  0  0
  156.9540  214.4070  154.2000 O   0  0  0  0  0  0  0  0  0  0  0  0
  160.6610  210.7290  156.3340 C   0  0  0  0  0  2  0  0  0  0  0  0
  156.8600  213.1900  154.2560 C   0  0  0  0  0  0  0  0  0  0  0  0
  161.0620  210.9030  154.8680 C   0  0  0  0  0  2  0  0  0  0  0  0
  158.8380  213.0660  152.6320 C   0  0  0  0  0  2  0  0  0  0  0  0
  156.8650  210.3270  155.7810 C   0  0  0  0  0  2  0  0  0  0  0  0
  155.7960  212.5780  155.1320 C   0  0  0  0  0  2  0  0  0  0  0  0
  158.3400  214.4530  150.9510 O   0  0  0  0  0  0  0  0  0  0  0  0
  158.0100  214.4100  150.3800 N   0  0  0  0  0  2  0  0  0  0  0  0
  158.3880  213.2340  151.2150 C   0  0  0  0  0  1  0  0  0  0  0  0
  157.2410  214.2280  148.9990 C   0  0  1  0  0  3  0  0  0  0  0  0
  157.1200  212.8600  147.0470 O   0  0  0  0  0  0  0  0  0  0  0  0
  159.3150  212.3610  146.6580 O   0  0  0  0  0  1  0  0  0  0  0  0
  157.7560  212.9870  148.2960 C   0  0  1  0  0  3  0  0  0  0  0  0
  158.4330  213.3700  147.0380 C   0  0  2  0  0  3  0  0  0  0  0  0
  155.7440  214.0910  149.2370 C   0  0  0  0  0  2  0  0  0  0  0  0
  155.4320  214.1660  150.7200 C   0  0  0  0  0  1  0  0  0  0  0  0
  160.5700  211.3880  151.6060 C   0  0  2  0  0  3  0  0  0  0  0  0
  162.4730  210.3370  152.9840 C   0  0  0  0  0  2  0  0  0  0  0  0
  161.4400  210.1480  151.9540 C   0  0  2  0  0  0  0  0  0  0  0  0
  163.1560  210.1890  151.2720 S   0  0  0  0  0  0  0  0  0  0  0  0
  160.4170  208.0960  153.1810 C   0  0  0  0  0  2  0  0  0  0  0  0
  160.7820  208.7600  151.8400 C   0  0  0  0  0  3  0  0  0  0  0  0
  160.9510  206.4620  150.7560 C   0  0  0  0  0  2  0  0  0  0  0  0
  161.5210  207.8690  150.8310 C   0  0  0  0  0  2  0  0  0  0  0  0
  161.2160  205.7380  153.1670 C   0  0  0  0  0  2  0  0  0  0  0  0
  161.6960  205.5590  151.7300 C   0  0  0  0  0  2  0  0  0  0  0  0
  161.4840  207.1400  153.6970 C   0  0  0  0  0  2  0  0  0  0  0  0
  161.1170  212.2360  150.4580 C   0  0  0  0  0  2  0  0  0  0  0  0
  161.3510  211.3740  149.2310 C   0  0  0  0  0  1  0  0  0  0  0  0
  1 14  1  0  0  0  0
  1 13  1  0  0  0  0
  2  5  2  0  0  0  0
  2 11  1  0  0  0  0
  3 13  1  6  0  0  0
  3  6  1  0  0  0  0
  4 25  1  6  0  0  0
  4  2  1  0  0  0  0
  5  3  1  0  0  0  0
  7 12  1  1  0  0  0
  7 10  1  0  0  0  0
  7  5  1  0  0  0  0
  8 10  2  0  0  0  0
  9  6  1  0  0  0  0
 10 14  1  0  0  0  0
 11  9  1  0  0  0  0
 12  4  1  0  0  0  0
 15 17  1  0  0  0  0
 16 15  1  0  0  0  0
 18 23  1  1  0  0  0
 18 16  1  0  0  0  0
 19 21  1  0  0  0  0
 21 18  1  1  0  0  0
 22 20  1  6  0  0  0
 22 19  1  0  0  0  0
 22 21  1  0  0  0  0
 23 24  1  0  0  0  0
 25 36  1  6  0  0  0
 27 25  1  6  0  0  0
 27 26  1  0  0  0  0
 28 27  1  0  0  0  0
 28 26  1  0  0  0  0
 29 35  1  0  0  0  0
 30 27  1  0  0  0  0
 30 29  1  0  0  0  0
 31 32  1  0  0  0  0
 31 34  1  0  0  0  0
 32 30  1  0  0  0  0
 33 35  1  0  0  0  0
 34 33  1  0  0  0  0
 37 36  1  0  0  0  0
M  END
>  <MODEL>
4

>  <REMARK>
 VINA RESULT:      -3.6      3.202      6.542
  Name = 
  8 active torsions:
  status: ('A' for Active; 'I' for Inactive)
    1  A    between atoms: C_6  and  C_31
    2  A    between atoms: C_7  and  C_14
    3  A    between atoms: C_10  and  C_14
    4  A    between atoms: C_11  and  C_26
    5  A    between atoms: C_14  and  C_31
    6  A    between atoms: C_17  and  C_26
    7  A    between atoms: C_26  and  N_33
    8  A    between atoms: C_29  and  C_36
                            x       y       z     vdW  Elec       q    Type
                         _______ _______ _______ _____ _____    ______ ____

>  <TORSDO>
F 8

$$$$
=
 OpenBabel11062409033D

 37 41  0  0  1  0  0  0  0  0999 V2000
  160.0980  206.1320  151.7520 C   0  0  0  0  0  2  0  0  0  0  0  0
  161.7830  209.7130  149.9610 C   0  0  0  0  0  0  0  0  0  0  0  0
  161.7020  207.2150  150.0130 C   0  0  2  0  0  3  0  0  0  0  0  0
  161.5710  210.9200  150.8140 C   0  0  2  0  0  3  0  0  0  0  0  0
  161.3950  208.5930  150.5670 C   0  0  0  0  0  0  0  0  0  0  0  0
  161.9770  207.2630  148.5080 C   0  0  0  0  0  2  0  0  0  0  0  0
  160.9290  208.8590  151.9620 C   0  0  1  0  0  3  0  0  0  0  0  0
  162.3110  208.2120  153.7880 O   0  0  0  0  0  0  0  0  0  0  0  0
  162.9570  208.3880  148.1860 C   0  0  0  0  0  2  0  0  0  0  0  0
  161.5200  207.8570  152.9280 C   0  0  0  0  0  0  0  0  0  0  0  0
  162.3540  209.7420  148.5670 C   0  0  0  0  0  2  0  0  0  0  0  0
  161.3520  210.3120  152.2140 C   0  0  0  0  0  2  0  0  0  0  0  0
  160.6170  206.1720  150.3070 C   0  0  0  0  0  2  0  0  0  0  0  0
  161.1750  206.3930  152.8100 C   0  0  0  0  0  2  0  0  0  0  0  0
  160.2670  210.4630  154.1620 O   0  0  0  0  0  0  0  0  0  0  0  0
  159.7380  210.7880  154.3880 N   0  0  0  0  0  2  0  0  0  0  0  0
  160.3850  211.0630  153.0730 C   0  0  0  0  0  1  0  0  0  0  0  0
  158.4830  211.6320  154.8810 C   0  0  1  0  0  3  0  0  0  0  0  0
  156.5320  211.4060  156.2380 O   0  0  0  0  0  0  0  0  0  0  0  0
  155.2090  210.0360  154.9750 O   0  0  0  0  0  1  0  0  0  0  0  0
  157.4200  210.6900  155.4140 C   0  0  1  0  0  3  0  0  0  0  0  0
  156.0880  211.1170  154.9340 C   0  0  2  0  0  3  0  0  0  0  0  0
  158.8930  212.6040  155.9780 C   0  0  0  0  0  2  0  0  0  0  0  0
  159.0470  214.0060  155.4160 C   0  0  0  0  0  1  0  0  0  0  0  0
  160.4400  211.8520  150.3000 C   0  0  2  0  0  3  0  0  0  0  0  0
  162.1100  213.0980  148.7870 C   0  0  0  0  0  2  0  0  0  0  0  0
  160.7300  212.6250  148.9830 C   0  0  2  0  0  0  0  0  0  0  0  0
  160.9160  214.4520  149.1810 S   0  0  0  0  0  0  0  0  0  0  0  0
  160.7070  212.2530  146.4100 C   0  0  0  0  0  2  0  0  0  0  0  0
  159.9180  212.2370  147.7330 C   0  0  0  0  0  3  0  0  0  0  0  0
  157.7600  212.6460  146.4450 C   0  0  0  0  0  2  0  0  0  0  0  0
  158.5540  212.9400  147.7090 C   0  0  0  0  0  2  0  0  0  0  0  0
  159.3840  213.4740  144.6900 C   0  0  0  0  0  2  0  0  0  0  0  0
  158.0560  213.7140  145.4000 C   0  0  0  0  0  2  0  0  0  0  0  0
  160.5730  213.5590  145.6380 C   0  0  0  0  0  2  0  0  0  0  0  0
  159.9250  212.7280  151.4410 C   0  0  0  0  0  2  0  0  0  0  0  0
  158.4400  212.9940  151.2730 C   0  0  0  0  0  1  0  0  0  0  0  0
  1 14  1  0  0  0  0
  2  5  2  0  0  0  0
  2  4  1  0  0  0  0
  3  6  1  6  0  0  0
  3 13  1  0  0  0  0
  3  5  1  0  0  0  0
  4 25  1  6  0  0  0
  4 12  1  0  0  0  0
  5  7  1  0  0  0  0
  7 12  1  1  0  0  0
  7 10  1  0  0  0  0
  9  6  1  0  0  0  0
  9 11  1  0  0  0  0
 10  8  2  0  0  0  0
 11  2  1  0  0  0  0
 13  1  1  0  0  0  0
 14 10  1  0  0  0  0
 15 16  1  0  0  0  0
 16 18  1  0  0  0  0
 17 15  1  0  0  0  0
 18 23  1  1  0  0  0
 21 18  1  6  0  0  0
 21 19  1  0  0  0  0
 22 20  1  1  0  0  0
 22 21  1  0  0  0  0
 22 19  1  0  0  0  0
 24 23  1  0  0  0  0
 25 36  1  1  0  0  0
 26 27  1  0  0  0  0
 26 28  1  0  0  0  0
 27 28  1  0  0  0  0
 27 25  1  1  0  0  0
 29 30  1  0  0  0  0
 30 27  1  0  0  0  0
 31 32  1  0  0  0  0
 32 30  1  0  0  0  0
 33 34  1  0  0  0  0
 33 35  1  0  0  0  0
 34 31  1  0  0  0  0
 35 29  1  0  0  0  0
 37 36  1  0  0  0  0
M  END
>  <MODEL>
5

>  <REMARK>
 VINA RESULT:      -3.6      1.581      2.330
  Name = 
  8 active torsions:
  status: ('A' for Active; 'I' for Inactive)
    1  A    between atoms: C_6  and  C_31
    2  A    between atoms: C_7  and  C_14
    3  A    between atoms: C_10  and  C_14
    4  A    between atoms: C_11  and  C_26
    5  A    between atoms: C_14  and  C_31
    6  A    between atoms: C_17  and  C_26
    7  A    between atoms: C_26  and  N_33
    8  A    between atoms: C_29  and  C_36
                            x       y       z     vdW  Elec       q    Type
                         _______ _______ _______ _____ _____    ______ ____

>  <TORSDO>
F 8

$$$$
=
 OpenBabel11062409033D

 37 41  0  0  1  0  0  0  0  0999 V2000
  159.7380  210.4370  154.3500 C   0  0  0  0  0  2  0  0  0  0  0  0
  161.3730  207.0240  152.2170 C   0  0  0  0  0  0  0  0  0  0  0  0
  160.6270  207.9920  154.3970 C   0  0  2  0  0  3  0  0  0  0  0  0
  161.9140  207.4060  150.8780 C   0  0  2  0  0  3  0  0  0  0  0  0
  161.0000  208.0840  152.9300 C   0  0  0  0  0  0  0  0  0  0  0  0
  160.2010  206.5730  154.7800 C   0  0  0  0  0  2  0  0  0  0  0  0
  161.3040  209.3610  152.2140 C   0  0  1  0  0  3  0  0  0  0  0  0
  163.1120  210.7110  152.9670 O   0  0  0  0  0  0  0  0  0  0  0  0
  161.2050  205.5570  154.2420 C   0  0  0  0  0  2  0  0  0  0  0  0
  161.9550  210.3590  153.1430 C   0  0  0  0  0  0  0  0  0  0  0  0
  161.2430  205.6080  152.7130 C   0  0  0  0  0  2  0  0  0  0  0  0
  162.1830  208.9160  151.0390 C   0  0  0  0  0  2  0  0  0  0  0  0
  159.5440  208.9890  154.8260 C   0  0  0  0  0  2  0  0  0  0  0  0
  161.1990  210.8980  154.3320 C   0  0  0  0  0  2  0  0  0  0  0  0
  162.3910  210.8780  149.9880 O   0  0  0  0  0  0  0  0  0  0  0  0
  162.1210  211.1640  149.4580 N   0  0  0  0  0  2  0  0  0  0  0  0
  161.9570  209.7230  149.7990 C   0  0  0  0  0  1  0  0  0  0  0  0
  161.4660  211.7810  148.1460 C   0  0  1  0  0  3  0  0  0  0  0  0
  160.3910  213.8110  147.4960 O   0  0  0  0  0  0  0  0  0  0  0  0
  158.2420  213.4770  148.1960 O   0  0  0  0  0  1  0  0  0  0  0  0
  160.4830  212.8680  148.5360 C   0  0  1  0  0  3  0  0  0  0  0  0
  159.3450  212.8740  147.5920 C   0  0  2  0  0  3  0  0  0  0  0  0
  162.5380  212.3700  147.2410 C   0  0  0  0  0  2  0  0  0  0  0  0
  163.9060  212.2430  147.8860 C   0  0  0  0  0  1  0  0  0  0  0  0
  160.9850  207.0100  149.6980 C   0  0  2  0  0  3  0  0  0  0  0  0
  160.1390  204.7190  150.5160 C   0  0  0  0  0  2  0  0  0  0  0  0
  160.8010  205.4860  149.4490 C   0  0  2  0  0  0  0  0  0  0  0  0
  161.9560  204.4000  150.3960 S   0  0  0  0  0  0  0  0  0  0  0  0
  161.5830  203.9410  147.5090 C   0  0  0  0  0  2  0  0  0  0  0  0
  160.5960  205.0200  147.9950 C   0  0  0  0  0  3  0  0  0  0  0  0
  160.2640  205.7910  145.5910 C   0  0  0  0  0  2  0  0  0  0  0  0
  160.3840  206.2090  147.0480 C   0  0  0  0  0  2  0  0  0  0  0  0
  162.4760  204.6000  145.2800 C   0  0  0  0  0  2  0  0  0  0  0  0
  161.6390  205.8280  144.9370 C   0  0  0  0  0  2  0  0  0  0  0  0
  162.7860  204.5070  146.7680 C   0  0  0  0  0  2  0  0  0  0  0  0
  161.3540  207.8090  148.4500 C   0  0  0  0  0  2  0  0  0  0  0  0
  162.8260  207.6290  148.1240 C   0  0  0  0  0  1  0  0  0  0  0  0
  1 13  1  0  0  0  0
  2 11  1  0  0  0  0
  2  5  2  0  0  0  0
  3  6  1  6  0  0  0
  3 13  1  0  0  0  0
  4 25  1  6  0  0  0
  4 12  1  0  0  0  0
  4  2  1  0  0  0  0
  5  3  1  0  0  0  0
  7 12  1  6  0  0  0
  7  5  1  0  0  0  0
  7 10  1  0  0  0  0
  8 10  2  0  0  0  0
  9  6  1  0  0  0  0
 10 14  1  0  0  0  0
 11  9  1  0  0  0  0
 14  1  1  0  0  0  0
 16 15  1  0  0  0  0
 17 15  1  0  0  0  0
 18 23  1  6  0  0  0
 18 16  1  0  0  0  0
 19 22  1  0  0  0  0
 19 21  1  0  0  0  0
 21 18  1  6  0  0  0
 22 20  1  1  0  0  0
 22 21  1  0  0  0  0
 23 24  1  0  0  0  0
 25 36  1  6  0  0  0
 27 25  1  1  0  0  0
 27 28  1  0  0  0  0
 27 26  1  0  0  0  0
 28 26  1  0  0  0  0
 29 30  1  0  0  0  0
 30 27  1  0  0  0  0
 31 32  1  0  0  0  0
 32 30  1  0  0  0  0
 33 35  1  0  0  0  0
 34 33  1  0  0  0  0
 34 31  1  0  0  0  0
 35 29  1  0  0  0  0
 37 36  1  0  0  0  0
M  END
>  <MODEL>
6

>  <REMARK>
 VINA RESULT:      -3.6      4.014      6.989
  Name = 
  8 active torsions:
  status: ('A' for Active; 'I' for Inactive)
    1  A    between atoms: C_6  and  C_31
    2  A    between atoms: C_7  and  C_14
    3  A    between atoms: C_10  and  C_14
    4  A    between atoms: C_11  and  C_26
    5  A    between atoms: C_14  and  C_31
    6  A    between atoms: C_17  and  C_26
    7  A    between atoms: C_26  and  N_33
    8  A    between atoms: C_29  and  C_36
                            x       y       z     vdW  Elec       q    Type
                         _______ _______ _______ _____ _____    ______ ____

>  <TORSDO>
F 8

$$$$
=
 OpenBabel11062409033D

 37 41  0  0  1  0  0  0  0  0999 V2000
  158.1390  211.0800  154.9970 C   0  0  0  0  0  2  0  0  0  0  0  0
  160.8260  207.8680  153.8440 C   0  0  0  0  0  0  0  0  0  0  0  0
  159.5050  208.9670  155.6590 C   0  0  2  0  0  3  0  0  0  0  0  0
  161.5080  208.1460  152.5460 C   0  0  2  0  0  3  0  0  0  0  0  0
  160.1110  208.9070  154.2710 C   0  0  0  0  0  0  0  0  0  0  0  0
  159.3290  207.5690  156.2570 C   0  0  0  0  0  2  0  0  0  0  0  0
  160.2610  210.0840  153.3620 C   0  0  1  0  0  3  0  0  0  0  0  0
  161.5700  211.9390  154.0730 O   0  0  0  0  0  0  0  0  0  0  0  0
  160.6080  206.7550  156.0800 C   0  0  0  0  0  2  0  0  0  0  0  0
  160.5040  211.3490  154.1530 C   0  0  0  0  0  0  0  0  0  0  0  0
  160.9130  206.5630  154.5930 C   0  0  0  0  0  2  0  0  0  0  0  0
  161.4150  209.6810  152.4350 C   0  0  0  0  0  2  0  0  0  0  0  0
  158.1740  209.7270  155.7230 C   0  0  0  0  0  2  0  0  0  0  0  0
  159.4450  211.8750  155.0910 C   0  0  0  0  0  2  0  0  0  0  0  0
  162.1980  210.9670  150.7830 O   0  0  0  0  0  0  0  0  0  0  0  0
  161.9550  211.2280  150.2270 N   0  0  0  0  0  2  0  0  0  0  0  0
  161.2510  210.1950  151.0390 C   0  0  0  0  0  1  0  0  0  0  0  0
  161.3220  211.7900  148.8800 C   0  0  1  0  0  3  0  0  0  0  0  0
  160.4030  213.7530  147.8800 O   0  0  0  0  0  0  0  0  0  0  0  0
  158.8640  214.4220  149.4310 O   0  0  0  0  0  1  0  0  0  0  0  0
  160.8490  213.2140  149.1010 C   0  0  1  0  0  3  0  0  0  0  0  0
  159.4100  213.3180  148.7790 C   0  0  2  0  0  3  0  0  0  0  0  0
  162.3500  211.7680  147.7580 C   0  0  0  0  0  2  0  0  0  0  0  0
  163.3060  212.9400  147.8890 C   0  0  0  0  0  1  0  0  0  0  0  0
  160.9160  207.3480  151.3520 C   0  0  2  0  0  3  0  0  0  0  0  0
  161.4490  205.1700  152.6170 C   0  0  0  0  0  2  0  0  0  0  0  0
  161.2310  205.8260  151.3180 C   0  0  2  0  0  0  0  0  0  0  0  0
  162.9980  205.3920  151.6330 S   0  0  0  0  0  0  0  0  0  0  0  0
  159.9470  203.6700  150.6340 C   0  0  0  0  0  2  0  0  0  0  0  0
  160.6010  204.9910  150.1870 C   0  0  0  0  0  3  0  0  0  0  0  0
  160.9800  204.0110  147.8670 C   0  0  0  0  0  2  0  0  0  0  0  0
  161.5330  204.8990  148.9710 C   0  0  0  0  0  2  0  0  0  0  0  0
  160.7090  201.8360  149.1330 C   0  0  0  0  0  2  0  0  0  0  0  0
  161.4880  202.5880  148.0580 C   0  0  0  0  0  2  0  0  0  0  0  0
  160.8680  202.4640  150.5110 C   0  0  0  0  0  2  0  0  0  0  0  0
  161.2050  208.0760  150.0400 C   0  0  0  0  0  2  0  0  0  0  0  0
  162.6150  207.7720  149.5670 C   0  0  0  0  0  1  0  0  0  0  0  0
  1 14  1  0  0  0  0
  1 13  1  0  0  0  0
  2  5  2  0  0  0  0
  2 11  1  0  0  0  0
  3 13  1  6  0  0  0
  3  6  1  0  0  0  0
  4 25  1  6  0  0  0
  4  2  1  0  0  0  0
  5  3  1  0  0  0  0
  7 12  1  6  0  0  0
  7 10  1  0  0  0  0
  7  5  1  0  0  0  0
  8 10  2  0  0  0  0
  9  6  1  0  0  0  0
 10 14  1  0  0  0  0
 11  9  1  0  0  0  0
 12  4  1  0  0  0  0
 15 17  1  0  0  0  0
 16 15  1  0  0  0  0
 18 23  1  6  0  0  0
 18 16  1  0  0  0  0
 19 22  1  0  0  0  0
 19 21  1  0  0  0  0
 21 18  1  6  0  0  0
 22 21  1  0  0  0  0
 22 20  1  1  0  0  0
 23 24  1  0  0  0  0
 25 36  1  6  0  0  0
 27 25  1  1  0  0  0
 27 28  1  0  0  0  0
 27 26  1  0  0  0  0
 28 26  1  0  0  0  0
 30 29  1  0  0  0  0
 30 27  1  0  0  0  0
 31 34  1  0  0  0  0
 31 32  1  0  0  0  0
 32 30  1  0  0  0  0
 33 35  1  0  0  0  0
 34 33  1  0  0  0  0
 35 29  1  0  0  0  0
 37 36  1  0  0  0  0
M  END
>  <MODEL>
7

>  <REMARK>
 VINA RESULT:      -3.5      3.589      7.257
  Name = 
  8 active torsions:
  status: ('A' for Active; 'I' for Inactive)
    1  A    between atoms: C_6  and  C_31
    2  A    between atoms: C_7  and  C_14
    3  A    between atoms: C_10  and  C_14
    4  A    between atoms: C_11  and  C_26
    5  A    between atoms: C_14  and  C_31
    6  A    between atoms: C_17  and  C_26
    7  A    between atoms: C_26  and  N_33
    8  A    between atoms: C_29  and  C_36
                            x       y       z     vdW  Elec       q    Type
                         _______ _______ _______ _____ _____    ______ ____

>  <TORSDO>
F 8

$$$$
=
 OpenBabel11062409033D

 37 41  0  0  1  0  0  0  0  0999 V2000
  163.0850  204.7040  146.2520 C   0  0  0  0  0  2  0  0  0  0  0  0
  160.8280  205.0380  149.9490 C   0  0  0  0  0  0  0  0  0  0  0  0
  161.4980  203.6170  148.0050 C   0  0  2  0  0  3  0  0  0  0  0  0
  160.6360  206.4590  150.3620 C   0  0  2  0  0  3  0  0  0  0  0  0
  161.3950  204.9340  148.7490 C   0  0  0  0  0  0  0  0  0  0  0  0
  161.4110  202.4230  148.9590 C   0  0  0  0  0  2  0  0  0  0  0  0
  161.6050  206.2760  148.1240 C   0  0  1  0  0  3  0  0  0  0  0  0
  160.2020  206.9500  146.3260 O   0  0  0  0  0  0  0  0  0  0  0  0
  160.2370  202.6020  149.9190 C   0  0  0  0  0  2  0  0  0  0  0  0
  161.1560  206.2760  146.6810 C   0  0  0  0  0  0  0  0  0  0  0  0
  160.4460  203.8450  150.7860 C   0  0  0  0  0  2  0  0  0  0  0  0
  160.8180  207.2260  149.0360 C   0  0  0  0  0  2  0  0  0  0  0  0
  162.7570  203.4910  147.1370 C   0  0  0  0  0  2  0  0  0  0  0  0
  161.8540  205.4030  145.6680 C   0  0  0  0  0  2  0  0  0  0  0  0
  161.1430  209.2720  148.1970 O   0  0  0  0  0  0  0  0  0  0  0  0
  161.5770  209.7610  148.2910 N   0  0  0  0  0  2  0  0  0  0  0  0
  161.4620  208.5690  149.1780 C   0  0  0  0  0  1  0  0  0  0  0  0
  162.6260  210.9180  148.5960 C   0  0  1  0  0  3  0  0  0  0  0  0
  163.3330  213.0880  147.8970 O   0  0  0  0  0  0  0  0  0  0  0  0
  163.4100  212.8720  145.6230 O   0  0  0  0  0  1  0  0  0  0  0  0
  162.4430  212.0410  147.5940 C   0  0  1  0  0  3  0  0  0  0  0  0
  163.6950  212.2400  146.8320 C   0  0  2  0  0  3  0  0  0  0  0  0
  162.4270  211.4600  150.0040 C   0  0  0  0  0  2  0  0  0  0  0  0
  161.1900  212.3370  150.0670 C   0  0  0  0  0  1  0  0  0  0  0  0
  161.5660  206.8980  151.5260 C   0  0  2  0  0  3  0  0  0  0  0  0
  160.6880  209.3160  151.6090 C   0  0  0  0  0  2  0  0  0  0  0  0
  161.0920  208.1190  152.3620 C   0  0  2  0  0  0  0  0  0  0  0  0
  162.3100  209.5030  152.4740 S   0  0  0  0  0  0  0  0  0  0  0  0
  159.7930  209.0750  154.4030 C   0  0  0  0  0  2  0  0  0  0  0  0
  160.3820  207.8370  153.7000 C   0  0  0  0  0  3  0  0  0  0  0  0
  160.5750  206.6600  155.9500 C   0  0  0  0  0  2  0  0  0  0  0  0
  161.2070  206.8930  154.5860 C   0  0  0  0  0  2  0  0  0  0  0  0
  160.4550  209.0400  156.8030 C   0  0  0  0  0  2  0  0  0  0  0  0
  161.1240  207.6760  156.9430 C   0  0  0  0  0  2  0  0  0  0  0  0
  160.7210  209.6800  155.4470 C   0  0  0  0  0  2  0  0  0  0  0  0
  163.0090  206.9970  151.0350 C   0  0  0  0  0  2  0  0  0  0  0  0
  163.8260  205.8280  151.5560 C   0  0  0  0  0  1  0  0  0  0  0  0
  1 13  1  0  0  0  0
  2  4  1  0  0  0  0
  2 11  1  0  0  0  0
  3 13  1  1  0  0  0
  3  5  1  0  0  0  0
  3  6  1  0  0  0  0
  4 25  1  1  0  0  0
  5  2  2  0  0  0  0
  6  9  1  0  0  0  0
  7  5  1  0  0  0  0
  7 12  1  1  0  0  0
  8 10  2  0  0  0  0
  9 11  1  0  0  0  0
 10  7  1  0  0  0  0
 12  4  1  0  0  0  0
 14  1  1  0  0  0  0
 14 10  1  0  0  0  0
 15 16  1  0  0  0  0
 15 17  1  0  0  0  0
 16 18  1  0  0  0  0
 18 23  1  1  0  0  0
 21 19  1  0  0  0  0
 21 18  1  1  0  0  0
 22 20  1  6  0  0  0
 22 21  1  0  0  0  0
 22 19  1  0  0  0  0
 23 24  1  0  0  0  0
 25 36  1  6  0  0  0
 26 27  1  0  0  0  0
 26 28  1  0  0  0  0
 27 25  1  6  0  0  0
 27 28  1  0  0  0  0
 27 30  1  0  0  0  0
 29 35  1  0  0  0  0
 30 29  1  0  0  0  0
 30 32  1  0  0  0  0
 31 34  1  0  0  0  0
 32 31  1  0  0  0  0
 33 34  1  0  0  0  0
 35 33  1  0  0  0  0
 36 37  1  0  0  0  0
M  END
>  <MODEL>
8

>  <REMARK>
 VINA RESULT:      -3.3      4.483      8.382
  Name = 
  8 active torsions:
  status: ('A' for Active; 'I' for Inactive)
    1  A    between atoms: C_6  and  C_31
    2  A    between atoms: C_7  and  C_14
    3  A    between atoms: C_10  and  C_14
    4  A    between atoms: C_11  and  C_26
    5  A    between atoms: C_14  and  C_31
    6  A    between atoms: C_17  and  C_26
    7  A    between atoms: C_26  and  N_33
    8  A    between atoms: C_29  and  C_36
                            x       y       z     vdW  Elec       q    Type
                         _______ _______ _______ _____ _____    ______ ____

>  <TORSDO>
F 8

$$$$
=
 OpenBabel11062409033D

 37 41  0  0  1  0  0  0  0  0999 V2000
  160.2730  204.7170  151.3680 C   0  0  0  0  0  2  0  0  0  0  0  0
  161.6720  208.6230  150.0810 C   0  0  0  0  0  0  0  0  0  0  0  0
  161.4750  206.1810  149.5840 C   0  0  2  0  0  3  0  0  0  0  0  0
  161.7310  209.5980  151.2100 C   0  0  2  0  0  3  0  0  0  0  0  0
  161.3790  207.3910  150.4930 C   0  0  0  0  0  0  0  0  0  0  0  0
  161.3880  206.5780  148.1090 C   0  0  0  0  0  2  0  0  0  0  0  0
  161.2710  207.3240  151.9830 C   0  0  1  0  0  3  0  0  0  0  0  0
  163.0100  206.2770  153.2240 O   0  0  0  0  0  0  0  0  0  0  0  0
  162.3230  207.7510  147.8230 C   0  0  0  0  0  2  0  0  0  0  0  0
  162.0200  206.1280  152.5240 C   0  0  0  0  0  0  0  0  0  0  0  0
  161.8980  208.9770  148.6340 C   0  0  0  0  0  2  0  0  0  0  0  0
  161.8170  208.6800  152.4460 C   0  0  0  0  0  2  0  0  0  0  0  0
  160.4370  205.0940  149.8880 C   0  0  0  0  0  2  0  0  0  0  0  0
  161.5810  204.7290  152.1650 C   0  0  0  0  0  2  0  0  0  0  0  0
  161.9610  209.3570  154.5720 O   0  0  0  0  0  0  0  0  0  0  0  0
  161.5390  209.4500  155.0710 N   0  0  0  0  0  2  0  0  0  0  0  0
  161.1210  209.2070  153.6610 C   0  0  0  0  0  1  0  0  0  0  0  0
  160.4660  209.6960  156.2190 C   0  0  1  0  0  3  0  0  0  0  0  0
  159.0500  211.3610  157.1800 O   0  0  0  0  0  0  0  0  0  0  0  0
  160.2900  213.2640  156.9340 O   0  0  0  0  0  1  0  0  0  0  0  0
  159.9130  211.1040  156.0990 C   0  0  1  0  0  3  0  0  0  0  0  0
  160.3440  211.9100  157.2610 C   0  0  2  0  0  3  0  0  0  0  0  0
  159.3260  208.6940  156.1070 C   0  0  0  0  0  2  0  0  0  0  0  0
  159.7920  207.3100  156.5200 C   0  0  0  0  0  1  0  0  0  0  0  0
  160.5600  210.6190  151.2100 C   0  0  2  0  0  3  0  0  0  0  0  0
  161.2090  213.1070  151.0820 C   0  0  0  0  0  2  0  0  0  0  0  0
  160.7680  211.9030  150.3600 C   0  0  2  0  0  0  0  0  0  0  0  0
  159.4430  213.1770  150.5420 S   0  0  0  0  0  0  0  0  0  0  0  0
  162.6740  212.1950  148.6150 C   0  0  0  0  0  2  0  0  0  0  0  0
  161.2340  211.7280  148.9020 C   0  0  0  0  0  3  0  0  0  0  0  0
  160.6250  212.1240  146.4620 C   0  0  0  0  0  2  0  0  0  0  0  0
  160.1650  212.2040  147.9090 C   0  0  0  0  0  2  0  0  0  0  0  0
  162.6780  213.6000  146.5600 C   0  0  0  0  0  2  0  0  0  0  0  0
  161.2470  213.4530  146.0530 C   0  0  0  0  0  2  0  0  0  0  0  0
  162.7560  213.6180  148.0810 C   0  0  0  0  0  2  0  0  0  0  0  0
  160.0950  210.8830  152.6410 C   0  0  0  0  0  2  0  0  0  0  0  0
  158.6010  211.1440  152.6710 C   0  0  0  0  0  1  0  0  0  0  0  0
  1 14  1  0  0  0  0
  2  5  2  0  0  0  0
  2  4  1  0  0  0  0
  3  6  1  6  0  0  0
  3 13  1  0  0  0  0
  3  5  1  0  0  0  0
  4 25  1  1  0  0  0
  4 12  1  0  0  0  0
  5  7  1  0  0  0  0
  7 12  1  1  0  0  0
  7 10  1  0  0  0  0
  9  6  1  0  0  0  0
  9 11  1  0  0  0  0
 10  8  2  0  0  0  0
 11  2  1  0  0  0  0
 13  1  1  0  0  0  0
 14 10  1  0  0  0  0
 15 16  1  0  0  0  0
 16 18  1  0  0  0  0
 17 15  1  0  0  0  0
 18 23  1  6  0  0  0
 19 22  1  0  0  0  0
 21 18  1  1  0  0  0
 21 19  1  0  0  0  0
 21 22  1  0  0  0  0
 22 20  1  6  0  0  0
 23 24  1  0  0  0  0
 25 36  1  1  0  0  0
 27 28  1  0  0  0  0
 27 26  1  0  0  0  0
 27 25  1  1  0  0  0
 28 26  1  0  0  0  0
 29 30  1  0  0  0  0
 30 27  1  0  0  0  0
 31 32  1  0  0  0  0
 32 30  1  0  0  0  0
 33 35  1  0  0  0  0
 34 31  1  0  0  0  0
 34 33  1  0  0  0  0
 35 29  1  0  0  0  0
 36 37  1  0  0  0  0
M  END
>  <MODEL>
9

>  <REMARK>
 VINA RESULT:      -3.1      1.894      3.252
  Name = 
  8 active torsions:
  status: ('A' for Active; 'I' for Inactive)
    1  A    between atoms: C_6  and  C_31
    2  A    between atoms: C_7  and  C_14
    3  A    between atoms: C_10  and  C_14
    4  A    between atoms: C_11  and  C_26
    5  A    between atoms: C_14  and  C_31
    6  A    between atoms: C_17  and  C_26
    7  A    between atoms: C_26  and  N_33
    8  A    between atoms: C_29  and  C_36
                            x       y       z     vdW  Elec       q    Type
                         _______ _______ _______ _____ _____    ______ ____

>  <TORSDO>
F 8

$$$$
