=
 OpenBabel11062408163D

 32 37  0  0  1  0  0  0  0  0999 V2000
  160.5170  210.5000  139.8030 C   0  0  1  0  0  3  0  0  0  0  0  0
  160.1650  211.6920  138.8880 C   0  0  1  0  0  3  0  0  0  0  0  0
  159.4240  208.9270  138.0320 C   0  0  2  0  0  3  0  0  0  0  0  0
  157.0340  214.1320  139.8240 C   0  0  0  0  0  2  0  0  0  0  0  0
  159.0200  211.5040  137.8800 C   0  0  1  0  0  3  0  0  0  0  0  0
  155.6950  212.0050  139.5800 C   0  0  0  0  0  2  0  0  0  0  0  0
  156.8420  211.4930  138.7450 C   0  0  0  0  0  0  0  0  0  0  0  0
  158.4560  210.0850  137.7720 C   0  0  2  0  0  3  0  0  0  0  0  0
  157.1770  210.0490  138.6030 C   0  0  0  0  0  2  0  0  0  0  0  0
  160.4710  209.1270  139.1080 C   0  0  1  0  0  3  0  0  0  0  0  0
  159.3870  214.1970  138.8410 C   0  0  0  0  0  2  0  0  0  0  0  0
  160.3890  208.8710  137.0110 O   0  0  0  0  0  0  0  0  0  0  0  0
  160.4050  213.1600  139.4020 C   0  0  1  0  0  0  0  0  0  0  0  0
  157.8520  212.2680  138.3590 C   0  0  0  0  0  0  0  0  0  0  0  0
  161.4270  209.0440  137.9440 C   0  0  0  0  0  2  0  0  0  0  0  0
  155.6390  213.5390  139.6100 C   0  0  0  0  0  2  0  0  0  0  0  0
  157.9340  213.7360  138.6540 C   0  0  1  0  0  3  0  0  0  0  0  0
  161.5120  213.8750  143.0760 C   0  0  0  0  0  3  0  0  0  0  0  0
  159.3080  212.9080  143.0780 C   0  0  0  0  0  3  0  0  0  0  0  0
  160.4420  213.3300  140.9400 C   0  0  0  0  0  0  0  0  0  0  0  0
  160.3910  213.4250  143.7800 C   0  0  0  0  0  0  0  0  0  0  0  0
  159.3400  212.8550  141.6850 C   0  0  0  0  0  3  0  0  0  0  0  0
  161.5570  213.8240  141.6800 C   0  0  0  0  0  0  0  0  0  0  0  0
  162.8070  214.3290  141.0580 C   0  0  0  0  0  1  0  0  0  0  0  0
  161.6960  213.1850  145.8830 C   0  0  0  0  0  1  0  0  0  0  0  0
  159.2990  212.5130  145.8190 C   0  0  0  0  0  1  0  0  0  0  0  0
  160.3370  213.4790  145.2750 C   0  0  0  0  0  3  0  0  0  0  0  0
  161.7810  210.6870  140.3800 O   0  0  0  0  0  0  0  0  0  0  0  0
  162.3680  209.4200  140.4090 C   0  0  0  0  0  1  0  0  0  0  0  0
  161.7820  213.5530  138.8190 C   0  0  0  0  0  2  0  0  0  0  0  0
  162.1910  212.7460  137.5910 C   0  0  0  0  0  2  0  0  0  0  0  0
  163.4130  212.1220  137.8320 O   0  0  0  0  0  1  0  0  0  0  0  0
  1 28  1  6  0  0  0
  2 13  1  0  0  0  0
  2  1  1  0  0  0  0
  3 10  1  0  0  0  0
  5 14  1  0  0  0  0
  5  2  1  0  0  0  0
  6 16  1  0  0  0  0
  7  6  1  0  0  0  0
  8  5  1  0  0  0  0
  8  3  1  0  0  0  0
  8  9  1  0  0  0  0
  9  7  1  0  0  0  0
 10  1  1  0  0  0  0
 11 13  1  0  0  0  0
 12 15  1  0  0  0  0
 12  3  1  0  0  0  0
 13 20  1  0  0  0  0
 14 17  1  0  0  0  0
 14  7  2  0  0  0  0
 15 10  1  0  0  0  0
 16  4  1  0  0  0  0
 17 11  1  0  0  0  0
 17  4  1  0  0  0  0
 18 21  1  0  0  0  0
 19 21  2  0  0  0  0
 20 23  1  0  0  0  0
 20 22  2  0  0  0  0
 21 27  1  0  0  0  0
 22 19  1  0  0  0  0
 23 18  2  0  0  0  0
 24 23  1  0  0  0  0
 27 26  1  0  0  0  0
 27 25  1  0  0  0  0
 28 29  1  0  0  0  0
 30 13  1  0  0  0  0
 31 32  1  0  0  0  0
 31 30  1  0  0  0  0
M  END
>  <MODEL>
1

>  <REMARK>
 VINA RESULT:      -4.1      0.000      0.000
  Name = 
  5 active torsions:
  status: ('A' for Active; 'I' for Inactive)
    1  A    between atoms: C_1  and  C_4
    2  A    between atoms: C_1  and  C_27
    3  A    between atoms: C_2  and  O_14
    4  A    between atoms: C_16  and  C_27
    5  A    between atoms: C_19  and  C_26
                            x       y       z     vdW  Elec       q    Type
                         _______ _______ _______ _____ _____    ______ ____

>  <TORSDO>
F 5

$$$$
=
 OpenBabel11062408163D

 32 37  0  0  1  0  0  0  0  0999 V2000
  159.4500  209.1160  155.3830 C   0  0  1  0  0  3  0  0  0  0  0  0
  160.9280  209.3920  155.0350 C   0  0  1  0  0  3  0  0  0  0  0  0
  160.0370  206.5740  155.4780 C   0  0  2  0  0  3  0  0  0  0  0  0
  161.9890  210.3100  151.2060 C   0  0  0  0  0  2  0  0  0  0  0  0
  161.7430  208.2440  154.4150 C   0  0  1  0  0  3  0  0  0  0  0  0
  161.0580  208.0130  150.7180 C   0  0  0  0  0  2  0  0  0  0  0  0
  161.2890  207.7150  152.1780 C   0  0  0  0  0  0  0  0  0  0  0  0
  161.0410  206.8850  154.3650 C   0  0  2  0  0  3  0  0  0  0  0  0
  160.5020  206.7140  152.9480 C   0  0  0  0  0  2  0  0  0  0  0  0
  159.1860  207.7220  155.9840 C   0  0  1  0  0  3  0  0  0  0  0  0
  162.5490  210.8970  153.6240 C   0  0  0  0  0  2  0  0  0  0  0  0
  160.7070  206.4440  156.7070 O   0  0  0  0  0  0  0  0  0  0  0  0
  161.3710  210.8500  154.6420 C   0  0  1  0  0  0  0  0  0  0  0  0
  161.9480  208.5430  152.9850 C   0  0  0  0  0  0  0  0  0  0  0  0
  159.9560  207.4960  157.2610 C   0  0  0  0  0  2  0  0  0  0  0  0
  161.9580  209.1490  150.2080 C   0  0  0  0  0  2  0  0  0  0  0  0
  162.5820  209.8220  152.5270 C   0  0  1  0  0  3  0  0  0  0  0  0
  158.5970  213.5680  154.2540 C   0  0  0  0  0  3  0  0  0  0  0  0
  158.6240  212.1660  152.2980 C   0  0  0  0  0  3  0  0  0  0  0  0
  160.2480  211.7640  154.0970 C   0  0  0  0  0  0  0  0  0  0  0  0
  158.0810  213.2390  152.9970 C   0  0  0  0  0  0  0  0  0  0  0  0
  159.6810  211.4390  152.8440 C   0  0  0  0  0  3  0  0  0  0  0  0
  159.6550  212.8450  154.8130 C   0  0  0  0  0  0  0  0  0  0  0  0
  160.1040  213.2960  156.1550 C   0  0  0  0  0  1  0  0  0  0  0  0
  155.6420  213.7100  153.1010 C   0  0  0  0  0  1  0  0  0  0  0  0
  156.8210  213.7180  150.9080 C   0  0  0  0  0  1  0  0  0  0  0  0
  156.9500  214.0100  152.3920 C   0  0  0  0  0  3  0  0  0  0  0  0
  158.9650  210.0980  156.2570 O   0  0  0  0  0  0  0  0  0  0  0  0
  157.6490  210.3370  155.8550 C   0  0  0  0  0  1  0  0  0  0  0  0
  161.9170  211.4540  155.9570 C   0  0  0  0  0  2  0  0  0  0  0  0
  162.7360  210.4800  156.7970 C   0  0  0  0  0  2  0  0  0  0  0  0
  163.9630  211.0580  157.1140 O   0  0  0  0  0  1  0  0  0  0  0  0
  1 10  1  0  0  0  0
  1 28  1  1  0  0  0
  2  1  1  0  0  0  0
  3 10  1  0  0  0  0
  3 12  1  0  0  0  0
  4 17  1  0  0  0  0
  5  2  1  0  0  0  0
  6  7  1  0  0  0  0
  7  9  1  0  0  0  0
  7 14  2  0  0  0  0
  8  5  1  0  0  0  0
  8  3  1  0  0  0  0
  9  8  1  0  0  0  0
 10 15  1  0  0  0  0
 11 13  1  0  0  0  0
 12 15  1  0  0  0  0
 13  2  1  0  0  0  0
 13 30  1  0  0  0  0
 14  5  1  0  0  0  0
 16  6  1  0  0  0  0
 16  4  1  0  0  0  0
 17 14  1  0  0  0  0
 17 11  1  0  0  0  0
 18 23  1  0  0  0  0
 19 22  2  0  0  0  0
 19 21  1  0  0  0  0
 20 13  1  0  0  0  0
 20 23  2  0  0  0  0
 21 18  2  0  0  0  0
 22 20  1  0  0  0  0
 23 24  1  0  0  0  0
 26 27  1  0  0  0  0
 27 21  1  0  0  0  0
 27 25  1  0  0  0  0
 29 28  1  0  0  0  0
 30 31  1  0  0  0  0
 31 32  1  0  0  0  0
M  END
>  <MODEL>
2

>  <REMARK>
 VINA RESULT:      -3.3     11.787     14.946
  Name = 
  5 active torsions:
  status: ('A' for Active; 'I' for Inactive)
    1  A    between atoms: C_1  and  C_4
    2  A    between atoms: C_1  and  C_27
    3  A    between atoms: C_2  and  O_14
    4  A    between atoms: C_16  and  C_27
    5  A    between atoms: C_19  and  C_26
                            x       y       z     vdW  Elec       q    Type
                         _______ _______ _______ _____ _____    ______ ____

>  <TORSDO>
F 5

$$$$
