=
 OpenBabel11062409443D

 34 39  0  0  1  0  0  0  0  0999 V2000
  161.4200  207.4790  151.1520 C   0  0  0  0  0  0  0  0  0  0  0  0
  161.8770  211.1290  150.5870 C   0  0  0  0  0  3  0  0  0  0  0  0
  161.4560  209.8890  152.6130 C   0  0  0  0  0  3  0  0  0  0  0  0
  160.9630  204.9340  152.4970 C   0  0  0  0  0  3  0  0  0  0  0  0
  161.3980  206.2060  150.4060 C   0  0  0  0  0  3  0  0  0  0  0  0
  160.9940  206.2520  153.2220 C   0  0  0  0  0  0  0  0  0  0  0  0
  160.8130  207.4600  155.3200 C   0  0  0  0  0  3  0  0  0  0  0  0
  160.7930  206.2590  154.6070 C   0  0  0  0  0  3  0  0  0  0  0  0
  161.1890  205.0230  151.0030 C   0  0  0  0  0  0  0  0  0  0  0  0
  161.2350  208.6790  153.2720 C   0  0  0  0  0  0  0  0  0  0  0  0
  161.2160  207.4660  152.5440 C   0  0  1  0  0  3  0  0  0  0  0  0
  161.0330  208.6680  154.6540 C   0  0  0  0  0  3  0  0  0  0  0  0
  162.0830  211.1750  149.2050 C   0  0  0  0  0  0  0  0  0  0  0  0
  162.0680  209.9820  148.4680 C   0  0  0  0  0  3  0  0  0  0  0  0
  161.6590  209.9100  151.2330 C   0  0  0  0  0  0  0  0  0  0  0  0
  161.8490  208.7580  149.1040 C   0  0  0  0  0  3  0  0  0  0  0  0
  161.6420  208.7040  150.4910 C   0  0  0  0  0  0  0  0  0  0  0  0
  161.1950  201.3440  150.0470 C   0  0  0  0  0  3  0  0  0  0  0  0
  161.1390  203.8490  148.7920 C   0  0  0  0  0  3  0  0  0  0  0  0
  161.1060  200.3350  146.4840 C   0  0  0  0  0  0  0  0  0  0  0  0
  161.1450  200.2570  147.8840 C   0  0  0  0  0  3  0  0  0  0  0  0
  161.1560  201.4220  148.6540 C   0  0  0  0  0  0  0  0  0  0  0  0
  161.0890  202.7630  146.6280 C   0  0  0  0  0  3  0  0  0  0  0  0
  161.1280  202.6840  148.0210 C   0  0  0  0  0  0  0  0  0  0  0  0
  161.0780  201.5930  145.8630 C   0  0  0  0  0  3  0  0  0  0  0  0
  161.1780  203.7790  150.1940 C   0  0  0  0  0  0  0  0  0  0  0  0
  161.2060  202.5150  150.8120 C   0  0  0  0  0  3  0  0  0  0  0  0
  161.0950  199.1030  145.6780 C   0  0  0  0  0  0  0  0  0  0  0  0
  162.1030  198.3480  145.6520 O   0  0  0  0  0  1  0  0  0  0  0  0
  159.9700  198.7610  144.9370 O   0  0  0  0  0  0  0  0  0  0  0  0
  161.4160  213.1310  147.6900 C   0  0  0  0  0  0  0  0  0  0  0  0
  161.8140  214.4520  147.1380 C   0  0  0  0  0  1  0  0  0  0  0  0
  160.3060  212.6360  147.3630 O   0  0  0  0  0  0  0  0  0  0  0  0
  162.3040  212.4480  148.5830 N   0  0  0  0  0  2  0  0  0  0  0  0
  2 15  1  0  0  0  0
  3 10  1  0  0  0  0
  4  6  2  0  0  0  0
  5  9  2  0  0  0  0
  5  1  1  0  0  0  0
  6  8  1  0  0  0  0
  8  7  2  0  0  0  0
  9  4  1  0  0  0  0
 10 12  2  0  0  0  0
 11  1  1  1  0  0  0
 11  6  1  0  0  0  0
 11 10  1  0  0  0  0
 12  7  1  0  0  0  0
 13  2  2  0  0  0  0
 14 16  2  0  0  0  0
 14 13  1  0  0  0  0
 15  3  2  0  0  0  0
 16 17  1  0  0  0  0
 17  1  2  0  0  0  0
 17 15  1  0  0  0  0
 18 27  1  0  0  0  0
 19 26  1  0  0  0  0
 20 21  2  0  0  0  0
 21 22  1  0  0  0  0
 22 18  2  0  0  0  0
 23 24  1  0  0  0  0
 24 22  1  0  0  0  0
 24 19  2  0  0  0  0
 25 20  1  0  0  0  0
 25 23  2  0  0  0  0
 26 27  2  0  0  0  0
 26  9  1  0  0  0  0
 28 20  1  0  0  0  0
 29 28  1  0  0  0  0
 30 28  2  0  0  0  0
 31 34  1  0  0  0  0
 32 31  1  0  0  0  0
 33 31  2  0  0  0  0
 34 13  1  0  0  0  0
M  END
>  <MODEL>
1

>  <REMARK>
 VINA RESULT:     -10.7      0.000      0.000
  Name = 
  3 active torsions:
  status: ('A' for Active; 'I' for Inactive)
    1  A    between atoms: C_7  and  C_11
    2  A    between atoms: C_18  and  C_30
    3  A    between atoms: C_23  and  N_25
                            x       y       z     vdW  Elec       q    Type
                         _______ _______ _______ _____ _____    ______ ____

>  <TORSDO>
F 3

$$$$
=
 OpenBabel11062409443D

 34 39  0  0  1  0  0  0  0  0999 V2000
  161.2980  204.8580  149.6630 C   0  0  0  0  0  0  0  0  0  0  0  0
  161.8530  204.4860  146.0020 C   0  0  0  0  0  3  0  0  0  0  0  0
  161.4650  202.8300  147.7130 C   0  0  0  0  0  3  0  0  0  0  0  0
  160.8060  204.1930  152.4580 C   0  0  0  0  0  3  0  0  0  0  0  0
  161.2050  205.9040  150.7000 C   0  0  0  0  0  3  0  0  0  0  0  0
  160.9060  203.1560  151.3720 C   0  0  0  0  0  0  0  0  0  0  0  0
  160.8420  200.8120  150.7430 C   0  0  0  0  0  3  0  0  0  0  0  0
  160.7560  201.8090  151.7180 C   0  0  0  0  0  3  0  0  0  0  0  0
  160.9810  205.6230  151.9910 C   0  0  0  0  0  0  0  0  0  0  0  0
  161.2300  202.4950  149.0470 C   0  0  0  0  0  0  0  0  0  0  0  0
  161.1440  203.5080  150.0300 C   0  0  2  0  0  3  0  0  0  0  0  0
  161.0780  201.1550  149.4100 C   0  0  0  0  0  3  0  0  0  0  0  0
  162.0090  205.8170  145.6050 C   0  0  0  0  0  0  0  0  0  0  0  0
  161.9270  206.8350  146.5670 C   0  0  0  0  0  3  0  0  0  0  0  0
  161.6170  204.1650  147.3410 C   0  0  0  0  0  0  0  0  0  0  0  0
  161.6920  206.5250  147.9090 C   0  0  0  0  0  3  0  0  0  0  0  0
  161.5350  205.1920  148.3140 C   0  0  0  0  0  0  0  0  0  0  0  0
  160.7940  207.4890  155.2980 C   0  0  0  0  0  3  0  0  0  0  0  0
  160.8550  208.0590  152.5540 C   0  0  0  0  0  3  0  0  0  0  0  0
  160.6290  211.1890  155.3530 C   0  0  0  0  0  0  0  0  0  0  0  0
  160.6740  209.8570  155.7900 C   0  0  0  0  0  3  0  0  0  0  0  0
  160.7490  208.8150  154.8630 C   0  0  0  0  0  0  0  0  0  0  0  0
  160.7350  210.4280  153.0450 C   0  0  0  0  0  3  0  0  0  0  0  0
  160.7800  209.1020  153.4810 C   0  0  0  0  0  0  0  0  0  0  0  0
  160.6600  211.4670  153.9780 C   0  0  0  0  0  3  0  0  0  0  0  0
  160.9000  206.7230  152.9840 C   0  0  0  0  0  0  0  0  0  0  0  0
  160.8690  206.4510  154.3640 C   0  0  0  0  0  3  0  0  0  0  0  0
  160.5490  212.2830  156.3340 C   0  0  0  0  0  0  0  0  0  0  0  0
  161.3980  212.3720  157.2610 O   0  0  0  0  0  1  0  0  0  0  0  0
  159.5370  213.2300  156.2480 O   0  0  0  0  0  0  0  0  0  0  0  0
  161.4690  205.6500  143.1050 C   0  0  0  0  0  0  0  0  0  0  0  0
  161.8720  206.0430  141.7300 C   0  0  0  0  0  1  0  0  0  0  0  0
  160.4510  204.9280  143.2670 O   0  0  0  0  0  0  0  0  0  0  0  0
  162.2490  206.1000  144.2200 N   0  0  0  0  0  2  0  0  0  0  0  0
  1 11  1  0  0  0  0
  1  5  1  0  0  0  0
  2 15  1  0  0  0  0
  3 10  1  0  0  0  0
  5  9  2  0  0  0  0
  6  8  1  0  0  0  0
  6  4  2  0  0  0  0
  7  8  2  0  0  0  0
  9  4  1  0  0  0  0
  9 26  1  0  0  0  0
 10 12  2  0  0  0  0
 11 10  1  1  0  0  0
 11  6  1  0  0  0  0
 12  7  1  0  0  0  0
 13  2  2  0  0  0  0
 13 14  1  0  0  0  0
 14 16  2  0  0  0  0
 15  3  2  0  0  0  0
 15 17  1  0  0  0  0
 16 17  1  0  0  0  0
 17  1  2  0  0  0  0
 19 26  2  0  0  0  0
 19 24  1  0  0  0  0
 20 21  1  0  0  0  0
 20 28  1  0  0  0  0
 22 18  1  0  0  0  0
 22 21  2  0  0  0  0
 23 24  2  0  0  0  0
 23 25  1  0  0  0  0
 24 22  1  0  0  0  0
 25 20  2  0  0  0  0
 26 27  1  0  0  0  0
 27 18  2  0  0  0  0
 28 29  1  0  0  0  0
 30 28  2  0  0  0  0
 31 33  2  0  0  0  0
 31 34  1  0  0  0  0
 32 31  1  0  0  0  0
 34 13  1  0  0  0  0
M  END
>  <MODEL>
2

>  <REMARK>
 VINA RESULT:      -8.4      3.501      8.972
  Name = 
  3 active torsions:
  status: ('A' for Active; 'I' for Inactive)
    1  A    between atoms: C_7  and  C_11
    2  A    between atoms: C_18  and  C_30
    3  A    between atoms: C_23  and  N_25
                            x       y       z     vdW  Elec       q    Type
                         _______ _______ _______ _____ _____    ______ ____

>  <TORSDO>
F 3

$$$$
