=
 OpenBabel11052422213D

 25 28  0  0  1  0  0  0  0  0999 V2000
  160.7240  206.2050  150.0000 C   0  0  2  0  0  3  0  0  0  0  0  0
  161.7270  207.1470  150.6870 C   0  0  1  0  0  3  0  0  0  0  0  0
  161.3840  207.2210  147.8740 N   0  0  0  0  0  0  0  0  0  0  0  0
  160.8910  204.7560  150.3020 C   0  0  0  0  0  0  0  0  0  0  0  0
  161.0620  201.9840  150.3670 C   0  0  0  0  0  3  0  0  0  0  0  0
  161.6900  208.4390  148.5700 C   0  0  0  0  0  3  0  0  0  0  0  0
  161.0060  204.0390  149.1250 C   0  0  0  0  0  0  0  0  0  0  0  0
  161.1020  202.6480  149.1300 C   0  0  0  0  0  3  0  0  0  0  0  0
  160.9210  202.7110  151.5630 C   0  0  0  0  0  3  0  0  0  0  0  0
  160.9680  206.1780  148.5210 C   0  0  0  0  0  0  0  0  0  0  0  0
  161.0370  204.8640  147.9710 N   0  0  0  0  0  2  0  0  0  0  0  0
  160.8240  204.1110  151.5380 C   0  0  0  0  0  3  0  0  0  0  0  0
  161.8420  208.4620  149.9080 C   0  0  0  0  0  0  0  0  0  0  0  0
  161.3320  207.3360  152.1250 C   0  0  0  0  0  0  0  0  0  0  0  0
  161.4020  206.6570  154.4540 C   0  0  0  0  0  3  0  0  0  0  0  0
  160.5170  208.4180  152.4710 C   0  0  0  0  0  3  0  0  0  0  0  0
  160.1440  208.6200  153.8030 C   0  0  0  0  0  3  0  0  0  0  0  0
  161.7770  206.4550  153.1230 C   0  0  0  0  0  3  0  0  0  0  0  0
  160.5830  207.7390  154.8030 C   0  0  0  0  0  0  0  0  0  0  0  0
  160.1920  207.9470  156.2060 C   0  0  0  0  0  0  0  0  0  0  0  0
  160.1850  209.2260  156.7500 O   0  0  0  0  0  0  0  0  0  0  0  0
  159.8590  206.9690  156.9270 O   0  0  0  0  0  1  0  0  0  0  0  0
  162.2970  209.7260  150.5350 C   0  0  0  0  0  0  0  0  0  0  0  0
  162.9860  209.7110  151.5890 O   0  0  0  0  0  0  0  0  0  0  0  0
  161.9790  210.9800  149.9370 N   0  0  0  0  0  1  0  0  0  0  0  0
  1 10  1  6  0  0  0
  1  4  1  0  0  0  0
  1  2  1  0  0  0  0
  2 14  1  1  0  0  0
  3 10  2  0  0  0  0
  3  6  1  0  0  0  0
  4 12  1  0  0  0  0
  5  9  1  0  0  0  0
  6 13  2  0  0  0  0
  7  8  1  0  0  0  0
  7  4  2  0  0  0  0
  8  5  2  0  0  0  0
 11 10  1  0  0  0  0
 11  7  1  0  0  0  0
 12  9  2  0  0  0  0
 13 23  1  0  0  0  0
 13  2  1  0  0  0  0
 14 16  2  0  0  0  0
 14 18  1  0  0  0  0
 15 19  1  0  0  0  0
 16 17  1  0  0  0  0
 17 19  2  0  0  0  0
 18 15  2  0  0  0  0
 19 20  1  0  0  0  0
 20 21  2  0  0  0  0
 20 22  1  0  0  0  0
 23 24  2  0  0  0  0
 25 23  1  0  0  0  0
M  END
>  <MODEL>
1

>  <REMARK>
 VINA RESULT:      -9.4      0.000      0.000
  Name = 
  3 active torsions:
  status: ('A' for Active; 'I' for Inactive)
    1  A    between atoms: C_2  and  C_25
    2  A    between atoms: C_3  and  C_6
    3  A    between atoms: C_13  and  C_24
                            x       y       z     vdW  Elec       q    Type
                         _______ _______ _______ _____ _____    ______ ____

>  <TORSDO>
F 3

$$$$
=
 OpenBabel11052422213D

 25 28  0  0  1  0  0  0  0  0999 V2000
  161.9980  207.2130  150.5060 C   0  0  2  0  0  3  0  0  0  0  0  0
  161.0440  206.6900  149.4180 C   0  0  1  0  0  3  0  0  0  0  0  0
  162.1680  209.2850  149.2160 N   0  0  0  0  0  0  0  0  0  0  0  0
  161.4750  207.1570  151.9000 C   0  0  0  0  0  0  0  0  0  0  0  0
  160.7600  207.5030  154.5630 C   0  0  0  0  0  3  0  0  0  0  0  0
  161.9220  208.5370  148.0150 C   0  0  0  0  0  3  0  0  0  0  0  0
  161.5570  208.4070  152.4850 C   0  0  0  0  0  0  0  0  0  0  0  0
  161.1960  208.6090  153.8160 C   0  0  0  0  0  3  0  0  0  0  0  0
  160.6990  206.2250  153.9740 C   0  0  0  0  0  3  0  0  0  0  0  0
  162.1770  208.6950  150.3700 C   0  0  0  0  0  0  0  0  0  0  0  0
  162.0110  209.4120  151.5910 N   0  0  0  0  0  2  0  0  0  0  0  0
  161.0680  206.0410  152.6330 C   0  0  0  0  0  3  0  0  0  0  0  0
  161.4090  207.2930  148.0560 C   0  0  0  0  0  0  0  0  0  0  0  0
  161.0500  205.1860  149.4280 C   0  0  0  0  0  0  0  0  0  0  0  0
  160.5240  203.0670  150.4860 C   0  0  0  0  0  3  0  0  0  0  0  0
  161.5890  204.5000  148.3350 C   0  0  0  0  0  3  0  0  0  0  0  0
  161.5970  203.1030  148.3170 C   0  0  0  0  0  3  0  0  0  0  0  0
  160.5140  204.4650  150.5050 C   0  0  0  0  0  3  0  0  0  0  0  0
  161.0660  202.3780  149.3940 C   0  0  0  0  0  0  0  0  0  0  0  0
  161.0730  200.9060  149.3800 C   0  0  0  0  0  0  0  0  0  0  0  0
  161.4510  200.2180  148.2330 O   0  0  0  0  0  0  0  0  0  0  0  0
  160.7380  200.2560  150.4060 O   0  0  0  0  0  1  0  0  0  0  0  0
  161.0500  206.6440  146.7720 C   0  0  0  0  0  0  0  0  0  0  0  0
  159.8450  206.5090  146.4330 O   0  0  0  0  0  0  0  0  0  0  0  0
  162.0710  206.1840  145.8900 N   0  0  0  0  0  1  0  0  0  0  0  0
  1 10  1  6  0  0  0
  1  4  1  0  0  0  0
  2 14  1  6  0  0  0
  2  1  1  0  0  0  0
  3 10  2  0  0  0  0
  4  7  2  0  0  0  0
  4 12  1  0  0  0  0
  6 13  2  0  0  0  0
  6  3  1  0  0  0  0
  7  8  1  0  0  0  0
  8  5  2  0  0  0  0
  9  5  1  0  0  0  0
 10 11  1  0  0  0  0
 11  7  1  0  0  0  0
 12  9  2  0  0  0  0
 13  2  1  0  0  0  0
 14 18  1  0  0  0  0
 15 18  2  0  0  0  0
 16 14  2  0  0  0  0
 17 16  1  0  0  0  0
 17 19  2  0  0  0  0
 19 15  1  0  0  0  0
 20 19  1  0  0  0  0
 20 22  1  0  0  0  0
 21 20  2  0  0  0  0
 23 13  1  0  0  0  0
 24 23  2  0  0  0  0
 25 23  1  0  0  0  0
M  END
>  <MODEL>
2

>  <REMARK>
 VINA RESULT:      -8.5      3.357      5.972
  Name = 
  3 active torsions:
  status: ('A' for Active; 'I' for Inactive)
    1  A    between atoms: C_2  and  C_25
    2  A    between atoms: C_3  and  C_6
    3  A    between atoms: C_13  and  C_24
                            x       y       z     vdW  Elec       q    Type
                         _______ _______ _______ _____ _____    ______ ____

>  <TORSDO>
F 3

$$$$
=
 OpenBabel11052422213D

 25 28  0  0  1  0  0  0  0  0999 V2000
  161.8790  208.2830  152.4320 C   0  0  2  0  0  3  0  0  0  0  0  0
  161.1970  207.8100  151.1360 C   0  0  1  0  0  3  0  0  0  0  0  0
  162.3130  210.4110  151.3060 N   0  0  0  0  0  0  0  0  0  0  0  0
  161.0590  208.1640  153.6700 C   0  0  0  0  0  0  0  0  0  0  0  0
  159.7640  208.3880  156.1180 C   0  0  0  0  0  3  0  0  0  0  0  0
  162.3490  209.7190  150.0480 C   0  0  0  0  0  3  0  0  0  0  0  0
  160.9960  209.3860  154.3140 C   0  0  0  0  0  0  0  0  0  0  0  0
  160.3460  209.5280  155.5380 C   0  0  0  0  0  3  0  0  0  0  0  0
  159.8480  207.1390  155.4750 C   0  0  0  0  0  3  0  0  0  0  0  0
  162.0700  209.7690  152.4060 C   0  0  0  0  0  0  0  0  0  0  0  0
  161.6290  210.4300  153.5900 N   0  0  0  0  0  2  0  0  0  0  0  0
  160.5090  207.0160  154.2430 C   0  0  0  0  0  3  0  0  0  0  0  0
  161.8510  208.4750  149.9190 C   0  0  0  0  0  0  0  0  0  0  0  0
  161.2160  206.3080  151.0800 C   0  0  0  0  0  0  0  0  0  0  0  0
  162.0780  204.1650  151.8240 C   0  0  0  0  0  3  0  0  0  0  0  0
  160.3370  205.6480  150.2160 C   0  0  0  0  0  3  0  0  0  0  0  0
  160.3290  204.2520  150.1530 C   0  0  0  0  0  3  0  0  0  0  0  0
  162.0870  205.5610  151.8880 C   0  0  0  0  0  3  0  0  0  0  0  0
  161.2010  203.5020  150.9560 C   0  0  0  0  0  0  0  0  0  0  0  0
  161.1970  202.0310  150.8930 C   0  0  0  0  0  0  0  0  0  0  0  0
  160.3040  201.3680  150.0590 O   0  0  0  0  0  0  0  0  0  0  0  0
  162.0020  201.3600  151.5930 O   0  0  0  0  0  1  0  0  0  0  0  0
  161.7950  207.8850  148.5600 C   0  0  0  0  0  0  0  0  0  0  0  0
  160.8210  208.1180  147.7960 O   0  0  0  0  0  0  0  0  0  0  0  0
  162.8580  207.0610  148.0890 N   0  0  0  0  0  1  0  0  0  0  0  0
  1 10  1  6  0  0  0
  1  4  1  0  0  0  0
  2 14  1  6  0  0  0
  2  1  1  0  0  0  0
  3 10  2  0  0  0  0
  4 12  2  0  0  0  0
  4  7  1  0  0  0  0
  6  3  1  0  0  0  0
  7  8  2  0  0  0  0
  8  5  1  0  0  0  0
  9  5  2  0  0  0  0
 10 11  1  0  0  0  0
 11  7  1  0  0  0  0
 12  9  1  0  0  0  0
 13  6  2  0  0  0  0
 13  2  1  0  0  0  0
 14 18  1  0  0  0  0
 15 18  2  0  0  0  0
 16 14  2  0  0  0  0
 17 16  1  0  0  0  0
 17 19  2  0  0  0  0
 19 15  1  0  0  0  0
 20 19  1  0  0  0  0
 20 22  1  0  0  0  0
 21 20  2  0  0  0  0
 23 13  1  0  0  0  0
 24 23  2  0  0  0  0
 25 23  1  0  0  0  0
M  END
>  <MODEL>
3

>  <REMARK>
 VINA RESULT:      -8.0      2.864      5.683
  Name = 
  3 active torsions:
  status: ('A' for Active; 'I' for Inactive)
    1  A    between atoms: C_2  and  C_25
    2  A    between atoms: C_3  and  C_6
    3  A    between atoms: C_13  and  C_24
                            x       y       z     vdW  Elec       q    Type
                         _______ _______ _______ _____ _____    ______ ____

>  <TORSDO>
F 3

$$$$
=
 OpenBabel11052422213D

 25 28  0  0  1  0  0  0  0  0999 V2000
  160.8250  206.6440  150.7820 C   0  0  2  0  0  3  0  0  0  0  0  0
  161.5790  205.3980  150.2850 C   0  0  1  0  0  3  0  0  0  0  0  0
  160.8080  205.6200  153.0040 N   0  0  0  0  0  0  0  0  0  0  0  0
  161.4780  207.9500  150.4870 C   0  0  0  0  0  0  0  0  0  0  0  0
  162.5080  210.5290  150.4050 C   0  0  0  0  0  3  0  0  0  0  0  0
  160.8220  204.3220  152.3880 C   0  0  0  0  0  3  0  0  0  0  0  0
  161.6300  208.6750  151.6540 C   0  0  0  0  0  0  0  0  0  0  0  0
  162.1520  209.9680  151.6420 C   0  0  0  0  0  3  0  0  0  0  0  0
  162.3310  209.8000  149.2140 C   0  0  0  0  0  3  0  0  0  0  0  0
  160.8390  206.6940  152.2800 C   0  0  0  0  0  0  0  0  0  0  0  0
  161.2280  207.9590  152.8120 N   0  0  0  0  0  2  0  0  0  0  0  0
  161.8020  208.5010  149.2470 C   0  0  0  0  0  3  0  0  0  0  0  0
  161.1610  204.1650  151.0950 C   0  0  0  0  0  0  0  0  0  0  0  0
  161.3670  205.2420  148.8040 C   0  0  0  0  0  0  0  0  0  0  0  0
  160.2820  205.8940  146.7340 C   0  0  0  0  0  3  0  0  0  0  0  0
  162.1060  204.2810  148.1080 C   0  0  0  0  0  3  0  0  0  0  0  0
  161.9330  204.1240  146.7300 C   0  0  0  0  0  3  0  0  0  0  0  0
  160.4550  206.0520  148.1120 C   0  0  0  0  0  3  0  0  0  0  0  0
  161.0180  204.9290  146.0350 C   0  0  0  0  0  0  0  0  0  0  0  0
  160.8320  204.7670  144.5840 C   0  0  0  0  0  0  0  0  0  0  0  0
  161.5810  205.5260  143.6920 O   0  0  0  0  0  0  0  0  0  0  0  0
  159.9940  203.9390  144.1360 O   0  0  0  0  0  1  0  0  0  0  0  0
  161.2900  202.7830  150.5720 C   0  0  0  0  0  0  0  0  0  0  0  0
  162.2510  202.0490  150.9240 O   0  0  0  0  0  0  0  0  0  0  0  0
  160.3120  202.2580  149.6790 N   0  0  0  0  0  1  0  0  0  0  0  0
  1  4  1  6  0  0  0
  1 10  1  0  0  0  0
  2 14  1  6  0  0  0
  2  1  1  0  0  0  0
  2 13  1  0  0  0  0
  4  7  1  0  0  0  0
  5  8  1  0  0  0  0
  6  3  1  0  0  0  0
  7 11  1  0  0  0  0
  8  7  2  0  0  0  0
  9 12  1  0  0  0  0
  9  5  2  0  0  0  0
 10 11  1  0  0  0  0
 10  3  2  0  0  0  0
 12  4  2  0  0  0  0
 13  6  2  0  0  0  0
 15 18  2  0  0  0  0
 16 14  2  0  0  0  0
 17 16  1  0  0  0  0
 18 14  1  0  0  0  0
 19 17  2  0  0  0  0
 19 15  1  0  0  0  0
 20 19  1  0  0  0  0
 21 20  2  0  0  0  0
 22 20  1  0  0  0  0
 23 24  2  0  0  0  0
 23 13  1  0  0  0  0
 25 23  1  0  0  0  0
M  END
>  <MODEL>
4

>  <REMARK>
 VINA RESULT:      -7.5      3.710      7.443
  Name = 
  3 active torsions:
  status: ('A' for Active; 'I' for Inactive)
    1  A    between atoms: C_2  and  C_25
    2  A    between atoms: C_3  and  C_6
    3  A    between atoms: C_13  and  C_24
                            x       y       z     vdW  Elec       q    Type
                         _______ _______ _______ _____ _____    ______ ____

>  <TORSDO>
F 3

$$$$
=
 OpenBabel11052422213D

 25 28  0  0  1  0  0  0  0  0999 V2000
  161.6580  203.9470  148.1780 C   0  0  2  0  0  3  0  0  0  0  0  0
  160.8600  204.3670  149.4240 C   0  0  1  0  0  3  0  0  0  0  0  0
  161.3240  201.6240  148.8740 N   0  0  0  0  0  0  0  0  0  0  0  0
  161.1640  204.4930  146.8830 C   0  0  0  0  0  0  0  0  0  0  0  0
  160.3840  205.0480  144.2750 C   0  0  0  0  0  3  0  0  0  0  0  0
  161.2670  202.0600  150.2410 C   0  0  0  0  0  3  0  0  0  0  0  0
  160.9410  203.4620  145.9900 C   0  0  0  0  0  0  0  0  0  0  0  0
  160.5410  203.7120  144.6790 C   0  0  0  0  0  3  0  0  0  0  0  0
  160.6340  206.0990  145.1770 C   0  0  0  0  0  3  0  0  0  0  0  0
  161.4740  202.4830  147.9140 C   0  0  0  0  0  0  0  0  0  0  0  0
  161.1400  202.1770  146.5620 N   0  0  0  0  0  2  0  0  0  0  0  0
  161.0380  205.8270  146.4930 C   0  0  0  0  0  3  0  0  0  0  0  0
  161.0690  203.3540  150.5560 C   0  0  0  0  0  0  0  0  0  0  0  0
  161.2290  205.7740  149.8040 C   0  0  0  0  0  0  0  0  0  0  0  0
  162.6880  207.7060  149.6360 C   0  0  0  0  0  3  0  0  0  0  0  0
  160.4090  206.4780  150.6910 C   0  0  0  0  0  3  0  0  0  0  0  0
  160.7260  207.7900  151.0520 C   0  0  0  0  0  3  0  0  0  0  0  0
  162.3710  206.3940  149.2740 C   0  0  0  0  0  3  0  0  0  0  0  0
  161.8690  208.4120  150.5280 C   0  0  0  0  0  0  0  0  0  0  0  0
  162.2080  209.7940  150.9050 C   0  0  0  0  0  0  0  0  0  0  0  0
  162.5420  210.0990  152.2190 O   0  0  0  0  0  1  0  0  0  0  0  0
  162.1990  210.7110  150.0420 O   0  0  0  0  0  0  0  0  0  0  0  0
  160.8790  203.7010  151.9850 C   0  0  0  0  0  0  0  0  0  0  0  0
  159.9800  203.1450  152.6690 O   0  0  0  0  0  0  0  0  0  0  0  0
  161.7320  204.6560  152.6120 N   0  0  0  0  0  1  0  0  0  0  0  0
  1  4  1  6  0  0  0
  1  2  1  0  0  0  0
  2 14  1  1  0  0  0
  2 13  1  0  0  0  0
  3  6  1  0  0  0  0
  5  8  2  0  0  0  0
  5  9  1  0  0  0  0
  6 13  2  0  0  0  0
  7 11  1  0  0  0  0
  7  4  2  0  0  0  0
  8  7  1  0  0  0  0
  9 12  2  0  0  0  0
 10  1  1  0  0  0  0
 10  3  2  0  0  0  0
 11 10  1  0  0  0  0
 12  4  1  0  0  0  0
 13 23  1  0  0  0  0
 14 16  1  0  0  0  0
 15 19  2  0  0  0  0
 16 17  2  0  0  0  0
 18 15  1  0  0  0  0
 18 14  2  0  0  0  0
 19 20  1  0  0  0  0
 19 17  1  0  0  0  0
 20 21  1  0  0  0  0
 22 20  2  0  0  0  0
 23 25  1  0  0  0  0
 23 24  2  0  0  0  0
M  END
>  <MODEL>
5

>  <REMARK>
 VINA RESULT:      -7.3      3.031      5.185
  Name = 
  3 active torsions:
  status: ('A' for Active; 'I' for Inactive)
    1  A    between atoms: C_2  and  C_25
    2  A    between atoms: C_3  and  C_6
    3  A    between atoms: C_13  and  C_24
                            x       y       z     vdW  Elec       q    Type
                         _______ _______ _______ _____ _____    ______ ____

>  <TORSDO>
F 3

$$$$
=
 OpenBabel11052422213D

 25 28  0  0  1  0  0  0  0  0999 V2000
  160.8710  207.6460  150.4060 C   0  0  2  0  0  3  0  0  0  0  0  0
  161.8320  208.8320  150.6010 C   0  0  1  0  0  3  0  0  0  0  0  0
  161.4990  207.6590  148.0410 N   0  0  0  0  0  0  0  0  0  0  0  0
  161.0970  206.4810  151.3060 C   0  0  0  0  0  0  0  0  0  0  0  0
  161.3810  204.0230  152.5700 C   0  0  0  0  0  3  0  0  0  0  0  0
  161.7510  209.0700  148.1330 C   0  0  0  0  0  3  0  0  0  0  0  0
  161.2470  205.3280  150.5580 C   0  0  0  0  0  0  0  0  0  0  0  0
  161.4000  204.0840  151.1670 C   0  0  0  0  0  3  0  0  0  0  0  0
  161.2040  205.1930  153.3320 C   0  0  0  0  0  3  0  0  0  0  0  0
  161.1230  206.9870  149.0830 C   0  0  0  0  0  0  0  0  0  0  0  0
  161.2490  205.5680  149.1590 N   0  0  0  0  0  2  0  0  0  0  0  0
  161.0500  206.4370  152.7010 C   0  0  0  0  0  3  0  0  0  0  0  0
  161.8960  209.6790  149.3240 C   0  0  0  0  0  0  0  0  0  0  0  0
  161.4220  209.6130  151.8180 C   0  0  0  0  0  0  0  0  0  0  0  0
  159.7300  210.7100  153.1680 C   0  0  0  0  0  3  0  0  0  0  0  0
  162.3910  209.9540  152.7670 C   0  0  0  0  0  3  0  0  0  0  0  0
  162.0330  210.6710  153.9110 C   0  0  0  0  0  3  0  0  0  0  0  0
  160.0870  209.9910  152.0230 C   0  0  0  0  0  3  0  0  0  0  0  0
  160.6990  211.0550  154.1180 C   0  0  0  0  0  0  0  0  0  0  0  0
  160.3170  211.8120  155.3210 C   0  0  0  0  0  0  0  0  0  0  0  0
  160.8370  211.4640  156.5630 O   0  0  0  0  0  1  0  0  0  0  0  0
  159.5170  212.7810  155.2380 O   0  0  0  0  0  0  0  0  0  0  0  0
  162.2950  211.1070  149.3320 C   0  0  0  0  0  0  0  0  0  0  0  0
  163.4530  211.4540  148.9780 O   0  0  0  0  0  0  0  0  0  0  0  0
  161.3630  212.1120  149.7200 N   0  0  0  0  0  1  0  0  0  0  0  0
  1 10  1  6  0  0  0
  1  2  1  0  0  0  0
  1  4  1  0  0  0  0
  2 14  1  1  0  0  0
  3  6  1  0  0  0  0
  3 10  2  0  0  0  0
  4 12  1  0  0  0  0
  5  9  1  0  0  0  0
  6 13  2  0  0  0  0
  7  8  1  0  0  0  0
  7  4  2  0  0  0  0
  8  5  2  0  0  0  0
 10 11  1  0  0  0  0
 11  7  1  0  0  0  0
 12  9  2  0  0  0  0
 13 23  1  0  0  0  0
 13  2  1  0  0  0  0
 14 18  2  0  0  0  0
 14 16  1  0  0  0  0
 15 19  2  0  0  0  0
 16 17  2  0  0  0  0
 17 19  1  0  0  0  0
 18 15  1  0  0  0  0
 19 20  1  0  0  0  0
 20 21  1  0  0  0  0
 22 20  2  0  0  0  0
 23 25  1  0  0  0  0
 24 23  2  0  0  0  0
M  END
>  <MODEL>
6

>  <REMARK>
 VINA RESULT:      -7.0      1.983      2.765
  Name = 
  3 active torsions:
  status: ('A' for Active; 'I' for Inactive)
    1  A    between atoms: C_2  and  C_25
    2  A    between atoms: C_3  and  C_6
    3  A    between atoms: C_13  and  C_24
                            x       y       z     vdW  Elec       q    Type
                         _______ _______ _______ _____ _____    ______ ____

>  <TORSDO>
F 3

$$$$
=
 OpenBabel11052422213D

 25 28  0  0  1  0  0  0  0  0999 V2000
  161.7030  206.8040  152.0110 C   0  0  2  0  0  3  0  0  0  0  0  0
  160.8310  208.0540  152.2280 C   0  0  1  0  0  3  0  0  0  0  0  0
  161.2070  206.1840  154.3260 N   0  0  0  0  0  0  0  0  0  0  0  0
  161.3350  205.9590  150.8410 C   0  0  0  0  0  0  0  0  0  0  0  0
  160.7860  203.9840  148.9660 C   0  0  0  0  0  3  0  0  0  0  0  0
  161.0650  207.5760  154.6510 C   0  0  0  0  0  3  0  0  0  0  0  0
  161.1340  204.6530  151.2460 C   0  0  0  0  0  0  0  0  0  0  0  0
  160.8480  203.6440  150.3280 C   0  0  0  0  0  3  0  0  0  0  0  0
  161.0140  205.3090  148.5500 C   0  0  0  0  0  3  0  0  0  0  0  0
  161.4710  205.8130  153.1120 C   0  0  0  0  0  0  0  0  0  0  0  0
  161.2270  204.4860  152.6530 N   0  0  0  0  0  2  0  0  0  0  0  0
  161.3020  206.3100  149.4900 C   0  0  0  0  0  3  0  0  0  0  0  0
  160.9050  208.5060  153.6910 C   0  0  0  0  0  0  0  0  0  0  0  0
  161.2360  209.1210  151.2500 C   0  0  0  0  0  0  0  0  0  0  0  0
  162.3310  209.8190  149.2000 C   0  0  0  0  0  3  0  0  0  0  0  0
  160.8540  210.4450  151.4890 C   0  0  0  0  0  3  0  0  0  0  0  0
  161.2100  211.4530  150.5900 C   0  0  0  0  0  3  0  0  0  0  0  0
  161.9750  208.8100  150.0990 C   0  0  0  0  0  3  0  0  0  0  0  0
  161.9520  211.1470  149.4400 C   0  0  0  0  0  0  0  0  0  0  0  0
  162.3300  212.2050  148.4900 C   0  0  0  0  0  0  0  0  0  0  0  0
  161.4710  213.2710  148.2490 O   0  0  0  0  0  1  0  0  0  0  0  0
  163.4360  212.1560  147.8870 O   0  0  0  0  0  0  0  0  0  0  0  0
  160.6220  209.9000  154.1120 C   0  0  0  0  0  0  0  0  0  0  0  0
  159.4460  210.3480  154.1070 O   0  0  0  0  0  0  0  0  0  0  0  0
  161.6800  210.7460  154.5530 N   0  0  0  0  0  1  0  0  0  0  0  0
  1  4  1  6  0  0  0
  1  2  1  0  0  0  0
  1 10  1  0  0  0  0
  2 14  1  6  0  0  0
  2 13  1  0  0  0  0
  3  6  1  0  0  0  0
  4  7  1  0  0  0  0
  5  8  1  0  0  0  0
  7 11  1  0  0  0  0
  8  7  2  0  0  0  0
  9  5  2  0  0  0  0
  9 12  1  0  0  0  0
 10  3  2  0  0  0  0
 11 10  1  0  0  0  0
 12  4  2  0  0  0  0
 13 23  1  0  0  0  0
 13  6  2  0  0  0  0
 14 16  1  0  0  0  0
 15 19  2  0  0  0  0
 15 18  1  0  0  0  0
 17 16  2  0  0  0  0
 18 14  2  0  0  0  0
 19 17  1  0  0  0  0
 20 19  1  0  0  0  0
 21 20  1  0  0  0  0
 22 20  2  0  0  0  0
 23 25  1  0  0  0  0
 24 23  2  0  0  0  0
M  END
>  <MODEL>
7

>  <REMARK>
 VINA RESULT:      -6.9      2.640      5.153
  Name = 
  3 active torsions:
  status: ('A' for Active; 'I' for Inactive)
    1  A    between atoms: C_2  and  C_25
    2  A    between atoms: C_3  and  C_6
    3  A    between atoms: C_13  and  C_24
                            x       y       z     vdW  Elec       q    Type
                         _______ _______ _______ _____ _____    ______ ____

>  <TORSDO>
F 3

$$$$
=
 OpenBabel11052422213D

 25 28  0  0  1  0  0  0  0  0999 V2000
  160.7780  204.7580  148.7090 C   0  0  2  0  0  3  0  0  0  0  0  0
  161.8350  205.8140  149.0770 C   0  0  1  0  0  3  0  0  0  0  0  0
  161.1990  205.3050  146.3610 N   0  0  0  0  0  0  0  0  0  0  0  0
  160.9960  203.4020  149.2850 C   0  0  0  0  0  0  0  0  0  0  0  0
  161.2110  200.7020  149.9050 C   0  0  0  0  0  3  0  0  0  0  0  0
  161.5580  206.6390  146.7540 C   0  0  0  0  0  3  0  0  0  0  0  0
  160.9970  202.4550  148.2780 C   0  0  0  0  0  0  0  0  0  0  0  0
  161.1120  201.0950  148.5600 C   0  0  0  0  0  3  0  0  0  0  0  0
  161.1850  201.6630  150.9330 C   0  0  0  0  0  3  0  0  0  0  0  0
  160.8660  204.4220  147.2510 C   0  0  0  0  0  0  0  0  0  0  0  0
  160.8960  203.0230  146.9810 N   0  0  0  0  0  2  0  0  0  0  0  0
  161.0660  203.0280  150.6280 C   0  0  0  0  0  3  0  0  0  0  0  0
  161.8490  206.9380  148.0340 C   0  0  0  0  0  0  0  0  0  0  0  0
  161.5890  206.3000  150.4790 C   0  0  0  0  0  0  0  0  0  0  0  0
  160.4610  207.7640  152.0520 C   0  0  0  0  0  3  0  0  0  0  0  0
  162.2720  205.6970  151.5390 C   0  0  0  0  0  3  0  0  0  0  0  0
  162.0540  206.1260  152.8510 C   0  0  0  0  0  3  0  0  0  0  0  0
  160.6780  207.3350  150.7390 C   0  0  0  0  0  3  0  0  0  0  0  0
  161.1480  207.1630  153.1150 C   0  0  0  0  0  0  0  0  0  0  0  0
  160.9140  207.6190  154.4950 C   0  0  0  0  0  0  0  0  0  0  0  0
  161.5780  208.7380  154.9860 O   0  0  0  0  0  0  0  0  0  0  0  0
  160.1110  207.0000  155.2440 O   0  0  0  0  0  1  0  0  0  0  0  0
  162.3490  208.3010  148.3350 C   0  0  0  0  0  0  0  0  0  0  0  0
  161.5650  209.2860  148.3520 O   0  0  0  0  0  0  0  0  0  0  0  0
  163.7270  208.5110  148.6340 N   0  0  0  0  0  1  0  0  0  0  0  0
  1 10  1  6  0  0  0
  1  2  1  0  0  0  0
  1  4  1  0  0  0  0
  2 14  1  1  0  0  0
  3  6  1  0  0  0  0
  3 10  2  0  0  0  0
  4 12  1  0  0  0  0
  5  9  1  0  0  0  0
  6 13  2  0  0  0  0
  7  8  1  0  0  0  0
  7  4  2  0  0  0  0
  8  5  2  0  0  0  0
 11 10  1  0  0  0  0
 11  7  1  0  0  0  0
 12  9  2  0  0  0  0
 13 23  1  0  0  0  0
 13  2  1  0  0  0  0
 14 18  2  0  0  0  0
 14 16  1  0  0  0  0
 15 19  2  0  0  0  0
 16 17  2  0  0  0  0
 17 19  1  0  0  0  0
 18 15  1  0  0  0  0
 19 20  1  0  0  0  0
 20 21  2  0  0  0  0
 20 22  1  0  0  0  0
 23 24  2  0  0  0  0
 23 25  1  0  0  0  0
M  END
>  <MODEL>
8

>  <REMARK>
 VINA RESULT:      -6.8      1.668      2.342
  Name = 
  3 active torsions:
  status: ('A' for Active; 'I' for Inactive)
    1  A    between atoms: C_2  and  C_25
    2  A    between atoms: C_3  and  C_6
    3  A    between atoms: C_13  and  C_24
                            x       y       z     vdW  Elec       q    Type
                         _______ _______ _______ _____ _____    ______ ____

>  <TORSDO>
F 3

$$$$
=
 OpenBabel11052422213D

 25 28  0  0  1  0  0  0  0  0999 V2000
  161.2420  208.2190  153.4280 C   0  0  2  0  0  3  0  0  0  0  0  0
  160.0650  209.1500  153.7690 C   0  0  1  0  0  3  0  0  0  0  0  0
  161.0960  207.3640  155.7160 N   0  0  0  0  0  0  0  0  0  0  0  0
  161.0570  207.3650  152.2210 C   0  0  0  0  0  0  0  0  0  0  0  0
  160.9760  205.4140  150.2450 C   0  0  0  0  0  3  0  0  0  0  0  0
  160.5830  208.6370  156.1400 C   0  0  0  0  0  3  0  0  0  0  0  0
  161.2650  206.0380  152.5460 C   0  0  0  0  0  0  0  0  0  0  0  0
  161.2210  205.0380  151.5760 C   0  0  0  0  0  3  0  0  0  0  0  0
  160.7880  206.7680  149.9090 C   0  0  0  0  0  3  0  0  0  0  0  0
  161.3750  207.1490  154.4680 C   0  0  0  0  0  0  0  0  0  0  0  0
  161.4930  205.8330  153.9320 N   0  0  0  0  0  2  0  0  0  0  0  0
  160.8380  207.7600  150.9000 C   0  0  0  0  0  3  0  0  0  0  0  0
  160.1010  209.5290  155.2550 C   0  0  0  0  0  0  0  0  0  0  0  0
  160.0830  210.3370  152.8470 C   0  0  0  0  0  0  0  0  0  0  0  0
  161.2120  211.7620  151.2400 C   0  0  0  0  0  3  0  0  0  0  0  0
  158.9340  211.1250  152.7300 C   0  0  0  0  0  3  0  0  0  0  0  0
  158.9230  212.2290  151.8730 C   0  0  0  0  0  3  0  0  0  0  0  0
  161.2240  210.6580  152.0970 C   0  0  0  0  0  3  0  0  0  0  0  0
  160.0630  212.5550  151.1240 C   0  0  0  0  0  0  0  0  0  0  0  0
  160.0560  213.7170  150.2200 C   0  0  0  0  0  0  0  0  0  0  0  0
  161.1810  214.0210  149.4610 O   0  0  0  0  0  0  0  0  0  0  0  0
  159.0330  214.4460  150.1250 O   0  0  0  0  0  1  0  0  0  0  0  0
  159.4590  210.7570  155.7820 C   0  0  0  0  0  0  0  0  0  0  0  0
  158.2190  210.7940  155.9950 O   0  0  0  0  0  0  0  0  0  0  0  0
  160.2450  211.9080  156.0780 N   0  0  0  0  0  1  0  0  0  0  0  0
  1  4  1  6  0  0  0
  1  2  1  0  0  0  0
  1 10  1  0  0  0  0
  2 14  1  6  0  0  0
  2 13  1  0  0  0  0
  3  6  1  0  0  0  0
  4  7  1  0  0  0  0
  5  8  1  0  0  0  0
  7 11  1  0  0  0  0
  8  7  2  0  0  0  0
  9  5  2  0  0  0  0
  9 12  1  0  0  0  0
 10  3  2  0  0  0  0
 11 10  1  0  0  0  0
 12  4  2  0  0  0  0
 13 23  1  0  0  0  0
 13  6  2  0  0  0  0
 15 18  1  0  0  0  0
 16 14  1  0  0  0  0
 17 16  2  0  0  0  0
 18 14  2  0  0  0  0
 19 15  2  0  0  0  0
 19 17  1  0  0  0  0
 20 19  1  0  0  0  0
 21 20  2  0  0  0  0
 22 20  1  0  0  0  0
 23 24  2  0  0  0  0
 23 25  1  0  0  0  0
M  END
>  <MODEL>
9

>  <REMARK>
 VINA RESULT:      -6.6      3.417      5.809
  Name = 
  3 active torsions:
  status: ('A' for Active; 'I' for Inactive)
    1  A    between atoms: C_2  and  C_25
    2  A    between atoms: C_3  and  C_6
    3  A    between atoms: C_13  and  C_24
                            x       y       z     vdW  Elec       q    Type
                         _______ _______ _______ _____ _____    ______ ____

>  <TORSDO>
F 3

$$$$
