=
 OpenBabel11062409103D

 37 43  0  0  1  0  0  0  0  0999 V2000
  160.7560  211.8120  155.6770 C   0  0  2  0  0  3  0  0  0  0  0  0
  160.2580  206.0990  152.1080 C   0  0  0  0  0  2  0  0  0  0  0  0
  161.4210  210.0910  151.4320 C   0  0  0  0  0  0  0  0  0  0  0  0
  161.5060  211.0760  156.7740 C   0  0  1  0  0  3  0  0  0  0  0  0
  158.6620  211.5660  154.3400 C   0  0  0  0  0  2  0  0  0  0  0  0
  162.1140  207.6960  151.3810 C   0  0  2  0  0  3  0  0  0  0  0  0
  160.9630  211.1520  152.3830 C   0  0  1  0  0  3  0  0  0  0  0  0
  161.5180  208.9160  152.0410 C   0  0  0  0  0  0  0  0  0  0  0  0
  159.6090  211.7290  152.0000 C   0  0  0  0  0  0  0  0  0  0  0  0
  163.0230  208.0730  150.2000 C   0  0  0  0  0  2  0  0  0  0  0  0
  161.1040  209.0580  153.4400 C   0  0  2  0  0  3  0  0  0  0  0  0
  161.3300  206.6580  154.2700 C   0  0  0  0  0  3  0  0  0  0  0  0
  161.9470  211.4360  149.5420 O   0  0  0  0  0  0  0  0  0  0  0  0
  162.3640  209.0980  149.2700 C   0  0  0  0  0  2  0  0  0  0  0  0
  160.5990  207.9680  154.3510 C   0  0  0  0  0  2  0  0  0  0  0  0
  158.3830  211.4140  152.8380 C   0  0  0  0  0  2  0  0  0  0  0  0
  161.9150  210.2890  150.0590 C   0  0  0  0  0  0  0  0  0  0  0  0
  160.8280  210.3500  153.6470 C   0  0  2  0  0  3  0  0  0  0  0  0
  161.0560  206.6820  150.9420 C   0  0  0  0  0  2  0  0  0  0  0  0
  161.1490  205.7820  153.2730 C   0  0  0  0  0  3  0  0  0  0  0  0
  160.2480  210.4590  156.1980 C   0  0  2  0  0  0  0  0  0  0  0  0
  159.9740  210.8890  154.7590 C   0  0  1  0  0  0  0  0  0  0  0  0
  159.5140  212.5030  150.9120 C   0  0  0  0  0  3  0  0  0  0  0  0
  163.9840  211.1110  156.6890 C   0  0  0  0  0  1  0  0  0  0  0  0
  162.7390  210.3970  156.2050 C   0  0  0  0  0  2  0  0  0  0  0  0
  159.0450  210.5770  157.1630 C   0  0  0  0  0  2  0  0  0  0  0  0
  158.3250  211.9320  157.2600 C   0  0  0  0  0  2  0  0  0  0  0  0
  156.4470  213.0920  157.0720 C   0  0  0  0  0  1  0  0  0  0  0  0
  156.9580  211.7960  156.9930 O   0  0  0  0  0  0  0  0  0  0  0  0
  158.2320  213.1350  150.4710 C   0  0  0  0  0  2  0  0  0  0  0  0
  157.0710  213.0860  148.2690 C   0  0  0  0  0  3  0  0  0  0  0  0
  158.2370  213.3460  148.9970 C   0  0  0  0  0  0  0  0  0  0  0  0
  159.3970  213.7600  148.3290 C   0  0  0  0  0  3  0  0  0  0  0  0
  160.5030  214.3110  146.2920 F   0  0  0  0  0  0  0  0  0  0  0  0
  158.2180  213.6490  146.2150 C   0  0  0  0  0  3  0  0  0  0  0  0
  159.3850  213.9080  146.9390 C   0  0  0  0  0  0  0  0  0  0  0  0
  157.0590  213.2400  146.8810 C   0  0  0  0  0  3  0  0  0  0  0  0
  1 21  1  0  0  0  0
  1  4  1  0  0  0  0
  2 20  1  0  0  0  0
  3  8  2  0  0  0  0
  3  7  1  0  0  0  0
  5 22  1  0  0  0  0
  6  8  1  0  0  0  0
  7 18  1  0  0  0  0
  8 11  1  0  0  0  0
  9  7  1  0  0  0  0
  9 16  1  0  0  0  0
 10  6  1  0  0  0  0
 11 18  1  0  0  0  0
 11 15  1  0  0  0  0
 12 15  1  0  0  0  0
 13 17  2  0  0  0  0
 14 17  1  0  0  0  0
 14 10  1  0  0  0  0
 16  5  1  0  0  0  0
 17  3  1  0  0  0  0
 18 22  1  0  0  0  0
 19  6  1  0  0  0  0
 19  2  1  0  0  0  0
 20 12  2  0  0  0  0
 21  4  1  0  0  0  0
 21 26  1  0  0  0  0
 22  1  1  0  0  0  0
 22 21  1  0  0  0  0
 23  9  2  0  0  0  0
 25 24  1  0  0  0  0
 25  4  1  0  0  0  0
 26 27  1  0  0  0  0
 29 28  1  0  0  0  0
 29 27  1  0  0  0  0
 30 23  1  0  0  0  0
 31 32  1  0  0  0  0
 32 30  1  0  0  0  0
 33 32  2  0  0  0  0
 34 36  1  0  0  0  0
 35 37  1  0  0  0  0
 35 36  2  0  0  0  0
 36 33  1  0  0  0  0
 37 31  2  0  0  0  0
M  END
>  <MODEL>
1

>  <REMARK>
 VINA RESULT:      -5.0      0.000      0.000
  Name = 
  6 active torsions:
  status: ('A' for Active; 'I' for Inactive)
    1  A    between atoms: C_5  and  C_23
    2  A    between atoms: C_6  and  C_31
    3  A    between atoms: C_17  and  C_26
    4  A    between atoms: C_17  and  C_33
    5  A    between atoms: C_26  and  O_34
    6  A    between atoms: C_31  and  C_37
                            x       y       z     vdW  Elec       q    Type
                         _______ _______ _______ _____ _____    ______ ____

>  <TORSDO>
F 6

$$$$
=
 OpenBabel11062409103D

 37 43  0  0  1  0  0  0  0  0999 V2000
  160.4060  208.6180  151.3450 C   0  0  2  0  0  3  0  0  0  0  0  0
  162.0800  211.9790  156.9600 C   0  0  0  0  0  2  0  0  0  0  0  0
  158.7170  211.6050  154.4510 C   0  0  0  0  0  0  0  0  0  0  0  0
  160.9370  207.3270  151.9450 C   0  0  1  0  0  3  0  0  0  0  0  0
  161.1510  210.9750  150.9980 C   0  0  0  0  0  2  0  0  0  0  0  0
  159.6200  211.3230  156.7580 C   0  0  2  0  0  3  0  0  0  0  0  0
  158.9050  211.0980  153.0560 C   0  0  1  0  0  3  0  0  0  0  0  0
  159.6490  211.1220  155.2620 C   0  0  0  0  0  0  0  0  0  0  0  0
  159.2230  212.2110  152.0710 C   0  0  0  0  0  0  0  0  0  0  0  0
  158.2080  211.6660  157.2610 C   0  0  0  0  0  2  0  0  0  0  0  0
  160.5700  210.2770  154.4960 C   0  0  2  0  0  3  0  0  0  0  0  0
  162.2360  209.5950  156.3020 C   0  0  0  0  0  3  0  0  0  0  0  0
  156.6180  212.6980  154.2090 O   0  0  0  0  0  0  0  0  0  0  0  0
  157.5440  212.7570  156.4120 C   0  0  0  0  0  2  0  0  0  0  0  0
  161.9920  209.9270  154.8580 C   0  0  0  0  0  2  0  0  0  0  0  0
  160.6160  212.3310  151.4800 C   0  0  0  0  0  2  0  0  0  0  0  0
  157.5660  212.3640  154.9670 C   0  0  0  0  0  0  0  0  0  0  0  0
  160.1170  210.2270  153.2390 C   0  0  2  0  0  3  0  0  0  0  0  0
  160.6290  212.3690  157.2360 C   0  0  0  0  0  2  0  0  0  0  0  0
  162.3190  210.5280  157.2600 C   0  0  0  0  0  3  0  0  0  0  0  0
  161.7720  208.5860  152.0470 C   0  0  2  0  0  0  0  0  0  0  0  0
  160.9360  209.8630  152.0340 C   0  0  1  0  0  0  0  0  0  0  0  0
  158.2630  213.0870  151.7450 C   0  0  0  0  0  3  0  0  0  0  0  0
  161.1860  206.2730  154.1760 C   0  0  0  0  0  1  0  0  0  0  0  0
  160.2470  207.0380  153.2670 C   0  0  0  0  0  2  0  0  0  0  0  0
  162.9720  208.5730  151.0710 C   0  0  0  0  0  2  0  0  0  0  0  0
  162.8990  207.6450  149.8480 C   0  0  0  0  0  2  0  0  0  0  0  0
  161.6020  207.3130  148.0820 C   0  0  0  0  0  1  0  0  0  0  0  0
  162.3240  208.3010  148.7530 O   0  0  0  0  0  0  0  0  0  0  0  0
  158.4740  214.2000  150.7670 C   0  0  0  0  0  2  0  0  0  0  0  0
  157.2170  213.1210  148.9100 C   0  0  0  0  0  3  0  0  0  0  0  0
  158.4100  213.6840  149.3720 C   0  0  0  0  0  0  0  0  0  0  0  0
  159.5340  213.7200  148.5350 C   0  0  0  0  0  3  0  0  0  0  0  0
  160.5400  213.2250  146.4330 F   0  0  0  0  0  0  0  0  0  0  0  0
  158.2620  212.6280  146.7850 C   0  0  0  0  0  3  0  0  0  0  0  0
  159.4580  213.1890  147.2440 C   0  0  0  0  0  0  0  0  0  0  0  0
  157.1400  212.5970  147.6170 C   0  0  0  0  0  3  0  0  0  0  0  0
  1  4  1  0  0  0  0
  1 22  1  0  0  0  0
  1 21  1  0  0  0  0
  2 19  1  0  0  0  0
  2 20  1  0  0  0  0
  3 17  1  0  0  0  0
  3  8  2  0  0  0  0
  4 21  1  0  0  0  0
  4 25  1  0  0  0  0
  5 16  1  0  0  0  0
  5 22  1  0  0  0  0
  6 19  1  0  0  0  0
  6 10  1  0  0  0  0
  7 18  1  0  0  0  0
  7  3  1  0  0  0  0
  8  6  1  0  0  0  0
  9  7  1  0  0  0  0
 11 15  1  0  0  0  0
 11  8  1  0  0  0  0
 12 20  2  0  0  0  0
 13 17  2  0  0  0  0
 14 10  1  0  0  0  0
 15 12  1  0  0  0  0
 16  9  1  0  0  0  0
 17 14  1  0  0  0  0
 18 11  1  0  0  0  0
 22 21  1  0  0  0  0
 22 18  1  0  0  0  0
 23  9  2  0  0  0  0
 25 24  1  0  0  0  0
 26 21  1  0  0  0  0
 27 26  1  0  0  0  0
 28 29  1  0  0  0  0
 29 27  1  0  0  0  0
 30 23  1  0  0  0  0
 31 32  1  0  0  0  0
 32 30  1  0  0  0  0
 33 32  2  0  0  0  0
 34 36  1  0  0  0  0
 35 36  2  0  0  0  0
 35 37  1  0  0  0  0
 36 33  1  0  0  0  0
 37 31  2  0  0  0  0
M  END
>  <MODEL>
2

>  <REMARK>
 VINA RESULT:      -4.7      1.261      5.593
  Name = 
  6 active torsions:
  status: ('A' for Active; 'I' for Inactive)
    1  A    between atoms: C_5  and  C_23
    2  A    between atoms: C_6  and  C_31
    3  A    between atoms: C_17  and  C_26
    4  A    between atoms: C_17  and  C_33
    5  A    between atoms: C_26  and  O_34
    6  A    between atoms: C_31  and  C_37
                            x       y       z     vdW  Elec       q    Type
                         _______ _______ _______ _____ _____    ______ ____

>  <TORSDO>
F 6

$$$$
=
 OpenBabel11062409103D

 37 43  0  0  1  0  0  0  0  0999 V2000
  160.9530  211.2660  155.6260 C   0  0  2  0  0  3  0  0  0  0  0  0
  161.1280  208.0760  149.6740 C   0  0  0  0  0  2  0  0  0  0  0  0
  160.9980  212.0510  151.0650 C   0  0  0  0  0  0  0  0  0  0  0  0
  162.1130  210.4220  156.1250 C   0  0  1  0  0  3  0  0  0  0  0  0
  158.7380  210.9490  154.5170 C   0  0  0  0  0  2  0  0  0  0  0  0
  162.2640  210.3640  149.7350 C   0  0  2  0  0  3  0  0  0  0  0  0
  160.5210  212.3170  152.4580 C   0  0  1  0  0  3  0  0  0  0  0  0
  161.5460  210.8450  150.9720 C   0  0  0  0  0  0  0  0  0  0  0  0
  159.0120  212.4910  152.5320 C   0  0  0  0  0  0  0  0  0  0  0  0
  162.7270  211.5330  148.8510 C   0  0  0  0  0  2  0  0  0  0  0  0
  161.4610  210.1720  152.2710 C   0  0  2  0  0  3  0  0  0  0  0  0
  162.5060  207.9110  151.7250 C   0  0  0  0  0  3  0  0  0  0  0  0
  160.6760  214.2030  150.1040 O   0  0  0  0  0  0  0  0  0  0  0  0
  161.6160  212.5680  148.6360 C   0  0  0  0  0  2  0  0  0  0  0  0
  161.4980  208.6860  152.5250 C   0  0  0  0  0  2  0  0  0  0  0  0
  158.1530  211.4190  153.1780 C   0  0  0  0  0  2  0  0  0  0  0  0
  161.0740  213.0180  149.9570 C   0  0  0  0  0  0  0  0  0  0  0  0
  160.9140  211.0340  153.1340 C   0  0  2  0  0  3  0  0  0  0  0  0
  161.4370  209.3690  148.9180 C   0  0  0  0  0  2  0  0  0  0  0  0
  162.3260  207.5930  150.4370 C   0  0  0  0  0  3  0  0  0  0  0  0
  160.9620  209.7440  155.4120 C   0  0  2  0  0  0  0  0  0  0  0  0
  160.2430  210.6620  154.4260 C   0  0  1  0  0  0  0  0  0  0  0  0
  158.4560  213.5910  152.0080 C   0  0  0  0  0  3  0  0  0  0  0  0
  164.3770  211.3990  155.8630 C   0  0  0  0  0  1  0  0  0  0  0  0
  163.3050  210.5620  155.1960 C   0  0  0  0  0  2  0  0  0  0  0  0
  160.0410  208.9750  156.3890 C   0  0  0  0  0  2  0  0  0  0  0  0
  159.2830  207.7490  155.8540 C   0  0  0  0  0  2  0  0  0  0  0  0
  160.7730  206.6700  157.0900 C   0  0  0  0  0  1  0  0  0  0  0  0
  160.0950  206.6090  155.8710 O   0  0  0  0  0  0  0  0  0  0  0  0
  156.9850  213.8610  152.0550 C   0  0  0  0  0  2  0  0  0  0  0  0
  155.0920  214.3440  150.5130 C   0  0  0  0  0  3  0  0  0  0  0  0
  156.4400  214.0090  150.6780 C   0  0  0  0  0  0  0  0  0  0  0  0
  157.2440  213.7800  149.5540 C   0  0  0  0  0  3  0  0  0  0  0  0
  157.4700  213.6660  147.1840 F   0  0  0  0  0  0  0  0  0  0  0  0
  155.3480  214.2210  148.1100 C   0  0  0  0  0  3  0  0  0  0  0  0
  156.6950  213.8840  148.2720 C   0  0  0  0  0  0  0  0  0  0  0  0
  154.5470  214.4530  149.2310 C   0  0  0  0  0  3  0  0  0  0  0  0
  1  4  1  0  0  0  0
  2 20  1  0  0  0  0
  3  7  1  0  0  0  0
  6  8  1  0  0  0  0
  7  9  1  0  0  0  0
  7 18  1  0  0  0  0
  8  3  2  0  0  0  0
  8 11  1  0  0  0  0
  9 16  1  0  0  0  0
 10  6  1  0  0  0  0
 11 15  1  0  0  0  0
 11 18  1  0  0  0  0
 12 15  1  0  0  0  0
 14 10  1  0  0  0  0
 14 17  1  0  0  0  0
 16  5  1  0  0  0  0
 17 13  2  0  0  0  0
 17  3  1  0  0  0  0
 18 22  1  0  0  0  0
 19  2  1  0  0  0  0
 19  6  1  0  0  0  0
 20 12  2  0  0  0  0
 21  1  1  0  0  0  0
 21  4  1  0  0  0  0
 21 26  1  0  0  0  0
 22  5  1  0  0  0  0
 22 21  1  0  0  0  0
 22  1  1  0  0  0  0
 23 30  1  0  0  0  0
 23  9  2  0  0  0  0
 25 24  1  0  0  0  0
 25  4  1  0  0  0  0
 27 29  1  0  0  0  0
 27 26  1  0  0  0  0
 29 28  1  0  0  0  0
 31 32  1  0  0  0  0
 32 30  1  0  0  0  0
 33 32  2  0  0  0  0
 34 36  1  0  0  0  0
 35 36  2  0  0  0  0
 35 37  1  0  0  0  0
 36 33  1  0  0  0  0
 37 31  2  0  0  0  0
M  END
>  <MODEL>
3

>  <REMARK>
 VINA RESULT:      -4.0      2.089      2.957
  Name = 
  6 active torsions:
  status: ('A' for Active; 'I' for Inactive)
    1  A    between atoms: C_5  and  C_23
    2  A    between atoms: C_6  and  C_31
    3  A    between atoms: C_17  and  C_26
    4  A    between atoms: C_17  and  C_33
    5  A    between atoms: C_26  and  O_34
    6  A    between atoms: C_31  and  C_37
                            x       y       z     vdW  Elec       q    Type
                         _______ _______ _______ _____ _____    ______ ____

>  <TORSDO>
F 6

$$$$
=
 OpenBabel11062409103D

 37 43  0  0  1  0  0  0  0  0999 V2000
  160.9810  211.3690  155.4400 C   0  0  2  0  0  3  0  0  0  0  0  0
  161.1040  207.8240  149.6910 C   0  0  0  0  0  2  0  0  0  0  0  0
  160.9610  211.8750  150.8390 C   0  0  0  0  0  0  0  0  0  0  0  0
  162.1530  210.5650  155.9740 C   0  0  1  0  0  3  0  0  0  0  0  0
  158.7540  210.9690  154.3820 C   0  0  0  0  0  2  0  0  0  0  0  0
  162.2230  210.1190  149.5980 C   0  0  2  0  0  3  0  0  0  0  0  0
  160.5000  212.2230  152.2200 C   0  0  1  0  0  3  0  0  0  0  0  0
  161.5170  210.6700  150.8130 C   0  0  0  0  0  0  0  0  0  0  0  0
  158.9910  212.3890  152.3030 C   0  0  0  0  0  0  0  0  0  0  0  0
  162.6650  211.2350  148.6390 C   0  0  0  0  0  2  0  0  0  0  0  0
  161.4540  210.0770  152.1510 C   0  0  2  0  0  3  0  0  0  0  0  0
  162.5090  207.7940  151.7310 C   0  0  0  0  0  3  0  0  0  0  0  0
  160.6100  213.9620  149.7540 O   0  0  0  0  0  0  0  0  0  0  0  0
  161.5440  212.2470  148.3750 C   0  0  0  0  0  2  0  0  0  0  0  0
  161.5050  208.6090  152.4950 C   0  0  0  0  0  2  0  0  0  0  0  0
  158.1490  211.3530  153.0250 C   0  0  0  0  0  2  0  0  0  0  0  0
  161.0150  212.7740  149.6740 C   0  0  0  0  0  0  0  0  0  0  0  0
  160.9110  210.9850  152.9680 C   0  0  2  0  0  3  0  0  0  0  0  0
  161.3930  209.0700  148.8550 C   0  0  0  0  0  2  0  0  0  0  0  0
  162.3150  207.3970  150.4660 C   0  0  0  0  0  3  0  0  0  0  0  0
  160.9980  209.8370  155.3190 C   0  0  2  0  0  0  0  0  0  0  0  0
  160.2600  210.6880  154.2890 C   0  0  1  0  0  0  0  0  0  0  0  0
  158.4190  213.4520  151.7210 C   0  0  0  0  0  3  0  0  0  0  0  0
  164.4770  211.3850  155.6960 C   0  0  0  0  0  1  0  0  0  0  0  0
  163.3320  210.6570  155.0230 C   0  0  0  0  0  2  0  0  0  0  0  0
  160.0960  209.1220  156.3530 C   0  0  0  0  0  2  0  0  0  0  0  0
  160.2200  207.5960  156.4880 C   0  0  0  0  0  2  0  0  0  0  0  0
  160.4690  206.4050  154.6370 C   0  0  0  0  0  1  0  0  0  0  0  0
  159.4980  206.9420  155.4840 O   0  0  0  0  0  0  0  0  0  0  0  0
  156.9470  213.7140  151.7710 C   0  0  0  0  0  2  0  0  0  0  0  0
  157.4890  214.1350  154.1640 C   0  0  0  0  0  3  0  0  0  0  0  0
  156.5170  213.9980  153.1680 C   0  0  0  0  0  0  0  0  0  0  0  0
  155.1590  214.0900  153.5020 C   0  0  0  0  0  3  0  0  0  0  0  0
  153.4730  214.4070  155.1560 F   0  0  0  0  0  0  0  0  0  0  0  0
  155.7580  214.4530  155.8230 C   0  0  0  0  0  3  0  0  0  0  0  0
  154.7830  214.3140  154.8300 C   0  0  0  0  0  0  0  0  0  0  0  0
  157.1120  214.3660  155.4890 C   0  0  0  0  0  3  0  0  0  0  0  0
  1  4  1  0  0  0  0
  2 20  1  0  0  0  0
  3  7  1  0  0  0  0
  6  8  1  0  0  0  0
  7  9  1  0  0  0  0
  7 18  1  0  0  0  0
  8  3  2  0  0  0  0
  8 11  1  0  0  0  0
  9 16  1  0  0  0  0
 10  6  1  0  0  0  0
 11 15  1  0  0  0  0
 11 18  1  0  0  0  0
 12 15  1  0  0  0  0
 14 10  1  0  0  0  0
 14 17  1  0  0  0  0
 16  5  1  0  0  0  0
 17 13  2  0  0  0  0
 17  3  1  0  0  0  0
 18 22  1  0  0  0  0
 19  6  1  0  0  0  0
 19  2  1  0  0  0  0
 20 12  2  0  0  0  0
 21  1  1  0  0  0  0
 21  4  1  0  0  0  0
 21 26  1  0  0  0  0
 22  5  1  0  0  0  0
 22 21  1  0  0  0  0
 22  1  1  0  0  0  0
 23 30  1  0  0  0  0
 23  9  2  0  0  0  0
 25 24  1  0  0  0  0
 25  4  1  0  0  0  0
 26 27  1  0  0  0  0
 28 29  1  0  0  0  0
 29 27  1  0  0  0  0
 30 32  1  0  0  0  0
 31 37  1  0  0  0  0
 32 33  1  0  0  0  0
 32 31  2  0  0  0  0
 33 36  2  0  0  0  0
 36 34  1  0  0  0  0
 36 35  1  0  0  0  0
 37 35  2  0  0  0  0
M  END
>  <MODEL>
4

>  <REMARK>
 VINA RESULT:      -4.0      2.817      4.458
  Name = 
  6 active torsions:
  status: ('A' for Active; 'I' for Inactive)
    1  A    between atoms: C_5  and  C_23
    2  A    between atoms: C_6  and  C_31
    3  A    between atoms: C_17  and  C_26
    4  A    between atoms: C_17  and  C_33
    5  A    between atoms: C_26  and  O_34
    6  A    between atoms: C_31  and  C_37
                            x       y       z     vdW  Elec       q    Type
                         _______ _______ _______ _____ _____    ______ ____

>  <TORSDO>
F 6

$$$$
