=
 OpenBabel11052422383D

 31 35  0  0  1  0  0  0  0  0999 V2000
  161.2630  200.6790  148.3560 C   0  0  0  0  0  0  0  0  0  0  0  0
  161.0570  204.3210  148.8320 C   0  0  0  0  0  0  0  0  0  0  0  0
  161.1610  204.8590  147.4050 C   0  0  2  0  0  3  0  0  0  0  0  0
  162.3450  204.2800  145.2760 C   0  0  0  0  0  3  0  0  0  0  0  0
  161.0950  202.9340  149.1110 C   0  0  0  0  0  0  0  0  0  0  0  0
  161.1890  200.2050  149.6660 C   0  0  0  0  0  3  0  0  0  0  0  0
  162.2500  204.1920  146.6120 C   0  0  0  0  0  3  0  0  0  0  0  0
  160.7340  204.7610  151.2240 C   0  0  0  0  0  0  0  0  0  0  0  0
  161.3940  199.7620  147.2770 N   0  0  0  0  0  1  0  0  0  0  0  0
  160.4180  207.1010  148.2740 C   0  0  0  0  0  2  0  0  0  0  0  0
  161.3820  205.0000  144.3540 C   0  0  0  0  0  2  0  0  0  0  0  0
  160.8360  203.3910  151.4860 C   0  0  0  0  0  3  0  0  0  0  0  0
  160.8050  205.2200  149.8990 C   0  0  0  0  0  0  0  0  0  0  0  0
  161.2140  202.0150  148.1100 N   0  0  0  0  0  0  0  0  0  0  0  0
  160.5400  206.1250  144.9710 C   0  0  0  0  0  2  0  0  0  0  0  0
  161.0000  202.4820  150.4460 C   0  0  0  0  0  0  0  0  0  0  0  0
  161.0560  201.1140  150.7150 C   0  0  0  0  0  3  0  0  0  0  0  0
  160.6090  206.6140  149.6310 N   0  0  0  0  0  2  0  0  0  0  0  0
  161.3910  206.3870  147.3560 C   0  0  2  0  0  3  0  0  0  0  0  0
  161.3360  206.9890  145.9450 C   0  0  0  0  0  2  0  0  0  0  0  0
  162.7120  206.5310  152.4970 O   0  0  0  0  0  0  0  0  0  0  0  0
  161.5150  206.5580  152.8930 C   0  0  0  0  0  0  0  0  0  0  0  0
  160.5290  205.7090  152.2850 N   0  0  0  0  0  2  0  0  0  0  0  0
  160.3270  209.1330  156.1140 C   0  0  0  0  0  0  0  0  0  0  0  0
  160.5550  206.9250  155.1560 C   0  0  0  0  0  3  0  0  0  0  0  0
  161.8110  209.4480  152.7950 F   0  0  0  0  0  0  0  0  0  0  0  0
  159.9110  210.0130  157.2380 C   0  0  0  0  0  1  0  0  0  0  0  0
  160.1630  207.7500  156.2120 C   0  0  0  0  0  3  0  0  0  0  0  0
  161.2760  208.8690  153.8990 C   0  0  0  0  0  0  0  0  0  0  0  0
  161.1140  207.4690  153.9890 C   0  0  0  0  0  0  0  0  0  0  0  0
  160.8820  209.6900  154.9610 C   0  0  0  0  0  3  0  0  0  0  0  0
  1  6  1  0  0  0  0
  2  5  2  0  0  0  0
  2 13  1  0  0  0  0
  3  7  1  1  0  0  0
  3  2  1  0  0  0  0
  4  7  2  0  0  0  0
  5 16  1  0  0  0  0
  6 17  2  0  0  0  0
  8 12  1  0  0  0  0
  8 23  1  0  0  0  0
  9  1  1  0  0  0  0
 10 18  1  0  0  0  0
 11 15  1  0  0  0  0
 11  4  1  0  0  0  0
 13  8  2  0  0  0  0
 14  1  2  0  0  0  0
 14  5  1  0  0  0  0
 15 20  1  0  0  0  0
 16 17  1  0  0  0  0
 16 12  2  0  0  0  0
 18 13  1  0  0  0  0
 19 20  1  6  0  0  0
 19  3  1  0  0  0  0
 19 10  1  0  0  0  0
 21 22  2  0  0  0  0
 22 30  1  0  0  0  0
 23 22  1  0  0  0  0
 24 28  1  0  0  0  0
 24 27  1  0  0  0  0
 25 28  2  0  0  0  0
 26 29  1  0  0  0  0
 29 30  2  0  0  0  0
 29 31  1  0  0  0  0
 30 25  1  0  0  0  0
 31 24  2  0  0  0  0
M  END
>  <MODEL>
1

>  <REMARK>
 VINA RESULT:      -8.9      0.000      0.000
  Name = 
  2 active torsions:
  status: ('A' for Active; 'I' for Inactive)
    1  A    between atoms: C_9  and  C_22
    2  A    between atoms: C_15  and  N_23
                            x       y       z     vdW  Elec       q    Type
                         _______ _______ _______ _____ _____    ______ ____

>  <TORSDO>
F 2

$$$$
=
 OpenBabel11052422383D

 31 35  0  0  1  0  0  0  0  0999 V2000
  161.0040  207.8050  154.4360 C   0  0  0  0  0  0  0  0  0  0  0  0
  161.3930  207.4040  150.7990 C   0  0  0  0  0  0  0  0  0  0  0  0
  161.2120  205.8990  150.6000 C   0  0  2  0  0  3  0  0  0  0  0  0
  161.7530  203.7790  151.8180 C   0  0  0  0  0  3  0  0  0  0  0  0
  161.3190  208.0000  152.0800 C   0  0  0  0  0  0  0  0  0  0  0  0
  161.1940  209.1770  154.6030 C   0  0  0  0  0  3  0  0  0  0  0  0
  161.9780  205.0850  151.6050 C   0  0  0  0  0  3  0  0  0  0  0  0
  161.7270  209.6280  149.8180 C   0  0  0  0  0  0  0  0  0  0  0  0
  160.7470  206.9810  155.5660 N   0  0  0  0  0  1  0  0  0  0  0  0
  161.0010  206.3260  148.1290 C   0  0  0  0  0  2  0  0  0  0  0  0
  160.6940  202.9300  151.1420 C   0  0  0  0  0  2  0  0  0  0  0  0
  161.7120  210.1910  151.0970 C   0  0  0  0  0  3  0  0  0  0  0  0
  161.5290  208.2460  149.6660 C   0  0  0  0  0  0  0  0  0  0  0  0
  161.0690  207.2540  153.1940 N   0  0  0  0  0  0  0  0  0  0  0  0
  160.1810  203.4140  149.7790 C   0  0  0  0  0  2  0  0  0  0  0  0
  161.4980  209.3950  152.2180 C   0  0  0  0  0  0  0  0  0  0  0  0
  161.4400  209.9750  153.4860 C   0  0  0  0  0  3  0  0  0  0  0  0
  161.4550  207.6900  148.3470 N   0  0  0  0  0  2  0  0  0  0  0  0
  161.6190  205.4290  149.1840 C   0  0  2  0  0  3  0  0  0  0  0  0
  161.2970  203.9570  148.8910 C   0  0  0  0  0  2  0  0  0  0  0  0
  160.8520  212.4020  149.3680 O   0  0  0  0  0  0  0  0  0  0  0  0
  161.4680  211.7940  148.4520 C   0  0  0  0  0  0  0  0  0  0  0  0
  161.9120  210.4410  148.6480 N   0  0  0  0  0  2  0  0  0  0  0  0
  162.3460  213.7670  144.7430 C   0  0  0  0  0  0  0  0  0  0  0  0
  163.0390  212.9500  146.9110 C   0  0  0  0  0  3  0  0  0  0  0  0
  159.4790  212.2070  146.3730 F   0  0  0  0  0  0  0  0  0  0  0  0
  162.6650  214.4530  143.4640 C   0  0  0  0  0  1  0  0  0  0  0  0
  163.3400  213.5950  145.7090 C   0  0  0  0  0  3  0  0  0  0  0  0
  160.7460  212.6500  146.1820 C   0  0  0  0  0  0  0  0  0  0  0  0
  161.7440  212.4710  147.1640 C   0  0  0  0  0  0  0  0  0  0  0  0
  161.0540  213.2970  144.9800 C   0  0  0  0  0  3  0  0  0  0  0  0
  1  6  1  0  0  0  0
  1  9  1  0  0  0  0
  2  5  1  0  0  0  0
  3  2  1  0  0  0  0
  3  7  1  1  0  0  0
  5 16  2  0  0  0  0
  5 14  1  0  0  0  0
  7  4  2  0  0  0  0
  8 12  2  0  0  0  0
 10 18  1  0  0  0  0
 11  4  1  0  0  0  0
 12 16  1  0  0  0  0
 13  8  1  0  0  0  0
 13  2  2  0  0  0  0
 14  1  2  0  0  0  0
 15 11  1  0  0  0  0
 16 17  1  0  0  0  0
 17  6  2  0  0  0  0
 18 13  1  0  0  0  0
 19 10  1  6  0  0  0
 19  3  1  0  0  0  0
 20 19  1  0  0  0  0
 20 15  1  0  0  0  0
 22 23  1  0  0  0  0
 22 21  2  0  0  0  0
 23  8  1  0  0  0  0
 24 31  2  0  0  0  0
 24 28  1  0  0  0  0
 25 30  1  0  0  0  0
 27 24  1  0  0  0  0
 28 25  2  0  0  0  0
 29 26  1  0  0  0  0
 29 30  2  0  0  0  0
 30 22  1  0  0  0  0
 31 29  1  0  0  0  0
M  END
>  <MODEL>
2

>  <REMARK>
 VINA RESULT:      -8.9      4.064      7.844
  Name = 
  2 active torsions:
  status: ('A' for Active; 'I' for Inactive)
    1  A    between atoms: C_9  and  C_22
    2  A    between atoms: C_15  and  N_23
                            x       y       z     vdW  Elec       q    Type
                         _______ _______ _______ _____ _____    ______ ____

>  <TORSDO>
F 2

$$$$
=
 OpenBabel11052422383D

 31 35  0  0  1  0  0  0  0  0999 V2000
  162.0210  205.2180  146.2880 C   0  0  0  0  0  0  0  0  0  0  0  0
  161.1660  205.2110  149.8660 C   0  0  0  0  0  0  0  0  0  0  0  0
  161.1380  203.7210  150.2080 C   0  0  2  0  0  3  0  0  0  0  0  0
  160.4890  201.5680  149.1090 C   0  0  0  0  0  3  0  0  0  0  0  0
  161.4610  205.6700  148.5610 C   0  0  0  0  0  0  0  0  0  0  0  0
  162.0200  206.5800  145.9870 C   0  0  0  0  0  3  0  0  0  0  0  0
  160.4010  202.9040  149.1840 C   0  0  0  0  0  3  0  0  0  0  0  0
  160.9930  207.5420  150.6140 C   0  0  0  0  0  0  0  0  0  0  0  0
  162.3060  204.2660  145.2700 N   0  0  0  0  0  1  0  0  0  0  0  0
  161.1110  204.3570  152.6440 C   0  0  0  0  0  2  0  0  0  0  0  0
  161.3510  200.6750  149.9800 C   0  0  0  0  0  2  0  0  0  0  0  0
  161.2250  207.9750  149.3050 C   0  0  0  0  0  3  0  0  0  0  0  0
  161.0020  206.1670  150.9010 C   0  0  0  0  0  0  0  0  0  0  0  0
  161.7450  204.7980  147.5520 N   0  0  0  0  0  0  0  0  0  0  0  0
  161.7560  201.2270  151.3530 C   0  0  0  0  0  2  0  0  0  0  0  0
  161.4700  207.0560  148.2890 C   0  0  0  0  0  0  0  0  0  0  0  0
  161.7450  207.5030  146.9950 C   0  0  0  0  0  3  0  0  0  0  0  0
  160.8540  205.7350  152.2590 N   0  0  0  0  0  2  0  0  0  0  0  0
  160.5150  203.4370  151.5950 C   0  0  2  0  0  3  0  0  0  0  0  0
  160.6200  201.9730  152.0460 C   0  0  0  0  0  2  0  0  0  0  0  0
  162.7390  209.7400  151.4980 O   0  0  0  0  0  0  0  0  0  0  0  0
  161.6470  209.5420  152.0960 C   0  0  0  0  0  0  0  0  0  0  0  0
  160.7740  208.4790  151.6810 N   0  0  0  0  0  2  0  0  0  0  0  0
  160.5650  212.0080  155.4370 C   0  0  0  0  0  0  0  0  0  0  0  0
  161.9460  210.2880  154.4470 C   0  0  0  0  0  3  0  0  0  0  0  0
  159.4990  211.4970  151.9850 F   0  0  0  0  0  0  0  0  0  0  0  0
  160.2010  212.8550  156.6030 C   0  0  0  0  0  1  0  0  0  0  0  0
  161.6050  211.0840  155.5440 C   0  0  0  0  0  3  0  0  0  0  0  0
  160.2020  211.3420  153.1350 C   0  0  0  0  0  0  0  0  0  0  0  0
  161.2530  210.4050  153.2330 C   0  0  0  0  0  0  0  0  0  0  0  0
  159.8650  212.1360  154.2360 C   0  0  0  0  0  3  0  0  0  0  0  0
  1 14  1  0  0  0  0
  2  3  1  0  0  0  0
  2 13  2  0  0  0  0
  3  7  1  6  0  0  0
  3 19  1  0  0  0  0
  4  7  2  0  0  0  0
  4 11  1  0  0  0  0
  5  2  1  0  0  0  0
  6  1  2  0  0  0  0
  6 17  1  0  0  0  0
  8 13  1  0  0  0  0
  8 23  1  0  0  0  0
  9  1  1  0  0  0  0
 11 15  1  0  0  0  0
 12  8  2  0  0  0  0
 13 18  1  0  0  0  0
 14  5  2  0  0  0  0
 15 20  1  0  0  0  0
 16  5  1  0  0  0  0
 16 12  1  0  0  0  0
 17 16  2  0  0  0  0
 18 10  1  0  0  0  0
 19 20  1  1  0  0  0
 19 10  1  0  0  0  0
 21 22  2  0  0  0  0
 22 30  1  0  0  0  0
 23 22  1  0  0  0  0
 24 28  1  0  0  0  0
 24 27  1  0  0  0  0
 25 28  2  0  0  0  0
 26 29  1  0  0  0  0
 29 30  2  0  0  0  0
 29 31  1  0  0  0  0
 30 25  1  0  0  0  0
 31 24  2  0  0  0  0
M  END
>  <MODEL>
3

>  <REMARK>
 VINA RESULT:      -7.0      2.153      4.533
  Name = 
  2 active torsions:
  status: ('A' for Active; 'I' for Inactive)
    1  A    between atoms: C_9  and  C_22
    2  A    between atoms: C_15  and  N_23
                            x       y       z     vdW  Elec       q    Type
                         _______ _______ _______ _____ _____    ______ ____

>  <TORSDO>
F 2

$$$$
=
 OpenBabel11052422383D

 31 35  0  0  1  0  0  0  0  0999 V2000
  161.1460  210.5440  154.5040 C   0  0  0  0  0  0  0  0  0  0  0  0
  161.3630  209.4320  151.0040 C   0  0  0  0  0  0  0  0  0  0  0  0
  161.4800  210.7470  150.2340 C   0  0  2  0  0  3  0  0  0  0  0  0
  160.6080  213.0880  150.3980 C   0  0  0  0  0  3  0  0  0  0  0  0
  161.2530  209.4010  152.4140 C   0  0  0  0  0  0  0  0  0  0  0  0
  161.0160  209.3360  155.1900 C   0  0  0  0  0  3  0  0  0  0  0  0
  160.5050  211.7870  150.7080 C   0  0  0  0  0  3  0  0  0  0  0  0
  161.3410  206.9780  150.9800 C   0  0  0  0  0  0  0  0  0  0  0  0
  161.1530  211.7710  155.2230 N   0  0  0  0  0  1  0  0  0  0  0  0
  162.1390  209.4140  148.2030 C   0  0  0  0  0  2  0  0  0  0  0  0
  161.7110  213.7300  149.5810 C   0  0  0  0  0  2  0  0  0  0  0  0
  161.1720  206.9700  152.3680 C   0  0  0  0  0  3  0  0  0  0  0  0
  161.4750  208.2030  150.3050 C   0  0  0  0  0  0  0  0  0  0  0  0
  161.2600  210.5500  153.1490 N   0  0  0  0  0  0  0  0  0  0  0  0
  162.4800  212.8190  148.6140 C   0  0  0  0  0  2  0  0  0  0  0  0
  161.1400  208.1630  153.0840 C   0  0  0  0  0  0  0  0  0  0  0  0
  161.0150  208.1400  154.4740 C   0  0  0  0  0  3  0  0  0  0  0  0
  161.7400  208.2000  148.8970 N   0  0  0  0  0  2  0  0  0  0  0  0
  161.2940  210.5670  148.7090 C   0  0  2  0  0  3  0  0  0  0  0  0
  161.5700  211.8330  147.8860 C   0  0  0  0  0  2  0  0  0  0  0  0
  159.9700  204.4300  151.5180 O   0  0  0  0  0  0  0  0  0  0  0  0
  160.7350  204.5200  150.5190 C   0  0  0  0  0  0  0  0  0  0  0  0
  161.4110  205.7540  150.2310 N   0  0  0  0  0  2  0  0  0  0  0  0
  161.3180  201.0860  148.0120 C   0  0  0  0  0  0  0  0  0  0  0  0
  160.8760  202.0620  150.1790 C   0  0  0  0  0  3  0  0  0  0  0  0
  161.2690  204.7190  147.6690 F   0  0  0  0  0  0  0  0  0  0  0  0
  161.5190  199.8880  147.1560 C   0  0  0  0  0  1  0  0  0  0  0  0
  161.0640  200.9350  149.3760 C   0  0  0  0  0  3  0  0  0  0  0  0
  161.1970  203.4960  148.2510 C   0  0  0  0  0  0  0  0  0  0  0  0
  160.9400  203.3530  149.6310 C   0  0  0  0  0  0  0  0  0  0  0  0
  161.3850  202.3630  147.4520 C   0  0  0  0  0  3  0  0  0  0  0  0
  1  6  1  0  0  0  0
  1  9  1  0  0  0  0
  2  5  1  0  0  0  0
  3  7  1  1  0  0  0
  3  2  1  0  0  0  0
  4  7  2  0  0  0  0
  5 16  2  0  0  0  0
  5 14  1  0  0  0  0
  8 12  2  0  0  0  0
 10 19  1  0  0  0  0
 10 18  1  0  0  0  0
 11  4  1  0  0  0  0
 12 16  1  0  0  0  0
 13  8  1  0  0  0  0
 13  2  2  0  0  0  0
 14  1  2  0  0  0  0
 15 11  1  0  0  0  0
 16 17  1  0  0  0  0
 17  6  2  0  0  0  0
 18 13  1  0  0  0  0
 19 20  1  6  0  0  0
 19  3  1  0  0  0  0
 20 15  1  0  0  0  0
 22 21  2  0  0  0  0
 23 22  1  0  0  0  0
 23  8  1  0  0  0  0
 24 28  1  0  0  0  0
 26 29  1  0  0  0  0
 27 24  1  0  0  0  0
 28 25  2  0  0  0  0
 29 30  2  0  0  0  0
 30 25  1  0  0  0  0
 30 22  1  0  0  0  0
 31 24  2  0  0  0  0
 31 29  1  0  0  0  0
M  END
>  <MODEL>
4

>  <REMARK>
 VINA RESULT:      -6.7      3.425      8.005
  Name = 
  2 active torsions:
  status: ('A' for Active; 'I' for Inactive)
    1  A    between atoms: C_9  and  C_22
    2  A    between atoms: C_15  and  N_23
                            x       y       z     vdW  Elec       q    Type
                         _______ _______ _______ _____ _____    ______ ____

>  <TORSDO>
F 2

$$$$
=
 OpenBabel11052422383D

 31 35  0  0  1  0  0  0  0  0999 V2000
  161.3500  212.4270  150.1650 C   0  0  0  0  0  0  0  0  0  0  0  0
  161.2550  209.0650  151.6550 C   0  0  0  0  0  0  0  0  0  0  0  0
  161.0030  209.3540  153.1350 C   0  0  2  0  0  3  0  0  0  0  0  0
  161.6280  211.0880  154.8290 C   0  0  0  0  0  3  0  0  0  0  0  0
  161.3650  210.1040  150.7010 C   0  0  0  0  0  0  0  0  0  0  0  0
  161.6030  212.1480  148.8210 C   0  0  0  0  0  3  0  0  0  0  0  0
  161.8650  210.4650  153.6640 C   0  0  0  0  0  3  0  0  0  0  0  0
  161.5300  207.4230  149.8530 C   0  0  0  0  0  0  0  0  0  0  0  0
  161.2140  213.7750  150.5950 N   0  0  0  0  0  1  0  0  0  0  0  0
  160.4890  206.9100  153.4480 C   0  0  0  0  0  2  0  0  0  0  0  0
  160.4650  210.8270  155.7650 C   0  0  0  0  0  2  0  0  0  0  0  0
  161.6970  208.4650  148.9350 C   0  0  0  0  0  3  0  0  0  0  0  0
  161.2710  207.7220  151.2000 C   0  0  0  0  0  0  0  0  0  0  0  0
  161.2370  211.4130  151.0630 N   0  0  0  0  0  0  0  0  0  0  0  0
  159.7970  209.4480  155.6750 C   0  0  0  0  0  2  0  0  0  0  0  0
  161.6040  209.7900  149.3450 C   0  0  0  0  0  0  0  0  0  0  0  0
  161.7280  210.8210  148.4110 C   0  0  0  0  0  3  0  0  0  0  0  0
  161.0100  206.6510  152.1160 N   0  0  0  0  0  2  0  0  0  0  0  0
  161.2090  208.1110  154.0310 C   0  0  2  0  0  3  0  0  0  0  0  0
  160.8050  208.3170  155.4980 C   0  0  0  0  0  2  0  0  0  0  0  0
  160.0850  206.1200  147.6440 O   0  0  0  0  0  0  0  0  0  0  0  0
  160.8670  205.4350  148.3580 C   0  0  0  0  0  0  0  0  0  0  0  0
  161.5890  206.0480  149.4380 N   0  0  0  0  0  2  0  0  0  0  0  0
  161.4160  201.2680  147.4930 C   0  0  0  0  0  0  0  0  0  0  0  0
  161.3990  203.5820  146.7910 C   0  0  0  0  0  3  0  0  0  0  0  0
  160.5500  203.3520  150.3600 F   0  0  0  0  0  0  0  0  0  0  0  0
  161.6080  199.8280  147.1780 C   0  0  0  0  0  1  0  0  0  0  0  0
  161.5800  202.2290  146.4930 C   0  0  0  0  0  3  0  0  0  0  0  0
  160.8850  203.0120  149.0900 C   0  0  0  0  0  0  0  0  0  0  0  0
  161.0500  203.9910  148.0870 C   0  0  0  0  0  0  0  0  0  0  0  0
  161.0690  201.6590  148.7860 C   0  0  0  0  0  3  0  0  0  0  0  0
  1  9  1  0  0  0  0
  1 14  1  0  0  0  0
  2  3  1  0  0  0  0
  3  7  1  1  0  0  0
  3 19  1  0  0  0  0
  4 11  1  0  0  0  0
  5 14  2  0  0  0  0
  5  2  1  0  0  0  0
  6  1  2  0  0  0  0
  7  4  2  0  0  0  0
  8 13  1  0  0  0  0
 12 16  1  0  0  0  0
 12  8  2  0  0  0  0
 13  2  2  0  0  0  0
 13 18  1  0  0  0  0
 15 11  1  0  0  0  0
 16  5  1  0  0  0  0
 17  6  1  0  0  0  0
 17 16  2  0  0  0  0
 18 10  1  0  0  0  0
 19 10  1  6  0  0  0
 19 20  1  0  0  0  0
 20 15  1  0  0  0  0
 21 22  2  0  0  0  0
 22 23  1  0  0  0  0
 23  8  1  0  0  0  0
 24 31  1  0  0  0  0
 25 30  2  0  0  0  0
 27 24  1  0  0  0  0
 28 25  1  0  0  0  0
 28 24  2  0  0  0  0
 29 26  1  0  0  0  0
 30 22  1  0  0  0  0
 30 29  1  0  0  0  0
 31 29  2  0  0  0  0
M  END
>  <MODEL>
5

>  <REMARK>
 VINA RESULT:      -6.6      3.046      8.968
  Name = 
  2 active torsions:
  status: ('A' for Active; 'I' for Inactive)
    1  A    between atoms: C_9  and  C_22
    2  A    between atoms: C_15  and  N_23
                            x       y       z     vdW  Elec       q    Type
                         _______ _______ _______ _____ _____    ______ ____

>  <TORSDO>
F 2

$$$$
=
 OpenBabel11052422383D

 31 35  0  0  1  0  0  0  0  0999 V2000
  161.3750  205.3390  145.1960 C   0  0  0  0  0  0  0  0  0  0  0  0
  160.9500  204.3010  148.7000 C   0  0  0  0  0  0  0  0  0  0  0  0
  161.0760  202.7790  148.6230 C   0  0  2  0  0  3  0  0  0  0  0  0
  160.4680  200.9350  147.0420 C   0  0  0  0  0  3  0  0  0  0  0  0
  161.0530  205.1160  147.5480 C   0  0  0  0  0  0  0  0  0  0  0  0
  161.2350  206.7250  145.2800 C   0  0  0  0  0  3  0  0  0  0  0  0
  160.2880  202.1880  147.4880 C   0  0  0  0  0  3  0  0  0  0  0  0
  160.6890  206.3210  150.0680 C   0  0  0  0  0  0  0  0  0  0  0  0
  161.6100  204.7250  143.9360 N   0  0  0  0  0  1  0  0  0  0  0  0
  161.2870  202.7440  151.1310 C   0  0  0  0  0  2  0  0  0  0  0  0
  161.4920  199.9410  147.5530 C   0  0  0  0  0  2  0  0  0  0  0  0
  160.7320  207.1050  148.9110 C   0  0  0  0  0  3  0  0  0  0  0  0
  160.8360  204.9280  149.9670 C   0  0  0  0  0  0  0  0  0  0  0  0
  161.2830  204.5750  146.3170 N   0  0  0  0  0  0  0  0  0  0  0  0
  162.0130  200.1510  148.9810 C   0  0  0  0  0  2  0  0  0  0  0  0
  160.9250  206.5180  147.6650 C   0  0  0  0  0  0  0  0  0  0  0  0
  161.0110  207.3150  146.5230 C   0  0  0  0  0  3  0  0  0  0  0  0
  160.8830  204.1410  151.1630 N   0  0  0  0  0  2  0  0  0  0  0  0
  160.6440  202.0760  149.9310 C   0  0  2  0  0  3  0  0  0  0  0  0
  160.9120  200.5650  149.9530 C   0  0  0  0  0  2  0  0  0  0  0  0
  162.5310  208.1180  151.4960 O   0  0  0  0  0  0  0  0  0  0  0  0
  161.4450  207.7870  152.0440 C   0  0  0  0  0  0  0  0  0  0  0  0
  160.5260  206.9150  151.3660 N   0  0  0  0  0  2  0  0  0  0  0  0
  160.4660  209.3400  155.9230 C   0  0  0  0  0  0  0  0  0  0  0  0
  160.9930  209.6800  153.5880 C   0  0  0  0  0  3  0  0  0  0  0  0
  160.9890  206.0860  154.3570 F   0  0  0  0  0  0  0  0  0  0  0  0
  160.1280  209.8920  157.2600 C   0  0  0  0  0  1  0  0  0  0  0  0
  160.6760  210.2010  154.8440 C   0  0  0  0  0  3  0  0  0  0  0  0
  160.8930  207.4320  154.4890 C   0  0  0  0  0  0  0  0  0  0  0  0
  161.1060  208.2950  153.3920 C   0  0  0  0  0  0  0  0  0  0  0  0
  160.5750  207.9600  155.7450 C   0  0  0  0  0  3  0  0  0  0  0  0
  1  6  2  0  0  0  0
  1 14  1  0  0  0  0
  2 13  2  0  0  0  0
  3  7  1  6  0  0  0
  3  2  1  0  0  0  0
  3 19  1  0  0  0  0
  4  7  2  0  0  0  0
  4 11  1  0  0  0  0
  5 16  1  0  0  0  0
  5  2  1  0  0  0  0
  6 17  1  0  0  0  0
  8 23  1  0  0  0  0
  9  1  1  0  0  0  0
 10 18  1  0  0  0  0
 11 15  1  0  0  0  0
 12  8  2  0  0  0  0
 13  8  1  0  0  0  0
 13 18  1  0  0  0  0
 14  5  2  0  0  0  0
 15 20  1  0  0  0  0
 16 12  1  0  0  0  0
 17 16  2  0  0  0  0
 19 20  1  6  0  0  0
 19 10  1  0  0  0  0
 21 22  2  0  0  0  0
 22 30  1  0  0  0  0
 23 22  1  0  0  0  0
 24 27  1  0  0  0  0
 25 28  1  0  0  0  0
 26 29  1  0  0  0  0
 28 24  2  0  0  0  0
 29 31  2  0  0  0  0
 30 25  2  0  0  0  0
 30 29  1  0  0  0  0
 31 24  1  0  0  0  0
M  END
>  <MODEL>
6

>  <REMARK>
 VINA RESULT:      -6.5      1.589      4.177
  Name = 
  2 active torsions:
  status: ('A' for Active; 'I' for Inactive)
    1  A    between atoms: C_9  and  C_22
    2  A    between atoms: C_15  and  N_23
                            x       y       z     vdW  Elec       q    Type
                         _______ _______ _______ _____ _____    ______ ____

>  <TORSDO>
F 2

$$$$
=
 OpenBabel11052422383D

 31 35  0  0  1  0  0  0  0  0999 V2000
  161.3080  212.4640  150.2460 C   0  0  0  0  0  0  0  0  0  0  0  0
  161.2380  209.0880  151.7060 C   0  0  0  0  0  0  0  0  0  0  0  0
  160.9850  209.3620  153.1880 C   0  0  2  0  0  3  0  0  0  0  0  0
  161.5980  211.0860  154.8970 C   0  0  0  0  0  3  0  0  0  0  0  0
  161.3390  210.1370  150.7610 C   0  0  0  0  0  0  0  0  0  0  0  0
  161.5620  212.1990  148.9000 C   0  0  0  0  0  3  0  0  0  0  0  0
  161.8390  210.4750  153.7270 C   0  0  0  0  0  3  0  0  0  0  0  0
  161.5230  207.4650  149.8880 C   0  0  0  0  0  0  0  0  0  0  0  0
  161.1630  213.8080  150.6890 N   0  0  0  0  0  1  0  0  0  0  0  0
  160.4880  206.9120  153.4800 C   0  0  0  0  0  2  0  0  0  0  0  0
  160.4380  210.8070  155.8320 C   0  0  0  0  0  2  0  0  0  0  0  0
  161.6820  208.5160  148.9800 C   0  0  0  0  0  3  0  0  0  0  0  0
  161.2630  207.7500  151.2380 C   0  0  0  0  0  0  0  0  0  0  0  0
  161.2030  211.4410  151.1350 N   0  0  0  0  0  0  0  0  0  0  0  0
  159.7800  209.4250  155.7300 C   0  0  0  0  0  2  0  0  0  0  0  0
  161.5800  209.8370  149.4020 C   0  0  0  0  0  0  0  0  0  0  0  0
  161.6960  210.8770  148.4780 C   0  0  0  0  0  3  0  0  0  0  0  0
  161.0110  206.6690  152.1450 N   0  0  0  0  0  2  0  0  0  0  0  0
  161.2000  208.1120  154.0730 C   0  0  2  0  0  3  0  0  0  0  0  0
  160.7960  208.3020  155.5420 C   0  0  0  0  0  2  0  0  0  0  0  0
  160.0760  206.1690  147.6770 O   0  0  0  0  0  0  0  0  0  0  0  0
  160.8680  205.4850  148.3800 C   0  0  0  0  0  0  0  0  0  0  0  0
  161.5910  206.0940  149.4620 N   0  0  0  0  0  2  0  0  0  0  0  0
  161.4130  201.2940  147.6340 C   0  0  0  0  0  0  0  0  0  0  0  0
  160.8960  203.1180  149.1350 C   0  0  0  0  0  3  0  0  0  0  0  0
  161.5810  204.4260  145.7690 F   0  0  0  0  0  0  0  0  0  0  0  0
  161.5990  199.8400  147.3910 C   0  0  0  0  0  1  0  0  0  0  0  0
  161.0710  201.7500  148.9080 C   0  0  0  0  0  3  0  0  0  0  0  0
  161.4090  203.5740  146.8100 C   0  0  0  0  0  0  0  0  0  0  0  0
  161.0620  204.0450  148.0950 C   0  0  0  0  0  0  0  0  0  0  0  0
  161.5820  202.2030  146.5900 C   0  0  0  0  0  3  0  0  0  0  0  0
  1  9  1  0  0  0  0
  1 14  1  0  0  0  0
  2  3  1  0  0  0  0
  3  7  1  1  0  0  0
  3 19  1  0  0  0  0
  4 11  1  0  0  0  0
  5 14  2  0  0  0  0
  5  2  1  0  0  0  0
  6  1  2  0  0  0  0
  7  4  2  0  0  0  0
  8 13  1  0  0  0  0
 12 16  1  0  0  0  0
 12  8  2  0  0  0  0
 13  2  2  0  0  0  0
 13 18  1  0  0  0  0
 15 11  1  0  0  0  0
 16  5  1  0  0  0  0
 17  6  1  0  0  0  0
 17 16  2  0  0  0  0
 18 10  1  0  0  0  0
 19 10  1  6  0  0  0
 19 20  1  0  0  0  0
 20 15  1  0  0  0  0
 21 22  2  0  0  0  0
 22 23  1  0  0  0  0
 23  8  1  0  0  0  0
 24 28  1  0  0  0  0
 26 29  1  0  0  0  0
 27 24  1  0  0  0  0
 28 25  2  0  0  0  0
 29 30  2  0  0  0  0
 30 22  1  0  0  0  0
 30 25  1  0  0  0  0
 31 29  1  0  0  0  0
 31 24  2  0  0  0  0
M  END
>  <MODEL>
7

>  <REMARK>
 VINA RESULT:      -6.5      3.205      8.992
  Name = 
  2 active torsions:
  status: ('A' for Active; 'I' for Inactive)
    1  A    between atoms: C_9  and  C_22
    2  A    between atoms: C_15  and  N_23
                            x       y       z     vdW  Elec       q    Type
                         _______ _______ _______ _____ _____    ______ ____

>  <TORSDO>
F 2

$$$$
