=
 OpenBabel11052422283D

 31 35  0  0  1  0  0  0  0  0999 V2000
  161.2230  201.0580  149.0430 C   0  0  0  0  0  0  0  0  0  0  0  0
  161.3400  204.7890  148.4330 C   0  0  0  0  0  0  0  0  0  0  0  0
  161.3520  204.9750  147.0230 C   0  0  0  0  0  0  0  0  0  0  0  0
  160.8720  204.2030  144.7610 C   0  0  0  0  0  3  0  0  0  0  0  0
  160.8030  203.5150  149.0890 C   0  0  1  0  0  3  0  0  0  0  0  0
  160.9010  200.9320  150.5150 C   0  0  0  0  0  2  0  0  0  0  0  0
  160.8380  204.0070  146.1430 C   0  0  0  0  0  3  0  0  0  0  0  0
  161.5950  205.7780  150.6970 N   0  0  0  0  0  0  0  0  0  0  0  0
  161.5840  199.9180  148.3390 O   0  0  0  0  0  1  0  0  0  0  0  0
  162.3340  207.1870  147.3120 C   0  0  0  0  0  3  0  0  0  0  0  0
  161.4540  205.5630  142.8930 F   0  0  0  0  0  0  0  0  0  0  0  0
  160.7950  204.7090  151.2780 C   0  0  0  0  0  2  0  0  0  0  0  0
  161.7350  205.8720  149.2640 C   0  0  0  0  0  0  0  0  0  0  0  0
  161.2350  202.2400  148.4120 C   0  0  0  0  0  3  0  0  0  0  0  0
  161.4200  205.3740  144.2340 C   0  0  0  0  0  0  0  0  0  0  0  0
  161.1530  203.4160  150.5770 C   0  0  1  0  0  3  0  0  0  0  0  0
  160.4000  202.2310  151.1610 C   0  0  0  0  0  2  0  0  0  0  0  0
  162.2500  207.0430  148.6920 C   0  0  0  0  0  3  0  0  0  0  0  0
  161.8780  206.1720  146.4750 C   0  0  0  0  0  0  0  0  0  0  0  0
  161.9160  206.3590  145.0900 C   0  0  0  0  0  3  0  0  0  0  0  0
  162.3550  206.6400  151.5930 C   0  0  0  0  0  2  0  0  0  0  0  0
  159.3400  210.9640  154.2130 C   0  0  2  0  0  3  0  0  0  0  0  0
  161.4180  207.9160  153.5580 N   0  0  0  0  0  2  0  0  0  0  0  0
  159.8260  209.7750  156.3430 C   0  0  0  0  0  3  0  0  0  0  0  0
  160.8220  208.4410  151.3490 O   0  0  0  0  0  0  0  0  0  0  0  0
  158.3200  211.4350  153.4090 F   0  0  0  0  0  0  0  0  0  0  0  0
  161.4730  207.7090  152.1410 C   0  0  0  0  0  0  0  0  0  0  0  0
  160.0170  209.8430  153.5540 N   0  0  0  0  0  0  0  0  0  0  0  0
  160.7000  208.9970  155.7000 C   0  0  0  0  0  3  0  0  0  0  0  0
  160.6920  208.9540  154.2260 C   0  0  0  0  0  0  0  0  0  0  0  0
  158.7830  210.5370  155.5740 C   0  0  0  0  0  2  0  0  0  0  0  0
  1  6  1  0  0  0  0
  2  5  1  0  0  0  0
  2 13  1  0  0  0  0
  3  2  2  0  0  0  0
  4  7  2  0  0  0  0
  5 14  1  6  0  0  0
  5 16  1  0  0  0  0
  6 17  1  0  0  0  0
  7  3  1  0  0  0  0
  8 12  1  0  0  0  0
  8 21  1  0  0  0  0
  9  1  1  0  0  0  0
 10 18  1  0  0  0  0
 11 15  1  0  0  0  0
 13  8  1  0  0  0  0
 14  1  2  0  0  0  0
 15  4  1  0  0  0  0
 15 20  2  0  0  0  0
 16 17  1  1  0  0  0
 16 12  1  0  0  0  0
 18 13  2  0  0  0  0
 19  3  1  0  0  0  0
 19 10  2  0  0  0  0
 20 19  1  0  0  0  0
 21 27  1  0  0  0  0
 22 26  1  6  0  0  0
 22 31  1  0  0  0  0
 23 30  1  0  0  0  0
 25 27  2  0  0  0  0
 27 23  1  0  0  0  0
 28 22  1  0  0  0  0
 28 30  2  0  0  0  0
 29 24  2  0  0  0  0
 30 29  1  0  0  0  0
 31 24  1  0  0  0  0
M  END
>  <MODEL>
1

>  <REMARK>
 VINA RESULT:      -9.3      0.000      0.000
  Name = 
  2 active torsions:
  status: ('A' for Active; 'I' for Inactive)
    1  A    between atoms: C_9  and  C_23
    2  A    between atoms: N_15  and  C_23
                            x       y       z     vdW  Elec       q    Type
                         _______ _______ _______ _____ _____    ______ ____

>  <TORSDO>
F 2

$$$$
=
 OpenBabel11052422283D

 31 35  0  0  1  0  0  0  0  0999 V2000
  161.0930  205.8740  149.3360 C   0  0  0  0  0  0  0  0  0  0  0  0
  161.3070  208.8370  151.6780 C   0  0  0  0  0  0  0  0  0  0  0  0
  161.0420  208.3470  152.9860 C   0  0  0  0  0  0  0  0  0  0  0  0
  160.9740  206.5370  154.6180 C   0  0  0  0  0  3  0  0  0  0  0  0
  161.8050  207.9340  150.5470 C   0  0  1  0  0  3  0  0  0  0  0  0
  161.6790  206.3830  148.0380 C   0  0  0  0  0  2  0  0  0  0  0  0
  161.2540  207.0010  153.3310 C   0  0  0  0  0  3  0  0  0  0  0  0
  161.6200  210.7900  150.1770 N   0  0  0  0  0  0  0  0  0  0  0  0
  160.4660  204.6360  149.3450 O   0  0  0  0  0  1  0  0  0  0  0  0
  160.4090  210.5870  153.7090 C   0  0  0  0  0  3  0  0  0  0  0  0
  160.2070  206.9620  156.8330 F   0  0  0  0  0  0  0  0  0  0  0  0
  162.3840  209.9760  149.2410 C   0  0  0  0  0  2  0  0  0  0  0  0
  161.2150  210.2360  151.4460 C   0  0  0  0  0  0  0  0  0  0  0  0
  161.0990  206.6050  150.4590 C   0  0  0  0  0  3  0  0  0  0  0  0
  160.4790  207.4130  155.5850 C   0  0  0  0  0  0  0  0  0  0  0  0
  161.7440  208.6070  149.1730 C   0  0  1  0  0  3  0  0  0  0  0  0
  162.4480  207.7040  148.1740 C   0  0  0  0  0  2  0  0  0  0  0  0
  160.7420  211.0850  152.4550 C   0  0  0  0  0  3  0  0  0  0  0  0
  160.5670  209.2310  153.9870 C   0  0  0  0  0  0  0  0  0  0  0  0
  160.2810  208.7590  155.2720 C   0  0  0  0  0  3  0  0  0  0  0  0
  161.1580  212.1010  149.7380 C   0  0  0  0  0  2  0  0  0  0  0  0
  162.6190  213.5180  144.2140 C   0  0  2  0  0  3  0  0  0  0  0  0
  160.7970  212.2890  147.2470 N   0  0  0  0  0  2  0  0  0  0  0  0
  160.4710  212.4510  143.5580 C   0  0  0  0  0  3  0  0  0  0  0  0
  162.8730  212.7670  148.2310 O   0  0  0  0  0  0  0  0  0  0  0  0
  163.9870  213.4780  144.0210 F   0  0  0  0  0  0  0  0  0  0  0  0
  161.6780  212.3930  148.3710 C   0  0  0  0  0  0  0  0  0  0  0  0
  162.2960  213.0890  145.5780 N   0  0  0  0  0  0  0  0  0  0  0  0
  160.1090  212.4080  144.8420 C   0  0  0  0  0  3  0  0  0  0  0  0
  161.1210  212.6210  145.8930 C   0  0  0  0  0  0  0  0  0  0  0  0
  161.9160  212.6290  143.1840 C   0  0  0  0  0  2  0  0  0  0  0  0
  1  9  1  0  0  0  0
  1 14  2  0  0  0  0
  2  3  1  0  0  0  0
  3  7  2  0  0  0  0
  3 19  1  0  0  0  0
  4 15  2  0  0  0  0
  5 14  1  6  0  0  0
  5  2  1  0  0  0  0
  6 17  1  0  0  0  0
  6  1  1  0  0  0  0
  7  4  1  0  0  0  0
  8 13  1  0  0  0  0
 10 19  1  0  0  0  0
 12  8  1  0  0  0  0
 13  2  2  0  0  0  0
 13 18  1  0  0  0  0
 15 11  1  0  0  0  0
 16 17  1  6  0  0  0
 16 12  1  0  0  0  0
 16  5  1  0  0  0  0
 18 10  2  0  0  0  0
 19 20  2  0  0  0  0
 20 15  1  0  0  0  0
 21  8  1  0  0  0  0
 22 26  1  6  0  0  0
 22 28  1  0  0  0  0
 23 27  1  0  0  0  0
 24 29  2  0  0  0  0
 25 27  2  0  0  0  0
 27 21  1  0  0  0  0
 28 30  2  0  0  0  0
 29 30  1  0  0  0  0
 30 23  1  0  0  0  0
 31 24  1  0  0  0  0
 31 22  1  0  0  0  0
M  END
>  <MODEL>
2

>  <REMARK>
 VINA RESULT:      -9.2      4.411      8.347
  Name = 
  2 active torsions:
  status: ('A' for Active; 'I' for Inactive)
    1  A    between atoms: C_9  and  C_23
    2  A    between atoms: N_15  and  C_23
                            x       y       z     vdW  Elec       q    Type
                         _______ _______ _______ _____ _____    ______ ____

>  <TORSDO>
F 2

$$$$
=
 OpenBabel11052422283D

 31 35  0  0  1  0  0  0  0  0999 V2000
  160.9800  207.6780  154.2090 C   0  0  0  0  0  0  0  0  0  0  0  0
  161.3190  207.8820  150.4480 C   0  0  0  0  0  0  0  0  0  0  0  0
  161.2040  206.5540  149.9520 C   0  0  0  0  0  0  0  0  0  0  0  0
  160.4450  204.2480  150.1720 C   0  0  0  0  0  3  0  0  0  0  0  0
  160.7550  208.3040  151.8060 C   0  0  1  0  0  3  0  0  0  0  0  0
  160.7970  209.1150  154.6440 C   0  0  0  0  0  2  0  0  0  0  0  0
  160.5340  205.5500  150.6710 C   0  0  0  0  0  3  0  0  0  0  0  0
  161.8730  210.2620  150.0050 N   0  0  0  0  0  0  0  0  0  0  0  0
  161.1810  206.7080  155.1810 O   0  0  0  0  0  1  0  0  0  0  0  0
  162.3760  207.2020  147.9150 C   0  0  0  0  0  3  0  0  0  0  0  0
  160.9380  202.6660  148.4610 F   0  0  0  0  0  0  0  0  0  0  0  0
  161.0550  210.6850  151.1340 C   0  0  0  0  0  2  0  0  0  0  0  0
  161.8770  208.8770  149.6000 C   0  0  0  0  0  0  0  0  0  0  0  0
  161.0190  207.3220  152.9180 C   0  0  0  0  0  3  0  0  0  0  0  0
  161.0240  203.9290  148.9440 C   0  0  0  0  0  0  0  0  0  0  0  0
  161.2430  209.6850  152.2540 C   0  0  1  0  0  3  0  0  0  0  0  0
  160.4640  210.0790  153.4980 C   0  0  0  0  0  2  0  0  0  0  0  0
  162.4200  208.5180  148.3600 C   0  0  0  0  0  3  0  0  0  0  0  0
  161.7620  206.2220  148.6920 C   0  0  0  0  0  0  0  0  0  0  0  0
  161.6770  204.9150  148.2020 C   0  0  0  0  0  3  0  0  0  0  0  0
  162.7820  211.2310  149.4060 C   0  0  0  0  0  2  0  0  0  0  0  0
  159.8460  213.9580  145.0940 C   0  0  2  0  0  3  0  0  0  0  0  0
  160.7250  212.0010  148.1650 N   0  0  0  0  0  2  0  0  0  0  0  0
  157.7920  213.0340  146.1460 C   0  0  0  0  0  3  0  0  0  0  0  0
  162.8770  212.2740  147.2710 O   0  0  0  0  0  0  0  0  0  0  0  0
  160.5780  213.9940  143.9220 F   0  0  0  0  0  0  0  0  0  0  0  0
  162.1480  211.8520  148.2090 C   0  0  0  0  0  0  0  0  0  0  0  0
  160.5830  213.2090  146.1170 N   0  0  0  0  0  0  0  0  0  0  0  0
  158.5080  212.6780  147.2140 C   0  0  0  0  0  3  0  0  0  0  0  0
  159.9810  212.6540  147.1310 C   0  0  0  0  0  0  0  0  0  0  0  0
  158.4750  213.3270  144.8380 C   0  0  0  0  0  2  0  0  0  0  0  0
  1  6  1  0  0  0  0
  1  9  1  0  0  0  0
  2  5  1  0  0  0  0
  3  2  1  0  0  0  0
  3  7  1  0  0  0  0
  4  7  2  0  0  0  0
  5 16  1  0  0  0  0
  5 14  1  1  0  0  0
  8 12  1  0  0  0  0
 10 18  2  0  0  0  0
 10 19  1  0  0  0  0
 11 15  1  0  0  0  0
 13  8  1  0  0  0  0
 13  2  2  0  0  0  0
 14  1  2  0  0  0  0
 15  4  1  0  0  0  0
 16 12  1  6  0  0  0
 16 17  1  0  0  0  0
 17  6  1  0  0  0  0
 18 13  1  0  0  0  0
 19  3  2  0  0  0  0
 20 19  1  0  0  0  0
 20 15  2  0  0  0  0
 21  8  1  0  0  0  0
 22 26  1  6  0  0  0
 22 28  1  0  0  0  0
 23 27  1  0  0  0  0
 24 29  2  0  0  0  0
 25 27  2  0  0  0  0
 27 21  1  0  0  0  0
 28 30  2  0  0  0  0
 30 29  1  0  0  0  0
 30 23  1  0  0  0  0
 31 22  1  0  0  0  0
 31 24  1  0  0  0  0
M  END
>  <MODEL>
3

>  <REMARK>
 VINA RESULT:      -8.7      4.438      6.859
  Name = 
  2 active torsions:
  status: ('A' for Active; 'I' for Inactive)
    1  A    between atoms: C_9  and  C_23
    2  A    between atoms: N_15  and  C_23
                            x       y       z     vdW  Elec       q    Type
                         _______ _______ _______ _____ _____    ______ ____

>  <TORSDO>
F 2

$$$$
=
 OpenBabel11052422283D

 31 35  0  0  1  0  0  0  0  0999 V2000
  161.2110  202.2560  150.8800 C   0  0  0  0  0  0  0  0  0  0  0  0
  161.3560  205.6300  149.1780 C   0  0  0  0  0  0  0  0  0  0  0  0
  161.3590  205.3850  147.7780 C   0  0  0  0  0  0  0  0  0  0  0  0
  160.8570  203.9760  145.8530 C   0  0  0  0  0  3  0  0  0  0  0  0
  160.8130  204.6180  150.1890 C   0  0  1  0  0  3  0  0  0  0  0  0
  160.8980  202.5800  152.3230 C   0  0  0  0  0  2  0  0  0  0  0  0
  160.8310  204.2030  147.2310 C   0  0  0  0  0  3  0  0  0  0  0  0
  161.6360  207.2500  151.0400 N   0  0  0  0  0  0  0  0  0  0  0  0
  161.5570  200.9530  150.5490 O   0  0  0  0  0  1  0  0  0  0  0  0
  162.3630  207.5720  147.3850 C   0  0  0  0  0  3  0  0  0  0  0  0
  161.4360  204.7070  143.6610 F   0  0  0  0  0  0  0  0  0  0  0  0
  160.8310  206.4130  151.9190 C   0  0  0  0  0  2  0  0  0  0  0  0
  161.7670  206.9090  149.6440 C   0  0  0  0  0  0  0  0  0  0  0  0
  161.2290  203.1940  149.9240 C   0  0  0  0  0  3  0  0  0  0  0  0
  161.4110  204.9280  144.9970 C   0  0  0  0  0  0  0  0  0  0  0  0
  161.1730  204.9660  151.6360 C   0  0  1  0  0  3  0  0  0  0  0  0
  160.4140  204.0190  152.5510 C   0  0  0  0  0  2  0  0  0  0  0  0
  162.2880  207.8490  148.7460 C   0  0  0  0  0  3  0  0  0  0  0  0
  161.8920  206.3570  146.8930 C   0  0  0  0  0  0  0  0  0  0  0  0
  161.9220  206.1200  145.5150 C   0  0  0  0  0  3  0  0  0  0  0  0
  162.4110  208.3330  151.6330 C   0  0  0  0  0  2  0  0  0  0  0  0
  159.3090  213.2910  152.3020 C   0  0  2  0  0  3  0  0  0  0  0  0
  160.6760  209.8260  152.6960 N   0  0  0  0  0  2  0  0  0  0  0  0
  158.0340  212.0520  154.0410 C   0  0  0  0  0  3  0  0  0  0  0  0
  161.7960  210.4440  150.7290 O   0  0  0  0  0  0  0  0  0  0  0  0
  159.1860  213.9810  151.1100 F   0  0  0  0  0  0  0  0  0  0  0  0
  161.6100  209.5900  151.6360 C   0  0  0  0  0  0  0  0  0  0  0  0
  160.0240  212.0310  152.0750 N   0  0  0  0  0  0  0  0  0  0  0  0
  158.9470  211.0790  154.0050 C   0  0  0  0  0  3  0  0  0  0  0  0
  159.9040  211.0160  152.8850 C   0  0  0  0  0  0  0  0  0  0  0  0
  157.9250  213.0310  152.9040 C   0  0  0  0  0  2  0  0  0  0  0  0
  1  6  1  0  0  0  0
  2 13  1  0  0  0  0
  2  5  1  0  0  0  0
  3  2  2  0  0  0  0
  4  7  2  0  0  0  0
  5 14  1  6  0  0  0
  5 16  1  0  0  0  0
  6 17  1  0  0  0  0
  7  3  1  0  0  0  0
  8 21  1  0  0  0  0
  8 12  1  0  0  0  0
  9  1  1  0  0  0  0
 10 18  1  0  0  0  0
 11 15  1  0  0  0  0
 13  8  1  0  0  0  0
 14  1  2  0  0  0  0
 15 20  2  0  0  0  0
 15  4  1  0  0  0  0
 16 12  1  1  0  0  0
 16 17  1  0  0  0  0
 18 13  2  0  0  0  0
 19 10  2  0  0  0  0
 19  3  1  0  0  0  0
 20 19  1  0  0  0  0
 21 27  1  0  0  0  0
 22 26  1  6  0  0  0
 22 31  1  0  0  0  0
 23 30  1  0  0  0  0
 25 27  2  0  0  0  0
 27 23  1  0  0  0  0
 28 22  1  0  0  0  0
 28 30  2  0  0  0  0
 29 24  2  0  0  0  0
 30 29  1  0  0  0  0
 31 24  1  0  0  0  0
M  END
>  <MODEL>
4

>  <REMARK>
 VINA RESULT:      -8.3      1.633      2.094
  Name = 
  2 active torsions:
  status: ('A' for Active; 'I' for Inactive)
    1  A    between atoms: C_9  and  C_23
    2  A    between atoms: N_15  and  C_23
                            x       y       z     vdW  Elec       q    Type
                         _______ _______ _______ _____ _____    ______ ____

>  <TORSDO>
F 2

$$$$
=
 OpenBabel11052422283D

 31 35  0  0  1  0  0  0  0  0999 V2000
  162.3300  210.1100  149.5090 C   0  0  0  0  0  0  0  0  0  0  0  0
  161.1290  208.0070  152.4140 C   0  0  0  0  0  0  0  0  0  0  0  0
  161.0390  208.8710  153.5390 C   0  0  0  0  0  0  0  0  0  0  0  0
  160.8000  211.0930  154.5130 C   0  0  0  0  0  3  0  0  0  0  0  0
  161.0850  208.5230  150.9740 C   0  0  1  0  0  3  0  0  0  0  0  0
  162.1100  209.2320  148.2980 C   0  0  0  0  0  2  0  0  0  0  0  0
  160.8720  210.2590  153.3950 C   0  0  0  0  0  3  0  0  0  0  0  0
  161.0820  205.6890  151.5210 N   0  0  0  0  0  0  0  0  0  0  0  0
  163.0470  211.2890  149.3570 O   0  0  0  0  0  1  0  0  0  0  0  0
  161.1990  206.9560  155.0380 C   0  0  0  0  0  3  0  0  0  0  0  0
  160.8250  211.3610  156.8800 F   0  0  0  0  0  0  0  0  0  0  0  0
  160.7190  206.1820  150.2000 C   0  0  0  0  0  2  0  0  0  0  0  0
  161.1450  206.6030  152.6360 C   0  0  0  0  0  0  0  0  0  0  0  0
  161.9150  209.7570  150.7330 C   0  0  0  0  0  3  0  0  0  0  0  0
  160.8930  210.5520  155.7960 C   0  0  0  0  0  0  0  0  0  0  0  0
  161.4850  207.4610  149.9450 C   0  0  1  0  0  3  0  0  0  0  0  0
  161.2060  208.0190  148.5590 C   0  0  0  0  0  2  0  0  0  0  0  0
  161.2060  206.1000  153.9430 C   0  0  0  0  0  3  0  0  0  0  0  0
  161.1030  208.3330  154.8480 C   0  0  0  0  0  0  0  0  0  0  0  0
  161.0380  209.1740  155.9640 C   0  0  0  0  0  3  0  0  0  0  0  0
  161.5190  204.3050  151.6480 C   0  0  0  0  0  2  0  0  0  0  0  0
  161.1860  201.7190  146.3700 C   0  0  2  0  0  3  0  0  0  0  0  0
  161.6510  204.2090  149.1300 N   0  0  0  0  0  2  0  0  0  0  0  0
  161.6250  203.9790  145.4290 C   0  0  0  0  0  3  0  0  0  0  0  0
  160.8300  202.4080  150.3900 O   0  0  0  0  0  0  0  0  0  0  0  0
  160.2890  200.6680  146.3720 F   0  0  0  0  0  0  0  0  0  0  0  0
  161.2930  203.5790  150.3660 C   0  0  0  0  0  0  0  0  0  0  0  0
  161.1840  202.3780  147.6800 N   0  0  0  0  0  0  0  0  0  0  0  0
  161.9390  204.4170  146.6500 C   0  0  0  0  0  3  0  0  0  0  0  0
  161.5780  203.6110  147.8310 C   0  0  0  0  0  0  0  0  0  0  0  0
  160.8310  202.7130  145.2610 C   0  0  0  0  0  2  0  0  0  0  0  0
  1 14  2  0  0  0  0
  2 13  2  0  0  0  0
  2  3  1  0  0  0  0
  3 19  1  0  0  0  0
  4 15  2  0  0  0  0
  5 14  1  1  0  0  0
  5  2  1  0  0  0  0
  6 17  1  0  0  0  0
  6  1  1  0  0  0  0
  7  3  2  0  0  0  0
  7  4  1  0  0  0  0
  8 21  1  0  0  0  0
  8 13  1  0  0  0  0
  9  1  1  0  0  0  0
 12  8  1  0  0  0  0
 13 18  1  0  0  0  0
 15 20  1  0  0  0  0
 15 11  1  0  0  0  0
 16 17  1  6  0  0  0
 16 12  1  0  0  0  0
 16  5  1  0  0  0  0
 18 10  2  0  0  0  0
 19 10  1  0  0  0  0
 19 20  2  0  0  0  0
 22 26  1  1  0  0  0
 22 28  1  0  0  0  0
 23 27  1  0  0  0  0
 24 29  2  0  0  0  0
 27 25  2  0  0  0  0
 27 21  1  0  0  0  0
 28 30  2  0  0  0  0
 29 30  1  0  0  0  0
 30 23  1  0  0  0  0
 31 24  1  0  0  0  0
 31 22  1  0  0  0  0
M  END
>  <MODEL>
5

>  <REMARK>
 VINA RESULT:      -8.2      2.388      8.924
  Name = 
  2 active torsions:
  status: ('A' for Active; 'I' for Inactive)
    1  A    between atoms: C_9  and  C_23
    2  A    between atoms: N_15  and  C_23
                            x       y       z     vdW  Elec       q    Type
                         _______ _______ _______ _____ _____    ______ ____

>  <TORSDO>
F 2

$$$$
=
 OpenBabel11052422283D

 31 35  0  0  1  0  0  0  0  0999 V2000
  161.1130  207.4170  147.8300 C   0  0  0  0  0  0  0  0  0  0  0  0
  161.4790  204.5950  150.3200 C   0  0  0  0  0  0  0  0  0  0  0  0
  161.3290  203.3820  149.5930 C   0  0  0  0  0  0  0  0  0  0  0  0
  161.4200  202.1110  147.5150 C   0  0  0  0  0  3  0  0  0  0  0  0
  161.8940  205.9080  149.6540 C   0  0  1  0  0  3  0  0  0  0  0  0
  161.5830  208.6410  148.5830 C   0  0  0  0  0  2  0  0  0  0  0  0
  161.5860  203.3090  148.2130 C   0  0  0  0  0  3  0  0  0  0  0  0
  161.6410  205.7310  152.5230 N   0  0  0  0  0  0  0  0  0  0  0  0
  160.5060  207.5880  146.5930 O   0  0  0  0  0  1  0  0  0  0  0  0
  160.7270  202.2120  151.6450 C   0  0  0  0  0  3  0  0  0  0  0  0
  160.8310  199.8030  147.5070 F   0  0  0  0  0  0  0  0  0  0  0  0
  162.3370  206.8570  151.9160 C   0  0  0  0  0  2  0  0  0  0  0  0
  161.3490  204.5580  151.7360 C   0  0  0  0  0  0  0  0  0  0  0  0
  161.2020  206.1830  148.3440 C   0  0  0  0  0  3  0  0  0  0  0  0
  160.9940  200.9640  148.1850 C   0  0  0  0  0  0  0  0  0  0  0  0
  161.7110  207.1250  150.5640 C   0  0  1  0  0  3  0  0  0  0  0  0
  162.3430  208.3260  149.8790 C   0  0  0  0  0  2  0  0  0  0  0  0
  160.9490  203.3760  152.3730 C   0  0  0  0  0  3  0  0  0  0  0  0
  160.9260  202.2020  150.2660 C   0  0  0  0  0  0  0  0  0  0  0  0
  160.7530  201.0070  149.5600 C   0  0  0  0  0  3  0  0  0  0  0  0
  161.1270  205.8830  153.8780 C   0  0  0  0  0  2  0  0  0  0  0  0
  160.7720  211.6150  155.1740 C   0  0  2  0  0  3  0  0  0  0  0  0
  161.5740  207.9560  155.2470 N   0  0  0  0  0  2  0  0  0  0  0  0
  161.9970  211.0400  157.2610 C   0  0  0  0  0  3  0  0  0  0  0  0
  160.0820  207.9730  153.4360 O   0  0  0  0  0  0  0  0  0  0  0  0
  159.6090  212.1780  154.6840 F   0  0  0  0  0  0  0  0  0  0  0  0
  160.8750  207.3230  154.1680 C   0  0  0  0  0  0  0  0  0  0  0  0
  160.7860  210.1760  154.8930 N   0  0  0  0  0  0  0  0  0  0  0  0
  162.2550  209.8280  156.7660 C   0  0  0  0  0  3  0  0  0  0  0  0
  161.5070  209.3440  155.5900 C   0  0  0  0  0  0  0  0  0  0  0  0
  160.8910  211.8760  156.6780 C   0  0  0  0  0  2  0  0  0  0  0  0
  1 14  2  0  0  0  0
  1  6  1  0  0  0  0
  2 13  1  0  0  0  0
  3 19  1  0  0  0  0
  3  2  2  0  0  0  0
  4 15  1  0  0  0  0
  4  7  2  0  0  0  0
  5 14  1  6  0  0  0
  5  2  1  0  0  0  0
  5 16  1  0  0  0  0
  6 17  1  0  0  0  0
  7  3  1  0  0  0  0
  8 21  1  0  0  0  0
  9  1  1  0  0  0  0
 10 18  1  0  0  0  0
 11 15  1  0  0  0  0
 12  8  1  0  0  0  0
 13 18  2  0  0  0  0
 13  8  1  0  0  0  0
 15 20  2  0  0  0  0
 16 17  1  6  0  0  0
 16 12  1  0  0  0  0
 19 10  2  0  0  0  0
 20 19  1  0  0  0  0
 21 27  1  0  0  0  0
 22 26  1  1  0  0  0
 22 31  1  0  0  0  0
 23 30  1  0  0  0  0
 25 27  2  0  0  0  0
 27 23  1  0  0  0  0
 28 22  1  0  0  0  0
 28 30  2  0  0  0  0
 29 24  2  0  0  0  0
 30 29  1  0  0  0  0
 31 24  1  0  0  0  0
M  END
>  <MODEL>
6

>  <REMARK>
 VINA RESULT:      -8.2      2.633      4.378
  Name = 
  2 active torsions:
  status: ('A' for Active; 'I' for Inactive)
    1  A    between atoms: C_9  and  C_23
    2  A    between atoms: N_15  and  C_23
                            x       y       z     vdW  Elec       q    Type
                         _______ _______ _______ _____ _____    ______ ____

>  <TORSDO>
F 2

$$$$
=
 OpenBabel11052422283D

 31 35  0  0  1  0  0  0  0  0999 V2000
  161.4060  203.2800  151.7900 C   0  0  0  0  0  0  0  0  0  0  0  0
  161.4250  206.3060  149.5210 C   0  0  0  0  0  0  0  0  0  0  0  0
  161.4580  205.8180  148.1860 C   0  0  0  0  0  0  0  0  0  0  0  0
  161.0430  204.0710  146.5370 C   0  0  0  0  0  3  0  0  0  0  0  0
  160.9150  205.4630  150.6920 C   0  0  1  0  0  3  0  0  0  0  0  0
  161.0610  203.8390  153.1520 C   0  0  0  0  0  2  0  0  0  0  0  0
  160.9890  204.5360  147.8530 C   0  0  0  0  0  3  0  0  0  0  0  0
  161.6090  208.2380  151.0700 N   0  0  0  0  0  0  0  0  0  0  0  0
  161.8140  201.9560  151.6960 O   0  0  0  0  0  1  0  0  0  0  0  0
  162.3690  207.9450  147.4190 C   0  0  0  0  0  3  0  0  0  0  0  0
  161.6190  204.4310  144.2540 F   0  0  0  0  0  0  0  0  0  0  0  0
  160.8300  207.5330  152.0780 C   0  0  0  0  0  2  0  0  0  0  0  0
  161.7740  207.6640  149.7570 C   0  0  0  0  0  0  0  0  0  0  0  0
  161.3960  204.0350  150.6840 C   0  0  0  0  0  3  0  0  0  0  0  0
  161.5660  204.8830  145.5300 C   0  0  0  0  0  0  0  0  0  0  0  0
  161.2390  206.0760  152.0570 C   0  0  1  0  0  3  0  0  0  0  0  0
  160.5110  205.2710  153.1210 C   0  0  0  0  0  2  0  0  0  0  0  0
  162.2650  208.4540  148.7090 C   0  0  0  0  0  3  0  0  0  0  0  0
  161.9590  206.6430  147.1470 C   0  0  0  0  0  0  0  0  0  0  0  0
  162.0170  206.1690  145.8330 C   0  0  0  0  0  3  0  0  0  0  0  0
  162.3280  209.4430  151.4670 C   0  0  0  0  0  2  0  0  0  0  0  0
  159.6660  212.6920  155.5920 C   0  0  2  0  0  3  0  0  0  0  0  0
  161.8920  210.2590  153.8150 N   0  0  0  0  0  2  0  0  0  0  0  0
  161.0230  211.4070  157.2320 C   0  0  0  0  0  3  0  0  0  0  0  0
  160.5190  210.8850  152.0180 O   0  0  0  0  0  0  0  0  0  0  0  0
  158.3730  213.0190  155.2290 F   0  0  0  0  0  0  0  0  0  0  0  0
  161.5100  210.2280  152.4350 C   0  0  0  0  0  0  0  0  0  0  0  0
  160.2650  211.8250  154.5720 N   0  0  0  0  0  0  0  0  0  0  0  0
  161.7530  210.9130  156.2290 C   0  0  0  0  0  3  0  0  0  0  0  0
  161.2650  211.0340  154.8420 C   0  0  0  0  0  0  0  0  0  0  0  0
  159.6710  212.0060  156.9600 C   0  0  0  0  0  2  0  0  0  0  0  0
  1  6  1  0  0  0  0
  2 13  1  0  0  0  0
  2  5  1  0  0  0  0
  3  2  2  0  0  0  0
  4  7  2  0  0  0  0
  5 14  1  1  0  0  0
  5 16  1  0  0  0  0
  7  3  1  0  0  0  0
  8 21  1  0  0  0  0
  8 12  1  0  0  0  0
  9  1  1  0  0  0  0
 10 18  1  0  0  0  0
 11 15  1  0  0  0  0
 13  8  1  0  0  0  0
 14  1  2  0  0  0  0
 15 20  2  0  0  0  0
 15  4  1  0  0  0  0
 16 12  1  6  0  0  0
 16 17  1  0  0  0  0
 17  6  1  0  0  0  0
 18 13  2  0  0  0  0
 19 10  2  0  0  0  0
 19  3  1  0  0  0  0
 20 19  1  0  0  0  0
 21 27  1  0  0  0  0
 22 26  1  6  0  0  0
 22 31  1  0  0  0  0
 23 30  1  0  0  0  0
 25 27  2  0  0  0  0
 27 23  1  0  0  0  0
 28 30  2  0  0  0  0
 28 22  1  0  0  0  0
 29 24  2  0  0  0  0
 30 29  1  0  0  0  0
 31 24  1  0  0  0  0
M  END
>  <MODEL>
7

>  <REMARK>
 VINA RESULT:      -8.1      1.908      2.424
  Name = 
  2 active torsions:
  status: ('A' for Active; 'I' for Inactive)
    1  A    between atoms: C_9  and  C_23
    2  A    between atoms: N_15  and  C_23
                            x       y       z     vdW  Elec       q    Type
                         _______ _______ _______ _____ _____    ______ ____

>  <TORSDO>
F 2

$$$$
=
 OpenBabel11052422283D

 31 35  0  0  1  0  0  0  0  0999 V2000
  161.6520  210.0200  148.6520 C   0  0  0  0  0  0  0  0  0  0  0  0
  161.7230  206.4190  149.8080 C   0  0  0  0  0  0  0  0  0  0  0  0
  161.6810  205.6110  148.6390 C   0  0  0  0  0  0  0  0  0  0  0  0
  162.0520  205.2830  146.2520 C   0  0  0  0  0  3  0  0  0  0  0  0
  162.2070  207.8700  149.7870 C   0  0  1  0  0  3  0  0  0  0  0  0
  162.0090  210.8140  149.8880 C   0  0  0  0  0  2  0  0  0  0  0  0
  162.1150  206.0890  147.3910 C   0  0  0  0  0  3  0  0  0  0  0  0
  161.5880  206.5620  152.2840 N   0  0  0  0  0  0  0  0  0  0  0  0
  161.2080  210.7000  147.5260 O   0  0  0  0  0  1  0  0  0  0  0  0
  160.8310  203.7390  149.9500 C   0  0  0  0  0  3  0  0  0  0  0  0
  161.4930  203.2020  145.2370 F   0  0  0  0  0  0  0  0  0  0  0  0
  162.3450  207.8070  152.2750 C   0  0  0  0  0  2  0  0  0  0  0  0
  161.4120  205.8200  151.0590 C   0  0  0  0  0  0  0  0  0  0  0  0
  161.6870  208.6800  148.6280 C   0  0  0  0  0  3  0  0  0  0  0  0
  161.5540  203.9820  146.3420 C   0  0  0  0  0  0  0  0  0  0  0  0
  161.8960  208.6240  151.0830 C   0  0  1  0  0  3  0  0  0  0  0  0
  162.5980  209.9710  151.0260 C   0  0  0  0  0  2  0  0  0  0  0  0
  160.9460  204.5000  151.1080 C   0  0  0  0  0  3  0  0  0  0  0  0
  161.2060  204.2770  148.7210 C   0  0  0  0  0  0  0  0  0  0  0  0
  161.1380  203.4780  147.5760 C   0  0  0  0  0  3  0  0  0  0  0  0
  160.9020  206.1770  153.5110 C   0  0  0  0  0  2  0  0  0  0  0  0
  158.8600  211.1640  155.8800 C   0  0  2  0  0  3  0  0  0  0  0  0
  160.3810  208.6460  153.5610 N   0  0  0  0  0  2  0  0  0  0  0  0
  159.7340  212.2860  153.8400 C   0  0  0  0  0  3  0  0  0  0  0  0
  160.1290  207.2940  155.4630 O   0  0  0  0  0  0  0  0  0  0  0  0
  158.9380  211.1430  157.2600 F   0  0  0  0  0  0  0  0  0  0  0  0
  160.4620  207.3940  154.2510 C   0  0  0  0  0  0  0  0  0  0  0  0
  159.4440  209.9370  155.3300 N   0  0  0  0  0  0  0  0  0  0  0  0
  159.9240  211.0920  153.2750 C   0  0  0  0  0  3  0  0  0  0  0  0
  159.8940  209.8760  154.1090 C   0  0  0  0  0  0  0  0  0  0  0  0
  159.5770  212.4010  155.3320 C   0  0  0  0  0  2  0  0  0  0  0  0
  1  6  1  0  0  0  0
  2 13  1  0  0  0  0
  3 19  1  0  0  0  0
  3  2  2  0  0  0  0
  4 15  1  0  0  0  0
  4  7  2  0  0  0  0
  5 14  1  6  0  0  0
  5  2  1  0  0  0  0
  5 16  1  0  0  0  0
  6 17  1  0  0  0  0
  7  3  1  0  0  0  0
  8 21  1  0  0  0  0
  9  1  1  0  0  0  0
 10 18  1  0  0  0  0
 11 15  1  0  0  0  0
 12  8  1  0  0  0  0
 13 18  2  0  0  0  0
 13  8  1  0  0  0  0
 14  1  2  0  0  0  0
 15 20  2  0  0  0  0
 16 17  1  6  0  0  0
 16 12  1  0  0  0  0
 19 10  2  0  0  0  0
 20 19  1  0  0  0  0
 21 27  1  0  0  0  0
 22 26  1  1  0  0  0
 23 30  1  0  0  0  0
 23 27  1  0  0  0  0
 24 31  1  0  0  0  0
 27 25  2  0  0  0  0
 28 22  1  0  0  0  0
 29 24  2  0  0  0  0
 29 30  1  0  0  0  0
 30 28  2  0  0  0  0
 31 22  1  0  0  0  0
M  END
>  <MODEL>
8

>  <REMARK>
 VINA RESULT:      -8.0      2.615      4.586
  Name = 
  2 active torsions:
  status: ('A' for Active; 'I' for Inactive)
    1  A    between atoms: C_9  and  C_23
    2  A    between atoms: N_15  and  C_23
                            x       y       z     vdW  Elec       q    Type
                         _______ _______ _______ _____ _____    ______ ____

>  <TORSDO>
F 2

$$$$
=
 OpenBabel11052422283D

 31 35  0  0  1  0  0  0  0  0999 V2000
  161.4190  203.2920  151.9000 C   0  0  0  0  0  0  0  0  0  0  0  0
  161.2360  204.9360  148.4990 C   0  0  0  0  0  0  0  0  0  0  0  0
  161.0230  203.8970  147.5510 C   0  0  0  0  0  0  0  0  0  0  0  0
  160.2470  201.6610  146.9690 C   0  0  0  0  0  3  0  0  0  0  0  0
  160.8770  204.7850  149.9790 C   0  0  1  0  0  3  0  0  0  0  0  0
  161.3330  204.4440  152.8750 C   0  0  0  0  0  2  0  0  0  0  0  0
  160.4350  202.6730  147.9130 C   0  0  0  0  0  3  0  0  0  0  0  0
  161.7780  207.3200  148.9350 N   0  0  0  0  0  0  0  0  0  0  0  0
  161.7320  202.0290  152.3860 O   0  0  0  0  0  1  0  0  0  0  0  0
  161.9140  205.3150  145.7800 C   0  0  0  0  0  3  0  0  0  0  0  0
  160.4610  200.8740  144.7310 F   0  0  0  0  0  0  0  0  0  0  0  0
  161.1360  207.2500  150.2400 C   0  0  0  0  0  2  0  0  0  0  0  0
  161.6930  206.1980  148.0320 C   0  0  0  0  0  0  0  0  0  0  0  0
  161.2700  203.4600  150.5800 C   0  0  0  0  0  3  0  0  0  0  0  0
  160.6430  201.8560  145.6450 C   0  0  0  0  0  0  0  0  0  0  0  0
  161.4540  205.9030  150.8510 C   0  0  1  0  0  3  0  0  0  0  0  0
  160.8660  205.7640  152.2460 C   0  0  0  0  0  2  0  0  0  0  0  0
  162.0500  206.3600  146.6870 C   0  0  0  0  0  3  0  0  0  0  0  0
  161.3920  204.0930  146.1970 C   0  0  0  0  0  0  0  0  0  0  0  0
  161.2080  203.0730  145.2580 C   0  0  0  0  0  3  0  0  0  0  0  0
  162.6180  208.4730  148.6360 C   0  0  0  0  0  2  0  0  0  0  0  0
  160.3430  213.3740  150.9740 C   0  0  2  0  0  3  0  0  0  0  0  0
  161.6630  209.9020  150.4840 N   0  0  0  0  0  2  0  0  0  0  0  0
  160.0730  212.0450  153.0580 C   0  0  0  0  0  3  0  0  0  0  0  0
  161.6760  210.6220  148.2500 O   0  0  0  0  0  0  0  0  0  0  0  0
  159.6600  214.1190  150.0310 F   0  0  0  0  0  0  0  0  0  0  0  0
  161.9470  209.7240  149.0920 C   0  0  0  0  0  0  0  0  0  0  0  0
  160.8300  212.1310  150.3670 N   0  0  0  0  0  0  0  0  0  0  0  0
  160.8300  211.0800  152.5320 C   0  0  0  0  0  3  0  0  0  0  0  0
  161.1070  211.0780  151.0830 C   0  0  0  0  0  0  0  0  0  0  0  0
  159.4340  213.0760  152.1690 C   0  0  0  0  0  2  0  0  0  0  0  0
  1  9  1  0  0  0  0
  1  6  1  0  0  0  0
  2  5  1  0  0  0  0
  3  7  1  0  0  0  0
  3  2  2  0  0  0  0
  4  7  2  0  0  0  0
  5 14  1  1  0  0  0
  5 16  1  0  0  0  0
  8 12  1  0  0  0  0
 10 19  2  0  0  0  0
 10 18  1  0  0  0  0
 11 15  1  0  0  0  0
 13  2  1  0  0  0  0
 13  8  1  0  0  0  0
 14  1  2  0  0  0  0
 15  4  1  0  0  0  0
 16 12  1  6  0  0  0
 16 17  1  0  0  0  0
 17  6  1  0  0  0  0
 18 13  2  0  0  0  0
 19  3  1  0  0  0  0
 20 15  2  0  0  0  0
 20 19  1  0  0  0  0
 21  8  1  0  0  0  0
 21 27  1  0  0  0  0
 22 26  1  6  0  0  0
 22 31  1  0  0  0  0
 23 30  1  0  0  0  0
 25 27  2  0  0  0  0
 27 23  1  0  0  0  0
 28 22  1  0  0  0  0
 28 30  2  0  0  0  0
 29 24  2  0  0  0  0
 30 29  1  0  0  0  0
 31 24  1  0  0  0  0
M  END
>  <MODEL>
9

>  <REMARK>
 VINA RESULT:      -7.8      2.553      3.377
  Name = 
  2 active torsions:
  status: ('A' for Active; 'I' for Inactive)
    1  A    between atoms: C_9  and  C_23
    2  A    between atoms: N_15  and  C_23
                            x       y       z     vdW  Elec       q    Type
                         _______ _______ _______ _____ _____    ______ ____

>  <TORSDO>
F 2

$$$$
