=
 OpenBabel11052422173D

 25 27  0  0  0  0  0  0  0  0999 V2000
  161.5720  206.3150  148.5370 C   0  0  0  0  0  0  0  0  0  0  0  0
  161.2840  205.3430  149.4330 C   0  0  0  0  0  0  0  0  0  0  0  0
  162.1980  208.2260  150.0890 C   0  0  0  0  0  3  0  0  0  0  0  0
  162.0830  207.6890  151.2950 C   0  0  0  0  0  3  0  0  0  0  0  0
  161.3290  205.3550  150.8280 C   0  0  0  0  0  0  0  0  0  0  0  0
  161.6480  206.0820  153.1430 C   0  0  0  0  0  1  0  0  0  0  0  0
  160.8650  204.1210  149.0390 N   0  0  0  0  0  0  0  0  0  0  0  0
  161.9620  207.6210  148.8570 O   0  0  0  0  0  0  0  0  0  0  0  0
  160.9500  204.1410  151.2830 N   0  0  0  0  0  2  0  0  0  0  0  0
  160.6720  203.4340  150.1750 C   0  0  0  0  0  0  0  0  0  0  0  0
  161.6760  206.3380  151.6710 C   0  0  0  0  0  0  0  0  0  0  0  0
  161.4780  206.0300  147.0820 C   0  0  0  0  0  0  0  0  0  0  0  0
  161.2610  205.4190  144.3730 C   0  0  0  0  0  3  0  0  0  0  0  0
  162.4960  205.3270  146.4040 C   0  0  0  0  0  0  0  0  0  0  0  0
  162.3630  205.0490  145.0790 N   0  0  0  0  0  0  0  0  0  0  0  0
  160.2250  206.1040  145.0030 C   0  0  0  0  0  3  0  0  0  0  0  0
  163.6850  204.9290  147.0800 N   0  0  0  0  0  1  0  0  0  0  0  0
  160.3350  206.4040  146.3600 C   0  0  0  0  0  3  0  0  0  0  0  0
  160.2570  202.0040  150.2030 C   0  0  0  0  0  2  0  0  0  0  0  0
  160.0910  201.5030  148.8460 N   0  0  0  0  0  2  0  0  0  0  0  0
  161.1390  200.8460  148.1290 C   0  0  0  0  0  0  0  0  0  0  0  0
  162.2860  200.7260  148.6360 O   0  0  0  0  0  0  0  0  0  0  0  0
  160.8840  200.3350  146.7560 C   0  0  0  0  0  2  0  0  0  0  0  0
  160.7800  201.4950  145.7860 C   0  0  0  0  0  2  0  0  0  0  0  0
  159.6820  201.2160  144.7820 C   0  0  0  0  0  1  0  0  0  0  0  0
  1  8  1  0  0  0  0
  1  2  2  0  0  0  0
  2  5  1  0  0  0  0
  3  4  2  0  0  0  0
  4 11  1  0  0  0  0
  5  9  1  0  0  0  0
  5 11  2  0  0  0  0
  7  2  1  0  0  0  0
  7 10  2  0  0  0  0
  8  3  1  0  0  0  0
 10 19  1  0  0  0  0
 10  9  1  0  0  0  0
 11  6  1  0  0  0  0
 12  1  1  0  0  0  0
 13 16  2  0  0  0  0
 13 15  1  0  0  0  0
 14 17  1  0  0  0  0
 14 12  1  0  0  0  0
 15 14  2  0  0  0  0
 16 18  1  0  0  0  0
 18 12  2  0  0  0  0
 20 19  1  0  0  0  0
 21 22  2  0  0  0  0
 21 20  1  0  0  0  0
 23 21  1  0  0  0  0
 24 23  1  0  0  0  0
 25 24  1  0  0  0  0
M  END
>  <MODEL>
1

>  <REMARK>
 VINA RESULT:      -7.6      0.000      0.000
  Name = 
  5 active torsions:
  status: ('A' for Active; 'I' for Inactive)
    1  A    between atoms: C_1  and  C_5
    2  A    between atoms: C_2  and  C_7
    3  A    between atoms: C_2  and  C_21
    4  A    between atoms: C_6  and  N_15
    5  A    between atoms: C_6  and  C_23
                            x       y       z     vdW  Elec       q    Type
                         _______ _______ _______ _____ _____    ______ ____

>  <TORSDO>
F 5

$$$$
=
 OpenBabel11052422173D

 25 27  0  0  0  0  0  0  0  0999 V2000
  161.2470  205.0330  148.4960 C   0  0  0  0  0  0  0  0  0  0  0  0
  161.4240  205.9980  149.4270 C   0  0  0  0  0  0  0  0  0  0  0  0
  160.8740  203.0040  149.9790 C   0  0  0  0  0  3  0  0  0  0  0  0
  160.9350  203.5060  151.2040 C   0  0  0  0  0  3  0  0  0  0  0  0
  161.3950  205.9300  150.8200 C   0  0  0  0  0  0  0  0  0  0  0  0
  161.1910  205.0850  153.1080 C   0  0  0  0  0  1  0  0  0  0  0  0
  161.6870  207.2760  149.0770 N   0  0  0  0  0  0  0  0  0  0  0  0
  161.0220  203.6780  148.7690 O   0  0  0  0  0  0  0  0  0  0  0  0
  161.6280  207.1640  151.3190 N   0  0  0  0  0  2  0  0  0  0  0  0
  161.8070  207.9390  150.2370 C   0  0  0  0  0  0  0  0  0  0  0  0
  161.1790  204.8820  151.6280 C   0  0  0  0  0  0  0  0  0  0  0  0
  161.2900  205.3800  147.0520 C   0  0  0  0  0  0  0  0  0  0  0  0
  161.3400  205.9490  144.3260 C   0  0  0  0  0  3  0  0  0  0  0  0
  162.4380  205.1320  146.2720 C   0  0  0  0  0  0  0  0  0  0  0  0
  162.4330  205.4260  144.9430 N   0  0  0  0  0  0  0  0  0  0  0  0
  160.1790  206.2000  145.0550 C   0  0  0  0  0  3  0  0  0  0  0  0
  163.6230  204.6030  146.8600 N   0  0  0  0  0  1  0  0  0  0  0  0
  160.1570  205.9100  146.4180 C   0  0  0  0  0  3  0  0  0  0  0  0
  162.0450  209.4080  150.3160 C   0  0  0  0  0  2  0  0  0  0  0  0
  162.3520  209.7930  151.6860 N   0  0  0  0  0  2  0  0  0  0  0  0
  161.3440  210.1600  152.6320 C   0  0  0  0  0  0  0  0  0  0  0  0
  160.1330  210.2170  152.2900 O   0  0  0  0  0  0  0  0  0  0  0  0
  161.7340  210.5130  154.0230 C   0  0  0  0  0  2  0  0  0  0  0  0
  160.7910  209.8510  155.0070 C   0  0  0  0  0  2  0  0  0  0  0  0
  161.1490  208.3860  155.1400 C   0  0  0  0  0  1  0  0  0  0  0  0
  1  8  1  0  0  0  0
  1  2  2  0  0  0  0
  2  5  1  0  0  0  0
  3  4  2  0  0  0  0
  4 11  1  0  0  0  0
  5  9  1  0  0  0  0
  5 11  2  0  0  0  0
  7  2  1  0  0  0  0
  7 10  2  0  0  0  0
  8  3  1  0  0  0  0
 10 19  1  0  0  0  0
 10  9  1  0  0  0  0
 11  6  1  0  0  0  0
 12  1  1  0  0  0  0
 13 15  2  0  0  0  0
 13 16  1  0  0  0  0
 14 17  1  0  0  0  0
 14 12  2  0  0  0  0
 15 14  1  0  0  0  0
 16 18  2  0  0  0  0
 18 12  1  0  0  0  0
 19 20  1  0  0  0  0
 20 21  1  0  0  0  0
 21 23  1  0  0  0  0
 22 21  2  0  0  0  0
 23 24  1  0  0  0  0
 24 25  1  0  0  0  0
M  END
>  <MODEL>
2

>  <REMARK>
 VINA RESULT:      -7.6      2.436      6.137
  Name = 
  5 active torsions:
  status: ('A' for Active; 'I' for Inactive)
    1  A    between atoms: C_1  and  C_5
    2  A    between atoms: C_2  and  C_7
    3  A    between atoms: C_2  and  C_21
    4  A    between atoms: C_6  and  N_15
    5  A    between atoms: C_6  and  C_23
                            x       y       z     vdW  Elec       q    Type
                         _______ _______ _______ _____ _____    ______ ____

>  <TORSDO>
F 5

$$$$
=
 OpenBabel11052422173D

 25 27  0  0  0  0  0  0  0  0999 V2000
  161.3040  205.4300  148.6360 C   0  0  0  0  0  0  0  0  0  0  0  0
  161.5220  206.4910  149.4450 C   0  0  0  0  0  0  0  0  0  0  0  0
  160.9440  203.5890  150.3500 C   0  0  0  0  0  3  0  0  0  0  0  0
  161.0490  204.2250  151.5070 C   0  0  0  0  0  3  0  0  0  0  0  0
  161.5340  206.5810  150.8380 C   0  0  0  0  0  0  0  0  0  0  0  0
  161.3850  206.0050  153.2120 C   0  0  0  0  0  1  0  0  0  0  0  0
  161.7940  207.7160  148.9450 N   0  0  0  0  0  0  0  0  0  0  0  0
  161.0670  204.1180  149.0680 O   0  0  0  0  0  0  0  0  0  0  0  0
  161.8000  207.8600  151.1860 N   0  0  0  0  0  2  0  0  0  0  0  0
  161.9580  208.5040  150.0180 C   0  0  0  0  0  0  0  0  0  0  0  0
  161.3270  205.6360  151.7650 C   0  0  0  0  0  0  0  0  0  0  0  0
  161.3090  205.6100  147.1610 C   0  0  0  0  0  0  0  0  0  0  0  0
  161.2840  205.8660  144.3880 C   0  0  0  0  0  3  0  0  0  0  0  0
  162.4170  205.2240  146.3790 C   0  0  0  0  0  0  0  0  0  0  0  0
  162.3760  205.3670  145.0260 N   0  0  0  0  0  0  0  0  0  0  0  0
  160.1620  206.2500  145.1190 C   0  0  0  0  0  3  0  0  0  0  0  0
  163.6000  204.7120  146.9860 N   0  0  0  0  0  1  0  0  0  0  0  0
  160.1770  206.1150  146.5070 C   0  0  0  0  0  3  0  0  0  0  0  0
  162.2210  209.9670  149.9230 C   0  0  0  0  0  2  0  0  0  0  0  0
  161.9260  210.4440  148.5790 N   0  0  0  0  0  2  0  0  0  0  0  0
  161.5360  211.7920  148.3040 C   0  0  0  0  0  0  0  0  0  0  0  0
  161.3750  212.6180  149.2410 O   0  0  0  0  0  0  0  0  0  0  0  0
  161.2800  212.2110  146.9010 C   0  0  0  0  0  2  0  0  0  0  0  0
  162.2550  213.3020  146.5040 C   0  0  0  0  0  2  0  0  0  0  0  0
  162.4300  213.3000  145.0000 C   0  0  0  0  0  1  0  0  0  0  0  0
  1  8  1  0  0  0  0
  1  2  2  0  0  0  0
  2  5  1  0  0  0  0
  3  4  2  0  0  0  0
  4 11  1  0  0  0  0
  5  9  1  0  0  0  0
  5 11  2  0  0  0  0
  7  2  1  0  0  0  0
  7 10  2  0  0  0  0
  8  3  1  0  0  0  0
 10  9  1  0  0  0  0
 11  6  1  0  0  0  0
 12  1  1  0  0  0  0
 13 15  2  0  0  0  0
 13 16  1  0  0  0  0
 14 17  1  0  0  0  0
 14 12  2  0  0  0  0
 15 14  1  0  0  0  0
 16 18  2  0  0  0  0
 18 12  1  0  0  0  0
 19 10  1  0  0  0  0
 20 19  1  0  0  0  0
 21 20  1  0  0  0  0
 21 22  2  0  0  0  0
 23 21  1  0  0  0  0
 24 23  1  0  0  0  0
 25 24  1  0  0  0  0
M  END
>  <MODEL>
3

>  <REMARK>
 VINA RESULT:      -7.5      3.131      6.199
  Name = 
  5 active torsions:
  status: ('A' for Active; 'I' for Inactive)
    1  A    between atoms: C_1  and  C_5
    2  A    between atoms: C_2  and  C_7
    3  A    between atoms: C_2  and  C_21
    4  A    between atoms: C_6  and  N_15
    5  A    between atoms: C_6  and  C_23
                            x       y       z     vdW  Elec       q    Type
                         _______ _______ _______ _____ _____    ______ ____

>  <TORSDO>
F 5

$$$$
=
 OpenBabel11052422173D

 25 27  0  0  0  0  0  0  0  0999 V2000
  161.1940  206.1830  151.8780 C   0  0  0  0  0  0  0  0  0  0  0  0
  161.0660  205.9540  150.5510 C   0  0  0  0  0  0  0  0  0  0  0  0
  161.0720  203.8130  152.7840 C   0  0  0  0  0  3  0  0  0  0  0  0
  160.9500  203.0750  151.6910 C   0  0  0  0  0  3  0  0  0  0  0  0
  160.9230  204.7580  149.8470 C   0  0  0  0  0  0  0  0  0  0  0  0
  160.7290  202.3770  149.3140 C   0  0  0  0  0  1  0  0  0  0  0  0
  161.0490  206.9680  149.6580 N   0  0  0  0  0  0  0  0  0  0  0  0
  161.1700  205.1990  152.8740 O   0  0  0  0  0  0  0  0  0  0  0  0
  160.8320  205.0400  148.5290 N   0  0  0  0  0  2  0  0  0  0  0  0
  160.9020  206.3790  148.4620 C   0  0  0  0  0  0  0  0  0  0  0  0
  160.8780  203.4950  150.2940 C   0  0  0  0  0  0  0  0  0  0  0  0
  161.3710  207.5720  152.3750 C   0  0  0  0  0  0  0  0  0  0  0  0
  161.7850  210.1530  153.3380 C   0  0  0  0  0  3  0  0  0  0  0  0
  160.9910  207.9370  153.6830 C   0  0  0  0  0  0  0  0  0  0  0  0
  161.2010  209.2080  154.1220 N   0  0  0  0  0  0  0  0  0  0  0  0
  162.1890  209.8340  152.0430 C   0  0  0  0  0  3  0  0  0  0  0  0
  160.3560  207.0000  154.5490 N   0  0  0  0  0  1  0  0  0  0  0  0
  161.9840  208.5400  151.5670 C   0  0  0  0  0  3  0  0  0  0  0  0
  160.8900  207.1330  147.1770 C   0  0  0  0  0  2  0  0  0  0  0  0
  160.5750  206.2380  146.0730 N   0  0  0  0  0  2  0  0  0  0  0  0
  161.5810  205.6000  145.2830 C   0  0  0  0  0  0  0  0  0  0  0  0
  162.8020  205.8370  145.4830 O   0  0  0  0  0  0  0  0  0  0  0  0
  161.1810  204.6750  144.1890 C   0  0  0  0  0  2  0  0  0  0  0  0
  160.1880  203.6570  144.7130 C   0  0  0  0  0  2  0  0  0  0  0  0
  160.9230  202.6000  145.5100 C   0  0  0  0  0  1  0  0  0  0  0  0
  1 12  1  0  0  0  0
  1  8  1  0  0  0  0
  2  1  2  0  0  0  0
  3  8  1  0  0  0  0
  4  3  2  0  0  0  0
  5 11  2  0  0  0  0
  5  2  1  0  0  0  0
  6 11  1  0  0  0  0
  7  2  1  0  0  0  0
  9  5  1  0  0  0  0
 10  9  1  0  0  0  0
 10  7  2  0  0  0  0
 11  4  1  0  0  0  0
 12 14  1  0  0  0  0
 13 15  1  0  0  0  0
 14 15  2  0  0  0  0
 14 17  1  0  0  0  0
 16 13  2  0  0  0  0
 18 16  1  0  0  0  0
 18 12  2  0  0  0  0
 19 10  1  0  0  0  0
 20 19  1  0  0  0  0
 21 22  2  0  0  0  0
 21 20  1  0  0  0  0
 23 24  1  0  0  0  0
 23 21  1  0  0  0  0
 24 25  1  0  0  0  0
M  END
>  <MODEL>
4

>  <REMARK>
 VINA RESULT:      -7.1      2.435      5.636
  Name = 
  5 active torsions:
  status: ('A' for Active; 'I' for Inactive)
    1  A    between atoms: C_1  and  C_5
    2  A    between atoms: C_2  and  C_7
    3  A    between atoms: C_2  and  C_21
    4  A    between atoms: C_6  and  N_15
    5  A    between atoms: C_6  and  C_23
                            x       y       z     vdW  Elec       q    Type
                         _______ _______ _______ _____ _____    ______ ____

>  <TORSDO>
F 5

$$$$
=
 OpenBabel11052422173D

 25 27  0  0  0  0  0  0  0  0999 V2000
  161.8500  206.6360  148.3180 C   0  0  0  0  0  0  0  0  0  0  0  0
  161.5060  206.0570  149.4920 C   0  0  0  0  0  0  0  0  0  0  0  0
  162.0800  209.0630  149.0350 C   0  0  0  0  0  3  0  0  0  0  0  0
  161.8250  209.0230  150.3340 C   0  0  0  0  0  3  0  0  0  0  0  0
  161.3370  206.6120  150.7610 C   0  0  0  0  0  0  0  0  0  0  0  0
  161.2410  208.2110  152.6110 C   0  0  0  0  0  1  0  0  0  0  0  0
  161.2500  204.7340  149.5770 N   0  0  0  0  0  0  0  0  0  0  0  0
  162.0820  208.0040  148.1290 O   0  0  0  0  0  0  0  0  0  0  0  0
  160.9900  205.6280  151.6200 N   0  0  0  0  0  2  0  0  0  0  0  0
  160.9400  204.5190  150.8640 C   0  0  0  0  0  0  0  0  0  0  0  0
  161.4730  207.8800  151.1720 C   0  0  0  0  0  0  0  0  0  0  0  0
  162.0020  205.8020  147.0980 C   0  0  0  0  0  0  0  0  0  0  0  0
  162.3280  204.3080  144.7710 C   0  0  0  0  0  3  0  0  0  0  0  0
  161.0190  205.7960  146.0870 C   0  0  0  0  0  0  0  0  0  0  0  0
  161.2060  205.0500  144.9640 N   0  0  0  0  0  0  0  0  0  0  0  0
  163.3310  204.2940  145.7370 C   0  0  0  0  0  3  0  0  0  0  0  0
  159.8110  206.5360  146.2350 N   0  0  0  0  0  1  0  0  0  0  0  0
  163.1660  205.0470  146.8990 C   0  0  0  0  0  3  0  0  0  0  0  0
  160.6400  203.1690  151.4170 C   0  0  0  0  0  2  0  0  0  0  0  0
  161.2760  202.1410  150.6050 N   0  0  0  0  0  2  0  0  0  0  0  0
  160.6030  201.4750  149.5330 C   0  0  0  0  0  0  0  0  0  0  0  0
  159.3930  201.7200  149.2840 O   0  0  0  0  0  0  0  0  0  0  0  0
  161.3290  200.4560  148.7300 C   0  0  0  0  0  2  0  0  0  0  0  0
  161.3570  200.8730  147.2730 C   0  0  0  0  0  2  0  0  0  0  0  0
  161.3510  199.6400  146.3950 C   0  0  0  0  0  1  0  0  0  0  0  0
  1  2  2  0  0  0  0
  2  7  1  0  0  0  0
  2  5  1  0  0  0  0
  3  4  2  0  0  0  0
  4 11  1  0  0  0  0
  5 11  2  0  0  0  0
  5  9  1  0  0  0  0
  7 10  2  0  0  0  0
  8  1  1  0  0  0  0
  8  3  1  0  0  0  0
 10 19  1  0  0  0  0
 10  9  1  0  0  0  0
 11  6  1  0  0  0  0
 12  1  1  0  0  0  0
 13 15  2  0  0  0  0
 13 16  1  0  0  0  0
 14 17  1  0  0  0  0
 14 12  2  0  0  0  0
 15 14  1  0  0  0  0
 16 18  2  0  0  0  0
 18 12  1  0  0  0  0
 20 19  1  0  0  0  0
 21 20  1  0  0  0  0
 22 21  2  0  0  0  0
 23 21  1  0  0  0  0
 24 23  1  0  0  0  0
 25 24  1  0  0  0  0
M  END
>  <MODEL>
5

>  <REMARK>
 VINA RESULT:      -7.1      1.555      2.040
  Name = 
  5 active torsions:
  status: ('A' for Active; 'I' for Inactive)
    1  A    between atoms: C_1  and  C_5
    2  A    between atoms: C_2  and  C_7
    3  A    between atoms: C_2  and  C_21
    4  A    between atoms: C_6  and  N_15
    5  A    between atoms: C_6  and  C_23
                            x       y       z     vdW  Elec       q    Type
                         _______ _______ _______ _____ _____    ______ ____

>  <TORSDO>
F 5

$$$$
=
 OpenBabel11052422173D

 25 27  0  0  0  0  0  0  0  0999 V2000
  161.0630  203.6300  148.1820 C   0  0  0  0  0  0  0  0  0  0  0  0
  161.3750  204.8670  147.7310 C   0  0  0  0  0  0  0  0  0  0  0  0
  160.8100  202.3730  145.9880 C   0  0  0  0  0  3  0  0  0  0  0  0
  161.0870  203.2930  145.0760 C   0  0  0  0  0  3  0  0  0  0  0  0
  161.5380  205.3420  146.4290 C   0  0  0  0  0  0  0  0  0  0  0  0
  161.6720  205.4520  143.9880 C   0  0  0  0  0  1  0  0  0  0  0  0
  161.5770  205.8970  148.5800 N   0  0  0  0  0  0  0  0  0  0  0  0
  160.7880  202.5200  147.3730 O   0  0  0  0  0  0  0  0  0  0  0  0
  161.8500  206.6560  146.4850 N   0  0  0  0  0  2  0  0  0  0  0  0
  161.8540  206.9490  147.7950 C   0  0  0  0  0  0  0  0  0  0  0  0
  161.4330  204.7000  145.2570 C   0  0  0  0  0  0  0  0  0  0  0  0
  160.9860  203.3730  149.6430 C   0  0  0  0  0  0  0  0  0  0  0  0
  160.9320  202.9010  152.3870 C   0  0  0  0  0  3  0  0  0  0  0  0
  161.0940  202.0680  150.1650 C   0  0  0  0  0  0  0  0  0  0  0  0
  161.0580  201.8690  151.5110 N   0  0  0  0  0  0  0  0  0  0  0  0
  160.8350  204.2090  151.9180 C   0  0  0  0  0  3  0  0  0  0  0  0
  161.2090  200.9410  149.3000 N   0  0  0  0  0  1  0  0  0  0  0  0
  160.8670  204.4410  150.5440 C   0  0  0  0  0  3  0  0  0  0  0  0
  162.2010  208.2960  148.3280 C   0  0  0  0  0  2  0  0  0  0  0  0
  162.0950  208.3050  149.7800 N   0  0  0  0  0  2  0  0  0  0  0  0
  161.9560  209.5080  150.5400 C   0  0  0  0  0  0  0  0  0  0  0  0
  161.9770  210.6320  149.9710 O   0  0  0  0  0  0  0  0  0  0  0  0
  161.8240  209.4330  152.0190 C   0  0  0  0  0  2  0  0  0  0  0  0
  160.7050  208.4800  152.3880 C   0  0  0  0  0  2  0  0  0  0  0  0
  161.2060  207.4870  153.4150 C   0  0  0  0  0  1  0  0  0  0  0  0
  1 12  1  0  0  0  0
  2  1  2  0  0  0  0
  2  7  1  0  0  0  0
  3  8  1  0  0  0  0
  4 11  1  0  0  0  0
  4  3  2  0  0  0  0
  5  9  1  0  0  0  0
  5  2  1  0  0  0  0
  6 11  1  0  0  0  0
  8  1  1  0  0  0  0
  9 10  1  0  0  0  0
 10 19  1  0  0  0  0
 10  7  2  0  0  0  0
 11  5  2  0  0  0  0
 12 14  2  0  0  0  0
 12 18  1  0  0  0  0
 14 15  1  0  0  0  0
 15 13  2  0  0  0  0
 16 13  1  0  0  0  0
 17 14  1  0  0  0  0
 18 16  2  0  0  0  0
 19 20  1  0  0  0  0
 20 21  1  0  0  0  0
 21 23  1  0  0  0  0
 22 21  2  0  0  0  0
 23 24  1  0  0  0  0
 24 25  1  0  0  0  0
M  END
>  <MODEL>
6

>  <REMARK>
 VINA RESULT:      -7.0      1.914      6.979
  Name = 
  5 active torsions:
  status: ('A' for Active; 'I' for Inactive)
    1  A    between atoms: C_1  and  C_5
    2  A    between atoms: C_2  and  C_7
    3  A    between atoms: C_2  and  C_21
    4  A    between atoms: C_6  and  N_15
    5  A    between atoms: C_6  and  C_23
                            x       y       z     vdW  Elec       q    Type
                         _______ _______ _______ _____ _____    ______ ____

>  <TORSDO>
F 5

$$$$
=
 OpenBabel11052422173D

 25 27  0  0  0  0  0  0  0  0999 V2000
  161.2940  203.4680  147.8770 C   0  0  0  0  0  0  0  0  0  0  0  0
  161.2080  204.2070  149.0070 C   0  0  0  0  0  0  0  0  0  0  0  0
  161.0430  201.1230  148.8230 C   0  0  0  0  0  3  0  0  0  0  0  0
  160.8770  201.3340  150.1200 C   0  0  0  0  0  3  0  0  0  0  0  0
  161.0170  203.8170  150.3330 C   0  0  0  0  0  0  0  0  0  0  0  0
  160.6580  202.4510  152.3310 C   0  0  0  0  0  1  0  0  0  0  0  0
  161.3210  205.5530  148.9790 N   0  0  0  0  0  0  0  0  0  0  0  0
  161.2390  202.0700  147.8200 O   0  0  0  0  0  0  0  0  0  0  0  0
  161.0020  204.9230  151.1110 N   0  0  0  0  0  2  0  0  0  0  0  0
  161.1970  205.9410  150.2580 C   0  0  0  0  0  0  0  0  0  0  0  0
  160.8600  202.5940  150.8580 C   0  0  0  0  0  0  0  0  0  0  0  0
  161.4640  204.1410  146.5640 C   0  0  0  0  0  0  0  0  0  0  0  0
  161.7120  205.4520  144.1190 C   0  0  0  0  0  3  0  0  0  0  0  0
  160.8450  203.6440  145.3990 C   0  0  0  0  0  0  0  0  0  0  0  0
  160.9900  204.3040  144.2180 N   0  0  0  0  0  0  0  0  0  0  0  0
  162.3310  205.9870  145.2460 C   0  0  0  0  0  3  0  0  0  0  0  0
  160.0910  202.4350  145.4290 N   0  0  0  0  0  1  0  0  0  0  0  0
  162.2010  205.3300  146.4690 C   0  0  0  0  0  3  0  0  0  0  0  0
  161.2030  207.3690  150.6810 C   0  0  0  0  0  2  0  0  0  0  0  0
  160.8920  207.4740  152.1000 N   0  0  0  0  0  2  0  0  0  0  0  0
  161.2070  208.6310  152.8780 C   0  0  0  0  0  0  0  0  0  0  0  0
  161.8290  209.6000  152.3660 O   0  0  0  0  0  0  0  0  0  0  0  0
  160.8310  208.6750  154.3160 C   0  0  0  0  0  2  0  0  0  0  0  0
  160.5200  207.2770  154.8100 C   0  0  0  0  0  2  0  0  0  0  0  0
  159.9410  207.3520  156.2070 C   0  0  0  0  0  1  0  0  0  0  0  0
  1  2  2  0  0  0  0
  2  5  1  0  0  0  0
  3  4  2  0  0  0  0
  4 11  1  0  0  0  0
  5 11  2  0  0  0  0
  5  9  1  0  0  0  0
  7  2  1  0  0  0  0
  7 10  2  0  0  0  0
  8  1  1  0  0  0  0
  8  3  1  0  0  0  0
 10 19  1  0  0  0  0
 10  9  1  0  0  0  0
 11  6  1  0  0  0  0
 12  1  1  0  0  0  0
 13 15  2  0  0  0  0
 13 16  1  0  0  0  0
 14 17  1  0  0  0  0
 14 12  2  0  0  0  0
 15 14  1  0  0  0  0
 16 18  2  0  0  0  0
 18 12  1  0  0  0  0
 19 20  1  0  0  0  0
 20 21  1  0  0  0  0
 21 23  1  0  0  0  0
 22 21  2  0  0  0  0
 23 24  1  0  0  0  0
 24 25  1  0  0  0  0
M  END
>  <MODEL>
7

>  <REMARK>
 VINA RESULT:      -6.8      2.078      5.963
  Name = 
  5 active torsions:
  status: ('A' for Active; 'I' for Inactive)
    1  A    between atoms: C_1  and  C_5
    2  A    between atoms: C_2  and  C_7
    3  A    between atoms: C_2  and  C_21
    4  A    between atoms: C_6  and  N_15
    5  A    between atoms: C_6  and  C_23
                            x       y       z     vdW  Elec       q    Type
                         _______ _______ _______ _____ _____    ______ ____

>  <TORSDO>
F 5

$$$$
=
 OpenBabel11052422173D

 25 27  0  0  0  0  0  0  0  0999 V2000
  161.5020  209.8030  151.8120 C   0  0  0  0  0  0  0  0  0  0  0  0
  161.4810  208.4820  151.5230 C   0  0  0  0  0  0  0  0  0  0  0  0
  162.0130  210.7830  149.5240 C   0  0  0  0  0  3  0  0  0  0  0  0
  162.0740  209.7150  148.7420 C   0  0  0  0  0  3  0  0  0  0  0  0
  161.6670  207.8160  150.3110 C   0  0  0  0  0  0  0  0  0  0  0  0
  162.0610  207.3610  147.9390 C   0  0  0  0  0  1  0  0  0  0  0  0
  161.2650  207.5530  152.4810 N   0  0  0  0  0  0  0  0  0  0  0  0
  161.7690  210.8270  150.8950 O   0  0  0  0  0  0  0  0  0  0  0  0
  161.5520  206.4870  150.5260 N   0  0  0  0  0  2  0  0  0  0  0  0
  161.3210  206.3740  151.8440 C   0  0  0  0  0  0  0  0  0  0  0  0
  161.9140  208.3050  149.0880 C   0  0  0  0  0  0  0  0  0  0  0  0
  161.2330  210.2610  153.1990 C   0  0  0  0  0  0  0  0  0  0  0  0
  160.7030  211.0370  155.8210 C   0  0  0  0  0  3  0  0  0  0  0  0
  159.9710  210.7660  153.5740 C   0  0  0  0  0  0  0  0  0  0  0  0
  159.7450  211.1430  154.8620 N   0  0  0  0  0  0  0  0  0  0  0  0
  161.9610  210.5330  155.5000 C   0  0  0  0  0  3  0  0  0  0  0  0
  158.9300  210.9210  152.6140 N   0  0  0  0  0  1  0  0  0  0  0  0
  162.2210  210.1410  154.1880 C   0  0  0  0  0  3  0  0  0  0  0  0
  161.0780  205.0690  152.5200 C   0  0  0  0  0  2  0  0  0  0  0  0
  160.4820  204.1230  151.5880 N   0  0  0  0  0  2  0  0  0  0  0  0
  161.0600  202.8470  151.3040 C   0  0  0  0  0  0  0  0  0  0  0  0
  162.1590  202.5100  151.8190 O   0  0  0  0  0  0  0  0  0  0  0  0
  160.3750  201.9220  150.3610 C   0  0  0  0  0  2  0  0  0  0  0  0
  160.8940  202.1450  148.9540 C   0  0  0  0  0  2  0  0  0  0  0  0
  161.3090  200.8190  148.3540 C   0  0  0  0  0  1  0  0  0  0  0  0
  1 12  1  0  0  0  0
  2  1  2  0  0  0  0
  2  7  1  0  0  0  0
  3  8  1  0  0  0  0
  4 11  1  0  0  0  0
  4  3  2  0  0  0  0
  5  9  1  0  0  0  0
  5  2  1  0  0  0  0
  6 11  1  0  0  0  0
  8  1  1  0  0  0  0
  9 10  1  0  0  0  0
 10  7  2  0  0  0  0
 10 19  1  0  0  0  0
 11  5  2  0  0  0  0
 12 14  2  0  0  0  0
 12 18  1  0  0  0  0
 14 15  1  0  0  0  0
 15 13  2  0  0  0  0
 16 13  1  0  0  0  0
 17 14  1  0  0  0  0
 18 16  2  0  0  0  0
 20 19  1  0  0  0  0
 21 20  1  0  0  0  0
 21 22  2  0  0  0  0
 23 21  1  0  0  0  0
 24 23  1  0  0  0  0
 25 24  1  0  0  0  0
M  END
>  <MODEL>
8

>  <REMARK>
 VINA RESULT:      -6.7      3.415      6.332
  Name = 
  5 active torsions:
  status: ('A' for Active; 'I' for Inactive)
    1  A    between atoms: C_1  and  C_5
    2  A    between atoms: C_2  and  C_7
    3  A    between atoms: C_2  and  C_21
    4  A    between atoms: C_6  and  N_15
    5  A    between atoms: C_6  and  C_23
                            x       y       z     vdW  Elec       q    Type
                         _______ _______ _______ _____ _____    ______ ____

>  <TORSDO>
F 5

$$$$
=
 OpenBabel11052422173D

 25 27  0  0  0  0  0  0  0  0999 V2000
  161.2540  205.9440  148.4940 C   0  0  0  0  0  0  0  0  0  0  0  0
  161.5140  207.1540  149.0380 C   0  0  0  0  0  0  0  0  0  0  0  0
  160.8500  204.5570  150.5850 C   0  0  0  0  0  3  0  0  0  0  0  0
  160.9870  205.4380  151.5650 C   0  0  0  0  0  3  0  0  0  0  0  0
  161.5420  207.5600  150.3730 C   0  0  0  0  0  0  0  0  0  0  0  0
  161.3960  207.5480  152.8160 C   0  0  0  0  0  1  0  0  0  0  0  0
  161.8210  208.2220  148.2700 N   0  0  0  0  0  0  0  0  0  0  0  0
  160.9780  204.7750  149.2150 O   0  0  0  0  0  0  0  0  0  0  0  0
  161.8530  208.8740  150.4180 N   0  0  0  0  0  2  0  0  0  0  0  0
  162.0210  209.2290  149.1340 C   0  0  0  0  0  0  0  0  0  0  0  0
  161.3120  206.8600  151.4920 C   0  0  0  0  0  0  0  0  0  0  0  0
  161.2520  205.7820  147.0170 C   0  0  0  0  0  0  0  0  0  0  0  0
  161.2060  205.3990  144.2590 C   0  0  0  0  0  3  0  0  0  0  0  0
  162.3190  205.1490  146.3460 C   0  0  0  0  0  0  0  0  0  0  0  0
  162.2690  204.9820  144.9970 N   0  0  0  0  0  0  0  0  0  0  0  0
  160.1240  206.0180  144.8800 C   0  0  0  0  0  3  0  0  0  0  0  0
  163.4710  204.7060  147.0580 N   0  0  0  0  0  1  0  0  0  0  0  0
  160.1480  206.2030  146.2610 C   0  0  0  0  0  3  0  0  0  0  0  0
  162.3310  210.6220  148.7060 C   0  0  0  0  0  2  0  0  0  0  0  0
  161.2990  211.5330  149.1810 N   0  0  0  0  0  2  0  0  0  0  0  0
  161.3140  212.9340  148.8960 C   0  0  0  0  0  0  0  0  0  0  0  0
  162.2690  213.4500  148.2570 O   0  0  0  0  0  0  0  0  0  0  0  0
  160.2090  213.7970  149.3920 C   0  0  0  0  0  2  0  0  0  0  0  0
  159.8210  213.3810  150.7970 C   0  0  0  0  0  2  0  0  0  0  0  0
  158.4660  213.9630  151.1390 C   0  0  0  0  0  1  0  0  0  0  0  0
  1  2  2  0  0  0  0
  1  8  1  0  0  0  0
  2  5  1  0  0  0  0
  3  4  2  0  0  0  0
  5  9  1  0  0  0  0
  5 11  2  0  0  0  0
  7  2  1  0  0  0  0
  7 10  2  0  0  0  0
  8  3  1  0  0  0  0
 10  9  1  0  0  0  0
 11  4  1  0  0  0  0
 11  6  1  0  0  0  0
 12  1  1  0  0  0  0
 13 16  2  0  0  0  0
 13 15  1  0  0  0  0
 14 12  1  0  0  0  0
 14 17  1  0  0  0  0
 15 14  2  0  0  0  0
 16 18  1  0  0  0  0
 18 12  2  0  0  0  0
 19 10  1  0  0  0  0
 19 20  1  0  0  0  0
 21 20  1  0  0  0  0
 21 23  1  0  0  0  0
 22 21  2  0  0  0  0
 23 24  1  0  0  0  0
 24 25  1  0  0  0  0
M  END
>  <MODEL>
9

>  <REMARK>
 VINA RESULT:      -6.7      3.430      6.853
  Name = 
  5 active torsions:
  status: ('A' for Active; 'I' for Inactive)
    1  A    between atoms: C_1  and  C_5
    2  A    between atoms: C_2  and  C_7
    3  A    between atoms: C_2  and  C_21
    4  A    between atoms: C_6  and  N_15
    5  A    between atoms: C_6  and  C_23
                            x       y       z     vdW  Elec       q    Type
                         _______ _______ _______ _____ _____    ______ ____

>  <TORSDO>
F 5

$$$$
