=
 OpenBabel11062409003D

 55 60  0  0  1  0  0  0  0  0999 V2000
  161.6250  205.4360  145.0480 C   0  0  2  0  0  0  0  0  0  0  0  0
  163.1050  205.1100  145.0620 C   0  0  0  0  0  1  0  0  0  0  0  0
  161.3990  203.0640  145.4630 O   0  0  0  0  0  1  0  0  0  0  0  0
  160.8930  204.1130  144.9790 C   0  0  0  0  0  0  0  0  0  0  0  0
  159.6830  204.0260  144.2950 O   0  0  0  0  0  0  0  0  0  0  0  0
  161.3640  206.2460  143.9110 O   0  0  0  0  0  0  0  0  0  0  0  0
  162.2190  205.8860  142.8500 C   0  0  0  0  0  2  0  0  0  0  0  0
  161.5790  206.2530  141.5260 C   0  0  0  0  0  2  0  0  0  0  0  0
  161.7620  207.7340  141.2520 C   0  0  0  0  0  2  0  0  0  0  0  0
  161.7830  207.9920  139.7580 C   0  0  1  0  0  3  0  0  0  0  0  0
  161.8380  206.7770  139.0960 F   0  0  0  0  0  0  0  0  0  0  0  0
  160.6100  208.6750  139.3870 O   0  0  0  0  0  0  0  0  0  0  0  0
  158.5320  211.6490  140.0660 C   0  0  0  0  0  2  0  0  0  0  0  0
  160.9220  209.9720  138.8990 C   0  0  1  0  0  0  0  0  0  0  0  0
  157.7430  209.4760  139.2190 O   0  0  0  0  0  0  0  0  0  0  0  0
  159.4440  209.5580  137.0120 O   0  0  0  0  0  1  0  0  0  0  0  0
  159.7100  210.4530  138.0520 C   0  0  1  0  0  0  0  0  0  0  0  0
  160.0950  212.9290  138.5660 C   0  0  0  0  0  2  0  0  0  0  0  0
  157.2600  210.4220  138.3840 O   0  0  0  0  0  0  0  0  0  0  0  0
  159.8870  212.3660  139.9800 C   0  0  2  0  0  0  0  0  0  0  0  0
  158.4910  210.6010  138.9670 C   0  0  0  0  0  0  0  0  0  0  0  0
  161.2190  211.1460  140.3280 S   0  0  0  0  0  0  0  0  0  0  0  0
  160.0000  211.8450  137.4710 C   0  0  0  0  0  2  0  0  0  0  0  0
  162.2010  208.9840  137.0250 O   0  0  0  0  0  0  0  0  0  0  0  0
  162.1150  209.9130  138.0380 N   0  0  0  0  0  0  0  0  0  0  0  0
  163.1350  210.5660  138.3380 O   0  0  0  0  0  0  0  0  0  0  0  0
  159.9450  213.4980  140.9670 C   0  0  0  0  0  0  0  0  0  0  0  0
  158.7710  214.0460  141.4800 O   0  0  0  0  0  1  0  0  0  0  0  0
  161.0530  214.0220  141.2720 O   0  0  0  0  0  0  0  0  0  0  0  0
  161.2860  206.1850  146.3490 C   0  0  0  0  0  2  0  0  0  0  0  0
  161.7870  205.5240  147.4810 O   0  0  0  0  0  0  0  0  0  0  0  0
  161.9760  206.5050  148.4660 C   0  0  2  0  0  3  0  0  0  0  0  0
  161.2570  206.1250  149.7860 C   0  0  1  0  0  3  0  0  0  0  0  0
  161.1350  206.9530  152.2170 C   0  0  0  0  0  2  0  0  0  0  0  0
  161.8810  208.0030  151.4160 C   0  0  1  0  0  3  0  0  0  0  0  0
  160.7560  207.2070  150.7750 C   0  0  1  0  0  3  0  0  0  0  0  0
  161.3670  209.3670  151.8450 C   0  0  1  0  0  3  0  0  0  0  0  0
  161.1780  209.3690  153.2410 O   0  0  0  0  0  0  0  0  0  0  0  0
  162.3240  210.0250  152.7670 C   0  0  0  0  0  2  0  0  0  0  0  0
  160.2160  205.0110  149.6000 C   0  0  0  0  0  2  0  0  0  0  0  0
  160.7610  203.9180  152.3090 O   0  0  0  0  0  0  0  0  0  0  0  0
  161.2360  201.3680  149.8450 C   0  0  0  0  0  3  0  0  0  0  0  0
  160.7320  203.6940  149.9650 N   0  0  0  0  0  0  0  0  0  0  0  0
  160.8030  202.5950  149.0280 C   0  0  0  0  0  3  0  0  0  0  0  0
  161.2220  201.7700  151.3220 C   0  0  0  0  0  2  0  0  0  0  0  0
  160.8940  203.2050  151.2800 C   0  0  0  0  0  0  0  0  0  0  0  0
  161.4390  207.8510  147.9550 C   0  0  0  0  0  2  0  0  0  0  0  0
  162.4040  208.8490  148.1220 O   0  0  0  0  0  0  0  0  0  0  0  0
  161.7040  210.0480  147.9910 C   0  0  0  0  0  2  0  0  0  0  0  0
  162.3780  211.1100  148.8350 C   0  0  0  0  0  2  0  0  0  0  0  0
  162.0110  212.4600  148.3350 C   0  0  0  0  0  0  0  0  0  0  0  0
  161.5100  213.2990  149.1240 O   0  0  0  0  0  0  0  0  0  0  0  0
  162.1980  212.7610  146.9840 O   0  0  0  0  0  0  0  0  0  0  0  0
  161.1120  212.8920  146.0760 C   0  0  0  0  0  2  0  0  0  0  0  0
  161.6330  213.1560  144.6740 C   0  0  0  0  0  1  0  0  0  0  0  0
  1  2  1  1  0  0  0
  1 30  1  0  0  0  0
  4  1  1  0  0  0  0
  4  3  1  0  0  0  0
  5  4  2  0  0  0  0
  6  1  1  0  0  0  0
  7  6  1  0  0  0  0
  8  7  1  0  0  0  0
  9  8  1  0  0  0  0
 10 11  1  6  0  0  0
 10  9  1  0  0  0  0
 12 10  1  0  0  0  0
 14 12  1  1  0  0  0
 14 22  1  0  0  0  0
 17 16  1  6  0  0  0
 17 14  1  0  0  0  0
 17 21  1  0  0  0  0
 18 20  1  0  0  0  0
 19 21  1  0  0  0  0
 19 15  1  0  0  0  0
 20 13  1  0  0  0  0
 20 22  1  0  0  0  0
 20 27  1  1  0  0  0
 21 15  1  0  0  0  0
 21 13  1  0  0  0  0
 23 17  1  0  0  0  0
 23 18  1  0  0  0  0
 24 25  2  0  0  0  0
 25 26  2  0  0  0  0
 25 14  1  0  0  0  0
 27 29  2  0  0  0  0
 27 28  1  0  0  0  0
 30 31  1  0  0  0  0
 31 32  1  0  0  0  0
 32 47  1  6  0  0  0
 32 33  1  0  0  0  0
 33 40  1  6  0  0  0
 35 37  1  0  0  0  0
 35 34  1  1  0  0  0
 36 33  1  6  0  0  0
 36 35  1  0  0  0  0
 36 34  1  0  0  0  0
 37 39  1  1  0  0  0
 37 38  1  0  0  0  0
 39 38  1  0  0  0  0
 40 43  1  0  0  0  0
 42 45  1  0  0  0  0
 43 46  1  0  0  0  0
 44 42  2  0  0  0  0
 44 43  1  0  0  0  0
 46 45  1  0  0  0  0
 46 41  2  0  0  0  0
 47 48  1  0  0  0  0
 49 48  1  0  0  0  0
 49 50  1  0  0  0  0
 51 50  1  0  0  0  0
 51 52  2  0  0  0  0
 53 51  1  0  0  0  0
 54 53  1  0  0  0  0
 55 54  1  0  0  0  0
M  END
>  <MODEL>
1

>  <REMARK>
 VINA RESULT:      -4.3      0.000      0.000
  Name = 
  25 active torsions:
  status: ('A' for Active; 'I' for Inactive)
    1  A    between atoms: C_1  and  C_29
    2  A    between atoms: C_2  and  O_28
    3  A    between atoms: C_2  and  C_31
    4  A    between atoms: C_4  and  C_40
    5  A    between atoms: C_6  and  N_20
    6  A    between atoms: C_6  and  O_22
    7  A    between atoms: C_8  and  O_22
    8  A    between atoms: C_8  and  C_35
    9  A    between atoms: C_10  and  O_32
   10  A    between atoms: C_13  and  C_48
   11  A    between atoms: C_13  and  O_52
   12  A    between atoms: N_16  and  C_36
   13  A    between atoms: O_27  and  C_31
   14  A    between atoms: O_27  and  C_54
   15  A    between atoms: O_28  and  C_33
   16  A    between atoms: C_31  and  C_41
   17  A    between atoms: O_32  and  C_39
   18  A    between atoms: C_33  and  C_34
   19  A    between atoms: C_33  and  C_49
   20  A    between atoms: C_34  and  O_52
   21  A    between atoms: C_35  and  C_51
   22  A    between atoms: C_36  and  C_49
   23  A    between atoms: C_39  and  C_48
   24  A    between atoms: C_45  and  C_49
   25  A    between atoms: C_51  and  C_54
                            x       y       z     vdW  Elec       q    Type
                         _______ _______ _______ _____ _____    ______ ____

>  <TORSDO>
F 25

$$$$
=
 OpenBabel11062409003D

 55 60  0  0  1  0  0  0  0  0999 V2000
  161.6140  205.5090  144.9330 C   0  0  2  0  0  0  0  0  0  0  0  0
  163.0130  204.9340  144.8480 C   0  0  0  0  0  1  0  0  0  0  0  0
  159.4350  204.5000  144.6380 O   0  0  0  0  0  0  0  0  0  0  0  0
  160.6620  204.3330  144.8790 C   0  0  0  0  0  0  0  0  0  0  0  0
  161.1220  203.0550  145.1840 O   0  0  0  0  0  1  0  0  0  0  0  0
  161.4310  206.3890  143.8320 O   0  0  0  0  0  0  0  0  0  0  0  0
  162.1410  205.9160  142.7100 C   0  0  0  0  0  2  0  0  0  0  0  0
  161.5870  206.5500  141.4480 C   0  0  0  0  0  2  0  0  0  0  0  0
  162.6510  207.4030  140.7850 C   0  0  0  0  0  2  0  0  0  0  0  0
  162.0470  208.2050  139.6490 C   0  0  1  0  0  3  0  0  0  0  0  0
  161.2060  207.3820  138.9190 F   0  0  0  0  0  0  0  0  0  0  0  0
  161.3070  209.2790  140.1790 O   0  0  0  0  0  0  0  0  0  0  0  0
  162.0000  212.7560  141.2030 C   0  0  0  0  0  2  0  0  0  0  0  0
  161.3000  210.3740  139.2750 C   0  0  1  0  0  0  0  0  0  0  0  0
  160.4110  211.2070  142.2700 O   0  0  0  0  0  0  0  0  0  0  0  0
  158.9910  210.8080  139.9040 O   0  0  0  0  0  1  0  0  0  0  0  0
  160.2530  211.3990  139.7950 C   0  0  1  0  0  0  0  0  0  0  0  0
  161.4830  213.4250  138.8330 C   0  0  0  0  0  2  0  0  0  0  0  0
  159.7360  212.3490  142.0180 O   0  0  0  0  0  0  0  0  0  0  0  0
  162.5540  212.8540  139.7750 C   0  0  2  0  0  0  0  0  0  0  0  0
  160.7190  211.9410  141.1490 C   0  0  0  0  0  0  0  0  0  0  0  0
  162.9970  211.1630  139.2010 S   0  0  0  0  0  0  0  0  0  0  0  0
  160.1790  212.5990  138.8390 C   0  0  0  0  0  2  0  0  0  0  0  0
  159.6320  209.4200  137.7150 O   0  0  0  0  0  0  0  0  0  0  0  0
  160.8980  209.9170  137.9340 N   0  0  0  0  0  0  0  0  0  0  0  0
  161.7520  209.7920  137.0330 O   0  0  0  0  0  0  0  0  0  0  0  0
  163.7600  213.7500  139.7400 C   0  0  0  0  0  0  0  0  0  0  0  0
  164.5930  213.7660  138.6240 O   0  0  0  0  0  0  0  0  0  0  0  0
  164.0790  214.4290  140.7560 O   0  0  0  0  0  1  0  0  0  0  0  0
  161.4830  206.2620  146.2690 C   0  0  0  0  0  2  0  0  0  0  0  0
  162.5060  205.9190  147.1660 O   0  0  0  0  0  0  0  0  0  0  0  0
  162.2350  206.6020  148.3610 C   0  0  2  0  0  3  0  0  0  0  0  0
  161.3560  205.7500  149.3120 C   0  0  1  0  0  3  0  0  0  0  0  0
  161.6820  203.5050  148.1020 C   0  0  0  0  0  2  0  0  0  0  0  0
  161.3280  203.1970  149.5440 C   0  0  1  0  0  3  0  0  0  0  0  0
  160.7290  204.4100  148.8510 C   0  0  1  0  0  3  0  0  0  0  0  0
  160.3250  202.0560  149.5410 C   0  0  1  0  0  3  0  0  0  0  0  0
  160.9790  200.8670  149.9200 O   0  0  0  0  0  0  0  0  0  0  0  0
  160.1810  201.4780  150.8990 C   0  0  0  0  0  2  0  0  0  0  0  0
  161.9430  205.6360  150.7260 C   0  0  0  0  0  2  0  0  0  0  0  0
  161.4190  205.3440  153.6370 O   0  0  0  0  0  0  0  0  0  0  0  0
  160.7440  208.7030  152.6050 C   0  0  0  0  0  3  0  0  0  0  0  0
  161.3700  206.6100  151.6520 N   0  0  0  0  0  0  0  0  0  0  0  0
  161.2160  208.0090  151.3180 C   0  0  0  0  0  3  0  0  0  0  0  0
  160.8190  207.6750  153.7370 C   0  0  0  0  0  2  0  0  0  0  0  0
  161.2200  206.4380  153.0450 C   0  0  0  0  0  0  0  0  0  0  0  0
  161.5190  207.9240  148.0420 C   0  0  0  0  0  2  0  0  0  0  0  0
  162.3470  209.0070  148.3510 O   0  0  0  0  0  0  0  0  0  0  0  0
  161.5080  210.1200  148.3150 C   0  0  0  0  0  2  0  0  0  0  0  0
  162.3240  211.3660  148.5920 C   0  0  0  0  0  2  0  0  0  0  0  0
  161.5590  212.5710  148.1830 C   0  0  0  0  0  0  0  0  0  0  0  0
  160.8540  213.1770  149.0300 O   0  0  0  0  0  0  0  0  0  0  0  0
  161.6070  212.9920  146.8520 O   0  0  0  0  0  0  0  0  0  0  0  0
  160.5190  212.8090  145.9560 C   0  0  0  0  0  2  0  0  0  0  0  0
  160.5260  213.8970  144.8970 C   0  0  0  0  0  1  0  0  0  0  0  0
  1  2  1  6  0  0  0
  1 30  1  0  0  0  0
  3  4  2  0  0  0  0
  4  1  1  0  0  0  0
  4  5  1  0  0  0  0
  6  1  1  0  0  0  0
  7  6  1  0  0  0  0
  8  7  1  0  0  0  0
  9  8  1  0  0  0  0
 10 11  1  1  0  0  0
 10 12  1  0  0  0  0
 10  9  1  0  0  0  0
 14 17  1  0  0  0  0
 14 12  1  1  0  0  0
 17 16  1  1  0  0  0
 17 21  1  0  0  0  0
 18 23  1  0  0  0  0
 18 20  1  0  0  0  0
 19 15  1  0  0  0  0
 20 27  1  6  0  0  0
 20 13  1  0  0  0  0
 21 13  1  0  0  0  0
 21 19  1  0  0  0  0
 21 15  1  0  0  0  0
 22 14  1  0  0  0  0
 22 20  1  0  0  0  0
 23 17  1  0  0  0  0
 24 25  2  0  0  0  0
 25 14  1  0  0  0  0
 26 25  2  0  0  0  0
 27 29  1  0  0  0  0
 28 27  2  0  0  0  0
 30 31  1  0  0  0  0
 31 32  1  0  0  0  0
 32 47  1  6  0  0  0
 32 33  1  0  0  0  0
 33 40  1  1  0  0  0
 34 36  1  0  0  0  0
 35 34  1  6  0  0  0
 36 33  1  1  0  0  0
 36 35  1  0  0  0  0
 37 35  1  0  0  0  0
 37 38  1  0  0  0  0
 37 39  1  1  0  0  0
 38 39  1  0  0  0  0
 40 43  1  0  0  0  0
 42 45  1  0  0  0  0
 43 46  1  0  0  0  0
 44 43  1  0  0  0  0
 44 42  2  0  0  0  0
 46 41  2  0  0  0  0
 46 45  1  0  0  0  0
 47 48  1  0  0  0  0
 49 48  1  0  0  0  0
 49 50  1  0  0  0  0
 51 50  1  0  0  0  0
 51 52  2  0  0  0  0
 53 51  1  0  0  0  0
 54 53  1  0  0  0  0
 55 54  1  0  0  0  0
M  END
>  <MODEL>
2

>  <REMARK>
 VINA RESULT:      -4.1      1.567      3.473
  Name = 
  25 active torsions:
  status: ('A' for Active; 'I' for Inactive)
    1  A    between atoms: C_1  and  C_29
    2  A    between atoms: C_2  and  O_28
    3  A    between atoms: C_2  and  C_31
    4  A    between atoms: C_4  and  C_40
    5  A    between atoms: C_6  and  N_20
    6  A    between atoms: C_6  and  O_22
    7  A    between atoms: C_8  and  O_22
    8  A    between atoms: C_8  and  C_35
    9  A    between atoms: C_10  and  O_32
   10  A    between atoms: C_13  and  C_48
   11  A    between atoms: C_13  and  O_52
   12  A    between atoms: N_16  and  C_36
   13  A    between atoms: O_27  and  C_31
   14  A    between atoms: O_27  and  C_54
   15  A    between atoms: O_28  and  C_33
   16  A    between atoms: C_31  and  C_41
   17  A    between atoms: O_32  and  C_39
   18  A    between atoms: C_33  and  C_34
   19  A    between atoms: C_33  and  C_49
   20  A    between atoms: C_34  and  O_52
   21  A    between atoms: C_35  and  C_51
   22  A    between atoms: C_36  and  C_49
   23  A    between atoms: C_39  and  C_48
   24  A    between atoms: C_45  and  C_49
   25  A    between atoms: C_51  and  C_54
                            x       y       z     vdW  Elec       q    Type
                         _______ _______ _______ _____ _____    ______ ____

>  <TORSDO>
F 25

$$$$
=
 OpenBabel11062409003D

 55 60  0  0  1  0  0  0  0  0999 V2000
  161.3300  205.6470  144.8920 C   0  0  2  0  0  0  0  0  0  0  0  0
  162.7910  205.5800  145.2880 C   0  0  0  0  0  1  0  0  0  0  0  0
  161.5940  203.2530  145.1230 O   0  0  0  0  0  1  0  0  0  0  0  0
  160.8390  204.2170  144.8180 C   0  0  0  0  0  0  0  0  0  0  0  0
  159.5660  203.9460  144.3240 O   0  0  0  0  0  0  0  0  0  0  0  0
  161.2440  206.3020  143.6350 O   0  0  0  0  0  0  0  0  0  0  0  0
  162.2420  205.8180  142.7650 C   0  0  0  0  0  2  0  0  0  0  0  0
  161.8680  206.1310  141.3290 C   0  0  0  0  0  2  0  0  0  0  0  0
  161.5410  207.6050  141.1870 C   0  0  0  0  0  2  0  0  0  0  0  0
  161.8460  208.0760  139.7780 C   0  0  1  0  0  3  0  0  0  0  0  0
  162.0660  206.9690  138.9750 F   0  0  0  0  0  0  0  0  0  0  0  0
  160.7480  208.8030  139.2820 O   0  0  0  0  0  0  0  0  0  0  0  0
  158.9450  211.7720  140.5300 C   0  0  0  0  0  2  0  0  0  0  0  0
  161.1310  210.1350  138.9720 C   0  0  1  0  0  0  0  0  0  0  0  0
  157.9460  209.8130  139.4230 O   0  0  0  0  0  0  0  0  0  0  0  0
  159.5250  210.1150  137.1460 O   0  0  0  0  0  1  0  0  0  0  0  0
  159.9150  210.8210  138.2870 C   0  0  1  0  0  0  0  0  0  0  0  0
  160.5170  213.1570  139.1370 C   0  0  0  0  0  2  0  0  0  0  0  0
  157.4920  210.9050  138.7710 O   0  0  0  0  0  0  0  0  0  0  0  0
  160.3440  212.4000  140.4630 C   0  0  2  0  0  0  0  0  0  0  0  0
  158.7640  210.9100  139.2920 C   0  0  0  0  0  0  0  0  0  0  0  0
  161.5960  211.0540  140.5370 S   0  0  0  0  0  0  0  0  0  0  0  0
  160.2790  212.2620  137.9020 C   0  0  0  0  0  2  0  0  0  0  0  0
  162.3320  209.1980  137.0220 O   0  0  0  0  0  0  0  0  0  0  0  0
  162.2670  210.1280  138.0350 N   0  0  0  0  0  0  0  0  0  0  0  0
  163.2730  210.8300  138.2670 O   0  0  0  0  0  0  0  0  0  0  0  0
  160.5430  213.3620  141.6010 C   0  0  0  0  0  0  0  0  0  0  0  0
  161.7860  213.4720  142.2210 O   0  0  0  0  0  1  0  0  0  0  0  0
  159.5640  214.0120  142.0650 O   0  0  0  0  0  0  0  0  0  0  0  0
  160.5730  206.4330  145.9770 C   0  0  0  0  0  2  0  0  0  0  0  0
  161.4330  206.8930  146.9870 O   0  0  0  0  0  0  0  0  0  0  0  0
  160.6500  207.0390  148.1420 C   0  0  2  0  0  3  0  0  0  0  0  0
  161.3740  207.8970  149.2110 C   0  0  1  0  0  3  0  0  0  0  0  0
  161.9250  208.1150  151.7120 C   0  0  0  0  0  2  0  0  0  0  0  0
  160.9920  206.9310  151.5550 C   0  0  1  0  0  3  0  0  0  0  0  0
  162.0070  207.2550  150.4710 C   0  0  1  0  0  3  0  0  0  0  0  0
  161.5160  205.8070  152.4310 C   0  0  1  0  0  3  0  0  0  0  0  0
  162.7180  206.2180  153.0380 O   0  0  0  0  0  0  0  0  0  0  0  0
  161.5750  206.2290  153.8510 C   0  0  0  0  0  2  0  0  0  0  0  0
  162.2990  208.9580  148.5980 C   0  0  0  0  0  2  0  0  0  0  0  0
  161.9300  210.7780  150.9180 O   0  0  0  0  0  0  0  0  0  0  0  0
  161.0090  212.4520  147.8940 C   0  0  0  0  0  3  0  0  0  0  0  0
  161.7140  210.2960  148.6230 N   0  0  0  0  0  0  0  0  0  0  0  0
  161.4610  211.0620  147.4230 C   0  0  0  0  0  3  0  0  0  0  0  0
  161.1990  212.5090  149.4120 C   0  0  0  0  0  2  0  0  0  0  0  0
  161.6400  211.1450  149.7490 C   0  0  0  0  0  0  0  0  0  0  0  0
  160.3320  205.6510  148.7230 C   0  0  0  0  0  2  0  0  0  0  0  0
  161.4690  204.8400  148.6790 O   0  0  0  0  0  0  0  0  0  0  0  0
  160.9790  203.5520  148.4650 C   0  0  0  0  0  2  0  0  0  0  0  0
  160.5210  202.9690  149.7860 C   0  0  0  0  0  2  0  0  0  0  0  0
  160.2760  201.5120  149.6380 C   0  0  0  0  0  0  0  0  0  0  0  0
  159.1060  201.0640  149.7440 O   0  0  0  0  0  0  0  0  0  0  0  0
  161.3580  200.6560  149.4170 O   0  0  0  0  0  0  0  0  0  0  0  0
  161.6910  200.1680  148.1260 C   0  0  0  0  0  2  0  0  0  0  0  0
  160.7810  200.7890  147.0810 C   0  0  0  0  0  1  0  0  0  0  0  0
  1  2  1  1  0  0  0
  1 30  1  0  0  0  0
  4  1  1  0  0  0  0
  4  3  1  0  0  0  0
  5  4  2  0  0  0  0
  6  1  1  0  0  0  0
  7  6  1  0  0  0  0
  8  7  1  0  0  0  0
  9  8  1  0  0  0  0
 10 11  1  6  0  0  0
 10  9  1  0  0  0  0
 12 10  1  0  0  0  0
 14 12  1  1  0  0  0
 14 22  1  0  0  0  0
 17 16  1  6  0  0  0
 17 14  1  0  0  0  0
 17 21  1  0  0  0  0
 18 20  1  0  0  0  0
 19 21  1  0  0  0  0
 19 15  1  0  0  0  0
 20 13  1  0  0  0  0
 20 22  1  0  0  0  0
 20 27  1  1  0  0  0
 21 15  1  0  0  0  0
 21 13  1  0  0  0  0
 23 17  1  0  0  0  0
 23 18  1  0  0  0  0
 24 25  2  0  0  0  0
 25 26  2  0  0  0  0
 25 14  1  0  0  0  0
 27 29  2  0  0  0  0
 27 28  1  0  0  0  0
 30 31  1  0  0  0  0
 31 32  1  0  0  0  0
 32 47  1  1  0  0  0
 32 33  1  0  0  0  0
 33 40  1  6  0  0  0
 35 34  1  1  0  0  0
 35 37  1  0  0  0  0
 36 33  1  6  0  0  0
 36 35  1  0  0  0  0
 36 34  1  0  0  0  0
 37 38  1  0  0  0  0
 37 39  1  1  0  0  0
 38 39  1  0  0  0  0
 40 43  1  0  0  0  0
 42 45  1  0  0  0  0
 43 46  1  0  0  0  0
 44 42  2  0  0  0  0
 44 43  1  0  0  0  0
 45 46  1  0  0  0  0
 46 41  2  0  0  0  0
 48 47  1  0  0  0  0
 49 48  1  0  0  0  0
 49 50  1  0  0  0  0
 51 52  2  0  0  0  0
 51 50  1  0  0  0  0
 53 51  1  0  0  0  0
 54 53  1  0  0  0  0
 55 54  1  0  0  0  0
M  END
>  <MODEL>
3

>  <REMARK>
 VINA RESULT:      -3.2      1.661      5.180
  Name = 
  25 active torsions:
  status: ('A' for Active; 'I' for Inactive)
    1  A    between atoms: C_1  and  C_29
    2  A    between atoms: C_2  and  O_28
    3  A    between atoms: C_2  and  C_31
    4  A    between atoms: C_4  and  C_40
    5  A    between atoms: C_6  and  N_20
    6  A    between atoms: C_6  and  O_22
    7  A    between atoms: C_8  and  O_22
    8  A    between atoms: C_8  and  C_35
    9  A    between atoms: C_10  and  O_32
   10  A    between atoms: C_13  and  C_48
   11  A    between atoms: C_13  and  O_52
   12  A    between atoms: N_16  and  C_36
   13  A    between atoms: O_27  and  C_31
   14  A    between atoms: O_27  and  C_54
   15  A    between atoms: O_28  and  C_33
   16  A    between atoms: C_31  and  C_41
   17  A    between atoms: O_32  and  C_39
   18  A    between atoms: C_33  and  C_34
   19  A    between atoms: C_33  and  C_49
   20  A    between atoms: C_34  and  O_52
   21  A    between atoms: C_35  and  C_51
   22  A    between atoms: C_36  and  C_49
   23  A    between atoms: C_39  and  C_48
   24  A    between atoms: C_45  and  C_49
   25  A    between atoms: C_51  and  C_54
                            x       y       z     vdW  Elec       q    Type
                         _______ _______ _______ _____ _____    ______ ____

>  <TORSDO>
F 25

$$$$
=
 OpenBabel11062409003D

 55 60  0  0  1  0  0  0  0  0999 V2000
  160.9980  209.1950  152.8050 C   0  0  2  0  0  0  0  0  0  0  0  0
  162.4410  209.6580  152.8330 C   0  0  0  0  0  1  0  0  0  0  0  0
  159.6350  208.5640  154.7010 O   0  0  0  0  0  0  0  0  0  0  0  0
  160.7500  208.4810  154.1160 C   0  0  0  0  0  0  0  0  0  0  0  0
  161.7880  207.7910  154.7370 O   0  0  0  0  0  1  0  0  0  0  0  0
  160.8350  208.3300  151.6900 O   0  0  0  0  0  0  0  0  0  0  0  0
  161.9330  207.4510  151.5920 C   0  0  0  0  0  2  0  0  0  0  0  0
  161.7290  206.5010  150.4290 C   0  0  0  0  0  2  0  0  0  0  0  0
  162.4830  207.0010  149.2110 C   0  0  0  0  0  2  0  0  0  0  0  0
  161.5110  207.3610  148.1040 C   0  0  1  0  0  3  0  0  0  0  0  0
  161.4270  208.7400  148.0150 F   0  0  0  0  0  0  0  0  0  0  0  0
  161.9830  206.8410  146.8840 O   0  0  0  0  0  0  0  0  0  0  0  0
  162.6380  203.3230  147.7860 C   0  0  0  0  0  2  0  0  0  0  0  0
  161.1660  205.7610  146.4540 C   0  0  1  0  0  0  0  0  0  0  0  0
  164.2620  204.9190  146.8520 O   0  0  0  0  0  0  0  0  0  0  0  0
  162.6980  205.4120  144.5970 O   0  0  0  0  0  1  0  0  0  0  0  0
  162.0780  204.7710  145.6730 C   0  0  1  0  0  0  0  0  0  0  0  0
  160.6980  202.7120  146.3040 C   0  0  0  0  0  2  0  0  0  0  0  0
  164.3170  203.8090  146.0840 O   0  0  0  0  0  0  0  0  0  0  0  0
  161.1080  203.2240  147.6930 C   0  0  2  0  0  0  0  0  0  0  0  0
  163.1180  204.1900  146.6350 C   0  0  0  0  0  0  0  0  0  0  0  0
  160.3970  204.9040  147.9310 S   0  0  0  0  0  0  0  0  0  0  0  0
  161.2420  203.5910  145.1570 C   0  0  0  0  0  2  0  0  0  0  0  0
  158.9860  205.4970  145.3130 O   0  0  0  0  0  0  0  0  0  0  0  0
  160.1120  206.2540  145.5520 N   0  0  0  0  0  0  0  0  0  0  0  0
  160.3140  207.2630  144.8460 O   0  0  0  0  0  0  0  0  0  0  0  0
  160.5790  202.2800  148.7350 C   0  0  0  0  0  0  0  0  0  0  0  0
  159.5500  201.3930  148.4240 O   0  0  0  0  0  0  0  0  0  0  0  0
  160.9980  202.3430  149.9250 O   0  0  0  0  0  1  0  0  0  0  0  0
  160.0980  210.4370  152.6760 C   0  0  0  0  0  2  0  0  0  0  0  0
  160.6410  211.5500  153.3360 O   0  0  0  0  0  0  0  0  0  0  0  0
  159.7340  212.6040  153.1550 C   0  0  2  0  0  3  0  0  0  0  0  0
  159.1200  213.0600  154.5040 C   0  0  1  0  0  3  0  0  0  0  0  0
  159.1260  212.0590  156.8720 C   0  0  0  0  0  2  0  0  0  0  0  0
  160.2750  211.4290  156.1100 C   0  0  1  0  0  3  0  0  0  0  0  0
  159.8780  212.8720  155.8420 C   0  0  1  0  0  3  0  0  0  0  0  0
  161.4800  211.3900  157.0350 C   0  0  1  0  0  3  0  0  0  0  0  0
  161.8440  210.0480  157.2610 O   0  0  0  0  0  0  0  0  0  0  0  0
  162.6430  210.7680  156.3600 C   0  0  0  0  0  2  0  0  0  0  0  0
  158.4620  214.4450  154.4230 C   0  0  0  0  0  2  0  0  0  0  0  0
  155.9070  214.1100  152.9420 O   0  0  0  0  0  0  0  0  0  0  0  0
  155.2740  214.2200  156.4620 C   0  0  0  0  0  3  0  0  0  0  0  0
  157.0980  214.4490  154.9450 N   0  0  0  0  0  0  0  0  0  0  0  0
  156.8010  214.3490  156.3570 C   0  0  0  0  0  3  0  0  0  0  0  0
  154.7270  214.0580  155.0410 C   0  0  0  0  0  2  0  0  0  0  0  0
  155.9250  214.2040  154.1980 C   0  0  0  0  0  0  0  0  0  0  0  0
  158.6130  212.1560  152.2030 C   0  0  0  0  0  2  0  0  0  0  0  0
  158.3510  213.1560  151.2630 O   0  0  0  0  0  0  0  0  0  0  0  0
  159.5320  213.2770  150.5320 C   0  0  0  0  0  2  0  0  0  0  0  0
  159.2170  213.8760  149.1760 C   0  0  0  0  0  2  0  0  0  0  0  0
  160.1390  213.3210  148.1530 C   0  0  0  0  0  0  0  0  0  0  0  0
  159.6870  212.5770  147.2470 O   0  0  0  0  0  0  0  0  0  0  0  0
  161.5040  213.6070  148.2360 O   0  0  0  0  0  0  0  0  0  0  0  0
  162.3590  213.5770  147.1020 C   0  0  0  0  0  2  0  0  0  0  0  0
  161.7930  214.4530  145.9980 C   0  0  0  0  0  1  0  0  0  0  0  0
  1  2  1  1  0  0  0
  1  4  1  0  0  0  0
  4  3  2  0  0  0  0
  4  5  1  0  0  0  0
  6  1  1  0  0  0  0
  7  6  1  0  0  0  0
  8  7  1  0  0  0  0
  9  8  1  0  0  0  0
 10 11  1  6  0  0  0
 10  9  1  0  0  0  0
 12 10  1  0  0  0  0
 14 12  1  1  0  0  0
 14 22  1  0  0  0  0
 17 16  1  6  0  0  0
 17 14  1  0  0  0  0
 17 21  1  0  0  0  0
 18 20  1  0  0  0  0
 19 21  1  0  0  0  0
 19 15  1  0  0  0  0
 20 13  1  0  0  0  0
 20 22  1  0  0  0  0
 20 27  1  1  0  0  0
 21 15  1  0  0  0  0
 21 13  1  0  0  0  0
 23 17  1  0  0  0  0
 23 18  1  0  0  0  0
 24 25  2  0  0  0  0
 25 14  1  0  0  0  0
 26 25  2  0  0  0  0
 27 29  1  0  0  0  0
 28 27  2  0  0  0  0
 30  1  1  0  0  0  0
 30 31  1  0  0  0  0
 32 47  1  6  0  0  0
 32 31  1  0  0  0  0
 32 33  1  0  0  0  0
 33 40  1  6  0  0  0
 35 34  1  1  0  0  0
 35 37  1  0  0  0  0
 36 33  1  6  0  0  0
 36 35  1  0  0  0  0
 36 34  1  0  0  0  0
 37 39  1  6  0  0  0
 37 38  1  0  0  0  0
 39 38  1  0  0  0  0
 40 43  1  0  0  0  0
 41 46  2  0  0  0  0
 43 44  1  0  0  0  0
 44 42  2  0  0  0  0
 45 42  1  0  0  0  0
 46 43  1  0  0  0  0
 46 45  1  0  0  0  0
 48 47  1  0  0  0  0
 49 48  1  0  0  0  0
 50 49  1  0  0  0  0
 51 53  1  0  0  0  0
 51 50  1  0  0  0  0
 52 51  2  0  0  0  0
 54 53  1  0  0  0  0
 55 54  1  0  0  0  0
M  END
>  <MODEL>
4

>  <REMARK>
 VINA RESULT:      -2.2      5.025      9.547
  Name = 
  25 active torsions:
  status: ('A' for Active; 'I' for Inactive)
    1  A    between atoms: C_1  and  C_29
    2  A    between atoms: C_2  and  O_28
    3  A    between atoms: C_2  and  C_31
    4  A    between atoms: C_4  and  C_40
    5  A    between atoms: C_6  and  N_20
    6  A    between atoms: C_6  and  O_22
    7  A    between atoms: C_8  and  O_22
    8  A    between atoms: C_8  and  C_35
    9  A    between atoms: C_10  and  O_32
   10  A    between atoms: C_13  and  C_48
   11  A    between atoms: C_13  and  O_52
   12  A    between atoms: N_16  and  C_36
   13  A    between atoms: O_27  and  C_31
   14  A    between atoms: O_27  and  C_54
   15  A    between atoms: O_28  and  C_33
   16  A    between atoms: C_31  and  C_41
   17  A    between atoms: O_32  and  C_39
   18  A    between atoms: C_33  and  C_34
   19  A    between atoms: C_33  and  C_49
   20  A    between atoms: C_34  and  O_52
   21  A    between atoms: C_35  and  C_51
   22  A    between atoms: C_36  and  C_49
   23  A    between atoms: C_39  and  C_48
   24  A    between atoms: C_45  and  C_49
   25  A    between atoms: C_51  and  C_54
                            x       y       z     vdW  Elec       q    Type
                         _______ _______ _______ _____ _____    ______ ____

>  <TORSDO>
F 25

$$$$
=
 OpenBabel11062409003D

 55 60  0  0  1  0  0  0  0  0999 V2000
  161.4500  205.5390  145.2480 C   0  0  2  0  0  0  0  0  0  0  0  0
  162.8850  205.9930  145.4280 C   0  0  0  0  0  1  0  0  0  0  0  0
  162.4050  203.4230  145.9280 O   0  0  0  0  0  1  0  0  0  0  0  0
  161.4610  204.0290  145.3510 C   0  0  0  0  0  0  0  0  0  0  0  0
  160.4640  203.2840  144.7250 O   0  0  0  0  0  0  0  0  0  0  0  0
  161.0060  205.9800  143.9730 O   0  0  0  0  0  0  0  0  0  0  0  0
  162.0050  205.7570  143.0050 C   0  0  0  0  0  2  0  0  0  0  0  0
  161.4850  206.1330  141.6320 C   0  0  0  0  0  2  0  0  0  0  0  0
  162.1740  207.3910  141.1410 C   0  0  0  0  0  2  0  0  0  0  0  0
  162.0630  207.4940  139.6320 C   0  0  1  0  0  3  0  0  0  0  0  0
  161.9740  206.2180  139.1030 F   0  0  0  0  0  0  0  0  0  0  0  0
  160.9050  208.2220  139.2990 O   0  0  0  0  0  0  0  0  0  0  0  0
  159.2330  211.4750  139.7930 C   0  0  0  0  0  2  0  0  0  0  0  0
  161.2450  209.3920  138.5690 C   0  0  1  0  0  0  0  0  0  0  0  0
  158.1300  209.3040  139.4300 O   0  0  0  0  0  0  0  0  0  0  0  0
  159.4490  208.8770  137.0110 O   0  0  0  0  0  1  0  0  0  0  0  0
  159.9580  209.8780  137.8440 C   0  0  1  0  0  0  0  0  0  0  0  0
  160.6360  212.3430  137.8930 C   0  0  0  0  0  2  0  0  0  0  0  0
  157.6020  210.1670  138.5350 O   0  0  0  0  0  0  0  0  0  0  0  0
  160.6130  212.0180  139.3940 C   0  0  2  0  0  0  0  0  0  0  0  0
  158.9230  210.2910  138.8940 C   0  0  0  0  0  0  0  0  0  0  0  0
  161.8730  210.7200  139.7310 S   0  0  0  0  0  0  0  0  0  0  0  0
  160.2690  211.1300  137.0120 C   0  0  0  0  0  2  0  0  0  0  0  0
  162.3640  207.8110  137.0290 O   0  0  0  0  0  0  0  0  0  0  0  0
  162.2720  209.0780  137.5610 N   0  0  0  0  0  0  0  0  0  0  0  0
  163.1890  209.8920  137.3270 O   0  0  0  0  0  0  0  0  0  0  0  0
  160.9300  213.2660  140.1680 C   0  0  0  0  0  0  0  0  0  0  0  0
  161.2240  214.4530  139.5000 O   0  0  0  0  0  0  0  0  0  0  0  0
  161.0200  213.2300  141.4270 O   0  0  0  0  0  1  0  0  0  0  0  0
  160.6050  206.1610  146.3730 C   0  0  0  0  0  2  0  0  0  0  0  0
  161.3270  207.1150  147.1070 O   0  0  0  0  0  0  0  0  0  0  0  0
  161.1270  206.8120  148.4620 C   0  0  2  0  0  3  0  0  0  0  0  0
  161.8770  207.8100  149.3810 C   0  0  1  0  0  3  0  0  0  0  0  0
  162.5710  210.2220  149.9370 C   0  0  0  0  0  2  0  0  0  0  0  0
  162.2160  210.1800  148.4640 C   0  0  1  0  0  3  0  0  0  0  0  0
  161.4700  209.3030  149.4560 C   0  0  1  0  0  3  0  0  0  0  0  0
  161.3910  211.4170  148.1490 C   0  0  1  0  0  3  0  0  0  0  0  0
  162.0000  212.5390  148.7440 O   0  0  0  0  0  0  0  0  0  0  0  0
  162.1830  212.3910  147.3610 C   0  0  0  0  0  2  0  0  0  0  0  0
  162.1640  207.2370  150.7760 C   0  0  0  0  0  2  0  0  0  0  0  0
  161.5330  206.2530  153.5090 O   0  0  0  0  0  0  0  0  0  0  0  0
  160.3590  209.6100  153.1180 C   0  0  0  0  0  3  0  0  0  0  0  0
  161.3830  207.8910  151.8230 N   0  0  0  0  0  0  0  0  0  0  0  0
  161.0140  209.2880  151.7660 C   0  0  0  0  0  3  0  0  0  0  0  0
  160.5430  208.3880  154.0220 C   0  0  0  0  0  2  0  0  0  0  0  0
  161.1860  207.4040  153.1340 C   0  0  0  0  0  0  0  0  0  0  0  0
  161.6170  205.3820  148.7440 C   0  0  0  0  0  2  0  0  0  0  0  0
  161.7090  205.1680  150.1230 O   0  0  0  0  0  0  0  0  0  0  0  0
  160.6390  204.3260  150.4240 C   0  0  0  0  0  2  0  0  0  0  0  0
  160.9090  203.6330  151.7440 C   0  0  0  0  0  2  0  0  0  0  0  0
  161.4620  202.2770  151.4980 C   0  0  0  0  0  0  0  0  0  0  0  0
  162.6620  202.0340  151.7830 O   0  0  0  0  0  0  0  0  0  0  0  0
  160.6470  201.3010  150.9180 O   0  0  0  0  0  0  0  0  0  0  0  0
  160.7440  200.9450  149.5470 C   0  0  0  0  0  2  0  0  0  0  0  0
  160.1200  202.0250  148.6810 C   0  0  0  0  0  1  0  0  0  0  0  0
  1  4  1  0  0  0  0
  1  2  1  1  0  0  0
  1 30  1  0  0  0  0
  4  3  1  0  0  0  0
  5  4  2  0  0  0  0
  6  1  1  0  0  0  0
  7  6  1  0  0  0  0
  8  7  1  0  0  0  0
  9  8  1  0  0  0  0
 10 11  1  6  0  0  0
 10  9  1  0  0  0  0
 12 10  1  0  0  0  0
 14 12  1  1  0  0  0
 14 22  1  0  0  0  0
 17 16  1  6  0  0  0
 17 14  1  0  0  0  0
 17 21  1  0  0  0  0
 18 20  1  0  0  0  0
 19 21  1  0  0  0  0
 19 15  1  0  0  0  0
 20 22  1  0  0  0  0
 20 13  1  0  0  0  0
 20 27  1  1  0  0  0
 21 15  1  0  0  0  0
 21 13  1  0  0  0  0
 23 17  1  0  0  0  0
 23 18  1  0  0  0  0
 24 25  2  0  0  0  0
 25 14  1  0  0  0  0
 26 25  2  0  0  0  0
 27 29  1  0  0  0  0
 28 27  2  0  0  0  0
 30 31  1  0  0  0  0
 31 32  1  0  0  0  0
 32 47  1  6  0  0  0
 32 33  1  0  0  0  0
 33 40  1  1  0  0  0
 35 36  1  0  0  0  0
 35 34  1  1  0  0  0
 36 33  1  6  0  0  0
 36 34  1  0  0  0  0
 37 39  1  6  0  0  0
 37 35  1  0  0  0  0
 37 38  1  0  0  0  0
 39 38  1  0  0  0  0
 40 43  1  0  0  0  0
 42 45  1  0  0  0  0
 43 46  1  0  0  0  0
 44 43  1  0  0  0  0
 44 42  2  0  0  0  0
 46 41  2  0  0  0  0
 46 45  1  0  0  0  0
 47 48  1  0  0  0  0
 48 49  1  0  0  0  0
 49 50  1  0  0  0  0
 51 50  1  0  0  0  0
 51 52  2  0  0  0  0
 53 51  1  0  0  0  0
 54 53  1  0  0  0  0
 55 54  1  0  0  0  0
M  END
>  <MODEL>
5

>  <REMARK>
 VINA RESULT:      -1.8      1.380      4.726
  Name = 
  25 active torsions:
  status: ('A' for Active; 'I' for Inactive)
    1  A    between atoms: C_1  and  C_29
    2  A    between atoms: C_2  and  O_28
    3  A    between atoms: C_2  and  C_31
    4  A    between atoms: C_4  and  C_40
    5  A    between atoms: C_6  and  N_20
    6  A    between atoms: C_6  and  O_22
    7  A    between atoms: C_8  and  O_22
    8  A    between atoms: C_8  and  C_35
    9  A    between atoms: C_10  and  O_32
   10  A    between atoms: C_13  and  C_48
   11  A    between atoms: C_13  and  O_52
   12  A    between atoms: N_16  and  C_36
   13  A    between atoms: O_27  and  C_31
   14  A    between atoms: O_27  and  C_54
   15  A    between atoms: O_28  and  C_33
   16  A    between atoms: C_31  and  C_41
   17  A    between atoms: O_32  and  C_39
   18  A    between atoms: C_33  and  C_34
   19  A    between atoms: C_33  and  C_49
   20  A    between atoms: C_34  and  O_52
   21  A    between atoms: C_35  and  C_51
   22  A    between atoms: C_36  and  C_49
   23  A    between atoms: C_39  and  C_48
   24  A    between atoms: C_45  and  C_49
   25  A    between atoms: C_51  and  C_54
                            x       y       z     vdW  Elec       q    Type
                         _______ _______ _______ _____ _____    ______ ____

>  <TORSDO>
F 25

$$$$
=
 OpenBabel11062409003D

 55 60  0  0  1  0  0  0  0  0999 V2000
  161.0500  206.4060  152.2530 C   0  0  2  0  0  0  0  0  0  0  0  0
  160.5250  205.0920  152.7960 C   0  0  0  0  0  1  0  0  0  0  0  0
  163.1380  205.1900  152.3700 O   0  0  0  0  0  1  0  0  0  0  0  0
  162.5600  206.3080  152.2770 C   0  0  0  0  0  0  0  0  0  0  0  0
  163.3310  207.4680  152.2850 O   0  0  0  0  0  0  0  0  0  0  0  0
  160.5740  207.4500  153.0890 O   0  0  0  0  0  0  0  0  0  0  0  0
  161.6300  207.9710  153.8650 C   0  0  0  0  0  2  0  0  0  0  0  0
  161.1030  208.4180  155.2150 C   0  0  0  0  0  2  0  0  0  0  0  0
  160.4650  209.7880  155.0970 C   0  0  0  0  0  2  0  0  0  0  0  0
  158.9620  209.6830  155.2640 C   0  0  1  0  0  3  0  0  0  0  0  0
  158.6630  208.4680  155.8560 F   0  0  0  0  0  0  0  0  0  0  0  0
  158.5110  210.7310  156.0890 O   0  0  0  0  0  0  0  0  0  0  0  0
  159.5090  213.5840  153.9730 C   0  0  0  0  0  2  0  0  0  0  0  0
  157.5810  211.5480  155.3940 C   0  0  1  0  0  0  0  0  0  0  0  0
  160.2470  213.1470  156.2810 O   0  0  0  0  0  0  0  0  0  0  0  0
  157.6370  213.1070  157.2600 O   0  0  0  0  0  1  0  0  0  0  0  0
  157.7980  213.0110  155.8750 C   0  0  1  0  0  0  0  0  0  0  0  0
  157.0560  214.0470  153.6570 C   0  0  0  0  0  2  0  0  0  0  0  0
  159.7950  214.4190  156.2480 O   0  0  0  0  0  0  0  0  0  0  0  0
  158.2450  213.1910  153.1950 C   0  0  2  0  0  0  0  0  0  0  0  0
  159.1970  213.4700  155.4550 C   0  0  0  0  0  0  0  0  0  0  0  0
  157.8670  211.4250  153.5470 S   0  0  0  0  0  0  0  0  0  0  0  0
  156.7970  213.9430  155.1750 C   0  0  0  0  0  2  0  0  0  0  0  0
  155.4040  210.5560  154.7610 O   0  0  0  0  0  0  0  0  0  0  0  0
  156.2050  211.1360  155.7190 N   0  0  0  0  0  0  0  0  0  0  0  0
  155.6870  211.4840  156.7990 O   0  0  0  0  0  0  0  0  0  0  0  0
  158.4510  213.3980  151.7210 C   0  0  0  0  0  0  0  0  0  0  0  0
  157.3560  213.5500  150.8730 O   0  0  0  0  0  0  0  0  0  0  0  0
  159.6110  213.3450  151.2250 O   0  0  0  0  0  1  0  0  0  0  0  0
  160.5330  206.5720  150.8130 C   0  0  0  0  0  2  0  0  0  0  0  0
  161.5320  207.0440  149.9470 O   0  0  0  0  0  0  0  0  0  0  0  0
  161.1220  206.7170  148.6470 C   0  0  2  0  0  3  0  0  0  0  0  0
  161.6610  205.3280  148.2170 C   0  0  1  0  0  3  0  0  0  0  0  0
  161.7600  202.7680  148.4300 C   0  0  0  0  0  2  0  0  0  0  0  0
  161.5290  203.3310  149.8180 C   0  0  1  0  0  3  0  0  0  0  0  0
  160.9280  204.0200  148.6040 C   0  0  1  0  0  3  0  0  0  0  0  0
  160.4750  202.4740  150.4980 C   0  0  1  0  0  3  0  0  0  0  0  0
  161.0620  201.2610  150.9080 O   0  0  0  0  0  0  0  0  0  0  0  0
  160.8370  202.2150  151.9120 C   0  0  0  0  0  2  0  0  0  0  0  0
  162.1290  205.2970  146.7540 C   0  0  0  0  0  2  0  0  0  0  0  0
  160.0960  206.3980  144.8870 O   0  0  0  0  0  0  0  0  0  0  0  0
  160.2820  202.8430  144.5320 C   0  0  0  0  0  3  0  0  0  0  0  0
  161.2030  204.5750  145.8850 N   0  0  0  0  0  0  0  0  0  0  0  0
  161.3340  203.1630  145.6040 C   0  0  0  0  0  3  0  0  0  0  0  0
  159.6730  204.1710  144.0730 C   0  0  0  0  0  2  0  0  0  0  0  0
  160.3130  205.1600  144.9570 C   0  0  0  0  0  0  0  0  0  0  0  0
  161.6220  207.7910  147.6670 C   0  0  0  0  0  2  0  0  0  0  0  0
  161.2900  209.0640  148.1390 O   0  0  0  0  0  0  0  0  0  0  0  0
  162.3070  209.3880  149.0360 C   0  0  0  0  0  2  0  0  0  0  0  0
  161.9830  210.7120  149.6970 C   0  0  0  0  0  2  0  0  0  0  0  0
  162.0620  211.8080  148.6970 C   0  0  0  0  0  0  0  0  0  0  0  0
  163.0700  211.8970  147.9510 O   0  0  0  0  0  0  0  0  0  0  0  0
  161.0290  212.7450  148.6270 O   0  0  0  0  0  0  0  0  0  0  0  0
  160.6650  213.3880  147.4140 C   0  0  0  0  0  2  0  0  0  0  0  0
  159.5720  212.6020  146.7130 C   0  0  0  0  0  1  0  0  0  0  0  0
  1  4  1  0  0  0  0
  1  2  1  1  0  0  0
  1  6  1  0  0  0  0
  4  5  2  0  0  0  0
  4  3  1  0  0  0  0
  6  7  1  0  0  0  0
  7  8  1  0  0  0  0
  9  8  1  0  0  0  0
  9 10  1  0  0  0  0
 10 11  1  1  0  0  0
 10 12  1  0  0  0  0
 13 21  1  0  0  0  0
 14 25  1  0  0  0  0
 14 17  1  0  0  0  0
 14 12  1  1  0  0  0
 17 16  1  1  0  0  0
 18 23  1  0  0  0  0
 19 15  1  0  0  0  0
 20 27  1  6  0  0  0
 20 22  1  0  0  0  0
 20 18  1  0  0  0  0
 20 13  1  0  0  0  0
 21 17  1  0  0  0  0
 21 19  1  0  0  0  0
 21 15  1  0  0  0  0
 22 14  1  0  0  0  0
 23 17  1  0  0  0  0
 24 25  2  0  0  0  0
 25 26  2  0  0  0  0
 28 27  2  0  0  0  0
 29 27  1  0  0  0  0
 30  1  1  0  0  0  0
 31 30  1  0  0  0  0
 32 47  1  6  0  0  0
 32 31  1  0  0  0  0
 33 40  1  6  0  0  0
 33 32  1  0  0  0  0
 34 36  1  0  0  0  0
 35 34  1  6  0  0  0
 35 37  1  0  0  0  0
 36 33  1  6  0  0  0
 36 35  1  0  0  0  0
 37 38  1  0  0  0  0
 37 39  1  1  0  0  0
 38 39  1  0  0  0  0
 41 46  2  0  0  0  0
 42 44  2  0  0  0  0
 43 40  1  0  0  0  0
 44 43  1  0  0  0  0
 45 42  1  0  0  0  0
 45 46  1  0  0  0  0
 46 43  1  0  0  0  0
 47 48  1  0  0  0  0
 48 49  1  0  0  0  0
 49 50  1  0  0  0  0
 51 50  1  0  0  0  0
 52 51  2  0  0  0  0
 53 51  1  0  0  0  0
 54 53  1  0  0  0  0
 55 54  1  0  0  0  0
M  END
>  <MODEL>
6

>  <REMARK>
 VINA RESULT:      -1.8      5.596     11.148
  Name = 
  25 active torsions:
  status: ('A' for Active; 'I' for Inactive)
    1  A    between atoms: C_1  and  C_29
    2  A    between atoms: C_2  and  O_28
    3  A    between atoms: C_2  and  C_31
    4  A    between atoms: C_4  and  C_40
    5  A    between atoms: C_6  and  N_20
    6  A    between atoms: C_6  and  O_22
    7  A    between atoms: C_8  and  O_22
    8  A    between atoms: C_8  and  C_35
    9  A    between atoms: C_10  and  O_32
   10  A    between atoms: C_13  and  C_48
   11  A    between atoms: C_13  and  O_52
   12  A    between atoms: N_16  and  C_36
   13  A    between atoms: O_27  and  C_31
   14  A    between atoms: O_27  and  C_54
   15  A    between atoms: O_28  and  C_33
   16  A    between atoms: C_31  and  C_41
   17  A    between atoms: O_32  and  C_39
   18  A    between atoms: C_33  and  C_34
   19  A    between atoms: C_33  and  C_49
   20  A    between atoms: C_34  and  O_52
   21  A    between atoms: C_35  and  C_51
   22  A    between atoms: C_36  and  C_49
   23  A    between atoms: C_39  and  C_48
   24  A    between atoms: C_45  and  C_49
   25  A    between atoms: C_51  and  C_54
                            x       y       z     vdW  Elec       q    Type
                         _______ _______ _______ _____ _____    ______ ____

>  <TORSDO>
F 25

$$$$
