=
 OpenBabel11062408013D

 34 38  0  0  1  0  0  0  0  0999 V2000
  160.9370  204.3110  149.2760 C   0  0  0  0  0  0  0  0  0  0  0  0
  161.3150  204.4670  151.6880 C   0  0  0  0  0  0  0  0  0  0  0  0
  161.1360  206.4810  150.3390 C   0  0  0  0  0  0  0  0  0  0  0  0
  161.3900  208.6060  151.7540 N   0  0  0  0  0  0  0  0  0  0  0  0
  161.1560  202.2990  150.6120 C   0  0  0  0  0  3  0  0  0  0  0  0
  161.3280  203.0720  151.7690 C   0  0  0  0  0  3  0  0  0  0  0  0
  161.4150  206.5690  152.7880 C   0  0  0  0  0  0  0  0  0  0  0  0
  161.1370  205.0840  150.4320 C   0  0  0  0  0  0  0  0  0  0  0  0
  161.3780  208.9010  153.1870 C   0  0  0  0  0  2  0  0  0  0  0  0
  160.9550  202.9150  149.3690 C   0  0  0  0  0  3  0  0  0  0  0  0
  160.6750  206.3500  148.0130 C   0  0  0  0  0  3  0  0  0  0  0  0
  160.7050  204.9510  148.0560 C   0  0  0  0  0  3  0  0  0  0  0  0
  161.4130  205.2710  152.8800 N   0  0  0  0  0  0  0  0  0  0  0  0
  161.4220  207.5380  153.9210 C   0  0  1  0  0  3  0  0  0  0  0  0
  161.3860  207.2250  151.5430 N   0  0  0  0  0  0  0  0  0  0  0  0
  160.8860  207.0820  149.1440 N   0  0  0  0  0  0  0  0  0  0  0  0
  161.8670  209.5900  150.8290 C   0  0  0  0  0  3  0  0  0  0  0  0
  161.1670  210.6790  150.5170 C   0  0  0  0  0  3  0  0  0  0  0  0
  162.6910  213.3750  147.1700 C   0  0  0  0  0  3  0  0  0  0  0  0
  163.3000  212.3600  147.7830 C   0  0  0  0  0  3  0  0  0  0  0  0
  161.6380  211.7060  149.5740 C   0  0  0  0  0  0  0  0  0  0  0  0
  162.6650  211.4380  148.7460 C   0  0  0  0  0  3  0  0  0  0  0  0
  160.8690  213.9350  148.7360 C   0  0  0  0  0  3  0  0  0  0  0  0
  161.0230  213.0420  149.7140 C   0  0  0  0  0  3  0  0  0  0  0  0
  161.2350  213.6600  147.3160 C   0  0  0  0  0  2  0  0  0  0  0  0
  160.1650  207.4090  154.7710 C   0  0  0  0  0  2  0  0  0  0  0  0
  160.4940  207.4350  156.2540 C   0  0  0  0  0  2  0  0  0  0  0  0
  161.7320  208.0450  156.4540 O   0  0  0  0  0  0  0  0  0  0  0  0
  161.4580  209.1510  157.2590 C   0  0  0  0  0  2  0  0  0  0  0  0
  161.9370  210.4210  156.5780 C   0  0  0  0  0  2  0  0  0  0  0  0
  160.6410  212.7690  157.0350 O   0  0  0  0  0  1  0  0  0  0  0  0
  160.5680  211.9330  154.5590 O   0  0  0  0  0  0  0  0  0  0  0  0
  160.5350  211.5160  156.1970 P   0  0  0  0  0  0  0  0  0  0  0  0
  159.0790  210.7310  156.5500 O   0  0  0  0  0  1  0  0  0  0  0  0
  1 10  2  0  0  0  0
  1  8  1  0  0  0  0
  2  6  1  0  0  0  0
  2 13  1  0  0  0  0
  3  8  1  0  0  0  0
  3 15  1  0  0  0  0
  4  9  1  0  0  0  0
  5  6  2  0  0  0  0
  7 13  2  0  0  0  0
  7 14  1  0  0  0  0
  8  2  2  0  0  0  0
  9 14  1  0  0  0  0
 10  5  1  0  0  0  0
 11 12  2  0  0  0  0
 11 16  1  0  0  0  0
 12  1  1  0  0  0  0
 14 26  1  1  0  0  0
 15  4  1  0  0  0  0
 15  7  1  0  0  0  0
 16  3  2  0  0  0  0
 17  4  1  0  0  0  0
 18 17  2  0  0  0  0
 19 25  1  0  0  0  0
 19 20  2  0  0  0  0
 20 22  1  0  0  0  0
 21 24  1  0  0  0  0
 21 18  1  0  0  0  0
 22 21  2  0  0  0  0
 23 24  2  0  0  0  0
 25 23  1  0  0  0  0
 26 27  1  0  0  0  0
 27 28  1  0  0  0  0
 28 29  1  0  0  0  0
 30 29  1  0  0  0  0
 32 33  2  0  0  0  0
 33 34  1  0  0  0  0
 33 30  1  0  0  0  0
 33 31  1  0  0  0  0
M  END
>  <MODEL>
1

>  <REMARK>
 VINA RESULT:      -7.8      0.000      0.000
  Name = 
  8 active torsions:
  status: ('A' for Active; 'I' for Inactive)
    1  A    between atoms: C_3  and  O_13
    2  A    between atoms: C_3  and  C_17
    3  A    between atoms: N_5  and  C_26
    4  A    between atoms: C_12  and  C_28
    5  A    between atoms: O_13  and  C_33
    6  A    between atoms: C_17  and  C_29
    7  A    between atoms: P_20  and  C_34
    8  A    between atoms: C_33  and  C_34
                            x       y       z     vdW  Elec       q    Type
                         _______ _______ _______ _____ _____    ______ ____

>  <TORSDO>
F 8

$$$$
=
 OpenBabel11062408013D

 34 38  0  0  1  0  0  0  0  0999 V2000
  160.9330  204.5210  149.5110 C   0  0  0  0  0  0  0  0  0  0  0  0
  161.3050  204.7570  151.9180 C   0  0  0  0  0  0  0  0  0  0  0  0
  161.1530  206.7250  150.4990 C   0  0  0  0  0  0  0  0  0  0  0  0
  161.4270  208.8950  151.8400 N   0  0  0  0  0  0  0  0  0  0  0  0
  161.1250  202.5540  150.9180 C   0  0  0  0  0  3  0  0  0  0  0  0
  161.3020  203.3650  152.0470 C   0  0  0  0  0  3  0  0  0  0  0  0
  161.4260  206.8950  152.9450 C   0  0  0  0  0  0  0  0  0  0  0  0
  161.1380  205.3310  150.6410 C   0  0  0  0  0  0  0  0  0  0  0  0
  161.4140  209.2390  153.2620 C   0  0  0  0  0  2  0  0  0  0  0  0
  160.9350  203.1290  149.6540 C   0  0  0  0  0  3  0  0  0  0  0  0
  160.6990  206.5180  148.1770 C   0  0  0  0  0  3  0  0  0  0  0  0
  160.7120  205.1210  148.2700 C   0  0  0  0  0  3  0  0  0  0  0  0
  161.4080  205.6010  153.0820 N   0  0  0  0  0  0  0  0  0  0  0  0
  161.4400  207.9020  154.0440 C   0  0  1  0  0  3  0  0  0  0  0  0
  161.4080  207.5070  151.6780 N   0  0  0  0  0  0  0  0  0  0  0  0
  160.9140  207.2860  149.2830 N   0  0  0  0  0  0  0  0  0  0  0  0
  161.9190  209.8400  150.8840 C   0  0  0  0  0  3  0  0  0  0  0  0
  161.1760  210.8440  150.4210 C   0  0  0  0  0  3  0  0  0  0  0  0
  162.7500  213.3970  146.9870 C   0  0  0  0  0  3  0  0  0  0  0  0
  163.3520  212.4140  147.6560 C   0  0  0  0  0  3  0  0  0  0  0  0
  161.6590  211.8310  149.4430 C   0  0  0  0  0  0  0  0  0  0  0  0
  162.7040  211.5320  148.6470 C   0  0  0  0  0  3  0  0  0  0  0  0
  160.8960  214.0160  148.4920 C   0  0  0  0  0  3  0  0  0  0  0  0
  161.0350  213.1680  149.5120 C   0  0  0  0  0  3  0  0  0  0  0  0
  161.2900  213.6800  147.0930 C   0  0  0  0  0  2  0  0  0  0  0  0
  160.1790  207.8180  154.8920 C   0  0  0  0  0  2  0  0  0  0  0  0
  160.1610  208.8930  155.9650 C   0  0  0  0  0  2  0  0  0  0  0  0
  159.0730  209.7420  155.7670 O   0  0  0  0  0  0  0  0  0  0  0  0
  159.4710  210.9640  156.3110 C   0  0  0  0  0  2  0  0  0  0  0  0
  159.9750  211.8830  155.2110 C   0  0  0  0  0  2  0  0  0  0  0  0
  158.8590  213.7310  153.5550 O   0  0  0  0  0  1  0  0  0  0  0  0
  158.5850  211.2480  152.7820 O   0  0  0  0  0  0  0  0  0  0  0  0
  158.6240  212.3330  154.0780 P   0  0  0  0  0  0  0  0  0  0  0  0
  157.1450  212.2860  154.8980 O   0  0  0  0  0  1  0  0  0  0  0  0
  1 10  2  0  0  0  0
  1  8  1  0  0  0  0
  2  6  1  0  0  0  0
  2 13  1  0  0  0  0
  3  8  1  0  0  0  0
  3 15  1  0  0  0  0
  4  9  1  0  0  0  0
  5  6  2  0  0  0  0
  7 13  2  0  0  0  0
  7 14  1  0  0  0  0
  8  2  2  0  0  0  0
  9 14  1  0  0  0  0
 10  5  1  0  0  0  0
 11 12  2  0  0  0  0
 11 16  1  0  0  0  0
 12  1  1  0  0  0  0
 14 26  1  1  0  0  0
 15  4  1  0  0  0  0
 15  7  1  0  0  0  0
 16  3  2  0  0  0  0
 17  4  1  0  0  0  0
 18 17  2  0  0  0  0
 19 25  1  0  0  0  0
 19 20  2  0  0  0  0
 20 22  1  0  0  0  0
 21 24  1  0  0  0  0
 21 18  1  0  0  0  0
 22 21  2  0  0  0  0
 23 24  2  0  0  0  0
 25 23  1  0  0  0  0
 26 27  1  0  0  0  0
 28 27  1  0  0  0  0
 28 29  1  0  0  0  0
 30 29  1  0  0  0  0
 31 33  1  0  0  0  0
 32 33  2  0  0  0  0
 33 34  1  0  0  0  0
 33 30  1  0  0  0  0
M  END
>  <MODEL>
2

>  <REMARK>
 VINA RESULT:      -7.8      1.272      1.461
  Name = 
  8 active torsions:
  status: ('A' for Active; 'I' for Inactive)
    1  A    between atoms: C_3  and  O_13
    2  A    between atoms: C_3  and  C_17
    3  A    between atoms: N_5  and  C_26
    4  A    between atoms: C_12  and  C_28
    5  A    between atoms: O_13  and  C_33
    6  A    between atoms: C_17  and  C_29
    7  A    between atoms: P_20  and  C_34
    8  A    between atoms: C_33  and  C_34
                            x       y       z     vdW  Elec       q    Type
                         _______ _______ _______ _____ _____    ______ ____

>  <TORSDO>
F 8

$$$$
=
 OpenBabel11062408013D

 34 38  0  0  1  0  0  0  0  0999 V2000
  160.7120  208.6450  156.1030 C   0  0  0  0  0  0  0  0  0  0  0  0
  161.7890  210.2710  154.6240 C   0  0  0  0  0  0  0  0  0  0  0  0
  161.0960  208.1020  153.7710 C   0  0  0  0  0  0  0  0  0  0  0  0
  161.6410  207.8370  151.2770 N   0  0  0  0  0  0  0  0  0  0  0  0
  161.4390  210.7920  156.9670 C   0  0  0  0  0  3  0  0  0  0  0  0
  161.9050  211.1580  155.6970 C   0  0  0  0  0  3  0  0  0  0  0  0
  162.0930  209.8240  152.3120 C   0  0  0  0  0  0  0  0  0  0  0  0
  161.2050  209.0040  154.8370 C   0  0  0  0  0  0  0  0  0  0  0  0
  162.0440  208.7480  150.2050 C   0  0  0  0  0  2  0  0  0  0  0  0
  160.8380  209.5410  157.1690 C   0  0  0  0  0  3  0  0  0  0  0  0
  159.9660  206.5500  155.1670 C   0  0  0  0  0  3  0  0  0  0  0  0
  160.0880  207.4070  156.2680 C   0  0  0  0  0  3  0  0  0  0  0  0
  162.1940  210.6660  153.2990 N   0  0  0  0  0  0  0  0  0  0  0  0
  162.3850  210.1010  150.8760 C   0  0  1  0  0  3  0  0  0  0  0  0
  161.6530  208.5010  152.5070 N   0  0  0  0  0  0  0  0  0  0  0  0
  160.4640  206.9110  153.9510 N   0  0  0  0  0  0  0  0  0  0  0  0
  161.7610  206.4220  151.0920 C   0  0  0  0  0  3  0  0  0  0  0  0
  160.9770  205.7400  150.2600 C   0  0  0  0  0  3  0  0  0  0  0  0
  160.8500  201.1870  150.0630 C   0  0  0  0  0  3  0  0  0  0  0  0
  161.1820  201.9810  151.0800 C   0  0  0  0  0  3  0  0  0  0  0  0
  161.0830  204.2880  150.0480 C   0  0  0  0  0  0  0  0  0  0  0  0
  161.0360  203.4500  151.1010 C   0  0  0  0  0  3  0  0  0  0  0  0
  161.0370  202.6940  148.1190 C   0  0  0  0  0  3  0  0  0  0  0  0
  161.3900  203.8570  148.6680 C   0  0  0  0  0  3  0  0  0  0  0  0
  160.1920  201.6850  148.8210 C   0  0  0  0  0  2  0  0  0  0  0  0
  161.4510  211.1650  150.3150 C   0  0  0  0  0  2  0  0  0  0  0  0
  161.7000  211.3930  148.8340 C   0  0  0  0  0  2  0  0  0  0  0  0
  162.4920  212.5270  148.6550 O   0  0  0  0  0  0  0  0  0  0  0  0
  162.2400  212.9330  147.3440 C   0  0  0  0  0  2  0  0  0  0  0  0
  160.8530  212.4850  146.9180 C   0  0  0  0  0  2  0  0  0  0  0  0
  159.3810  214.2530  145.4640 O   0  0  0  0  0  1  0  0  0  0  0  0
  161.8050  213.8380  144.5730 O   0  0  0  0  0  1  0  0  0  0  0  0
  160.4250  213.1740  145.2890 P   0  0  0  0  0  0  0  0  0  0  0  0
  159.8040  211.9550  144.2940 O   0  0  0  0  0  0  0  0  0  0  0  0
  1 12  1  0  0  0  0
  1 10  2  0  0  0  0
  2  8  2  0  0  0  0
  2  6  1  0  0  0  0
  3 16  2  0  0  0  0
  3  8  1  0  0  0  0
  4 15  1  0  0  0  0
  5 10  1  0  0  0  0
  6  5  2  0  0  0  0
  7 15  1  0  0  0  0
  7 13  2  0  0  0  0
  8  1  1  0  0  0  0
  9 14  1  0  0  0  0
  9  4  1  0  0  0  0
 11 12  2  0  0  0  0
 13  2  1  0  0  0  0
 14 26  1  6  0  0  0
 14  7  1  0  0  0  0
 15  3  1  0  0  0  0
 16 11  1  0  0  0  0
 17  4  1  0  0  0  0
 18 17  2  0  0  0  0
 19 20  2  0  0  0  0
 20 22  1  0  0  0  0
 21 18  1  0  0  0  0
 21 22  2  0  0  0  0
 23 24  2  0  0  0  0
 23 25  1  0  0  0  0
 24 21  1  0  0  0  0
 25 19  1  0  0  0  0
 27 26  1  0  0  0  0
 28 27  1  0  0  0  0
 29 28  1  0  0  0  0
 30 29  1  0  0  0  0
 32 33  1  0  0  0  0
 33 31  1  0  0  0  0
 33 30  1  0  0  0  0
 34 33  2  0  0  0  0
M  END
>  <MODEL>
3

>  <REMARK>
 VINA RESULT:      -7.6      3.845      8.398
  Name = 
  8 active torsions:
  status: ('A' for Active; 'I' for Inactive)
    1  A    between atoms: C_3  and  O_13
    2  A    between atoms: C_3  and  C_17
    3  A    between atoms: N_5  and  C_26
    4  A    between atoms: C_12  and  C_28
    5  A    between atoms: O_13  and  C_33
    6  A    between atoms: C_17  and  C_29
    7  A    between atoms: P_20  and  C_34
    8  A    between atoms: C_33  and  C_34
                            x       y       z     vdW  Elec       q    Type
                         _______ _______ _______ _____ _____    ______ ____

>  <TORSDO>
F 8

$$$$
=
 OpenBabel11062408013D

 34 38  0  0  1  0  0  0  0  0999 V2000
  161.1160  208.0570  154.4700 C   0  0  0  0  0  0  0  0  0  0  0  0
  161.9260  209.9840  153.1980 C   0  0  0  0  0  0  0  0  0  0  0  0
  161.3660  207.9080  152.0620 C   0  0  0  0  0  0  0  0  0  0  0  0
  161.7390  208.0730  149.5290 N   0  0  0  0  0  0  0  0  0  0  0  0
  161.7120  210.1130  155.6110 C   0  0  0  0  0  3  0  0  0  0  0  0
  162.0450  210.7090  154.3860 C   0  0  0  0  0  3  0  0  0  0  0  0
  162.0900  209.9190  150.8290 C   0  0  0  0  0  0  0  0  0  0  0  0
  161.4770  208.6470  153.2470 C   0  0  0  0  0  0  0  0  0  0  0  0
  161.9750  209.1690  148.5890 C   0  0  0  0  0  2  0  0  0  0  0  0
  161.2430  208.7920  155.6530 C   0  0  0  0  0  3  0  0  0  0  0  0
  160.4910  206.0600  153.2690 C   0  0  0  0  0  3  0  0  0  0  0  0
  160.6200  206.7520  154.4790 C   0  0  0  0  0  3  0  0  0  0  0  0
  162.1900  210.6100  151.9280 N   0  0  0  0  0  0  0  0  0  0  0  0
  162.2440  210.4350  149.4390 C   0  0  1  0  0  3  0  0  0  0  0  0
  161.7870  208.5450  150.8440 N   0  0  0  0  0  0  0  0  0  0  0  0
  160.8590  206.6460  152.0940 N   0  0  0  0  0  0  0  0  0  0  0  0
  161.9700  206.7210  149.1190 C   0  0  0  0  0  3  0  0  0  0  0  0
  160.9950  205.9300  148.6760 C   0  0  0  0  0  3  0  0  0  0  0  0
  161.0950  201.4910  147.6410 C   0  0  0  0  0  3  0  0  0  0  0  0
  161.1160  202.0820  148.8360 C   0  0  0  0  0  3  0  0  0  0  0  0
  161.2080  204.5390  148.2440 C   0  0  0  0  0  0  0  0  0  0  0  0
  160.9140  203.5240  149.0790 C   0  0  0  0  0  3  0  0  0  0  0  0
  161.7330  203.3250  146.1210 C   0  0  0  0  0  3  0  0  0  0  0  0
  161.8850  204.3630  146.9430 C   0  0  0  0  0  3  0  0  0  0  0  0
  160.7710  202.2150  146.3790 C   0  0  0  0  0  2  0  0  0  0  0  0
  161.1780  211.4710  149.1090 C   0  0  0  0  0  2  0  0  0  0  0  0
  161.7970  212.8260  148.8140 C   0  0  0  0  0  2  0  0  0  0  0  0
  160.8900  213.8400  149.1230 O   0  0  0  0  0  0  0  0  0  0  0  0
  159.9800  213.2470  149.9990 C   0  0  0  0  0  2  0  0  0  0  0  0
  159.7360  214.1590  151.1900 C   0  0  0  0  0  2  0  0  0  0  0  0
  158.9320  213.8570  153.7720 O   0  0  0  0  0  1  0  0  0  0  0  0
  157.0070  213.8000  152.0020 O   0  0  0  0  0  0  0  0  0  0  0  0
  158.6010  213.3780  152.3780 P   0  0  0  0  0  0  0  0  0  0  0  0
  158.7680  211.6950  152.3130 O   0  0  0  0  0  1  0  0  0  0  0  0
  1 12  1  0  0  0  0
  1 10  2  0  0  0  0
  2  8  2  0  0  0  0
  2  6  1  0  0  0  0
  3 16  2  0  0  0  0
  3  8  1  0  0  0  0
  4 15  1  0  0  0  0
  5 10  1  0  0  0  0
  6  5  2  0  0  0  0
  7 15  1  0  0  0  0
  7 13  2  0  0  0  0
  8  1  1  0  0  0  0
  9 14  1  0  0  0  0
  9  4  1  0  0  0  0
 11 12  2  0  0  0  0
 13  2  1  0  0  0  0
 14 26  1  6  0  0  0
 14  7  1  0  0  0  0
 15  3  1  0  0  0  0
 16 11  1  0  0  0  0
 17  4  1  0  0  0  0
 18 17  2  0  0  0  0
 19 20  2  0  0  0  0
 20 22  1  0  0  0  0
 21 18  1  0  0  0  0
 21 22  2  0  0  0  0
 23 25  1  0  0  0  0
 23 24  2  0  0  0  0
 24 21  1  0  0  0  0
 25 19  1  0  0  0  0
 27 26  1  0  0  0  0
 27 28  1  0  0  0  0
 28 29  1  0  0  0  0
 29 30  1  0  0  0  0
 30 33  1  0  0  0  0
 32 33  2  0  0  0  0
 33 31  1  0  0  0  0
 34 33  1  0  0  0  0
M  END
>  <MODEL>
4

>  <REMARK>
 VINA RESULT:      -7.6      2.182      7.030
  Name = 
  8 active torsions:
  status: ('A' for Active; 'I' for Inactive)
    1  A    between atoms: C_3  and  O_13
    2  A    between atoms: C_3  and  C_17
    3  A    between atoms: N_5  and  C_26
    4  A    between atoms: C_12  and  C_28
    5  A    between atoms: O_13  and  C_33
    6  A    between atoms: C_17  and  C_29
    7  A    between atoms: P_20  and  C_34
    8  A    between atoms: C_33  and  C_34
                            x       y       z     vdW  Elec       q    Type
                         _______ _______ _______ _____ _____    ______ ____

>  <TORSDO>
F 8

$$$$
=
 OpenBabel11062408013D

 34 38  0  0  1  0  0  0  0  0999 V2000
  161.1590  207.8250  154.3060 C   0  0  0  0  0  0  0  0  0  0  0  0
  161.9310  209.8960  153.2570 C   0  0  0  0  0  0  0  0  0  0  0  0
  161.4200  207.9470  151.8980 C   0  0  0  0  0  0  0  0  0  0  0  0
  161.7960  208.3970  149.4000 N   0  0  0  0  0  0  0  0  0  0  0  0
  161.7080  209.7550  155.6680 C   0  0  0  0  0  3  0  0  0  0  0  0
  162.0320  210.4890  154.5180 C   0  0  0  0  0  3  0  0  0  0  0  0
  162.1040  210.0950  150.8970 C   0  0  0  0  0  0  0  0  0  0  0  0
  161.5110  208.5530  153.1570 C   0  0  0  0  0  0  0  0  0  0  0  0
  162.0110  209.5940  148.5860 C   0  0  0  0  0  2  0  0  0  0  0  0
  161.2670  208.4280  155.5630 C   0  0  0  0  0  3  0  0  0  0  0  0
  160.5800  205.9590  152.8890 C   0  0  0  0  0  3  0  0  0  0  0  0
  160.6910  206.5160  154.1690 C   0  0  0  0  0  3  0  0  0  0  0  0
  162.1870  210.6640  152.0640 N   0  0  0  0  0  0  0  0  0  0  0  0
  162.2510  210.7640  149.5720 C   0  0  1  0  0  3  0  0  0  0  0  0
  161.8300  208.7220  150.7590 N   0  0  0  0  0  0  0  0  0  0  0  0
  160.9390  206.6790  151.7880 N   0  0  0  0  0  0  0  0  0  0  0  0
  162.0570  207.1030  148.8450 C   0  0  0  0  0  3  0  0  0  0  0  0
  161.0890  206.3090  148.3920 C   0  0  0  0  0  3  0  0  0  0  0  0
  161.2570  202.0270  146.8340 C   0  0  0  0  0  3  0  0  0  0  0  0
  161.1780  202.4680  148.0890 C   0  0  0  0  0  3  0  0  0  0  0  0
  161.3310  204.9780  147.8120 C   0  0  0  0  0  0  0  0  0  0  0  0
  160.9630  203.8740  148.4890 C   0  0  0  0  0  3  0  0  0  0  0  0
  162.0320  204.0220  145.6090 C   0  0  0  0  0  3  0  0  0  0  0  0
  162.1170  204.9510  146.5610 C   0  0  0  0  0  3  0  0  0  0  0  0
  161.0460  202.9040  145.6460 C   0  0  0  0  0  2  0  0  0  0  0  0
  161.1640  211.8070  149.3530 C   0  0  0  0  0  2  0  0  0  0  0  0
  161.1160  212.2580  147.9030 C   0  0  0  0  0  2  0  0  0  0  0  0
  161.3460  213.6310  147.8250 O   0  0  0  0  0  0  0  0  0  0  0  0
  160.1800  214.1570  147.2670 C   0  0  0  0  0  2  0  0  0  0  0  0
  159.5140  213.1170  146.3810 C   0  0  0  0  0  2  0  0  0  0  0  0
  157.0030  212.0990  146.1340 O   0  0  0  0  0  1  0  0  0  0  0  0
  157.1910  214.2120  147.6620 O   0  0  0  0  0  1  0  0  0  0  0  0
  157.7230  213.4200  146.2660 P   0  0  0  0  0  0  0  0  0  0  0  0
  157.3870  214.3760  144.9120 O   0  0  0  0  0  0  0  0  0  0  0  0
  1 10  2  0  0  0  0
  2  6  1  0  0  0  0
  3  8  1  0  0  0  0
  4 15  1  0  0  0  0
  6  5  2  0  0  0  0
  7 13  2  0  0  0  0
  8  2  2  0  0  0  0
  8  1  1  0  0  0  0
  9  4  1  0  0  0  0
  9 14  1  0  0  0  0
 10  5  1  0  0  0  0
 11 12  2  0  0  0  0
 12  1  1  0  0  0  0
 13  2  1  0  0  0  0
 14 26  1  6  0  0  0
 14  7  1  0  0  0  0
 15  7  1  0  0  0  0
 15  3  1  0  0  0  0
 16  3  2  0  0  0  0
 16 11  1  0  0  0  0
 17  4  1  0  0  0  0
 18 17  2  0  0  0  0
 19 20  2  0  0  0  0
 20 22  1  0  0  0  0
 21 18  1  0  0  0  0
 21 22  2  0  0  0  0
 23 25  1  0  0  0  0
 23 24  2  0  0  0  0
 24 21  1  0  0  0  0
 25 19  1  0  0  0  0
 27 26  1  0  0  0  0
 28 27  1  0  0  0  0
 29 28  1  0  0  0  0
 30 29  1  0  0  0  0
 31 33  1  0  0  0  0
 33 30  1  0  0  0  0
 33 32  1  0  0  0  0
 34 33  2  0  0  0  0
M  END
>  <MODEL>
5

>  <REMARK>
 VINA RESULT:      -7.4      3.867      7.892
  Name = 
  8 active torsions:
  status: ('A' for Active; 'I' for Inactive)
    1  A    between atoms: C_3  and  O_13
    2  A    between atoms: C_3  and  C_17
    3  A    between atoms: N_5  and  C_26
    4  A    between atoms: C_12  and  C_28
    5  A    between atoms: O_13  and  C_33
    6  A    between atoms: C_17  and  C_29
    7  A    between atoms: P_20  and  C_34
    8  A    between atoms: C_33  and  C_34
                            x       y       z     vdW  Elec       q    Type
                         _______ _______ _______ _____ _____    ______ ____

>  <TORSDO>
F 8

$$$$
=
 OpenBabel11062408013D

 34 38  0  0  1  0  0  0  0  0999 V2000
  160.6530  208.5710  156.1710 C   0  0  0  0  0  0  0  0  0  0  0  0
  161.6950  210.2620  154.7410 C   0  0  0  0  0  0  0  0  0  0  0  0
  161.0630  208.0990  153.8280 C   0  0  0  0  0  0  0  0  0  0  0  0
  161.6280  207.9110  151.3320 N   0  0  0  0  0  0  0  0  0  0  0  0
  161.3190  210.7130  157.0940 C   0  0  0  0  0  3  0  0  0  0  0  0
  161.7830  211.1240  155.8370 C   0  0  0  0  0  3  0  0  0  0  0  0
  162.0230  209.8820  152.4190 C   0  0  0  0  0  0  0  0  0  0  0  0
  161.1440  208.9750  154.9180 C   0  0  0  0  0  0  0  0  0  0  0  0
  162.0120  208.8590  150.2860 C   0  0  0  0  0  2  0  0  0  0  0  0
  160.7500  209.4430  157.2610 C   0  0  0  0  0  3  0  0  0  0  0  0
  159.9670  206.4820  155.1780 C   0  0  0  0  0  3  0  0  0  0  0  0
  160.0610  207.3140  156.3010 C   0  0  0  0  0  3  0  0  0  0  0  0
  162.0960  210.7010  153.4280 N   0  0  0  0  0  0  0  0  0  0  0  0
  162.3140  210.2040  150.9930 C   0  0  1  0  0  3  0  0  0  0  0  0
  161.6160  208.5440  152.5790 N   0  0  0  0  0  0  0  0  0  0  0  0
  160.4620  206.8870  153.9750 N   0  0  0  0  0  0  0  0  0  0  0  0
  161.7850  206.5050  151.1110 C   0  0  0  0  0  3  0  0  0  0  0  0
  160.9090  205.7880  150.4110 C   0  0  0  0  0  3  0  0  0  0  0  0
  160.9140  201.2370  150.1280 C   0  0  0  0  0  3  0  0  0  0  0  0
  161.2640  202.0220  151.1470 C   0  0  0  0  0  3  0  0  0  0  0  0
  161.0510  204.3440  150.1660 C   0  0  0  0  0  0  0  0  0  0  0  0
  161.0730  203.4850  151.2030 C   0  0  0  0  0  3  0  0  0  0  0  0
  160.9730  202.7860  148.2090 C   0  0  0  0  0  3  0  0  0  0  0  0
  161.3130  203.9480  148.7670 C   0  0  0  0  0  3  0  0  0  0  0  0
  160.1900  201.7370  148.9250 C   0  0  0  0  0  2  0  0  0  0  0  0
  161.3560  211.2560  150.4530 C   0  0  0  0  0  2  0  0  0  0  0  0
  160.3030  211.6260  151.4840 C   0  0  0  0  0  2  0  0  0  0  0  0
  159.8720  212.9350  151.2740 O   0  0  0  0  0  0  0  0  0  0  0  0
  158.8350  213.1200  152.1900 C   0  0  0  0  0  2  0  0  0  0  0  0
  158.5940  211.8370  152.9670 C   0  0  0  0  0  2  0  0  0  0  0  0
  156.6330  212.8050  154.5860 O   0  0  0  0  0  0  0  0  0  0  0  0
  157.9680  210.7770  155.5590 O   0  0  0  0  0  1  0  0  0  0  0  0
  158.0180  212.2040  154.6530 P   0  0  0  0  0  0  0  0  0  0  0  0
  159.0670  213.3060  155.3930 O   0  0  0  0  0  1  0  0  0  0  0  0
  1 12  1  0  0  0  0
  1 10  2  0  0  0  0
  2  8  2  0  0  0  0
  2  6  1  0  0  0  0
  3 16  2  0  0  0  0
  3  8  1  0  0  0  0
  4 15  1  0  0  0  0
  5 10  1  0  0  0  0
  6  5  2  0  0  0  0
  7 15  1  0  0  0  0
  7 13  2  0  0  0  0
  8  1  1  0  0  0  0
  9 14  1  0  0  0  0
  9  4  1  0  0  0  0
 11 12  2  0  0  0  0
 13  2  1  0  0  0  0
 14 26  1  6  0  0  0
 14  7  1  0  0  0  0
 15  3  1  0  0  0  0
 16 11  1  0  0  0  0
 17  4  1  0  0  0  0
 18 17  2  0  0  0  0
 19 20  2  0  0  0  0
 20 22  1  0  0  0  0
 21 18  1  0  0  0  0
 21 22  2  0  0  0  0
 23 24  2  0  0  0  0
 23 25  1  0  0  0  0
 24 21  1  0  0  0  0
 25 19  1  0  0  0  0
 26 27  1  0  0  0  0
 28 27  1  0  0  0  0
 28 29  1  0  0  0  0
 29 30  1  0  0  0  0
 30 33  1  0  0  0  0
 31 33  2  0  0  0  0
 33 34  1  0  0  0  0
 33 32  1  0  0  0  0
M  END
>  <MODEL>
6

>  <REMARK>
 VINA RESULT:      -7.3      2.045      7.126
  Name = 
  8 active torsions:
  status: ('A' for Active; 'I' for Inactive)
    1  A    between atoms: C_3  and  O_13
    2  A    between atoms: C_3  and  C_17
    3  A    between atoms: N_5  and  C_26
    4  A    between atoms: C_12  and  C_28
    5  A    between atoms: O_13  and  C_33
    6  A    between atoms: C_17  and  C_29
    7  A    between atoms: P_20  and  C_34
    8  A    between atoms: C_33  and  C_34
                            x       y       z     vdW  Elec       q    Type
                         _______ _______ _______ _____ _____    ______ ____

>  <TORSDO>
F 8

$$$$
=
 OpenBabel11062408013D

 34 38  0  0  1  0  0  0  0  0999 V2000
  161.2920  209.2460  156.0830 C   0  0  0  0  0  0  0  0  0  0  0  0
  160.5770  207.2990  154.7840 C   0  0  0  0  0  0  0  0  0  0  0  0
  161.6350  209.1910  153.6830 C   0  0  0  0  0  0  0  0  0  0  0  0
  161.8500  208.8260  151.1520 N   0  0  0  0  0  0  0  0  0  0  0  0
  160.2010  207.3780  157.1790 C   0  0  0  0  0  3  0  0  0  0  0  0
  160.0950  206.7060  155.9540 C   0  0  0  0  0  3  0  0  0  0  0  0
  160.9830  207.1570  152.4480 C   0  0  0  0  0  0  0  0  0  0  0  0
  161.1610  208.5820  154.8510 C   0  0  0  0  0  0  0  0  0  0  0  0
  161.7110  207.6760  150.2580 C   0  0  0  0  0  2  0  0  0  0  0  0
  160.8030  208.6420  157.2460 C   0  0  0  0  0  3  0  0  0  0  0  0
  162.4200  211.0470  154.9390 C   0  0  0  0  0  3  0  0  0  0  0  0
  161.9270  210.4890  156.1250 C   0  0  0  0  0  3  0  0  0  0  0  0
  160.5440  206.5860  153.5330 N   0  0  0  0  0  0  0  0  0  0  0  0
  161.0980  206.5300  151.1010 C   0  0  1  0  0  3  0  0  0  0  0  0
  161.4380  208.4880  152.4440 N   0  0  0  0  0  0  0  0  0  0  0  0
  162.2690  210.3930  153.7520 N   0  0  0  0  0  0  0  0  0  0  0  0
  161.8880  210.1500  150.6070 C   0  0  0  0  0  3  0  0  0  0  0  0
  161.9120  210.3860  149.2970 C   0  0  0  0  0  3  0  0  0  0  0  0
  162.1790  214.2750  146.9330 C   0  0  0  0  0  3  0  0  0  0  0  0
  163.1280  213.3770  147.1940 C   0  0  0  0  0  3  0  0  0  0  0  0
  161.9460  211.7360  148.7140 C   0  0  0  0  0  0  0  0  0  0  0  0
  162.9090  212.0630  147.8310 C   0  0  0  0  0  3  0  0  0  0  0  0
  160.4570  213.7450  148.6170 C   0  0  0  0  0  3  0  0  0  0  0  0
  160.9780  212.7050  149.2690 C   0  0  0  0  0  3  0  0  0  0  0  0
  160.7290  214.0250  147.1780 C   0  0  0  0  0  2  0  0  0  0  0  0
  162.0780  205.3650  151.1110 C   0  0  0  0  0  2  0  0  0  0  0  0
  161.3600  204.0370  150.9350 C   0  0  0  0  0  2  0  0  0  0  0  0
  160.4300  204.1350  149.9010 O   0  0  0  0  0  0  0  0  0  0  0  0
  161.1300  203.7570  148.7550 C   0  0  0  0  0  2  0  0  0  0  0  0
  161.2710  204.9440  147.8170 C   0  0  0  0  0  2  0  0  0  0  0  0
  161.6040  202.9100  146.0410 O   0  0  0  0  0  1  0  0  0  0  0  0
  160.9010  205.1950  144.9830 O   0  0  0  0  0  0  0  0  0  0  0  0
  161.8110  204.4010  146.1660 P   0  0  0  0  0  0  0  0  0  0  0  0
  163.4500  204.7570  145.9510 O   0  0  0  0  0  1  0  0  0  0  0  0
  1 12  1  0  0  0  0
  1 10  2  0  0  0  0
  2  8  2  0  0  0  0
  2  6  1  0  0  0  0
  3 16  2  0  0  0  0
  3  8  1  0  0  0  0
  4 15  1  0  0  0  0
  5 10  1  0  0  0  0
  6  5  2  0  0  0  0
  7 13  2  0  0  0  0
  8  1  1  0  0  0  0
  9 14  1  0  0  0  0
  9  4  1  0  0  0  0
 11 12  2  0  0  0  0
 13  2  1  0  0  0  0
 14 26  1  1  0  0  0
 14  7  1  0  0  0  0
 15  7  1  0  0  0  0
 15  3  1  0  0  0  0
 16 11  1  0  0  0  0
 17  4  1  0  0  0  0
 18 17  2  0  0  0  0
 19 25  1  0  0  0  0
 19 20  2  0  0  0  0
 20 22  1  0  0  0  0
 21 24  1  0  0  0  0
 21 18  1  0  0  0  0
 22 21  2  0  0  0  0
 23 24  2  0  0  0  0
 25 23  1  0  0  0  0
 27 26  1  0  0  0  0
 28 27  1  0  0  0  0
 29 28  1  0  0  0  0
 30 29  1  0  0  0  0
 31 33  1  0  0  0  0
 32 33  2  0  0  0  0
 33 30  1  0  0  0  0
 34 33  1  0  0  0  0
M  END
>  <MODEL>
7

>  <REMARK>
 VINA RESULT:      -7.1      4.347      6.820
  Name = 
  8 active torsions:
  status: ('A' for Active; 'I' for Inactive)
    1  A    between atoms: C_3  and  O_13
    2  A    between atoms: C_3  and  C_17
    3  A    between atoms: N_5  and  C_26
    4  A    between atoms: C_12  and  C_28
    5  A    between atoms: O_13  and  C_33
    6  A    between atoms: C_17  and  C_29
    7  A    between atoms: P_20  and  C_34
    8  A    between atoms: C_33  and  C_34
                            x       y       z     vdW  Elec       q    Type
                         _______ _______ _______ _____ _____    ______ ____

>  <TORSDO>
F 8

$$$$
=
 OpenBabel11062408013D

 34 38  0  0  1  0  0  0  0  0999 V2000
  161.0180  212.8920  149.5430 C   0  0  0  0  0  0  0  0  0  0  0  0
  159.9840  212.2960  151.6800 C   0  0  0  0  0  0  0  0  0  0  0  0
  161.4390  210.7190  150.5350 C   0  0  0  0  0  0  0  0  0  0  0  0
  161.6810  208.5210  151.8370 N   0  0  0  0  0  0  0  0  0  0  0  0
  159.5340  214.4510  150.6620 C   0  0  0  0  0  3  0  0  0  0  0  0
  159.3470  213.5390  151.7100 C   0  0  0  0  0  3  0  0  0  0  0  0
  160.4480  210.2210  152.7390 C   0  0  0  0  0  0  0  0  0  0  0  0
  160.8070  211.9680  150.5810 C   0  0  0  0  0  0  0  0  0  0  0  0
  161.3530  208.0830  153.1940 C   0  0  0  0  0  2  0  0  0  0  0  0
  160.3720  214.1320  149.5840 C   0  0  0  0  0  3  0  0  0  0  0  0
  162.5250  211.3160  148.5090 C   0  0  0  0  0  3  0  0  0  0  0  0
  161.8830  212.5610  148.4990 C   0  0  0  0  0  3  0  0  0  0  0  0
  159.8620  211.3820  152.7870 N   0  0  0  0  0  0  0  0  0  0  0  0
  160.4920  209.2030  153.8270 C   0  0  1  0  0  3  0  0  0  0  0  0
  161.1580  209.7960  151.6000 N   0  0  0  0  0  0  0  0  0  0  0  0
  162.2950  210.4290  149.5190 N   0  0  0  0  0  0  0  0  0  0  0  0
  162.0020  207.5520  150.8340 C   0  0  0  0  0  3  0  0  0  0  0  0
  161.0980  207.0810  149.9760 C   0  0  0  0  0  3  0  0  0  0  0  0
  161.4750  203.7370  146.9000 C   0  0  0  0  0  3  0  0  0  0  0  0
  161.3890  203.6600  148.2280 C   0  0  0  0  0  3  0  0  0  0  0  0
  161.4040  206.0890  148.9340 C   0  0  0  0  0  0  0  0  0  0  0  0
  161.1050  204.7910  149.1330 C   0  0  0  0  0  3  0  0  0  0  0  0
  162.1250  206.0890  146.5380 C   0  0  0  0  0  3  0  0  0  0  0  0
  162.1730  206.5860  147.7740 C   0  0  0  0  0  3  0  0  0  0  0  0
  161.2010  204.9890  146.1370 C   0  0  0  0  0  2  0  0  0  0  0  0
  161.2200  209.7330  155.0550 C   0  0  0  0  0  2  0  0  0  0  0  0
  160.2490  210.3200  156.0650 C   0  0  0  0  0  2  0  0  0  0  0  0
  160.4480  211.6960  156.1720 O   0  0  0  0  0  0  0  0  0  0  0  0
  159.1640  212.2390  156.2200 C   0  0  0  0  0  2  0  0  0  0  0  0
  158.1290  211.1430  156.0290 C   0  0  0  0  0  2  0  0  0  0  0  0
  155.8790  212.5800  156.5550 O   0  0  0  0  0  1  0  0  0  0  0  0
  156.8620  212.9070  154.1540 O   0  0  0  0  0  0  0  0  0  0  0  0
  156.5590  211.8380  155.4280 P   0  0  0  0  0  0  0  0  0  0  0  0
  155.5470  210.5930  154.8900 O   0  0  0  0  0  1  0  0  0  0  0  0
  1 10  2  0  0  0  0
  1  8  1  0  0  0  0
  2  6  1  0  0  0  0
  2 13  1  0  0  0  0
  3  8  1  0  0  0  0
  3 15  1  0  0  0  0
  4  9  1  0  0  0  0
  5  6  2  0  0  0  0
  7 13  2  0  0  0  0
  7 14  1  0  0  0  0
  8  2  2  0  0  0  0
  9 14  1  0  0  0  0
 10  5  1  0  0  0  0
 11 16  1  0  0  0  0
 12 11  2  0  0  0  0
 12  1  1  0  0  0  0
 14 26  1  1  0  0  0
 15  4  1  0  0  0  0
 15  7  1  0  0  0  0
 16  3  2  0  0  0  0
 17  4  1  0  0  0  0
 18 17  2  0  0  0  0
 19 20  2  0  0  0  0
 20 22  1  0  0  0  0
 21 22  2  0  0  0  0
 21 18  1  0  0  0  0
 23 24  2  0  0  0  0
 24 21  1  0  0  0  0
 25 23  1  0  0  0  0
 25 19  1  0  0  0  0
 26 27  1  0  0  0  0
 27 28  1  0  0  0  0
 28 29  1  0  0  0  0
 30 29  1  0  0  0  0
 32 33  2  0  0  0  0
 33 30  1  0  0  0  0
 33 31  1  0  0  0  0
 34 33  1  0  0  0  0
M  END
>  <MODEL>
8

>  <REMARK>
 VINA RESULT:      -6.9      2.198      6.304
  Name = 
  8 active torsions:
  status: ('A' for Active; 'I' for Inactive)
    1  A    between atoms: C_3  and  O_13
    2  A    between atoms: C_3  and  C_17
    3  A    between atoms: N_5  and  C_26
    4  A    between atoms: C_12  and  C_28
    5  A    between atoms: O_13  and  C_33
    6  A    between atoms: C_17  and  C_29
    7  A    between atoms: P_20  and  C_34
    8  A    between atoms: C_33  and  C_34
                            x       y       z     vdW  Elec       q    Type
                         _______ _______ _______ _____ _____    ______ ____

>  <TORSDO>
F 8

$$$$
=
 OpenBabel11062408013D

 34 38  0  0  1  0  0  0  0  0999 V2000
  161.0730  212.5060  149.4530 C   0  0  0  0  0  0  0  0  0  0  0  0
  160.0840  212.5400  151.6910 C   0  0  0  0  0  0  0  0  0  0  0  0
  161.2870  210.5780  150.9090 C   0  0  0  0  0  0  0  0  0  0  0  0
  161.3350  208.7180  152.6760 N   0  0  0  0  0  0  0  0  0  0  0  0
  159.8390  214.4490  150.2150 C   0  0  0  0  0  3  0  0  0  0  0  0
  159.5980  213.8280  151.4480 C   0  0  0  0  0  3  0  0  0  0  0  0
  160.3550  210.7170  153.1890 C   0  0  0  0  0  0  0  0  0  0  0  0
  160.8080  211.8740  150.6800 C   0  0  0  0  0  0  0  0  0  0  0  0
  161.0250  208.6410  154.1040 C   0  0  0  0  0  2  0  0  0  0  0  0
  160.5790  213.7940  149.2220 C   0  0  0  0  0  3  0  0  0  0  0  0
  162.3340  210.5620  148.7770 C   0  0  0  0  0  3  0  0  0  0  0  0
  161.8420  211.8430  148.4940 C   0  0  0  0  0  3  0  0  0  0  0  0
  159.9100  211.9230  152.9810 N   0  0  0  0  0  0  0  0  0  0  0  0
  160.3330  209.9740  154.4810 C   0  0  1  0  0  3  0  0  0  0  0  0
  160.9530  209.9610  152.1630 N   0  0  0  0  0  0  0  0  0  0  0  0
  162.0530  209.9610  149.9680 N   0  0  0  0  0  0  0  0  0  0  0  0
  161.4910  207.5140  151.9160 C   0  0  0  0  0  3  0  0  0  0  0  0
  161.0770  206.3290  152.3580 C   0  0  0  0  0  3  0  0  0  0  0  0
  161.0720  202.2160  150.3900 C   0  0  0  0  0  3  0  0  0  0  0  0
  161.3890  202.5560  151.6390 C   0  0  0  0  0  3  0  0  0  0  0  0
  161.2210  205.0800  151.5940 C   0  0  0  0  0  0  0  0  0  0  0  0
  161.2030  203.8950  152.2340 C   0  0  0  0  0  3  0  0  0  0  0  0
  161.2060  204.3690  149.1950 C   0  0  0  0  0  3  0  0  0  0  0  0
  161.5310  205.2320  150.1570 C   0  0  0  0  0  3  0  0  0  0  0  0
  160.3930  203.1430  149.4400 C   0  0  0  0  0  2  0  0  0  0  0  0
  161.1780  210.6720  155.5380 C   0  0  0  0  0  2  0  0  0  0  0  0
  160.3190  211.1900  156.6790 C   0  0  0  0  0  2  0  0  0  0  0  0
  158.9980  210.7810  156.5020 O   0  0  0  0  0  0  0  0  0  0  0  0
  158.2300  211.8230  157.0230 C   0  0  0  0  0  2  0  0  0  0  0  0
  158.0760  212.9240  155.9880 C   0  0  0  0  0  2  0  0  0  0  0  0
  156.1550  211.2600  155.0160 O   0  0  0  0  0  1  0  0  0  0  0  0
  155.2890  213.5890  155.8290 O   0  0  0  0  0  1  0  0  0  0  0  0
  156.5230  212.7250  155.0620 P   0  0  0  0  0  0  0  0  0  0  0  0
  156.7160  213.3000  153.4820 O   0  0  0  0  0  0  0  0  0  0  0  0
  1  8  1  0  0  0  0
  2 13  1  0  0  0  0
  3 15  1  0  0  0  0
  4  9  1  0  0  0  0
  5  6  2  0  0  0  0
  6  2  1  0  0  0  0
  7 14  1  0  0  0  0
  8  3  1  0  0  0  0
  8  2  2  0  0  0  0
  9 14  1  0  0  0  0
 10  1  2  0  0  0  0
 10  5  1  0  0  0  0
 11 16  1  0  0  0  0
 12 11  2  0  0  0  0
 12  1  1  0  0  0  0
 13  7  2  0  0  0  0
 14 26  1  1  0  0  0
 15  4  1  0  0  0  0
 15  7  1  0  0  0  0
 16  3  2  0  0  0  0
 17 18  2  0  0  0  0
 17  4  1  0  0  0  0
 19 20  2  0  0  0  0
 20 22  1  0  0  0  0
 21 22  2  0  0  0  0
 21 18  1  0  0  0  0
 23 25  1  0  0  0  0
 23 24  2  0  0  0  0
 24 21  1  0  0  0  0
 25 19  1  0  0  0  0
 26 27  1  0  0  0  0
 28 27  1  0  0  0  0
 28 29  1  0  0  0  0
 30 29  1  0  0  0  0
 31 33  1  0  0  0  0
 33 32  1  0  0  0  0
 33 30  1  0  0  0  0
 34 33  2  0  0  0  0
M  END
>  <MODEL>
9

>  <REMARK>
 VINA RESULT:      -6.9      2.226      6.850
  Name = 
  8 active torsions:
  status: ('A' for Active; 'I' for Inactive)
    1  A    between atoms: C_3  and  O_13
    2  A    between atoms: C_3  and  C_17
    3  A    between atoms: N_5  and  C_26
    4  A    between atoms: C_12  and  C_28
    5  A    between atoms: O_13  and  C_33
    6  A    between atoms: C_17  and  C_29
    7  A    between atoms: P_20  and  C_34
    8  A    between atoms: C_33  and  C_34
                            x       y       z     vdW  Elec       q    Type
                         _______ _______ _______ _____ _____    ______ ____

>  <TORSDO>
F 8

$$$$
