=
 OpenBabel11062410373D

 32 38  0  0  1  0  0  0  0  0999 V2000
  160.3610  204.3530  150.3210 C   0  0  0  0  0  3  0  0  0  0  0  0
  161.1610  208.9210  152.3890 C   0  0  0  0  0  0  0  0  0  0  0  0
  161.5710  207.8010  157.1000 O   0  0  0  0  0  0  0  0  0  0  0  0
  160.2040  208.0920  156.9410 C   0  0  2  0  0  3  0  0  0  0  0  0
  160.4220  211.3500  152.0730 C   0  0  0  0  0  0  0  0  0  0  0  0
  160.7700  211.7540  150.7680 C   0  0  0  0  0  0  0  0  0  0  0  0
  161.2900  207.2660  150.6560 C   0  0  2  0  0  3  0  0  0  0  0  0
  161.4580  206.5840  153.0690 C   0  0  0  0  0  3  0  0  0  0  0  0
  158.9160  213.2270  152.3020 C   0  0  0  0  0  0  0  0  0  0  0  0
  160.4810  205.0570  151.4450 C   0  0  0  0  0  3  0  0  0  0  0  0
  160.9690  207.3340  155.9170 C   0  0  1  0  0  3  0  0  0  0  0  0
  161.2910  207.8630  153.4090 C   0  0  0  0  0  0  0  0  0  0  0  0
  161.2220  208.3450  154.8200 C   0  0  1  0  0  3  0  0  0  0  0  0
  160.6310  210.5560  154.2610 C   0  0  2  0  0  3  0  0  0  0  0  0
  159.1850  213.5980  150.9790 C   0  0  0  0  0  3  0  0  0  0  0  0
  161.5360  205.7720  148.6570 C   0  0  0  0  0  3  0  0  0  0  0  0
  161.4970  206.1320  151.6350 C   0  0  0  0  0  0  0  0  0  0  0  0
  160.1240  212.8740  150.2220 C   0  0  0  0  0  3  0  0  0  0  0  0
  161.3740  207.0720  149.3400 C   0  0  0  0  0  3  0  0  0  0  0  0
  161.1400  204.5610  149.0840 C   0  0  0  0  0  0  0  0  0  0  0  0
  160.0230  209.4890  156.3570 C   0  0  0  0  0  2  0  0  0  0  0  0
  160.1630  209.3320  154.9200 N   0  0  2  0  0  0  0  0  0  0  0  0
  159.5180  211.6220  154.2330 C   0  0  0  0  0  2  0  0  0  0  0  0
  161.1310  208.6110  151.1280 N   0  0  0  0  0  0  0  0  0  0  0  0
  162.0960  211.0480  149.8580 Cl  0  0  0  0  0  0  0  0  0  0  0  0
  158.0260  213.9680  153.0700 O   0  0  0  0  0  1  0  0  0  0  0  0
  160.9660  210.2830  152.8440 N   0  0  0  0  0  0  0  0  0  0  0  0
  159.5670  212.1130  152.8320 C   0  0  0  0  0  0  0  0  0  0  0  0
  160.7700  202.0990  148.4340 C   0  0  0  0  0  0  0  0  0  0  0  0
  161.3330  203.4060  148.2530 N   0  0  0  0  0  2  0  0  0  0  0  0
  159.9660  201.8560  149.3720 O   0  0  0  0  0  0  0  0  0  0  0  0
  161.1330  201.0150  147.4870 C   0  0  0  0  0  1  0  0  0  0  0  0
  1 10  1  0  0  0  0
  2 27  1  0  0  0  0
  2 12  1  0  0  0  0
  4 21  1  6  0  0  0
  4  3  1  0  0  0  0
  5 28  1  0  0  0  0
  5 27  1  0  0  0  0
  6  5  2  0  0  0  0
  7 19  1  6  0  0  0
  7 24  1  0  0  0  0
  7 17  1  0  0  0  0
  8 12  2  0  0  0  0
  9 28  2  0  0  0  0
  9 26  1  0  0  0  0
 10 17  2  0  0  0  0
 11  4  1  0  0  0  0
 11  3  1  1  0  0  0
 13 12  1  6  0  0  0
 13 22  1  0  0  0  0
 13 11  1  0  0  0  0
 14 23  1  6  0  0  0
 14 22  1  0  0  0  0
 15  9  1  0  0  0  0
 16 20  1  0  0  0  0
 16 19  2  0  0  0  0
 17  8  1  0  0  0  0
 18  6  1  0  0  0  0
 18 15  2  0  0  0  0
 20  1  2  0  0  0  0
 22 21  1  1  0  0  0
 24  2  2  0  0  0  0
 25  6  1  0  0  0  0
 27 14  1  0  0  0  0
 28 23  1  0  0  0  0
 29 31  2  0  0  0  0
 30 29  1  0  0  0  0
 30 20  1  0  0  0  0
 32 29  1  0  0  0  0
M  END
>  <MODEL>
1

>  <REMARK>
 VINA RESULT:      -9.6      0.000      0.000
  Name = 
  1 active torsions:
  status: ('A' for Active; 'I' for Inactive)
    1  A    between atoms: N_10  and  C_24
                            x       y       z     vdW  Elec       q    Type
                         _______ _______ _______ _____ _____    ______ ____

>  <TORSDO>
F 1

$$$$
=
 OpenBabel11062410373D

 32 38  0  0  1  0  0  0  0  0999 V2000
  160.5180  204.8820  150.0010 C   0  0  0  0  0  3  0  0  0  0  0  0
  161.1000  209.3370  152.3640 C   0  0  0  0  0  0  0  0  0  0  0  0
  161.6610  207.9280  156.9810 O   0  0  0  0  0  0  0  0  0  0  0  0
  160.2770  208.1500  156.8630 C   0  0  2  0  0  3  0  0  0  0  0  0
  160.2210  211.7370  152.2270 C   0  0  0  0  0  0  0  0  0  0  0  0
  160.5220  212.2460  150.9470 C   0  0  0  0  0  0  0  0  0  0  0  0
  161.2890  207.8130  150.5200 C   0  0  2  0  0  3  0  0  0  0  0  0
  161.5410  206.9800  152.8780 C   0  0  0  0  0  3  0  0  0  0  0  0
  158.6170  213.5050  152.6070 C   0  0  0  0  0  0  0  0  0  0  0  0
  160.6200  205.5140  151.1690 C   0  0  0  0  0  3  0  0  0  0  0  0
  161.0640  207.5070  155.7780 C   0  0  1  0  0  3  0  0  0  0  0  0
  161.3080  208.2230  153.3070 C   0  0  0  0  0  0  0  0  0  0  0  0
  161.2390  208.6030  154.7490 C   0  0  1  0  0  3  0  0  0  0  0  0
  160.5150  210.8090  154.3520 C   0  0  2  0  0  3  0  0  0  0  0  0
  158.8410  213.9790  151.3070 C   0  0  0  0  0  3  0  0  0  0  0  0
  161.5800  206.4750  148.4200 C   0  0  0  0  0  3  0  0  0  0  0  0
  161.5780  206.6300  151.4160 C   0  0  0  0  0  0  0  0  0  0  0  0
  159.8030  213.3620  150.4900 C   0  0  0  0  0  3  0  0  0  0  0  0
  161.3590  207.7140  149.1930 C   0  0  0  0  0  3  0  0  0  0  0  0
  161.2600  205.2170  148.7690 C   0  0  0  0  0  0  0  0  0  0  0  0
  160.0080  209.5710  156.3780 C   0  0  0  0  0  2  0  0  0  0  0  0
  160.1290  209.5190  154.9320 N   0  0  2  0  0  0  0  0  0  0  0  0
  159.3440  211.8100  154.4130 C   0  0  0  0  0  2  0  0  0  0  0  0
  161.0640  209.1130  151.0860 N   0  0  0  0  0  0  0  0  0  0  0  0
  161.8670  211.6810  149.9720 Cl  0  0  0  0  0  0  0  0  0  0  0  0
  157.7020  214.1400  153.4370 O   0  0  0  0  0  1  0  0  0  0  0  0
  160.8380  210.6520  152.9150 N   0  0  0  0  0  0  0  0  0  0  0  0
  159.3390  212.3960  153.0490 C   0  0  0  0  0  0  0  0  0  0  0  0
  161.2890  204.1250  146.4400 C   0  0  0  0  0  0  0  0  0  0  0  0
  161.5020  204.1340  147.8580 N   0  0  0  0  0  2  0  0  0  0  0  0
  160.8910  205.1530  145.8310 O   0  0  0  0  0  0  0  0  0  0  0  0
  161.5530  202.8800  145.6730 C   0  0  0  0  0  1  0  0  0  0  0  0
  1 10  1  0  0  0  0
  2 27  1  0  0  0  0
  2 12  1  0  0  0  0
  4 21  1  6  0  0  0
  4  3  1  0  0  0  0
  5 27  1  0  0  0  0
  5 28  1  0  0  0  0
  6  5  2  0  0  0  0
  7 19  1  6  0  0  0
  7 24  1  0  0  0  0
  7 17  1  0  0  0  0
  8 12  2  0  0  0  0
  9 28  2  0  0  0  0
  9 26  1  0  0  0  0
 10 17  2  0  0  0  0
 11  4  1  0  0  0  0
 11  3  1  1  0  0  0
 13 12  1  6  0  0  0
 13 22  1  0  0  0  0
 13 11  1  0  0  0  0
 14 23  1  6  0  0  0
 14 22  1  0  0  0  0
 15  9  1  0  0  0  0
 16 20  1  0  0  0  0
 16 19  2  0  0  0  0
 17  8  1  0  0  0  0
 18  6  1  0  0  0  0
 18 15  2  0  0  0  0
 20  1  2  0  0  0  0
 22 21  1  1  0  0  0
 24  2  2  0  0  0  0
 25  6  1  0  0  0  0
 27 14  1  0  0  0  0
 28 23  1  0  0  0  0
 29 30  1  0  0  0  0
 30 20  1  0  0  0  0
 31 29  2  0  0  0  0
 32 29  1  0  0  0  0
M  END
>  <MODEL>
2

>  <REMARK>
 VINA RESULT:      -9.2      1.210      1.212
  Name = 
  1 active torsions:
  status: ('A' for Active; 'I' for Inactive)
    1  A    between atoms: N_10  and  C_24
                            x       y       z     vdW  Elec       q    Type
                         _______ _______ _______ _____ _____    ______ ____

>  <TORSDO>
F 1

$$$$
=
 OpenBabel11062410373D

 32 38  0  0  1  0  0  0  0  0999 V2000
  160.0510  203.5760  149.8060 C   0  0  0  0  0  3  0  0  0  0  0  0
  161.6260  208.2060  151.1710 C   0  0  0  0  0  0  0  0  0  0  0  0
  161.5120  207.8860  156.0190 O   0  0  0  0  0  0  0  0  0  0  0  0
  160.2440  208.3940  155.6850 C   0  0  2  0  0  3  0  0  0  0  0  0
  161.4120  210.6350  150.3960 C   0  0  0  0  0  0  0  0  0  0  0  0
  161.9140  210.7270  149.0820 C   0  0  0  0  0  0  0  0  0  0  0  0
  161.5240  206.2750  149.7490 C   0  0  2  0  0  3  0  0  0  0  0  0
  161.4040  206.0130  152.2460 C   0  0  0  0  0  3  0  0  0  0  0  0
  160.3030  212.7720  150.1730 C   0  0  0  0  0  0  0  0  0  0  0  0
  160.2410  204.4340  150.8070 C   0  0  0  0  0  3  0  0  0  0  0  0
  160.9020  207.3360  154.8750 C   0  0  1  0  0  3  0  0  0  0  0  0
  161.4770  207.3410  152.3560 C   0  0  0  0  0  0  0  0  0  0  0  0
  161.4200  208.0710  153.6570 C   0  0  1  0  0  3  0  0  0  0  0  0
  161.3220  210.2180  152.6930 C   0  0  2  0  0  3  0  0  0  0  0  0
  160.7230  212.8440  148.8380 C   0  0  0  0  0  3  0  0  0  0  0  0
  161.5870  204.4300  148.0520 C   0  0  0  0  0  3  0  0  0  0  0  0
  161.4390  205.3150  150.9150 C   0  0  0  0  0  0  0  0  0  0  0  0
  161.5400  211.8340  148.3020 C   0  0  0  0  0  3  0  0  0  0  0  0
  161.6490  205.8370  148.4960 C   0  0  0  0  0  3  0  0  0  0  0  0
  160.9290  203.4100  148.6310 C   0  0  0  0  0  0  0  0  0  0  0  0
  160.3850  209.6740  154.8670 C   0  0  0  0  0  2  0  0  0  0  0  0
  160.5780  209.2400  153.4950 N   0  0  2  0  0  0  0  0  0  0  0  0
  160.4510  211.4520  152.3870 C   0  0  0  0  0  2  0  0  0  0  0  0
  161.6110  207.6880  149.9800 N   0  0  0  0  0  0  0  0  0  0  0  0
  163.1230  209.6350  148.4290 Cl  0  0  0  0  0  0  0  0  0  0  0  0
  159.5360  213.7910  150.7220 O   0  0  0  0  0  1  0  0  0  0  0  0
  161.6810  209.6390  151.3780 N   0  0  0  0  0  0  0  0  0  0  0  0
  160.6830  211.6670  150.9360 C   0  0  0  0  0  0  0  0  0  0  0  0
  160.8630  201.8060  146.6210 C   0  0  0  0  0  0  0  0  0  0  0  0
  160.9370  202.1110  148.0200 N   0  0  0  0  0  2  0  0  0  0  0  0
  160.8330  202.7170  145.7520 O   0  0  0  0  0  0  0  0  0  0  0  0
  160.8320  200.3860  146.1870 C   0  0  0  0  0  1  0  0  0  0  0  0
  1 10  1  0  0  0  0
  2 27  1  0  0  0  0
  2 12  1  0  0  0  0
  4 21  1  6  0  0  0
  4  3  1  0  0  0  0
  5 28  1  0  0  0  0
  5 27  1  0  0  0  0
  6  5  2  0  0  0  0
  7 19  1  1  0  0  0
  7 24  1  0  0  0  0
  7 17  1  0  0  0  0
  8 12  2  0  0  0  0
  9 26  1  0  0  0  0
  9 28  2  0  0  0  0
 10 17  2  0  0  0  0
 11  4  1  0  0  0  0
 11  3  1  1  0  0  0
 13 12  1  6  0  0  0
 13 11  1  0  0  0  0
 14 23  1  6  0  0  0
 14 22  1  0  0  0  0
 15  9  1  0  0  0  0
 16 19  2  0  0  0  0
 16 20  1  0  0  0  0
 17  8  1  0  0  0  0
 18 15  2  0  0  0  0
 18  6  1  0  0  0  0
 20  1  2  0  0  0  0
 22 13  1  0  0  0  0
 22 21  1  1  0  0  0
 24  2  2  0  0  0  0
 25  6  1  0  0  0  0
 27 14  1  0  0  0  0
 28 23  1  0  0  0  0
 29 30  1  0  0  0  0
 30 20  1  0  0  0  0
 31 29  2  0  0  0  0
 32 29  1  0  0  0  0
M  END
>  <MODEL>
3

>  <REMARK>
 VINA RESULT:      -8.0      1.485      1.844
  Name = 
  1 active torsions:
  status: ('A' for Active; 'I' for Inactive)
    1  A    between atoms: N_10  and  C_24
                            x       y       z     vdW  Elec       q    Type
                         _______ _______ _______ _____ _____    ______ ____

>  <TORSDO>
F 1

$$$$
=
 OpenBabel11062410373D

 32 38  0  0  1  0  0  0  0  0999 V2000
  157.5180  212.5350  154.0270 C   0  0  0  0  0  3  0  0  0  0  0  0
  161.0840  209.3850  152.2550 C   0  0  0  0  0  0  0  0  0  0  0  0
  162.9950  212.0100  148.6380 O   0  0  0  0  0  0  0  0  0  0  0  0
  161.9880  211.2540  148.0100 C   0  0  2  0  0  3  0  0  0  0  0  0
  161.4470  206.8810  151.8760 C   0  0  0  0  0  0  0  0  0  0  0  0
  161.3180  206.2220  153.1160 C   0  0  0  0  0  0  0  0  0  0  0  0
  159.6820  210.3510  153.9460 C   0  0  0  0  0  0  0  0  0  0  0  0
  160.5800  211.7790  152.0830 C   0  0  0  0  0  3  0  0  0  0  0  0
  161.2080  204.7900  150.6860 C   0  0  0  0  0  0  0  0  0  0  0  0
  158.4220  212.3040  153.0770 C   0  0  0  0  0  3  0  0  0  0  0  0
  161.7940  211.8550  149.3560 C   0  0  1  0  0  3  0  0  0  0  0  0
  161.1680  210.6930  151.5780 C   0  0  0  0  0  0  0  0  0  0  0  0
  161.9540  210.6880  150.3080 C   0  0  1  0  0  3  0  0  0  0  0  0
  162.2260  208.3500  150.2350 C   0  0  2  0  0  3  0  0  0  0  0  0
  160.9960  204.1290  151.9020 C   0  0  0  0  0  3  0  0  0  0  0  0
  158.3250  211.1280  155.9070 C   0  0  0  0  0  3  0  0  0  0  0  0
  159.7740  211.7390  153.3520 C   0  0  0  0  0  0  0  0  0  0  0  0
  161.0700  204.8400  153.1120 C   0  0  0  0  0  3  0  0  0  0  0  0
  159.0780  210.1340  155.1150 C   0  0  0  0  0  3  0  0  0  0  0  0
  157.6680  212.2120  155.4600 C   0  0  0  0  0  0  0  0  0  0  0  0
  162.2090  209.7660  148.2610 C   0  0  0  0  0  2  0  0  0  0  0  0
  161.6110  209.4960  149.5570 N   0  0  2  0  0  0  0  0  0  0  0  0
  161.8200  207.0280  149.5540 C   0  0  0  0  0  2  0  0  0  0  0  0
  160.3650  209.2510  153.3280 N   0  0  0  0  0  2  0  0  0  0  0  0
  161.6350  206.9940  154.6600 Cl  0  0  0  0  0  0  0  0  0  0  0  0
  161.1840  204.0840  149.4900 O   0  0  0  0  0  1  0  0  0  0  0  0
  161.7380  208.2540  151.6300 N   0  0  0  0  0  0  0  0  0  0  0  0
  161.4550  206.1630  150.7040 C   0  0  0  0  0  0  0  0  0  0  0  0
  155.6140  213.5680  156.2110 C   0  0  0  0  0  0  0  0  0  0  0  0
  156.9380  213.0400  156.3780 N   0  0  0  0  0  2  0  0  0  0  0  0
  154.9200  213.2880  155.1980 O   0  0  0  0  0  0  0  0  0  0  0  0
  155.0480  214.4530  157.2610 C   0  0  0  0  0  1  0  0  0  0  0  0
  1 20  1  0  0  0  0
  2 24  1  0  0  0  0
  4 21  1  1  0  0  0
  4  3  1  0  0  0  0
  4 11  1  0  0  0  0
  5  6  1  0  0  0  0
  6 25  1  0  0  0  0
  7 19  2  0  0  0  0
  8 17  2  0  0  0  0
  9 28  1  0  0  0  0
  9 15  2  0  0  0  0
 10 17  1  0  0  0  0
 10  1  2  0  0  0  0
 11  3  1  1  0  0  0
 11 13  1  0  0  0  0
 12  8  1  0  0  0  0
 12  2  2  0  0  0  0
 13 12  1  1  0  0  0
 14 23  1  6  0  0  0
 14 27  1  0  0  0  0
 15 18  1  0  0  0  0
 17  7  1  0  0  0  0
 18  6  2  0  0  0  0
 19 16  1  0  0  0  0
 20 16  2  0  0  0  0
 20 30  1  0  0  0  0
 22 21  1  6  0  0  0
 22 14  1  0  0  0  0
 22 13  1  0  0  0  0
 23 28  1  0  0  0  0
 24  7  1  0  0  0  0
 26  9  1  0  0  0  0
 27  5  1  0  0  0  0
 27  2  1  0  0  0  0
 28  5  2  0  0  0  0
 29 30  1  0  0  0  0
 29 32  1  0  0  0  0
 31 29  2  0  0  0  0
M  END
>  <MODEL>
4

>  <REMARK>
 VINA RESULT:      -7.8      2.891      8.601
  Name = 
  1 active torsions:
  status: ('A' for Active; 'I' for Inactive)
    1  A    between atoms: N_10  and  C_24
                            x       y       z     vdW  Elec       q    Type
                         _______ _______ _______ _____ _____    ______ ____

>  <TORSDO>
F 1

$$$$
