=
 OpenBabel11062408223D

 32 37  0  0  1  0  0  0  0  0999 V2000
  162.1460  207.4710  150.3880 C   0  0  2  0  0  3  0  0  0  0  0  0
  161.8850  209.8280  151.1460 C   0  0  2  0  0  3  0  0  0  0  0  0
  161.8880  206.0200  150.7860 C   0  0  0  0  0  2  0  0  0  0  0  0
  161.2980  208.4300  151.2200 C   0  0  2  0  0  3  0  0  0  0  0  0
  160.8820  210.7590  151.7720 C   0  0  0  0  0  0  0  0  0  0  0  0
  162.6340  213.6030  147.8660 C   0  0  0  0  0  2  0  0  0  0  0  0
  162.4220  210.2030  149.7390 C   0  0  1  0  0  3  0  0  0  0  0  0
  160.7250  213.6720  149.4770 C   0  0  0  0  0  2  0  0  0  0  0  0
  160.8620  212.1730  149.7230 C   0  0  2  0  0  3  0  0  0  0  0  0
  161.1290  208.0600  152.6690 C   0  0  0  0  0  0  0  0  0  0  0  0
  160.4420  211.8490  151.1260 C   0  0  0  0  0  3  0  0  0  0  0  0
  160.3800  209.0140  153.5700 C   0  0  0  0  0  2  0  0  0  0  0  0
  161.4660  206.8440  153.1230 C   0  0  0  0  0  3  0  0  0  0  0  0
  161.8080  209.3280  148.6300 C   0  0  0  0  0  2  0  0  0  0  0  0
  162.0080  207.8160  148.8780 C   0  0  2  0  0  3  0  0  0  0  0  0
  162.3020  211.7080  149.4750 C   0  0  2  0  0  3  0  0  0  0  0  0
  160.3660  210.4050  153.0760 N   0  0  0  0  0  0  0  0  0  0  0  0
  162.2060  205.8450  152.2690 C   0  0  0  0  0  2  0  0  0  0  0  0
  161.1800  214.0150  148.0620 C   0  0  0  0  0  2  0  0  0  0  0  0
  162.7880  212.0980  148.0780 C   0  0  0  0  0  2  0  0  0  0  0  0
  159.6890  211.3920  153.9090 C   0  0  0  0  0  2  0  0  0  0  0  0
  160.4280  211.5610  155.2250 C   0  0  0  0  0  1  0  0  0  0  0  0
  160.9180  207.0710  148.0870 C   0  0  2  0  0  3  0  0  0  0  0  0
  160.0930  206.2840  148.8960 O   0  0  0  0  0  1  0  0  0  0  0  0
  161.4070  206.3010  146.8500 C   0  0  2  0  0  3  0  0  0  0  0  0
  160.3320  206.0740  145.7990 C   0  0  0  0  0  1  0  0  0  0  0  0
  162.1930  205.0160  147.1590 C   0  0  2  0  0  3  0  0  0  0  0  0
  163.2670  204.7210  146.1250 C   0  0  0  0  0  1  0  0  0  0  0  0
  161.2770  203.8090  147.3040 C   0  0  0  0  0  2  0  0  0  0  0  0
  160.4430  202.8170  149.4030 C   0  0  0  0  0  2  0  0  0  0  0  0
  161.6620  202.9870  148.5190 C   0  0  0  0  0  3  0  0  0  0  0  0
  160.8840  201.6890  148.4950 C   0  0  0  0  0  2  0  0  0  0  0  0
  1  3  1  6  0  0  0
  1  4  1  0  0  0  0
  2  4  1  0  0  0  0
  2  5  1  6  0  0  0
  3 18  1  0  0  0  0
  4 10  1  1  0  0  0
  5 17  1  0  0  0  0
  6 19  1  0  0  0  0
  6 20  1  0  0  0  0
  7 14  1  6  0  0  0
  7  2  1  0  0  0  0
  9  8  1  1  0  0  0
  9 11  1  0  0  0  0
 10 13  2  0  0  0  0
 10 12  1  0  0  0  0
 11  5  2  0  0  0  0
 14 15  1  0  0  0  0
 15 23  1  1  0  0  0
 15  1  1  0  0  0  0
 16 20  1  6  0  0  0
 16  9  1  0  0  0  0
 16  7  1  0  0  0  0
 17 12  1  0  0  0  0
 17 21  1  0  0  0  0
 18 13  1  0  0  0  0
 19  8  1  0  0  0  0
 21 22  1  0  0  0  0
 23 24  1  1  0  0  0
 25 26  1  6  0  0  0
 25 27  1  0  0  0  0
 25 23  1  0  0  0  0
 27 28  1  6  0  0  0
 27 29  1  0  0  0  0
 29 31  1  0  0  0  0
 31 30  1  0  0  0  0
 32 31  1  0  0  0  0
 32 30  1  0  0  0  0
M  END
>  <MODEL>
1

>  <REMARK>
 VINA RESULT:      -8.5      0.000      0.000
  Name = 
  6 active torsions:
  status: ('A' for Active; 'I' for Inactive)
    1  A    between atoms: C_3  and  C_15
    2  A    between atoms: C_3  and  C_22
    3  A    between atoms: C_13  and  N_29
    4  A    between atoms: C_15  and  C_19
    5  A    between atoms: C_16  and  C_22
    6  A    between atoms: C_16  and  C_27
                            x       y       z     vdW  Elec       q    Type
                         _______ _______ _______ _____ _____    ______ ____

>  <TORSDO>
F 6

$$$$
=
 OpenBabel11062408223D

 32 37  0  0  1  0  0  0  0  0999 V2000
  162.0800  207.7020  151.2530 C   0  0  2  0  0  3  0  0  0  0  0  0
  161.6960  210.1460  151.5380 C   0  0  2  0  0  3  0  0  0  0  0  0
  161.8130  206.3380  151.8820 C   0  0  0  0  0  2  0  0  0  0  0  0
  161.1330  208.7620  151.8090 C   0  0  2  0  0  3  0  0  0  0  0  0
  160.6150  211.1340  151.8830 C   0  0  0  0  0  0  0  0  0  0  0  0
  162.6990  213.2950  147.7120 C   0  0  0  0  0  2  0  0  0  0  0  0
  162.3660  210.2810  150.1450 C   0  0  1  0  0  3  0  0  0  0  0  0
  160.6340  213.5790  149.0900 C   0  0  0  0  0  2  0  0  0  0  0  0
  160.7760  212.1550  149.6180 C   0  0  2  0  0  3  0  0  0  0  0  0
  160.8230  208.6530  153.2780 C   0  0  0  0  0  0  0  0  0  0  0  0
  160.2220  212.0730  151.0090 C   0  0  0  0  0  3  0  0  0  0  0  0
  159.9680  209.7240  153.9120 C   0  0  0  0  0  2  0  0  0  0  0  0
  161.1380  207.5520  153.9770 C   0  0  0  0  0  3  0  0  0  0  0  0
  161.8870  209.1980  149.1600 C   0  0  0  0  0  2  0  0  0  0  0  0
  162.0910  207.7650  149.6990 C   0  0  2  0  0  3  0  0  0  0  0  0
  162.2430  211.7090  149.6000 C   0  0  2  0  0  3  0  0  0  0  0  0
  159.9760  211.0010  153.1740 N   0  0  0  0  0  0  0  0  0  0  0  0
  161.9810  206.4440  153.3960 C   0  0  0  0  0  2  0  0  0  0  0  0
  161.2250  213.6790  147.6870 C   0  0  0  0  0  2  0  0  0  0  0  0
  162.8610  211.8600  148.2090 C   0  0  0  0  0  2  0  0  0  0  0  0
  159.1970  212.0950  153.7430 C   0  0  0  0  0  2  0  0  0  0  0  0
  157.8190  211.6010  154.1460 C   0  0  0  0  0  1  0  0  0  0  0  0
  161.1030  206.8480  148.9560 C   0  0  2  0  0  3  0  0  0  0  0  0
  159.9620  206.5460  149.7060 O   0  0  0  0  0  1  0  0  0  0  0  0
  161.7170  205.5910  148.3190 C   0  0  2  0  0  3  0  0  0  0  0  0
  162.0360  205.7400  146.8400 C   0  0  0  0  0  1  0  0  0  0  0  0
  160.9640  204.2830  148.6180 C   0  0  2  0  0  3  0  0  0  0  0  0
  161.0760  203.8600  150.0730 C   0  0  0  0  0  1  0  0  0  0  0  0
  161.4200  203.1450  147.7160 C   0  0  0  0  0  2  0  0  0  0  0  0
  160.9130  200.8800  146.8820 C   0  0  0  0  0  2  0  0  0  0  0  0
  160.5620  201.9130  147.9340 C   0  0  0  0  0  3  0  0  0  0  0  0
  161.4630  200.7490  148.2870 C   0  0  0  0  0  2  0  0  0  0  0  0
  1  4  1  0  0  0  0
  1  3  1  6  0  0  0
  2  4  1  0  0  0  0
  2  5  1  6  0  0  0
  3 18  1  0  0  0  0
  4 10  1  1  0  0  0
  5 17  1  0  0  0  0
  6 20  1  0  0  0  0
  7 14  1  6  0  0  0
  7  2  1  0  0  0  0
  9  8  1  1  0  0  0
  9 11  1  0  0  0  0
 10 12  1  0  0  0  0
 10 13  2  0  0  0  0
 11  5  2  0  0  0  0
 14 15  1  0  0  0  0
 15 23  1  6  0  0  0
 15  1  1  0  0  0  0
 16 20  1  6  0  0  0
 16  9  1  0  0  0  0
 16  7  1  0  0  0  0
 17 21  1  0  0  0  0
 17 12  1  0  0  0  0
 18 13  1  0  0  0  0
 19  6  1  0  0  0  0
 19  8  1  0  0  0  0
 21 22  1  0  0  0  0
 23 24  1  1  0  0  0
 25 26  1  6  0  0  0
 25 27  1  0  0  0  0
 25 23  1  0  0  0  0
 27 28  1  1  0  0  0
 29 31  1  0  0  0  0
 29 27  1  0  0  0  0
 30 31  1  0  0  0  0
 30 32  1  0  0  0  0
 31 32  1  0  0  0  0
M  END
>  <MODEL>
2

>  <REMARK>
 VINA RESULT:      -7.7      0.905      1.453
  Name = 
  6 active torsions:
  status: ('A' for Active; 'I' for Inactive)
    1  A    between atoms: C_3  and  C_15
    2  A    between atoms: C_3  and  C_22
    3  A    between atoms: C_13  and  N_29
    4  A    between atoms: C_15  and  C_19
    5  A    between atoms: C_16  and  C_22
    6  A    between atoms: C_16  and  C_27
                            x       y       z     vdW  Elec       q    Type
                         _______ _______ _______ _____ _____    ______ ____

>  <TORSDO>
F 6

$$$$
=
 OpenBabel11062408223D

 32 37  0  0  1  0  0  0  0  0999 V2000
  161.3190  209.3620  154.5140 C   0  0  2  0  0  3  0  0  0  0  0  0
  160.0000  211.4600  154.2690 C   0  0  2  0  0  3  0  0  0  0  0  0
  161.5930  208.1890  155.4500 C   0  0  0  0  0  2  0  0  0  0  0  0
  160.0180  210.0710  154.8820 C   0  0  2  0  0  3  0  0  0  0  0  0
  158.6090  212.0030  154.4570 C   0  0  0  0  0  0  0  0  0  0  0  0
  159.7820  213.7620  149.7720 C   0  0  0  0  0  2  0  0  0  0  0  0
  160.5980  211.5150  152.8370 C   0  0  1  0  0  3  0  0  0  0  0  0
  157.7380  213.5390  151.1920 C   0  0  0  0  0  2  0  0  0  0  0  0
  158.4140  212.4470  152.0150 C   0  0  2  0  0  3  0  0  0  0  0  0
  159.7390  210.1970  156.3560 C   0  0  0  0  0  0  0  0  0  0  0  0
  157.9010  212.4840  153.4230 C   0  0  0  0  0  3  0  0  0  0  0  0
  158.5170  210.9690  156.7910 C   0  0  0  0  0  2  0  0  0  0  0  0
  160.4430  209.5000  157.2610 C   0  0  0  0  0  3  0  0  0  0  0  0
  160.6060  210.1320  152.1570 C   0  0  0  0  0  2  0  0  0  0  0  0
  161.3430  209.0590  152.9890 C   0  0  2  0  0  3  0  0  0  0  0  0
  159.9380  212.6130  151.9960 C   0  0  2  0  0  3  0  0  0  0  0  0
  158.0410  211.9390  155.7850 N   0  0  0  0  0  0  0  0  0  0  0  0
  161.6670  208.7030  156.8870 C   0  0  0  0  0  2  0  0  0  0  0  0
  158.2760  213.5290  149.7640 C   0  0  0  0  0  2  0  0  0  0  0  0
  160.4810  212.6620  150.5670 C   0  0  0  0  0  2  0  0  0  0  0  0
  156.8820  212.7460  156.1470 C   0  0  0  0  0  2  0  0  0  0  0  0
  155.7530  211.8530  156.6300 C   0  0  0  0  0  1  0  0  0  0  0  0
  160.8130  207.6850  152.5400 C   0  0  2  0  0  3  0  0  0  0  0  0
  160.5850  206.8100  153.6060 O   0  0  0  0  0  1  0  0  0  0  0  0
  161.6000  207.0100  151.4060 C   0  0  2  0  0  3  0  0  0  0  0  0
  162.5690  207.9360  150.6890 C   0  0  0  0  0  1  0  0  0  0  0  0
  160.7440  206.1960  150.4210 C   0  0  2  0  0  3  0  0  0  0  0  0
  161.1140  204.7230  150.3990 C   0  0  0  0  0  1  0  0  0  0  0  0
  160.8060  206.7620  149.0100 C   0  0  0  0  0  2  0  0  0  0  0  0
  160.7750  206.2490  146.5980 C   0  0  0  0  0  2  0  0  0  0  0  0
  160.8370  205.6440  147.9850 C   0  0  0  0  0  3  0  0  0  0  0  0
  162.0990  205.7750  147.1590 C   0  0  0  0  0  2  0  0  0  0  0  0
  1  4  1  0  0  0  0
  1  3  1  1  0  0  0
  2  5  1  6  0  0  0
  2  4  1  0  0  0  0
  3 18  1  0  0  0  0
  4 10  1  1  0  0  0
  5 17  1  0  0  0  0
  6 20  1  0  0  0  0
  7 14  1  6  0  0  0
  7  2  1  0  0  0  0
  9  8  1  6  0  0  0
  9 11  1  0  0  0  0
 10 12  1  0  0  0  0
 10 13  2  0  0  0  0
 11  5  2  0  0  0  0
 14 15  1  0  0  0  0
 15 23  1  1  0  0  0
 15  1  1  0  0  0  0
 16 20  1  6  0  0  0
 16  9  1  0  0  0  0
 16  7  1  0  0  0  0
 17 21  1  0  0  0  0
 17 12  1  0  0  0  0
 18 13  1  0  0  0  0
 19  6  1  0  0  0  0
 19  8  1  0  0  0  0
 21 22  1  0  0  0  0
 23 24  1  1  0  0  0
 25 26  1  6  0  0  0
 25 23  1  0  0  0  0
 27 28  1  6  0  0  0
 27 25  1  0  0  0  0
 29 27  1  0  0  0  0
 30 32  1  0  0  0  0
 30 31  1  0  0  0  0
 31 29  1  0  0  0  0
 32 31  1  0  0  0  0
M  END
>  <MODEL>
3

>  <REMARK>
 VINA RESULT:      -7.1      2.251      4.208
  Name = 
  6 active torsions:
  status: ('A' for Active; 'I' for Inactive)
    1  A    between atoms: C_3  and  C_15
    2  A    between atoms: C_3  and  C_22
    3  A    between atoms: C_13  and  N_29
    4  A    between atoms: C_15  and  C_19
    5  A    between atoms: C_16  and  C_22
    6  A    between atoms: C_16  and  C_27
                            x       y       z     vdW  Elec       q    Type
                         _______ _______ _______ _____ _____    ______ ____

>  <TORSDO>
F 6

$$$$
=
 OpenBabel11062408223D

 32 37  0  0  1  0  0  0  0  0999 V2000
  160.6900  207.8520  151.3050 C   0  0  2  0  0  3  0  0  0  0  0  0
  160.5900  205.6910  150.0720 C   0  0  2  0  0  3  0  0  0  0  0  0
  160.9530  208.4710  152.6750 C   0  0  0  0  0  2  0  0  0  0  0  0
  161.2460  206.4330  151.2230 C   0  0  2  0  0  3  0  0  0  0  0  0
  161.3470  204.4030  149.8930 C   0  0  0  0  0  0  0  0  0  0  0  0
  160.3570  205.7050  145.0210 C   0  0  0  0  0  2  0  0  0  0  0  0
  160.3730  206.5700  148.8110 C   0  0  1  0  0  3  0  0  0  0  0  0
  161.8240  204.0810  146.2260 C   0  0  0  0  0  2  0  0  0  0  0  0
  161.7430  204.9280  147.4920 C   0  0  2  0  0  3  0  0  0  0  0  0
  161.0960  205.6030  152.4710 C   0  0  0  0  0  0  0  0  0  0  0  0
  161.8450  204.0450  148.7000 C   0  0  0  0  0  3  0  0  0  0  0  0
  161.5400  204.1600  152.4290 C   0  0  0  0  0  2  0  0  0  0  0  0
  160.7520  206.1590  153.6420 C   0  0  0  0  0  3  0  0  0  0  0  0
  161.2930  207.8050  148.7970 C   0  0  0  0  0  2  0  0  0  0  0  0
  161.1520  208.6730  150.0670 C   0  0  2  0  0  3  0  0  0  0  0  0
  160.4400  205.7350  147.5270 C   0  0  2  0  0  3  0  0  0  0  0  0
  161.5670  203.5890  151.0680 N   0  0  0  0  0  0  0  0  0  0  0  0
  160.3100  207.5970  153.7490 C   0  0  0  0  0  2  0  0  0  0  0  0
  161.6900  204.9670  144.9920 C   0  0  0  0  0  2  0  0  0  0  0  0
  160.2690  206.5840  146.2670 C   0  0  0  0  0  2  0  0  0  0  0  0
  161.9550  202.1890  150.9500 C   0  0  0  0  0  2  0  0  0  0  0  0
  160.8250  201.3820  150.3340 C   0  0  0  0  0  1  0  0  0  0  0  0
  162.4490  209.4880  150.2140 C   0  0  2  0  0  3  0  0  0  0  0  0
  163.0830  209.2960  151.4450 O   0  0  0  0  0  1  0  0  0  0  0  0
  162.3390  210.9800  149.8560 C   0  0  2  0  0  3  0  0  0  0  0  0
  161.2200  211.7080  150.5840 C   0  0  0  0  0  1  0  0  0  0  0  0
  162.3400  211.2840  148.3490 C   0  0  2  0  0  3  0  0  0  0  0  0
  163.3970  212.3020  147.9560 C   0  0  0  0  0  1  0  0  0  0  0  0
  160.9760  211.7460  147.8600 C   0  0  0  0  0  2  0  0  0  0  0  0
  160.0450  212.4230  145.6780 C   0  0  0  0  0  2  0  0  0  0  0  0
  161.1220  212.7160  146.7020 C   0  0  0  0  0  3  0  0  0  0  0  0
  159.8840  213.5840  146.6350 C   0  0  0  0  0  2  0  0  0  0  0  0
  1  3  1  1  0  0  0
  2  5  1  6  0  0  0
  2  4  1  0  0  0  0
  3 18  1  0  0  0  0
  4  1  1  0  0  0  0
  4 10  1  1  0  0  0
  5 17  1  0  0  0  0
  6 20  1  0  0  0  0
  7 14  1  6  0  0  0
  7  2  1  0  0  0  0
  9  8  1  6  0  0  0
  9 16  1  0  0  0  0
  9 11  1  0  0  0  0
 10 13  2  0  0  0  0
 11  5  2  0  0  0  0
 12 10  1  0  0  0  0
 13 18  1  0  0  0  0
 14 15  1  0  0  0  0
 15 23  1  1  0  0  0
 15  1  1  0  0  0  0
 16 20  1  6  0  0  0
 16  7  1  0  0  0  0
 17 12  1  0  0  0  0
 19  6  1  0  0  0  0
 19  8  1  0  0  0  0
 21 17  1  0  0  0  0
 22 21  1  0  0  0  0
 23 24  1  1  0  0  0
 25 23  1  0  0  0  0
 25 26  1  6  0  0  0
 27 28  1  1  0  0  0
 27 25  1  0  0  0  0
 29 27  1  0  0  0  0
 30 32  1  0  0  0  0
 30 31  1  0  0  0  0
 31 29  1  0  0  0  0
 32 31  1  0  0  0  0
M  END
>  <MODEL>
4

>  <REMARK>
 VINA RESULT:      -6.5      2.163      6.953
  Name = 
  6 active torsions:
  status: ('A' for Active; 'I' for Inactive)
    1  A    between atoms: C_3  and  C_15
    2  A    between atoms: C_3  and  C_22
    3  A    between atoms: C_13  and  N_29
    4  A    between atoms: C_15  and  C_19
    5  A    between atoms: C_16  and  C_22
    6  A    between atoms: C_16  and  C_27
                            x       y       z     vdW  Elec       q    Type
                         _______ _______ _______ _____ _____    ______ ____

>  <TORSDO>
F 6

$$$$
=
 OpenBabel11062408223D

 32 37  0  0  1  0  0  0  0  0999 V2000
  161.9130  207.1880  151.2500 C   0  0  2  0  0  3  0  0  0  0  0  0
  161.7820  209.6450  151.6350 C   0  0  2  0  0  3  0  0  0  0  0  0
  161.5770  205.8320  151.8630 C   0  0  0  0  0  2  0  0  0  0  0  0
  161.1200  208.3090  151.9170 C   0  0  2  0  0  3  0  0  0  0  0  0
  160.8310  210.7130  152.1030 C   0  0  0  0  0  0  0  0  0  0  0  0
  162.7320  212.8250  147.8190 C   0  0  0  0  0  2  0  0  0  0  0  0
  162.3380  209.7690  150.1900 C   0  0  1  0  0  3  0  0  0  0  0  0
  160.8310  213.2430  149.3860 C   0  0  0  0  0  2  0  0  0  0  0  0
  160.8870  211.7950  149.8610 C   0  0  2  0  0  3  0  0  0  0  0  0
  160.9320  208.1760  153.4050 C   0  0  0  0  0  0  0  0  0  0  0  0
  160.4510  211.7140  151.2930 C   0  0  0  0  0  3  0  0  0  0  0  0
  160.2380  209.2960  154.1430 C   0  0  0  0  0  2  0  0  0  0  0  0
  161.2040  207.0270  154.0430 C   0  0  0  0  0  3  0  0  0  0  0  0
  161.6750  208.7690  149.2240 C   0  0  0  0  0  2  0  0  0  0  0  0
  161.7930  207.3050  149.7030 C   0  0  2  0  0  3  0  0  0  0  0  0
  162.2990  211.2200  149.6980 C   0  0  2  0  0  3  0  0  0  0  0  0
  160.2990  210.5930  153.4410 N   0  0  0  0  0  0  0  0  0  0  0  0
  161.8870  205.8700  153.3580 C   0  0  0  0  0  2  0  0  0  0  0  0
  161.3030  213.3400  147.9390 C   0  0  0  0  0  2  0  0  0  0  0  0
  162.8040  211.3650  148.2610 C   0  0  0  0  0  2  0  0  0  0  0  0
  159.6770  211.7310  154.1080 C   0  0  0  0  0  2  0  0  0  0  0  0
  158.1950  211.4710  154.3140 C   0  0  0  0  0  1  0  0  0  0  0  0
  160.6640  206.5070  149.0280 C   0  0  2  0  0  3  0  0  0  0  0  0
  159.4880  206.4710  149.7840 O   0  0  0  0  0  1  0  0  0  0  0  0
  161.0540  205.1120  148.5130 C   0  0  2  0  0  3  0  0  0  0  0  0
  161.4040  204.1230  149.6130 C   0  0  0  0  0  1  0  0  0  0  0  0
  162.0960  205.1090  147.3820 C   0  0  2  0  0  3  0  0  0  0  0  0
  161.8560  206.2080  146.3600 C   0  0  0  0  0  1  0  0  0  0  0  0
  162.1700  203.7620  146.6780 C   0  0  0  0  0  2  0  0  0  0  0  0
  160.8310  202.1270  145.4070 C   0  0  0  0  0  2  0  0  0  0  0  0
  160.7830  203.1720  146.5020 C   0  0  0  0  0  3  0  0  0  0  0  0
  160.8310  201.7020  146.8600 C   0  0  0  0  0  2  0  0  0  0  0  0
  1  3  1  1  0  0  0
  1  4  1  0  0  0  0
  2  4  1  0  0  0  0
  2  5  1  6  0  0  0
  3 18  1  0  0  0  0
  4 10  1  1  0  0  0
  5 17  1  0  0  0  0
  6 19  1  0  0  0  0
  6 20  1  0  0  0  0
  7 14  1  6  0  0  0
  7  2  1  0  0  0  0
  9  8  1  1  0  0  0
  9 11  1  0  0  0  0
 10 13  2  0  0  0  0
 10 12  1  0  0  0  0
 11  5  2  0  0  0  0
 14 15  1  0  0  0  0
 15 23  1  1  0  0  0
 15  1  1  0  0  0  0
 16 20  1  6  0  0  0
 16  9  1  0  0  0  0
 16  7  1  0  0  0  0
 17 21  1  0  0  0  0
 17 12  1  0  0  0  0
 18 13  1  0  0  0  0
 19  8  1  0  0  0  0
 21 22  1  0  0  0  0
 23 24  1  1  0  0  0
 25 23  1  0  0  0  0
 25 26  1  1  0  0  0
 27 28  1  6  0  0  0
 27 25  1  0  0  0  0
 29 27  1  0  0  0  0
 30 31  1  0  0  0  0
 30 32  1  0  0  0  0
 31 29  1  0  0  0  0
 31 32  1  0  0  0  0
M  END
>  <MODEL>
5

>  <REMARK>
 VINA RESULT:      -6.4      1.012      1.509
  Name = 
  6 active torsions:
  status: ('A' for Active; 'I' for Inactive)
    1  A    between atoms: C_3  and  C_15
    2  A    between atoms: C_3  and  C_22
    3  A    between atoms: C_13  and  N_29
    4  A    between atoms: C_15  and  C_19
    5  A    between atoms: C_16  and  C_22
    6  A    between atoms: C_16  and  C_27
                            x       y       z     vdW  Elec       q    Type
                         _______ _______ _______ _____ _____    ______ ____

>  <TORSDO>
F 6

$$$$
=
 OpenBabel11062408223D

 32 37  0  0  1  0  0  0  0  0999 V2000
  161.5710  208.8410  152.3750 C   0  0  2  0  0  3  0  0  0  0  0  0
  161.1040  211.2110  151.7740 C   0  0  2  0  0  3  0  0  0  0  0  0
  161.2200  207.7360  153.3680 C   0  0  0  0  0  2  0  0  0  0  0  0
  160.5240  209.9520  152.3920 C   0  0  2  0  0  3  0  0  0  0  0  0
  159.9640  212.1780  151.5970 C   0  0  0  0  0  0  0  0  0  0  0  0
  162.7070  213.0230  147.3330 C   0  0  0  0  0  2  0  0  0  0  0  0
  162.0040  210.9390  150.5390 C   0  0  1  0  0  3  0  0  0  0  0  0
  160.4300  213.5870  148.1940 C   0  0  0  0  0  2  0  0  0  0  0  0
  160.5000  212.4230  149.1780 C   0  0  2  0  0  3  0  0  0  0  0  0
  159.9660  210.3000  153.7470 C   0  0  0  0  0  0  0  0  0  0  0  0
  159.7140  212.7540  150.4110 C   0  0  0  0  0  3  0  0  0  0  0  0
  158.9970  211.4540  153.8480 C   0  0  0  0  0  2  0  0  0  0  0  0
  160.1720  209.5090  154.8100 C   0  0  0  0  0  3  0  0  0  0  0  0
  161.7200  209.5640  149.9030 C   0  0  0  0  0  2  0  0  0  0  0  0
  161.8500  208.4000  150.9100 C   0  0  2  0  0  3  0  0  0  0  0  0
  161.9550  212.1020  149.5420 C   0  0  2  0  0  3  0  0  0  0  0  0
  159.1130  212.4220  152.7400 N   0  0  0  0  0  0  0  0  0  0  0  0
  161.1210  208.3370  154.7690 C   0  0  0  0  0  2  0  0  0  0  0  0
  161.2530  213.2720  146.9490 C   0  0  0  0  0  2  0  0  0  0  0  0
  162.8020  211.8410  148.2950 C   0  0  0  0  0  2  0  0  0  0  0  0
  158.2300  213.5820  152.7860 C   0  0  0  0  0  2  0  0  0  0  0  0
  158.5720  214.4530  153.9810 C   0  0  0  0  0  1  0  0  0  0  0  0
  161.0210  207.2240  150.3640 C   0  0  2  0  0  3  0  0  0  0  0  0
  160.4970  206.4070  151.3700 O   0  0  0  0  0  1  0  0  0  0  0  0
  161.6910  206.4010  149.2520 C   0  0  2  0  0  3  0  0  0  0  0  0
  162.3170  207.2430  148.1520 C   0  0  0  0  0  1  0  0  0  0  0  0
  160.8310  205.2600  148.6850 C   0  0  2  0  0  3  0  0  0  0  0  0
  161.2060  203.9020  149.2560 C   0  0  0  0  0  1  0  0  0  0  0  0
  160.8810  205.2090  147.1650 C   0  0  0  0  0  2  0  0  0  0  0  0
  161.3100  203.7500  145.2230 C   0  0  0  0  0  2  0  0  0  0  0  0
  161.6040  203.9610  146.6940 C   0  0  0  0  0  3  0  0  0  0  0  0
  162.6300  204.3560  145.6540 C   0  0  0  0  0  2  0  0  0  0  0  0
  1  4  1  0  0  0  0
  1  3  1  1  0  0  0
  2  5  1  6  0  0  0
  2  4  1  0  0  0  0
  3 18  1  0  0  0  0
  4 10  1  1  0  0  0
  5 17  1  0  0  0  0
  6 20  1  0  0  0  0
  7 14  1  6  0  0  0
  7  2  1  0  0  0  0
  9  8  1  6  0  0  0
  9 16  1  0  0  0  0
  9 11  1  0  0  0  0
 10 12  1  0  0  0  0
 10 13  2  0  0  0  0
 11  5  2  0  0  0  0
 14 15  1  0  0  0  0
 15 23  1  6  0  0  0
 15  1  1  0  0  0  0
 16 20  1  6  0  0  0
 16  7  1  0  0  0  0
 17 21  1  0  0  0  0
 17 12  1  0  0  0  0
 18 13  1  0  0  0  0
 19  6  1  0  0  0  0
 19  8  1  0  0  0  0
 21 22  1  0  0  0  0
 23 24  1  1  0  0  0
 25 26  1  6  0  0  0
 25 23  1  0  0  0  0
 27 25  1  0  0  0  0
 27 28  1  1  0  0  0
 29 27  1  0  0  0  0
 30 32  1  0  0  0  0
 30 31  1  0  0  0  0
 31 29  1  0  0  0  0
 32 31  1  0  0  0  0
M  END
>  <MODEL>
6

>  <REMARK>
 VINA RESULT:      -6.1      1.435      2.498
  Name = 
  6 active torsions:
  status: ('A' for Active; 'I' for Inactive)
    1  A    between atoms: C_3  and  C_15
    2  A    between atoms: C_3  and  C_22
    3  A    between atoms: C_13  and  N_29
    4  A    between atoms: C_15  and  C_19
    5  A    between atoms: C_16  and  C_22
    6  A    between atoms: C_16  and  C_27
                            x       y       z     vdW  Elec       q    Type
                         _______ _______ _______ _____ _____    ______ ____

>  <TORSDO>
F 6

$$$$
=
 OpenBabel11062408223D

 32 37  0  0  1  0  0  0  0  0999 V2000
  160.7470  212.5660  151.1050 C   0  0  2  0  0  3  0  0  0  0  0  0
  161.7100  210.3110  151.5330 C   0  0  2  0  0  3  0  0  0  0  0  0
  160.4090  213.5660  150.0020 C   0  0  0  0  0  2  0  0  0  0  0  0
  160.9440  211.1630  150.5370 C   0  0  2  0  0  3  0  0  0  0  0  0
  161.6570  208.8940  151.0300 C   0  0  0  0  0  0  0  0  0  0  0  0
  161.2030  208.2050  156.1020 C   0  0  0  0  0  2  0  0  0  0  0  0
  161.2960  210.5570  153.0090 C   0  0  1  0  0  3  0  0  0  0  0  0
  160.8930  206.8450  154.0290 C   0  0  0  0  0  2  0  0  0  0  0  0
  160.7270  208.1170  153.2050 C   0  0  2  0  0  3  0  0  0  0  0  0
  161.6490  211.0920  149.2090 C   0  0  0  0  0  0  0  0  0  0  0  0
  161.2350  207.8890  151.8130 C   0  0  0  0  0  3  0  0  0  0  0  0
  161.9610  209.7300  148.6350 C   0  0  0  0  0  2  0  0  0  0  0  0
  161.8390  212.1880  148.4600 C   0  0  0  0  0  3  0  0  0  0  0  0
  159.9000  211.1990  153.1220 C   0  0  0  0  0  2  0  0  0  0  0  0
  159.7770  212.5130  152.3200 C   0  0  2  0  0  3  0  0  0  0  0  0
  161.4650  209.2920  153.8580 C   0  0  2  0  0  3  0  0  0  0  0  0
  162.0260  208.6610  149.6510 N   0  0  0  0  0  0  0  0  0  0  0  0
  161.5380  213.5740  148.9740 C   0  0  0  0  0  2  0  0  0  0  0  0
  160.4070  207.0770  155.4570 C   0  0  0  0  0  2  0  0  0  0  0  0
  161.0250  209.4970  155.3090 C   0  0  0  0  0  2  0  0  0  0  0  0
  162.3540  207.3220  149.1760 C   0  0  0  0  0  2  0  0  0  0  0  0
  161.3400  206.8710  148.1400 C   0  0  0  0  0  1  0  0  0  0  0  0
  158.2820  212.7390  152.0320 C   0  0  2  0  0  3  0  0  0  0  0  0
  158.0100  212.9590  150.6790 O   0  0  0  0  0  1  0  0  0  0  0  0
  157.5830  213.7720  152.9300 C   0  0  2  0  0  3  0  0  0  0  0  0
  158.5080  214.4500  153.9270 C   0  0  0  0  0  1  0  0  0  0  0  0
  156.2850  213.2790  153.5910 C   0  0  2  0  0  3  0  0  0  0  0  0
  155.0720  214.1020  153.1900 C   0  0  0  0  0  1  0  0  0  0  0  0
  156.3970  213.2380  155.1080 C   0  0  0  0  0  2  0  0  0  0  0  0
  157.8950  211.6490  156.2530 C   0  0  0  0  0  2  0  0  0  0  0  0
  156.5400  211.8090  155.5970 C   0  0  0  0  0  3  0  0  0  0  0  0
  156.6560  211.8200  157.1060 C   0  0  0  0  0  2  0  0  0  0  0  0
  1  3  1  6  0  0  0
  1 15  1  0  0  0  0
  2  5  1  6  0  0  0
  2  7  1  0  0  0  0
  4 10  1  6  0  0  0
  4  1  1  0  0  0  0
  4  2  1  0  0  0  0
  5 11  2  0  0  0  0
  7 14  1  6  0  0  0
  7 16  1  0  0  0  0
  8 19  1  0  0  0  0
  9 11  1  6  0  0  0
  9 16  1  0  0  0  0
  9  8  1  0  0  0  0
 12 10  1  0  0  0  0
 12 17  1  0  0  0  0
 13 18  1  0  0  0  0
 13 10  2  0  0  0  0
 15 23  1  6  0  0  0
 15 14  1  0  0  0  0
 16 20  1  1  0  0  0
 17  5  1  0  0  0  0
 18  3  1  0  0  0  0
 19  6  1  0  0  0  0
 20  6  1  0  0  0  0
 21 17  1  0  0  0  0
 22 21  1  0  0  0  0
 23 24  1  6  0  0  0
 23 25  1  0  0  0  0
 25 27  1  0  0  0  0
 25 26  1  1  0  0  0
 27 28  1  1  0  0  0
 27 29  1  0  0  0  0
 29 31  1  0  0  0  0
 30 32  1  0  0  0  0
 31 30  1  0  0  0  0
 31 32  1  0  0  0  0
M  END
>  <MODEL>
7

>  <REMARK>
 VINA RESULT:      -6.1      2.675      8.379
  Name = 
  6 active torsions:
  status: ('A' for Active; 'I' for Inactive)
    1  A    between atoms: C_3  and  C_15
    2  A    between atoms: C_3  and  C_22
    3  A    between atoms: C_13  and  N_29
    4  A    between atoms: C_15  and  C_19
    5  A    between atoms: C_16  and  C_22
    6  A    between atoms: C_16  and  C_27
                            x       y       z     vdW  Elec       q    Type
                         _______ _______ _______ _____ _____    ______ ____

>  <TORSDO>
F 6

$$$$
=
 OpenBabel11062408223D

 32 37  0  0  1  0  0  0  0  0999 V2000
  162.1540  207.9540  152.0220 C   0  0  2  0  0  3  0  0  0  0  0  0
  162.0640  206.2950  150.1670 C   0  0  2  0  0  3  0  0  0  0  0  0
  162.0660  209.4440  152.3380 C   0  0  0  0  0  2  0  0  0  0  0  0
  161.5640  207.6450  150.6480 C   0  0  2  0  0  3  0  0  0  0  0  0
  161.2650  205.9420  148.9420 C   0  0  0  0  0  0  0  0  0  0  0  0
  161.7050  201.3670  151.2410 C   0  0  0  0  0  2  0  0  0  0  0  0
  162.1510  205.2280  151.2920 C   0  0  1  0  0  3  0  0  0  0  0  0
  160.3560  202.3710  149.3940 C   0  0  0  0  0  2  0  0  0  0  0  0
  160.6010  203.7670  149.9570 C   0  0  2  0  0  3  0  0  0  0  0  0
  161.8410  208.6650  149.5760 C   0  0  0  0  0  0  0  0  0  0  0  0
  160.6240  204.7680  148.8400 C   0  0  0  0  0  3  0  0  0  0  0  0
  161.3660  208.3760  148.1720 C   0  0  0  0  0  2  0  0  0  0  0  0
  162.3310  209.8770  149.8760 C   0  0  0  0  0  3  0  0  0  0  0  0
  161.2610  205.5810  152.4990 C   0  0  0  0  0  2  0  0  0  0  0  0
  161.5670  206.9790  153.0810 C   0  0  2  0  0  3  0  0  0  0  0  0
  161.9160  203.8160  150.7450 C   0  0  2  0  0  3  0  0  0  0  0  0
  161.1680  206.9390  147.8990 N   0  0  0  0  0  0  0  0  0  0  0  0
  162.8130  210.2290  151.2610 C   0  0  0  0  0  2  0  0  0  0  0  0
  160.3630  201.3420  150.5200 C   0  0  0  0  0  2  0  0  0  0  0  0
  161.9560  202.7490  151.8400 C   0  0  0  0  0  2  0  0  0  0  0  0
  160.7390  206.5780  146.5520 C   0  0  0  0  0  2  0  0  0  0  0  0
  161.8480  205.8280  145.8340 C   0  0  0  0  0  1  0  0  0  0  0  0
  160.3130  207.4460  153.8420 C   0  0  2  0  0  3  0  0  0  0  0  0
  159.7480  208.6080  153.3090 O   0  0  0  0  0  1  0  0  0  0  0  0
  160.4590  207.5310  155.3700 C   0  0  2  0  0  3  0  0  0  0  0  0
  159.2800  206.9540  156.1370 C   0  0  0  0  0  1  0  0  0  0  0  0
  160.8720  208.9130  155.9030 C   0  0  2  0  0  3  0  0  0  0  0  0
  162.0390  208.8440  156.8740 C   0  0  0  0  0  1  0  0  0  0  0  0
  159.7070  209.6450  156.5530 C   0  0  0  0  0  2  0  0  0  0  0  0
  158.0280  211.0280  155.3890 C   0  0  0  0  0  2  0  0  0  0  0  0
  159.4640  210.9780  155.8710 C   0  0  0  0  0  3  0  0  0  0  0  0
  158.4260  211.7470  156.6610 C   0  0  0  0  0  2  0  0  0  0  0  0
  1  3  1  1  0  0  0
  1 15  1  0  0  0  0
  2  5  1  6  0  0  0
  2  4  1  0  0  0  0
  2  7  1  0  0  0  0
  4 10  1  6  0  0  0
  4  1  1  0  0  0  0
  6 20  1  0  0  0  0
  7 14  1  1  0  0  0
  8  9  1  0  0  0  0
  8 19  1  0  0  0  0
  9 11  1  6  0  0  0
  9 16  1  0  0  0  0
 10 13  2  0  0  0  0
 11  5  2  0  0  0  0
 12 10  1  0  0  0  0
 13 18  1  0  0  0  0
 14 15  1  0  0  0  0
 15 23  1  6  0  0  0
 16  7  1  0  0  0  0
 16 20  1  1  0  0  0
 17 12  1  0  0  0  0
 17  5  1  0  0  0  0
 18  3  1  0  0  0  0
 19  6  1  0  0  0  0
 21 17  1  0  0  0  0
 22 21  1  0  0  0  0
 23 24  1  6  0  0  0
 23 25  1  0  0  0  0
 25 27  1  0  0  0  0
 25 26  1  1  0  0  0
 27 29  1  0  0  0  0
 27 28  1  1  0  0  0
 30 31  1  0  0  0  0
 30 32  1  0  0  0  0
 31 29  1  0  0  0  0
 31 32  1  0  0  0  0
M  END
>  <MODEL>
8

>  <REMARK>
 VINA RESULT:      -5.9      2.415      8.307
  Name = 
  6 active torsions:
  status: ('A' for Active; 'I' for Inactive)
    1  A    between atoms: C_3  and  C_15
    2  A    between atoms: C_3  and  C_22
    3  A    between atoms: C_13  and  N_29
    4  A    between atoms: C_15  and  C_19
    5  A    between atoms: C_16  and  C_22
    6  A    between atoms: C_16  and  C_27
                            x       y       z     vdW  Elec       q    Type
                         _______ _______ _______ _____ _____    ______ ____

>  <TORSDO>
F 6

$$$$
=
 OpenBabel11062408223D

 32 37  0  0  1  0  0  0  0  0999 V2000
  160.6610  207.0690  151.4240 C   0  0  2  0  0  3  0  0  0  0  0  0
  160.4980  205.1200  149.8830 C   0  0  2  0  0  3  0  0  0  0  0  0
  160.9100  207.4650  152.8770 C   0  0  0  0  0  2  0  0  0  0  0  0
  161.1520  205.6500  151.1460 C   0  0  2  0  0  3  0  0  0  0  0  0
  161.2000  203.8350  149.5330 C   0  0  0  0  0  0  0  0  0  0  0  0
  160.4220  205.8880  144.8860 C   0  0  0  0  0  2  0  0  0  0  0  0
  160.3610  206.1850  148.7610 C   0  0  1  0  0  3  0  0  0  0  0  0
  161.7730  204.0320  145.8710 C   0  0  0  0  0  2  0  0  0  0  0  0
  161.6940  204.6860  147.2460 C   0  0  2  0  0  3  0  0  0  0  0  0
  160.9250  204.6550  152.2530 C   0  0  0  0  0  0  0  0  0  0  0  0
  161.7170  203.6320  148.3110 C   0  0  0  0  0  3  0  0  0  0  0  0
  161.3020  203.2130  152.0080 C   0  0  0  0  0  2  0  0  0  0  0  0
  160.5710  205.0490  153.4850 C   0  0  0  0  0  3  0  0  0  0  0  0
  161.3380  207.3600  148.9520 C   0  0  0  0  0  2  0  0  0  0  0  0
  161.1990  208.0370  150.3330 C   0  0  2  0  0  3  0  0  0  0  0  0
  160.4290  205.5450  147.3700 C   0  0  2  0  0  3  0  0  0  0  0  0
  161.3440  202.8480  150.5790 N   0  0  0  0  0  0  0  0  0  0  0  0
  160.1940  206.4760  153.7940 C   0  0  0  0  0  2  0  0  0  0  0  0
  161.7190  205.0960  144.7780 C   0  0  0  0  0  2  0  0  0  0  0  0
  160.3370  206.5780  146.2450 C   0  0  0  0  0  2  0  0  0  0  0  0
  161.6700  201.4620  150.2640 C   0  0  0  0  0  2  0  0  0  0  0  0
  160.6130  200.8710  149.3470 C   0  0  0  0  0  1  0  0  0  0  0  0
  162.5280  208.7560  150.6300 C   0  0  2  0  0  3  0  0  0  0  0  0
  163.4580  207.9420  151.2840 O   0  0  0  0  0  1  0  0  0  0  0  0
  162.4010  210.1320  151.3030 C   0  0  2  0  0  3  0  0  0  0  0  0
  162.7320  210.1280  152.7860 C   0  0  0  0  0  1  0  0  0  0  0  0
  161.0890  210.8770  151.0070 C   0  0  2  0  0  3  0  0  0  0  0  0
  161.2370  211.9140  149.9060 C   0  0  0  0  0  1  0  0  0  0  0  0
  160.5110  211.5310  152.2530 C   0  0  0  0  0  2  0  0  0  0  0  0
  159.3540  210.7220  154.2750 C   0  0  0  0  0  2  0  0  0  0  0  0
  159.3120  210.7530  152.7610 C   0  0  0  0  0  3  0  0  0  0  0  0
  158.4300  211.6860  153.5610 C   0  0  0  0  0  2  0  0  0  0  0  0
  1  3  1  1  0  0  0
  2  5  1  6  0  0  0
  2  4  1  0  0  0  0
  3 18  1  0  0  0  0
  4  1  1  0  0  0  0
  4 10  1  1  0  0  0
  5 17  1  0  0  0  0
  6 20  1  0  0  0  0
  7 14  1  6  0  0  0
  7  2  1  0  0  0  0
  9  8  1  6  0  0  0
  9 16  1  0  0  0  0
  9 11  1  0  0  0  0
 10 13  2  0  0  0  0
 11  5  2  0  0  0  0
 12 10  1  0  0  0  0
 13 18  1  0  0  0  0
 14 15  1  0  0  0  0
 15 23  1  1  0  0  0
 15  1  1  0  0  0  0
 16 20  1  6  0  0  0
 16  7  1  0  0  0  0
 17 12  1  0  0  0  0
 19  6  1  0  0  0  0
 19  8  1  0  0  0  0
 21 17  1  0  0  0  0
 22 21  1  0  0  0  0
 23 24  1  1  0  0  0
 23 25  1  0  0  0  0
 25 26  1  1  0  0  0
 27 28  1  6  0  0  0
 27 25  1  0  0  0  0
 27 29  1  0  0  0  0
 29 31  1  0  0  0  0
 31 32  1  0  0  0  0
 31 30  1  0  0  0  0
 32 30  1  0  0  0  0
M  END
>  <MODEL>
9

>  <REMARK>
 VINA RESULT:      -5.8      2.132      7.197
  Name = 
  6 active torsions:
  status: ('A' for Active; 'I' for Inactive)
    1  A    between atoms: C_3  and  C_15
    2  A    between atoms: C_3  and  C_22
    3  A    between atoms: C_13  and  N_29
    4  A    between atoms: C_15  and  C_19
    5  A    between atoms: C_16  and  C_22
    6  A    between atoms: C_16  and  C_27
                            x       y       z     vdW  Elec       q    Type
                         _______ _______ _______ _____ _____    ______ ____

>  <TORSDO>
F 6

$$$$
