=
 OpenBabel11062409133D

 37 40  0  0  1  0  0  0  0  0999 V2000
  161.5950  208.7510  155.8790 C   0  0  0  0  0  2  0  0  0  0  0  0
  160.1220  209.8370  151.9470 C   0  0  0  0  0  2  0  0  0  0  0  0
  158.2810  211.6660  157.1430 C   0  0  0  0  0  2  0  0  0  0  0  0
  160.6710  209.0090  154.6830 C   0  0  2  0  0  3  0  0  0  0  0  0
  159.4740  211.0440  156.4780 C   0  0  0  0  0  0  0  0  0  0  0  0
  160.9780  208.1230  153.5490 N   0  0  0  0  0  0  0  0  0  0  0  0
  160.3280  210.4440  157.2510 N   0  0  0  0  0  0  0  0  0  0  0  0
  159.6410  211.2940  154.9720 C   0  0  2  0  0  3  0  0  0  0  0  0
  157.1760  211.8450  154.8890 C   0  0  0  0  0  2  0  0  0  0  0  0
  161.6290  209.8880  156.9180 C   0  0  2  0  0  3  0  0  0  0  0  0
  158.3080  211.0530  154.2490 C   0  0  0  0  0  2  0  0  0  0  0  0
  160.0110  208.4010  152.4860 C   0  0  0  0  0  2  0  0  0  0  0  0
  160.7630  210.4900  154.2950 C   0  0  2  0  0  3  0  0  0  0  0  0
  157.0070  211.4010  156.3410 C   0  0  2  0  0  3  0  0  0  0  0  0
  161.0360  210.7490  152.7800 C   0  0  1  0  0  0  0  0  0  0  0  0
  155.8610  212.0380  156.9530 N   0  0  0  0  0  0  0  0  0  0  0  0
  155.4740  213.2190  156.6250 C   0  0  0  0  0  2  0  0  0  0  0  0
  163.8210  210.7500  156.7380 O   0  0  0  0  0  0  0  0  0  0  0  0
  162.6270  210.9600  156.6050 C   0  0  0  0  0  3  0  0  0  0  0  0
  162.3750  210.4110  152.4490 O   0  0  0  0  0  0  0  0  0  0  0  0
  162.5390  210.3810  151.0520 C   0  0  0  0  0  2  0  0  0  0  0  0
  162.1110  208.9860  149.3990 C   0  0  0  0  0  1  0  0  0  0  0  0
  162.7450  209.0660  150.6370 O   0  0  0  0  0  0  0  0  0  0  0  0
  160.7280  212.2140  152.4000 C   0  0  0  0  0  2  0  0  0  0  0  0
  159.5930  212.3290  151.3920 C   0  0  0  0  0  2  0  0  0  0  0  0
  159.9030  213.3730  150.4320 N   0  0  0  0  0  2  0  0  0  0  0  0
  157.6690  213.7560  151.2860 C   0  0  0  0  0  1  0  0  0  0  0  0
  158.6760  214.1170  150.2140 C   0  0  0  0  0  2  0  0  0  0  0  0
  160.7150  206.7490  153.9530 C   0  0  0  0  0  2  0  0  0  0  0  0
  161.8480  205.8540  153.4860 C   0  0  0  0  0  2  0  0  0  0  0  0
  161.1780  203.7590  152.2950 C   0  0  0  0  0  3  0  0  0  0  0  0
  161.4460  205.1310  152.2490 C   0  0  0  0  0  0  0  0  0  0  0  0
  161.3660  205.8160  151.0330 C   0  0  0  0  0  3  0  0  0  0  0  0
  160.9300  205.7980  148.6900 F   0  0  0  0  0  0  0  0  0  0  0  0
  160.7350  203.7640  149.9140 C   0  0  0  0  0  3  0  0  0  0  0  0
  161.0080  205.1330  149.8670 C   0  0  0  0  0  0  0  0  0  0  0  0
  160.8200  203.0760  151.1280 C   0  0  0  0  0  3  0  0  0  0  0  0
  1 10  1  0  0  0  0
  2 12  1  0  0  0  0
  2 15  1  0  0  0  0
  4  1  1  1  0  0  0
  5  3  1  0  0  0  0
  5  7  2  0  0  0  0
  6 29  1  0  0  0  0
  6  4  1  0  0  0  0
  8 11  1  6  0  0  0
  8  5  1  0  0  0  0
  9 14  1  0  0  0  0
 10 19  1  6  0  0  0
 10  7  1  0  0  0  0
 11  9  1  0  0  0  0
 12  6  1  0  0  0  0
 13  4  1  0  0  0  0
 13  8  1  0  0  0  0
 14 16  1  0  0  0  0
 14  3  1  0  0  0  0
 15 13  1  0  0  0  0
 17 16  2  0  0  0  0
 19 18  2  0  0  0  0
 20 15  1  0  0  0  0
 21 20  1  0  0  0  0
 22 23  1  0  0  0  0
 23 21  1  0  0  0  0
 24 15  1  0  0  0  0
 25 24  1  0  0  0  0
 26 25  1  0  0  0  0
 28 26  1  0  0  0  0
 28 27  1  0  0  0  0
 30 29  1  0  0  0  0
 32 31  1  0  0  0  0
 32 30  1  0  0  0  0
 33 32  2  0  0  0  0
 34 36  1  0  0  0  0
 35 37  1  0  0  0  0
 36 35  2  0  0  0  0
 36 33  1  0  0  0  0
 37 31  2  0  0  0  0
M  END
>  <MODEL>
1

>  <REMARK>
 VINA RESULT:      -4.7      0.000      0.000
  Name = 
  12 active torsions:
  status: ('A' for Active; 'I' for Inactive)
    1  A    between atoms: O_1  and  C_5
    2  A    between atoms: O_1  and  C_36
    3  A    between atoms: N_3  and  C_32
    4  A    between atoms: C_5  and  O_23
    5  A    between atoms: C_6  and  C_31
    6  A    between atoms: N_14  and  C_37
    7  A    between atoms: C_17  and  N_26
    8  A    between atoms: C_17  and  C_33
    9  A    between atoms: CA_24  and  C_28
   10  A    between atoms: N_26  and  C_34
   11  A    between atoms: C_31  and  C_37
   12  A    between atoms: C_33  and  C_36
                            x       y       z     vdW  Elec       q    Type
                         _______ _______ _______ _____ _____    ______ ____

>  <TORSDO>
F 12

$$$$
