=
 OpenBabel11052421583D

 30 33  0  0  1  0  0  0  0  0999 V2000
  161.8110  209.4360  152.2320 C   0  0  0  0  0  3  0  0  0  0  0  0
  162.3120  209.9430  150.8930 C   0  0  0  0  0  0  0  0  0  0  0  0
  158.2270  212.7170  152.9290 C   0  0  0  0  0  2  0  0  0  0  0  0
  160.1570  209.7910  154.1290 C   0  0  0  0  0  0  0  0  0  0  0  0
  157.5070  213.0210  154.2500 C   0  0  0  0  0  2  0  0  0  0  0  0
  161.5700  211.1580  150.3350 C   0  0  0  0  0  0  0  0  0  0  0  0
  162.2840  208.9090  149.9750 F   0  0  0  0  0  0  0  0  0  0  0  0
  159.2410  211.6390  153.1380 C   0  0  0  0  0  0  0  0  0  0  0  0
  161.9910  211.7150  149.0210 C   0  0  0  0  0  1  0  0  0  0  0  0
  160.8250  210.0720  152.8580 C   0  0  0  0  0  0  0  0  0  0  0  0
  159.1970  210.7120  154.2710 C   0  0  2  0  0  3  0  0  0  0  0  0
  157.0260  211.7340  154.9350 C   0  0  0  0  0  2  0  0  0  0  0  0
  158.2050  210.8580  155.3840 C   0  0  0  0  0  2  0  0  0  0  0  0
  160.5810  211.7710  151.0020 C   0  0  0  0  0  3  0  0  0  0  0  0
  160.1900  211.2400  152.3050 C   0  0  0  0  0  0  0  0  0  0  0  0
  160.4530  208.0640  157.2600 O   0  0  0  0  0  0  0  0  0  0  0  0
  160.8490  208.8650  156.3700 C   0  0  0  0  0  0  0  0  0  0  0  0
  160.4170  208.6810  155.0090 N   0  0  0  0  0  0  0  0  0  0  0  0
  163.0480  209.7470  156.8950 N   0  0  0  0  0  0  0  0  0  0  0  0
  161.3980  211.2970  156.9300 N   0  0  0  0  0  2  0  0  0  0  0  0
  161.7850  209.9420  156.7400 C   0  0  0  0  0  0  0  0  0  0  0  0
  163.6520  210.9620  157.2220 N   0  0  0  0  0  0  0  0  0  0  0  0
  162.6310  211.9980  157.2610 C   0  0  0  0  0  3  0  0  0  0  0  0
  160.1860  207.3290  154.5170 C   0  0  0  0  0  2  0  0  0  0  0  0
  161.4910  206.7170  154.0360 C   0  0  0  0  0  2  0  0  0  0  0  0
  161.2110  205.5100  153.1600 C   0  0  0  0  0  2  0  0  0  0  0  0
  161.2360  205.9010  151.7580 N   0  0  0  0  0  2  0  0  0  0  0  0
  160.4170  203.8550  150.9850 O   0  0  0  0  0  0  0  0  0  0  0  0
  160.8220  205.0180  150.7180 C   0  0  0  0  0  0  0  0  0  0  0  0
  160.8710  205.4730  149.3040 C   0  0  0  0  0  1  0  0  0  0  0  0
  1 10  1  0  0  0  0
  2  1  2  0  0  0  0
  3  8  1  0  0  0  0
  3  5  1  0  0  0  0
  4 11  1  0  0  0  0
  4 18  1  0  0  0  0
  5 12  1  0  0  0  0
  6  2  1  0  0  0  0
  6 14  2  0  0  0  0
  7  2  1  0  0  0  0
  8 11  1  0  0  0  0
  9  6  1  0  0  0  0
 10  4  2  0  0  0  0
 11 13  1  1  0  0  0
 12 13  1  0  0  0  0
 14 15  1  0  0  0  0
 15 10  1  0  0  0  0
 15  8  2  0  0  0  0
 17 21  1  0  0  0  0
 17 16  2  0  0  0  0
 18 17  1  0  0  0  0
 19 22  1  0  0  0  0
 20 23  1  0  0  0  0
 21 19  2  0  0  0  0
 21 20  1  0  0  0  0
 22 23  2  0  0  0  0
 24 18  1  0  0  0  0
 25 24  1  0  0  0  0
 26 25  1  0  0  0  0
 27 26  1  0  0  0  0
 29 28  2  0  0  0  0
 29 27  1  0  0  0  0
 30 29  1  0  0  0  0
M  END
>  <MODEL>
1

>  <REMARK>
 VINA RESULT:      -5.5      0.000      0.000
  Name = 
  6 active torsions:
  status: ('A' for Active; 'I' for Inactive)
    1  A    between atoms: C_4  and  N_13
    2  A    between atoms: N_7  and  C_16
    3  A    between atoms: C_8  and  C_12
    4  A    between atoms: N_13  and  C_27
    5  A    between atoms: C_16  and  C_30
    6  A    between atoms: C_27  and  C_30
                            x       y       z     vdW  Elec       q    Type
                         _______ _______ _______ _____ _____    ______ ____

>  <TORSDO>
F 6

$$$$
=
 OpenBabel11052421583D

 30 33  0  0  1  0  0  0  0  0999 V2000
  161.6940  210.5650  150.6580 C   0  0  0  0  0  3  0  0  0  0  0  0
  162.0280  211.4670  149.4850 C   0  0  0  0  0  0  0  0  0  0  0  0
  158.3030  213.4050  152.7860 C   0  0  0  0  0  2  0  0  0  0  0  0
  160.3090  210.2900  152.7710 C   0  0  0  0  0  0  0  0  0  0  0  0
  157.7670  213.2760  154.2190 C   0  0  0  0  0  2  0  0  0  0  0  0
  161.2460  212.7810  149.4270 C   0  0  0  0  0  0  0  0  0  0  0  0
  161.8580  210.7640  148.3060 F   0  0  0  0  0  0  0  0  0  0  0  0
  159.3120  212.3350  152.5210 C   0  0  0  0  0  0  0  0  0  0  0  0
  161.5050  213.7200  148.3040 C   0  0  0  0  0  1  0  0  0  0  0  0
  160.8120  210.9590  151.5710 C   0  0  0  0  0  0  0  0  0  0  0  0
  159.3960  211.1040  153.3120 C   0  0  2  0  0  3  0  0  0  0  0  0
  157.3520  211.8320  154.5340 C   0  0  0  0  0  2  0  0  0  0  0  0
  158.5600  210.8840  154.5350 C   0  0  0  0  0  2  0  0  0  0  0  0
  160.3660  213.1410  150.3720 C   0  0  0  0  0  3  0  0  0  0  0  0
  160.1360  212.2280  151.4900 C   0  0  0  0  0  0  0  0  0  0  0  0
  160.6120  207.5800  155.1030 O   0  0  0  0  0  0  0  0  0  0  0  0
  160.9570  208.6880  154.6070 C   0  0  0  0  0  0  0  0  0  0  0  0
  160.6570  208.9690  153.2270 N   0  0  0  0  0  0  0  0  0  0  0  0
  162.7370  210.2820  155.0220 N   0  0  0  0  0  0  0  0  0  0  0  0
  161.3350  209.9870  156.7750 N   0  0  0  0  0  0  0  0  0  0  0  0
  161.7010  209.6460  155.4430 C   0  0  0  0  0  0  0  0  0  0  0  0
  163.1940  211.1200  156.0410 N   0  0  0  0  0  2  0  0  0  0  0  0
  162.3250  210.9670  157.1980 C   0  0  0  0  0  3  0  0  0  0  0  0
  160.6550  207.8740  152.2660 C   0  0  0  0  0  2  0  0  0  0  0  0
  162.0580  207.3050  152.1200 C   0  0  0  0  0  2  0  0  0  0  0  0
  162.0400  205.8050  152.3520 C   0  0  0  0  0  2  0  0  0  0  0  0
  161.7000  205.1180  151.1150 N   0  0  0  0  0  2  0  0  0  0  0  0
  160.8140  203.2410  152.1880 O   0  0  0  0  0  0  0  0  0  0  0  0
  161.0850  203.8310  151.1080 C   0  0  0  0  0  0  0  0  0  0  0  0
  160.7620  203.1790  149.8120 C   0  0  0  0  0  1  0  0  0  0  0  0
  1 10  1  0  0  0  0
  2  1  2  0  0  0  0
  3  5  1  0  0  0  0
  4 18  1  0  0  0  0
  4 11  1  0  0  0  0
  5 12  1  0  0  0  0
  6  2  1  0  0  0  0
  6 14  2  0  0  0  0
  7  2  1  0  0  0  0
  8  3  1  0  0  0  0
  8 11  1  0  0  0  0
  9  6  1  0  0  0  0
 10  4  2  0  0  0  0
 11 13  1  1  0  0  0
 12 13  1  0  0  0  0
 14 15  1  0  0  0  0
 15 10  1  0  0  0  0
 15  8  2  0  0  0  0
 17 16  2  0  0  0  0
 17 21  1  0  0  0  0
 18 17  1  0  0  0  0
 19 21  2  0  0  0  0
 19 22  1  0  0  0  0
 20 23  2  0  0  0  0
 21 20  1  0  0  0  0
 22 23  1  0  0  0  0
 24 18  1  0  0  0  0
 25 24  1  0  0  0  0
 25 26  1  0  0  0  0
 27 26  1  0  0  0  0
 29 27  1  0  0  0  0
 29 28  2  0  0  0  0
 30 29  1  0  0  0  0
M  END
>  <MODEL>
2

>  <REMARK>
 VINA RESULT:      -5.4      1.412      1.617
  Name = 
  6 active torsions:
  status: ('A' for Active; 'I' for Inactive)
    1  A    between atoms: C_4  and  N_13
    2  A    between atoms: N_7  and  C_16
    3  A    between atoms: C_8  and  C_12
    4  A    between atoms: N_13  and  C_27
    5  A    between atoms: C_16  and  C_30
    6  A    between atoms: C_27  and  C_30
                            x       y       z     vdW  Elec       q    Type
                         _______ _______ _______ _____ _____    ______ ____

>  <TORSDO>
F 6

$$$$
=
 OpenBabel11052421583D

 30 33  0  0  1  0  0  0  0  0999 V2000
  160.6590  208.2500  153.7640 C   0  0  0  0  0  3  0  0  0  0  0  0
  161.2710  206.8910  153.4790 C   0  0  2  0  0  3  0  0  0  0  0  0
  161.9470  210.4890  149.5900 C   0  0  0  0  0  2  0  0  0  0  0  0
  160.3080  210.6180  152.9100 C   0  0  0  0  0  0  0  0  0  0  0  0
  161.9520  212.0010  149.3250 C   0  0  0  0  0  2  0  0  0  0  0  0
  161.9770  206.7620  152.1280 C   0  0  0  0  0  0  0  0  0  0  0  0
  160.2950  205.9180  153.5990 F   0  0  0  0  0  0  0  0  0  0  0  0
  161.4710  210.2180  150.9810 C   0  0  0  0  0  0  0  0  0  0  0  0
  162.5960  205.4600  151.7640 C   0  0  0  0  0  1  0  0  0  0  0  0
  160.7990  209.2400  152.8880 C   0  0  0  0  0  0  0  0  0  0  0  0
  160.6870  211.1810  151.7580 C   0  0  0  0  0  0  0  0  0  0  0  0
  160.6250  212.6480  149.7470 C   0  0  0  0  0  2  0  0  0  0  0  0
  160.4160  212.5700  151.2670 C   0  0  0  0  0  2  0  0  0  0  0  0
  162.0970  207.7890  151.2740 C   0  0  0  0  0  3  0  0  0  0  0  0
  161.5130  209.0750  151.6480 C   0  0  0  0  0  0  0  0  0  0  0  0
  159.5620  212.6990  155.7360 O   0  0  0  0  0  0  0  0  0  0  0  0
  160.0340  211.6660  155.1870 C   0  0  0  0  0  0  0  0  0  0  0  0
  159.4900  211.2210  153.9300 N   0  0  0  0  0  0  0  0  0  0  0  0
  162.3510  211.1330  155.6680 N   0  0  0  0  0  0  0  0  0  0  0  0
  160.8570  209.9040  156.8450 N   0  0  0  0  0  0  0  0  0  0  0  0
  161.1000  210.9140  155.8730 C   0  0  0  0  0  0  0  0  0  0  0  0
  163.0940  210.2750  156.4800 N   0  0  0  0  0  2  0  0  0  0  0  0
  162.1780  209.4570  157.2610 C   0  0  0  0  0  3  0  0  0  0  0  0
  158.0730  211.4320  153.6590 C   0  0  0  0  0  2  0  0  0  0  0  0
  157.8320  212.8710  153.2330 C   0  0  0  0  0  2  0  0  0  0  0  0
  156.5480  213.3910  153.8540 C   0  0  0  0  0  2  0  0  0  0  0  0
  156.0640  212.4470  154.8500 N   0  0  0  0  0  2  0  0  0  0  0  0
  156.3260  213.9250  156.6410 O   0  0  0  0  0  0  0  0  0  0  0  0
  155.9790  212.7840  156.2340 C   0  0  0  0  0  0  0  0  0  0  0  0
  155.4770  211.7780  157.2050 C   0  0  0  0  0  1  0  0  0  0  0  0
  2  7  1  6  0  0  0
  2  1  1  0  0  0  0
  3  8  1  0  0  0  0
  4 18  1  0  0  0  0
  5  3  1  0  0  0  0
  5 12  1  0  0  0  0
  6  2  1  0  0  0  0
  8 15  2  0  0  0  0
  8 11  1  0  0  0  0
  9  6  1  0  0  0  0
 10  4  1  0  0  0  0
 10  1  2  0  0  0  0
 11  4  2  0  0  0  0
 12 13  1  0  0  0  0
 13 11  1  0  0  0  0
 14 15  1  0  0  0  0
 14  6  2  0  0  0  0
 15 10  1  0  0  0  0
 17 16  2  0  0  0  0
 17 21  1  0  0  0  0
 18 17  1  0  0  0  0
 19 21  2  0  0  0  0
 19 22  1  0  0  0  0
 20 23  2  0  0  0  0
 21 20  1  0  0  0  0
 22 23  1  0  0  0  0
 24 18  1  0  0  0  0
 25 24  1  0  0  0  0
 25 26  1  0  0  0  0
 26 27  1  0  0  0  0
 27 29  1  0  0  0  0
 29 28  2  0  0  0  0
 29 30  1  0  0  0  0
M  END
>  <MODEL>
3

>  <REMARK>
 VINA RESULT:      -4.9      2.840      5.771
  Name = 
  6 active torsions:
  status: ('A' for Active; 'I' for Inactive)
    1  A    between atoms: C_4  and  N_13
    2  A    between atoms: N_7  and  C_16
    3  A    between atoms: C_8  and  C_12
    4  A    between atoms: N_13  and  C_27
    5  A    between atoms: C_16  and  C_30
    6  A    between atoms: C_27  and  C_30
                            x       y       z     vdW  Elec       q    Type
                         _______ _______ _______ _____ _____    ______ ____

>  <TORSDO>
F 6

$$$$
=
 OpenBabel11052421583D

 30 33  0  0  1  0  0  0  0  0999 V2000
  158.0090  210.7290  155.2940 C   0  0  0  0  0  3  0  0  0  0  0  0
  157.0160  211.8750  155.2620 C   0  0  2  0  0  3  0  0  0  0  0  0
  160.5840  211.9220  151.2880 C   0  0  0  0  0  2  0  0  0  0  0  0
  159.9830  209.6250  154.1330 C   0  0  0  0  0  0  0  0  0  0  0  0
  161.5480  211.0120  150.5140 C   0  0  0  0  0  2  0  0  0  0  0  0
  157.1930  212.8630  154.1080 C   0  0  0  0  0  0  0  0  0  0  0  0
  157.0560  212.5470  156.4700 F   0  0  0  0  0  0  0  0  0  0  0  0
  160.0170  211.1840  152.4580 C   0  0  0  0  0  0  0  0  0  0  0  0
  156.2670  214.0220  154.0070 C   0  0  0  0  0  1  0  0  0  0  0  0
  158.9190  210.6110  154.3320 C   0  0  0  0  0  0  0  0  0  0  0  0
  160.6480  209.9930  153.0330 C   0  0  0  0  0  0  0  0  0  0  0  0
  162.5460  210.3230  151.4560 C   0  0  0  0  0  2  0  0  0  0  0  0
  161.8420  209.3430  152.4060 C   0  0  0  0  0  2  0  0  0  0  0  0
  158.1240  212.7030  153.1560 C   0  0  0  0  0  3  0  0  0  0  0  0
  159.0140  211.5480  153.2420 C   0  0  0  0  0  0  0  0  0  0  0  0
  160.4310  207.9200  157.2580 O   0  0  0  0  0  0  0  0  0  0  0  0
  160.7700  208.7350  156.3560 C   0  0  0  0  0  0  0  0  0  0  0  0
  160.3120  208.5290  155.0070 N   0  0  0  0  0  0  0  0  0  0  0  0
  161.2490  211.0490  156.9060 N   0  0  0  0  0  0  0  0  0  0  0  0
  163.0740  209.7100  156.8750 N   0  0  0  0  0  2  0  0  0  0  0  0
  161.6690  209.8500  156.7020 C   0  0  0  0  0  0  0  0  0  0  0  0
  162.3390  211.8570  157.2310 N   0  0  0  0  0  0  0  0  0  0  0  0
  163.5450  211.0430  157.2230 C   0  0  0  0  0  3  0  0  0  0  0  0
  160.1250  207.1670  154.5240 C   0  0  0  0  0  2  0  0  0  0  0  0
  161.4590  206.5760  154.0990 C   0  0  0  0  0  2  0  0  0  0  0  0
  161.2350  205.3780  153.1940 C   0  0  0  0  0  2  0  0  0  0  0  0
  161.2470  205.8020  151.8020 N   0  0  0  0  0  2  0  0  0  0  0  0
  160.5240  203.7380  150.9790 O   0  0  0  0  0  0  0  0  0  0  0  0
  160.8760  204.9240  150.7400 C   0  0  0  0  0  0  0  0  0  0  0  0
  160.9080  205.4130  149.3380 C   0  0  0  0  0  1  0  0  0  0  0  0
  2  1  1  0  0  0  0
  2  7  1  1  0  0  0
  3  8  1  0  0  0  0
  4 10  1  0  0  0  0
  4 18  1  0  0  0  0
  5  3  1  0  0  0  0
  5 12  1  0  0  0  0
  6  2  1  0  0  0  0
  8 11  1  0  0  0  0
  8 15  2  0  0  0  0
  9  6  1  0  0  0  0
 10  1  2  0  0  0  0
 11  4  2  0  0  0  0
 12 13  1  0  0  0  0
 13 11  1  0  0  0  0
 14 15  1  0  0  0  0
 14  6  2  0  0  0  0
 15 10  1  0  0  0  0
 17 21  1  0  0  0  0
 17 16  2  0  0  0  0
 18 17  1  0  0  0  0
 19 22  1  0  0  0  0
 20 23  1  0  0  0  0
 21 20  1  0  0  0  0
 21 19  2  0  0  0  0
 23 22  2  0  0  0  0
 24 18  1  0  0  0  0
 25 24  1  0  0  0  0
 26 25  1  0  0  0  0
 27 26  1  0  0  0  0
 29 28  2  0  0  0  0
 29 27  1  0  0  0  0
 30 29  1  0  0  0  0
M  END
>  <MODEL>
4

>  <REMARK>
 VINA RESULT:      -4.8      1.744      3.700
  Name = 
  6 active torsions:
  status: ('A' for Active; 'I' for Inactive)
    1  A    between atoms: C_4  and  N_13
    2  A    between atoms: N_7  and  C_16
    3  A    between atoms: C_8  and  C_12
    4  A    between atoms: N_13  and  C_27
    5  A    between atoms: C_16  and  C_30
    6  A    between atoms: C_27  and  C_30
                            x       y       z     vdW  Elec       q    Type
                         _______ _______ _______ _____ _____    ______ ____

>  <TORSDO>
F 6

$$$$
=
 OpenBabel11052421583D

 30 33  0  0  1  0  0  0  0  0999 V2000
  160.6700  208.4910  153.6320 C   0  0  0  0  0  3  0  0  0  0  0  0
  161.2370  207.0970  153.4470 C   0  0  2  0  0  3  0  0  0  0  0  0
  162.1340  210.4160  149.3600 C   0  0  0  0  0  2  0  0  0  0  0  0
  160.4260  210.8120  152.6240 C   0  0  0  0  0  0  0  0  0  0  0  0
  162.2010  211.9070  149.0020 C   0  0  0  0  0  2  0  0  0  0  0  0
  161.9680  206.8570  152.1250 C   0  0  0  0  0  0  0  0  0  0  0  0
  160.2240  206.1680  153.6030 F   0  0  0  0  0  0  0  0  0  0  0  0
  161.6170  210.2500  150.7530 C   0  0  0  0  0  0  0  0  0  0  0  0
  162.5460  205.5130  151.8580 C   0  0  0  0  0  1  0  0  0  0  0  0
  160.8670  209.4190  152.7000 C   0  0  0  0  0  0  0  0  0  0  0  0
  160.8530  211.2870  151.4490 C   0  0  0  0  0  0  0  0  0  0  0  0
  160.8900  212.6260  149.3500 C   0  0  0  0  0  2  0  0  0  0  0  0
  160.6450  212.6510  150.8660 C   0  0  0  0  0  2  0  0  0  0  0  0
  162.1460  207.8230  151.2120 C   0  0  0  0  0  3  0  0  0  0  0  0
  161.6010  209.1500  151.4900 C   0  0  0  0  0  0  0  0  0  0  0  0
  159.7090  213.0210  155.3590 O   0  0  0  0  0  0  0  0  0  0  0  0
  160.1210  211.9390  154.8590 C   0  0  0  0  0  0  0  0  0  0  0  0
  159.6090  211.5070  153.5840 N   0  0  0  0  0  0  0  0  0  0  0  0
  162.3500  211.1520  155.4020 N   0  0  0  0  0  0  0  0  0  0  0  0
  160.7150  210.2470  156.6790 N   0  0  0  0  0  0  0  0  0  0  0  0
  161.0830  211.1210  155.6190 C   0  0  0  0  0  0  0  0  0  0  0  0
  162.9790  210.2840  156.2950 N   0  0  0  0  0  2  0  0  0  0  0  0
  161.9680  209.6700  157.1430 C   0  0  0  0  0  3  0  0  0  0  0  0
  158.2310  211.8260  153.2310 C   0  0  0  0  0  2  0  0  0  0  0  0
  158.0080  213.3280  153.3050 C   0  0  0  0  0  2  0  0  0  0  0  0
  157.9460  213.9160  151.9070 C   0  0  0  0  0  2  0  0  0  0  0  0
  156.5740  214.2770  151.5830 N   0  0  0  0  0  2  0  0  0  0  0  0
  156.7140  213.5470  149.3680 O   0  0  0  0  0  0  0  0  0  0  0  0
  156.0210  214.0620  150.2860 C   0  0  0  0  0  0  0  0  0  0  0  0
  154.6130  214.4520  150.0140 C   0  0  0  0  0  1  0  0  0  0  0  0
  2  7  1  6  0  0  0
  2  1  1  0  0  0  0
  3  8  1  0  0  0  0
  4 10  1  0  0  0  0
  4 18  1  0  0  0  0
  5 12  1  0  0  0  0
  5  3  1  0  0  0  0
  6  2  1  0  0  0  0
  8 11  1  0  0  0  0
  8 15  2  0  0  0  0
  9  6  1  0  0  0  0
 10  1  2  0  0  0  0
 11  4  2  0  0  0  0
 12 13  1  0  0  0  0
 13 11  1  0  0  0  0
 14 15  1  0  0  0  0
 14  6  2  0  0  0  0
 15 10  1  0  0  0  0
 17 16  2  0  0  0  0
 17 21  1  0  0  0  0
 18 17  1  0  0  0  0
 19 21  2  0  0  0  0
 19 22  1  0  0  0  0
 20 23  2  0  0  0  0
 21 20  1  0  0  0  0
 22 23  1  0  0  0  0
 24 25  1  0  0  0  0
 24 18  1  0  0  0  0
 26 25  1  0  0  0  0
 27 26  1  0  0  0  0
 28 29  2  0  0  0  0
 29 27  1  0  0  0  0
 30 29  1  0  0  0  0
M  END
>  <MODEL>
5

>  <REMARK>
 VINA RESULT:      -4.5      3.179      5.741
  Name = 
  6 active torsions:
  status: ('A' for Active; 'I' for Inactive)
    1  A    between atoms: C_4  and  N_13
    2  A    between atoms: N_7  and  C_16
    3  A    between atoms: C_8  and  C_12
    4  A    between atoms: N_13  and  C_27
    5  A    between atoms: C_16  and  C_30
    6  A    between atoms: C_27  and  C_30
                            x       y       z     vdW  Elec       q    Type
                         _______ _______ _______ _____ _____    ______ ____

>  <TORSDO>
F 6

$$$$
=
 OpenBabel11052421583D

 30 33  0  0  1  0  0  0  0  0999 V2000
  161.3840  207.2130  153.3420 C   0  0  0  0  0  3  0  0  0  0  0  0
  161.2500  205.7420  152.9990 C   0  0  2  0  0  3  0  0  0  0  0  0
  161.8330  208.9590  148.7760 C   0  0  0  0  0  2  0  0  0  0  0  0
  161.7230  209.5620  152.4300 C   0  0  0  0  0  0  0  0  0  0  0  0
  162.3450  210.3490  148.3730 C   0  0  0  0  0  2  0  0  0  0  0  0
  161.2970  205.4100  151.5070 C   0  0  0  0  0  0  0  0  0  0  0  0
  160.0850  205.2480  153.5570 F   0  0  0  0  0  0  0  0  0  0  0  0
  161.8340  208.8290  150.2650 C   0  0  0  0  0  0  0  0  0  0  0  0
  161.1630  203.9910  151.0820 C   0  0  0  0  0  1  0  0  0  0  0  0
  161.5770  208.1070  152.3760 C   0  0  0  0  0  0  0  0  0  0  0  0
  161.8450  209.9830  151.1670 C   0  0  0  0  0  0  0  0  0  0  0  0
  161.6430  211.4580  149.1710 C   0  0  0  0  0  2  0  0  0  0  0  0
  161.9930  211.3860  150.6650 C   0  0  0  0  0  2  0  0  0  0  0  0
  161.4960  206.3440  150.5650 C   0  0  0  0  0  3  0  0  0  0  0  0
  161.6560  207.7340  150.9870 C   0  0  0  0  0  0  0  0  0  0  0  0
  160.1470  211.3340  155.1230 O   0  0  0  0  0  0  0  0  0  0  0  0
  160.4890  211.1800  153.9180 C   0  0  0  0  0  0  0  0  0  0  0  0
  161.6500  210.3880  153.6070 N   0  0  0  0  0  0  0  0  0  0  0  0
  158.6210  211.3800  152.3830 N   0  0  0  0  0  0  0  0  0  0  0  0
  160.0770  213.1120  152.2970 N   0  0  0  0  0  0  0  0  0  0  0  0
  159.7150  211.8580  152.8630 C   0  0  0  0  0  0  0  0  0  0  0  0
  158.1290  212.2640  151.4220 N   0  0  0  0  0  2  0  0  0  0  0  0
  159.0330  213.4010  151.3240 C   0  0  0  0  0  3  0  0  0  0  0  0
  162.7720  210.3820  154.5380 C   0  0  0  0  0  2  0  0  0  0  0  0
  162.2920  210.7330  155.9370 C   0  0  0  0  0  2  0  0  0  0  0  0
  162.6720  209.6330  156.9100 C   0  0  0  0  0  2  0  0  0  0  0  0
  161.9540  208.4110  156.5810 N   0  0  0  0  0  2  0  0  0  0  0  0
  159.8740  209.2380  157.2500 O   0  0  0  0  0  0  0  0  0  0  0  0
  160.5470  208.2830  156.7770 C   0  0  0  0  0  0  0  0  0  0  0  0
  159.8680  207.0100  156.4220 C   0  0  0  0  0  1  0  0  0  0  0  0
  2  1  1  0  0  0  0
  2  7  1  6  0  0  0
  3  8  1  0  0  0  0
  4 18  1  0  0  0  0
  5  3  1  0  0  0  0
  5 12  1  0  0  0  0
  6  2  1  0  0  0  0
  8 15  2  0  0  0  0
  8 11  1  0  0  0  0
  9  6  1  0  0  0  0
 10  4  1  0  0  0  0
 10  1  2  0  0  0  0
 11  4  2  0  0  0  0
 12 13  1  0  0  0  0
 13 11  1  0  0  0  0
 14 15  1  0  0  0  0
 14  6  2  0  0  0  0
 15 10  1  0  0  0  0
 17 16  2  0  0  0  0
 18 17  1  0  0  0  0
 18 24  1  0  0  0  0
 19 21  2  0  0  0  0
 20 21  1  0  0  0  0
 21 17  1  0  0  0  0
 22 19  1  0  0  0  0
 23 22  1  0  0  0  0
 23 20  2  0  0  0  0
 24 25  1  0  0  0  0
 25 26  1  0  0  0  0
 27 29  1  0  0  0  0
 27 26  1  0  0  0  0
 29 28  2  0  0  0  0
 30 29  1  0  0  0  0
M  END
>  <MODEL>
6

>  <REMARK>
 VINA RESULT:      -4.4      2.607      5.682
  Name = 
  6 active torsions:
  status: ('A' for Active; 'I' for Inactive)
    1  A    between atoms: C_4  and  N_13
    2  A    between atoms: N_7  and  C_16
    3  A    between atoms: C_8  and  C_12
    4  A    between atoms: N_13  and  C_27
    5  A    between atoms: C_16  and  C_30
    6  A    between atoms: C_27  and  C_30
                            x       y       z     vdW  Elec       q    Type
                         _______ _______ _______ _____ _____    ______ ____

>  <TORSDO>
F 6

$$$$
=
 OpenBabel11052421583D

 30 33  0  0  1  0  0  0  0  0999 V2000
  160.8290  208.8160  151.3580 C   0  0  0  0  0  3  0  0  0  0  0  0
  161.1920  207.4920  150.7130 C   0  0  0  0  0  0  0  0  0  0  0  0
  161.0380  207.3950  156.0510 C   0  0  0  0  0  2  0  0  0  0  0  0
  160.3980  210.0440  153.5410 C   0  0  0  0  0  0  0  0  0  0  0  0
  160.4550  208.1390  157.2610 C   0  0  0  0  0  2  0  0  0  0  0  0
  161.4620  206.3430  151.6870 C   0  0  0  0  0  0  0  0  0  0  0  0
  162.2820  207.6730  149.8820 F   0  0  0  0  0  0  0  0  0  0  0  0
  160.7760  208.1720  154.8010 C   0  0  0  0  0  0  0  0  0  0  0  0
  161.8340  205.0110  151.1390 C   0  0  0  0  0  1  0  0  0  0  0  0
  160.7180  208.9050  152.6790 C   0  0  0  0  0  0  0  0  0  0  0  0
  160.4650  209.6030  154.8020 C   0  0  2  0  0  3  0  0  0  0  0  0
  160.8640  209.6190  157.2600 C   0  0  0  0  0  2  0  0  0  0  0  0
  160.2530  210.3730  156.0690 C   0  0  0  0  0  2  0  0  0  0  0  0
  161.3350  206.4760  153.0150 C   0  0  0  0  0  3  0  0  0  0  0  0
  160.9410  207.7780  153.5480 C   0  0  0  0  0  0  0  0  0  0  0  0
  159.5920  213.5200  153.9130 O   0  0  0  0  0  0  0  0  0  0  0  0
  159.3040  212.2930  153.8580 C   0  0  0  0  0  0  0  0  0  0  0  0
  160.1560  211.3990  153.1180 N   0  0  0  0  0  0  0  0  0  0  0  0
  157.2170  211.0580  153.9250 N   0  0  0  0  0  0  0  0  0  0  0  0
  157.7270  212.1150  155.8610 N   0  0  0  0  0  0  0  0  0  0  0  0
  158.0740  211.8160  154.5140 C   0  0  0  0  0  0  0  0  0  0  0  0
  156.1840  210.7720  154.8180 N   0  0  0  0  0  2  0  0  0  0  0  0
  156.4620  211.4320  156.0850 C   0  0  0  0  0  3  0  0  0  0  0  0
  160.8370  211.8940  151.9280 C   0  0  0  0  0  2  0  0  0  0  0  0
  159.8290  212.4920  150.9600 C   0  0  0  0  0  2  0  0  0  0  0  0
  160.4550  213.6500  150.2040 C   0  0  0  0  0  2  0  0  0  0  0  0
  160.2480  213.4750  148.7740 N   0  0  0  0  0  2  0  0  0  0  0  0
  162.1730  212.1870  148.4690 O   0  0  0  0  0  0  0  0  0  0  0  0
  161.1520  212.7270  147.9640 C   0  0  0  0  0  0  0  0  0  0  0  0
  160.8890  212.5840  146.5090 C   0  0  0  0  0  1  0  0  0  0  0  0
  1 10  1  0  0  0  0
  2  1  2  0  0  0  0
  2  6  1  0  0  0  0
  3  5  1  0  0  0  0
  4 11  1  0  0  0  0
  6 14  2  0  0  0  0
  7  2  1  0  0  0  0
  8 11  1  0  0  0  0
  8  3  1  0  0  0  0
  9  6  1  0  0  0  0
 10  4  2  0  0  0  0
 10 15  1  0  0  0  0
 11 13  1  6  0  0  0
 12  5  1  0  0  0  0
 13 12  1  0  0  0  0
 14 15  1  0  0  0  0
 15  8  2  0  0  0  0
 17 16  2  0  0  0  0
 17 21  1  0  0  0  0
 18  4  1  0  0  0  0
 18 17  1  0  0  0  0
 19 21  2  0  0  0  0
 19 22  1  0  0  0  0
 20 23  2  0  0  0  0
 21 20  1  0  0  0  0
 22 23  1  0  0  0  0
 24 18  1  0  0  0  0
 25 24  1  0  0  0  0
 26 25  1  0  0  0  0
 27 26  1  0  0  0  0
 29 28  2  0  0  0  0
 29 27  1  0  0  0  0
 30 29  1  0  0  0  0
M  END
>  <MODEL>
7

>  <REMARK>
 VINA RESULT:      -4.3      3.148      5.623
  Name = 
  6 active torsions:
  status: ('A' for Active; 'I' for Inactive)
    1  A    between atoms: C_4  and  N_13
    2  A    between atoms: N_7  and  C_16
    3  A    between atoms: C_8  and  C_12
    4  A    between atoms: N_13  and  C_27
    5  A    between atoms: C_16  and  C_30
    6  A    between atoms: C_27  and  C_30
                            x       y       z     vdW  Elec       q    Type
                         _______ _______ _______ _____ _____    ______ ____

>  <TORSDO>
F 6

$$$$
=
 OpenBabel11052421583D

 30 33  0  0  1  0  0  0  0  0999 V2000
  157.7560  210.9920  153.7770 C   0  0  0  0  0  3  0  0  0  0  0  0
  156.5330  211.4340  154.5570 C   0  0  2  0  0  3  0  0  0  0  0  0
  161.1270  211.7640  157.2610 C   0  0  0  0  0  2  0  0  0  0  0  0
  160.2810  210.7050  153.8120 C   0  0  0  0  0  0  0  0  0  0  0  0
  162.6460  211.8520  157.0620 C   0  0  0  0  0  2  0  0  0  0  0  0
  156.8020  211.8960  155.9900 C   0  0  0  0  0  0  0  0  0  0  0  0
  155.5990  210.4130  154.5570 F   0  0  0  0  0  0  0  0  0  0  0  0
  160.4570  211.5000  155.9510 C   0  0  0  0  0  0  0  0  0  0  0  0
  155.6560  212.3360  156.8290 C   0  0  0  0  0  1  0  0  0  0  0  0
  158.9620  211.0700  154.3310 C   0  0  0  0  0  0  0  0  0  0  0  0
  161.1580  210.9370  154.7950 C   0  0  0  0  0  0  0  0  0  0  0  0
  163.1730  210.6700  156.2340 C   0  0  0  0  0  2  0  0  0  0  0  0
  162.6380  210.7070  154.7950 C   0  0  0  0  0  2  0  0  0  0  0  0
  158.0370  211.9610  156.5090 C   0  0  0  0  0  3  0  0  0  0  0  0
  159.1640  211.5550  155.6720 C   0  0  0  0  0  0  0  0  0  0  0  0
  161.8340  210.4160  150.5910 O   0  0  0  0  0  0  0  0  0  0  0  0
  161.0040  210.9050  151.4060 C   0  0  0  0  0  0  0  0  0  0  0  0
  160.5670  210.1180  152.5290 N   0  0  0  0  0  0  0  0  0  0  0  0
  159.9420  212.9790  152.0800 N   0  0  0  0  0  0  0  0  0  0  0  0
  160.5030  212.8990  149.8880 N   0  0  0  0  0  2  0  0  0  0  0  0
  160.4670  212.2540  151.1560 C   0  0  0  0  0  0  0  0  0  0  0  0
  159.5530  214.1990  151.5260 N   0  0  0  0  0  0  0  0  0  0  0  0
  159.8900  214.2000  150.1100 C   0  0  0  0  0  3  0  0  0  0  0  0
  160.4570  208.6720  152.3800 C   0  0  0  0  0  2  0  0  0  0  0  0
  161.1720  207.9730  153.5250 C   0  0  0  0  0  2  0  0  0  0  0  0
  161.2590  206.4830  153.2540 C   0  0  0  0  0  2  0  0  0  0  0  0
  161.1400  206.2330  151.8250 N   0  0  0  0  0  2  0  0  0  0  0  0
  161.5730  203.9440  152.0040 O   0  0  0  0  0  0  0  0  0  0  0  0
  161.3100  204.9310  151.2670 C   0  0  0  0  0  0  0  0  0  0  0  0
  161.1760  204.7380  149.7990 C   0  0  0  0  0  1  0  0  0  0  0  0
  1 10  2  0  0  0  0
  1  2  1  0  0  0  0
  2  7  1  1  0  0  0
  2  6  1  0  0  0  0
  4 10  1  0  0  0  0
  4 11  2  0  0  0  0
  5  3  1  0  0  0  0
  6 14  2  0  0  0  0
  6  9  1  0  0  0  0
  8  3  1  0  0  0  0
 10 15  1  0  0  0  0
 11  8  1  0  0  0  0
 12  5  1  0  0  0  0
 13 11  1  0  0  0  0
 13 12  1  0  0  0  0
 15  8  2  0  0  0  0
 15 14  1  0  0  0  0
 16 17  2  0  0  0  0
 17 18  1  0  0  0  0
 18  4  1  0  0  0  0
 20 23  1  0  0  0  0
 20 21  1  0  0  0  0
 21 17  1  0  0  0  0
 21 19  2  0  0  0  0
 22 19  1  0  0  0  0
 23 22  2  0  0  0  0
 24 18  1  0  0  0  0
 24 25  1  0  0  0  0
 26 25  1  0  0  0  0
 27 26  1  0  0  0  0
 29 27  1  0  0  0  0
 29 28  2  0  0  0  0
 30 29  1  0  0  0  0
M  END
>  <MODEL>
8

>  <REMARK>
 VINA RESULT:      -4.2      3.077      5.322
  Name = 
  6 active torsions:
  status: ('A' for Active; 'I' for Inactive)
    1  A    between atoms: C_4  and  N_13
    2  A    between atoms: N_7  and  C_16
    3  A    between atoms: C_8  and  C_12
    4  A    between atoms: N_13  and  C_27
    5  A    between atoms: C_16  and  C_30
    6  A    between atoms: C_27  and  C_30
                            x       y       z     vdW  Elec       q    Type
                         _______ _______ _______ _____ _____    ______ ____

>  <TORSDO>
F 6

$$$$
=
 OpenBabel11052421583D

 30 33  0  0  1  0  0  0  0  0999 V2000
  158.4600  210.6140  155.0960 C   0  0  0  0  0  3  0  0  0  0  0  0
  157.5110  211.4180  155.9640 C   0  0  2  0  0  3  0  0  0  0  0  0
  159.2770  213.9950  151.6310 C   0  0  0  0  0  2  0  0  0  0  0  0
  159.8550  210.5890  152.9710 C   0  0  0  0  0  0  0  0  0  0  0  0
  159.8850  213.7550  150.2420 C   0  0  0  0  0  2  0  0  0  0  0  0
  157.2140  212.8350  155.4700 C   0  0  0  0  0  0  0  0  0  0  0  0
  158.0010  211.4610  157.2570 F   0  0  0  0  0  0  0  0  0  0  0  0
  159.2160  212.7070  152.3890 C   0  0  0  0  0  0  0  0  0  0  0  0
  156.3000  213.6960  156.2680 C   0  0  0  0  0  1  0  0  0  0  0  0
  158.9330  211.1350  153.9670 C   0  0  0  0  0  0  0  0  0  0  0  0
  160.0390  211.5440  152.0530 C   0  0  0  0  0  0  0  0  0  0  0  0
  161.1800  212.9350  150.3310 C   0  0  0  0  0  2  0  0  0  0  0  0
  160.9130  211.5090  150.8370 C   0  0  0  0  0  2  0  0  0  0  0  0
  157.7110  213.3200  154.3230 C   0  0  0  0  0  3  0  0  0  0  0  0
  158.5850  212.4610  153.5270 C   0  0  0  0  0  0  0  0  0  0  0  0
  160.9580  207.5040  154.4330 O   0  0  0  0  0  0  0  0  0  0  0  0
  161.0130  208.7510  154.2510 C   0  0  0  0  0  0  0  0  0  0  0  0
  160.5130  209.3100  153.0210 N   0  0  0  0  0  0  0  0  0  0  0  0
  161.3380  209.5040  156.5340 N   0  0  0  0  0  0  0  0  0  0  0  0
  162.6310  210.5750  155.0150 N   0  0  0  0  0  2  0  0  0  0  0  0
  161.6320  209.5990  155.2850 C   0  0  0  0  0  0  0  0  0  0  0  0
  162.1070  210.4250  157.2470 N   0  0  0  0  0  0  0  0  0  0  0  0
  162.9590  211.1460  156.3130 C   0  0  0  0  0  3  0  0  0  0  0  0
  160.6320  208.5340  151.7930 C   0  0  0  0  0  2  0  0  0  0  0  0
  162.0790  208.5080  151.3290 C   0  0  0  0  0  2  0  0  0  0  0  0
  162.3430  207.2570  150.5120 C   0  0  0  0  0  2  0  0  0  0  0  0
  161.8660  206.0870  151.2330 N   0  0  0  0  0  2  0  0  0  0  0  0
  160.7390  205.1890  149.3940 O   0  0  0  0  0  0  0  0  0  0  0  0
  161.0640  205.0870  150.6070 C   0  0  0  0  0  0  0  0  0  0  0  0
  160.6050  203.9130  151.3950 C   0  0  0  0  0  1  0  0  0  0  0  0
  1  2  1  0  0  0  0
  2  7  1  1  0  0  0
  3  8  1  0  0  0  0
  4 18  1  0  0  0  0
  4 10  1  0  0  0  0
  5 12  1  0  0  0  0
  5  3  1  0  0  0  0
  6  2  1  0  0  0  0
  6  9  1  0  0  0  0
  8 15  2  0  0  0  0
 10  1  2  0  0  0  0
 11  8  1  0  0  0  0
 11  4  2  0  0  0  0
 12 13  1  0  0  0  0
 13 11  1  0  0  0  0
 14  6  2  0  0  0  0
 15 10  1  0  0  0  0
 15 14  1  0  0  0  0
 17 16  2  0  0  0  0
 17 21  1  0  0  0  0
 18 17  1  0  0  0  0
 19 22  1  0  0  0  0
 20 21  1  0  0  0  0
 20 23  1  0  0  0  0
 21 19  2  0  0  0  0
 23 22  2  0  0  0  0
 24 18  1  0  0  0  0
 25 24  1  0  0  0  0
 26 27  1  0  0  0  0
 26 25  1  0  0  0  0
 28 29  2  0  0  0  0
 29 27  1  0  0  0  0
 29 30  1  0  0  0  0
M  END
>  <MODEL>
9

>  <REMARK>
 VINA RESULT:      -4.2      2.217      4.087
  Name = 
  6 active torsions:
  status: ('A' for Active; 'I' for Inactive)
    1  A    between atoms: C_4  and  N_13
    2  A    between atoms: N_7  and  C_16
    3  A    between atoms: C_8  and  C_12
    4  A    between atoms: N_13  and  C_27
    5  A    between atoms: C_16  and  C_30
    6  A    between atoms: C_27  and  C_30
                            x       y       z     vdW  Elec       q    Type
                         _______ _______ _______ _____ _____    ______ ____

>  <TORSDO>
F 6

$$$$
