=
 OpenBabel11052423073D

 27 31  0  0  1  0  0  0  0  0999 V2000
  162.8650  209.9530  151.7550 C   0  0  0  0  0  2  0  0  0  0  0  0
  161.8540  208.6060  149.9610 C   0  0  0  0  0  0  0  0  0  0  0  0
  160.9780  207.6850  152.1170 O   0  0  0  0  0  0  0  0  0  0  0  0
  161.2060  204.8270  148.1360 C   0  0  0  0  0  3  0  0  0  0  0  0
  161.1850  203.7030  150.3260 C   0  0  0  0  0  2  0  0  0  0  0  0
  162.0720  208.3970  148.6340 N   0  0  0  0  0  0  0  0  0  0  0  0
  160.8050  205.0330  150.9910 C   0  0  1  0  0  3  0  0  0  0  0  0
  160.0810  209.8130  154.9910 C   0  0  0  0  0  0  0  0  0  0  0  0
  161.3670  204.9830  152.4020 C   0  0  0  0  0  1  0  0  0  0  0  0
  158.9500  209.7660  156.3260 Cl  0  0  0  0  0  0  0  0  0  0  0  0
  161.3020  206.2430  150.1990 C   0  0  0  0  0  0  0  0  0  0  0  0
  162.1380  209.9020  150.5010 N   0  0  0  0  0  0  0  0  0  0  0  0
  161.0060  203.7160  148.8390 C   0  0  0  0  0  3  0  0  0  0  0  0
  161.4930  206.1000  148.8090 C   0  0  0  0  0  0  0  0  0  0  0  0
  161.8890  209.8770  152.8610 C   0  0  0  0  0  0  0  0  0  0  0  0
  161.4060  207.5340  150.7790 C   0  0  0  0  0  0  0  0  0  0  0  0
  160.1100  208.7700  154.0630 C   0  0  0  0  0  3  0  0  0  0  0  0
  161.8800  207.1930  148.0460 C   0  0  0  0  0  3  0  0  0  0  0  0
  160.9560  210.8910  154.8550 C   0  0  0  0  0  3  0  0  0  0  0  0
  161.8590  210.9210  153.7920 C   0  0  0  0  0  3  0  0  0  0  0  0
  161.0020  208.7910  152.9840 C   0  0  0  0  0  0  0  0  0  0  0  0
  161.0350  213.5120  148.5340 C   0  0  0  0  0  3  0  0  0  0  0  0
  161.7520  211.1200  149.8290 C   0  0  0  0  0  0  0  0  0  0  0  0
  160.8140  211.9940  150.4050 C   0  0  0  0  0  3  0  0  0  0  0  0
  160.4560  213.1810  149.7610 C   0  0  0  0  0  3  0  0  0  0  0  0
  161.9740  212.6560  147.9520 C   0  0  0  0  0  3  0  0  0  0  0  0
  162.3310  211.4690  148.5970 C   0  0  0  0  0  3  0  0  0  0  0  0
  1 15  1  0  0  0  0
  2 12  1  0  0  0  0
  2 16  1  0  0  0  0
  3 21  1  0  0  0  0
  4 14  1  0  0  0  0
  4 13  2  0  0  0  0
  5  7  1  0  0  0  0
  6  2  2  0  0  0  0
  7  9  1  1  0  0  0
  8 10  1  0  0  0  0
 11 16  2  0  0  0  0
 11  7  1  0  0  0  0
 12  1  1  0  0  0  0
 13  5  1  0  0  0  0
 14 11  1  0  0  0  0
 15 21  2  0  0  0  0
 15 20  1  0  0  0  0
 16  3  1  0  0  0  0
 17  8  2  0  0  0  0
 18  6  1  0  0  0  0
 18 14  2  0  0  0  0
 19  8  1  0  0  0  0
 20 19  2  0  0  0  0
 21 17  1  0  0  0  0
 22 25  1  0  0  0  0
 23 24  1  0  0  0  0
 23 12  1  0  0  0  0
 25 24  2  0  0  0  0
 26 22  2  0  0  0  0
 26 27  1  0  0  0  0
 27 23  2  0  0  0  0
M  END
>  <MODEL>
1

>  <REMARK>
 VINA RESULT:      -8.5      0.000      0.000
  Name = 
  1 active torsions:
  status: ('A' for Active; 'I' for Inactive)
    1  A    between atoms: C_9  and  N_15
                            x       y       z     vdW  Elec       q    Type
                         _______ _______ _______ _____ _____    ______ ____

>  <TORSDO>
F 1

$$$$
=
 OpenBabel11052423073D

 27 31  0  0  1  0  0  0  0  0999 V2000
  162.7020  209.5660  150.8570 C   0  0  0  0  0  2  0  0  0  0  0  0
  161.4040  208.1210  152.3690 C   0  0  0  0  0  0  0  0  0  0  0  0
  160.6620  210.4680  152.8220 O   0  0  0  0  0  0  0  0  0  0  0  0
  160.2440  207.0420  156.3080 C   0  0  0  0  0  3  0  0  0  0  0  0
  160.3340  209.3880  157.0450 C   0  0  0  0  0  2  0  0  0  0  0  0
  161.4720  206.8380  152.8170 N   0  0  0  0  0  0  0  0  0  0  0  0
  160.1410  209.8400  155.5910 C   0  0  1  0  0  3  0  0  0  0  0  0
  160.2440  212.9890  150.1650 C   0  0  0  0  0  0  0  0  0  0  0  0
  160.8310  211.1880  155.4660 C   0  0  0  0  0  1  0  0  0  0  0  0
  159.2480  214.3980  149.8710 Cl  0  0  0  0  0  0  0  0  0  0  0  0
  160.6660  208.8110  154.5880 C   0  0  0  0  0  0  0  0  0  0  0  0
  161.8550  208.4020  151.0390 N   0  0  0  0  0  0  0  0  0  0  0  0
  160.0130  207.9410  157.2600 C   0  0  0  0  0  3  0  0  0  0  0  0
  160.7080  207.4570  154.9790 C   0  0  0  0  0  0  0  0  0  0  0  0
  161.8350  210.7420  150.6460 C   0  0  0  0  0  0  0  0  0  0  0  0
  160.9430  209.1470  153.2370 C   0  0  0  0  0  0  0  0  0  0  0  0
  160.0880  212.2580  151.3450 C   0  0  0  0  0  3  0  0  0  0  0  0
  161.1160  206.4870  154.0740 C   0  0  0  0  0  3  0  0  0  0  0  0
  161.1950  212.5980  149.2230 C   0  0  0  0  0  3  0  0  0  0  0  0
  161.9900  211.4770  149.4650 C   0  0  0  0  0  3  0  0  0  0  0  0
  160.8690  211.1240  151.5970 C   0  0  0  0  0  0  0  0  0  0  0  0
  160.8870  205.8950  147.7380 C   0  0  0  0  0  3  0  0  0  0  0  0
  161.5170  207.5620  149.9150 C   0  0  0  0  0  0  0  0  0  0  0  0
  162.0040  207.8480  148.6290 C   0  0  0  0  0  3  0  0  0  0  0  0
  161.6890  207.0220  147.5470 C   0  0  0  0  0  3  0  0  0  0  0  0
  160.4010  205.5930  149.0130 C   0  0  0  0  0  3  0  0  0  0  0  0
  160.7160  206.4210  150.0940 C   0  0  0  0  0  3  0  0  0  0  0  0
  1 12  1  0  0  0  0
  2  6  2  0  0  0  0
  2 16  1  0  0  0  0
  3 16  1  0  0  0  0
  4 13  2  0  0  0  0
  5 13  1  0  0  0  0
  6 18  1  0  0  0  0
  7  9  1  1  0  0  0
  7  5  1  0  0  0  0
  8 17  1  0  0  0  0
 10  8  1  0  0  0  0
 11 14  1  0  0  0  0
 11  7  1  0  0  0  0
 12  2  1  0  0  0  0
 14  4  1  0  0  0  0
 15  1  1  0  0  0  0
 15 21  1  0  0  0  0
 16 11  2  0  0  0  0
 17 21  2  0  0  0  0
 18 14  2  0  0  0  0
 19 20  1  0  0  0  0
 19  8  2  0  0  0  0
 20 15  2  0  0  0  0
 21  3  1  0  0  0  0
 22 26  1  0  0  0  0
 23 27  1  0  0  0  0
 23 12  1  0  0  0  0
 24 23  2  0  0  0  0
 25 22  2  0  0  0  0
 25 24  1  0  0  0  0
 26 27  2  0  0  0  0
M  END
>  <MODEL>
2

>  <REMARK>
 VINA RESULT:      -7.5      2.224      5.739
  Name = 
  1 active torsions:
  status: ('A' for Active; 'I' for Inactive)
    1  A    between atoms: C_9  and  N_15
                            x       y       z     vdW  Elec       q    Type
                         _______ _______ _______ _____ _____    ______ ____

>  <TORSDO>
F 1

$$$$
=
 OpenBabel11052423073D

 27 31  0  0  1  0  0  0  0  0999 V2000
  159.9130  209.5820  152.8140 C   0  0  0  0  0  2  0  0  0  0  0  0
  161.0120  207.3900  153.0310 C   0  0  0  0  0  0  0  0  0  0  0  0
  161.3030  208.0950  150.6470 O   0  0  0  0  0  0  0  0  0  0  0  0
  161.3680  203.3340  151.8270 C   0  0  0  0  0  3  0  0  0  0  0  0
  160.7920  203.9070  149.5040 C   0  0  0  0  0  2  0  0  0  0  0  0
  161.0170  206.3680  153.9280 N   0  0  0  0  0  0  0  0  0  0  0  0
  161.2510  205.3490  149.7590 C   0  0  1  0  0  3  0  0  0  0  0  0
  161.9760  211.5810  149.6540 C   0  0  0  0  0  0  0  0  0  0  0  0
  160.4320  206.2310  148.8300 C   0  0  0  0  0  1  0  0  0  0  0  0
  162.8120  212.4150  148.3620 Cl  0  0  0  0  0  0  0  0  0  0  0  0
  161.1170  205.7520  151.2280 C   0  0  0  0  0  0  0  0  0  0  0  0
  160.8450  208.7250  153.5230 N   0  0  0  0  0  0  0  0  0  0  0  0
  161.2480  202.9480  150.5600 C   0  0  0  0  0  3  0  0  0  0  0  0
  161.1700  204.7380  152.2070 C   0  0  0  0  0  0  0  0  0  0  0  0
  160.6380  210.2440  151.7110 C   0  0  0  0  0  0  0  0  0  0  0  0
  161.1160  207.1100  151.6420 C   0  0  0  0  0  0  0  0  0  0  0  0
  161.9530  210.1860  149.6850 C   0  0  0  0  0  3  0  0  0  0  0  0
  161.1180  205.0710  153.5530 C   0  0  0  0  0  3  0  0  0  0  0  0
  161.3300  212.3120  150.6520 C   0  0  0  0  0  3  0  0  0  0  0  0
  160.6610  211.6420  151.6770 C   0  0  0  0  0  3  0  0  0  0  0  0
  161.2970  209.4990  150.7140 C   0  0  0  0  0  0  0  0  0  0  0  0
  162.8700  210.1760  156.9740 C   0  0  0  0  0  3  0  0  0  0  0  0
  161.5450  209.2120  154.6880 C   0  0  0  0  0  0  0  0  0  0  0  0
  162.3390  210.3680  154.6210 C   0  0  0  0  0  3  0  0  0  0  0  0
  163.0000  210.8470  155.7550 C   0  0  0  0  0  3  0  0  0  0  0  0
  162.0780  209.0280  157.0580 C   0  0  0  0  0  3  0  0  0  0  0  0
  161.4180  208.5510  155.9220 C   0  0  0  0  0  3  0  0  0  0  0  0
  1 12  1  0  0  0  0
  2 12  1  0  0  0  0
  2  6  1  0  0  0  0
  3 21  1  0  0  0  0
  3 16  1  0  0  0  0
  4 14  1  0  0  0  0
  5  7  1  0  0  0  0
  5 13  1  0  0  0  0
  7  9  1  6  0  0  0
  7 11  1  0  0  0  0
  8 17  2  0  0  0  0
  8 19  1  0  0  0  0
 10  8  1  0  0  0  0
 11 16  1  0  0  0  0
 11 14  2  0  0  0  0
 12 23  1  0  0  0  0
 13  4  2  0  0  0  0
 14 18  1  0  0  0  0
 15  1  1  0  0  0  0
 16  2  2  0  0  0  0
 17 21  1  0  0  0  0
 18  6  2  0  0  0  0
 19 20  2  0  0  0  0
 20 15  1  0  0  0  0
 21 15  2  0  0  0  0
 22 26  1  0  0  0  0
 23 27  1  0  0  0  0
 24 23  2  0  0  0  0
 24 25  1  0  0  0  0
 25 22  2  0  0  0  0
 27 26  2  0  0  0  0
M  END
>  <MODEL>
3

>  <REMARK>
 VINA RESULT:      -7.2      2.560      5.022
  Name = 
  1 active torsions:
  status: ('A' for Active; 'I' for Inactive)
    1  A    between atoms: C_9  and  N_15
                            x       y       z     vdW  Elec       q    Type
                         _______ _______ _______ _____ _____    ______ ____

>  <TORSDO>
F 1

$$$$
=
 OpenBabel11052423073D

 27 31  0  0  1  0  0  0  0  0999 V2000
  160.9090  211.0800  154.5190 C   0  0  0  0  0  2  0  0  0  0  0  0
  159.7190  212.3160  152.7550 C   0  0  0  0  0  0  0  0  0  0  0  0
  160.8570  210.3930  151.6280 O   0  0  0  0  0  0  0  0  0  0  0  0
  159.7970  214.4530  149.0860 C   0  0  0  0  0  3  0  0  0  0  0  0
  161.6090  213.0290  148.2230 C   0  0  0  0  0  2  0  0  0  0  0  0
  159.1400  213.5390  152.6190 N   0  0  0  0  0  0  0  0  0  0  0  0
  161.1930  211.9250  149.2050 C   0  0  1  0  0  3  0  0  0  0  0  0
  161.1100  207.0420  153.1440 C   0  0  0  0  0  0  0  0  0  0  0  0
  162.4520  211.1350  149.5210 C   0  0  0  0  0  1  0  0  0  0  0  0
  161.1990  205.3820  152.5950 Cl  0  0  0  0  0  0  0  0  0  0  0  0
  160.5160  212.4840  150.4570 C   0  0  0  0  0  0  0  0  0  0  0  0
  159.6810  211.6850  154.0400 N   0  0  0  0  0  0  0  0  0  0  0  0
  160.5730  214.0990  148.0660 C   0  0  0  0  0  3  0  0  0  0  0  0
  159.8520  213.7250  150.3610 C   0  0  0  0  0  0  0  0  0  0  0  0
  160.9730  209.6950  154.0130 C   0  0  0  0  0  0  0  0  0  0  0  0
  160.3850  211.7240  151.6480 C   0  0  0  0  0  0  0  0  0  0  0  0
  161.0080  208.0800  152.2160 C   0  0  0  0  0  3  0  0  0  0  0  0
  159.1700  214.2330  151.4570 C   0  0  0  0  0  3  0  0  0  0  0  0
  161.1420  207.3280  154.5090 C   0  0  0  0  0  3  0  0  0  0  0  0
  161.0750  208.6530  154.9410 C   0  0  0  0  0  3  0  0  0  0  0  0
  160.9290  209.4140  152.6330 C   0  0  0  0  0  0  0  0  0  0  0  0
  156.1570  211.6590  156.4270 C   0  0  0  0  0  3  0  0  0  0  0  0
  158.4890  211.6620  154.8540 C   0  0  0  0  0  0  0  0  0  0  0  0
  158.5590  211.8810  156.2410 C   0  0  0  0  0  3  0  0  0  0  0  0
  157.4010  211.8770  157.0220 C   0  0  0  0  0  3  0  0  0  0  0  0
  156.0710  211.4460  155.0490 C   0  0  0  0  0  3  0  0  0  0  0  0
  157.2300  211.4500  154.2680 C   0  0  0  0  0  3  0  0  0  0  0  0
  2 12  1  0  0  0  0
  3 16  1  0  0  0  0
  3 21  1  0  0  0  0
  4 14  1  0  0  0  0
  5  7  1  0  0  0  0
  6  2  1  0  0  0  0
  7  9  1  1  0  0  0
  7 11  1  0  0  0  0
  8 19  1  0  0  0  0
 10  8  1  0  0  0  0
 11 16  1  0  0  0  0
 12  1  1  0  0  0  0
 12 23  1  0  0  0  0
 13  5  1  0  0  0  0
 13  4  2  0  0  0  0
 14 11  2  0  0  0  0
 14 18  1  0  0  0  0
 15  1  1  0  0  0  0
 15 20  1  0  0  0  0
 16  2  2  0  0  0  0
 17 21  1  0  0  0  0
 17  8  2  0  0  0  0
 18  6  2  0  0  0  0
 19 20  2  0  0  0  0
 21 15  2  0  0  0  0
 22 25  1  0  0  0  0
 23 24  1  0  0  0  0
 24 25  2  0  0  0  0
 26 22  2  0  0  0  0
 27 23  2  0  0  0  0
 27 26  1  0  0  0  0
M  END
>  <MODEL>
4

>  <REMARK>
 VINA RESULT:      -6.3      3.152      6.540
  Name = 
  1 active torsions:
  status: ('A' for Active; 'I' for Inactive)
    1  A    between atoms: C_9  and  N_15
                            x       y       z     vdW  Elec       q    Type
                         _______ _______ _______ _____ _____    ______ ____

>  <TORSDO>
F 1

$$$$
=
 OpenBabel11052423073D

 27 31  0  0  1  0  0  0  0  0999 V2000
  162.9490  207.7560  151.6750 C   0  0  0  0  0  2  0  0  0  0  0  0
  161.8930  206.7970  149.6700 C   0  0  0  0  0  0  0  0  0  0  0  0
  160.9540  205.5530  151.6280 O   0  0  0  0  0  0  0  0  0  0  0  0
  161.0850  203.4340  147.2060 C   0  0  0  0  0  3  0  0  0  0  0  0
  160.9910  201.9440  149.1620 C   0  0  0  0  0  2  0  0  0  0  0  0
  162.1130  206.8140  148.3270 N   0  0  0  0  0  0  0  0  0  0  0  0
  160.6670  203.1520  150.0510 C   0  0  1  0  0  3  0  0  0  0  0  0
  160.1310  207.1820  154.8320 C   0  0  0  0  0  0  0  0  0  0  0  0
  161.2130  202.8270  151.4320 C   0  0  0  0  0  1  0  0  0  0  0  0
  158.9860  206.9540  156.1360 Cl  0  0  0  0  0  0  0  0  0  0  0  0
  161.2280  204.4580  149.4860 C   0  0  0  0  0  0  0  0  0  0  0  0
  162.2330  207.9620  150.4300 N   0  0  0  0  0  0  0  0  0  0  0  0
  160.8260  202.2270  147.7010 C   0  0  0  0  0  3  0  0  0  0  0  0
  161.4250  204.5530  148.0930 C   0  0  0  0  0  0  0  0  0  0  0  0
  161.9600  207.5340  152.7480 C   0  0  0  0  0  0  0  0  0  0  0  0
  161.3870  205.6200  150.2850 C   0  0  0  0  0  0  0  0  0  0  0  0
  160.1190  206.3180  153.7340 C   0  0  0  0  0  3  0  0  0  0  0  0
  161.8700  205.7430  147.5360 C   0  0  0  0  0  3  0  0  0  0  0  0
  161.0570  208.2240  154.8890 C   0  0  0  0  0  3  0  0  0  0  0  0
  161.9700  208.3970  153.8490 C   0  0  0  0  0  3  0  0  0  0  0  0
  161.0210  206.4860  152.6770 C   0  0  0  0  0  0  0  0  0  0  0  0
  161.3240  211.9050  149.1080 C   0  0  0  0  0  3  0  0  0  0  0  0
  161.9100  209.2960  149.9830 C   0  0  0  0  0  0  0  0  0  0  0  0
  161.5680  210.3010  150.9040 C   0  0  0  0  0  3  0  0  0  0  0  0
  161.2750  211.5960  150.4700 C   0  0  0  0  0  3  0  0  0  0  0  0
  161.6690  210.9170  148.1820 C   0  0  0  0  0  3  0  0  0  0  0  0
  161.9620  209.6220  148.6170 C   0  0  0  0  0  3  0  0  0  0  0  0
  1 15  1  0  0  0  0
  2 16  1  0  0  0  0
  2 12  1  0  0  0  0
  3 21  1  0  0  0  0
  4 13  2  0  0  0  0
  4 14  1  0  0  0  0
  5  7  1  0  0  0  0
  6  2  2  0  0  0  0
  7  9  1  1  0  0  0
  8 19  1  0  0  0  0
  8 10  1  0  0  0  0
 11  7  1  0  0  0  0
 11 16  2  0  0  0  0
 12  1  1  0  0  0  0
 13  5  1  0  0  0  0
 14 11  1  0  0  0  0
 15 20  1  0  0  0  0
 16  3  1  0  0  0  0
 17  8  2  0  0  0  0
 18 14  2  0  0  0  0
 18  6  1  0  0  0  0
 20 19  2  0  0  0  0
 21 15  2  0  0  0  0
 21 17  1  0  0  0  0
 22 25  1  0  0  0  0
 23 12  1  0  0  0  0
 23 24  1  0  0  0  0
 25 24  2  0  0  0  0
 26 27  1  0  0  0  0
 26 22  2  0  0  0  0
 27 23  2  0  0  0  0
M  END
>  <MODEL>
5

>  <REMARK>
 VINA RESULT:      -5.6      1.586      2.100
  Name = 
  1 active torsions:
  status: ('A' for Active; 'I' for Inactive)
    1  A    between atoms: C_9  and  N_15
                            x       y       z     vdW  Elec       q    Type
                         _______ _______ _______ _____ _____    ______ ____

>  <TORSDO>
F 1

$$$$
