=
 OpenBabel11062410203D

 43 48  0  0  1  0  0  0  0  0999 V2000
  161.0550  202.3160  149.9540 C   0  0  0  0  0  0  0  0  0  0  0  0
  161.3870  206.9270  151.9420 C   0  0  0  0  0  0  0  0  0  0  0  0
  161.3460  204.1950  151.4860 C   0  0  0  0  0  0  0  0  0  0  0  0
  160.8270  203.1030  148.8950 C   0  0  0  0  0  3  0  0  0  0  0  0
  161.0240  200.5780  149.7510 Cl  0  0  0  0  0  0  0  0  0  0  0  0
  161.0970  205.1230  150.3540 C   0  0  0  0  0  0  0  0  0  0  0  0
  161.3260  202.8780  151.2890 C   0  0  0  0  0  3  0  0  0  0  0  0
  160.8320  204.6090  148.9660 C   0  0  0  0  0  2  0  0  0  0  0  0
  160.9520  207.5070  149.7590 N   0  0  0  0  0  2  0  0  0  0  0  0
  161.1310  206.4240  150.6390 C   0  0  0  0  0  0  0  0  0  0  0  0
  161.6270  206.1220  152.9790 C   0  0  0  0  0  3  0  0  0  0  0  0
  161.3650  208.4130  151.8590 C   0  0  1  0  0  3  0  0  0  0  0  0
  161.0860  208.7420  150.4360 N   0  0  1  0  0  0  0  0  0  0  0  0
  161.6030  204.7270  152.7650 O   0  0  0  0  0  0  0  0  0  0  0  0
  161.8490  210.6960  149.2250 C   0  0  2  0  0  3  0  0  0  0  0  0
  162.4890  210.7260  150.5960 C   0  0  0  0  0  2  0  0  0  0  0  0
  162.2670  209.4000  149.8950 C   0  0  1  0  0  3  0  0  0  0  0  0
  162.7960  211.0430  148.2600 O   0  0  0  0  0  0  0  0  0  0  0  0
  162.2820  212.1970  147.6530 C   0  0  2  0  0  3  0  0  0  0  0  0
  163.0940  213.4290  148.0430 C   0  0  0  0  0  2  0  0  0  0  0  0
  163.0450  214.3980  147.0390 O   0  0  0  0  0  1  0  0  0  0  0  0
  160.7830  212.3660  147.9250 C   0  0  1  0  0  3  0  0  0  0  0  0
  160.5480  213.6250  148.4850 O   0  0  0  0  0  0  0  0  0  0  0  0
  158.3800  214.3260  149.1550 C   0  0  0  0  0  1  0  0  0  0  0  0
  159.5570  213.4200  149.4470 C   0  0  0  0  0  2  0  0  0  0  0  0
  159.9550  212.2040  146.6510 C   0  0  0  0  0  2  0  0  0  0  0  0
  160.2100  213.3430  145.6690 C   0  0  2  0  0  3  0  0  0  0  0  0
  159.0450  214.0960  145.5170 O   0  0  0  0  0  1  0  0  0  0  0  0
  160.6690  212.8410  144.3370 C   0  0  0  0  0  0  0  0  0  0  0  0
  162.4300  212.5780  142.7000 C   0  0  0  0  0  3  0  0  0  0  0  0
  160.2490  211.7000  142.2750 N   0  0  0  0  0  0  0  0  0  0  0  0
  161.5340  211.8930  141.8760 C   0  0  0  0  0  3  0  0  0  0  0  0
  159.8000  212.1590  143.4750 C   0  0  0  0  0  3  0  0  0  0  0  0
  161.9900  213.0550  143.9360 C   0  0  0  0  0  3  0  0  0  0  0  0
  160.2510  208.9630  152.7360 C   0  0  0  0  0  2  0  0  0  0  0  0
  160.8410  209.6900  153.9320 C   0  0  0  0  0  2  0  0  0  0  0  0
  158.9410  212.9690  153.9260 C   0  0  0  0  0  3  0  0  0  0  0  0
  158.4550  211.7900  155.9870 C   0  0  0  0  0  3  0  0  0  0  0  0
  158.2810  212.9030  155.1580 C   0  0  0  0  0  0  0  0  0  0  0  0
  159.7720  211.9200  153.5220 C   0  0  0  0  0  3  0  0  0  0  0  0
  159.9430  210.8020  154.3490 C   0  0  0  0  0  0  0  0  0  0  0  0
  157.4810  213.9210  155.5510 F   0  0  0  0  0  0  0  0  0  0  0  0
  159.2870  210.7400  155.5830 C   0  0  0  0  0  3  0  0  0  0  0  0
  1  7  1  0  0  0  0
  2 11  2  0  0  0  0
  3 14  1  0  0  0  0
  4  8  1  0  0  0  0
  4  1  2  0  0  0  0
  5  1  1  0  0  0  0
  6 10  2  0  0  0  0
  6  3  1  0  0  0  0
  7  3  2  0  0  0  0
  8  6  1  0  0  0  0
  9 10  1  0  0  0  0
 10  2  1  0  0  0  0
 12  2  1  0  0  0  0
 12 35  1  1  0  0  0
 13  9  1  6  0  0  0
 13 12  1  0  0  0  0
 14 11  1  0  0  0  0
 15 18  1  6  0  0  0
 15 17  1  0  0  0  0
 15 16  1  0  0  0  0
 17 13  1  0  0  0  0
 17 16  1  1  0  0  0
 19 22  1  0  0  0  0
 19 20  1  1  0  0  0
 19 18  1  0  0  0  0
 21 20  1  0  0  0  0
 22 26  1  6  0  0  0
 22 23  1  0  0  0  0
 23 25  1  0  0  0  0
 24 25  1  0  0  0  0
 27 28  1  6  0  0  0
 27 26  1  0  0  0  0
 29 27  1  0  0  0  0
 30 34  2  0  0  0  0
 31 33  1  0  0  0  0
 32 31  2  0  0  0  0
 32 30  1  0  0  0  0
 33 29  2  0  0  0  0
 34 29  1  0  0  0  0
 35 36  1  0  0  0  0
 36 41  1  0  0  0  0
 37 39  1  0  0  0  0
 39 42  1  0  0  0  0
 39 38  2  0  0  0  0
 40 37  2  0  0  0  0
 40 41  1  0  0  0  0
 41 43  2  0  0  0  0
 43 38  1  0  0  0  0
M  END
>  <MODEL>
1

>  <REMARK>
 VINA RESULT:      -7.0      0.000      0.000
  Name = 
  13 active torsions:
  status: ('A' for Active; 'I' for Inactive)
    1  A    between atoms: C_1  and  C_28
    2  A    between atoms: C_1  and  C_34
    3  A    between atoms: C_2  and  O_6
    4  A    between atoms: C_3  and  C_4
    5  A    between atoms: C_3  and  O_6
    6  A    between atoms: C_3  and  C_12
    7  A    between atoms: C_4  and  O_15
    8  A    between atoms: C_4  and  C_22
    9  A    between atoms: C_11  and  C_14
   10  A    between atoms: C_13  and  N_38
   11  A    between atoms: C_14  and  C_22
   12  A    between atoms: O_15  and  C_42
   13  A    between atoms: C_28  and  C_35
                            x       y       z     vdW  Elec       q    Type
                         _______ _______ _______ _____ _____    ______ ____

>  <TORSDO>
F 13

$$$$
=
 OpenBabel11062410203D

 43 48  0  0  1  0  0  0  0  0999 V2000
  161.0800  202.2960  149.9420 C   0  0  0  0  0  0  0  0  0  0  0  0
  161.1130  207.3190  149.6440 C   0  0  0  0  0  0  0  0  0  0  0  0
  160.9050  204.6010  149.1540 C   0  0  1  0  0  3  0  0  0  0  0  0
  161.4330  202.6550  151.1820 C   0  0  0  0  0  3  0  0  0  0  0  0
  160.9480  200.5950  149.5480 Cl  0  0  0  0  0  0  0  0  0  0  0  0
  161.2960  205.0660  150.5090 C   0  0  0  0  0  0  0  0  0  0  0  0
  160.8030  203.2980  148.8960 C   0  0  0  0  0  3  0  0  0  0  0  0
  161.5740  204.0910  151.6190 C   0  0  0  0  0  3  0  0  0  0  0  0
  161.7040  207.0860  151.8540 N   0  0  0  0  0  2  0  0  0  0  0  0
  161.3780  206.3840  150.6790 C   0  0  0  0  0  0  0  0  0  0  0  0
  160.7450  206.9360  148.4180 C   0  0  0  0  0  3  0  0  0  0  0  0
  161.2850  208.6810  150.2170 C   0  0  1  0  0  3  0  0  0  0  0  0
  161.6620  208.4840  151.6420 N   0  0  1  0  0  0  0  0  0  0  0  0
  160.6410  205.5550  148.1510 O   0  0  0  0  0  0  0  0  0  0  0  0
  161.1560  209.9420  153.5090 C   0  0  2  0  0  3  0  0  0  0  0  0
  160.4730  210.5100  152.2840 C   0  0  0  0  0  2  0  0  0  0  0  0
  160.5780  209.0070  152.4620 C   0  0  1  0  0  3  0  0  0  0  0  0
  160.2880  210.0060  154.6000 O   0  0  0  0  0  0  0  0  0  0  0  0
  160.4700  211.2910  155.1280 C   0  0  2  0  0  3  0  0  0  0  0  0
  161.1850  211.2340  156.4750 C   0  0  0  0  0  2  0  0  0  0  0  0
  161.7690  209.9820  156.6780 O   0  0  0  0  0  1  0  0  0  0  0  0
  159.1520  212.0740  155.1910 C   0  0  1  0  0  3  0  0  0  0  0  0
  158.9160  212.4870  156.5060 O   0  0  0  0  0  0  0  0  0  0  0  0
  156.7710  213.4590  156.8190 C   0  0  0  0  0  1  0  0  0  0  0  0
  157.5770  212.1780  156.7520 C   0  0  0  0  0  2  0  0  0  0  0  0
  159.1710  213.2870  154.2630 C   0  0  0  0  0  2  0  0  0  0  0  0
  158.0170  213.2480  153.2670 C   0  0  2  0  0  3  0  0  0  0  0  0
  157.4370  211.9780  153.2750 O   0  0  0  0  0  1  0  0  0  0  0  0
  158.4600  213.5950  151.8820 C   0  0  0  0  0  0  0  0  0  0  0  0
  157.9960  213.7180  149.5110 C   0  0  0  0  0  3  0  0  0  0  0  0
  160.1030  214.4530  150.3660 N   0  0  0  0  0  0  0  0  0  0  0  0
  159.2670  214.2600  149.3100 C   0  0  0  0  0  3  0  0  0  0  0  0
  159.7310  214.1310  151.6350 C   0  0  0  0  0  3  0  0  0  0  0  0
  157.5950  213.3840  150.8060 C   0  0  0  0  0  3  0  0  0  0  0  0
  162.4050  209.4100  149.4910 C   0  0  0  0  0  2  0  0  0  0  0  0
  162.3310  210.8990  149.7790 C   0  0  0  0  0  2  0  0  0  0  0  0
  162.7820  213.2820  146.8680 C   0  0  0  0  0  3  0  0  0  0  0  0
  160.6340  212.1820  146.6490 C   0  0  0  0  0  3  0  0  0  0  0  0
  161.5840  213.0890  146.1710 C   0  0  0  0  0  0  0  0  0  0  0  0
  163.0290  212.5650  148.0420 C   0  0  0  0  0  3  0  0  0  0  0  0
  162.0810  211.6520  148.5200 C   0  0  0  0  0  0  0  0  0  0  0  0
  161.3430  213.7880  145.0370 F   0  0  0  0  0  0  0  0  0  0  0  0
  160.8810  211.4650  147.8240 C   0  0  0  0  0  3  0  0  0  0  0  0
  1  4  1  0  0  0  0
  2 12  1  0  0  0  0
  2 10  1  0  0  0  0
  3  7  1  1  0  0  0
  3  6  1  0  0  0  0
  4  8  2  0  0  0  0
  5  1  1  0  0  0  0
  6 10  2  0  0  0  0
  6  8  1  0  0  0  0
  7  1  2  0  0  0  0
 10  9  1  0  0  0  0
 11  2  2  0  0  0  0
 12 35  1  6  0  0  0
 12 13  1  0  0  0  0
 13  9  1  6  0  0  0
 13 17  1  0  0  0  0
 14 11  1  0  0  0  0
 14  3  1  0  0  0  0
 15 18  1  1  0  0  0
 16 15  1  0  0  0  0
 17 16  1  6  0  0  0
 17 15  1  0  0  0  0
 18 19  1  0  0  0  0
 19 22  1  0  0  0  0
 19 20  1  1  0  0  0
 20 21  1  0  0  0  0
 22 26  1  6  0  0  0
 22 23  1  0  0  0  0
 23 25  1  0  0  0  0
 25 24  1  0  0  0  0
 27 28  1  6  0  0  0
 27 26  1  0  0  0  0
 29 27  1  0  0  0  0
 30 34  1  0  0  0  0
 31 33  2  0  0  0  0
 32 30  2  0  0  0  0
 32 31  1  0  0  0  0
 33 29  1  0  0  0  0
 34 29  2  0  0  0  0
 35 36  1  0  0  0  0
 37 40  1  0  0  0  0
 38 43  2  0  0  0  0
 39 38  1  0  0  0  0
 39 37  2  0  0  0  0
 40 41  2  0  0  0  0
 41 36  1  0  0  0  0
 42 39  1  0  0  0  0
 43 41  1  0  0  0  0
M  END
>  <MODEL>
2

>  <REMARK>
 VINA RESULT:      -6.9      3.482      6.501
  Name = 
  13 active torsions:
  status: ('A' for Active; 'I' for Inactive)
    1  A    between atoms: C_1  and  C_28
    2  A    between atoms: C_1  and  C_34
    3  A    between atoms: C_2  and  O_6
    4  A    between atoms: C_3  and  C_4
    5  A    between atoms: C_3  and  O_6
    6  A    between atoms: C_3  and  C_12
    7  A    between atoms: C_4  and  O_15
    8  A    between atoms: C_4  and  C_22
    9  A    between atoms: C_11  and  C_14
   10  A    between atoms: C_13  and  N_38
   11  A    between atoms: C_14  and  C_22
   12  A    between atoms: O_15  and  C_42
   13  A    between atoms: C_28  and  C_35
                            x       y       z     vdW  Elec       q    Type
                         _______ _______ _______ _____ _____    ______ ____

>  <TORSDO>
F 13

$$$$
=
 OpenBabel11062410203D

 43 48  0  0  1  0  0  0  0  0999 V2000
  161.0860  202.3570  149.5430 C   0  0  0  0  0  0  0  0  0  0  0  0
  161.1760  207.3880  149.5610 C   0  0  0  0  0  0  0  0  0  0  0  0
  160.9910  204.7080  148.8880 C   0  0  1  0  0  3  0  0  0  0  0  0
  161.3400  202.6350  150.8270 C   0  0  0  0  0  3  0  0  0  0  0  0
  160.9760  200.6850  149.0350 Cl  0  0  0  0  0  0  0  0  0  0  0  0
  161.2740  205.0840  150.2960 C   0  0  0  0  0  0  0  0  0  0  0  0
  160.9030  203.4240  148.5420 C   0  0  0  0  0  3  0  0  0  0  0  0
  161.4530  204.0400  151.3630 C   0  0  0  0  0  3  0  0  0  0  0  0
  161.5830  207.0130  151.7930 N   0  0  0  0  0  2  0  0  0  0  0  0
  161.3490  206.3880  150.5550 C   0  0  0  0  0  0  0  0  0  0  0  0
  160.9080  207.0850  148.2880 C   0  0  0  0  0  3  0  0  0  0  0  0
  161.3100  208.7110  150.2300 C   0  0  1  0  0  3  0  0  0  0  0  0
  161.5670  208.4220  151.6660 N   0  0  1  0  0  0  0  0  0  0  0  0
  160.8170  205.7240  147.9280 O   0  0  0  0  0  0  0  0  0  0  0  0
  160.9220  209.6190  153.6700 C   0  0  2  0  0  3  0  0  0  0  0  0
  160.4420  210.4220  152.4810 C   0  0  0  0  0  2  0  0  0  0  0  0
  160.4240  208.9060  152.4260 C   0  0  1  0  0  3  0  0  0  0  0  0
  159.9250  209.5910  154.6480 O   0  0  0  0  0  0  0  0  0  0  0  0
  160.6180  209.5880  155.8660 C   0  0  2  0  0  3  0  0  0  0  0  0
  160.2000  208.4030  156.7310 C   0  0  0  0  0  2  0  0  0  0  0  0
  159.3540  207.5440  156.0270 O   0  0  0  0  0  1  0  0  0  0  0  0
  160.4910  210.9290  156.5980 C   0  0  1  0  0  3  0  0  0  0  0  0
  161.6910  211.2180  157.2560 O   0  0  0  0  0  0  0  0  0  0  0  0
  164.0340  211.3200  156.8800 C   0  0  0  0  0  1  0  0  0  0  0  0
  162.6980  210.8190  156.3740 C   0  0  0  0  0  2  0  0  0  0  0  0
  160.1400  212.0660  155.6400 C   0  0  0  0  0  2  0  0  0  0  0  0
  158.7840  212.6790  155.9720 C   0  0  2  0  0  3  0  0  0  0  0  0
  157.9830  211.7250  156.6010 O   0  0  0  0  0  1  0  0  0  0  0  0
  158.0910  213.2020  154.7540 C   0  0  0  0  0  0  0  0  0  0  0  0
  158.1740  214.4310  152.6730 C   0  0  0  0  0  3  0  0  0  0  0  0
  156.1300  213.4310  153.4010 N   0  0  0  0  0  0  0  0  0  0  0  0
  156.8190  214.1550  152.4790 C   0  0  0  0  0  3  0  0  0  0  0  0
  156.7310  212.9570  154.5260 C   0  0  0  0  0  3  0  0  0  0  0  0
  158.8100  213.9510  153.8200 C   0  0  0  0  0  3  0  0  0  0  0  0
  162.4900  209.4690  149.6450 C   0  0  0  0  0  2  0  0  0  0  0  0
  162.3620  210.9510  149.9520 C   0  0  0  0  0  2  0  0  0  0  0  0
  162.8220  212.9010  146.7360 C   0  0  0  0  0  3  0  0  0  0  0  0
  160.4510  212.7030  147.1950 C   0  0  0  0  0  3  0  0  0  0  0  0
  161.4930  213.1630  146.3850 C   0  0  0  0  0  0  0  0  0  0  0  0
  163.1070  212.1750  147.8960 C   0  0  0  0  0  3  0  0  0  0  0  0
  162.0640  211.7090  148.7070 C   0  0  0  0  0  0  0  0  0  0  0  0
  161.2180  213.8710  145.2640 F   0  0  0  0  0  0  0  0  0  0  0  0
  160.7360  211.9770  148.3570 C   0  0  0  0  0  3  0  0  0  0  0  0
  1  4  1  0  0  0  0
  2 12  1  0  0  0  0
  2 10  1  0  0  0  0
  3  7  1  1  0  0  0
  3  6  1  0  0  0  0
  4  8  2  0  0  0  0
  5  1  1  0  0  0  0
  6 10  2  0  0  0  0
  6  8  1  0  0  0  0
  7  1  2  0  0  0  0
 10  9  1  0  0  0  0
 11  2  2  0  0  0  0
 12 35  1  6  0  0  0
 12 13  1  0  0  0  0
 13  9  1  6  0  0  0
 13 17  1  0  0  0  0
 14 11  1  0  0  0  0
 14  3  1  0  0  0  0
 15 18  1  1  0  0  0
 16 15  1  0  0  0  0
 17 16  1  6  0  0  0
 17 15  1  0  0  0  0
 18 19  1  0  0  0  0
 19 22  1  0  0  0  0
 19 20  1  1  0  0  0
 21 20  1  0  0  0  0
 22 26  1  6  0  0  0
 22 23  1  0  0  0  0
 25 24  1  0  0  0  0
 25 23  1  0  0  0  0
 26 27  1  0  0  0  0
 27 28  1  6  0  0  0
 29 27  1  0  0  0  0
 30 34  1  0  0  0  0
 31 33  2  0  0  0  0
 32 30  2  0  0  0  0
 32 31  1  0  0  0  0
 33 29  1  0  0  0  0
 34 29  2  0  0  0  0
 35 36  1  0  0  0  0
 37 40  1  0  0  0  0
 38 43  2  0  0  0  0
 39 37  2  0  0  0  0
 39 38  1  0  0  0  0
 40 41  2  0  0  0  0
 41 36  1  0  0  0  0
 42 39  1  0  0  0  0
 43 41  1  0  0  0  0
M  END
>  <MODEL>
3

>  <REMARK>
 VINA RESULT:      -6.6      3.745      7.535
  Name = 
  13 active torsions:
  status: ('A' for Active; 'I' for Inactive)
    1  A    between atoms: C_1  and  C_28
    2  A    between atoms: C_1  and  C_34
    3  A    between atoms: C_2  and  O_6
    4  A    between atoms: C_3  and  C_4
    5  A    between atoms: C_3  and  O_6
    6  A    between atoms: C_3  and  C_12
    7  A    between atoms: C_4  and  O_15
    8  A    between atoms: C_4  and  C_22
    9  A    between atoms: C_11  and  C_14
   10  A    between atoms: C_13  and  N_38
   11  A    between atoms: C_14  and  C_22
   12  A    between atoms: O_15  and  C_42
   13  A    between atoms: C_28  and  C_35
                            x       y       z     vdW  Elec       q    Type
                         _______ _______ _______ _____ _____    ______ ____

>  <TORSDO>
F 13

$$$$
=
 OpenBabel11062410203D

 43 48  0  0  1  0  0  0  0  0999 V2000
  161.1660  202.3190  149.7310 C   0  0  0  0  0  0  0  0  0  0  0  0
  161.5240  206.9140  151.7480 C   0  0  0  0  0  0  0  0  0  0  0  0
  161.5420  204.1890  151.2550 C   0  0  0  0  0  0  0  0  0  0  0  0
  160.7980  203.1080  148.7140 C   0  0  0  0  0  3  0  0  0  0  0  0
  161.1820  200.5830  149.5040 Cl  0  0  0  0  0  0  0  0  0  0  0  0
  161.1400  205.1200  150.1700 C   0  0  0  0  0  0  0  0  0  0  0  0
  161.5520  202.8750  151.0400 C   0  0  0  0  0  3  0  0  0  0  0  0
  160.7520  204.6120  148.8090 C   0  0  0  0  0  2  0  0  0  0  0  0
  160.8420  207.5030  149.6320 N   0  0  0  0  0  2  0  0  0  0  0  0
  161.1540  206.4170  150.4710 C   0  0  0  0  0  0  0  0  0  0  0  0
  161.9030  206.1070  152.7420 C   0  0  0  0  0  3  0  0  0  0  0  0
  161.4360  208.3990  151.6930 C   0  0  1  0  0  3  0  0  0  0  0  0
  160.9970  208.7340  150.3120 N   0  0  1  0  0  0  0  0  0  0  0  0
  161.9110  204.7160  152.5090 O   0  0  0  0  0  0  0  0  0  0  0  0
  161.7150  210.9110  149.5270 C   0  0  2  0  0  3  0  0  0  0  0  0
  162.6760  210.4730  150.6110 C   0  0  0  0  0  2  0  0  0  0  0  0
  162.0890  209.4450  149.6620 C   0  0  1  0  0  3  0  0  0  0  0  0
  162.4300  211.4740  148.4680 O   0  0  0  0  0  0  0  0  0  0  0  0
  162.0520  212.8230  148.4590 C   0  0  2  0  0  3  0  0  0  0  0  0
  160.9030  213.0770  149.4300 C   0  0  0  0  0  2  0  0  0  0  0  0
  160.3010  214.3110  149.1780 O   0  0  0  0  0  1  0  0  0  0  0  0
  161.7490  213.3210  147.0400 C   0  0  1  0  0  3  0  0  0  0  0  0
  162.9340  213.3750  146.3000 O   0  0  0  0  0  0  0  0  0  0  0  0
  163.5380  213.5110  144.0070 C   0  0  0  0  0  1  0  0  0  0  0  0
  162.5820  213.9720  145.0870 C   0  0  0  0  0  2  0  0  0  0  0  0
  160.7360  212.4240  146.3310 C   0  0  0  0  0  2  0  0  0  0  0  0
  159.4620  213.1860  145.9810 C   0  0  2  0  0  3  0  0  0  0  0  0
  158.3640  212.5480  146.5590 O   0  0  0  0  0  1  0  0  0  0  0  0
  159.2650  213.2980  144.5020 C   0  0  0  0  0  0  0  0  0  0  0  0
  159.5820  212.3970  142.2800 C   0  0  0  0  0  3  0  0  0  0  0  0
  158.4010  214.4510  142.5910 N   0  0  0  0  0  0  0  0  0  0  0  0
  158.8830  213.4890  141.7600 C   0  0  0  0  0  3  0  0  0  0  0  0
  158.5800  214.3820  143.9380 C   0  0  0  0  0  3  0  0  0  0  0  0
  159.7730  212.3070  143.6610 C   0  0  0  0  0  3  0  0  0  0  0  0
  160.4000  208.8940  152.6890 C   0  0  0  0  0  2  0  0  0  0  0  0
  161.0660  209.7490  153.7530 C   0  0  0  0  0  2  0  0  0  0  0  0
  158.9990  212.4310  155.4540 C   0  0  0  0  0  3  0  0  0  0  0  0
  159.2770  213.0240  153.1210 C   0  0  0  0  0  3  0  0  0  0  0  0
  158.7620  213.3070  154.3890 C   0  0  0  0  0  0  0  0  0  0  0  0
  159.7540  211.2730  155.2490 C   0  0  0  0  0  3  0  0  0  0  0  0
  160.2760  210.9900  153.9810 C   0  0  0  0  0  0  0  0  0  0  0  0
  158.0250  214.4260  154.5870 F   0  0  0  0  0  0  0  0  0  0  0  0
  160.0330  211.8650  152.9160 C   0  0  0  0  0  3  0  0  0  0  0  0
  1  7  1  0  0  0  0
  2 11  2  0  0  0  0
  3 14  1  0  0  0  0
  4  8  1  0  0  0  0
  4  1  2  0  0  0  0
  5  1  1  0  0  0  0
  6 10  2  0  0  0  0
  6  3  1  0  0  0  0
  7  3  2  0  0  0  0
  8  6  1  0  0  0  0
  9 10  1  0  0  0  0
 10  2  1  0  0  0  0
 12  2  1  0  0  0  0
 12 35  1  1  0  0  0
 13  9  1  6  0  0  0
 13 12  1  0  0  0  0
 14 11  1  0  0  0  0
 15 18  1  6  0  0  0
 15 17  1  0  0  0  0
 15 16  1  0  0  0  0
 17 13  1  0  0  0  0
 17 16  1  1  0  0  0
 19 18  1  0  0  0  0
 19 20  1  1  0  0  0
 21 20  1  0  0  0  0
 22 26  1  6  0  0  0
 22 19  1  0  0  0  0
 23 22  1  0  0  0  0
 24 25  1  0  0  0  0
 25 23  1  0  0  0  0
 27 26  1  0  0  0  0
 27 28  1  1  0  0  0
 29 27  1  0  0  0  0
 30 34  1  0  0  0  0
 31 33  2  0  0  0  0
 32 30  2  0  0  0  0
 32 31  1  0  0  0  0
 33 29  1  0  0  0  0
 34 29  2  0  0  0  0
 35 36  1  0  0  0  0
 36 41  1  0  0  0  0
 38 39  1  0  0  0  0
 39 42  1  0  0  0  0
 39 37  2  0  0  0  0
 40 37  1  0  0  0  0
 41 40  2  0  0  0  0
 43 38  2  0  0  0  0
 43 41  1  0  0  0  0
M  END
>  <MODEL>
4

>  <REMARK>
 VINA RESULT:      -6.5      1.107      2.125
  Name = 
  13 active torsions:
  status: ('A' for Active; 'I' for Inactive)
    1  A    between atoms: C_1  and  C_28
    2  A    between atoms: C_1  and  C_34
    3  A    between atoms: C_2  and  O_6
    4  A    between atoms: C_3  and  C_4
    5  A    between atoms: C_3  and  O_6
    6  A    between atoms: C_3  and  C_12
    7  A    between atoms: C_4  and  O_15
    8  A    between atoms: C_4  and  C_22
    9  A    between atoms: C_11  and  C_14
   10  A    between atoms: C_13  and  N_38
   11  A    between atoms: C_14  and  C_22
   12  A    between atoms: O_15  and  C_42
   13  A    between atoms: C_28  and  C_35
                            x       y       z     vdW  Elec       q    Type
                         _______ _______ _______ _____ _____    ______ ____

>  <TORSDO>
F 13

$$$$
=
 OpenBabel11062410203D

 43 48  0  0  1  0  0  0  0  0999 V2000
  161.8900  212.9210  148.6340 C   0  0  0  0  0  0  0  0  0  0  0  0
  161.9550  208.0180  149.7670 C   0  0  0  0  0  0  0  0  0  0  0  0
  162.2490  210.5060  148.5850 C   0  0  1  0  0  3  0  0  0  0  0  0
  161.2730  212.8920  149.8220 C   0  0  0  0  0  3  0  0  0  0  0  0
  162.0950  214.4530  147.8130 Cl  0  0  0  0  0  0  0  0  0  0  0  0
  161.5700  210.4040  149.9020 C   0  0  0  0  0  0  0  0  0  0  0  0
  162.3970  211.6920  147.9970 C   0  0  0  0  0  3  0  0  0  0  0  0
  161.0480  211.6250  150.6070 C   0  0  0  0  0  3  0  0  0  0  0  0
  160.8880  208.8070  151.6450 N   0  0  0  0  0  2  0  0  0  0  0  0
  161.4620  209.1810  150.4160 C   0  0  0  0  0  0  0  0  0  0  0  0
  162.5820  208.0750  148.5890 C   0  0  0  0  0  3  0  0  0  0  0  0
  161.6690  206.8570  150.6520 C   0  0  1  0  0  3  0  0  0  0  0  0
  160.9850  207.4100  151.8510 N   0  0  1  0  0  0  0  0  0  0  0  0
  162.7340  209.3340  147.9710 O   0  0  0  0  0  0  0  0  0  0  0  0
  161.0300  207.1920  154.2630 C   0  0  2  0  0  3  0  0  0  0  0  0
  161.5330  205.8930  153.6740 C   0  0  0  0  0  2  0  0  0  0  0  0
  161.8630  207.2080  152.9940 C   0  0  1  0  0  3  0  0  0  0  0  0
  161.8320  207.5570  155.3460 O   0  0  0  0  0  0  0  0  0  0  0  0
  160.9360  208.0410  156.3080 C   0  0  2  0  0  3  0  0  0  0  0  0
  159.4910  207.8000  155.8820 C   0  0  0  0  0  2  0  0  0  0  0  0
  159.0260  206.5740  156.3620 O   0  0  0  0  0  1  0  0  0  0  0  0
  161.2120  209.5080  156.6600 C   0  0  1  0  0  3  0  0  0  0  0  0
  162.5640  209.6650  156.9810 O   0  0  0  0  0  0  0  0  0  0  0  0
  164.2360  211.3410  157.1750 C   0  0  0  0  0  1  0  0  0  0  0  0
  162.7530  211.0430  157.1080 C   0  0  0  0  0  2  0  0  0  0  0  0
  160.8410  210.4440  155.5110 C   0  0  0  0  0  2  0  0  0  0  0  0
  159.9080  211.5570  155.9750 C   0  0  2  0  0  3  0  0  0  0  0  0
  158.9700  211.0370  156.8690 O   0  0  0  0  0  1  0  0  0  0  0  0
  159.2080  212.2160  154.8290 C   0  0  0  0  0  0  0  0  0  0  0  0
  158.2770  212.0870  152.6010 C   0  0  0  0  0  3  0  0  0  0  0  0
  158.1610  214.1270  153.8390 N   0  0  0  0  0  0  0  0  0  0  0  0
  157.8880  213.4250  152.7070 C   0  0  0  0  0  3  0  0  0  0  0  0
  158.8110  213.5580  154.8910 C   0  0  0  0  0  3  0  0  0  0  0  0
  158.9420  211.4840  153.6700 C   0  0  0  0  0  3  0  0  0  0  0  0
  160.7410  205.8820  149.9430 C   0  0  0  0  0  2  0  0  0  0  0  0
  160.9000  204.4910  150.5300 C   0  0  0  0  0  2  0  0  0  0  0  0
  160.4950  201.1940  148.7070 C   0  0  0  0  0  3  0  0  0  0  0  0
  161.2430  202.8720  147.1270 C   0  0  0  0  0  3  0  0  0  0  0  0
  160.8650  201.5550  147.4070 C   0  0  0  0  0  0  0  0  0  0  0  0
  160.5000  202.1510  149.7250 C   0  0  0  0  0  3  0  0  0  0  0  0
  160.8740  203.4720  149.4460 C   0  0  0  0  0  0  0  0  0  0  0  0
  160.8640  200.6270  146.4220 F   0  0  0  0  0  0  0  0  0  0  0  0
  161.2500  203.8300  148.1460 C   0  0  0  0  0  3  0  0  0  0  0  0
  1  4  1  0  0  0  0
  2 10  1  0  0  0  0
  2 12  1  0  0  0  0
  3  7  1  1  0  0  0
  3  6  1  0  0  0  0
  4  8  2  0  0  0  0
  5  1  1  0  0  0  0
  6 10  2  0  0  0  0
  6  8  1  0  0  0  0
  7  1  2  0  0  0  0
 10  9  1  0  0  0  0
 11  2  2  0  0  0  0
 12 35  1  6  0  0  0
 12 13  1  0  0  0  0
 13  9  1  6  0  0  0
 13 17  1  0  0  0  0
 14  3  1  0  0  0  0
 14 11  1  0  0  0  0
 15 18  1  1  0  0  0
 16 15  1  0  0  0  0
 17 16  1  6  0  0  0
 17 15  1  0  0  0  0
 18 19  1  0  0  0  0
 19 20  1  6  0  0  0
 19 22  1  0  0  0  0
 20 21  1  0  0  0  0
 22 26  1  6  0  0  0
 22 23  1  0  0  0  0
 23 25  1  0  0  0  0
 25 24  1  0  0  0  0
 26 27  1  0  0  0  0
 27 28  1  1  0  0  0
 29 33  1  0  0  0  0
 29 27  1  0  0  0  0
 30 32  2  0  0  0  0
 30 34  1  0  0  0  0
 31 33  2  0  0  0  0
 32 31  1  0  0  0  0
 34 29  2  0  0  0  0
 35 36  1  0  0  0  0
 37 40  1  0  0  0  0
 38 39  1  0  0  0  0
 38 43  2  0  0  0  0
 39 37  2  0  0  0  0
 41 40  2  0  0  0  0
 41 36  1  0  0  0  0
 42 39  1  0  0  0  0
 43 41  1  0  0  0  0
M  END
>  <MODEL>
5

>  <REMARK>
 VINA RESULT:      -6.4      4.532      9.433
  Name = 
  13 active torsions:
  status: ('A' for Active; 'I' for Inactive)
    1  A    between atoms: C_1  and  C_28
    2  A    between atoms: C_1  and  C_34
    3  A    between atoms: C_2  and  O_6
    4  A    between atoms: C_3  and  C_4
    5  A    between atoms: C_3  and  O_6
    6  A    between atoms: C_3  and  C_12
    7  A    between atoms: C_4  and  O_15
    8  A    between atoms: C_4  and  C_22
    9  A    between atoms: C_11  and  C_14
   10  A    between atoms: C_13  and  N_38
   11  A    between atoms: C_14  and  C_22
   12  A    between atoms: O_15  and  C_42
   13  A    between atoms: C_28  and  C_35
                            x       y       z     vdW  Elec       q    Type
                         _______ _______ _______ _____ _____    ______ ____

>  <TORSDO>
F 13

$$$$
=
 OpenBabel11062410203D

 43 48  0  0  1  0  0  0  0  0999 V2000
  161.0670  202.8260  147.7920 C   0  0  0  0  0  0  0  0  0  0  0  0
  161.4850  206.0680  151.6180 C   0  0  0  0  0  0  0  0  0  0  0  0
  161.4390  203.8300  149.9870 C   0  0  0  0  0  0  0  0  0  0  0  0
  160.7640  203.9940  147.2140 C   0  0  0  0  0  3  0  0  0  0  0  0
  161.0390  201.3630  146.8320 Cl  0  0  0  0  0  0  0  0  0  0  0  0
  161.1100  205.1560  149.4080 C   0  0  0  0  0  0  0  0  0  0  0  0
  161.4180  202.7400  149.2210 C   0  0  0  0  0  3  0  0  0  0  0  0
  160.7600  205.3080  147.9530 C   0  0  0  0  0  2  0  0  0  0  0  0
  160.9050  207.5470  149.9560 N   0  0  0  0  0  2  0  0  0  0  0  0
  161.1510  206.1920  150.2440 C   0  0  0  0  0  0  0  0  0  0  0  0
  161.8000  204.8930  152.1690 C   0  0  0  0  0  3  0  0  0  0  0  0
  161.4450  207.4310  152.2130 C   0  0  1  0  0  3  0  0  0  0  0  0
  161.0710  208.3530  151.1070 N   0  0  1  0  0  0  0  0  0  0  0  0
  161.7740  203.7420  151.3530 O   0  0  0  0  0  0  0  0  0  0  0  0
  161.7080  210.6440  150.6460 C   0  0  2  0  0  3  0  0  0  0  0  0
  162.3310  210.2510  151.9670 C   0  0  0  0  0  2  0  0  0  0  0  0
  162.2090  209.2260  150.8560 C   0  0  1  0  0  3  0  0  0  0  0  0
  162.6380  211.3530  149.8840 O   0  0  0  0  0  0  0  0  0  0  0  0
  161.9560  211.6890  148.7070 C   0  0  2  0  0  3  0  0  0  0  0  0
  162.9330  212.0110  147.5800 C   0  0  0  0  0  2  0  0  0  0  0  0
  164.1170  212.5500  148.0850 O   0  0  0  0  0  1  0  0  0  0  0  0
  160.9310  212.8060  148.9390 C   0  0  1  0  0  3  0  0  0  0  0  0
  161.1950  213.4360  150.1590 O   0  0  0  0  0  0  0  0  0  0  0  0
  159.0960  213.1550  151.2350 C   0  0  0  0  0  1  0  0  0  0  0  0
  160.0130  214.1020  150.4910 C   0  0  0  0  0  2  0  0  0  0  0  0
  160.9510  213.8350  147.8110 C   0  0  0  0  0  2  0  0  0  0  0  0
  159.7930  213.6260  146.8410 C   0  0  2  0  0  3  0  0  0  0  0  0
  158.9460  212.6330  147.3350 O   0  0  0  0  0  1  0  0  0  0  0  0
  160.2690  213.2540  145.4730 C   0  0  0  0  0  0  0  0  0  0  0  0
  160.0180  211.9310  143.4640 C   0  0  0  0  0  3  0  0  0  0  0  0
  161.7900  213.5230  143.6440 N   0  0  0  0  0  0  0  0  0  0  0  0
  161.1320  212.5770  142.9230 C   0  0  0  0  0  3  0  0  0  0  0  0
  161.3880  213.8700  144.8970 C   0  0  0  0  0  3  0  0  0  0  0  0
  159.5880  212.2740  144.7480 C   0  0  0  0  0  3  0  0  0  0  0  0
  160.3860  207.4890  153.3020 C   0  0  0  0  0  2  0  0  0  0  0  0
  161.0430  207.6620  154.6600 C   0  0  0  0  0  2  0  0  0  0  0  0
  161.7050  210.9190  156.4800 C   0  0  0  0  0  3  0  0  0  0  0  0
  159.7810  211.2090  155.0370 C   0  0  0  0  0  3  0  0  0  0  0  0
  160.6820  211.7270  155.9720 C   0  0  0  0  0  0  0  0  0  0  0  0
  161.8280  209.5950  156.0500 C   0  0  0  0  0  3  0  0  0  0  0  0
  160.9290  209.0760  155.1090 C   0  0  0  0  0  0  0  0  0  0  0  0
  160.5600  213.0070  156.3940 F   0  0  0  0  0  0  0  0  0  0  0  0
  159.9030  209.8840  154.6060 C   0  0  0  0  0  3  0  0  0  0  0  0
  1  7  1  0  0  0  0
  2 11  2  0  0  0  0
  2 12  1  0  0  0  0
  3 14  1  0  0  0  0
  4  1  2  0  0  0  0
  4  8  1  0  0  0  0
  5  1  1  0  0  0  0
  6  3  1  0  0  0  0
  6 10  2  0  0  0  0
  7  3  2  0  0  0  0
  8  6  1  0  0  0  0
  9 10  1  0  0  0  0
 10  2  1  0  0  0  0
 12 35  1  1  0  0  0
 13  9  1  6  0  0  0
 13 12  1  0  0  0  0
 14 11  1  0  0  0  0
 15 18  1  6  0  0  0
 15 17  1  0  0  0  0
 15 16  1  0  0  0  0
 17 13  1  0  0  0  0
 17 16  1  1  0  0  0
 19 20  1  6  0  0  0
 19 22  1  0  0  0  0
 19 18  1  0  0  0  0
 20 21  1  0  0  0  0
 22 26  1  6  0  0  0
 22 23  1  0  0  0  0
 23 25  1  0  0  0  0
 25 24  1  0  0  0  0
 27 28  1  1  0  0  0
 27 26  1  0  0  0  0
 29 27  1  0  0  0  0
 30 34  1  0  0  0  0
 31 33  2  0  0  0  0
 32 30  2  0  0  0  0
 32 31  1  0  0  0  0
 33 29  1  0  0  0  0
 34 29  2  0  0  0  0
 35 36  1  0  0  0  0
 36 41  1  0  0  0  0
 38 39  1  0  0  0  0
 39 42  1  0  0  0  0
 39 37  2  0  0  0  0
 40 37  1  0  0  0  0
 41 40  2  0  0  0  0
 43 38  2  0  0  0  0
 43 41  1  0  0  0  0
M  END
>  <MODEL>
6

>  <REMARK>
 VINA RESULT:      -6.4      1.564      2.040
  Name = 
  13 active torsions:
  status: ('A' for Active; 'I' for Inactive)
    1  A    between atoms: C_1  and  C_28
    2  A    between atoms: C_1  and  C_34
    3  A    between atoms: C_2  and  O_6
    4  A    between atoms: C_3  and  C_4
    5  A    between atoms: C_3  and  O_6
    6  A    between atoms: C_3  and  C_12
    7  A    between atoms: C_4  and  O_15
    8  A    between atoms: C_4  and  C_22
    9  A    between atoms: C_11  and  C_14
   10  A    between atoms: C_13  and  N_38
   11  A    between atoms: C_14  and  C_22
   12  A    between atoms: O_15  and  C_42
   13  A    between atoms: C_28  and  C_35
                            x       y       z     vdW  Elec       q    Type
                         _______ _______ _______ _____ _____    ______ ____

>  <TORSDO>
F 13

$$$$
=
 OpenBabel11062410203D

 43 48  0  0  1  0  0  0  0  0999 V2000
  161.1660  200.4400  146.6470 C   0  0  0  0  0  0  0  0  0  0  0  0
  161.5220  204.1240  150.0560 C   0  0  0  0  0  0  0  0  0  0  0  0
  161.5620  201.7130  148.6930 C   0  0  0  0  0  0  0  0  0  0  0  0
  160.7590  201.5120  145.9560 C   0  0  0  0  0  3  0  0  0  0  0  0
  161.1990  198.8770  145.8600 Cl  0  0  0  0  0  0  0  0  0  0  0  0
  161.1170  202.9400  147.9840 C   0  0  0  0  0  0  0  0  0  0  0  0
  161.5840  200.5430  148.0570 C   0  0  0  0  0  3  0  0  0  0  0  0
  160.6960  202.9000  146.5410 C   0  0  0  0  0  2  0  0  0  0  0  0
  160.7710  205.3600  148.2680 N   0  0  0  0  0  2  0  0  0  0  0  0
  161.1210  204.0670  148.6950 C   0  0  0  0  0  0  0  0  0  0  0  0
  161.9400  203.0430  150.7190 C   0  0  0  0  0  3  0  0  0  0  0  0
  161.4130  205.5420  150.4940 C   0  0  1  0  0  3  0  0  0  0  0  0
  160.9290  206.3030  149.3120 N   0  0  1  0  0  0  0  0  0  0  0  0
  161.9600  201.8070  150.0410 O   0  0  0  0  0  0  0  0  0  0  0  0
  161.6920  208.5980  149.4490 C   0  0  2  0  0  3  0  0  0  0  0  0
  162.7260  207.7290  150.1290 C   0  0  0  0  0  2  0  0  0  0  0  0
  161.9920  207.2120  148.9070 C   0  0  1  0  0  3  0  0  0  0  0  0
  162.3320  209.5530  148.6560 O   0  0  0  0  0  0  0  0  0  0  0  0
  162.2870  210.7330  149.4100 C   0  0  2  0  0  3  0  0  0  0  0  0
  161.8540  210.4500  150.8450 C   0  0  0  0  0  2  0  0  0  0  0  0
  162.9100  210.6550  151.7350 O   0  0  0  0  0  1  0  0  0  0  0  0
  161.4300  211.8100  148.7340 C   0  0  1  0  0  3  0  0  0  0  0  0
  161.3090  212.9130  149.5850 O   0  0  0  0  0  0  0  0  0  0  0  0
  159.6960  213.8090  151.0800 C   0  0  0  0  0  1  0  0  0  0  0  0
  159.9360  213.0820  149.7740 C   0  0  0  0  0  2  0  0  0  0  0  0
  162.0230  212.2490  147.3970 C   0  0  0  0  0  2  0  0  0  0  0  0
  160.9640  212.8610  146.4880 C   0  0  2  0  0  3  0  0  0  0  0  0
  159.9310  211.9430  146.2920 O   0  0  0  0  0  1  0  0  0  0  0  0
  161.5310  213.2780  145.1680 C   0  0  0  0  0  0  0  0  0  0  0  0
  163.4540  213.7020  143.7630 C   0  0  0  0  0  3  0  0  0  0  0  0
  161.2440  213.9830  142.8980 N   0  0  0  0  0  0  0  0  0  0  0  0
  162.5910  214.0270  142.7140 C   0  0  0  0  0  3  0  0  0  0  0  0
  160.7010  213.6230  144.0930 C   0  0  0  0  0  3  0  0  0  0  0  0
  162.9160  213.3270  144.9960 C   0  0  0  0  0  3  0  0  0  0  0  0
  160.3990  205.6590  151.6220 C   0  0  0  0  0  2  0  0  0  0  0  0
  161.0960  205.5230  152.9650 C   0  0  0  0  0  2  0  0  0  0  0  0
  160.0890  207.7100  155.8900 C   0  0  0  0  0  3  0  0  0  0  0  0
  160.7640  209.1330  154.0500 C   0  0  0  0  0  3  0  0  0  0  0  0
  160.2960  208.9880  155.3590 C   0  0  0  0  0  0  0  0  0  0  0  0
  160.3550  206.5790  155.1130 C   0  0  0  0  0  3  0  0  0  0  0  0
  160.8290  206.7230  153.8030 C   0  0  0  0  0  0  0  0  0  0  0  0
  160.0330  210.0820  156.1100 F   0  0  0  0  0  0  0  0  0  0  0  0
  161.0290  208.0020  153.2710 C   0  0  0  0  0  3  0  0  0  0  0  0
  1  7  1  0  0  0  0
  2 12  1  0  0  0  0
  2 11  2  0  0  0  0
  3 14  1  0  0  0  0
  4  8  1  0  0  0  0
  4  1  2  0  0  0  0
  5  1  1  0  0  0  0
  6  3  1  0  0  0  0
  6 10  2  0  0  0  0
  7  3  2  0  0  0  0
  8  6  1  0  0  0  0
  9 10  1  0  0  0  0
 10  2  1  0  0  0  0
 12 35  1  1  0  0  0
 13  9  1  6  0  0  0
 13 12  1  0  0  0  0
 14 11  1  0  0  0  0
 15 18  1  6  0  0  0
 15 16  1  0  0  0  0
 17 13  1  0  0  0  0
 17 15  1  0  0  0  0
 17 16  1  1  0  0  0
 18 19  1  0  0  0  0
 19 20  1  1  0  0  0
 20 21  1  0  0  0  0
 22 26  1  6  0  0  0
 22 19  1  0  0  0  0
 22 23  1  0  0  0  0
 23 25  1  0  0  0  0
 25 24  1  0  0  0  0
 27 28  1  6  0  0  0
 27 26  1  0  0  0  0
 29 27  1  0  0  0  0
 30 34  2  0  0  0  0
 31 33  1  0  0  0  0
 32 31  2  0  0  0  0
 32 30  1  0  0  0  0
 33 29  2  0  0  0  0
 34 29  1  0  0  0  0
 35 36  1  0  0  0  0
 36 41  1  0  0  0  0
 38 39  2  0  0  0  0
 39 37  1  0  0  0  0
 39 42  1  0  0  0  0
 40 37  2  0  0  0  0
 41 40  1  0  0  0  0
 43 41  2  0  0  0  0
 43 38  1  0  0  0  0
M  END
>  <MODEL>
7

>  <REMARK>
 VINA RESULT:      -6.0      2.126      3.346
  Name = 
  13 active torsions:
  status: ('A' for Active; 'I' for Inactive)
    1  A    between atoms: C_1  and  C_28
    2  A    between atoms: C_1  and  C_34
    3  A    between atoms: C_2  and  O_6
    4  A    between atoms: C_3  and  C_4
    5  A    between atoms: C_3  and  O_6
    6  A    between atoms: C_3  and  C_12
    7  A    between atoms: C_4  and  O_15
    8  A    between atoms: C_4  and  C_22
    9  A    between atoms: C_11  and  C_14
   10  A    between atoms: C_13  and  N_38
   11  A    between atoms: C_14  and  C_22
   12  A    between atoms: O_15  and  C_42
   13  A    between atoms: C_28  and  C_35
                            x       y       z     vdW  Elec       q    Type
                         _______ _______ _______ _____ _____    ______ ____

>  <TORSDO>
F 13

$$$$
=
 OpenBabel11062410203D

 43 48  0  0  1  0  0  0  0  0999 V2000
  155.8760  212.2570  156.0330 C   0  0  0  0  0  0  0  0  0  0  0  0
  159.5310  212.8070  152.6180 C   0  0  0  0  0  0  0  0  0  0  0  0
  157.6110  213.1750  154.5800 C   0  0  0  0  0  0  0  0  0  0  0  0
  156.0370  211.0080  155.5810 C   0  0  0  0  0  3  0  0  0  0  0  0
  154.6670  212.5750  157.2580 Cl  0  0  0  0  0  0  0  0  0  0  0  0
  157.8370  211.8130  154.0330 C   0  0  0  0  0  0  0  0  0  0  0  0
  156.6890  213.3750  155.5200 C   0  0  0  0  0  3  0  0  0  0  0  0
  157.0500  210.6320  154.5290 C   0  0  0  0  0  2  0  0  0  0  0  0
  159.2000  210.5390  152.4280 N   0  0  0  0  0  2  0  0  0  0  0  0
  158.7740  211.7030  153.0930 C   0  0  0  0  0  0  0  0  0  0  0  0
  159.3630  214.0420  153.0970 C   0  0  0  0  0  3  0  0  0  0  0  0
  160.4830  212.2890  151.5980 C   0  0  1  0  0  3  0  0  0  0  0  0
  160.2380  210.8250  151.5100 N   0  0  1  0  0  0  0  0  0  0  0  0
  158.3850  214.2470  154.0920 O   0  0  0  0  0  0  0  0  0  0  0  0
  161.5650  208.8110  151.2830 C   0  0  2  0  0  3  0  0  0  0  0  0
  162.4270  209.9800  150.8600 C   0  0  0  0  0  2  0  0  0  0  0  0
  161.4330  210.1470  151.9930 C   0  0  1  0  0  3  0  0  0  0  0  0
  162.3150  207.9400  152.0760 O   0  0  0  0  0  0  0  0  0  0  0  0
  161.5100  206.8020  152.2170 C   0  0  2  0  0  3  0  0  0  0  0  0
  161.5990  206.2400  153.6330 C   0  0  0  0  0  2  0  0  0  0  0  0
  160.4540  206.5540  154.3670 O   0  0  0  0  0  1  0  0  0  0  0  0
  161.8160  205.7500  151.1430 C   0  0  1  0  0  3  0  0  0  0  0  0
  161.6920  204.4710  151.6930 O   0  0  0  0  0  0  0  0  0  0  0  0
  160.9160  202.3270  151.0260 C   0  0  0  0  0  1  0  0  0  0  0  0
  160.7340  203.8250  150.9070 C   0  0  0  0  0  2  0  0  0  0  0  0
  160.8900  205.8870  149.9360 C   0  0  0  0  0  2  0  0  0  0  0  0
  161.6100  206.5090  148.7450 C   0  0  2  0  0  3  0  0  0  0  0  0
  161.0730  207.7700  148.4830 O   0  0  0  0  0  1  0  0  0  0  0  0
  161.5150  205.6520  147.5230 C   0  0  0  0  0  0  0  0  0  0  0  0
  161.9780  203.5600  146.4010 C   0  0  0  0  0  3  0  0  0  0  0  0
  160.7910  205.2970  145.2690 N   0  0  0  0  0  0  0  0  0  0  0  0
  161.3220  204.0460  145.2670 C   0  0  0  0  0  3  0  0  0  0  0  0
  160.8760  206.1050  146.3620 C   0  0  0  0  0  3  0  0  0  0  0  0
  162.0730  204.3720  147.5330 C   0  0  0  0  0  3  0  0  0  0  0  0
  160.1980  212.9330  150.2500 C   0  0  0  0  0  2  0  0  0  0  0  0
  161.3700  212.7150  149.3100 C   0  0  0  0  0  2  0  0  0  0  0  0
  161.3980  212.8470  145.5230 C   0  0  0  0  0  3  0  0  0  0  0  0
  159.0990  212.8840  146.2870 C   0  0  0  0  0  3  0  0  0  0  0  0
  160.0290  212.8960  145.2420 C   0  0  0  0  0  0  0  0  0  0  0  0
  161.8380  212.7820  146.8480 C   0  0  0  0  0  3  0  0  0  0  0  0
  160.9080  212.7650  147.8960 C   0  0  0  0  0  0  0  0  0  0  0  0
  159.6040  212.9640  143.9590 F   0  0  0  0  0  0  0  0  0  0  0  0
  159.5380  212.8210  147.6130 C   0  0  0  0  0  3  0  0  0  0  0  0
  1  5  1  0  0  0  0
  2 10  1  0  0  0  0
  2 11  2  0  0  0  0
  3  7  2  0  0  0  0
  4  1  2  0  0  0  0
  6  8  1  0  0  0  0
  6  3  1  0  0  0  0
  7  1  1  0  0  0  0
  8  4  1  0  0  0  0
  9 10  1  0  0  0  0
 10  6  2  0  0  0  0
 11 14  1  0  0  0  0
 12 35  1  6  0  0  0
 12  2  1  0  0  0  0
 13 12  1  0  0  0  0
 13 17  1  0  0  0  0
 13  9  1  1  0  0  0
 14  3  1  0  0  0  0
 15 17  1  0  0  0  0
 15 18  1  1  0  0  0
 16 15  1  0  0  0  0
 17 16  1  6  0  0  0
 18 19  1  0  0  0  0
 19 20  1  1  0  0  0
 20 21  1  0  0  0  0
 22 26  1  6  0  0  0
 22 23  1  0  0  0  0
 22 19  1  0  0  0  0
 25 24  1  0  0  0  0
 25 23  1  0  0  0  0
 27 28  1  6  0  0  0
 27 26  1  0  0  0  0
 29 34  1  0  0  0  0
 29 27  1  0  0  0  0
 30 34  2  0  0  0  0
 31 33  1  0  0  0  0
 32 31  2  0  0  0  0
 32 30  1  0  0  0  0
 33 29  2  0  0  0  0
 36 35  1  0  0  0  0
 37 40  1  0  0  0  0
 38 43  2  0  0  0  0
 39 37  2  0  0  0  0
 39 38  1  0  0  0  0
 40 41  2  0  0  0  0
 41 36  1  0  0  0  0
 42 39  1  0  0  0  0
 43 41  1  0  0  0  0
M  END
>  <MODEL>
8

>  <REMARK>
 VINA RESULT:      -5.9      4.012      8.535
  Name = 
  13 active torsions:
  status: ('A' for Active; 'I' for Inactive)
    1  A    between atoms: C_1  and  C_28
    2  A    between atoms: C_1  and  C_34
    3  A    between atoms: C_2  and  O_6
    4  A    between atoms: C_3  and  C_4
    5  A    between atoms: C_3  and  O_6
    6  A    between atoms: C_3  and  C_12
    7  A    between atoms: C_4  and  O_15
    8  A    between atoms: C_4  and  C_22
    9  A    between atoms: C_11  and  C_14
   10  A    between atoms: C_13  and  N_38
   11  A    between atoms: C_14  and  C_22
   12  A    between atoms: O_15  and  C_42
   13  A    between atoms: C_28  and  C_35
                            x       y       z     vdW  Elec       q    Type
                         _______ _______ _______ _____ _____    ______ ____

>  <TORSDO>
F 13

$$$$
=
 OpenBabel11062410203D

 43 48  0  0  1  0  0  0  0  0999 V2000
  160.9320  202.6240  150.5510 C   0  0  0  0  0  0  0  0  0  0  0  0
  161.2100  207.6100  149.9280 C   0  0  0  0  0  0  0  0  0  0  0  0
  160.7080  204.8970  149.6850 C   0  0  1  0  0  3  0  0  0  0  0  0
  161.6170  203.0120  151.6340 C   0  0  0  0  0  3  0  0  0  0  0  0
  160.5940  200.9230  150.3160 Cl  0  0  0  0  0  0  0  0  0  0  0  0
  161.4660  205.3920  150.8620 C   0  0  0  0  0  0  0  0  0  0  0  0
  160.4600  203.5950  149.5480 C   0  0  0  0  0  3  0  0  0  0  0  0
  161.9580  204.4510  151.9270 C   0  0  0  0  0  3  0  0  0  0  0  0
  162.3360  207.4340  151.9250 N   0  0  0  0  0  2  0  0  0  0  0  0
  161.6730  206.7060  150.9200 C   0  0  0  0  0  0  0  0  0  0  0  0
  160.5140  207.2000  148.8640 C   0  0  0  0  0  3  0  0  0  0  0  0
  161.6120  208.9800  150.3480 C   0  0  1  0  0  3  0  0  0  0  0  0
  162.3310  208.8200  151.6400 N   0  0  1  0  0  0  0  0  0  0  0  0
  160.2550  205.8210  148.7230 O   0  0  0  0  0  0  0  0  0  0  0  0
  160.9570  210.7560  152.1200 C   0  0  2  0  0  3  0  0  0  0  0  0
  160.0800  209.5290  152.2400 C   0  0  0  0  0  2  0  0  0  0  0  0
  161.5320  209.4640  152.6730 C   0  0  1  0  0  3  0  0  0  0  0  0
  160.6860  211.6290  153.1760 O   0  0  0  0  0  0  0  0  0  0  0  0
  159.4770  212.2460  152.8290 C   0  0  2  0  0  3  0  0  0  0  0  0
  159.6850  213.2720  151.7190 C   0  0  0  0  0  2  0  0  0  0  0  0
  158.6570  213.2030  150.7760 O   0  0  0  0  0  1  0  0  0  0  0  0
  158.7640  212.8350  154.0530 C   0  0  1  0  0  3  0  0  0  0  0  0
  157.4420  212.3830  154.0860 O   0  0  0  0  0  0  0  0  0  0  0  0
  155.8080  213.4330  155.4540 C   0  0  0  0  0  1  0  0  0  0  0  0
  156.6630  213.5370  154.2090 C   0  0  0  0  0  2  0  0  0  0  0  0
  159.4730  212.4610  155.3530 C   0  0  0  0  0  2  0  0  0  0  0  0
  158.9130  211.1720  155.9450 C   0  0  2  0  0  3  0  0  0  0  0  0
  158.2810  211.4520  157.1580 O   0  0  0  0  0  1  0  0  0  0  0  0
  159.9780  210.1420  156.1520 C   0  0  0  0  0  0  0  0  0  0  0  0
  160.6680  207.8240  156.1490 C   0  0  0  0  0  3  0  0  0  0  0  0
  162.2330  209.5460  156.6920 N   0  0  0  0  0  0  0  0  0  0  0  0
  161.9550  208.2280  156.5110 C   0  0  0  0  0  3  0  0  0  0  0  0
  161.2790  210.5030  156.5260 C   0  0  0  0  0  3  0  0  0  0  0  0
  159.6760  208.7910  155.9710 C   0  0  0  0  0  3  0  0  0  0  0  0
  162.5500  209.5830  149.3150 C   0  0  0  0  0  2  0  0  0  0  0  0
  162.6770  211.0800  149.5380 C   0  0  0  0  0  2  0  0  0  0  0  0
  162.6300  213.4340  146.5690 C   0  0  0  0  0  3  0  0  0  0  0  0
  160.4840  212.3180  146.7130 C   0  0  0  0  0  3  0  0  0  0  0  0
  161.3370  213.2260  146.0780 C   0  0  0  0  0  0  0  0  0  0  0  0
  163.0710  212.7310  147.6940 C   0  0  0  0  0  3  0  0  0  0  0  0
  162.2200  211.8180  148.3290 C   0  0  0  0  0  0  0  0  0  0  0  0
  160.9100  213.9110  144.9910 F   0  0  0  0  0  0  0  0  0  0  0  0
  160.9240  211.6160  147.8390 C   0  0  0  0  0  3  0  0  0  0  0  0
  1  4  1  0  0  0  0
  2 12  1  0  0  0  0
  2 10  1  0  0  0  0
  3  7  1  1  0  0  0
  3  6  1  0  0  0  0
  4  8  2  0  0  0  0
  5  1  1  0  0  0  0
  6 10  2  0  0  0  0
  6  8  1  0  0  0  0
  7  1  2  0  0  0  0
 10  9  1  0  0  0  0
 11  2  2  0  0  0  0
 12 35  1  6  0  0  0
 12 13  1  0  0  0  0
 13  9  1  1  0  0  0
 13 17  1  0  0  0  0
 14 11  1  0  0  0  0
 14  3  1  0  0  0  0
 15 16  1  0  0  0  0
 15 17  1  0  0  0  0
 15 18  1  1  0  0  0
 17 16  1  6  0  0  0
 19 20  1  6  0  0  0
 19 18  1  0  0  0  0
 19 22  1  0  0  0  0
 21 20  1  0  0  0  0
 22 23  1  0  0  0  0
 22 26  1  1  0  0  0
 23 25  1  0  0  0  0
 25 24  1  0  0  0  0
 26 27  1  0  0  0  0
 27 29  1  0  0  0  0
 27 28  1  1  0  0  0
 29 33  1  0  0  0  0
 30 32  2  0  0  0  0
 32 31  1  0  0  0  0
 33 31  2  0  0  0  0
 34 30  1  0  0  0  0
 34 29  2  0  0  0  0
 35 36  1  0  0  0  0
 37 40  1  0  0  0  0
 38 43  2  0  0  0  0
 39 37  2  0  0  0  0
 39 38  1  0  0  0  0
 40 41  2  0  0  0  0
 41 36  1  0  0  0  0
 42 39  1  0  0  0  0
 43 41  1  0  0  0  0
M  END
>  <MODEL>
9

>  <REMARK>
 VINA RESULT:      -5.9      3.221      7.529
  Name = 
  13 active torsions:
  status: ('A' for Active; 'I' for Inactive)
    1  A    between atoms: C_1  and  C_28
    2  A    between atoms: C_1  and  C_34
    3  A    between atoms: C_2  and  O_6
    4  A    between atoms: C_3  and  C_4
    5  A    between atoms: C_3  and  O_6
    6  A    between atoms: C_3  and  C_12
    7  A    between atoms: C_4  and  O_15
    8  A    between atoms: C_4  and  C_22
    9  A    between atoms: C_11  and  C_14
   10  A    between atoms: C_13  and  N_38
   11  A    between atoms: C_14  and  C_22
   12  A    between atoms: O_15  and  C_42
   13  A    between atoms: C_28  and  C_35
                            x       y       z     vdW  Elec       q    Type
                         _______ _______ _______ _____ _____    ______ ____

>  <TORSDO>
F 13

$$$$
