=
 OpenBabel11062408013D

 34 37  0  0  1  0  0  0  0  0999 V2000
  161.9570  207.6500  149.5790 N   0  0  0  0  0  0  0  0  0  0  0  0
  161.4860  206.7750  151.9190 C   0  0  1  0  0  3  0  0  0  0  0  0
  162.0470  209.0730  151.4440 O   0  0  0  0  0  0  0  0  0  0  0  0
  161.6140  206.3270  149.0510 C   0  0  1  0  0  3  0  0  0  0  0  0
  160.7850  205.7560  151.2450 O   0  0  0  0  0  0  0  0  0  0  0  0
  161.6180  205.3050  150.2050 C   0  0  1  0  0  3  0  0  0  0  0  0
  161.8050  207.9230  150.9860 C   0  0  0  0  0  0  0  0  0  0  0  0
  161.0480  202.2630  148.0150 C   0  0  0  0  0  0  0  0  0  0  0  0
  160.6160  201.3150  148.9450 C   0  0  0  0  0  3  0  0  0  0  0  0
  161.2770  203.9070  149.7840 C   0  0  0  0  0  0  0  0  0  0  0  0
  160.5090  201.6610  150.2960 C   0  0  0  0  0  3  0  0  0  0  0  0
  161.3740  203.5580  148.4340 C   0  0  0  0  0  3  0  0  0  0  0  0
  160.8380  202.9530  150.7150 C   0  0  0  0  0  3  0  0  0  0  0  0
  161.1520  201.9270  146.7050 F   0  0  0  0  0  0  0  0  0  0  0  0
  160.4460  206.4070  146.8500 C   0  0  0  0  0  1  0  0  0  0  0  0
  160.2580  206.3990  148.3550 C   0  0  0  0  0  2  0  0  0  0  0  0
  162.6140  208.6050  148.6910 C   0  0  0  0  0  2  0  0  0  0  0  0
  161.6890  209.7670  148.3450 C   0  0  0  0  0  2  0  0  0  0  0  0
  162.2840  211.1030  148.7560 C   0  0  0  0  0  2  0  0  0  0  0  0
  161.6540  212.2320  147.9610 C   0  0  0  0  0  2  0  0  0  0  0  0
  162.1570  213.2520  145.8130 N   0  0  0  0  0  2  0  0  0  0  0  0
  162.7150  212.9250  147.1340 C   0  0  1  0  0  3  0  0  0  0  0  0
  162.3000  214.2920  146.8410 C   0  0  0  0  0  2  0  0  0  0  0  0
  160.6620  207.2190  153.1220 C   0  0  0  0  0  2  0  0  0  0  0  0
  161.1960  206.6420  154.4290 C   0  0  0  0  0  2  0  0  0  0  0  0
  160.5940  207.3170  155.6610 C   0  0  0  0  0  2  0  0  0  0  0  0
  161.3400  208.5920  156.0300 C   0  0  0  0  0  2  0  0  0  0  0  0
  162.3930  210.5500  154.2920 O   0  0  0  0  0  0  0  0  0  0  0  0
  160.6000  209.7650  155.5820 N   0  0  0  0  0  0  0  0  0  0  0  0
  161.1870  210.6760  154.6350 C   0  0  0  0  0  0  0  0  0  0  0  0
  159.1730  212.1400  154.8560 C   0  0  0  0  0  2  0  0  0  0  0  0
  158.4260  210.9090  155.3520 C   0  0  0  0  0  2  0  0  0  0  0  0
  159.3420  210.0950  156.2570 C   0  0  0  0  0  2  0  0  0  0  0  0
  160.3450  211.7250  153.9720 C   0  0  0  0  0  2  0  0  0  0  0  0
  1  7  1  0  0  0  0
  2 24  1  1  0  0  0
  4 16  1  1  0  0  0
  4  1  1  0  0  0  0
  4  6  1  0  0  0  0
  5  2  1  0  0  0  0
  6 10  1  6  0  0  0
  6  5  1  0  0  0  0
  7  3  2  0  0  0  0
  7  2  1  0  0  0  0
  8 12  2  0  0  0  0
  8  9  1  0  0  0  0
  9 11  2  0  0  0  0
 10 13  2  0  0  0  0
 11 13  1  0  0  0  0
 12 10  1  0  0  0  0
 14  8  1  0  0  0  0
 15 16  1  0  0  0  0
 17  1  1  0  0  0  0
 18 17  1  0  0  0  0
 18 19  1  0  0  0  0
 20 19  1  0  0  0  0
 21 23  1  0  0  0  0
 21 22  1  0  0  0  0
 22 20  1  1  0  0  0
 23 22  1  0  0  0  0
 24 25  1  0  0  0  0
 25 26  1  0  0  0  0
 26 27  1  0  0  0  0
 28 30  2  0  0  0  0
 29 27  1  0  0  0  0
 29 33  1  0  0  0  0
 30 29  1  0  0  0  0
 31 32  1  0  0  0  0
 32 33  1  0  0  0  0
 34 30  1  0  0  0  0
 34 31  1  0  0  0  0
M  END
>  <MODEL>
1

>  <REMARK>
 VINA RESULT:      -7.6      0.000      0.000
  Name = 
  12 active torsions:
  status: ('A' for Active; 'I' for Inactive)
    1  A    between atoms: C_2  and  C_15
    2  A    between atoms: C_2  and  C_25
    3  A    between atoms: C_3  and  N_13
    4  A    between atoms: C_3  and  C_17
    5  A    between atoms: N_4  and  C_15
    6  A    between atoms: C_5  and  C_18
    7  A    between atoms: C_6  and  C_9
    8  A    between atoms: C_9  and  C_25
    9  A    between atoms: C_12  and  C_28
   10  A    between atoms: C_17  and  C_29
   11  A    between atoms: C_18  and  C_29
   12  A    between atoms: C_21  and  C_32
                            x       y       z     vdW  Elec       q    Type
                         _______ _______ _______ _____ _____    ______ ____

>  <TORSDO>
F 12

$$$$
=
 OpenBabel11062408013D

 34 37  0  0  1  0  0  0  0  0999 V2000
  160.9960  209.3730  154.6120 N   0  0  0  0  0  0  0  0  0  0  0  0
  161.4510  207.0740  153.6280 C   0  0  1  0  0  3  0  0  0  0  0  0
  160.9660  207.4530  155.9610 O   0  0  0  0  0  0  0  0  0  0  0  0
  161.0710  209.9310  153.2590 C   0  0  1  0  0  3  0  0  0  0  0  0
  161.0570  207.6700  152.4140 O   0  0  0  0  0  0  0  0  0  0  0  0
  161.7330  208.9000  152.3230 C   0  0  1  0  0  3  0  0  0  0  0  0
  161.0820  207.9480  154.8070 C   0  0  0  0  0  0  0  0  0  0  0  0
  162.1340  211.1790  149.3200 C   0  0  0  0  0  0  0  0  0  0  0  0
  162.0760  210.2720  148.2590 C   0  0  0  0  0  3  0  0  0  0  0  0
  161.8630  209.3600  150.9020 C   0  0  0  0  0  0  0  0  0  0  0  0
  161.9070  208.9070  148.5170 C   0  0  0  0  0  3  0  0  0  0  0  0
  162.0240  210.7240  150.6380 C   0  0  0  0  0  3  0  0  0  0  0  0
  161.8000  208.4520  149.8340 C   0  0  0  0  0  3  0  0  0  0  0  0
  162.2980  212.5020  149.0700 F   0  0  0  0  0  0  0  0  0  0  0  0
  159.5670  211.8130  152.6190 C   0  0  0  0  0  1  0  0  0  0  0  0
  159.6690  210.3110  152.7920 C   0  0  0  0  0  2  0  0  0  0  0  0
  161.0120  210.2930  155.7460 C   0  0  0  0  0  2  0  0  0  0  0  0
  159.5980  210.6560  156.1870 C   0  0  0  0  0  2  0  0  0  0  0  0
  159.4220  212.1570  156.3340 C   0  0  0  0  0  2  0  0  0  0  0  0
  158.0130  212.5670  155.9490 C   0  0  0  0  0  2  0  0  0  0  0  0
  155.9390  211.3200  156.1770 N   0  0  0  0  0  2  0  0  0  0  0  0
  157.2380  211.3510  155.4880 C   0  0  1  0  0  3  0  0  0  0  0  0
  156.0330  211.7710  154.7820 C   0  0  0  0  0  2  0  0  0  0  0  0
  160.8240  205.6880  153.7170 C   0  0  0  0  0  2  0  0  0  0  0  0
  161.5190  204.6830  152.8030 C   0  0  0  0  0  2  0  0  0  0  0  0
  160.5930  204.1350  151.7180 C   0  0  0  0  0  2  0  0  0  0  0  0
  160.8620  204.7810  150.3650 C   0  0  0  0  0  2  0  0  0  0  0  0
  161.4310  205.3430  147.6600 O   0  0  0  0  0  0  0  0  0  0  0  0
  160.9120  203.7690  149.3170 N   0  0  0  0  0  0  0  0  0  0  0  0
  161.2840  204.1320  147.9750 C   0  0  0  0  0  0  0  0  0  0  0  0
  160.8400  201.7790  147.2590 C   0  0  0  0  0  2  0  0  0  0  0  0
  161.0310  201.3790  148.7160 C   0  0  0  0  0  2  0  0  0  0  0  0
  160.3940  202.4320  149.6140 C   0  0  0  0  0  2  0  0  0  0  0  0
  161.5960  203.0700  146.9630 C   0  0  0  0  0  2  0  0  0  0  0  0
  1  7  1  0  0  0  0
  1 17  1  0  0  0  0
  2 24  1  1  0  0  0
  2  7  1  0  0  0  0
  4 16  1  6  0  0  0
  4  1  1  0  0  0  0
  5  2  1  0  0  0  0
  6 10  1  6  0  0  0
  6  5  1  0  0  0  0
  6  4  1  0  0  0  0
  7  3  2  0  0  0  0
  8 12  1  0  0  0  0
  9 11  1  0  0  0  0
  9  8  2  0  0  0  0
 11 13  2  0  0  0  0
 12 10  2  0  0  0  0
 13 10  1  0  0  0  0
 14  8  1  0  0  0  0
 15 16  1  0  0  0  0
 17 18  1  0  0  0  0
 18 19  1  0  0  0  0
 20 19  1  0  0  0  0
 22 20  1  1  0  0  0
 22 21  1  0  0  0  0
 23 22  1  0  0  0  0
 23 21  1  0  0  0  0
 25 24  1  0  0  0  0
 26 25  1  0  0  0  0
 27 26  1  0  0  0  0
 28 30  2  0  0  0  0
 29 33  1  0  0  0  0
 29 27  1  0  0  0  0
 30 29  1  0  0  0  0
 31 32  1  0  0  0  0
 32 33  1  0  0  0  0
 34 31  1  0  0  0  0
 34 30  1  0  0  0  0
M  END
>  <MODEL>
2

>  <REMARK>
 VINA RESULT:      -7.3      3.086      7.984
  Name = 
  12 active torsions:
  status: ('A' for Active; 'I' for Inactive)
    1  A    between atoms: C_2  and  C_15
    2  A    between atoms: C_2  and  C_25
    3  A    between atoms: C_3  and  N_13
    4  A    between atoms: C_3  and  C_17
    5  A    between atoms: N_4  and  C_15
    6  A    between atoms: C_5  and  C_18
    7  A    between atoms: C_6  and  C_9
    8  A    between atoms: C_9  and  C_25
    9  A    between atoms: C_12  and  C_28
   10  A    between atoms: C_17  and  C_29
   11  A    between atoms: C_18  and  C_29
   12  A    between atoms: C_21  and  C_32
                            x       y       z     vdW  Elec       q    Type
                         _______ _______ _______ _____ _____    ______ ____

>  <TORSDO>
F 12

$$$$
=
 OpenBabel11062408013D

 34 37  0  0  1  0  0  0  0  0999 V2000
  161.0920  208.7120  151.5790 N   0  0  0  0  0  0  0  0  0  0  0  0
  161.6750  209.8230  149.3670 C   0  0  1  0  0  3  0  0  0  0  0  0
  161.2610  211.0470  151.4050 O   0  0  0  0  0  0  0  0  0  0  0  0
  161.2880  207.4090  150.9370 C   0  0  1  0  0  3  0  0  0  0  0  0
  162.2390  208.5720  149.0480 O   0  0  0  0  0  0  0  0  0  0  0  0
  161.2940  207.5940  149.4070 C   0  0  1  0  0  3  0  0  0  0  0  0
  161.3750  209.9220  150.8470 C   0  0  0  0  0  0  0  0  0  0  0  0
  162.4190  205.1760  146.7120 C   0  0  0  0  0  0  0  0  0  0  0  0
  161.8550  203.9750  147.1480 C   0  0  0  0  0  3  0  0  0  0  0  0
  161.4910  206.3210  148.6380 C   0  0  0  0  0  0  0  0  0  0  0  0
  161.1040  203.9450  148.3290 C   0  0  0  0  0  3  0  0  0  0  0  0
  162.2330  206.3480  147.4540 C   0  0  0  0  0  3  0  0  0  0  0  0
  160.9220  205.1140  149.0710 C   0  0  0  0  0  3  0  0  0  0  0  0
  163.1470  205.2050  145.5680 F   0  0  0  0  0  0  0  0  0  0  0  0
  162.2830  205.6500  152.3970 C   0  0  0  0  0  1  0  0  0  0  0  0
  162.5870  206.7890  151.4440 C   0  0  0  0  0  2  0  0  0  0  0  0
  160.4460  208.7540  152.8870 C   0  0  0  0  0  2  0  0  0  0  0  0
  161.4600  208.9980  153.9990 C   0  0  0  0  0  2  0  0  0  0  0  0
  161.1560  208.1640  155.2320 C   0  0  0  0  0  2  0  0  0  0  0  0
  161.7400  208.8140  156.4710 C   0  0  0  0  0  2  0  0  0  0  0  0
  161.8830  211.1600  157.0910 N   0  0  0  0  0  2  0  0  0  0  0  0
  162.3310  210.1600  156.1090 C   0  0  1  0  0  3  0  0  0  0  0  0
  163.2400  210.6010  157.1600 C   0  0  0  0  0  2  0  0  0  0  0  0
  162.6220  210.9200  148.8950 C   0  0  0  0  0  2  0  0  0  0  0  0
  161.8990  212.0000  148.0970 C   0  0  0  0  0  2  0  0  0  0  0  0
  162.8600  212.9310  147.3590 C   0  0  0  0  0  2  0  0  0  0  0  0
  162.1190  213.9220  146.4710 C   0  0  0  0  0  2  0  0  0  0  0  0
  159.7360  212.7390  145.5350 O   0  0  0  0  0  0  0  0  0  0  0  0
  161.9540  213.3790  145.1280 N   0  0  0  0  0  0  0  0  0  0  0  0
  160.6790  212.8610  144.7080 C   0  0  0  0  0  0  0  0  0  0  0  0
  161.7170  212.1770  142.5400 C   0  0  0  0  0  2  0  0  0  0  0  0
  162.7960  213.2160  142.8150 C   0  0  0  0  0  2  0  0  0  0  0  0
  163.1460  213.1980  144.2980 C   0  0  0  0  0  2  0  0  0  0  0  0
  160.4270  212.5510  143.2620 C   0  0  0  0  0  2  0  0  0  0  0  0
  1 17  1  0  0  0  0
  2 24  1  1  0  0  0
  2  7  1  0  0  0  0
  4 16  1  1  0  0  0
  4  1  1  0  0  0  0
  5  2  1  0  0  0  0
  5  6  1  0  0  0  0
  6 10  1  6  0  0  0
  6  4  1  0  0  0  0
  7  3  2  0  0  0  0
  7  1  1  0  0  0  0
  8  9  2  0  0  0  0
  8 12  1  0  0  0  0
  9 11  1  0  0  0  0
 10 13  1  0  0  0  0
 11 13  2  0  0  0  0
 12 10  2  0  0  0  0
 14  8  1  0  0  0  0
 16 15  1  0  0  0  0
 17 18  1  0  0  0  0
 18 19  1  0  0  0  0
 19 20  1  0  0  0  0
 21 23  1  0  0  0  0
 22 20  1  1  0  0  0
 22 21  1  0  0  0  0
 22 23  1  0  0  0  0
 25 24  1  0  0  0  0
 26 25  1  0  0  0  0
 27 26  1  0  0  0  0
 29 27  1  0  0  0  0
 30 29  1  0  0  0  0
 30 28  2  0  0  0  0
 31 32  1  0  0  0  0
 31 34  1  0  0  0  0
 32 33  1  0  0  0  0
 33 29  1  0  0  0  0
 34 30  1  0  0  0  0
M  END
>  <MODEL>
3

>  <REMARK>
 VINA RESULT:      -7.2      2.506      7.632
  Name = 
  12 active torsions:
  status: ('A' for Active; 'I' for Inactive)
    1  A    between atoms: C_2  and  C_15
    2  A    between atoms: C_2  and  C_25
    3  A    between atoms: C_3  and  N_13
    4  A    between atoms: C_3  and  C_17
    5  A    between atoms: N_4  and  C_15
    6  A    between atoms: C_5  and  C_18
    7  A    between atoms: C_6  and  C_9
    8  A    between atoms: C_9  and  C_25
    9  A    between atoms: C_12  and  C_28
   10  A    between atoms: C_17  and  C_29
   11  A    between atoms: C_18  and  C_29
   12  A    between atoms: C_21  and  C_32
                            x       y       z     vdW  Elec       q    Type
                         _______ _______ _______ _____ _____    ______ ____

>  <TORSDO>
F 12

$$$$
=
 OpenBabel11062408013D

 34 37  0  0  1  0  0  0  0  0999 V2000
  161.0010  207.9950  152.1640 N   0  0  0  0  0  0  0  0  0  0  0  0
  161.4880  209.5280  150.1950 C   0  0  1  0  0  3  0  0  0  0  0  0
  161.0870  210.3250  152.4370 O   0  0  0  0  0  0  0  0  0  0  0  0
  161.2240  206.8470  151.2820 C   0  0  1  0  0  3  0  0  0  0  0  0
  162.0850  208.3830  149.6320 O   0  0  0  0  0  0  0  0  0  0  0  0
  161.1830  207.3190  149.8150 C   0  0  1  0  0  3  0  0  0  0  0  0
  161.2240  209.3320  151.6720 C   0  0  0  0  0  0  0  0  0  0  0  0
  162.2270  205.5240  146.6430 C   0  0  0  0  0  0  0  0  0  0  0  0
  161.8000  204.2190  146.8970 C   0  0  0  0  0  3  0  0  0  0  0  0
  161.4020  206.2250  148.8140 C   0  0  0  0  0  0  0  0  0  0  0  0
  161.1700  203.9140  148.1080 C   0  0  0  0  0  3  0  0  0  0  0  0
  162.0240  206.5260  147.5990 C   0  0  0  0  0  3  0  0  0  0  0  0
  160.9710  204.9130  149.0630 C   0  0  0  0  0  3  0  0  0  0  0  0
  162.8390  205.8200  145.4690 F   0  0  0  0  0  0  0  0  0  0  0  0
  162.3170  204.8140  152.2240 C   0  0  0  0  0  1  0  0  0  0  0  0
  162.5560  206.1910  151.6360 C   0  0  0  0  0  2  0  0  0  0  0  0
  160.3880  207.7640  153.4690 C   0  0  0  0  0  2  0  0  0  0  0  0
  161.4430  207.6070  154.5580 C   0  0  0  0  0  2  0  0  0  0  0  0
  160.8650  207.8500  155.9420 C   0  0  0  0  0  2  0  0  0  0  0  0
  161.7760  208.7570  156.7460 C   0  0  0  0  0  2  0  0  0  0  0  0
  161.7960  211.1880  156.7530 N   0  0  0  0  0  2  0  0  0  0  0  0
  162.0980  209.9990  155.9420 C   0  0  1  0  0  3  0  0  0  0  0  0
  163.1830  210.7350  156.5800 C   0  0  0  0  0  2  0  0  0  0  0  0
  162.3860  210.7300  149.9230 C   0  0  0  0  0  2  0  0  0  0  0  0
  162.1860  211.2890  148.5180 C   0  0  0  0  0  2  0  0  0  0  0  0
  161.6110  212.7050  148.5250 C   0  0  0  0  0  2  0  0  0  0  0  0
  162.0160  213.4870  147.2820 C   0  0  0  0  0  2  0  0  0  0  0  0
  162.7940  213.2080  144.5840 O   0  0  0  0  0  0  0  0  0  0  0  0
  161.0860  213.2260  146.1900 N   0  0  0  0  0  0  0  0  0  0  0  0
  161.5770  213.0230  144.8520 C   0  0  0  0  0  0  0  0  0  0  0  0
  159.2140  212.8790  144.0500 C   0  0  0  0  0  2  0  0  0  0  0  0
  158.8300  212.5250  145.4810 C   0  0  0  0  0  2  0  0  0  0  0  0
  159.6510  213.3690  146.4470 C   0  0  0  0  0  2  0  0  0  0  0  0
  160.6660  212.4960  143.7840 C   0  0  0  0  0  2  0  0  0  0  0  0
  1 17  1  0  0  0  0
  2 24  1  1  0  0  0
  2  7  1  0  0  0  0
  4 16  1  1  0  0  0
  4  1  1  0  0  0  0
  5  6  1  0  0  0  0
  5  2  1  0  0  0  0
  6 10  1  6  0  0  0
  6  4  1  0  0  0  0
  7  1  1  0  0  0  0
  7  3  2  0  0  0  0
  8  9  2  0  0  0  0
  8 12  1  0  0  0  0
  9 11  1  0  0  0  0
 10 13  1  0  0  0  0
 11 13  2  0  0  0  0
 12 10  2  0  0  0  0
 14  8  1  0  0  0  0
 16 15  1  0  0  0  0
 17 18  1  0  0  0  0
 18 19  1  0  0  0  0
 19 20  1  0  0  0  0
 22 23  1  0  0  0  0
 22 20  1  1  0  0  0
 22 21  1  0  0  0  0
 23 21  1  0  0  0  0
 25 26  1  0  0  0  0
 25 24  1  0  0  0  0
 27 26  1  0  0  0  0
 28 30  2  0  0  0  0
 29 33  1  0  0  0  0
 29 27  1  0  0  0  0
 30 29  1  0  0  0  0
 31 32  1  0  0  0  0
 32 33  1  0  0  0  0
 34 31  1  0  0  0  0
 34 30  1  0  0  0  0
M  END
>  <MODEL>
4

>  <REMARK>
 VINA RESULT:      -7.1      2.483      7.110
  Name = 
  12 active torsions:
  status: ('A' for Active; 'I' for Inactive)
    1  A    between atoms: C_2  and  C_15
    2  A    between atoms: C_2  and  C_25
    3  A    between atoms: C_3  and  N_13
    4  A    between atoms: C_3  and  C_17
    5  A    between atoms: N_4  and  C_15
    6  A    between atoms: C_5  and  C_18
    7  A    between atoms: C_6  and  C_9
    8  A    between atoms: C_9  and  C_25
    9  A    between atoms: C_12  and  C_28
   10  A    between atoms: C_17  and  C_29
   11  A    between atoms: C_18  and  C_29
   12  A    between atoms: C_21  and  C_32
                            x       y       z     vdW  Elec       q    Type
                         _______ _______ _______ _____ _____    ______ ____

>  <TORSDO>
F 12

$$$$
=
 OpenBabel11062408013D

 34 37  0  0  1  0  0  0  0  0999 V2000
  161.0890  208.6500  151.6010 N   0  0  0  0  0  0  0  0  0  0  0  0
  161.6640  209.7960  149.4050 C   0  0  1  0  0  3  0  0  0  0  0  0
  161.2390  210.9880  151.4600 O   0  0  0  0  0  0  0  0  0  0  0  0
  161.2970  207.3580  150.9420 C   0  0  1  0  0  3  0  0  0  0  0  0
  162.2390  208.5550  149.0690 O   0  0  0  0  0  0  0  0  0  0  0  0
  161.3010  207.5640  149.4140 C   0  0  1  0  0  3  0  0  0  0  0  0
  161.3620  209.8720  150.8870 C   0  0  0  0  0  0  0  0  0  0  0  0
  162.4450  205.1930  146.6850 C   0  0  0  0  0  0  0  0  0  0  0  0
  161.8920  203.9810  147.1060 C   0  0  0  0  0  3  0  0  0  0  0  0
  161.5090  206.3040  148.6280 C   0  0  0  0  0  0  0  0  0  0  0  0
  161.1430  203.9280  148.2870 C   0  0  0  0  0  3  0  0  0  0  0  0
  162.2490  206.3530  147.4430 C   0  0  0  0  0  3  0  0  0  0  0  0
  160.9510  205.0850  149.0450 C   0  0  0  0  0  3  0  0  0  0  0  0
  163.1720  205.2440  145.5410 F   0  0  0  0  0  0  0  0  0  0  0  0
  162.3050  205.5640  152.3500 C   0  0  0  0  0  1  0  0  0  0  0  0
  162.6000  206.7410  151.4410 C   0  0  0  0  0  2  0  0  0  0  0  0
  160.4420  208.6690  152.9090 C   0  0  0  0  0  2  0  0  0  0  0  0
  161.4390  208.9900  154.0170 C   0  0  0  0  0  2  0  0  0  0  0  0
  160.7910  209.7640  155.1520 C   0  0  0  0  0  2  0  0  0  0  0  0
  160.8080  211.2520  154.8570 C   0  0  0  0  0  2  0  0  0  0  0  0
  159.2460  212.9950  154.2040 N   0  0  0  0  0  2  0  0  0  0  0  0
  159.4280  211.8320  155.0840 C   0  0  1  0  0  3  0  0  0  0  0  0
  158.6310  211.7040  153.8710 C   0  0  0  0  0  2  0  0  0  0  0  0
  162.6030  210.9070  148.9490 C   0  0  0  0  0  2  0  0  0  0  0  0
  161.8780  211.9720  148.1320 C   0  0  0  0  0  2  0  0  0  0  0  0
  162.8380  212.8800  147.3650 C   0  0  0  0  0  2  0  0  0  0  0  0
  162.0950  213.8770  146.4860 C   0  0  0  0  0  2  0  0  0  0  0  0
  159.7240  212.6950  145.5150 O   0  0  0  0  0  0  0  0  0  0  0  0
  161.9420  213.3530  145.1350 N   0  0  0  0  0  0  0  0  0  0  0  0
  160.6730  212.8330  144.6970 C   0  0  0  0  0  0  0  0  0  0  0  0
  161.7320  212.1850  142.5290 C   0  0  0  0  0  2  0  0  0  0  0  0
  162.8020  213.2260  142.8260 C   0  0  0  0  0  2  0  0  0  0  0  0
  163.1410  213.1890  144.3110 C   0  0  0  0  0  2  0  0  0  0  0  0
  160.4340  212.5420  143.2460 C   0  0  0  0  0  2  0  0  0  0  0  0
  1 17  1  0  0  0  0
  2 24  1  1  0  0  0
  2  7  1  0  0  0  0
  4 16  1  1  0  0  0
  4  1  1  0  0  0  0
  5  2  1  0  0  0  0
  5  6  1  0  0  0  0
  6 10  1  6  0  0  0
  6  4  1  0  0  0  0
  7  3  2  0  0  0  0
  7  1  1  0  0  0  0
  8  9  2  0  0  0  0
  8 12  1  0  0  0  0
  9 11  1  0  0  0  0
 10 13  1  0  0  0  0
 11 13  2  0  0  0  0
 12 10  2  0  0  0  0
 14  8  1  0  0  0  0
 16 15  1  0  0  0  0
 17 18  1  0  0  0  0
 18 19  1  0  0  0  0
 20 19  1  0  0  0  0
 21 22  1  0  0  0  0
 22 20  1  6  0  0  0
 23 21  1  0  0  0  0
 23 22  1  0  0  0  0
 25 24  1  0  0  0  0
 26 25  1  0  0  0  0
 27 26  1  0  0  0  0
 29 27  1  0  0  0  0
 30 29  1  0  0  0  0
 30 28  2  0  0  0  0
 31 32  1  0  0  0  0
 31 34  1  0  0  0  0
 32 33  1  0  0  0  0
 33 29  1  0  0  0  0
 34 30  1  0  0  0  0
M  END
>  <MODEL>
5

>  <REMARK>
 VINA RESULT:      -7.1      2.497      7.313
  Name = 
  12 active torsions:
  status: ('A' for Active; 'I' for Inactive)
    1  A    between atoms: C_2  and  C_15
    2  A    between atoms: C_2  and  C_25
    3  A    between atoms: C_3  and  N_13
    4  A    between atoms: C_3  and  C_17
    5  A    between atoms: N_4  and  C_15
    6  A    between atoms: C_5  and  C_18
    7  A    between atoms: C_6  and  C_9
    8  A    between atoms: C_9  and  C_25
    9  A    between atoms: C_12  and  C_28
   10  A    between atoms: C_17  and  C_29
   11  A    between atoms: C_18  and  C_29
   12  A    between atoms: C_21  and  C_32
                            x       y       z     vdW  Elec       q    Type
                         _______ _______ _______ _____ _____    ______ ____

>  <TORSDO>
F 12

$$$$
=
 OpenBabel11062408013D

 34 37  0  0  1  0  0  0  0  0999 V2000
  161.0410  208.0530  152.1060 N   0  0  0  0  0  0  0  0  0  0  0  0
  161.4810  209.5150  150.0730 C   0  0  1  0  0  3  0  0  0  0  0  0
  161.1130  210.3920  152.2910 O   0  0  0  0  0  0  0  0  0  0  0  0
  161.2570  206.8740  151.2630 C   0  0  1  0  0  3  0  0  0  0  0  0
  162.0770  208.3550  149.5420 O   0  0  0  0  0  0  0  0  0  0  0  0
  161.1860  207.2920  149.7810 C   0  0  1  0  0  3  0  0  0  0  0  0
  161.2440  209.3720  151.5620 C   0  0  0  0  0  0  0  0  0  0  0  0
  162.1490  205.3960  146.6410 C   0  0  0  0  0  0  0  0  0  0  0  0
  161.7730  204.0900  146.9670 C   0  0  0  0  0  3  0  0  0  0  0  0
  161.3960  206.1630  148.8160 C   0  0  0  0  0  0  0  0  0  0  0  0
  161.2040  203.8180  148.2160 C   0  0  0  0  0  3  0  0  0  0  0  0
  161.9560  206.4300  147.5630 C   0  0  0  0  0  3  0  0  0  0  0  0
  161.0160  204.8510  149.1380 C   0  0  0  0  0  3  0  0  0  0  0  0
  162.7000  205.6590  145.4310 F   0  0  0  0  0  0  0  0  0  0  0  0
  162.3800  204.9320  152.3500 C   0  0  0  0  0  1  0  0  0  0  0  0
  162.5990  206.2410  151.6160 C   0  0  0  0  0  2  0  0  0  0  0  0
  160.4530  207.8650  153.4290 C   0  0  0  0  0  2  0  0  0  0  0  0
  161.5280  207.7620  154.5050 C   0  0  0  0  0  2  0  0  0  0  0  0
  160.9270  207.7060  155.8990 C   0  0  0  0  0  2  0  0  0  0  0  0
  161.5570  208.7580  156.7920 C   0  0  0  0  0  2  0  0  0  0  0  0
  161.6460  211.1680  156.4880 N   0  0  0  0  0  2  0  0  0  0  0  0
  162.1080  209.8830  155.9420 C   0  0  1  0  0  3  0  0  0  0  0  0
  163.0170  210.7020  156.7350 C   0  0  0  0  0  2  0  0  0  0  0  0
  162.3650  210.7120  149.7410 C   0  0  0  0  0  2  0  0  0  0  0  0
  162.1100  211.2410  148.3340 C   0  0  0  0  0  2  0  0  0  0  0  0
  162.1730  212.7660  148.2560 C   0  0  0  0  0  2  0  0  0  0  0  0
  161.3130  213.3130  147.1250 C   0  0  0  0  0  2  0  0  0  0  0  0
  159.2130  212.5440  145.4040 O   0  0  0  0  0  0  0  0  0  0  0  0
  159.9060  213.3130  147.5070 N   0  0  0  0  0  0  0  0  0  0  0  0
  158.9050  212.8330  146.5910 C   0  0  0  0  0  0  0  0  0  0  0  0
  157.1430  213.4830  148.2400 C   0  0  0  0  0  2  0  0  0  0  0  0
  158.2240  213.4130  149.3100 C   0  0  0  0  0  2  0  0  0  0  0  0
  159.5220  213.9840  148.7510 C   0  0  0  0  0  2  0  0  0  0  0  0
  157.5050  212.5810  147.0640 C   0  0  0  0  0  2  0  0  0  0  0  0
  1 17  1  0  0  0  0
  2 24  1  1  0  0  0
  2  7  1  0  0  0  0
  4 16  1  1  0  0  0
  4  1  1  0  0  0  0
  5  6  1  0  0  0  0
  5  2  1  0  0  0  0
  6 10  1  6  0  0  0
  6  4  1  0  0  0  0
  7  1  1  0  0  0  0
  7  3  2  0  0  0  0
  8  9  2  0  0  0  0
  8 12  1  0  0  0  0
  9 11  1  0  0  0  0
 10 13  1  0  0  0  0
 11 13  2  0  0  0  0
 12 10  2  0  0  0  0
 14  8  1  0  0  0  0
 16 15  1  0  0  0  0
 17 18  1  0  0  0  0
 18 19  1  0  0  0  0
 19 20  1  0  0  0  0
 21 23  1  0  0  0  0
 22 21  1  0  0  0  0
 22 23  1  0  0  0  0
 22 20  1  1  0  0  0
 25 24  1  0  0  0  0
 26 25  1  0  0  0  0
 27 29  1  0  0  0  0
 27 26  1  0  0  0  0
 28 30  2  0  0  0  0
 29 33  1  0  0  0  0
 30 34  1  0  0  0  0
 30 29  1  0  0  0  0
 31 32  1  0  0  0  0
 33 32  1  0  0  0  0
 34 31  1  0  0  0  0
M  END
>  <MODEL>
6

>  <REMARK>
 VINA RESULT:      -6.9      2.519      6.540
  Name = 
  12 active torsions:
  status: ('A' for Active; 'I' for Inactive)
    1  A    between atoms: C_2  and  C_15
    2  A    between atoms: C_2  and  C_25
    3  A    between atoms: C_3  and  N_13
    4  A    between atoms: C_3  and  C_17
    5  A    between atoms: N_4  and  C_15
    6  A    between atoms: C_5  and  C_18
    7  A    between atoms: C_6  and  C_9
    8  A    between atoms: C_9  and  C_25
    9  A    between atoms: C_12  and  C_28
   10  A    between atoms: C_17  and  C_29
   11  A    between atoms: C_18  and  C_29
   12  A    between atoms: C_21  and  C_32
                            x       y       z     vdW  Elec       q    Type
                         _______ _______ _______ _____ _____    ______ ____

>  <TORSDO>
F 12

$$$$
=
 OpenBabel11062408013D

 34 37  0  0  1  0  0  0  0  0999 V2000
  161.1880  208.8910  151.4120 N   0  0  0  0  0  0  0  0  0  0  0  0
  161.7540  209.9140  149.1540 C   0  0  1  0  0  3  0  0  0  0  0  0
  161.3740  211.2160  151.1500 O   0  0  0  0  0  0  0  0  0  0  0  0
  161.3660  207.5640  150.8170 C   0  0  1  0  0  3  0  0  0  0  0  0
  162.3050  208.6480  148.8750 O   0  0  0  0  0  0  0  0  0  0  0  0
  161.3560  207.6910  149.2810 C   0  0  1  0  0  3  0  0  0  0  0  0
  161.4720  210.0700  150.6330 C   0  0  0  0  0  0  0  0  0  0  0  0
  161.1050  204.0050  148.4300 C   0  0  0  0  0  0  0  0  0  0  0  0
  161.8660  203.9260  147.2620 C   0  0  0  0  0  3  0  0  0  0  0  0
  161.5330  206.3890  148.5580 C   0  0  0  0  0  0  0  0  0  0  0  0
  162.4660  205.0780  146.7410 C   0  0  0  0  0  3  0  0  0  0  0  0
  160.9430  205.2340  149.0800 C   0  0  0  0  0  3  0  0  0  0  0  0
  162.3000  206.3060  147.3870 C   0  0  0  0  0  3  0  0  0  0  0  0
  160.5230  202.8890  148.9350 F   0  0  0  0  0  0  0  0  0  0  0  0
  162.3620  205.8420  152.3210 C   0  0  0  0  0  1  0  0  0  0  0  0
  162.6660  206.9510  151.3320 C   0  0  0  0  0  2  0  0  0  0  0  0
  160.5570  208.9880  152.7250 C   0  0  0  0  0  2  0  0  0  0  0  0
  161.5360  209.5000  153.7750 C   0  0  0  0  0  2  0  0  0  0  0  0
  160.9630  210.6680  154.5580 C   0  0  0  0  0  2  0  0  0  0  0  0
  159.6160  211.0770  153.9910 C   0  0  0  0  0  2  0  0  0  0  0  0
  158.0310  212.6990  154.8650 N   0  0  0  0  0  2  0  0  0  0  0  0
  158.6630  211.3970  155.1230 C   0  0  1  0  0  3  0  0  0  0  0  0
  157.2970  211.4500  154.6190 C   0  0  0  0  0  2  0  0  0  0  0  0
  162.7050  210.9840  148.6310 C   0  0  0  0  0  2  0  0  0  0  0  0
  161.9850  212.0270  147.7830 C   0  0  0  0  0  2  0  0  0  0  0  0
  161.8540  213.3750  148.4920 C   0  0  0  0  0  2  0  0  0  0  0  0
  160.6650  214.1740  147.9750 C   0  0  0  0  0  2  0  0  0  0  0  0
  158.0490  213.8340  146.9760 O   0  0  0  0  0  0  0  0  0  0  0  0
  159.4960  213.9510  148.8160 N   0  0  0  0  0  0  0  0  0  0  0  0
  158.2080  213.7130  148.2200 C   0  0  0  0  0  0  0  0  0  0  0  0
  157.2000  213.6800  150.5060 C   0  0  0  0  0  2  0  0  0  0  0  0
  158.5920  213.3570  151.0330 C   0  0  0  0  0  2  0  0  0  0  0  0
  159.6240  214.1670  150.2590 C   0  0  0  0  0  2  0  0  0  0  0  0
  157.0650  213.2230  149.0580 C   0  0  0  0  0  2  0  0  0  0  0  0
  1 17  1  0  0  0  0
  2 24  1  1  0  0  0
  2  7  1  0  0  0  0
  4 16  1  1  0  0  0
  4  1  1  0  0  0  0
  5  2  1  0  0  0  0
  5  6  1  0  0  0  0
  6 10  1  6  0  0  0
  6  4  1  0  0  0  0
  7  3  2  0  0  0  0
  7  1  1  0  0  0  0
  8 14  1  0  0  0  0
  8 12  1  0  0  0  0
  9  8  2  0  0  0  0
 10 12  2  0  0  0  0
 11  9  1  0  0  0  0
 11 13  2  0  0  0  0
 13 10  1  0  0  0  0
 16 15  1  0  0  0  0
 17 18  1  0  0  0  0
 18 19  1  0  0  0  0
 20 19  1  0  0  0  0
 21 22  1  0  0  0  0
 22 20  1  6  0  0  0
 23 21  1  0  0  0  0
 23 22  1  0  0  0  0
 25 26  1  0  0  0  0
 25 24  1  0  0  0  0
 27 26  1  0  0  0  0
 27 29  1  0  0  0  0
 28 30  2  0  0  0  0
 29 33  1  0  0  0  0
 30 29  1  0  0  0  0
 30 34  1  0  0  0  0
 31 32  1  0  0  0  0
 33 32  1  0  0  0  0
 34 31  1  0  0  0  0
M  END
>  <MODEL>
7

>  <REMARK>
 VINA RESULT:      -6.8      2.680      6.045
  Name = 
  12 active torsions:
  status: ('A' for Active; 'I' for Inactive)
    1  A    between atoms: C_2  and  C_15
    2  A    between atoms: C_2  and  C_25
    3  A    between atoms: C_3  and  N_13
    4  A    between atoms: C_3  and  C_17
    5  A    between atoms: N_4  and  C_15
    6  A    between atoms: C_5  and  C_18
    7  A    between atoms: C_6  and  C_9
    8  A    between atoms: C_9  and  C_25
    9  A    between atoms: C_12  and  C_28
   10  A    between atoms: C_17  and  C_29
   11  A    between atoms: C_18  and  C_29
   12  A    between atoms: C_21  and  C_32
                            x       y       z     vdW  Elec       q    Type
                         _______ _______ _______ _____ _____    ______ ____

>  <TORSDO>
F 12

$$$$
=
 OpenBabel11062408013D

 34 37  0  0  1  0  0  0  0  0999 V2000
  161.9810  207.8380  152.0140 N   0  0  0  0  0  0  0  0  0  0  0  0
  161.9670  210.2120  151.1030 C   0  0  1  0  0  3  0  0  0  0  0  0
  162.2330  208.2540  149.7170 O   0  0  0  0  0  0  0  0  0  0  0  0
  161.6820  208.3820  153.3410 C   0  0  1  0  0  3  0  0  0  0  0  0
  161.2650  210.5120  152.2860 O   0  0  0  0  0  0  0  0  0  0  0  0
  161.9620  209.8970  153.3420 C   0  0  1  0  0  3  0  0  0  0  0  0
  162.0280  208.7170  150.8720 C   0  0  0  0  0  0  0  0  0  0  0  0
  160.3540  212.1160  155.9640 C   0  0  0  0  0  0  0  0  0  0  0  0
  161.1600  211.8740  157.0790 C   0  0  0  0  0  3  0  0  0  0  0  0
  161.6880  210.5680  154.6550 C   0  0  0  0  0  0  0  0  0  0  0  0
  162.2330  210.9820  156.9840 C   0  0  0  0  0  3  0  0  0  0  0  0
  160.6210  211.4670  154.7530 C   0  0  0  0  0  3  0  0  0  0  0  0
  162.4970  210.3310  155.7770 C   0  0  0  0  0  3  0  0  0  0  0  0
  159.3130  212.9800  156.0550 F   0  0  0  0  0  0  0  0  0  0  0  0
  160.1730  207.3040  155.0080 C   0  0  0  0  0  1  0  0  0  0  0  0
  160.2320  208.0660  153.6990 C   0  0  0  0  0  2  0  0  0  0  0  0
  162.3990  206.4430  151.9100 C   0  0  0  0  0  2  0  0  0  0  0  0
  161.2500  205.5520  151.4490 C   0  0  0  0  0  2  0  0  0  0  0  0
  161.2060  204.2450  152.2220 C   0  0  0  0  0  2  0  0  0  0  0  0
  161.3240  203.0650  151.2770 C   0  0  0  0  0  2  0  0  0  0  0  0
  161.2120  202.9560  148.8520 N   0  0  0  0  0  2  0  0  0  0  0  0
  160.4500  203.2950  150.0630 C   0  0  1  0  0  3  0  0  0  0  0  0
  160.2030  202.0300  149.3830 C   0  0  0  0  0  2  0  0  0  0  0  0
  161.3060  210.9480  149.9440 C   0  0  0  0  0  2  0  0  0  0  0  0
  162.3290  211.5830  149.0080 C   0  0  0  0  0  2  0  0  0  0  0  0
  161.7770  212.8020  148.2700 C   0  0  0  0  0  2  0  0  0  0  0  0
  161.0740  212.4110  146.9770 C   0  0  0  0  0  2  0  0  0  0  0  0
  159.3120  212.2160  144.7810 O   0  0  0  0  0  0  0  0  0  0  0  0
  159.6650  212.7800  147.0290 N   0  0  0  0  0  0  0  0  0  0  0  0
  158.8190  212.5790  145.8830 C   0  0  0  0  0  0  0  0  0  0  0  0
  156.9450  213.6700  147.1250 C   0  0  0  0  0  2  0  0  0  0  0  0
  157.6910  213.3210  148.4060 C   0  0  0  0  0  2  0  0  0  0  0  0
  159.1850  213.5300  148.1920 C   0  0  0  0  0  2  0  0  0  0  0  0
  157.3300  212.7030  146.0100 C   0  0  0  0  0  2  0  0  0  0  0  0
  1  4  1  0  0  0  0
  2 24  1  6  0  0  0
  2  5  1  0  0  0  0
  3  7  2  0  0  0  0
  4  6  1  0  0  0  0
  4 16  1  6  0  0  0
  5  6  1  0  0  0  0
  6 10  1  1  0  0  0
  7  2  1  0  0  0  0
  7  1  1  0  0  0  0
  8 14  1  0  0  0  0
  8  9  1  0  0  0  0
 10 12  1  0  0  0  0
 10 13  2  0  0  0  0
 11  9  2  0  0  0  0
 12  8  2  0  0  0  0
 13 11  1  0  0  0  0
 16 15  1  0  0  0  0
 17  1  1  0  0  0  0
 18 17  1  0  0  0  0
 18 19  1  0  0  0  0
 20 19  1  0  0  0  0
 21 23  1  0  0  0  0
 21 22  1  0  0  0  0
 22 20  1  1  0  0  0
 23 22  1  0  0  0  0
 25 24  1  0  0  0  0
 26 25  1  0  0  0  0
 27 29  1  0  0  0  0
 27 26  1  0  0  0  0
 28 30  2  0  0  0  0
 29 33  1  0  0  0  0
 30 34  1  0  0  0  0
 30 29  1  0  0  0  0
 31 32  1  0  0  0  0
 33 32  1  0  0  0  0
 34 31  1  0  0  0  0
M  END
>  <MODEL>
8

>  <REMARK>
 VINA RESULT:      -6.6      3.642      8.622
  Name = 
  12 active torsions:
  status: ('A' for Active; 'I' for Inactive)
    1  A    between atoms: C_2  and  C_15
    2  A    between atoms: C_2  and  C_25
    3  A    between atoms: C_3  and  N_13
    4  A    between atoms: C_3  and  C_17
    5  A    between atoms: N_4  and  C_15
    6  A    between atoms: C_5  and  C_18
    7  A    between atoms: C_6  and  C_9
    8  A    between atoms: C_9  and  C_25
    9  A    between atoms: C_12  and  C_28
   10  A    between atoms: C_17  and  C_29
   11  A    between atoms: C_18  and  C_29
   12  A    between atoms: C_21  and  C_32
                            x       y       z     vdW  Elec       q    Type
                         _______ _______ _______ _____ _____    ______ ____

>  <TORSDO>
F 12

$$$$
=
 OpenBabel11062408013D

 34 37  0  0  1  0  0  0  0  0999 V2000
  160.7790  210.6430  154.6190 N   0  0  0  0  0  0  0  0  0  0  0  0
  161.3850  208.2340  154.0760 C   0  0  1  0  0  3  0  0  0  0  0  0
  160.7750  208.9890  156.2850 O   0  0  0  0  0  0  0  0  0  0  0  0
  160.8910  210.9570  153.1920 C   0  0  1  0  0  3  0  0  0  0  0  0
  161.0200  208.5860  152.7610 O   0  0  0  0  0  0  0  0  0  0  0  0
  161.6420  209.8160  152.4800 C   0  0  1  0  0  3  0  0  0  0  0  0
  160.9220  209.2800  155.0670 C   0  0  0  0  0  0  0  0  0  0  0  0
  161.9460  211.5490  149.1210 C   0  0  0  0  0  0  0  0  0  0  0  0
  162.1050  210.4670  148.2520 C   0  0  0  0  0  3  0  0  0  0  0  0
  161.8170  210.0260  151.0050 C   0  0  0  0  0  0  0  0  0  0  0  0
  162.1160  209.1630  148.7560 C   0  0  0  0  0  3  0  0  0  0  0  0
  161.7980  211.3280  150.4950 C   0  0  0  0  0  3  0  0  0  0  0  0
  161.9730  208.9420  150.1280 C   0  0  0  0  0  3  0  0  0  0  0  0
  161.9350  212.8140  148.6320 F   0  0  0  0  0  0  0  0  0  0  0  0
  159.2260  212.6570  152.4490 C   0  0  0  0  0  1  0  0  0  0  0  0
  159.4960  211.1740  152.6140 C   0  0  0  0  0  2  0  0  0  0  0  0
  160.7010  211.7460  155.5720 C   0  0  0  0  0  2  0  0  0  0  0  0
  159.2550  212.0560  155.9450 C   0  0  0  0  0  2  0  0  0  0  0  0
  159.0300  213.5450  156.1400 C   0  0  0  0  0  2  0  0  0  0  0  0
  157.5460  213.8560  156.1960 C   0  0  0  0  0  2  0  0  0  0  0  0
  155.4100  212.7060  156.0620 N   0  0  0  0  0  2  0  0  0  0  0  0
  156.7700  212.7560  155.5050 C   0  0  1  0  0  3  0  0  0  0  0  0
  155.6590  213.3300  154.7560 C   0  0  0  0  0  2  0  0  0  0  0  0
  160.8190  206.8530  154.3850 C   0  0  0  0  0  2  0  0  0  0  0  0
  161.4980  205.7580  153.5700 C   0  0  0  0  0  2  0  0  0  0  0  0
  160.9160  205.6230  152.1640 C   0  0  0  0  0  2  0  0  0  0  0  0
  160.6970  204.1660  151.7790 C   0  0  0  0  0  2  0  0  0  0  0  0
  161.0690  201.6370  150.5840 O   0  0  0  0  0  0  0  0  0  0  0  0
  160.9580  203.9680  150.3580 N   0  0  0  0  0  0  0  0  0  0  0  0
  161.0610  202.6380  149.8180 C   0  0  0  0  0  0  0  0  0  0  0  0
  161.6320  203.6290  147.5960 C   0  0  0  0  0  2  0  0  0  0  0  0
  160.9590  204.9070  148.0770 C   0  0  0  0  0  2  0  0  0  0  0  0
  161.3030  205.1350  149.5440 C   0  0  0  0  0  2  0  0  0  0  0  0
  161.0620  202.4220  148.3340 C   0  0  0  0  0  2  0  0  0  0  0  0
  1  7  1  0  0  0  0
  1 17  1  0  0  0  0
  2 24  1  1  0  0  0
  2  7  1  0  0  0  0
  4 16  1  6  0  0  0
  4  1  1  0  0  0  0
  5  2  1  0  0  0  0
  6 10  1  6  0  0  0
  6  5  1  0  0  0  0
  6  4  1  0  0  0  0
  7  3  2  0  0  0  0
  8 12  1  0  0  0  0
  9 11  1  0  0  0  0
  9  8  2  0  0  0  0
 11 13  2  0  0  0  0
 12 10  2  0  0  0  0
 13 10  1  0  0  0  0
 14  8  1  0  0  0  0
 15 16  1  0  0  0  0
 17 18  1  0  0  0  0
 18 19  1  0  0  0  0
 19 20  1  0  0  0  0
 22 21  1  0  0  0  0
 22 20  1  1  0  0  0
 23 22  1  0  0  0  0
 23 21  1  0  0  0  0
 25 24  1  0  0  0  0
 26 25  1  0  0  0  0
 27 26  1  0  0  0  0
 29 27  1  0  0  0  0
 30 29  1  0  0  0  0
 30 28  2  0  0  0  0
 31 32  1  0  0  0  0
 31 34  1  0  0  0  0
 32 33  1  0  0  0  0
 33 29  1  0  0  0  0
 34 30  1  0  0  0  0
M  END
>  <MODEL>
9

>  <REMARK>
 VINA RESULT:      -6.5      3.002      7.947
  Name = 
  12 active torsions:
  status: ('A' for Active; 'I' for Inactive)
    1  A    between atoms: C_2  and  C_15
    2  A    between atoms: C_2  and  C_25
    3  A    between atoms: C_3  and  N_13
    4  A    between atoms: C_3  and  C_17
    5  A    between atoms: N_4  and  C_15
    6  A    between atoms: C_5  and  C_18
    7  A    between atoms: C_6  and  C_9
    8  A    between atoms: C_9  and  C_25
    9  A    between atoms: C_12  and  C_28
   10  A    between atoms: C_17  and  C_29
   11  A    between atoms: C_18  and  C_29
   12  A    between atoms: C_21  and  C_32
                            x       y       z     vdW  Elec       q    Type
                         _______ _______ _______ _____ _____    ______ ____

>  <TORSDO>
F 12

$$$$
