=
 OpenBabel11062409423D

 34 40  0  0  1  0  0  0  0  0999 V2000
  161.4010  207.8890  151.2320 C   0  0  0  0  0  0  0  0  0  0  0  0
  161.8650  211.6510  150.7160 C   0  0  0  0  0  2  0  0  0  0  0  0
  161.4140  210.2630  152.7370 C   0  0  0  0  0  3  0  0  0  0  0  0
  161.0140  205.4130  152.4520 N   0  0  0  0  0  0  0  0  0  0  0  0
  161.3790  206.6860  150.5130 O   0  0  0  0  0  0  0  0  0  0  0  0
  161.0230  206.6110  153.2400 C   0  0  0  0  0  0  0  0  0  0  0  0
  160.8490  207.7320  155.3840 C   0  0  0  0  0  3  0  0  0  0  0  0
  160.8400  206.5530  154.6250 C   0  0  0  0  0  3  0  0  0  0  0  0
  161.1820  205.4530  151.1590 C   0  0  0  0  0  0  0  0  0  0  0  0
  161.2230  209.0360  153.3760 C   0  0  0  0  0  0  0  0  0  0  0  0
  161.2160  207.8510  152.6180 C   0  0  0  0  0  0  0  0  0  0  0  0
  161.0400  208.9710  154.7610 C   0  0  0  0  0  3  0  0  0  0  0  0
  161.6160  211.6420  149.2110 C   0  0  2  0  0  3  0  0  0  0  0  0
  162.3410  210.4570  148.5840 C   0  0  0  0  0  2  0  0  0  0  0  0
  161.5870  210.3160  151.3480 C   0  0  0  0  0  0  0  0  0  0  0  0
  161.7200  209.1570  149.0870 C   0  0  0  0  0  2  0  0  0  0  0  0
  161.6010  209.1200  150.5880 C   0  0  0  0  0  0  0  0  0  0  0  0
  161.1500  201.7780  150.2860 C   0  0  0  0  0  3  0  0  0  0  0  0
  161.1630  204.2510  148.9650 C   0  0  0  0  0  3  0  0  0  0  0  0
  161.1270  200.6780  146.7490 C   0  0  0  0  0  0  0  0  0  0  0  0
  161.1330  200.6360  148.1500 C   0  0  0  0  0  3  0  0  0  0  0  0
  161.1450  201.8210  148.8910 C   0  0  0  0  0  0  0  0  0  0  0  0
  161.1460  203.1090  146.8290 C   0  0  0  0  0  3  0  0  0  0  0  0
  161.1510  203.0670  148.2250 C   0  0  0  0  0  0  0  0  0  0  0  0
  161.1340  201.9190  146.0940 C   0  0  0  0  0  3  0  0  0  0  0  0
  161.1690  204.2100  150.3690 C   0  0  0  0  0  0  0  0  0  0  0  0
  161.1630  202.9680  151.0210 C   0  0  0  0  0  3  0  0  0  0  0  0
  161.1140  199.4270  145.9740 C   0  0  0  0  0  0  0  0  0  0  0  0
  161.8330  198.4520  146.3220 O   0  0  0  0  0  1  0  0  0  0  0  0
  160.3090  199.3090  144.8470 O   0  0  0  0  0  0  0  0  0  0  0  0
  162.1060  212.8810  148.6330 N   0  0  0  0  0  2  0  0  0  0  0  0
  161.4410  213.0500  147.3530 C   0  0  1  0  0  3  0  0  0  0  0  0
  161.5940  214.4440  146.9090 N   0  0  0  0  0  2  0  0  0  0  0  0
  162.4280  213.3810  146.3320 C   0  0  0  0  0  2  0  0  0  0  0  0
  1 11  1  0  0  0  0
  2 15  1  0  0  0  0
  3 10  1  0  0  0  0
  4  6  1  0  0  0  0
  5  9  1  0  0  0  0
  5  1  1  0  0  0  0
  6  8  1  0  0  0  0
  8  7  2  0  0  0  0
  9  4  2  0  0  0  0
 10 12  2  0  0  0  0
 11  6  2  0  0  0  0
 11 10  1  0  0  0  0
 12  7  1  0  0  0  0
 13 31  1  6  0  0  0
 13  2  1  0  0  0  0
 14 16  1  0  0  0  0
 14 13  1  0  0  0  0
 15  3  2  0  0  0  0
 16 17  1  0  0  0  0
 17  1  2  0  0  0  0
 17 15  1  0  0  0  0
 18 27  1  0  0  0  0
 19 26  1  0  0  0  0
 20 21  2  0  0  0  0
 21 22  1  0  0  0  0
 22 18  2  0  0  0  0
 23 24  1  0  0  0  0
 24 22  1  0  0  0  0
 24 19  2  0  0  0  0
 25 20  1  0  0  0  0
 25 23  2  0  0  0  0
 26 27  2  0  0  0  0
 26  9  1  0  0  0  0
 28 29  1  0  0  0  0
 28 20  1  0  0  0  0
 30 28  2  0  0  0  0
 32 31  1  1  0  0  0
 33 32  1  0  0  0  0
 34 33  1  0  0  0  0
 34 32  1  0  0  0  0
M  END
>  <MODEL>
1

>  <REMARK>
 VINA RESULT:      -9.0      0.000      0.000
  Name = 
  4 active torsions:
  status: ('A' for Active; 'I' for Inactive)
    1  A    between atoms: C_3  and  N_25
    2  A    between atoms: C_7  and  C_11
    3  A    between atoms: C_18  and  C_30
    4  A    between atoms: C_23  and  N_25
                            x       y       z     vdW  Elec       q    Type
                         _______ _______ _______ _____ _____    ______ ____

>  <TORSDO>
F 4

$$$$
=
 OpenBabel11062409423D

 34 40  0  0  1  0  0  0  0  0999 V2000
  161.1570  204.8060  148.3200 C   0  0  0  0  0  0  0  0  0  0  0  0
  161.0670  204.0080  144.5800 C   0  0  0  0  0  2  0  0  0  0  0  0
  161.1430  202.5710  146.6150 C   0  0  0  0  0  3  0  0  0  0  0  0
  161.1830  204.5040  151.0900 N   0  0  0  0  0  0  0  0  0  0  0  0
  161.1720  205.8970  149.2000 O   0  0  0  0  0  0  0  0  0  0  0  0
  161.1710  203.3490  150.2400 C   0  0  0  0  0  0  0  0  0  0  0  0
  161.1600  200.9420  149.9440 C   0  0  0  0  0  3  0  0  0  0  0  0
  161.1710  202.0630  150.7870 C   0  0  0  0  0  3  0  0  0  0  0  0
  161.1850  205.7100  150.5940 C   0  0  0  0  0  0  0  0  0  0  0  0
  161.1510  202.3890  148.0000 C   0  0  0  0  0  0  0  0  0  0  0  0
  161.1590  203.5110  148.8480 C   0  0  0  0  0  0  0  0  0  0  0  0
  161.1500  201.1040  148.5530 C   0  0  0  0  0  3  0  0  0  0  0  0
  161.5040  205.3910  144.1070 C   0  0  2  0  0  3  0  0  0  0  0  0
  160.7720  206.4570  144.9120 C   0  0  0  0  0  2  0  0  0  0  0  0
  161.1530  203.8620  146.0730 C   0  0  0  0  0  0  0  0  0  0  0  0
  161.2170  206.3890  146.3690 C   0  0  0  0  0  2  0  0  0  0  0  0
  161.1400  204.9920  146.9280 C   0  0  0  0  0  0  0  0  0  0  0  0
  161.2730  209.2970  151.7750 C   0  0  0  0  0  3  0  0  0  0  0  0
  161.1540  206.7230  152.8800 C   0  0  0  0  0  3  0  0  0  0  0  0
  161.1960  210.0960  155.3910 C   0  0  0  0  0  0  0  0  0  0  0  0
  161.2420  210.2550  153.9990 C   0  0  0  0  0  3  0  0  0  0  0  0
  161.2280  209.1370  153.1610 C   0  0  0  0  0  0  0  0  0  0  0  0
  161.1230  207.6810  155.1050 C   0  0  0  0  0  3  0  0  0  0  0  0
  161.1680  207.8400  153.7180 C   0  0  0  0  0  0  0  0  0  0  0  0
  161.1370  208.8050  155.9380 C   0  0  0  0  0  3  0  0  0  0  0  0
  161.1990  206.8820  151.4860 C   0  0  0  0  0  0  0  0  0  0  0  0
  161.2580  208.1730  150.9420 C   0  0  0  0  0  3  0  0  0  0  0  0
  161.2120  211.2770  156.2690 C   0  0  0  0  0  0  0  0  0  0  0  0
  160.3480  212.1850  156.1350 O   0  0  0  0  0  0  0  0  0  0  0  0
  162.1820  211.4030  157.2550 O   0  0  0  0  0  1  0  0  0  0  0  0
  161.1940  205.5390  142.6950 N   0  0  0  0  0  2  0  0  0  0  0  0
  162.3210  206.2140  142.0760 C   0  0  1  0  0  3  0  0  0  0  0  0
  162.3740  205.8580  140.6510 N   0  0  0  0  0  2  0  0  0  0  0  0
  161.8330  207.1560  141.0760 C   0  0  0  0  0  2  0  0  0  0  0  0
  1 11  1  0  0  0  0
  1  5  1  0  0  0  0
  2 15  1  0  0  0  0
  3 10  1  0  0  0  0
  5  9  1  0  0  0  0
  6  8  1  0  0  0  0
  6  4  1  0  0  0  0
  7  8  2  0  0  0  0
  9  4  2  0  0  0  0
  9 26  1  0  0  0  0
 10 12  2  0  0  0  0
 10 11  1  0  0  0  0
 11  6  2  0  0  0  0
 12  7  1  0  0  0  0
 13 31  1  6  0  0  0
 13  2  1  0  0  0  0
 13 14  1  0  0  0  0
 14 16  1  0  0  0  0
 15  3  2  0  0  0  0
 15 17  1  0  0  0  0
 16 17  1  0  0  0  0
 17  1  2  0  0  0  0
 18 22  1  0  0  0  0
 19 24  1  0  0  0  0
 20 25  1  0  0  0  0
 20 28  1  0  0  0  0
 21 20  2  0  0  0  0
 22 24  2  0  0  0  0
 22 21  1  0  0  0  0
 23 25  2  0  0  0  0
 24 23  1  0  0  0  0
 26 19  2  0  0  0  0
 27 26  1  0  0  0  0
 27 18  2  0  0  0  0
 28 30  1  0  0  0  0
 29 28  2  0  0  0  0
 32 31  1  1  0  0  0
 33 34  1  0  0  0  0
 33 32  1  0  0  0  0
 34 32  1  0  0  0  0
M  END
>  <MODEL>
2

>  <REMARK>
 VINA RESULT:      -8.9      3.811      8.934
  Name = 
  4 active torsions:
  status: ('A' for Active; 'I' for Inactive)
    1  A    between atoms: C_3  and  N_25
    2  A    between atoms: C_7  and  C_11
    3  A    between atoms: C_18  and  C_30
    4  A    between atoms: C_23  and  N_25
                            x       y       z     vdW  Elec       q    Type
                         _______ _______ _______ _____ _____    ______ ____

>  <TORSDO>
F 4

$$$$
=
 OpenBabel11062409423D

 34 40  0  0  1  0  0  0  0  0999 V2000
  160.6990  208.5250  153.1260 C   0  0  0  0  0  0  0  0  0  0  0  0
  160.4640  212.3430  153.1010 C   0  0  0  0  0  2  0  0  0  0  0  0
  160.5700  210.6660  154.9420 C   0  0  0  0  0  3  0  0  0  0  0  0
  160.9160  205.8930  154.0160 N   0  0  0  0  0  0  0  0  0  0  0  0
  160.7580  207.4320  152.2500 O   0  0  0  0  0  0  0  0  0  0  0  0
  160.8570  206.9700  154.9610 C   0  0  0  0  0  0  0  0  0  0  0  0
  160.8480  207.7780  157.2470 C   0  0  0  0  0  3  0  0  0  0  0  0
  160.9080  206.7150  156.3340 C   0  0  0  0  0  3  0  0  0  0  0  0
  160.8670  206.1150  152.7320 C   0  0  0  0  0  0  0  0  0  0  0  0
  160.6830  209.3580  155.4170 C   0  0  0  0  0  0  0  0  0  0  0  0
  160.7460  208.2900  154.5040 C   0  0  0  0  0  0  0  0  0  0  0  0
  160.7360  209.0970  156.7900 C   0  0  0  0  0  3  0  0  0  0  0  0
  159.9830  212.4680  151.6580 C   0  0  2  0  0  3  0  0  0  0  0  0
  160.7800  211.5160  150.7740 C   0  0  0  0  0  2  0  0  0  0  0  0
  160.5090  210.9140  153.5650 C   0  0  0  0  0  0  0  0  0  0  0  0
  160.4650  210.0760  151.1630 C   0  0  0  0  0  2  0  0  0  0  0  0
  160.5940  209.8400  152.6450 C   0  0  0  0  0  0  0  0  0  0  0  0
  160.9640  202.5960  151.3630 C   0  0  0  0  0  3  0  0  0  0  0  0
  161.0090  205.2280  150.3980 C   0  0  0  0  0  3  0  0  0  0  0  0
  161.1830  201.9950  147.7140 C   0  0  0  0  0  0  0  0  0  0  0  0
  161.1030  201.7600  149.0940 C   0  0  0  0  0  3  0  0  0  0  0  0
  161.0450  202.8310  149.9900 C   0  0  0  0  0  0  0  0  0  0  0  0
  161.1480  204.3920  148.1280 C   0  0  0  0  0  3  0  0  0  0  0  0
  161.0670  204.1570  149.5030 C   0  0  0  0  0  0  0  0  0  0  0  0
  161.2050  203.3150  147.2380 C   0  0  0  0  0  3  0  0  0  0  0  0
  160.9280  204.9930  151.7790 C   0  0  0  0  0  0  0  0  0  0  0  0
  160.9060  203.6740  152.2540 C   0  0  0  0  0  3  0  0  0  0  0  0
  161.2440  200.8620  146.7760 C   0  0  0  0  0  0  0  0  0  0  0  0
  161.8670  199.8110  147.0830 O   0  0  0  0  0  1  0  0  0  0  0  0
  160.6160  200.9440  145.5390 O   0  0  0  0  0  0  0  0  0  0  0  0
  160.1690  213.8350  151.2030 N   0  0  0  0  0  2  0  0  0  0  0  0
  158.8510  214.4380  151.1060 C   0  0  1  0  0  3  0  0  0  0  0  0
  158.4270  214.4480  149.6980 N   0  0  0  0  0  2  0  0  0  0  0  0
  157.8960  213.4440  150.6300 C   0  0  0  0  0  2  0  0  0  0  0  0
  1 11  1  0  0  0  0
  2 15  1  0  0  0  0
  3 10  1  0  0  0  0
  4  6  1  0  0  0  0
  5  9  1  0  0  0  0
  5  1  1  0  0  0  0
  6  8  1  0  0  0  0
  8  7  2  0  0  0  0
  9  4  2  0  0  0  0
 10 12  2  0  0  0  0
 11  6  2  0  0  0  0
 11 10  1  0  0  0  0
 12  7  1  0  0  0  0
 13 31  1  6  0  0  0
 13  2  1  0  0  0  0
 14 16  1  0  0  0  0
 14 13  1  0  0  0  0
 15  3  2  0  0  0  0
 16 17  1  0  0  0  0
 17  1  2  0  0  0  0
 17 15  1  0  0  0  0
 18 27  1  0  0  0  0
 19 26  1  0  0  0  0
 20 21  2  0  0  0  0
 21 22  1  0  0  0  0
 22 18  2  0  0  0  0
 23 24  1  0  0  0  0
 24 22  1  0  0  0  0
 24 19  2  0  0  0  0
 25 20  1  0  0  0  0
 25 23  2  0  0  0  0
 26 27  2  0  0  0  0
 26  9  1  0  0  0  0
 28 29  1  0  0  0  0
 28 20  1  0  0  0  0
 30 28  2  0  0  0  0
 32 31  1  6  0  0  0
 33 34  1  0  0  0  0
 33 32  1  0  0  0  0
 34 32  1  0  0  0  0
M  END
>  <MODEL>
3

>  <REMARK>
 VINA RESULT:      -7.5      1.918      2.498
  Name = 
  4 active torsions:
  status: ('A' for Active; 'I' for Inactive)
    1  A    between atoms: C_3  and  N_25
    2  A    between atoms: C_7  and  C_11
    3  A    between atoms: C_18  and  C_30
    4  A    between atoms: C_23  and  N_25
                            x       y       z     vdW  Elec       q    Type
                         _______ _______ _______ _____ _____    ______ ____

>  <TORSDO>
F 4

$$$$
=
 OpenBabel11062409423D

 34 40  0  0  1  0  0  0  0  0999 V2000
  161.3970  208.1840  150.4600 C   0  0  0  0  0  0  0  0  0  0  0  0
  161.8140  211.9860  150.5420 C   0  0  0  0  0  2  0  0  0  0  0  0
  161.3850  210.2920  152.3190 C   0  0  0  0  0  3  0  0  0  0  0  0
  161.0430  205.5420  151.2750 N   0  0  0  0  0  0  0  0  0  0  0  0
  161.3880  207.1090  149.5600 O   0  0  0  0  0  0  0  0  0  0  0  0
  161.0390  206.6010  152.2420 C   0  0  0  0  0  0  0  0  0  0  0  0
  160.8570  207.3680  154.5350 C   0  0  0  0  0  3  0  0  0  0  0  0
  160.8600  206.3230  153.6000 C   0  0  0  0  0  3  0  0  0  0  0  0
  161.2080  205.7870  150.0040 C   0  0  0  0  0  0  0  0  0  0  0  0
  161.2110  208.9770  152.7580 C   0  0  0  0  0  0  0  0  0  0  0  0
  161.2160  207.9260  151.8230 C   0  0  0  0  0  0  0  0  0  0  0  0
  161.0320  208.6930  154.1160 C   0  0  0  0  0  3  0  0  0  0  0  0
  161.5610  212.2110  149.0550 C   0  0  2  0  0  3  0  0  0  0  0  0
  162.2990  211.1480  148.2490 C   0  0  0  0  0  2  0  0  0  0  0  0
  161.5540  210.5650  150.9570 C   0  0  0  0  0  0  0  0  0  0  0  0
  161.6950  209.7780  148.5400 C   0  0  0  0  0  2  0  0  0  0  0  0
  161.5800  209.5040  150.0170 C   0  0  0  0  0  0  0  0  0  0  0  0
  161.2060  203.9320  146.7140 C   0  0  0  0  0  3  0  0  0  0  0  0
  161.2080  203.3470  149.4560 C   0  0  0  0  0  3  0  0  0  0  0  0
  161.2060  200.2290  146.6350 C   0  0  0  0  0  0  0  0  0  0  0  0
  161.2050  201.5640  146.2070 C   0  0  0  0  0  3  0  0  0  0  0  0
  161.2060  202.6030  147.1410 C   0  0  0  0  0  0  0  0  0  0  0  0
  161.2070  200.9780  148.9490 C   0  0  0  0  0  3  0  0  0  0  0  0
  161.2070  202.3080  148.5220 C   0  0  0  0  0  0  0  0  0  0  0  0
  161.2060  199.9430  148.0090 C   0  0  0  0  0  3  0  0  0  0  0  0
  161.2070  204.6840  149.0280 C   0  0  0  0  0  0  0  0  0  0  0  0
  161.2070  204.9680  147.6540 C   0  0  0  0  0  3  0  0  0  0  0  0
  161.2050  199.1380  145.6460 C   0  0  0  0  0  0  0  0  0  0  0  0
  160.2160  198.9660  144.8850 O   0  0  0  0  0  0  0  0  0  0  0  0
  162.2970  198.2840  145.5450 O   0  0  0  0  0  1  0  0  0  0  0  0
  162.0340  213.5320  148.6780 N   0  0  0  0  0  2  0  0  0  0  0  0
  160.8940  214.2640  148.1550 C   0  0  1  0  0  3  0  0  0  0  0  0
  161.0380  214.4050  146.6990 N   0  0  0  0  0  2  0  0  0  0  0  0
  160.1290  213.4000  147.2650 C   0  0  0  0  0  2  0  0  0  0  0  0
  1 11  1  0  0  0  0
  2 15  1  0  0  0  0
  3 10  1  0  0  0  0
  4  6  1  0  0  0  0
  5  9  1  0  0  0  0
  5  1  1  0  0  0  0
  6  8  1  0  0  0  0
  8  7  2  0  0  0  0
  9  4  2  0  0  0  0
 10 12  2  0  0  0  0
 11  6  2  0  0  0  0
 11 10  1  0  0  0  0
 12  7  1  0  0  0  0
 13 31  1  6  0  0  0
 13  2  1  0  0  0  0
 14 16  1  0  0  0  0
 14 13  1  0  0  0  0
 15  3  2  0  0  0  0
 16 17  1  0  0  0  0
 17  1  2  0  0  0  0
 17 15  1  0  0  0  0
 18 22  2  0  0  0  0
 18 27  1  0  0  0  0
 20 25  1  0  0  0  0
 21 20  2  0  0  0  0
 21 22  1  0  0  0  0
 22 24  1  0  0  0  0
 24 23  1  0  0  0  0
 24 19  2  0  0  0  0
 25 23  2  0  0  0  0
 26 19  1  0  0  0  0
 26  9  1  0  0  0  0
 27 26  2  0  0  0  0
 28 20  1  0  0  0  0
 29 28  2  0  0  0  0
 30 28  1  0  0  0  0
 32 31  1  1  0  0  0
 33 34  1  0  0  0  0
 33 32  1  0  0  0  0
 34 32  1  0  0  0  0
M  END
>  <MODEL>
4

>  <REMARK>
 VINA RESULT:      -7.1      0.928      1.657
  Name = 
  4 active torsions:
  status: ('A' for Active; 'I' for Inactive)
    1  A    between atoms: C_3  and  N_25
    2  A    between atoms: C_7  and  C_11
    3  A    between atoms: C_18  and  C_30
    4  A    between atoms: C_23  and  N_25
                            x       y       z     vdW  Elec       q    Type
                         _______ _______ _______ _____ _____    ______ ____

>  <TORSDO>
F 4

$$$$
=
 OpenBabel11062409423D

 34 40  0  0  1  0  0  0  0  0999 V2000
  161.5640  207.9710  150.7180 C   0  0  0  0  0  0  0  0  0  0  0  0
  161.3850  209.3050  154.2980 C   0  0  0  0  0  2  0  0  0  0  0  0
  161.8280  210.4010  152.1050 C   0  0  0  0  0  3  0  0  0  0  0  0
  161.8100  207.8620  147.9440 N   0  0  0  0  0  0  0  0  0  0  0  0
  161.4470  206.7760  149.9940 O   0  0  0  0  0  0  0  0  0  0  0  0
  161.9430  209.1140  148.6300 C   0  0  0  0  0  0  0  0  0  0  0  0
  162.3260  211.5080  148.6030 C   0  0  0  0  0  3  0  0  0  0  0  0
  162.1960  210.2910  147.9200 C   0  0  0  0  0  3  0  0  0  0  0  0
  161.5770  206.7550  148.5940 C   0  0  0  0  0  0  0  0  0  0  0  0
  161.9520  210.3780  150.7140 C   0  0  0  0  0  0  0  0  0  0  0  0
  161.8200  209.1590  150.0250 C   0  0  0  0  0  0  0  0  0  0  0  0
  162.2030  211.5530  149.9970 C   0  0  0  0  0  3  0  0  0  0  0  0
  161.5500  207.9530  154.9850 C   0  0  2  0  0  3  0  0  0  0  0  0
  160.6970  206.9120  154.2700 C   0  0  0  0  0  2  0  0  0  0  0  0
  161.5850  209.2180  152.8120 C   0  0  0  0  0  0  0  0  0  0  0  0
  161.2350  206.6970  152.8590 C   0  0  0  0  0  2  0  0  0  0  0  0
  161.4320  207.9930  152.1150 C   0  0  0  0  0  0  0  0  0  0  0  0
  161.2780  204.2740  145.7620 C   0  0  0  0  0  3  0  0  0  0  0  0
  161.3580  204.2640  148.5650 C   0  0  0  0  0  3  0  0  0  0  0  0
  160.9800  200.6470  146.4530 C   0  0  0  0  0  0  0  0  0  0  0  0
  161.0660  201.8610  145.7580 C   0  0  0  0  0  3  0  0  0  0  0  0
  161.1920  203.0660  146.4550 C   0  0  0  0  0  0  0  0  0  0  0  0
  161.1460  201.8510  148.5610 C   0  0  0  0  0  3  0  0  0  0  0  0
  161.2320  203.0600  147.8670 C   0  0  0  0  0  0  0  0  0  0  0  0
  161.0200  200.6490  147.8560 C   0  0  0  0  0  3  0  0  0  0  0  0
  161.4440  205.4800  147.8690 C   0  0  0  0  0  0  0  0  0  0  0  0
  161.4030  205.4760  146.4670 C   0  0  0  0  0  3  0  0  0  0  0  0
  160.8470  199.3810  145.7130 C   0  0  0  0  0  0  0  0  0  0  0  0
  161.7000  198.4650  145.8550 O   0  0  0  0  0  1  0  0  0  0  0  0
  159.7770  199.1860  144.8480 O   0  0  0  0  0  0  0  0  0  0  0  0
  161.1340  208.0610  156.3730 N   0  0  0  0  0  2  0  0  0  0  0  0
  159.7080  208.3370  156.3740 C   0  0  1  0  0  3  0  0  0  0  0  0
  159.4380  209.4780  157.2600 N   0  0  0  0  0  2  0  0  0  0  0  0
  159.4690  209.6570  155.8030 C   0  0  0  0  0  2  0  0  0  0  0  0
  1 17  1  0  0  0  0
  2 13  1  0  0  0  0
  3 15  1  0  0  0  0
  4  9  2  0  0  0  0
  4  6  1  0  0  0  0
  5  1  1  0  0  0  0
  6 11  1  0  0  0  0
  7 12  2  0  0  0  0
  8  7  1  0  0  0  0
  8  6  2  0  0  0  0
  9  5  1  0  0  0  0
 10  3  2  0  0  0  0
 11 10  1  0  0  0  0
 11  1  2  0  0  0  0
 12 10  1  0  0  0  0
 13 31  1  1  0  0  0
 14 13  1  0  0  0  0
 15  2  1  0  0  0  0
 16 14  1  0  0  0  0
 17 15  2  0  0  0  0
 17 16  1  0  0  0  0
 18 22  2  0  0  0  0
 18 27  1  0  0  0  0
 20 25  1  0  0  0  0
 21 20  2  0  0  0  0
 21 22  1  0  0  0  0
 22 24  1  0  0  0  0
 24 23  1  0  0  0  0
 24 19  2  0  0  0  0
 25 23  2  0  0  0  0
 26 19  1  0  0  0  0
 26  9  1  0  0  0  0
 27 26  2  0  0  0  0
 28 29  1  0  0  0  0
 28 20  1  0  0  0  0
 30 28  2  0  0  0  0
 32 31  1  1  0  0  0
 32 33  1  0  0  0  0
 34 32  1  0  0  0  0
 34 33  1  0  0  0  0
M  END
>  <MODEL>
5

>  <REMARK>
 VINA RESULT:      -6.4      1.973      5.156
  Name = 
  4 active torsions:
  status: ('A' for Active; 'I' for Inactive)
    1  A    between atoms: C_3  and  N_25
    2  A    between atoms: C_7  and  C_11
    3  A    between atoms: C_18  and  C_30
    4  A    between atoms: C_23  and  N_25
                            x       y       z     vdW  Elec       q    Type
                         _______ _______ _______ _____ _____    ______ ____

>  <TORSDO>
F 4

$$$$
=
 OpenBabel11062409423D

 34 40  0  0  1  0  0  0  0  0999 V2000
  160.5090  211.4090  150.9130 C   0  0  0  0  0  0  0  0  0  0  0  0
  158.9590  214.4140  152.7020 C   0  0  0  0  0  2  0  0  0  0  0  0
  160.4930  214.2150  150.7480 C   0  0  0  0  0  3  0  0  0  0  0  0
  161.9440  209.8670  149.0880 N   0  0  0  0  0  0  0  0  0  0  0  0
  160.5460  210.0090  150.9700 O   0  0  0  0  0  0  0  0  0  0  0  0
  161.9460  211.2970  148.9810 C   0  0  0  0  0  0  0  0  0  0  0  0
  162.6590  213.3330  147.8730 C   0  0  0  0  0  3  0  0  0  0  0  0
  162.6640  211.9340  147.9650 C   0  0  0  0  0  3  0  0  0  0  0  0
  161.2800  209.2600  150.0330 C   0  0  0  0  0  0  0  0  0  0  0  0
  161.2180  213.4680  149.8160 C   0  0  0  0  0  0  0  0  0  0  0  0
  161.2230  212.0640  149.9040 C   0  0  0  0  0  0  0  0  0  0  0  0
  161.9370  214.0990  148.7960 C   0  0  0  0  0  3  0  0  0  0  0  0
  158.5940  213.6710  153.9840 C   0  0  2  0  0  3  0  0  0  0  0  0
  158.0020  212.3120  153.6310 C   0  0  0  0  0  2  0  0  0  0  0  0
  159.7840  213.5720  151.7700 C   0  0  0  0  0  0  0  0  0  0  0  0
  159.0720  211.4460  152.9740 C   0  0  0  0  0  2  0  0  0  0  0  0
  159.7730  212.1570  151.8460 C   0  0  0  0  0  0  0  0  0  0  0  0
  161.3810  205.7740  151.4840 C   0  0  0  0  0  3  0  0  0  0  0  0
  161.2320  206.9980  148.9660 C   0  0  0  0  0  3  0  0  0  0  0  0
  161.2720  202.8040  149.2720 C   0  0  0  0  0  0  0  0  0  0  0  0
  161.3340  203.5940  150.4290 C   0  0  0  0  0  3  0  0  0  0  0  0
  161.3210  204.9880  150.3320 C   0  0  0  0  0  0  0  0  0  0  0  0
  161.1850  204.8190  147.9110 C   0  0  0  0  0  3  0  0  0  0  0  0
  161.2450  205.6050  149.0630 C   0  0  0  0  0  0  0  0  0  0  0  0
  161.1980  203.4240  148.0150 C   0  0  0  0  0  3  0  0  0  0  0  0
  161.2930  207.7900  150.1240 C   0  0  0  0  0  0  0  0  0  0  0  0
  161.3680  207.1690  151.3800 C   0  0  0  0  0  3  0  0  0  0  0  0
  161.2870  201.3370  149.3810 C   0  0  0  0  0  0  0  0  0  0  0  0
  161.1150  200.7760  150.4960 O   0  0  0  0  0  1  0  0  0  0  0  0
  161.4920  200.5540  148.2510 O   0  0  0  0  0  0  0  0  0  0  0  0
  157.6250  214.4510  154.7350 N   0  0  0  0  0  2  0  0  0  0  0  0
  156.6420  213.5210  155.2620 C   0  0  1  0  0  3  0  0  0  0  0  0
  156.0440  214.0890  156.4800 N   0  0  0  0  0  2  0  0  0  0  0  0
  155.3180  214.1300  155.2040 C   0  0  0  0  0  2  0  0  0  0  0  0
  1  5  1  0  0  0  0
  1 17  1  0  0  0  0
  2 13  1  0  0  0  0
  3 15  1  0  0  0  0
  4  9  2  0  0  0  0
  6  4  1  0  0  0  0
  6 11  1  0  0  0  0
  7  8  1  0  0  0  0
  7 12  2  0  0  0  0
  8  6  2  0  0  0  0
  9 26  1  0  0  0  0
  9  5  1  0  0  0  0
 10 11  1  0  0  0  0
 10  3  2  0  0  0  0
 11  1  2  0  0  0  0
 12 10  1  0  0  0  0
 13 31  1  6  0  0  0
 14 13  1  0  0  0  0
 15 17  2  0  0  0  0
 15  2  1  0  0  0  0
 16 14  1  0  0  0  0
 17 16  1  0  0  0  0
 19 24  2  0  0  0  0
 19 26  1  0  0  0  0
 20 28  1  0  0  0  0
 20 21  2  0  0  0  0
 22 21  1  0  0  0  0
 22 18  2  0  0  0  0
 23 25  2  0  0  0  0
 23 24  1  0  0  0  0
 24 22  1  0  0  0  0
 25 20  1  0  0  0  0
 26 27  2  0  0  0  0
 27 18  1  0  0  0  0
 28 29  1  0  0  0  0
 30 28  2  0  0  0  0
 32 31  1  6  0  0  0
 32 33  1  0  0  0  0
 34 32  1  0  0  0  0
 34 33  1  0  0  0  0
M  END
>  <MODEL>
6

>  <REMARK>
 VINA RESULT:      -6.3      3.544      5.797
  Name = 
  4 active torsions:
  status: ('A' for Active; 'I' for Inactive)
    1  A    between atoms: C_3  and  N_25
    2  A    between atoms: C_7  and  C_11
    3  A    between atoms: C_18  and  C_30
    4  A    between atoms: C_23  and  N_25
                            x       y       z     vdW  Elec       q    Type
                         _______ _______ _______ _____ _____    ______ ____

>  <TORSDO>
F 4

$$$$
=
 OpenBabel11062409423D

 34 40  0  0  1  0  0  0  0  0999 V2000
  161.2940  204.8790  149.8770 C   0  0  0  0  0  0  0  0  0  0  0  0
  161.9900  204.1660  146.1840 C   0  0  0  0  0  2  0  0  0  0  0  0
  161.4180  202.6950  148.1120 C   0  0  0  0  0  3  0  0  0  0  0  0
  160.6350  204.5260  152.5620 N   0  0  0  0  0  0  0  0  0  0  0  0
  161.2310  205.9430  150.7870 O   0  0  0  0  0  0  0  0  0  0  0  0
  160.6870  203.3970  151.6790 C   0  0  0  0  0  0  0  0  0  0  0  0
  160.4630  201.0170  151.2760 C   0  0  0  0  0  3  0  0  0  0  0  0
  160.4070  202.1110  152.1500 C   0  0  0  0  0  3  0  0  0  0  0  0
  160.8950  205.7310  152.1360 C   0  0  0  0  0  0  0  0  0  0  0  0
  161.0790  202.4880  149.4510 C   0  0  0  0  0  0  0  0  0  0  0  0
  161.0200  203.5840  150.3310 C   0  0  0  0  0  0  0  0  0  0  0  0
  160.7980  201.2040  149.9290 C   0  0  0  0  0  3  0  0  0  0  0  0
  162.6850  205.4920  145.8890 C   0  0  2  0  0  3  0  0  0  0  0  0
  161.9150  206.6270  146.5530 C   0  0  0  0  0  2  0  0  0  0  0  0
  161.7060  203.9840  147.6480 C   0  0  0  0  0  0  0  0  0  0  0  0
  161.9940  206.4770  148.0690 C   0  0  0  0  0  2  0  0  0  0  0  0
  161.6250  205.0910  148.5290 C   0  0  0  0  0  0  0  0  0  0  0  0
  160.8570  207.7340  155.3380 C   0  0  0  0  0  3  0  0  0  0  0  0
  160.7060  208.1860  152.5750 C   0  0  0  0  0  3  0  0  0  0  0  0
  160.5420  211.4240  155.2530 C   0  0  0  0  0  0  0  0  0  0  0  0
  160.6720  210.1160  155.7390 C   0  0  0  0  0  3  0  0  0  0  0  0
  160.7270  209.0360  154.8530 C   0  0  0  0  0  0  0  0  0  0  0  0
  160.5200  210.5670  152.9760 C   0  0  0  0  0  3  0  0  0  0  0  0
  160.6510  209.2640  153.4610 C   0  0  0  0  0  0  0  0  0  0  0  0
  160.4660  211.6430  153.8690 C   0  0  0  0  0  3  0  0  0  0  0  0
  160.8370  206.8760  153.0620 C   0  0  0  0  0  0  0  0  0  0  0  0
  160.9120  206.6590  154.4450 C   0  0  0  0  0  3  0  0  0  0  0  0
  160.4840  212.5560  156.1920 C   0  0  0  0  0  0  0  0  0  0  0  0
  161.1810  212.5530  157.2410 O   0  0  0  0  0  1  0  0  0  0  0  0
  159.6570  213.6420  155.9280 O   0  0  0  0  0  0  0  0  0  0  0  0
  162.7330  205.7030  144.4530 N   0  0  0  0  0  2  0  0  0  0  0  0
  161.3860  206.0280  144.0200 C   0  0  1  0  0  3  0  0  0  0  0  0
  161.2620  205.7590  142.5800 N   0  0  0  0  0  2  0  0  0  0  0  0
  160.7160  204.8160  143.5650 C   0  0  0  0  0  2  0  0  0  0  0  0
  1 11  1  0  0  0  0
  1  5  1  0  0  0  0
  2 15  1  0  0  0  0
  3 10  1  0  0  0  0
  5  9  1  0  0  0  0
  6  8  1  0  0  0  0
  6  4  1  0  0  0  0
  7  8  2  0  0  0  0
  9  4  2  0  0  0  0
  9 26  1  0  0  0  0
 10 12  2  0  0  0  0
 10 11  1  0  0  0  0
 11  6  2  0  0  0  0
 12  7  1  0  0  0  0
 13 31  1  6  0  0  0
 13  2  1  0  0  0  0
 13 14  1  0  0  0  0
 14 16  1  0  0  0  0
 15  3  2  0  0  0  0
 15 17  1  0  0  0  0
 16 17  1  0  0  0  0
 17  1  2  0  0  0  0
 19 26  2  0  0  0  0
 19 24  1  0  0  0  0
 20 21  1  0  0  0  0
 20 28  1  0  0  0  0
 22 18  1  0  0  0  0
 22 21  2  0  0  0  0
 23 24  2  0  0  0  0
 23 25  1  0  0  0  0
 24 22  1  0  0  0  0
 25 20  2  0  0  0  0
 26 27  1  0  0  0  0
 27 18  2  0  0  0  0
 28 29  1  0  0  0  0
 30 28  2  0  0  0  0
 32 31  1  1  0  0  0
 33 34  1  0  0  0  0
 33 32  1  0  0  0  0
 34 32  1  0  0  0  0
M  END
>  <MODEL>
7

>  <REMARK>
 VINA RESULT:      -6.2      3.817      8.891
  Name = 
  4 active torsions:
  status: ('A' for Active; 'I' for Inactive)
    1  A    between atoms: C_3  and  N_25
    2  A    between atoms: C_7  and  C_11
    3  A    between atoms: C_18  and  C_30
    4  A    between atoms: C_23  and  N_25
                            x       y       z     vdW  Elec       q    Type
                         _______ _______ _______ _____ _____    ______ ____

>  <TORSDO>
F 4

$$$$
=
 OpenBabel11062409423D

 34 40  0  0  1  0  0  0  0  0999 V2000
  161.2100  209.0370  151.0750 C   0  0  0  0  0  0  0  0  0  0  0  0
  160.7030  211.2670  154.1420 C   0  0  0  0  0  2  0  0  0  0  0  0
  161.3590  211.7520  151.7870 C   0  0  0  0  0  3  0  0  0  0  0  0
  161.7150  208.2030  148.4650 N   0  0  0  0  0  0  0  0  0  0  0  0
  161.1530  207.6920  150.6870 O   0  0  0  0  0  0  0  0  0  0  0  0
  161.7910  209.5940  148.8040 C   0  0  0  0  0  0  0  0  0  0  0  0
  162.1900  211.9030  148.1790 C   0  0  0  0  0  3  0  0  0  0  0  0
  162.1180  210.5460  147.8330 C   0  0  0  0  0  3  0  0  0  0  0  0
  161.4140  207.3040  149.3600 C   0  0  0  0  0  0  0  0  0  0  0  0
  161.6120  211.3650  150.4700 C   0  0  0  0  0  0  0  0  0  0  0  0
  161.5370  210.0040  150.1190 C   0  0  0  0  0  0  0  0  0  0  0  0
  161.9380  212.3120  149.4940 C   0  0  0  0  0  3  0  0  0  0  0  0
  160.7940  210.1480  155.1750 C   0  0  2  0  0  3  0  0  0  0  0  0
  160.0050  208.9400  154.6850 C   0  0  0  0  0  2  0  0  0  0  0  0
  161.0420  210.7930  152.7570 C   0  0  0  0  0  0  0  0  0  0  0  0
  160.6720  208.3690  153.4370 C   0  0  0  0  0  2  0  0  0  0  0  0
  160.9460  209.4260  152.3990 C   0  0  0  0  0  0  0  0  0  0  0  0
  161.2050  203.5440  149.6570 C   0  0  0  0  0  3  0  0  0  0  0  0
  161.3420  205.4880  147.6420 C   0  0  0  0  0  3  0  0  0  0  0  0
  161.1370  201.4120  146.6290 C   0  0  0  0  0  0  0  0  0  0  0  0
  161.1380  201.8030  147.9750 C   0  0  0  0  0  3  0  0  0  0  0  0
  161.2050  203.1560  148.3170 C   0  0  0  0  0  0  0  0  0  0  0  0
  161.2740  203.7470  145.9590 C   0  0  0  0  0  3  0  0  0  0  0  0
  161.2740  204.1350  147.3010 C   0  0  0  0  0  0  0  0  0  0  0  0
  161.2060  202.3900  145.6250 C   0  0  0  0  0  3  0  0  0  0  0  0
  161.3420  205.8800  148.9900 C   0  0  0  0  0  0  0  0  0  0  0  0
  161.2730  204.9010  149.9920 C   0  0  0  0  0  3  0  0  0  0  0  0
  161.0660  199.9850  146.2760 C   0  0  0  0  0  0  0  0  0  0  0  0
  160.4560  199.6130  145.2380 O   0  0  0  0  0  0  0  0  0  0  0  0
  161.6700  199.0320  147.0870 O   0  0  0  0  0  1  0  0  0  0  0  0
  160.2500  210.6120  156.4400 N   0  0  0  0  0  2  0  0  0  0  0  0
  159.1930  211.5590  156.1310 C   0  0  1  0  0  3  0  0  0  0  0  0
  158.0780  211.3600  157.0680 N   0  0  0  0  0  2  0  0  0  0  0  0
  159.0180  212.4740  157.2520 C   0  0  0  0  0  2  0  0  0  0  0  0
  1 17  1  0  0  0  0
  2 13  1  0  0  0  0
  3 15  1  0  0  0  0
  4  6  1  0  0  0  0
  4  9  2  0  0  0  0
  5  1  1  0  0  0  0
  6 11  1  0  0  0  0
  7 12  2  0  0  0  0
  8  7  1  0  0  0  0
  8  6  2  0  0  0  0
  9  5  1  0  0  0  0
 10  3  2  0  0  0  0
 11 10  1  0  0  0  0
 11  1  2  0  0  0  0
 12 10  1  0  0  0  0
 13 31  1  1  0  0  0
 14 13  1  0  0  0  0
 15  2  1  0  0  0  0
 16 14  1  0  0  0  0
 17 15  2  0  0  0  0
 17 16  1  0  0  0  0
 18 27  1  0  0  0  0
 19 26  1  0  0  0  0
 20 21  2  0  0  0  0
 21 22  1  0  0  0  0
 22 18  2  0  0  0  0
 23 24  1  0  0  0  0
 24 19  2  0  0  0  0
 24 22  1  0  0  0  0
 25 23  2  0  0  0  0
 25 20  1  0  0  0  0
 26  9  1  0  0  0  0
 26 27  2  0  0  0  0
 28 20  1  0  0  0  0
 28 30  1  0  0  0  0
 29 28  2  0  0  0  0
 32 31  1  1  0  0  0
 32 33  1  0  0  0  0
 32 34  1  0  0  0  0
 33 34  1  0  0  0  0
M  END
>  <MODEL>
8

>  <REMARK>
 VINA RESULT:      -6.1      2.414      4.957
  Name = 
  4 active torsions:
  status: ('A' for Active; 'I' for Inactive)
    1  A    between atoms: C_3  and  N_25
    2  A    between atoms: C_7  and  C_11
    3  A    between atoms: C_18  and  C_30
    4  A    between atoms: C_23  and  N_25
                            x       y       z     vdW  Elec       q    Type
                         _______ _______ _______ _____ _____    ______ ____

>  <TORSDO>
F 4

$$$$
