=
 OpenBabel11062408043D

 34 40  0  0  1  0  0  0  0  0999 V2000
  161.0740  206.5710  153.5830 C   0  0  0  0  0  0  0  0  0  0  0  0
  161.3760  208.9240  152.9240 C   0  0  0  0  0  0  0  0  0  0  0  0
  161.4570  207.1580  151.2660 C   0  0  0  0  0  0  0  0  0  0  0  0
  161.8190  207.9550  149.0570 C   0  0  0  0  0  0  0  0  0  0  0  0
  160.9860  208.3380  155.2450 C   0  0  0  0  0  3  0  0  0  0  0  0
  161.2150  209.3090  154.2570 C   0  0  0  0  0  3  0  0  0  0  0  0
  161.7350  209.4160  150.6560 C   0  0  0  0  0  0  0  0  0  0  0  0
  161.3030  207.5430  152.5990 C   0  0  2  0  0  3  0  0  0  0  0  0
  161.9880  209.1950  148.4380 C   0  0  0  0  0  3  0  0  0  0  0  0
  160.9160  206.9750  154.9110 C   0  0  0  0  0  3  0  0  0  0  0  0
  161.3880  205.8160  150.8610 C   0  0  0  0  0  0  0  0  0  0  0  0
  161.0040  205.2190  153.2090 C   0  0  0  0  0  3  0  0  0  0  0  0
  161.5920  209.8550  151.9380 N   0  0  0  0  0  0  0  0  0  0  0  0
  161.7750  206.5750  148.4640 C   0  0  0  0  0  3  0  0  0  0  0  0
  161.5350  205.5000  149.5410 C   0  0  0  0  0  0  0  0  0  0  0  0
  161.9400  210.1290  149.4910 C   0  0  0  0  0  0  0  0  0  0  0  0
  161.6640  208.1230  150.3630 N   0  0  0  0  0  0  0  0  0  0  0  0
  161.1590  204.8450  151.8590 C   0  0  0  0  0  3  0  0  0  0  0  0
  161.0350  202.5760  147.1330 C   0  0  0  0  0  0  0  0  0  0  0  0
  160.4200  201.6700  148.0060 O   0  0  0  0  0  0  0  0  0  0  0  0
  161.4630  204.0670  149.0980 C   0  0  2  0  0  3  0  0  0  0  0  0
  160.3950  201.8630  149.4210 C   0  0  0  0  0  2  0  0  0  0  0  0
  161.3600  203.9720  147.5770 C   0  0  0  0  0  2  0  0  0  0  0  0
  160.3030  203.3420  149.7710 C   0  0  0  0  0  2  0  0  0  0  0  0
  161.2300  202.2480  145.9350 O   0  0  0  0  0  0  0  0  0  0  0  0
  162.0260  211.6090  149.3550 C   0  0  0  0  0  2  0  0  0  0  0  0
  162.5310  211.9710  147.9680 C   0  0  0  0  0  2  0  0  0  0  0  0
  162.7130  213.3790  145.2570 C   0  0  0  0  0  1  0  0  0  0  0  0
  161.7880  213.1840  147.4200 C   0  0  1  0  0  3  0  0  0  0  0  0
  161.5180  212.9840  145.9850 N   0  0  0  0  0  0  0  0  0  0  0  0
  159.1390  213.5720  146.2680 C   0  0  0  0  0  2  0  0  0  0  0  0
  159.3530  212.8250  147.5110 N   0  0  0  0  0  2  0  0  0  0  0  0
  160.4910  213.3980  148.2240 C   0  0  0  0  0  2  0  0  0  0  0  0
  160.4540  213.8830  145.5410 C   0  0  0  0  0  2  0  0  0  0  0  0
  1 10  2  0  0  0  0
  2  6  1  0  0  0  0
  4 17  1  0  0  0  0
  6  5  2  0  0  0  0
  7 13  1  0  0  0  0
  8  3  1  6  0  0  0
  8  2  1  0  0  0  0
  8  1  1  0  0  0  0
  9  4  2  0  0  0  0
  9 16  1  0  0  0  0
 10  5  1  0  0  0  0
 11  3  2  0  0  0  0
 11 18  1  0  0  0  0
 12  1  1  0  0  0  0
 13  2  2  0  0  0  0
 14  4  1  0  0  0  0
 14 15  2  0  0  0  0
 15 11  1  0  0  0  0
 16  7  2  0  0  0  0
 17  7  1  0  0  0  0
 17  3  1  0  0  0  0
 18 12  2  0  0  0  0
 19 23  1  0  0  0  0
 19 20  1  0  0  0  0
 20 22  1  0  0  0  0
 21 15  1  6  0  0  0
 21 24  1  0  0  0  0
 22 24  1  0  0  0  0
 23 21  1  0  0  0  0
 25 19  2  0  0  0  0
 26 16  1  0  0  0  0
 27 26  1  0  0  0  0
 28 30  1  0  0  0  0
 29 27  1  1  0  0  0
 29 33  1  0  0  0  0
 30 29  1  0  0  0  0
 31 32  1  0  0  0  0
 32 33  1  0  0  0  0
 34 30  1  0  0  0  0
 34 31  1  0  0  0  0
M  END
>  <MODEL>
1

>  <REMARK>
 VINA RESULT:     -10.8      0.000      0.000
  Name = 
  4 active torsions:
  status: ('A' for Active; 'I' for Inactive)
    1  A    between atoms: C_3  and  C_13
    2  A    between atoms: C_3  and  C_17
    3  A    between atoms: C_12  and  C_28
    4  A    between atoms: C_17  and  C_29
                            x       y       z     vdW  Elec       q    Type
                         _______ _______ _______ _____ _____    ______ ____

>  <TORSDO>
F 4

$$$$
=
 OpenBabel11062408043D

 34 40  0  0  1  0  0  0  0  0999 V2000
  160.9650  206.0150  152.9490 C   0  0  0  0  0  0  0  0  0  0  0  0
  161.4830  208.3990  152.6120 C   0  0  0  0  0  0  0  0  0  0  0  0
  161.2870  206.8990  150.7180 C   0  0  0  0  0  0  0  0  0  0  0  0
  161.6150  207.9750  148.6260 C   0  0  0  0  0  0  0  0  0  0  0  0
  161.1560  207.5160  154.8480 C   0  0  0  0  0  3  0  0  0  0  0  0
  161.4350  208.5960  153.9950 C   0  0  0  0  0  3  0  0  0  0  0  0
  161.7730  209.1840  150.4180 C   0  0  0  0  0  0  0  0  0  0  0  0
  161.2450  207.0950  152.1000 C   0  0  2  0  0  3  0  0  0  0  0  0
  161.8840  209.2710  148.1790 C   0  0  0  0  0  3  0  0  0  0  0  0
  160.9220  206.2320  154.3290 C   0  0  0  0  0  3  0  0  0  0  0  0
  161.0530  205.6450  150.1320 C   0  0  0  0  0  0  0  0  0  0  0  0
  160.7310  204.7480  152.3920 C   0  0  0  0  0  3  0  0  0  0  0  0
  161.7460  209.4400  151.7560 N   0  0  0  0  0  0  0  0  0  0  0  0
  161.3930  206.7090  147.8470 C   0  0  0  0  0  3  0  0  0  0  0  0
  161.0960  205.5150  148.7750 C   0  0  0  0  0  0  0  0  0  0  0  0
  161.9920  210.0380  149.3550 C   0  0  0  0  0  0  0  0  0  0  0  0
  161.5490  207.9620  149.9500 N   0  0  0  0  0  0  0  0  0  0  0  0
  160.7740  204.5640  150.9960 C   0  0  0  0  0  3  0  0  0  0  0  0
  161.1960  201.7140  148.4030 C   0  0  0  0  0  0  0  0  0  0  0  0
  161.3640  201.6290  147.0160 O   0  0  0  0  0  0  0  0  0  0  0  0
  160.8470  204.1780  148.1380 C   0  0  2  0  0  3  0  0  0  0  0  0
  161.1830  202.7510  146.1500 C   0  0  0  0  0  2  0  0  0  0  0  0
  161.1960  203.0430  149.0980 C   0  0  0  0  0  2  0  0  0  0  0  0
  161.6160  204.0430  146.8280 C   0  0  0  0  0  2  0  0  0  0  0  0
  161.1400  200.6600  149.0870 O   0  0  0  0  0  0  0  0  0  0  0  0
  162.2290  211.5060  149.4250 C   0  0  0  0  0  2  0  0  0  0  0  0
  162.7210  212.0140  148.0800 C   0  0  0  0  0  2  0  0  0  0  0  0
  162.5590  213.5400  145.4320 C   0  0  0  0  0  1  0  0  0  0  0  0
  162.0720  213.3490  147.7340 C   0  0  1  0  0  3  0  0  0  0  0  0
  161.4910  213.2740  146.3830 N   0  0  0  0  0  0  0  0  0  0  0  0
  159.3330  214.1730  147.1730 C   0  0  0  0  0  2  0  0  0  0  0  0
  159.6810  213.3320  148.3220 N   0  0  0  0  0  2  0  0  0  0  0  0
  161.0120  213.6960  148.7970 C   0  0  0  0  0  2  0  0  0  0  0  0
  160.5060  214.3390  146.1960 C   0  0  0  0  0  2  0  0  0  0  0  0
  1 10  2  0  0  0  0
  2  6  1  0  0  0  0
  4 17  1  0  0  0  0
  6  5  2  0  0  0  0
  7 13  1  0  0  0  0
  8  3  1  6  0  0  0
  8  2  1  0  0  0  0
  8  1  1  0  0  0  0
  9  4  2  0  0  0  0
  9 16  1  0  0  0  0
 10  5  1  0  0  0  0
 11  3  2  0  0  0  0
 11 18  1  0  0  0  0
 12  1  1  0  0  0  0
 13  2  2  0  0  0  0
 14  4  1  0  0  0  0
 14 15  2  0  0  0  0
 15 11  1  0  0  0  0
 16 26  1  0  0  0  0
 16  7  2  0  0  0  0
 17  7  1  0  0  0  0
 17  3  1  0  0  0  0
 18 12  2  0  0  0  0
 19 25  2  0  0  0  0
 19 23  1  0  0  0  0
 20 19  1  0  0  0  0
 21 15  1  1  0  0  0
 21 23  1  0  0  0  0
 22 24  1  0  0  0  0
 22 20  1  0  0  0  0
 24 21  1  0  0  0  0
 27 26  1  0  0  0  0
 28 30  1  0  0  0  0
 29 27  1  1  0  0  0
 29 33  1  0  0  0  0
 30 29  1  0  0  0  0
 31 32  1  0  0  0  0
 32 33  1  0  0  0  0
 34 30  1  0  0  0  0
 34 31  1  0  0  0  0
M  END
>  <MODEL>
2

>  <REMARK>
 VINA RESULT:     -10.2      0.794      1.301
  Name = 
  4 active torsions:
  status: ('A' for Active; 'I' for Inactive)
    1  A    between atoms: C_3  and  C_13
    2  A    between atoms: C_3  and  C_17
    3  A    between atoms: C_12  and  C_28
    4  A    between atoms: C_17  and  C_29
                            x       y       z     vdW  Elec       q    Type
                         _______ _______ _______ _____ _____    ______ ____

>  <TORSDO>
F 4

$$$$
=
 OpenBabel11062408043D

 34 40  0  0  1  0  0  0  0  0999 V2000
  161.9430  208.4620  148.9460 C   0  0  0  0  0  0  0  0  0  0  0  0
  161.4980  208.9950  151.3090 C   0  0  0  0  0  0  0  0  0  0  0  0
  161.4620  206.6980  150.5320 C   0  0  0  0  0  0  0  0  0  0  0  0
  160.9940  205.1290  152.2540 C   0  0  0  0  0  0  0  0  0  0  0  0
  161.9860  210.7630  149.7210 C   0  0  0  0  0  3  0  0  0  0  0  0
  161.6770  210.3510  151.0280 C   0  0  0  0  0  3  0  0  0  0  0  0
  161.0480  207.2280  152.7900 C   0  0  0  0  0  0  0  0  0  0  0  0
  161.6350  208.0550  150.2510 C   0  0  2  0  0  3  0  0  0  0  0  0
  160.7420  205.1700  153.6270 C   0  0  0  0  0  3  0  0  0  0  0  0
  162.1180  209.8240  148.6850 C   0  0  0  0  0  3  0  0  0  0  0  0
  161.5900  205.7070  149.5470 C   0  0  0  0  0  0  0  0  0  0  0  0
  162.0730  207.4940  147.9380 C   0  0  0  0  0  3  0  0  0  0  0  0
  161.2040  208.5660  152.5800 N   0  0  0  0  0  0  0  0  0  0  0  0
  161.0930  203.9540  151.3220 C   0  0  0  0  0  3  0  0  0  0  0  0
  161.4200  204.3950  149.8830 C   0  0  0  0  0  0  0  0  0  0  0  0
  160.7710  206.5390  153.9540 C   0  0  0  0  0  0  0  0  0  0  0  0
  161.1780  206.3590  151.7950 N   0  0  0  0  0  0  0  0  0  0  0  0
  161.8980  206.1280  148.2360 C   0  0  0  0  0  3  0  0  0  0  0  0
  161.0360  202.7480  146.4570 C   0  0  0  0  0  0  0  0  0  0  0  0
  160.8260  201.4250  146.8670 O   0  0  0  0  0  0  0  0  0  0  0  0
  161.5550  203.3270  148.8360 C   0  0  2  0  0  3  0  0  0  0  0  0
  161.0650  200.9890  148.2060 C   0  0  0  0  0  2  0  0  0  0  0  0
  161.1500  203.8560  147.4620 C   0  0  0  0  0  2  0  0  0  0  0  0
  160.7440  202.0900  149.2070 C   0  0  0  0  0  2  0  0  0  0  0  0
  161.0340  203.0250  145.2300 O   0  0  0  0  0  0  0  0  0  0  0  0
  160.6040  207.1190  155.3160 C   0  0  0  0  0  2  0  0  0  0  0  0
  161.6460  208.2000  155.5470 C   0  0  0  0  0  2  0  0  0  0  0  0
  162.9990  210.4130  157.1710 C   0  0  0  0  0  1  0  0  0  0  0  0
  161.0560  209.3600  156.3410 C   0  0  1  0  0  3  0  0  0  0  0  0
  161.9250  210.5410  156.2000 N   0  0  0  0  0  0  0  0  0  0  0  0
  160.0090  211.9790  155.6070 C   0  0  0  0  0  2  0  0  0  0  0  0
  159.6160  210.7520  154.9080 N   0  0  0  0  0  2  0  0  0  0  0  0
  159.6220  209.6400  155.8540 C   0  0  0  0  0  2  0  0  0  0  0  0
  161.1920  211.7540  156.5600 C   0  0  0  0  0  2  0  0  0  0  0  0
  2 13  2  0  0  0  0
  3 17  1  0  0  0  0
  4  9  2  0  0  0  0
  5  6  2  0  0  0  0
  6  2  1  0  0  0  0
  7 16  2  0  0  0  0
  8  1  1  1  0  0  0
  8  3  1  0  0  0  0
  8  2  1  0  0  0  0
  9 16  1  0  0  0  0
 10  1  2  0  0  0  0
 10  5  1  0  0  0  0
 11 15  1  0  0  0  0
 11  3  2  0  0  0  0
 12 18  2  0  0  0  0
 12  1  1  0  0  0  0
 13  7  1  0  0  0  0
 14  4  1  0  0  0  0
 15 14  2  0  0  0  0
 16 26  1  0  0  0  0
 17  4  1  0  0  0  0
 17  7  1  0  0  0  0
 18 11  1  0  0  0  0
 19 20  1  0  0  0  0
 19 23  1  0  0  0  0
 20 22  1  0  0  0  0
 21 24  1  0  0  0  0
 21 15  1  1  0  0  0
 22 24  1  0  0  0  0
 23 21  1  0  0  0  0
 25 19  2  0  0  0  0
 26 27  1  0  0  0  0
 29 27  1  6  0  0  0
 30 29  1  0  0  0  0
 30 34  1  0  0  0  0
 30 28  1  0  0  0  0
 31 34  1  0  0  0  0
 32 31  1  0  0  0  0
 32 33  1  0  0  0  0
 33 29  1  0  0  0  0
M  END
>  <MODEL>
3

>  <REMARK>
 VINA RESULT:     -10.1      2.687      5.840
  Name = 
  4 active torsions:
  status: ('A' for Active; 'I' for Inactive)
    1  A    between atoms: C_3  and  C_13
    2  A    between atoms: C_3  and  C_17
    3  A    between atoms: C_12  and  C_28
    4  A    between atoms: C_17  and  C_29
                            x       y       z     vdW  Elec       q    Type
                         _______ _______ _______ _____ _____    ______ ____

>  <TORSDO>
F 4

$$$$
=
 OpenBabel11062408043D

 34 40  0  0  1  0  0  0  0  0999 V2000
  161.9410  208.6530  149.0390 C   0  0  0  0  0  0  0  0  0  0  0  0
  161.6240  209.7350  151.2270 C   0  0  0  0  0  0  0  0  0  0  0  0
  161.5190  207.3230  151.0160 C   0  0  0  0  0  0  0  0  0  0  0  0
  161.1200  206.2130  153.0790 C   0  0  0  0  0  0  0  0  0  0  0  0
  162.0520  211.0690  149.2470 C   0  0  0  0  0  3  0  0  0  0  0  0
  161.8060  210.9830  150.6270 C   0  0  0  0  0  3  0  0  0  0  0  0
  161.2280  208.3770  153.1020 C   0  0  0  0  0  0  0  0  0  0  0  0
  161.6950  208.5710  150.4160 C   0  0  2  0  0  3  0  0  0  0  0  0
  160.9380  206.5810  154.4140 C   0  0  0  0  0  3  0  0  0  0  0  0
  162.1200  209.9100  148.4560 C   0  0  0  0  0  3  0  0  0  0  0  0
  161.5840  206.1250  150.2880 C   0  0  0  0  0  0  0  0  0  0  0  0
  162.0070  207.4720  148.2820 C   0  0  0  0  0  3  0  0  0  0  0  0
  161.3900  209.6240  152.5760 N   0  0  0  0  0  0  0  0  0  0  0  0
  161.1560  204.8500  152.4470 C   0  0  0  0  0  3  0  0  0  0  0  0
  161.4150  204.9330  150.9310 C   0  0  0  0  0  0  0  0  0  0  0  0
  161.0020  207.9880  154.4080 C   0  0  0  0  0  0  0  0  0  0  0  0
  161.2960  207.2970  152.3360 N   0  0  0  0  0  0  0  0  0  0  0  0
  161.8310  206.2190  148.9010 C   0  0  0  0  0  3  0  0  0  0  0  0
  160.9830  202.5820  147.9510 C   0  0  0  0  0  0  0  0  0  0  0  0
  160.6420  201.4100  148.6370 O   0  0  0  0  0  0  0  0  0  0  0  0
  161.4830  203.6460  150.1600 C   0  0  2  0  0  3  0  0  0  0  0  0
  160.8010  201.2740  150.0500 C   0  0  0  0  0  2  0  0  0  0  0  0
  161.1680  203.8770  148.6840 C   0  0  0  0  0  2  0  0  0  0  0  0
  160.5530  202.5980  150.7600 C   0  0  0  0  0  2  0  0  0  0  0  0
  161.0420  202.5690  146.6940 O   0  0  0  0  0  0  0  0  0  0  0  0
  160.9120  208.8750  155.6010 C   0  0  0  0  0  2  0  0  0  0  0  0
  159.4940  209.4000  155.7470 C   0  0  0  0  0  2  0  0  0  0  0  0
  157.0780  211.2290  155.3130 C   0  0  0  0  0  1  0  0  0  0  0  0
  159.4090  210.8590  155.3140 C   0  0  1  0  0  3  0  0  0  0  0  0
  158.3070  211.5200  156.0330 N   0  0  0  0  0  0  0  0  0  0  0  0
  159.7610  213.3970  156.7030 C   0  0  0  0  0  2  0  0  0  0  0  0
  160.7170  212.2930  156.8300 N   0  0  0  0  0  2  0  0  0  0  0  0
  160.7610  211.5510  155.5730 C   0  0  0  0  0  2  0  0  0  0  0  0
  158.4710  212.9720  155.9870 C   0  0  0  0  0  2  0  0  0  0  0  0
  2 13  2  0  0  0  0
  3 17  1  0  0  0  0
  4  9  2  0  0  0  0
  5  6  2  0  0  0  0
  6  2  1  0  0  0  0
  7 16  2  0  0  0  0
  8  1  1  1  0  0  0
  8  3  1  0  0  0  0
  8  2  1  0  0  0  0
 10  1  2  0  0  0  0
 10  5  1  0  0  0  0
 11 15  1  0  0  0  0
 11  3  2  0  0  0  0
 12 18  2  0  0  0  0
 12  1  1  0  0  0  0
 13  7  1  0  0  0  0
 14  4  1  0  0  0  0
 15 14  2  0  0  0  0
 16  9  1  0  0  0  0
 16 26  1  0  0  0  0
 17  4  1  0  0  0  0
 17  7  1  0  0  0  0
 18 11  1  0  0  0  0
 19 20  1  0  0  0  0
 19 23  1  0  0  0  0
 20 22  1  0  0  0  0
 21 24  1  0  0  0  0
 21 15  1  1  0  0  0
 22 24  1  0  0  0  0
 23 21  1  0  0  0  0
 25 19  2  0  0  0  0
 26 27  1  0  0  0  0
 28 30  1  0  0  0  0
 29 33  1  0  0  0  0
 29 27  1  1  0  0  0
 29 30  1  0  0  0  0
 31 32  1  0  0  0  0
 33 32  1  0  0  0  0
 34 30  1  0  0  0  0
 34 31  1  0  0  0  0
M  END
>  <MODEL>
4

>  <REMARK>
 VINA RESULT:      -9.9      2.455      5.795
  Name = 
  4 active torsions:
  status: ('A' for Active; 'I' for Inactive)
    1  A    between atoms: C_3  and  C_13
    2  A    between atoms: C_3  and  C_17
    3  A    between atoms: C_12  and  C_28
    4  A    between atoms: C_17  and  C_29
                            x       y       z     vdW  Elec       q    Type
                         _______ _______ _______ _____ _____    ______ ____

>  <TORSDO>
F 4

$$$$
=
 OpenBabel11062408043D

 34 40  0  0  1  0  0  0  0  0999 V2000
  161.2350  208.9830  153.7030 C   0  0  0  0  0  0  0  0  0  0  0  0
  161.0000  206.6510  152.9510 C   0  0  0  0  0  0  0  0  0  0  0  0
  161.4430  208.4230  151.3570 C   0  0  0  0  0  0  0  0  0  0  0  0
  161.6330  207.6520  149.1180 C   0  0  0  0  0  0  0  0  0  0  0  0
  160.7970  207.2100  155.3020 C   0  0  0  0  0  3  0  0  0  0  0  0
  160.7870  206.2550  154.2730 C   0  0  0  0  0  3  0  0  0  0  0  0
  161.2240  206.1840  150.6600 C   0  0  0  0  0  0  0  0  0  0  0  0
  161.2240  208.0270  152.6780 C   0  0  2  0  0  3  0  0  0  0  0  0
  161.5700  206.4230  148.4560 C   0  0  0  0  0  3  0  0  0  0  0  0
  161.0200  208.5680  155.0200 C   0  0  0  0  0  3  0  0  0  0  0  0
  161.6820  209.7610  151.0060 C   0  0  0  0  0  0  0  0  0  0  0  0
  161.4670  210.3300  153.3820 C   0  0  0  0  0  3  0  0  0  0  0  0
  161.0040  205.7350  151.9270 N   0  0  0  0  0  0  0  0  0  0  0  0
  161.8980  209.0290  148.5790 C   0  0  0  0  0  3  0  0  0  0  0  0
  161.9000  210.0870  149.6990 C   0  0  0  0  0  0  0  0  0  0  0  0
  161.2950  205.4860  149.4700 C   0  0  0  0  0  0  0  0  0  0  0  0
  161.4320  207.4720  150.4160 N   0  0  0  0  0  0  0  0  0  0  0  0
  161.6890  210.7160  152.0450 C   0  0  0  0  0  3  0  0  0  0  0  0
  161.0870  213.5920  148.4120 C   0  0  0  0  0  0  0  0  0  0  0  0
  162.2800  213.8620  147.7300 O   0  0  0  0  0  0  0  0  0  0  0  0
  162.1570  211.5160  149.3130 C   0  0  2  0  0  3  0  0  0  0  0  0
  163.4520  213.0620  147.8870 C   0  0  0  0  0  2  0  0  0  0  0  0
  160.8460  212.2500  149.0380 C   0  0  0  0  0  2  0  0  0  0  0  0
  163.0930  211.6000  148.1120 C   0  0  0  0  0  2  0  0  0  0  0  0
  160.1680  214.4500  148.4180 O   0  0  0  0  0  0  0  0  0  0  0  0
  161.1750  204.0120  149.2930 C   0  0  0  0  0  2  0  0  0  0  0  0
  161.5780  203.6290  147.8790 C   0  0  0  0  0  2  0  0  0  0  0  0
  160.4630  203.1040  145.0780 C   0  0  0  0  0  1  0  0  0  0  0  0
  160.6940  202.5050  147.3490 C   0  0  1  0  0  3  0  0  0  0  0  0
  161.1090  202.1620  145.9780 N   0  0  0  0  0  0  0  0  0  0  0  0
  161.2070  199.7580  146.5220 C   0  0  0  0  0  2  0  0  0  0  0  0
  161.7280  200.3110  147.7750 N   0  0  0  0  0  2  0  0  0  0  0  0
  160.7820  201.2930  148.2960 C   0  0  0  0  0  2  0  0  0  0  0  0
  160.6050  200.8390  145.6130 C   0  0  0  0  0  2  0  0  0  0  0  0
  1 10  2  0  0  0  0
  2  6  1  0  0  0  0
  4 17  1  0  0  0  0
  6  5  2  0  0  0  0
  7 13  1  0  0  0  0
  8  3  1  1  0  0  0
  8  2  1  0  0  0  0
  8  1  1  0  0  0  0
  9  4  2  0  0  0  0
  9 16  1  0  0  0  0
 10  5  1  0  0  0  0
 11  3  2  0  0  0  0
 11 18  1  0  0  0  0
 12  1  1  0  0  0  0
 13  2  2  0  0  0  0
 14  4  1  0  0  0  0
 14 15  2  0  0  0  0
 15 11  1  0  0  0  0
 16  7  2  0  0  0  0
 17  7  1  0  0  0  0
 17  3  1  0  0  0  0
 18 12  2  0  0  0  0
 19 25  2  0  0  0  0
 19 23  1  0  0  0  0
 20 22  1  0  0  0  0
 20 19  1  0  0  0  0
 21 15  1  6  0  0  0
 22 24  1  0  0  0  0
 23 21  1  0  0  0  0
 24 21  1  0  0  0  0
 26 16  1  0  0  0  0
 27 26  1  0  0  0  0
 28 30  1  0  0  0  0
 29 27  1  1  0  0  0
 29 33  1  0  0  0  0
 30 29  1  0  0  0  0
 31 32  1  0  0  0  0
 32 33  1  0  0  0  0
 34 30  1  0  0  0  0
 34 31  1  0  0  0  0
M  END
>  <MODEL>
5

>  <REMARK>
 VINA RESULT:      -9.6      3.690      7.877
  Name = 
  4 active torsions:
  status: ('A' for Active; 'I' for Inactive)
    1  A    between atoms: C_3  and  C_13
    2  A    between atoms: C_3  and  C_17
    3  A    between atoms: C_12  and  C_28
    4  A    between atoms: C_17  and  C_29
                            x       y       z     vdW  Elec       q    Type
                         _______ _______ _______ _____ _____    ______ ____

>  <TORSDO>
F 4

$$$$
=
 OpenBabel11062408043D

 34 40  0  0  1  0  0  0  0  0999 V2000
  161.2870  205.0690  150.3100 C   0  0  0  0  0  0  0  0  0  0  0  0
  161.5110  206.7180  148.4950 C   0  0  0  0  0  0  0  0  0  0  0  0
  161.5510  207.4210  150.8150 C   0  0  0  0  0  0  0  0  0  0  0  0
  161.8420  209.7640  151.0850 C   0  0  0  0  0  0  0  0  0  0  0  0
  161.2520  204.3600  147.9880 C   0  0  0  0  0  3  0  0  0  0  0  0
  161.4120  205.6870  147.5580 C   0  0  0  0  0  3  0  0  0  0  0  0
  161.7730  208.9820  149.0650 C   0  0  0  0  0  0  0  0  0  0  0  0
  161.4460  206.3930  149.8770 C   0  0  0  0  0  0  0  0  0  0  0  0
  162.0140  210.8710  150.2500 C   0  0  0  0  0  3  0  0  0  0  0  0
  161.1900  204.0510  149.3570 C   0  0  0  0  0  3  0  0  0  0  0  0
  161.5060  207.1830  152.1970 C   0  0  0  0  0  0  0  0  0  0  0  0
  161.2350  204.7990  151.6870 C   0  0  0  0  0  3  0  0  0  0  0  0
  161.6770  208.0230  148.1010 N   0  0  0  0  0  0  0  0  0  0  0  0
  161.8110  209.6780  152.5840 C   0  0  0  0  0  2  0  0  0  0  0  0
  161.6250  208.2270  153.0670 C   0  0  0  0  0  0  0  0  0  0  0  0
  161.9570  210.3450  148.9450 C   0  0  0  0  0  0  0  0  0  0  0  0
  161.7110  208.6670  150.3520 N   0  0  0  0  0  0  0  0  0  0  0  0
  161.3440  205.8470  152.6230 C   0  0  0  0  0  3  0  0  0  0  0  0
  160.0820  207.3340  156.4460 C   0  0  0  0  0  0  0  0  0  0  0  0
  160.7970  208.2210  157.2610 O   0  0  0  0  0  0  0  0  0  0  0  0
  161.5790  207.9820  154.5490 C   0  0  2  0  0  3  0  0  0  0  0  0
  161.9550  208.9200  156.8020 C   0  0  0  0  0  2  0  0  0  0  0  0
  160.2480  207.3540  154.9560 C   0  0  0  0  0  2  0  0  0  0  0  0
  161.8370  209.2680  155.3250 C   0  0  0  0  0  2  0  0  0  0  0  0
  159.2190  206.5780  156.9620 O   0  0  0  0  0  0  0  0  0  0  0  0
  162.1340  211.1140  147.6820 C   0  0  0  0  0  2  0  0  0  0  0  0
  163.0190  212.3230  147.9330 C   0  0  0  0  0  2  0  0  0  0  0  0
  162.4160  213.3670  145.1200 C   0  0  0  0  0  1  0  0  0  0  0  0
  162.3340  213.6030  147.4680 C   0  0  1  0  0  3  0  0  0  0  0  0
  161.5260  213.3170  146.2690 N   0  0  0  0  0  0  0  0  0  0  0  0
  159.5480  214.4280  147.2380 C   0  0  0  0  0  2  0  0  0  0  0  0
  160.0800  213.7870  148.4440 N   0  0  0  0  0  2  0  0  0  0  0  0
  161.4780  214.1740  148.6140 C   0  0  0  0  0  2  0  0  0  0  0  0
  160.5350  214.3710  146.0640 C   0  0  0  0  0  2  0  0  0  0  0  0
  1 12  1  0  0  0  0
  2  8  1  0  0  0  0
  3 11  1  0  0  0  0
  4 14  1  0  0  0  0
  5 10  1  0  0  0  0
  6  5  2  0  0  0  0
  6  2  1  0  0  0  0
  7 17  1  0  0  0  0
  8  1  1  0  0  0  0
  8  3  2  0  0  0  0
  9  4  2  0  0  0  0
 10  1  2  0  0  0  0
 11 18  1  0  0  0  0
 11 15  2  0  0  0  0
 12 18  2  0  0  0  0
 13  2  2  0  0  0  0
 13  7  1  0  0  0  0
 14 15  1  0  0  0  0
 16  7  2  0  0  0  0
 16  9  1  0  0  0  0
 17  3  1  0  0  0  0
 17  4  1  0  0  0  0
 19 25  2  0  0  0  0
 19 20  1  0  0  0  0
 21 15  1  6  0  0  0
 21 23  1  0  0  0  0
 21 24  1  0  0  0  0
 22 20  1  0  0  0  0
 23 19  1  0  0  0  0
 24 22  1  0  0  0  0
 26 27  1  0  0  0  0
 26 16  1  0  0  0  0
 28 30  1  0  0  0  0
 29 27  1  1  0  0  0
 29 33  1  0  0  0  0
 30 29  1  0  0  0  0
 31 32  1  0  0  0  0
 32 33  1  0  0  0  0
 34 30  1  0  0  0  0
 34 31  1  0  0  0  0
M  END
>  <MODEL>
6

>  <REMARK>
 VINA RESULT:      -9.4      2.897      5.377
  Name = 
  4 active torsions:
  status: ('A' for Active; 'I' for Inactive)
    1  A    between atoms: C_3  and  C_13
    2  A    between atoms: C_3  and  C_17
    3  A    between atoms: C_12  and  C_28
    4  A    between atoms: C_17  and  C_29
                            x       y       z     vdW  Elec       q    Type
                         _______ _______ _______ _____ _____    ______ ____

>  <TORSDO>
F 4

$$$$
=
 OpenBabel11062408043D

 34 40  0  0  1  0  0  0  0  0999 V2000
  161.6920  210.2270  150.6980 C   0  0  0  0  0  0  0  0  0  0  0  0
  161.8900  207.9570  149.7640 C   0  0  0  0  0  0  0  0  0  0  0  0
  161.3910  208.2860  152.1130 C   0  0  0  0  0  0  0  0  0  0  0  0
  161.1120  206.2520  153.3100 C   0  0  0  0  0  0  0  0  0  0  0  0
  162.1860  209.9020  148.3440 C   0  0  0  0  0  3  0  0  0  0  0  0
  162.1540  208.5070  148.5070 C   0  0  0  0  0  3  0  0  0  0  0  0
  161.5760  206.1240  151.1970 C   0  0  0  0  0  0  0  0  0  0  0  0
  161.6600  208.8340  150.8570 C   0  0  0  0  0  0  0  0  0  0  0  0
  161.1450  204.8870  153.0180 C   0  0  0  0  0  3  0  0  0  0  0  0
  161.9570  210.7580  149.4330 C   0  0  0  0  0  3  0  0  0  0  0  0
  161.1430  209.0820  153.2410 C   0  0  0  0  0  0  0  0  0  0  0  0
  161.4510  211.0500  151.8100 C   0  0  0  0  0  3  0  0  0  0  0  0
  161.8440  206.5970  149.9480 N   0  0  0  0  0  0  0  0  0  0  0  0
  160.8300  206.9580  154.6060 C   0  0  0  0  0  2  0  0  0  0  0  0
  160.8740  208.4900  154.4410 C   0  0  0  0  0  0  0  0  0  0  0  0
  161.4570  204.8230  151.6470 C   0  0  0  0  0  0  0  0  0  0  0  0
  161.3630  206.9510  152.2120 N   0  0  0  0  0  0  0  0  0  0  0  0
  161.1790  210.4830  153.0710 C   0  0  0  0  0  3  0  0  0  0  0  0
  159.0980  211.0880  156.6070 C   0  0  0  0  0  0  0  0  0  0  0  0
  160.2100  211.6330  157.2610 O   0  0  0  0  0  0  0  0  0  0  0  0
  160.6070  209.3330  155.6550 C   0  0  2  0  0  3  0  0  0  0  0  0
  161.4980  211.0160  157.2290 C   0  0  0  0  0  2  0  0  0  0  0  0
  159.2670  210.0550  155.5320 C   0  0  0  0  0  2  0  0  0  0  0  0
  161.7420  210.3230  155.8950 C   0  0  0  0  0  2  0  0  0  0  0  0
  157.9510  211.5400  156.8550 O   0  0  0  0  0  0  0  0  0  0  0  0
  161.5650  203.5830  150.8290 C   0  0  0  0  0  2  0  0  0  0  0  0
  160.7810  203.7470  149.5380 C   0  0  0  0  0  2  0  0  0  0  0  0
  160.8310  200.9120  148.3850 C   0  0  0  0  0  1  0  0  0  0  0  0
  161.5500  203.1610  148.3590 C   0  0  1  0  0  3  0  0  0  0  0  0
  160.7050  202.1710  147.6680 N   0  0  0  0  0  0  0  0  0  0  0  0
  161.1510  203.2020  145.4720 C   0  0  0  0  0  2  0  0  0  0  0  0
  161.0640  204.4130  146.2950 N   0  0  0  0  0  2  0  0  0  0  0  0
  161.9910  204.2960  147.4170 C   0  0  0  0  0  2  0  0  0  0  0  0
  161.2140  201.9250  146.3200 C   0  0  0  0  0  2  0  0  0  0  0  0
  1  8  1  0  0  0  0
  1 12  1  0  0  0  0
  2 13  2  0  0  0  0
  2  8  1  0  0  0  0
  3 17  1  0  0  0  0
  3 11  1  0  0  0  0
  4 14  1  0  0  0  0
  5  6  2  0  0  0  0
  5 10  1  0  0  0  0
  6  2  1  0  0  0  0
  7 16  2  0  0  0  0
  7 17  1  0  0  0  0
  8  3  2  0  0  0  0
  9  4  2  0  0  0  0
 10  1  2  0  0  0  0
 11 15  2  0  0  0  0
 12 18  2  0  0  0  0
 13  7  1  0  0  0  0
 15 14  1  0  0  0  0
 16  9  1  0  0  0  0
 17  4  1  0  0  0  0
 18 11  1  0  0  0  0
 19 25  2  0  0  0  0
 19 20  1  0  0  0  0
 21 15  1  6  0  0  0
 21 24  1  0  0  0  0
 22 20  1  0  0  0  0
 23 21  1  0  0  0  0
 23 19  1  0  0  0  0
 24 22  1  0  0  0  0
 26 16  1  0  0  0  0
 27 26  1  0  0  0  0
 29 27  1  1  0  0  0
 30 29  1  0  0  0  0
 30 28  1  0  0  0  0
 31 32  1  0  0  0  0
 31 34  1  0  0  0  0
 32 33  1  0  0  0  0
 33 29  1  0  0  0  0
 34 30  1  0  0  0  0
M  END
>  <MODEL>
7

>  <REMARK>
 VINA RESULT:      -9.3      4.320      8.367
  Name = 
  4 active torsions:
  status: ('A' for Active; 'I' for Inactive)
    1  A    between atoms: C_3  and  C_13
    2  A    between atoms: C_3  and  C_17
    3  A    between atoms: C_12  and  C_28
    4  A    between atoms: C_17  and  C_29
                            x       y       z     vdW  Elec       q    Type
                         _______ _______ _______ _____ _____    ______ ____

>  <TORSDO>
F 4

$$$$
=
 OpenBabel11062408043D

 34 40  0  0  1  0  0  0  0  0999 V2000
  161.3520  205.8700  148.7330 C   0  0  0  0  0  0  0  0  0  0  0  0
  161.0740  205.5390  151.1570 C   0  0  0  0  0  0  0  0  0  0  0  0
  161.4230  207.7580  150.2460 C   0  0  0  0  0  0  0  0  0  0  0  0
  161.4330  209.4640  151.8990 C   0  0  0  0  0  0  0  0  0  0  0  0
  160.9980  203.6470  149.6410 C   0  0  0  0  0  3  0  0  0  0  0  0
  160.9310  204.1650  150.9440 C   0  0  0  0  0  3  0  0  0  0  0  0
  161.1450  207.4200  152.5610 C   0  0  0  0  0  0  0  0  0  0  0  0
  161.2860  206.3840  150.0350 C   0  0  2  0  0  3  0  0  0  0  0  0
  161.2760  209.5390  153.2850 C   0  0  0  0  0  3  0  0  0  0  0  0
  161.2070  204.4930  148.5400 C   0  0  0  0  0  3  0  0  0  0  0  0
  161.6240  208.6610  149.1920 C   0  0  0  0  0  0  0  0  0  0  0  0
  161.5570  206.7490  147.6580 C   0  0  0  0  0  3  0  0  0  0  0  0
  161.0040  206.0720  152.4210 N   0  0  0  0  0  0  0  0  0  0  0  0
  161.6540  210.5550  150.8900 C   0  0  0  0  0  3  0  0  0  0  0  0
  161.7400  209.9950  149.4570 C   0  0  0  0  0  0  0  0  0  0  0  0
  161.1000  208.2040  153.6970 C   0  0  0  0  0  0  0  0  0  0  0  0
  161.3420  208.2010  151.5060 N   0  0  0  0  0  0  0  0  0  0  0  0
  161.6920  208.1330  147.8850 C   0  0  0  0  0  3  0  0  0  0  0  0
  162.7180  213.2910  147.7910 C   0  0  0  0  0  0  0  0  0  0  0  0
  161.7420  213.3330  146.7870 O   0  0  0  0  0  0  0  0  0  0  0  0
  161.9560  210.9710  148.3360 C   0  0  2  0  0  3  0  0  0  0  0  0
  160.9340  212.2030  146.4550 C   0  0  0  0  0  2  0  0  0  0  0  0
  162.7130  212.2030  148.8240 C   0  0  0  0  0  2  0  0  0  0  0  0
  160.6330  211.3620  147.6880 C   0  0  0  0  0  2  0  0  0  0  0  0
  163.5500  214.2290  147.8860 O   0  0  0  0  0  0  0  0  0  0  0  0
  160.8430  207.7420  155.0890 C   0  0  0  0  0  2  0  0  0  0  0  0
  161.9560  208.2230  156.0050 C   0  0  0  0  0  2  0  0  0  0  0  0
  163.3170  210.7030  157.1730 C   0  0  0  0  0  1  0  0  0  0  0  0
  161.4420  209.2840  156.9720 C   0  0  1  0  0  3  0  0  0  0  0  0
  161.9890  210.5980  156.5920 N   0  0  0  0  0  0  0  0  0  0  0  0
  159.7540  211.6400  156.6660 C   0  0  0  0  0  2  0  0  0  0  0  0
  159.3950  210.3380  156.0980 N   0  0  0  0  0  2  0  0  0  0  0  0
  159.9020  209.2800  156.9670 C   0  0  0  0  0  2  0  0  0  0  0  0
  161.1950  211.6690  157.1920 C   0  0  0  0  0  2  0  0  0  0  0  0
  2 13  2  0  0  0  0
  3 17  1  0  0  0  0
  4  9  2  0  0  0  0
  5  6  2  0  0  0  0
  6  2  1  0  0  0  0
  7 16  2  0  0  0  0
  8  1  1  6  0  0  0
  8  3  1  0  0  0  0
  8  2  1  0  0  0  0
  9 16  1  0  0  0  0
 10  1  2  0  0  0  0
 10  5  1  0  0  0  0
 11 15  1  0  0  0  0
 11  3  2  0  0  0  0
 12 18  2  0  0  0  0
 12  1  1  0  0  0  0
 13  7  1  0  0  0  0
 14  4  1  0  0  0  0
 15 14  2  0  0  0  0
 16 26  1  0  0  0  0
 17  4  1  0  0  0  0
 17  7  1  0  0  0  0
 18 11  1  0  0  0  0
 19 25  2  0  0  0  0
 19 23  1  0  0  0  0
 20 19  1  0  0  0  0
 21 23  1  0  0  0  0
 21 15  1  1  0  0  0
 22 20  1  0  0  0  0
 22 24  1  0  0  0  0
 24 21  1  0  0  0  0
 26 27  1  0  0  0  0
 29 27  1  6  0  0  0
 30 29  1  0  0  0  0
 30 28  1  0  0  0  0
 30 34  1  0  0  0  0
 31 34  1  0  0  0  0
 32 31  1  0  0  0  0
 32 33  1  0  0  0  0
 33 29  1  0  0  0  0
M  END
>  <MODEL>
8

>  <REMARK>
 VINA RESULT:      -8.5      3.481      7.716
  Name = 
  4 active torsions:
  status: ('A' for Active; 'I' for Inactive)
    1  A    between atoms: C_3  and  C_13
    2  A    between atoms: C_3  and  C_17
    3  A    between atoms: C_12  and  C_28
    4  A    between atoms: C_17  and  C_29
                            x       y       z     vdW  Elec       q    Type
                         _______ _______ _______ _____ _____    ______ ____

>  <TORSDO>
F 4

$$$$
=
 OpenBabel11062408043D

 34 40  0  0  1  0  0  0  0  0999 V2000
  161.1090  204.3940  151.2260 C   0  0  0  0  0  0  0  0  0  0  0  0
  161.2060  206.4620  152.5590 C   0  0  0  0  0  0  0  0  0  0  0  0
  161.5290  206.5240  150.1570 C   0  0  0  0  0  0  0  0  0  0  0  0
  161.9030  208.7130  149.3130 C   0  0  0  0  0  0  0  0  0  0  0  0
  160.7790  204.3280  153.6310 C   0  0  0  0  0  3  0  0  0  0  0  0
  160.9530  205.7190  153.7150 C   0  0  0  0  0  3  0  0  0  0  0  0
  161.6090  208.4920  151.4490 C   0  0  0  0  0  0  0  0  0  0  0  0
  161.2820  205.7820  151.3140 C   0  0  2  0  0  3  0  0  0  0  0  0
  161.9760  210.0070  149.8360 C   0  0  0  0  0  3  0  0  0  0  0  0
  160.8560  203.6670  152.3930 C   0  0  0  0  0  3  0  0  0  0  0  0
  161.6090  205.9300  148.8880 C   0  0  0  0  0  0  0  0  0  0  0  0
  161.1870  203.7700  149.9710 C   0  0  0  0  0  3  0  0  0  0  0  0
  161.3710  207.8240  152.6130 N   0  0  0  0  0  0  0  0  0  0  0  0
  162.0200  208.2350  147.8940 C   0  0  0  0  0  3  0  0  0  0  0  0
  161.8420  206.7080  147.7920 C   0  0  0  0  0  0  0  0  0  0  0  0
  161.7930  209.8420  151.2220 C   0  0  0  0  0  0  0  0  0  0  0  0
  161.6790  207.8470  150.2920 N   0  0  0  0  0  0  0  0  0  0  0  0
  161.4350  204.5320  148.8120 C   0  0  0  0  0  3  0  0  0  0  0  0
  160.7190  204.6320  144.7870 C   0  0  0  0  0  0  0  0  0  0  0  0
  161.9560  204.0930  144.4130 O   0  0  0  0  0  0  0  0  0  0  0  0
  161.9290  206.0820  146.4290 C   0  0  2  0  0  3  0  0  0  0  0  0
  163.1940  204.5800  144.9320 C   0  0  0  0  0  2  0  0  0  0  0  0
  160.5890  205.4740  146.0220 C   0  0  0  0  0  2  0  0  0  0  0  0
  163.0420  205.0410  146.3740 C   0  0  0  0  0  2  0  0  0  0  0  0
  159.6870  204.3280  144.1360 O   0  0  0  0  0  0  0  0  0  0  0  0
  161.7380  210.9320  152.2350 C   0  0  0  0  0  2  0  0  0  0  0  0
  160.3220  211.0700  152.7680 C   0  0  0  0  0  2  0  0  0  0  0  0
  158.0660  211.8720  154.6740 C   0  0  0  0  0  1  0  0  0  0  0  0
  160.3320  211.3530  154.2660 C   0  0  1  0  0  3  0  0  0  0  0  0
  159.0840  210.8510  154.8660 N   0  0  0  0  0  0  0  0  0  0  0  0
  160.3200  209.6570  156.6360 C   0  0  0  0  0  2  0  0  0  0  0  0
  161.2260  209.4230  155.5080 N   0  0  0  0  0  2  0  0  0  0  0  0
  161.5760  210.7050  154.9030 C   0  0  0  0  0  2  0  0  0  0  0  0
  159.2430  210.7010  156.3120 C   0  0  0  0  0  2  0  0  0  0  0  0
  1  8  1  0  0  0  0
  1 10  2  0  0  0  0
  2 13  2  0  0  0  0
  2  6  1  0  0  0  0
  3 17  1  0  0  0  0
  4  9  2  0  0  0  0
  4 17  1  0  0  0  0
  5  6  2  0  0  0  0
  7 13  1  0  0  0  0
  8  3  1  6  0  0  0
  8  2  1  0  0  0  0
  9 16  1  0  0  0  0
 10  5  1  0  0  0  0
 11  3  2  0  0  0  0
 12  1  1  0  0  0  0
 14  4  1  0  0  0  0
 15 14  2  0  0  0  0
 15 11  1  0  0  0  0
 16  7  2  0  0  0  0
 16 26  1  0  0  0  0
 17  7  1  0  0  0  0
 18 11  1  0  0  0  0
 18 12  2  0  0  0  0
 19 23  1  0  0  0  0
 20 19  1  0  0  0  0
 20 22  1  0  0  0  0
 21 15  1  1  0  0  0
 22 24  1  0  0  0  0
 23 21  1  0  0  0  0
 24 21  1  0  0  0  0
 25 19  2  0  0  0  0
 26 27  1  0  0  0  0
 28 30  1  0  0  0  0
 29 27  1  6  0  0  0
 29 30  1  0  0  0  0
 29 33  1  0  0  0  0
 30 34  1  0  0  0  0
 32 31  1  0  0  0  0
 33 32  1  0  0  0  0
 34 31  1  0  0  0  0
M  END
>  <MODEL>
9

>  <REMARK>
 VINA RESULT:      -8.1      2.944      5.171
  Name = 
  4 active torsions:
  status: ('A' for Active; 'I' for Inactive)
    1  A    between atoms: C_3  and  C_13
    2  A    between atoms: C_3  and  C_17
    3  A    between atoms: C_12  and  C_28
    4  A    between atoms: C_17  and  C_29
                            x       y       z     vdW  Elec       q    Type
                         _______ _______ _______ _____ _____    ______ ____

>  <TORSDO>
F 4

$$$$
