=
 OpenBabel11052422493D

 28 30  0  0  1  0  0  0  0  0999 V2000
  161.0530  208.8860  152.3930 C   0  0  2  0  0  3  0  0  0  0  0  0
  161.0580  206.5210  150.7770 C   0  0  0  0  0  2  0  0  0  0  0  0
  162.3110  209.9830  150.7010 O   0  0  0  0  0  0  0  0  0  0  0  0
  161.2430  206.4220  152.2670 C   0  0  0  0  0  3  0  0  0  0  0  0
  161.8510  207.7080  150.1960 C   0  0  2  0  0  3  0  0  0  0  0  0
  161.2360  207.5290  153.0220 C   0  0  0  0  0  3  0  0  0  0  0  0
  161.7850  208.9450  151.0720 C   0  0  0  0  0  0  0  0  0  0  0  0
  161.5160  209.8770  153.2660 O   0  0  0  0  0  0  0  0  0  0  0  0
  160.3760  210.3340  153.9400 C   0  0  2  0  0  3  0  0  0  0  0  0
  159.0010  212.8430  154.5690 N   0  0  0  0  0  2  0  0  0  0  0  0
  159.4560  211.0660  152.9590 C   0  0  0  0  0  2  0  0  0  0  0  0
  161.8560  211.1480  155.6150 O   0  0  0  0  0  0  0  0  0  0  0  0
  160.7620  211.2410  155.0810 C   0  0  0  0  0  0  0  0  0  0  0  0
  159.7290  212.1710  155.6460 C   0  0  0  0  0  2  0  0  0  0  0  0
  158.3750  211.8330  153.7150 C   0  0  0  0  0  2  0  0  0  0  0  0
  161.4580  207.9900  148.8110 N   0  0  0  0  0  2  0  0  0  0  0  0
  162.2410  207.1800  147.8790 C   0  0  0  0  0  2  0  0  0  0  0  0
  160.7790  206.7280  146.0500 F   0  0  0  0  0  0  0  0  0  0  0  0
  161.3560  206.1600  147.1750 C   0  0  1  0  0  3  0  0  0  0  0  0
  162.1530  204.9150  146.7990 C   0  0  0  0  0  2  0  0  0  0  0  0
  161.1450  203.6620  148.7800 C   0  0  0  0  0  2  0  0  0  0  0  0
  161.3770  202.6310  146.4540 C   0  0  0  0  0  3  0  0  0  0  0  0
  161.0630  201.2110  149.1770 C   0  0  0  0  0  0  0  0  0  0  0  0
  161.4850  203.6750  147.3040 C   0  0  0  0  0  0  0  0  0  0  0  0
  161.2840  200.6590  147.9820 C   0  0  0  0  0  3  0  0  0  0  0  0
  160.7510  201.2920  146.7340 C   0  0  0  0  0  2  0  0  0  0  0  0
  161.5170  200.5910  150.2980 F   0  0  0  0  0  0  0  0  0  0  0  0
  160.3030  202.4950  149.2910 C   0  0  0  0  0  2  0  0  0  0  0  0
  1  6  1  0  0  0  0
  1  8  1  1  0  0  0
  2  4  1  0  0  0  0
  3  7  2  0  0  0  0
  4  6  2  0  0  0  0
  5 16  1  6  0  0  0
  5  2  1  0  0  0  0
  5  7  1  0  0  0  0
  7  1  1  0  0  0  0
  9  8  1  6  0  0  0
  9 13  1  0  0  0  0
 10 14  1  0  0  0  0
 11 15  1  0  0  0  0
 11  9  1  0  0  0  0
 13 12  2  0  0  0  0
 13 14  1  0  0  0  0
 15 10  1  0  0  0  0
 17 16  1  0  0  0  0
 19 18  1  6  0  0  0
 19 17  1  0  0  0  0
 20 19  1  0  0  0  0
 20 24  1  0  0  0  0
 21 28  1  0  0  0  0
 22 26  1  0  0  0  0
 22 24  2  0  0  0  0
 23 28  1  0  0  0  0
 23 27  1  0  0  0  0
 24 21  1  0  0  0  0
 25 23  2  0  0  0  0
 26 25  1  0  0  0  0
M  END
>  <MODEL>
1

>  <REMARK>
 VINA RESULT:      -8.9      0.000      0.000
  Name = 
  7 active torsions:
  status: ('A' for Active; 'I' for Inactive)
    1  A    between atoms: C_1  and  O_2
    2  A    between atoms: O_2  and  C_3
    3  A    between atoms: N_5  and  C_20
    4  A    between atoms: N_5  and  C_21
    5  A    between atoms: C_10  and  C_13
    6  A    between atoms: C_10  and  C_25
    7  A    between atoms: C_20  and  C_25
                            x       y       z     vdW  Elec       q    Type
                         _______ _______ _______ _____ _____    ______ ____

>  <TORSDO>
F 7

$$$$
=
 OpenBabel11052422493D

 28 30  0  0  1  0  0  0  0  0999 V2000
  161.3280  209.5810  152.9810 C   0  0  2  0  0  3  0  0  0  0  0  0
  162.4920  207.7190  151.1430 C   0  0  0  0  0  2  0  0  0  0  0  0
  160.1830  207.7700  154.0110 O   0  0  0  0  0  0  0  0  0  0  0  0
  162.0230  209.0660  150.6630 C   0  0  0  0  0  3  0  0  0  0  0  0
  161.4930  207.1060  152.1440 C   0  0  2  0  0  3  0  0  0  0  0  0
  161.4830  209.9380  151.5250 C   0  0  0  0  0  3  0  0  0  0  0  0
  160.9340  208.1280  153.1170 C   0  0  0  0  0  0  0  0  0  0  0  0
  160.3710  210.4150  153.5710 O   0  0  0  0  0  0  0  0  0  0  0  0
  161.0130  210.9840  154.6780 C   0  0  2  0  0  3  0  0  0  0  0  0
  162.2820  210.1750  157.1910 N   0  0  0  0  0  2  0  0  0  0  0  0
  162.4460  210.4520  154.7720 C   0  0  0  0  0  2  0  0  0  0  0  0
  159.0540  210.4540  155.9190 O   0  0  0  0  0  0  0  0  0  0  0  0
  160.2530  210.6840  155.9450 C   0  0  0  0  0  0  0  0  0  0  0  0
  160.9640  210.8060  157.2610 C   0  0  0  0  0  2  0  0  0  0  0  0
  163.0570  210.8080  156.1240 C   0  0  0  0  0  2  0  0  0  0  0  0
  162.0660  205.9440  152.8310 N   0  0  0  0  0  2  0  0  0  0  0  0
  161.2080  204.7720  152.6610 C   0  0  0  0  0  2  0  0  0  0  0  0
  162.1380  202.7360  151.8400 F   0  0  0  0  0  0  0  0  0  0  0  0
  161.6330  203.9640  151.4430 C   0  0  1  0  0  3  0  0  0  0  0  0
  160.4660  203.7790  150.4780 C   0  0  0  0  0  2  0  0  0  0  0  0
  161.4280  203.3460  148.1550 C   0  0  0  0  0  2  0  0  0  0  0  0
  160.6410  205.6500  148.9280 C   0  0  0  0  0  3  0  0  0  0  0  0
  162.5950  204.9390  146.6470 C   0  0  0  0  0  0  0  0  0  0  0  0
  160.7940  204.3240  149.1240 C   0  0  0  0  0  0  0  0  0  0  0  0
  162.2710  206.1500  147.1040 C   0  0  0  0  0  3  0  0  0  0  0  0
  160.9080  206.4200  147.6630 C   0  0  0  0  0  2  0  0  0  0  0  0
  163.8220  204.7330  146.1000 F   0  0  0  0  0  0  0  0  0  0  0  0
  161.6090  203.8140  146.7130 C   0  0  0  0  0  2  0  0  0  0  0  0
  1  7  1  0  0  0  0
  1  8  1  6  0  0  0
  2  5  1  0  0  0  0
  4  2  1  0  0  0  0
  4  6  2  0  0  0  0
  5 16  1  1  0  0  0
  5  7  1  0  0  0  0
  6  1  1  0  0  0  0
  7  3  2  0  0  0  0
  9  8  1  6  0  0  0
  9 11  1  0  0  0  0
  9 13  1  0  0  0  0
 10 14  1  0  0  0  0
 11 15  1  0  0  0  0
 12 13  2  0  0  0  0
 13 14  1  0  0  0  0
 15 10  1  0  0  0  0
 17 16  1  0  0  0  0
 19 18  1  1  0  0  0
 19 17  1  0  0  0  0
 20 19  1  0  0  0  0
 21 24  1  0  0  0  0
 22 24  2  0  0  0  0
 23 28  1  0  0  0  0
 23 25  2  0  0  0  0
 24 20  1  0  0  0  0
 25 26  1  0  0  0  0
 26 22  1  0  0  0  0
 27 23  1  0  0  0  0
 28 21  1  0  0  0  0
M  END
>  <MODEL>
2

>  <REMARK>
 VINA RESULT:      -8.6      2.225      3.933
  Name = 
  7 active torsions:
  status: ('A' for Active; 'I' for Inactive)
    1  A    between atoms: C_1  and  O_2
    2  A    between atoms: O_2  and  C_3
    3  A    between atoms: N_5  and  C_20
    4  A    between atoms: N_5  and  C_21
    5  A    between atoms: C_10  and  C_13
    6  A    between atoms: C_10  and  C_25
    7  A    between atoms: C_20  and  C_25
                            x       y       z     vdW  Elec       q    Type
                         _______ _______ _______ _____ _____    ______ ____

>  <TORSDO>
F 7

$$$$
=
 OpenBabel11052422493D

 28 30  0  0  1  0  0  0  0  0999 V2000
  160.4740  209.5940  153.7460 C   0  0  2  0  0  3  0  0  0  0  0  0
  160.6480  206.8190  154.4350 C   0  0  0  0  0  2  0  0  0  0  0  0
  161.9600  209.1850  151.9360 O   0  0  0  0  0  0  0  0  0  0  0  0
  160.6360  207.8690  155.5130 C   0  0  0  0  0  3  0  0  0  0  0  0
  161.5300  207.2510  153.2470 C   0  0  2  0  0  3  0  0  0  0  0  0
  160.5500  209.1670  155.1890 C   0  0  0  0  0  3  0  0  0  0  0  0
  161.3720  208.7200  152.9010 C   0  0  0  0  0  0  0  0  0  0  0  0
  160.8370  210.9410  153.6330 O   0  0  0  0  0  0  0  0  0  0  0  0
  159.6300  211.6340  153.4780 C   0  0  2  0  0  3  0  0  0  0  0  0
  158.6570  214.3360  152.9020 N   0  0  0  0  0  2  0  0  0  0  0  0
  159.5520  212.2250  152.0680 C   0  0  0  0  0  2  0  0  0  0  0  0
  160.0930  212.6430  155.5830 O   0  0  0  0  0  0  0  0  0  0  0  0
  159.5050  212.7220  154.5160 C   0  0  0  0  0  0  0  0  0  0  0  0
  158.5370  213.8420  154.2740 C   0  0  0  0  0  2  0  0  0  0  0  0
  158.4090  213.2320  151.9760 C   0  0  0  0  0  2  0  0  0  0  0  0
  161.3240  206.3840  152.0820 N   0  0  0  0  0  2  0  0  0  0  0  0
  161.1830  204.9890  152.4970 C   0  0  0  0  0  2  0  0  0  0  0  0
  162.1100  202.8650  151.9360 F   0  0  0  0  0  0  0  0  0  0  0  0
  161.6370  204.0470  151.3900 C   0  0  1  0  0  3  0  0  0  0  0  0
  160.5000  203.7710  150.4110 C   0  0  0  0  0  2  0  0  0  0  0  0
  161.4620  203.3330  148.0890 C   0  0  0  0  0  2  0  0  0  0  0  0
  160.6440  205.6320  148.8450 C   0  0  0  0  0  3  0  0  0  0  0  0
  162.6010  204.9290  146.5640 C   0  0  0  0  0  0  0  0  0  0  0  0
  160.8170  204.3090  149.0510 C   0  0  0  0  0  0  0  0  0  0  0  0
  162.2610  206.1400  147.0110 C   0  0  0  0  0  3  0  0  0  0  0  0
  160.8960  206.3940  147.5720 C   0  0  0  0  0  2  0  0  0  0  0  0
  163.8300  204.7360  146.0160 F   0  0  0  0  0  0  0  0  0  0  0  0
  161.6330  203.7900  146.6420 C   0  0  0  0  0  2  0  0  0  0  0  0
  1  8  1  1  0  0  0
  1  6  1  0  0  0  0
  2  4  1  0  0  0  0
  3  7  2  0  0  0  0
  5 16  1  6  0  0  0
  5  2  1  0  0  0  0
  6  4  2  0  0  0  0
  7  5  1  0  0  0  0
  7  1  1  0  0  0  0
  9  8  1  6  0  0  0
  9 13  1  0  0  0  0
 10 14  1  0  0  0  0
 11  9  1  0  0  0  0
 13 12  2  0  0  0  0
 14 13  1  0  0  0  0
 15 11  1  0  0  0  0
 15 10  1  0  0  0  0
 16 17  1  0  0  0  0
 19 18  1  1  0  0  0
 19 17  1  0  0  0  0
 20 19  1  0  0  0  0
 21 24  1  0  0  0  0
 22 24  2  0  0  0  0
 23 28  1  0  0  0  0
 23 25  2  0  0  0  0
 24 20  1  0  0  0  0
 25 26  1  0  0  0  0
 26 22  1  0  0  0  0
 27 23  1  0  0  0  0
 28 21  1  0  0  0  0
M  END
>  <MODEL>
3

>  <REMARK>
 VINA RESULT:      -8.4      1.919      3.629
  Name = 
  7 active torsions:
  status: ('A' for Active; 'I' for Inactive)
    1  A    between atoms: C_1  and  O_2
    2  A    between atoms: O_2  and  C_3
    3  A    between atoms: N_5  and  C_20
    4  A    between atoms: N_5  and  C_21
    5  A    between atoms: C_10  and  C_13
    6  A    between atoms: C_10  and  C_25
    7  A    between atoms: C_20  and  C_25
                            x       y       z     vdW  Elec       q    Type
                         _______ _______ _______ _____ _____    ______ ____

>  <TORSDO>
F 7

$$$$
=
 OpenBabel11052422493D

 28 30  0  0  1  0  0  0  0  0999 V2000
  160.4630  209.4560  153.7750 C   0  0  2  0  0  3  0  0  0  0  0  0
  160.7420  206.6400  154.2180 C   0  0  0  0  0  2  0  0  0  0  0  0
  161.7390  209.2180  151.7840 O   0  0  0  0  0  0  0  0  0  0  0  0
  160.8420  207.6020  155.3700 C   0  0  0  0  0  3  0  0  0  0  0  0
  161.4790  207.1800  152.9760 C   0  0  2  0  0  3  0  0  0  0  0  0
  160.7070  208.9190  155.1620 C   0  0  0  0  0  3  0  0  0  0  0  0
  161.2690  208.6680  152.7690 C   0  0  0  0  0  0  0  0  0  0  0  0
  160.7970  210.8150  153.7310 O   0  0  0  0  0  0  0  0  0  0  0  0
  159.5760  211.4950  153.8020 C   0  0  2  0  0  3  0  0  0  0  0  0
  158.4860  214.1870  153.4190 N   0  0  0  0  0  2  0  0  0  0  0  0
  159.2330  212.0850  152.4310 C   0  0  0  0  0  2  0  0  0  0  0  0
  160.4100  212.5100  155.7860 O   0  0  0  0  0  0  0  0  0  0  0  0
  159.6340  212.5820  154.8460 C   0  0  0  0  0  0  0  0  0  0  0  0
  158.6260  213.6930  154.7890 C   0  0  0  0  0  2  0  0  0  0  0  0
  158.0830  213.0800  152.5530 C   0  0  0  0  0  2  0  0  0  0  0  0
  161.1520  206.4020  151.7760 N   0  0  0  0  0  2  0  0  0  0  0  0
  162.0900  205.2930  151.6110 C   0  0  0  0  0  2  0  0  0  0  0  0
  160.7370  203.6860  152.7390 F   0  0  0  0  0  0  0  0  0  0  0  0
  161.3470  203.9660  151.5270 C   0  0  1  0  0  3  0  0  0  0  0  0
  160.3190  203.9890  150.4000 C   0  0  0  0  0  2  0  0  0  0  0  0
  161.3780  204.3580  148.1080 C   0  0  0  0  0  2  0  0  0  0  0  0
  160.7480  202.0460  148.9940 C   0  0  0  0  0  3  0  0  0  0  0  0
  161.1860  202.9450  146.0740 C   0  0  0  0  0  0  0  0  0  0  0  0
  160.8750  203.3810  149.1510 C   0  0  0  0  0  0  0  0  0  0  0  0
  160.7600  201.7600  146.5140 C   0  0  0  0  0  3  0  0  0  0  0  0
  161.2230  201.2180  147.8310 C   0  0  0  0  0  2  0  0  0  0  0  0
  160.7880  203.3920  144.8540 F   0  0  0  0  0  0  0  0  0  0  0  0
  162.1150  203.7750  146.9050 C   0  0  0  0  0  2  0  0  0  0  0  0
  1  8  1  1  0  0  0
  1  6  1  0  0  0  0
  2  4  1  0  0  0  0
  3  7  2  0  0  0  0
  5 16  1  6  0  0  0
  5  2  1  0  0  0  0
  6  4  2  0  0  0  0
  7  5  1  0  0  0  0
  7  1  1  0  0  0  0
  9  8  1  6  0  0  0
  9 13  1  0  0  0  0
 10 14  1  0  0  0  0
 11 15  1  0  0  0  0
 11  9  1  0  0  0  0
 13 12  2  0  0  0  0
 14 13  1  0  0  0  0
 15 10  1  0  0  0  0
 17 16  1  0  0  0  0
 19 17  1  0  0  0  0
 19 18  1  1  0  0  0
 20 19  1  0  0  0  0
 21 24  1  0  0  0  0
 22 24  2  0  0  0  0
 23 25  2  0  0  0  0
 23 28  1  0  0  0  0
 24 20  1  0  0  0  0
 25 26  1  0  0  0  0
 26 22  1  0  0  0  0
 27 23  1  0  0  0  0
 28 21  1  0  0  0  0
M  END
>  <MODEL>
4

>  <REMARK>
 VINA RESULT:      -8.3      1.808      3.111
  Name = 
  7 active torsions:
  status: ('A' for Active; 'I' for Inactive)
    1  A    between atoms: C_1  and  O_2
    2  A    between atoms: O_2  and  C_3
    3  A    between atoms: N_5  and  C_20
    4  A    between atoms: N_5  and  C_21
    5  A    between atoms: C_10  and  C_13
    6  A    between atoms: C_10  and  C_25
    7  A    between atoms: C_20  and  C_25
                            x       y       z     vdW  Elec       q    Type
                         _______ _______ _______ _____ _____    ______ ____

>  <TORSDO>
F 7

$$$$
=
 OpenBabel11052422493D

 28 30  0  0  1  0  0  0  0  0999 V2000
  160.8890  208.9570  154.5220 C   0  0  2  0  0  3  0  0  0  0  0  0
  161.5820  208.0280  151.9030 C   0  0  0  0  0  2  0  0  0  0  0  0
  160.3670  206.7170  155.1230 O   0  0  0  0  0  0  0  0  0  0  0  0
  160.8290  209.3190  152.0750 C   0  0  0  0  0  3  0  0  0  0  0  0
  161.0490  206.9420  152.8590 C   0  0  2  0  0  3  0  0  0  0  0  0
  160.5100  209.7550  153.3020 C   0  0  0  0  0  3  0  0  0  0  0  0
  160.7320  207.4800  154.2420 C   0  0  0  0  0  0  0  0  0  0  0  0
  160.0930  209.3470  155.6060 O   0  0  0  0  0  0  0  0  0  0  0  0
  160.0890  210.7470  155.5720 C   0  0  2  0  0  3  0  0  0  0  0  0
  159.3230  213.0260  157.2460 N   0  0  0  0  0  2  0  0  0  0  0  0
  160.9560  211.2940  156.7090 C   0  0  0  0  0  2  0  0  0  0  0  0
  157.7260  210.6000  155.3270 O   0  0  0  0  0  0  0  0  0  0  0  0
  158.6800  211.2760  155.6790 C   0  0  0  0  0  0  0  0  0  0  0  0
  158.4740  212.7020  156.0990 C   0  0  0  0  0  2  0  0  0  0  0  0
  160.7210  212.7910  156.8840 C   0  0  0  0  0  2  0  0  0  0  0  0
  161.9470  205.7830  152.9090 N   0  0  0  0  0  2  0  0  0  0  0  0
  161.2010  204.5450  152.6860 C   0  0  0  0  0  2  0  0  0  0  0  0
  162.2060  202.6350  151.6720 F   0  0  0  0  0  0  0  0  0  0  0  0
  161.6460  203.8720  151.3950 C   0  0  1  0  0  3  0  0  0  0  0  0
  160.4760  203.7270  150.4260 C   0  0  0  0  0  2  0  0  0  0  0  0
  161.4190  203.3320  148.0880 C   0  0  0  0  0  2  0  0  0  0  0  0
  160.6920  205.6340  148.9240 C   0  0  0  0  0  3  0  0  0  0  0  0
  162.6190  204.9330  146.6160 C   0  0  0  0  0  0  0  0  0  0  0  0
  160.8130  204.2990  149.0850 C   0  0  0  0  0  0  0  0  0  0  0  0
  162.3270  206.1400  147.1060 C   0  0  0  0  0  3  0  0  0  0  0  0
  160.9740  206.4290  147.6780 C   0  0  0  0  0  2  0  0  0  0  0  0
  163.8390  204.7110  146.0600 F   0  0  0  0  0  0  0  0  0  0  0  0
  161.6060  203.8310  146.6580 C   0  0  0  0  0  2  0  0  0  0  0  0
  1  8  1  1  0  0  0
  2  4  1  0  0  0  0
  2  5  1  0  0  0  0
  4  6  2  0  0  0  0
  5 16  1  1  0  0  0
  5  7  1  0  0  0  0
  6  1  1  0  0  0  0
  7  1  1  0  0  0  0
  7  3  2  0  0  0  0
  9  8  1  1  0  0  0
  9 13  1  0  0  0  0
  9 11  1  0  0  0  0
 11 15  1  0  0  0  0
 12 13  2  0  0  0  0
 13 14  1  0  0  0  0
 14 10  1  0  0  0  0
 15 10  1  0  0  0  0
 17 16  1  0  0  0  0
 19 18  1  1  0  0  0
 19 17  1  0  0  0  0
 20 19  1  0  0  0  0
 21 24  1  0  0  0  0
 22 24  2  0  0  0  0
 23 28  1  0  0  0  0
 23 25  2  0  0  0  0
 24 20  1  0  0  0  0
 25 26  1  0  0  0  0
 26 22  1  0  0  0  0
 27 23  1  0  0  0  0
 28 21  1  0  0  0  0
M  END
>  <MODEL>
5

>  <REMARK>
 VINA RESULT:      -8.2      2.241      4.010
  Name = 
  7 active torsions:
  status: ('A' for Active; 'I' for Inactive)
    1  A    between atoms: C_1  and  O_2
    2  A    between atoms: O_2  and  C_3
    3  A    between atoms: N_5  and  C_20
    4  A    between atoms: N_5  and  C_21
    5  A    between atoms: C_10  and  C_13
    6  A    between atoms: C_10  and  C_25
    7  A    between atoms: C_20  and  C_25
                            x       y       z     vdW  Elec       q    Type
                         _______ _______ _______ _____ _____    ______ ____

>  <TORSDO>
F 7

$$$$
=
 OpenBabel11052422493D

 28 30  0  0  1  0  0  0  0  0999 V2000
  161.7880  209.7710  153.2670 C   0  0  2  0  0  3  0  0  0  0  0  0
  162.1370  207.7630  151.2560 C   0  0  0  0  0  2  0  0  0  0  0  0
  160.7710  208.1320  154.6560 O   0  0  0  0  0  0  0  0  0  0  0  0
  161.7210  209.1570  150.8710 C   0  0  0  0  0  3  0  0  0  0  0  0
  161.3990  207.2920  152.5240 C   0  0  2  0  0  3  0  0  0  0  0  0
  161.5620  210.0970  151.8130 C   0  0  0  0  0  3  0  0  0  0  0  0
  161.2730  208.3840  153.5710 C   0  0  0  0  0  0  0  0  0  0  0  0
  161.1510  210.7270  154.0680 O   0  0  0  0  0  0  0  0  0  0  0  0
  159.9120  210.9510  153.4560 C   0  0  2  0  0  3  0  0  0  0  0  0
  157.7920  212.9710  153.3640 N   0  0  0  0  0  2  0  0  0  0  0  0
  159.9820  212.2160  152.5960 C   0  0  0  0  0  2  0  0  0  0  0  0
  158.9370  210.5520  155.5900 O   0  0  0  0  0  0  0  0  0  0  0  0
  158.8230  211.0760  154.4930 C   0  0  0  0  0  0  0  0  0  0  0  0
  157.5330  211.7390  154.1090 C   0  0  0  0  0  2  0  0  0  0  0  0
  158.5810  212.6510  152.1750 C   0  0  0  0  0  2  0  0  0  0  0  0
  161.9960  206.0690  153.0700 N   0  0  0  0  0  2  0  0  0  0  0  0
  161.1630  204.9070  152.7620 C   0  0  0  0  0  2  0  0  0  0  0  0
  162.2540  203.0230  151.7890 F   0  0  0  0  0  0  0  0  0  0  0  0
  161.6370  204.2270  151.4850 C   0  0  1  0  0  3  0  0  0  0  0  0
  160.4730  204.0060  150.5220 C   0  0  0  0  0  2  0  0  0  0  0  0
  161.3970  203.4700  148.2050 C   0  0  0  0  0  2  0  0  0  0  0  0
  160.7050  205.8240  148.9160 C   0  0  0  0  0  3  0  0  0  0  0  0
  162.6080  204.9720  146.6400 C   0  0  0  0  0  0  0  0  0  0  0  0
  160.8090  204.4980  149.1500 C   0  0  0  0  0  0  0  0  0  0  0  0
  162.3340  206.2070  147.0640 C   0  0  0  0  0  3  0  0  0  0  0  0
  160.9880  206.5450  147.6260 C   0  0  0  0  0  2  0  0  0  0  0  0
  163.8210  204.7030  146.0900 F   0  0  0  0  0  0  0  0  0  0  0  0
  161.5810  203.8870  146.7480 C   0  0  0  0  0  2  0  0  0  0  0  0
  1  7  1  0  0  0  0
  1  8  1  1  0  0  0
  2  5  1  0  0  0  0
  4  2  1  0  0  0  0
  4  6  2  0  0  0  0
  5 16  1  1  0  0  0
  5  7  1  0  0  0  0
  6  1  1  0  0  0  0
  7  3  2  0  0  0  0
  9  8  1  1  0  0  0
  9 13  1  0  0  0  0
 10 14  1  0  0  0  0
 11  9  1  0  0  0  0
 13 12  2  0  0  0  0
 14 13  1  0  0  0  0
 15 11  1  0  0  0  0
 15 10  1  0  0  0  0
 17 16  1  0  0  0  0
 19 18  1  1  0  0  0
 19 17  1  0  0  0  0
 20 19  1  0  0  0  0
 21 24  1  0  0  0  0
 22 24  2  0  0  0  0
 23 28  1  0  0  0  0
 23 25  2  0  0  0  0
 24 20  1  0  0  0  0
 25 26  1  0  0  0  0
 26 22  1  0  0  0  0
 27 23  1  0  0  0  0
 28 21  1  0  0  0  0
M  END
>  <MODEL>
6

>  <REMARK>
 VINA RESULT:      -8.1      1.987      3.704
  Name = 
  7 active torsions:
  status: ('A' for Active; 'I' for Inactive)
    1  A    between atoms: C_1  and  O_2
    2  A    between atoms: O_2  and  C_3
    3  A    between atoms: N_5  and  C_20
    4  A    between atoms: N_5  and  C_21
    5  A    between atoms: C_10  and  C_13
    6  A    between atoms: C_10  and  C_25
    7  A    between atoms: C_20  and  C_25
                            x       y       z     vdW  Elec       q    Type
                         _______ _______ _______ _____ _____    ______ ____

>  <TORSDO>
F 7

$$$$
=
 OpenBabel11052422493D

 28 30  0  0  1  0  0  0  0  0999 V2000
  160.7280  209.2950  154.7560 C   0  0  2  0  0  3  0  0  0  0  0  0
  161.3720  208.2950  152.1510 C   0  0  0  0  0  2  0  0  0  0  0  0
  160.3580  207.0580  155.4680 O   0  0  0  0  0  0  0  0  0  0  0  0
  160.5540  209.5490  152.3010 C   0  0  0  0  0  3  0  0  0  0  0  0
  160.9400  207.2230  153.1710 C   0  0  2  0  0  3  0  0  0  0  0  0
  160.2570  210.0190  153.5210 C   0  0  0  0  0  3  0  0  0  0  0  0
  160.6450  207.8020  154.5420 C   0  0  0  0  0  0  0  0  0  0  0  0
  159.9530  209.6870  155.8550 O   0  0  0  0  0  0  0  0  0  0  0  0
  159.7510  211.0630  155.6890 C   0  0  2  0  0  3  0  0  0  0  0  0
  158.6850  213.3630  157.1570 N   0  0  0  0  0  2  0  0  0  0  0  0
  160.5420  211.8320  156.7510 C   0  0  0  0  0  2  0  0  0  0  0  0
  157.4310  210.5650  155.5090 O   0  0  0  0  0  0  0  0  0  0  0  0
  158.2830  211.3980  155.7760 C   0  0  0  0  0  0  0  0  0  0  0  0
  157.8820  212.8150  156.0640 C   0  0  0  0  0  2  0  0  0  0  0  0
  160.1000  213.2920  156.7900 C   0  0  0  0  0  2  0  0  0  0  0  0
  161.9030  206.1190  153.2310 N   0  0  0  0  0  2  0  0  0  0  0  0
  162.2640  205.6770  151.8850 C   0  0  0  0  0  2  0  0  0  0  0  0
  160.8270  203.9230  152.6230 F   0  0  0  0  0  0  0  0  0  0  0  0
  161.5320  204.3910  151.5250 C   0  0  1  0  0  3  0  0  0  0  0  0
  160.5960  204.6120  150.3400 C   0  0  0  0  0  2  0  0  0  0  0  0
  161.5760  204.6780  147.9850 C   0  0  0  0  0  2  0  0  0  0  0  0
  160.8380  202.5140  149.1250 C   0  0  0  0  0  3  0  0  0  0  0  0
  161.2050  203.0860  146.1140 C   0  0  0  0  0  0  0  0  0  0  0  0
  161.0570  203.8460  149.1400 C   0  0  0  0  0  0  0  0  0  0  0  0
  160.7230  201.9820  146.6880 C   0  0  0  0  0  3  0  0  0  0  0  0
  161.2080  201.5440  148.0360 C   0  0  0  0  0  2  0  0  0  0  0  0
  160.7830  203.4360  144.8700 F   0  0  0  0  0  0  0  0  0  0  0  0
  162.2200  203.9290  146.8220 C   0  0  0  0  0  2  0  0  0  0  0  0
  1  8  1  1  0  0  0
  2  4  1  0  0  0  0
  2  5  1  0  0  0  0
  4  6  2  0  0  0  0
  5 16  1  1  0  0  0
  5  7  1  0  0  0  0
  6  1  1  0  0  0  0
  7  1  1  0  0  0  0
  7  3  2  0  0  0  0
  9 13  1  0  0  0  0
  9  8  1  1  0  0  0
  9 11  1  0  0  0  0
 11 15  1  0  0  0  0
 12 13  2  0  0  0  0
 13 14  1  0  0  0  0
 14 10  1  0  0  0  0
 15 10  1  0  0  0  0
 17 16  1  0  0  0  0
 19 17  1  0  0  0  0
 19 18  1  1  0  0  0
 20 19  1  0  0  0  0
 21 24  1  0  0  0  0
 22 24  2  0  0  0  0
 23 25  2  0  0  0  0
 23 28  1  0  0  0  0
 24 20  1  0  0  0  0
 25 26  1  0  0  0  0
 26 22  1  0  0  0  0
 27 23  1  0  0  0  0
 28 21  1  0  0  0  0
M  END
>  <MODEL>
7

>  <REMARK>
 VINA RESULT:      -7.9      2.260      3.689
  Name = 
  7 active torsions:
  status: ('A' for Active; 'I' for Inactive)
    1  A    between atoms: C_1  and  O_2
    2  A    between atoms: O_2  and  C_3
    3  A    between atoms: N_5  and  C_20
    4  A    between atoms: N_5  and  C_21
    5  A    between atoms: C_10  and  C_13
    6  A    between atoms: C_10  and  C_25
    7  A    between atoms: C_20  and  C_25
                            x       y       z     vdW  Elec       q    Type
                         _______ _______ _______ _____ _____    ______ ____

>  <TORSDO>
F 7

$$$$
=
 OpenBabel11052422493D

 28 30  0  0  1  0  0  0  0  0999 V2000
  160.1400  209.4610  154.1890 C   0  0  2  0  0  3  0  0  0  0  0  0
  160.9200  206.7580  154.7220 C   0  0  0  0  0  2  0  0  0  0  0  0
  161.0490  209.2390  152.0040 O   0  0  0  0  0  0  0  0  0  0  0  0
  161.0830  207.8160  155.7790 C   0  0  0  0  0  3  0  0  0  0  0  0
  161.3260  207.2900  153.3340 C   0  0  2  0  0  3  0  0  0  0  0  0
  160.7130  209.0800  155.5300 C   0  0  0  0  0  3  0  0  0  0  0  0
  160.8570  208.7130  153.0900 C   0  0  0  0  0  0  0  0  0  0  0  0
  160.2500  210.8450  154.0060 O   0  0  0  0  0  0  0  0  0  0  0  0
  159.0760  211.3810  154.5500 C   0  0  2  0  0  3  0  0  0  0  0  0
  157.5900  213.9040  154.6210 N   0  0  0  0  0  2  0  0  0  0  0  0
  158.1550  211.8560  153.4220 C   0  0  0  0  0  2  0  0  0  0  0  0
  160.4790  212.5860  156.0470 O   0  0  0  0  0  0  0  0  0  0  0  0
  159.3970  212.5190  155.4860 C   0  0  0  0  0  0  0  0  0  0  0  0
  158.3140  213.5010  155.8270 C   0  0  0  0  0  2  0  0  0  0  0  0
  157.0260  212.7150  153.9840 C   0  0  0  0  0  2  0  0  0  0  0  0
  160.9060  206.3780  152.2650 N   0  0  0  0  0  2  0  0  0  0  0  0
  161.2030  204.9920  152.6250 C   0  0  0  0  0  2  0  0  0  0  0  0
  161.8120  202.8630  151.7410 F   0  0  0  0  0  0  0  0  0  0  0  0
  161.5630  204.1790  151.3880 C   0  0  1  0  0  3  0  0  0  0  0  0
  160.4520  204.2550  150.3450 C   0  0  0  0  0  2  0  0  0  0  0  0
  160.6840  206.1250  148.6250 C   0  0  0  0  0  2  0  0  0  0  0  0
  161.5550  203.7560  148.2310 C   0  0  0  0  0  3  0  0  0  0  0  0
  160.8720  205.9360  146.1550 C   0  0  0  0  0  0  0  0  0  0  0  0
  160.9870  204.6940  149.0190 C   0  0  0  0  0  0  0  0  0  0  0  0
  161.2300  204.6700  145.9300 C   0  0  0  0  0  3  0  0  0  0  0  0
  162.1560  203.9580  146.8660 C   0  0  0  0  0  2  0  0  0  0  0  0
  160.0670  206.5750  145.2650 F   0  0  0  0  0  0  0  0  0  0  0  0
  161.3660  206.6610  147.3680 C   0  0  0  0  0  2  0  0  0  0  0  0
  1  8  1  6  0  0  0
  1  6  1  0  0  0  0
  2  4  1  0  0  0  0
  3  7  2  0  0  0  0
  5 16  1  6  0  0  0
  5  2  1  0  0  0  0
  6  4  2  0  0  0  0
  7  5  1  0  0  0  0
  7  1  1  0  0  0  0
  9  8  1  6  0  0  0
  9 13  1  0  0  0  0
 10 14  1  0  0  0  0
 11 15  1  0  0  0  0
 11  9  1  0  0  0  0
 13 14  1  0  0  0  0
 13 12  2  0  0  0  0
 15 10  1  0  0  0  0
 16 17  1  0  0  0  0
 19 18  1  1  0  0  0
 19 17  1  0  0  0  0
 20 19  1  0  0  0  0
 21 24  1  0  0  0  0
 22 24  2  0  0  0  0
 23 28  1  0  0  0  0
 24 20  1  0  0  0  0
 25 23  2  0  0  0  0
 25 26  1  0  0  0  0
 26 22  1  0  0  0  0
 27 23  1  0  0  0  0
 28 21  1  0  0  0  0
M  END
>  <MODEL>
8

>  <REMARK>
 VINA RESULT:      -7.9      1.883      3.680
  Name = 
  7 active torsions:
  status: ('A' for Active; 'I' for Inactive)
    1  A    between atoms: C_1  and  O_2
    2  A    between atoms: O_2  and  C_3
    3  A    between atoms: N_5  and  C_20
    4  A    between atoms: N_5  and  C_21
    5  A    between atoms: C_10  and  C_13
    6  A    between atoms: C_10  and  C_25
    7  A    between atoms: C_20  and  C_25
                            x       y       z     vdW  Elec       q    Type
                         _______ _______ _______ _____ _____    ______ ____

>  <TORSDO>
F 7

$$$$
=
 OpenBabel11052422493D

 28 30  0  0  1  0  0  0  0  0999 V2000
  160.6750  208.9450  153.9540 C   0  0  2  0  0  3  0  0  0  0  0  0
  160.9780  206.3630  152.7520 C   0  0  0  0  0  2  0  0  0  0  0  0
  161.7680  209.8950  152.0690 O   0  0  0  0  0  0  0  0  0  0  0  0
  161.1850  206.5400  154.2320 C   0  0  0  0  0  3  0  0  0  0  0  0
  161.6050  207.5270  151.9600 C   0  0  2  0  0  3  0  0  0  0  0  0
  161.0380  207.7480  154.7940 C   0  0  0  0  0  3  0  0  0  0  0  0
  161.3850  208.8750  152.6220 C   0  0  0  0  0  0  0  0  0  0  0  0
  161.0120  210.1200  154.6380 O   0  0  0  0  0  0  0  0  0  0  0  0
  159.7900  210.6690  155.0450 C   0  0  2  0  0  3  0  0  0  0  0  0
  158.3050  213.1900  154.8910 N   0  0  0  0  0  2  0  0  0  0  0  0
  158.9860  211.1070  153.8180 C   0  0  0  0  0  2  0  0  0  0  0  0
  161.0370  211.9230  156.6380 O   0  0  0  0  0  0  0  0  0  0  0  0
  160.0160  211.8360  155.9730 C   0  0  0  0  0  0  0  0  0  0  0  0
  158.9050  212.8240  156.1750 C   0  0  0  0  0  2  0  0  0  0  0  0
  157.8070  211.9800  154.2370 C   0  0  0  0  0  2  0  0  0  0  0  0
  161.1690  207.5210  150.5590 N   0  0  0  0  0  2  0  0  0  0  0  0
  162.3140  207.6780  149.6630 C   0  0  0  0  0  2  0  0  0  0  0  0
  162.9920  206.8270  147.5410 F   0  0  0  0  0  0  0  0  0  0  0  0
  161.9180  207.3750  148.2240 C   0  0  1  0  0  3  0  0  0  0  0  0
  160.7160  206.4360  148.1770 C   0  0  0  0  0  2  0  0  0  0  0  0
  161.2010  204.9230  146.1810 C   0  0  0  0  0  2  0  0  0  0  0  0
  161.2060  204.0860  148.5940 C   0  0  0  0  0  3  0  0  0  0  0  0
  160.8680  202.4690  145.9870 C   0  0  0  0  0  0  0  0  0  0  0  0
  161.1110  205.0790  147.6850 C   0  0  0  0  0  0  0  0  0  0  0  0
  160.7690  202.0320  147.2440 C   0  0  0  0  0  3  0  0  0  0  0  0
  161.5820  202.6520  148.3380 C   0  0  0  0  0  2  0  0  0  0  0  0
  160.1550  201.8580  145.0050 F   0  0  0  0  0  0  0  0  0  0  0  0
  161.7750  203.6120  145.6500 C   0  0  0  0  0  2  0  0  0  0  0  0
  1  8  1  1  0  0  0
  1  6  1  0  0  0  0
  2  4  1  0  0  0  0
  3  7  2  0  0  0  0
  4  6  2  0  0  0  0
  5 16  1  6  0  0  0
  5  7  1  0  0  0  0
  5  2  1  0  0  0  0
  7  1  1  0  0  0  0
  9  8  1  6  0  0  0
  9 13  1  0  0  0  0
 10 14  1  0  0  0  0
 11 15  1  0  0  0  0
 11  9  1  0  0  0  0
 13 14  1  0  0  0  0
 13 12  2  0  0  0  0
 15 10  1  0  0  0  0
 17 16  1  0  0  0  0
 19 18  1  6  0  0  0
 19 17  1  0  0  0  0
 20 19  1  0  0  0  0
 21 24  1  0  0  0  0
 23 25  2  0  0  0  0
 24 20  1  0  0  0  0
 24 22  2  0  0  0  0
 25 26  1  0  0  0  0
 26 22  1  0  0  0  0
 27 23  1  0  0  0  0
 28 23  1  0  0  0  0
 28 21  1  0  0  0  0
M  END
>  <MODEL>
9

>  <REMARK>
 VINA RESULT:      -7.6      1.645      2.247
  Name = 
  7 active torsions:
  status: ('A' for Active; 'I' for Inactive)
    1  A    between atoms: C_1  and  O_2
    2  A    between atoms: O_2  and  C_3
    3  A    between atoms: N_5  and  C_20
    4  A    between atoms: N_5  and  C_21
    5  A    between atoms: C_10  and  C_13
    6  A    between atoms: C_10  and  C_25
    7  A    between atoms: C_20  and  C_25
                            x       y       z     vdW  Elec       q    Type
                         _______ _______ _______ _____ _____    ______ ____

>  <TORSDO>
F 7

$$$$
