=
 OpenBabel11062409453D

 34 37  0  0  0  0  0  0  0  0999 V2000
  160.3080  210.1710  153.8200 C   0  0  0  0  0  0  0  0  0  0  0  0
  160.6500  209.7900  152.5790 C   0  0  0  0  0  3  0  0  0  0  0  0
  157.6060  212.8470  153.5260 C   0  0  0  0  0  3  0  0  0  0  0  0
  159.7470  212.7030  152.4580 O   0  0  0  0  0  1  0  0  0  0  0  0
  156.6390  212.3630  154.4100 C   0  0  0  0  0  0  0  0  0  0  0  0
  156.8880  211.1730  155.1050 C   0  0  0  0  0  3  0  0  0  0  0  0
  158.8060  212.1590  153.3240 C   0  0  0  0  0  0  0  0  0  0  0  0
  158.0810  210.4760  154.9090 C   0  0  0  0  0  3  0  0  0  0  0  0
  159.0550  210.9490  154.0120 C   0  0  0  0  0  0  0  0  0  0  0  0
  154.9580  213.7910  155.6580 C   0  0  0  0  0  0  0  0  0  0  0  0
  153.7790  214.4530  155.5820 F   0  0  0  0  0  0  0  0  0  0  0  0
  155.6940  213.8190  156.9560 C   0  0  0  0  0  1  0  0  0  0  0  0
  155.3960  213.1470  154.5700 C   0  0  0  0  0  3  0  0  0  0  0  0
  160.2570  207.6880  155.3230 O   0  0  0  0  0  1  0  0  0  0  0  0
  161.1580  208.6860  155.6780 C   0  0  0  0  0  0  0  0  0  0  0  0
  162.9100  209.4740  157.1560 C   0  0  0  0  0  3  0  0  0  0  0  0
  162.0150  208.4760  156.7630 C   0  0  0  0  0  3  0  0  0  0  0  0
  162.0970  210.9030  155.3810 C   0  0  0  0  0  3  0  0  0  0  0  0
  161.2040  209.9040  154.9710 C   0  0  0  0  0  0  0  0  0  0  0  0
  162.9490  210.6880  156.4680 C   0  0  0  0  0  3  0  0  0  0  0  0
  161.9210  209.0780  152.2390 C   0  0  0  0  0  2  0  0  0  0  0  0
  161.1790  206.7090  149.3790 C   0  0  0  0  0  3  0  0  0  0  0  0
  161.5470  206.6060  152.1590 C   0  0  0  0  0  3  0  0  0  0  0  0
  160.7570  203.0810  150.0050 C   0  0  0  0  0  0  0  0  0  0  0  0
  160.8370  204.3100  149.3370 C   0  0  0  0  0  3  0  0  0  0  0  0
  161.0980  205.4840  150.0480 C   0  0  0  0  0  0  0  0  0  0  0  0
  161.2070  204.2080  152.1140 C   0  0  0  0  0  3  0  0  0  0  0  0
  161.2850  205.4330  151.4470 C   0  0  0  0  0  0  0  0  0  0  0  0
  160.9440  203.0380  151.3970 C   0  0  0  0  0  3  0  0  0  0  0  0
  161.6210  207.8310  151.4850 C   0  0  0  0  0  0  0  0  0  0  0  0
  161.4420  207.8800  150.0970 C   0  0  0  0  0  3  0  0  0  0  0  0
  161.4070  201.2530  148.6390 O   0  0  0  0  0  0  0  0  0  0  0  0
  160.4810  201.8490  149.2520 C   0  0  0  0  0  0  0  0  0  0  0  0
  159.1930  201.3270  149.2080 O   0  0  0  0  0  1  0  0  0  0  0  0
  1  9  1  0  0  0  0
  1 19  1  0  0  0  0
  2  1  2  0  0  0  0
  3  5  1  0  0  0  0
  4  7  1  0  0  0  0
  5 13  1  0  0  0  0
  5  6  2  0  0  0  0
  7  3  2  0  0  0  0
  7  9  1  0  0  0  0
  8  6  1  0  0  0  0
  9  8  2  0  0  0  0
 10 12  1  0  0  0  0
 11 10  1  0  0  0  0
 13 10  2  0  0  0  0
 14 15  1  0  0  0  0
 15 17  1  0  0  0  0
 17 16  2  0  0  0  0
 18 20  2  0  0  0  0
 19 18  1  0  0  0  0
 19 15  2  0  0  0  0
 20 16  1  0  0  0  0
 21  2  1  0  0  0  0
 22 26  2  0  0  0  0
 22 31  1  0  0  0  0
 24 29  1  0  0  0  0
 25 24  2  0  0  0  0
 25 26  1  0  0  0  0
 26 28  1  0  0  0  0
 28 27  1  0  0  0  0
 28 23  2  0  0  0  0
 29 27  2  0  0  0  0
 30 23  1  0  0  0  0
 30 21  1  0  0  0  0
 31 30  2  0  0  0  0
 32 33  2  0  0  0  0
 33 24  1  0  0  0  0
 34 33  1  0  0  0  0
M  END
>  <MODEL>
1

>  <REMARK>
 VINA RESULT:      -9.2      0.000      0.000
  Name = 
  6 active torsions:
  status: ('A' for Active; 'I' for Inactive)
    1  A    between atoms: C_1  and  C_20
    2  A    between atoms: C_1  and  C_34
    3  A    between atoms: C_7  and  C_15
    4  A    between atoms: C_9  and  C_18
    5  A    between atoms: C_18  and  C_30
    6  A    between atoms: C_23  and  C_25
                            x       y       z     vdW  Elec       q    Type
                         _______ _______ _______ _____ _____    ______ ____

>  <TORSDO>
F 6

$$$$
=
 OpenBabel11062409453D

 34 37  0  0  0  0  0  0  0  0999 V2000
  160.9030  207.9560  152.9890 C   0  0  0  0  0  0  0  0  0  0  0  0
  161.0970  206.8240  152.2950 C   0  0  0  0  0  3  0  0  0  0  0  0
  161.7080  210.7430  150.5130 C   0  0  0  0  0  3  0  0  0  0  0  0
  162.7040  208.5770  150.7640 O   0  0  0  0  0  1  0  0  0  0  0  0
  160.8040  211.7330  150.9060 C   0  0  0  0  0  0  0  0  0  0  0  0
  159.9520  211.4840  151.9880 C   0  0  0  0  0  3  0  0  0  0  0  0
  161.7640  209.5140  151.1770 C   0  0  0  0  0  0  0  0  0  0  0  0
  159.9970  210.2600  152.6570 C   0  0  0  0  0  3  0  0  0  0  0  0
  160.8940  209.2530  152.2600 C   0  0  0  0  0  0  0  0  0  0  0  0
  160.9090  213.1870  148.8330 C   0  0  0  0  0  0  0  0  0  0  0  0
  160.8870  214.4530  148.3530 F   0  0  0  0  0  0  0  0  0  0  0  0
  161.0510  212.0700  147.8530 C   0  0  0  0  0  1  0  0  0  0  0  0
  160.8050  213.0060  150.1540 C   0  0  0  0  0  3  0  0  0  0  0  0
  162.4690  209.6770  154.7240 O   0  0  0  0  0  1  0  0  0  0  0  0
  161.5620  208.7830  155.2830 C   0  0  0  0  0  0  0  0  0  0  0  0
  160.5490  207.8150  157.2610 C   0  0  0  0  0  3  0  0  0  0  0  0
  161.4330  208.7240  156.6740 C   0  0  0  0  0  3  0  0  0  0  0  0
  159.9170  207.0140  155.0670 C   0  0  0  0  0  3  0  0  0  0  0  0
  160.7910  207.9310  154.4680 C   0  0  0  0  0  0  0  0  0  0  0  0
  159.7940  206.9580  156.4580 C   0  0  0  0  0  3  0  0  0  0  0  0
  161.2100  205.4670  152.9150 C   0  0  0  0  0  2  0  0  0  0  0  0
  160.9450  202.0850  151.2340 C   0  0  0  0  0  3  0  0  0  0  0  0
  161.2340  204.7800  150.5110 C   0  0  0  0  0  3  0  0  0  0  0  0
  161.0330  201.8100  147.5390 C   0  0  0  0  0  0  0  0  0  0  0  0
  160.9560  201.4560  148.8930 C   0  0  0  0  0  3  0  0  0  0  0  0
  161.0230  202.4390  149.8840 C   0  0  0  0  0  0  0  0  0  0  0  0
  161.2430  204.1500  148.1710 C   0  0  0  0  0  3  0  0  0  0  0  0
  161.1670  203.7970  149.5200 C   0  0  0  0  0  0  0  0  0  0  0  0
  161.1760  203.1620  147.1860 C   0  0  0  0  0  3  0  0  0  0  0  0
  161.1600  204.4180  151.8610 C   0  0  0  0  0  0  0  0  0  0  0  0
  161.0110  203.0730  152.2200 C   0  0  0  0  0  3  0  0  0  0  0  0
  161.4550  199.6290  146.7040 O   0  0  0  0  0  1  0  0  0  0  0  0
  160.9620  200.7710  146.5010 C   0  0  0  0  0  0  0  0  0  0  0  0
  160.3490  201.0390  145.2820 O   0  0  0  0  0  0  0  0  0  0  0  0
  1 19  1  0  0  0  0
  2 21  1  0  0  0  0
  2  1  2  0  0  0  0
  3  5  2  0  0  0  0
  3  7  1  0  0  0  0
  4  7  1  0  0  0  0
  5  6  1  0  0  0  0
  6  8  2  0  0  0  0
  7  9  2  0  0  0  0
  9  8  1  0  0  0  0
  9  1  1  0  0  0  0
 10 13  2  0  0  0  0
 11 10  1  0  0  0  0
 12 10  1  0  0  0  0
 13  5  1  0  0  0  0
 14 15  1  0  0  0  0
 15 17  1  0  0  0  0
 17 16  2  0  0  0  0
 18 20  2  0  0  0  0
 19 18  1  0  0  0  0
 19 15  2  0  0  0  0
 20 16  1  0  0  0  0
 22 31  1  0  0  0  0
 23 30  1  0  0  0  0
 24 25  2  0  0  0  0
 25 26  1  0  0  0  0
 26 22  2  0  0  0  0
 27 28  1  0  0  0  0
 28 26  1  0  0  0  0
 28 23  2  0  0  0  0
 29 24  1  0  0  0  0
 29 27  2  0  0  0  0
 30 31  2  0  0  0  0
 30 21  1  0  0  0  0
 33 32  1  0  0  0  0
 33 24  1  0  0  0  0
 34 33  2  0  0  0  0
M  END
>  <MODEL>
2

>  <REMARK>
 VINA RESULT:      -8.4      3.301      4.724
  Name = 
  6 active torsions:
  status: ('A' for Active; 'I' for Inactive)
    1  A    between atoms: C_1  and  C_20
    2  A    between atoms: C_1  and  C_34
    3  A    between atoms: C_7  and  C_15
    4  A    between atoms: C_9  and  C_18
    5  A    between atoms: C_18  and  C_30
    6  A    between atoms: C_23  and  C_25
                            x       y       z     vdW  Elec       q    Type
                         _______ _______ _______ _____ _____    ______ ____

>  <TORSDO>
F 6

$$$$
=
 OpenBabel11062409453D

 34 37  0  0  0  0  0  0  0  0999 V2000
  160.4250  209.7670  154.1190 C   0  0  0  0  0  0  0  0  0  0  0  0
  160.6030  209.0350  153.0080 C   0  0  0  0  0  3  0  0  0  0  0  0
  157.8890  212.5180  153.3800 C   0  0  0  0  0  3  0  0  0  0  0  0
  159.9230  211.9600  152.2420 O   0  0  0  0  0  1  0  0  0  0  0  0
  156.9650  212.3290  154.4110 C   0  0  0  0  0  0  0  0  0  0  0  0
  157.1920  211.3120  155.3470 C   0  0  0  0  0  3  0  0  0  0  0  0
  159.0210  211.7060  153.2690 C   0  0  0  0  0  0  0  0  0  0  0  0
  158.3170  210.4930  155.2440 C   0  0  0  0  0  3  0  0  0  0  0  0
  159.2450  210.6680  154.2030 C   0  0  0  0  0  0  0  0  0  0  0  0
  155.0020  213.6130  153.4550 C   0  0  0  0  0  0  0  0  0  0  0  0
  153.9740  214.4510  153.7290 F   0  0  0  0  0  0  0  0  0  0  0  0
  155.1880  213.1740  152.0400 C   0  0  0  0  0  1  0  0  0  0  0  0
  155.7930  213.2280  154.4620 C   0  0  0  0  0  3  0  0  0  0  0  0
  160.3780  207.8410  156.2900 O   0  0  0  0  0  1  0  0  0  0  0  0
  161.3840  208.8000  156.2460 C   0  0  0  0  0  0  0  0  0  0  0  0
  163.3510  209.7960  157.2540 C   0  0  0  0  0  3  0  0  0  0  0  0
  162.3470  208.8240  157.2600 C   0  0  0  0  0  3  0  0  0  0  0  0
  162.4350  210.7300  155.2190 C   0  0  0  0  0  3  0  0  0  0  0  0
  161.4310  209.7520  155.2080 C   0  0  0  0  0  0  0  0  0  0  0  0
  163.3930  210.7500  156.2350 C   0  0  0  0  0  3  0  0  0  0  0  0
  161.7880  208.1550  152.7630 C   0  0  0  0  0  2  0  0  0  0  0  0
  161.9650  208.0160  148.9830 C   0  0  0  0  0  3  0  0  0  0  0  0
  161.5400  206.2700  151.1380 C   0  0  0  0  0  3  0  0  0  0  0  0
  161.5130  204.7990  147.1980 C   0  0  0  0  0  0  0  0  0  0  0  0
  161.7340  206.1630  147.4380 C   0  0  0  0  0  3  0  0  0  0  0  0
  161.7430  206.6560  148.7450 C   0  0  0  0  0  0  0  0  0  0  0  0
  161.3110  204.4190  149.5920 C   0  0  0  0  0  3  0  0  0  0  0  0
  161.5300  205.7770  149.8310 C   0  0  0  0  0  0  0  0  0  0  0  0
  161.3020  203.9330  148.2820 C   0  0  0  0  0  3  0  0  0  0  0  0
  161.7570  207.6340  151.3700 C   0  0  0  0  0  0  0  0  0  0  0  0
  161.9740  208.5030  150.2940 C   0  0  0  0  0  3  0  0  0  0  0  0
  161.5760  203.0470  145.5990 O   0  0  0  0  0  1  0  0  0  0  0  0
  161.5040  204.2860  145.8200 C   0  0  0  0  0  0  0  0  0  0  0  0
  161.4150  205.1630  144.7450 O   0  0  0  0  0  0  0  0  0  0  0  0
  1  9  1  0  0  0  0
  1 19  1  0  0  0  0
  2  1  2  0  0  0  0
  3  5  1  0  0  0  0
  4  7  1  0  0  0  0
  5 13  1  0  0  0  0
  5  6  2  0  0  0  0
  7  3  2  0  0  0  0
  7  9  1  0  0  0  0
  8  6  1  0  0  0  0
  9  8  2  0  0  0  0
 10 11  1  0  0  0  0
 10 13  2  0  0  0  0
 12 10  1  0  0  0  0
 15 14  1  0  0  0  0
 15 17  1  0  0  0  0
 16 17  2  0  0  0  0
 18 20  2  0  0  0  0
 19 18  1  0  0  0  0
 19 15  2  0  0  0  0
 20 16  1  0  0  0  0
 21  2  1  0  0  0  0
 22 31  1  0  0  0  0
 23 30  1  0  0  0  0
 24 25  2  0  0  0  0
 24 29  1  0  0  0  0
 25 26  1  0  0  0  0
 26 22  2  0  0  0  0
 26 28  1  0  0  0  0
 27 28  1  0  0  0  0
 28 23  2  0  0  0  0
 29 27  2  0  0  0  0
 30 21  1  0  0  0  0
 31 30  2  0  0  0  0
 32 33  1  0  0  0  0
 33 24  1  0  0  0  0
 34 33  2  0  0  0  0
M  END
>  <MODEL>
3

>  <REMARK>
 VINA RESULT:      -7.4      1.624      2.154
  Name = 
  6 active torsions:
  status: ('A' for Active; 'I' for Inactive)
    1  A    between atoms: C_1  and  C_20
    2  A    between atoms: C_1  and  C_34
    3  A    between atoms: C_7  and  C_15
    4  A    between atoms: C_9  and  C_18
    5  A    between atoms: C_18  and  C_30
    6  A    between atoms: C_23  and  C_25
                            x       y       z     vdW  Elec       q    Type
                         _______ _______ _______ _____ _____    ______ ____

>  <TORSDO>
F 6

$$$$
=
 OpenBabel11062409453D

 34 37  0  0  0  0  0  0  0  0999 V2000
  161.0700  212.4020  147.7290 C   0  0  0  0  0  0  0  0  0  0  0  0
  161.9500  211.4650  148.1140 C   0  0  0  0  0  3  0  0  0  0  0  0
  161.8260  214.1130  144.4050 C   0  0  0  0  0  3  0  0  0  0  0  0
  162.8080  214.4530  146.5650 O   0  0  0  0  0  1  0  0  0  0  0  0
  160.9030  213.4940  143.5580 C   0  0  0  0  0  0  0  0  0  0  0  0
  160.0330  212.5340  144.0880 C   0  0  0  0  0  3  0  0  0  0  0  0
  161.8930  213.7820  145.7620 C   0  0  0  0  0  0  0  0  0  0  0  0
  160.0940  212.1930  145.4400 C   0  0  0  0  0  3  0  0  0  0  0  0
  161.0270  212.8020  146.2970 C   0  0  0  0  0  0  0  0  0  0  0  0
  161.4980  213.3020  141.1020 C   0  0  0  0  0  0  0  0  0  0  0  0
  161.3540  213.8480  139.8720 F   0  0  0  0  0  0  0  0  0  0  0  0
  162.3300  212.0690  141.2280 C   0  0  0  0  0  1  0  0  0  0  0  0
  160.8930  213.8970  142.1360 C   0  0  0  0  0  3  0  0  0  0  0  0
  158.1740  212.4800  147.5500 O   0  0  0  0  0  1  0  0  0  0  0  0
  158.8120  213.1130  148.6110 C   0  0  0  0  0  0  0  0  0  0  0  0
  158.6620  214.4530  150.6250 C   0  0  0  0  0  3  0  0  0  0  0  0
  158.0430  213.7860  149.5650 C   0  0  0  0  0  3  0  0  0  0  0  0
  160.8280  213.7800  149.7830 C   0  0  0  0  0  3  0  0  0  0  0  0
  160.2160  213.0970  148.7230 C   0  0  0  0  0  0  0  0  0  0  0  0
  160.0540  214.4530  150.7330 C   0  0  0  0  0  3  0  0  0  0  0  0
  162.1520  211.0350  149.5320 C   0  0  0  0  0  2  0  0  0  0  0  0
  161.5270  207.6210  151.0480 C   0  0  0  0  0  3  0  0  0  0  0  0
  161.8490  208.7720  148.5100 C   0  0  0  0  0  3  0  0  0  0  0  0
  161.1490  204.6420  148.8760 C   0  0  0  0  0  0  0  0  0  0  0  0
  161.2230  205.4460  150.0210 C   0  0  0  0  0  3  0  0  0  0  0  0
  161.4560  206.8190  149.9050 C   0  0  0  0  0  0  0  0  0  0  0  0
  161.5430  206.5980  147.4850 C   0  0  0  0  0  3  0  0  0  0  0  0
  161.6170  207.4000  148.6270 C   0  0  0  0  0  0  0  0  0  0  0  0
  161.3110  205.2260  147.6100 C   0  0  0  0  0  3  0  0  0  0  0  0
  161.9250  209.5690  149.6580 C   0  0  0  0  0  0  0  0  0  0  0  0
  161.7600  208.9940  150.9240 C   0  0  0  0  0  3  0  0  0  0  0  0
  161.4330  202.3840  148.2000 O   0  0  0  0  0  0  0  0  0  0  0  0
  160.9040  203.1970  149.0050 C   0  0  0  0  0  0  0  0  0  0  0  0
  160.0860  202.7130  150.0190 O   0  0  0  0  0  1  0  0  0  0  0  0
  1  2  2  0  0  0  0
  1 19  1  0  0  0  0
  2 21  1  0  0  0  0
  3  7  1  0  0  0  0
  5  6  1  0  0  0  0
  5  3  2  0  0  0  0
  6  8  2  0  0  0  0
  7  9  2  0  0  0  0
  7  4  1  0  0  0  0
  8  9  1  0  0  0  0
  9  1  1  0  0  0  0
 10 12  1  0  0  0  0
 10 13  2  0  0  0  0
 11 10  1  0  0  0  0
 13  5  1  0  0  0  0
 14 15  1  0  0  0  0
 15 19  2  0  0  0  0
 15 17  1  0  0  0  0
 16 20  1  0  0  0  0
 17 16  2  0  0  0  0
 18 20  2  0  0  0  0
 19 18  1  0  0  0  0
 21 30  1  0  0  0  0
 23 28  2  0  0  0  0
 23 30  1  0  0  0  0
 24 33  1  0  0  0  0
 24 25  2  0  0  0  0
 26 25  1  0  0  0  0
 26 22  2  0  0  0  0
 27 29  2  0  0  0  0
 27 28  1  0  0  0  0
 28 26  1  0  0  0  0
 29 24  1  0  0  0  0
 30 31  2  0  0  0  0
 31 22  1  0  0  0  0
 32 33  2  0  0  0  0
 33 34  1  0  0  0  0
M  END
>  <MODEL>
4

>  <REMARK>
 VINA RESULT:      -7.3      5.972      8.340
  Name = 
  6 active torsions:
  status: ('A' for Active; 'I' for Inactive)
    1  A    between atoms: C_1  and  C_20
    2  A    between atoms: C_1  and  C_34
    3  A    between atoms: C_7  and  C_15
    4  A    between atoms: C_9  and  C_18
    5  A    between atoms: C_18  and  C_30
    6  A    between atoms: C_23  and  C_25
                            x       y       z     vdW  Elec       q    Type
                         _______ _______ _______ _____ _____    ______ ____

>  <TORSDO>
F 6

$$$$
=
 OpenBabel11062409453D

 34 37  0  0  0  0  0  0  0  0999 V2000
  161.4050  207.6360  151.3970 C   0  0  0  0  0  0  0  0  0  0  0  0
  161.4580  206.4190  150.8340 C   0  0  0  0  0  3  0  0  0  0  0  0
  161.9650  209.9780  148.4390 C   0  0  0  0  0  3  0  0  0  0  0  0
  161.1930  207.7090  148.4760 O   0  0  0  0  0  1  0  0  0  0  0  0
  162.4400  211.1250  149.0790 C   0  0  0  0  0  0  0  0  0  0  0  0
  162.5870  211.1140  150.4720 C   0  0  0  0  0  3  0  0  0  0  0  0
  161.6310  208.8330  149.1670 C   0  0  0  0  0  0  0  0  0  0  0  0
  162.2530  209.9780  151.2090 C   0  0  0  0  0  3  0  0  0  0  0  0
  161.7620  208.8230  150.5750 C   0  0  0  0  0  0  0  0  0  0  0  0
  161.9500  213.2440  147.7780 C   0  0  0  0  0  0  0  0  0  0  0  0
  162.4730  214.2360  147.0200 F   0  0  0  0  0  0  0  0  0  0  0  0
  160.4820  213.2690  148.0480 C   0  0  0  0  0  1  0  0  0  0  0  0
  162.7730  212.2960  148.2410 C   0  0  0  0  0  3  0  0  0  0  0  0
  159.9030  209.8870  152.4460 O   0  0  0  0  0  1  0  0  0  0  0  0
  160.3500  208.8970  153.3140 C   0  0  0  0  0  0  0  0  0  0  0  0
  160.5370  208.0470  155.5760 C   0  0  0  0  0  3  0  0  0  0  0  0
  160.0760  209.0140  154.6800 C   0  0  0  0  0  3  0  0  0  0  0  0
  161.5540  206.8360  153.7450 C   0  0  0  0  0  3  0  0  0  0  0  0
  161.0850  207.7940  152.8360 C   0  0  0  0  0  0  0  0  0  0  0  0
  161.2790  206.9600  155.1090 C   0  0  0  0  0  3  0  0  0  0  0  0
  161.2050  205.1410  151.5700 C   0  0  0  0  0  2  0  0  0  0  0  0
  160.8280  201.6360  150.1870 C   0  0  0  0  0  3  0  0  0  0  0  0
  161.2150  204.2470  149.2350 C   0  0  0  0  0  3  0  0  0  0  0  0
  160.9220  201.0390  146.5310 C   0  0  0  0  0  0  0  0  0  0  0  0
  160.8270  200.8070  147.9100 C   0  0  0  0  0  3  0  0  0  0  0  0
  160.9250  201.8690  148.8120 C   0  0  0  0  0  0  0  0  0  0  0  0
  161.2120  203.4160  146.9590 C   0  0  0  0  0  3  0  0  0  0  0  0
  161.1180  203.1840  148.3330 C   0  0  0  0  0  0  0  0  0  0  0  0
  161.1150  202.3490  146.0620 C   0  0  0  0  0  3  0  0  0  0  0  0
  161.1230  204.0070  150.6100 C   0  0  0  0  0  0  0  0  0  0  0  0
  160.9250  202.7040  151.0840 C   0  0  0  0  0  3  0  0  0  0  0  0
  160.1040  200.0140  144.5530 O   0  0  0  0  0  0  0  0  0  0  0  0
  160.8200  199.9170  145.5860 C   0  0  0  0  0  0  0  0  0  0  0  0
  161.5130  198.7350  145.8230 O   0  0  0  0  0  1  0  0  0  0  0  0
  1 19  1  0  0  0  0
  2  1  2  0  0  0  0
  2 21  1  0  0  0  0
  3  5  2  0  0  0  0
  3  7  1  0  0  0  0
  4  7  1  0  0  0  0
  5  6  1  0  0  0  0
  6  8  2  0  0  0  0
  7  9  2  0  0  0  0
  9  8  1  0  0  0  0
  9  1  1  0  0  0  0
 10 12  1  0  0  0  0
 10 13  2  0  0  0  0
 11 10  1  0  0  0  0
 13  5  1  0  0  0  0
 14 15  1  0  0  0  0
 15 17  1  0  0  0  0
 17 16  2  0  0  0  0
 18 20  2  0  0  0  0
 19 15  2  0  0  0  0
 19 18  1  0  0  0  0
 20 16  1  0  0  0  0
 22 31  1  0  0  0  0
 23 30  1  0  0  0  0
 24 25  2  0  0  0  0
 25 26  1  0  0  0  0
 26 22  2  0  0  0  0
 27 28  1  0  0  0  0
 28 26  1  0  0  0  0
 28 23  2  0  0  0  0
 29 24  1  0  0  0  0
 29 27  2  0  0  0  0
 30 31  2  0  0  0  0
 30 21  1  0  0  0  0
 32 33  2  0  0  0  0
 33 34  1  0  0  0  0
 33 24  1  0  0  0  0
M  END
>  <MODEL>
5

>  <REMARK>
 VINA RESULT:      -7.2      3.770      5.827
  Name = 
  6 active torsions:
  status: ('A' for Active; 'I' for Inactive)
    1  A    between atoms: C_1  and  C_20
    2  A    between atoms: C_1  and  C_34
    3  A    between atoms: C_7  and  C_15
    4  A    between atoms: C_9  and  C_18
    5  A    between atoms: C_18  and  C_30
    6  A    between atoms: C_23  and  C_25
                            x       y       z     vdW  Elec       q    Type
                         _______ _______ _______ _____ _____    ______ ____

>  <TORSDO>
F 6

$$$$
=
 OpenBabel11062409453D

 34 37  0  0  0  0  0  0  0  0999 V2000
  161.1680  212.3910  147.8490 C   0  0  0  0  0  0  0  0  0  0  0  0
  161.9390  211.3660  148.2450 C   0  0  0  0  0  3  0  0  0  0  0  0
  162.3300  214.2900  144.7520 C   0  0  0  0  0  3  0  0  0  0  0  0
  163.0780  214.4530  147.0230 O   0  0  0  0  0  1  0  0  0  0  0  0
  161.4900  213.7590  143.7690 C   0  0  0  0  0  0  0  0  0  0  0  0
  160.5410  212.7960  144.1350 C   0  0  0  0  0  3  0  0  0  0  0  0
  162.2390  213.8680  146.0810 C   0  0  0  0  0  0  0  0  0  0  0  0
  160.4440  212.3660  145.4590 C   0  0  0  0  0  3  0  0  0  0  0  0
  161.2930  212.8850  146.4510 C   0  0  0  0  0  0  0  0  0  0  0  0
  162.0120  213.5690  141.2970 C   0  0  0  0  0  0  0  0  0  0  0  0
  162.0920  214.2300  140.1180 F   0  0  0  0  0  0  0  0  0  0  0  0
  162.3410  212.1140  141.3070 C   0  0  0  0  0  1  0  0  0  0  0  0
  161.6460  214.2550  142.3860 C   0  0  0  0  0  3  0  0  0  0  0  0
  158.2910  212.5500  147.4960 O   0  0  0  0  0  1  0  0  0  0  0  0
  158.8790  213.1390  148.6100 C   0  0  0  0  0  0  0  0  0  0  0  0
  158.6380  214.4320  150.6460 C   0  0  0  0  0  3  0  0  0  0  0  0
  158.0690  213.8080  149.5330 C   0  0  0  0  0  3  0  0  0  0  0  0
  160.8350  213.7230  149.9200 C   0  0  0  0  0  3  0  0  0  0  0  0
  160.2730  213.0830  148.8070 C   0  0  0  0  0  0  0  0  0  0  0  0
  160.0210  214.3920  150.8380 C   0  0  0  0  0  3  0  0  0  0  0  0
  161.9700  210.8300  149.6410 C   0  0  0  0  0  2  0  0  0  0  0  0
  161.5630  207.2790  148.3890 C   0  0  0  0  0  3  0  0  0  0  0  0
  161.6190  208.6580  150.8310 C   0  0  0  0  0  3  0  0  0  0  0  0
  161.0910  204.4860  150.7790 C   0  0  0  0  0  0  0  0  0  0  0  0
  161.2390  205.1910  149.5760 C   0  0  0  0  0  3  0  0  0  0  0  0
  161.4140  206.5780  149.5890 C   0  0  0  0  0  0  0  0  0  0  0  0
  161.2980  206.5700  152.0170 C   0  0  0  0  0  3  0  0  0  0  0  0
  161.4440  207.2720  150.8190 C   0  0  0  0  0  0  0  0  0  0  0  0
  161.1220  205.1840  151.9970 C   0  0  0  0  0  3  0  0  0  0  0  0
  161.7630  209.3560  149.6270 C   0  0  0  0  0  0  0  0  0  0  0  0
  161.7390  208.6660  148.4090 C   0  0  0  0  0  3  0  0  0  0  0  0
  161.3290  202.3170  151.7110 O   0  0  0  0  0  1  0  0  0  0  0  0
  160.9070  203.0270  150.7590 C   0  0  0  0  0  0  0  0  0  0  0  0
  160.2630  202.4160  149.6890 O   0  0  0  0  0  0  0  0  0  0  0  0
  1  2  2  0  0  0  0
  1 19  1  0  0  0  0
  2 21  1  0  0  0  0
  3  7  1  0  0  0  0
  5  6  1  0  0  0  0
  5  3  2  0  0  0  0
  6  8  2  0  0  0  0
  7  9  2  0  0  0  0
  7  4  1  0  0  0  0
  8  9  1  0  0  0  0
  9  1  1  0  0  0  0
 10 12  1  0  0  0  0
 10 13  2  0  0  0  0
 11 10  1  0  0  0  0
 13  5  1  0  0  0  0
 14 15  1  0  0  0  0
 15 19  2  0  0  0  0
 15 17  1  0  0  0  0
 16 20  1  0  0  0  0
 17 16  2  0  0  0  0
 18 20  2  0  0  0  0
 19 18  1  0  0  0  0
 22 31  2  0  0  0  0
 22 26  1  0  0  0  0
 24 29  1  0  0  0  0
 25 26  1  0  0  0  0
 25 24  2  0  0  0  0
 26 28  2  0  0  0  0
 28 23  1  0  0  0  0
 28 27  1  0  0  0  0
 29 27  2  0  0  0  0
 30 21  1  0  0  0  0
 30 23  2  0  0  0  0
 31 30  1  0  0  0  0
 33 24  1  0  0  0  0
 33 32  1  0  0  0  0
 34 33  2  0  0  0  0
M  END
>  <MODEL>
6

>  <REMARK>
 VINA RESULT:      -7.2      5.956      8.246
  Name = 
  6 active torsions:
  status: ('A' for Active; 'I' for Inactive)
    1  A    between atoms: C_1  and  C_20
    2  A    between atoms: C_1  and  C_34
    3  A    between atoms: C_7  and  C_15
    4  A    between atoms: C_9  and  C_18
    5  A    between atoms: C_18  and  C_30
    6  A    between atoms: C_23  and  C_25
                            x       y       z     vdW  Elec       q    Type
                         _______ _______ _______ _____ _____    ______ ____

>  <TORSDO>
F 6

$$$$
=
 OpenBabel11062409453D

 34 37  0  0  0  0  0  0  0  0999 V2000
  161.2440  211.4070  149.5550 C   0  0  0  0  0  0  0  0  0  0  0  0
  161.6730  210.1460  149.7150 C   0  0  0  0  0  3  0  0  0  0  0  0
  159.8460  212.1810  153.0180 C   0  0  0  0  0  3  0  0  0  0  0  0
  161.0190  210.2440  152.2350 O   0  0  0  0  0  1  0  0  0  0  0  0
  159.2630  213.4340  152.8090 C   0  0  0  0  0  0  0  0  0  0  0  0
  159.3210  214.0050  151.5320 C   0  0  0  0  0  3  0  0  0  0  0  0
  160.4860  211.5020  151.9780 C   0  0  0  0  0  0  0  0  0  0  0  0
  159.9610  213.3370  150.4870 C   0  0  0  0  0  3  0  0  0  0  0  0
  160.5600  212.0820  150.6910 C   0  0  0  0  0  0  0  0  0  0  0  0
  157.5230  213.6860  154.6340 C   0  0  0  0  0  0  0  0  0  0  0  0
  157.0860  214.4480  155.6640 F   0  0  0  0  0  0  0  0  0  0  0  0
  156.7660  212.4400  154.3150 C   0  0  0  0  0  1  0  0  0  0  0  0
  158.6050  214.0900  153.9580 C   0  0  0  0  0  3  0  0  0  0  0  0
  163.7130  212.6070  148.6130 O   0  0  0  0  0  1  0  0  0  0  0  0
  162.5770  212.6590  147.8130 C   0  0  0  0  0  0  0  0  0  0  0  0
  161.5110  213.3910  145.7620 C   0  0  0  0  0  3  0  0  0  0  0  0
  162.6460  213.3010  146.5730 C   0  0  0  0  0  3  0  0  0  0  0  0
  160.2270  212.1960  147.4290 C   0  0  0  0  0  3  0  0  0  0  0  0
  161.3620  212.0900  148.2440 C   0  0  0  0  0  0  0  0  0  0  0  0
  160.3010  212.8410  146.1920 C   0  0  0  0  0  3  0  0  0  0  0  0
  162.2990  209.3280  148.6300 C   0  0  0  0  0  2  0  0  0  0  0  0
  161.1130  206.0970  150.2100 C   0  0  0  0  0  3  0  0  0  0  0  0
  162.1060  206.9970  147.7450 C   0  0  0  0  0  3  0  0  0  0  0  0
  161.0770  202.9510  148.2530 C   0  0  0  0  0  0  0  0  0  0  0  0
  160.9250  203.8530  149.3150 C   0  0  0  0  0  3  0  0  0  0  0  0
  161.2670  205.1980  149.1510 C   0  0  0  0  0  0  0  0  0  0  0  0
  161.9160  204.7530  146.8510 C   0  0  0  0  0  3  0  0  0  0  0  0
  161.7660  205.6520  147.9100 C   0  0  0  0  0  0  0  0  0  0  0  0
  161.5740  203.4090  147.0230 C   0  0  0  0  0  3  0  0  0  0  0  0
  161.9560  207.8910  148.8110 C   0  0  0  0  0  0  0  0  0  0  0  0
  161.4560  207.4420  150.0390 C   0  0  0  0  0  3  0  0  0  0  0  0
  159.8740  201.1960  149.3050 O   0  0  0  0  0  1  0  0  0  0  0  0
  160.7160  201.5360  148.4320 C   0  0  0  0  0  0  0  0  0  0  0  0
  161.3020  200.5580  147.6360 O   0  0  0  0  0  0  0  0  0  0  0  0
  1  2  2  0  0  0  0
  1  9  1  0  0  0  0
  5  3  1  0  0  0  0
  5 13  1  0  0  0  0
  6  5  2  0  0  0  0
  7  4  1  0  0  0  0
  7  3  2  0  0  0  0
  8  9  2  0  0  0  0
  8  6  1  0  0  0  0
  9  7  1  0  0  0  0
 10 11  1  0  0  0  0
 12 10  1  0  0  0  0
 13 10  2  0  0  0  0
 15 19  1  0  0  0  0
 15 14  1  0  0  0  0
 16 20  2  0  0  0  0
 16 17  1  0  0  0  0
 17 15  2  0  0  0  0
 18 19  2  0  0  0  0
 19  1  1  0  0  0  0
 20 18  1  0  0  0  0
 21 30  1  0  0  0  0
 21  2  1  0  0  0  0
 23 28  2  0  0  0  0
 23 30  1  0  0  0  0
 24 33  1  0  0  0  0
 24 25  2  0  0  0  0
 26 25  1  0  0  0  0
 26 22  2  0  0  0  0
 27 29  2  0  0  0  0
 27 28  1  0  0  0  0
 28 26  1  0  0  0  0
 29 24  1  0  0  0  0
 30 31  2  0  0  0  0
 31 22  1  0  0  0  0
 33 32  1  0  0  0  0
 34 33  2  0  0  0  0
M  END
>  <MODEL>
7

>  <REMARK>
 VINA RESULT:      -6.8      3.214      5.317
  Name = 
  6 active torsions:
  status: ('A' for Active; 'I' for Inactive)
    1  A    between atoms: C_1  and  C_20
    2  A    between atoms: C_1  and  C_34
    3  A    between atoms: C_7  and  C_15
    4  A    between atoms: C_9  and  C_18
    5  A    between atoms: C_18  and  C_30
    6  A    between atoms: C_23  and  C_25
                            x       y       z     vdW  Elec       q    Type
                         _______ _______ _______ _____ _____    ______ ____

>  <TORSDO>
F 6

$$$$
=
 OpenBabel11062409453D

 34 37  0  0  0  0  0  0  0  0999 V2000
  161.2080  209.6680  151.6130 C   0  0  0  0  0  0  0  0  0  0  0  0
  161.6730  210.3300  150.5420 C   0  0  0  0  0  3  0  0  0  0  0  0
  161.2550  206.0450  150.4210 C   0  0  0  0  0  3  0  0  0  0  0  0
  161.2150  208.0780  149.1520 O   0  0  0  0  0  1  0  0  0  0  0  0
  161.2440  205.3530  151.6350 C   0  0  0  0  0  0  0  0  0  0  0  0
  161.2060  206.0800  152.8310 C   0  0  0  0  0  3  0  0  0  0  0  0
  161.2360  207.4420  150.3880 C   0  0  0  0  0  0  0  0  0  0  0  0
  161.1900  207.4760  152.8100 C   0  0  0  0  0  3  0  0  0  0  0  0
  161.2130  208.1800  151.5940 C   0  0  0  0  0  0  0  0  0  0  0  0
  161.0920  203.0790  150.5280 C   0  0  0  0  0  0  0  0  0  0  0  0
  161.1520  201.7390  150.7140 F   0  0  0  0  0  0  0  0  0  0  0  0
  160.8310  203.5820  149.1480 C   0  0  0  0  0  1  0  0  0  0  0  0
  161.2660  203.8760  151.5880 C   0  0  0  0  0  3  0  0  0  0  0  0
  162.7050  210.3430  154.0060 O   0  0  0  0  0  1  0  0  0  0  0  0
  161.3680  210.7150  153.9060 C   0  0  0  0  0  0  0  0  0  0  0  0
  159.4210  211.7560  154.9040 C   0  0  0  0  0  3  0  0  0  0  0  0
  160.7690  211.3970  154.9690 C   0  0  0  0  0  3  0  0  0  0  0  0
  159.2590  210.7510  152.7100 C   0  0  0  0  0  3  0  0  0  0  0  0
  160.6140  210.3970  152.7590 C   0  0  0  0  0  0  0  0  0  0  0  0
  158.6650  211.4310  153.7760 C   0  0  0  0  0  3  0  0  0  0  0  0
  161.6470  211.8200  150.4000 C   0  0  0  0  0  2  0  0  0  0  0  0
  162.7020  212.8280  146.9060 C   0  0  0  0  0  3  0  0  0  0  0  0
  160.3460  212.2180  148.3020 C   0  0  0  0  0  3  0  0  0  0  0  0
  160.1780  213.2210  144.2210 C   0  0  0  0  0  0  0  0  0  0  0  0
  161.4110  213.1910  144.8870 C   0  0  0  0  0  3  0  0  0  0  0  0
  161.4720  212.8590  146.2430 C   0  0  0  0  0  0  0  0  0  0  0  0
  159.0570  212.5790  146.2820 C   0  0  0  0  0  3  0  0  0  0  0  0
  160.2860  212.5510  146.9460 C   0  0  0  0  0  0  0  0  0  0  0  0
  159.0040  212.9130  144.9270 C   0  0  0  0  0  3  0  0  0  0  0  0
  161.5800  212.1940  148.9610 C   0  0  0  0  0  0  0  0  0  0  0  0
  162.7560  212.4940  148.2630 C   0  0  0  0  0  3  0  0  0  0  0  0
  160.9400  214.3930  142.3030 O   0  0  0  0  0  1  0  0  0  0  0  0
  160.1200  213.5710  142.7940 C   0  0  0  0  0  0  0  0  0  0  0  0
  159.1590  212.9980  141.9690 O   0  0  0  0  0  0  0  0  0  0  0  0
  1 19  1  0  0  0  0
  2  1  2  0  0  0  0
  3  5  1  0  0  0  0
  4  7  1  0  0  0  0
  5  6  2  0  0  0  0
  7  3  2  0  0  0  0
  7  9  1  0  0  0  0
  8  6  1  0  0  0  0
  9  1  1  0  0  0  0
  9  8  2  0  0  0  0
 10 11  1  0  0  0  0
 10 13  2  0  0  0  0
 12 10  1  0  0  0  0
 13  5  1  0  0  0  0
 15 14  1  0  0  0  0
 15 17  1  0  0  0  0
 16 17  2  0  0  0  0
 18 19  1  0  0  0  0
 18 20  2  0  0  0  0
 19 15  2  0  0  0  0
 20 16  1  0  0  0  0
 21  2  1  0  0  0  0
 22 31  1  0  0  0  0
 23 30  1  0  0  0  0
 24 25  2  0  0  0  0
 24 29  1  0  0  0  0
 25 26  1  0  0  0  0
 26 22  2  0  0  0  0
 26 28  1  0  0  0  0
 27 28  1  0  0  0  0
 28 23  2  0  0  0  0
 29 27  2  0  0  0  0
 30 21  1  0  0  0  0
 31 30  2  0  0  0  0
 32 33  1  0  0  0  0
 33 24  1  0  0  0  0
 34 33  2  0  0  0  0
M  END
>  <MODEL>
8

>  <REMARK>
 VINA RESULT:      -6.7      5.480      8.628
  Name = 
  6 active torsions:
  status: ('A' for Active; 'I' for Inactive)
    1  A    between atoms: C_1  and  C_20
    2  A    between atoms: C_1  and  C_34
    3  A    between atoms: C_7  and  C_15
    4  A    between atoms: C_9  and  C_18
    5  A    between atoms: C_18  and  C_30
    6  A    between atoms: C_23  and  C_25
                            x       y       z     vdW  Elec       q    Type
                         _______ _______ _______ _____ _____    ______ ____

>  <TORSDO>
F 6

$$$$
