=
 OpenBabel11062408553D

 55 61  0  0  1  0  0  0  0  0999 V2000
  162.6510  210.1340  149.2690 C   0  0  0  0  0  3  0  0  0  0  0  0
  162.1010  212.7450  148.3890 C   0  0  0  0  0  0  0  0  0  0  0  0
  161.2510  212.1130  149.3150 C   0  0  0  0  0  3  0  0  0  0  0  0
  163.4990  210.7560  148.3470 C   0  0  0  0  0  3  0  0  0  0  0  0
  161.5160  210.8080  149.7510 C   0  0  0  0  0  0  0  0  0  0  0  0
  163.2230  212.0580  147.9070 C   0  0  0  0  0  3  0  0  0  0  0  0
  160.6120  210.1660  150.7440 C   0  0  2  0  0  3  0  0  0  0  0  0
  162.2780  210.6940  154.4660 C   0  0  0  0  0  2  0  0  0  0  0  0
  161.7390  208.2730  154.7490 C   0  0  2  0  0  3  0  0  0  0  0  0
  160.6870  210.8760  152.0780 C   0  0  2  0  0  3  0  0  0  0  0  0
  161.4860  209.6690  154.1760 C   0  0  0  0  0  0  0  0  0  0  0  0
  160.9620  208.8230  150.9560 O   0  0  0  0  0  0  0  0  0  0  0  0
  161.1800  207.3750  152.7930 N   0  0  2  0  0  0  0  0  0  0  0  0
  160.8840  207.3390  154.1230 O   0  0  0  0  0  0  0  0  0  0  0  0
  160.4480  209.7640  153.0800 C   0  0  2  0  0  3  0  0  0  0  0  0
  160.4210  208.4930  152.2010 C   0  0  1  0  0  3  0  0  0  0  0  0
  161.3910  204.9080  152.7450 C   0  0  0  0  0  2  0  0  0  0  0  0
  160.5470  203.5800  150.7950 C   0  0  2  0  0  3  0  0  0  0  0  0
  160.7890  206.0850  150.7010 C   0  0  0  0  0  2  0  0  0  0  0  0
  161.3840  204.7490  150.2890 C   0  0  1  0  0  3  0  0  0  0  0  0
  161.7830  204.0270  151.5690 C   0  0  1  0  0  3  0  0  0  0  0  0
  160.6500  206.1290  152.2190 C   0  0  2  0  0  3  0  0  0  0  0  0
  160.7800  202.3380  149.9320 C   0  0  2  0  0  3  0  0  0  0  0  0
  161.0540  202.7690  148.5070 C   0  0  0  0  0  1  0  0  0  0  0  0
  159.7180  201.4240  149.9560 O   0  0  0  0  0  1  0  0  0  0  0  0
  159.9230  213.2740  151.6930 N   0  0  0  0  0  2  0  0  0  0  0  0
  158.5660  211.7070  152.7810 O   0  0  0  0  0  0  0  0  0  0  0  0
  158.9320  214.3370  151.7430 C   0  0  0  0  0  1  0  0  0  0  0  0
  159.6600  211.9580  152.1970 C   0  0  0  0  0  0  0  0  0  0  0  0
  160.4960  208.9010  156.9490 C   0  0  0  0  0  2  0  0  0  0  0  0
  161.6220  208.1110  156.2810 C   0  0  0  0  0  3  0  0  0  0  0  0
  160.3080  207.4280  156.6420 C   0  0  0  0  0  2  0  0  0  0  0  0
  161.7550  214.1360  147.9480 C   0  0  0  0  0  2  0  0  0  0  0  0
  162.0270  214.4430  146.4680 C   0  0  0  0  0  2  0  0  0  0  0  0
  160.7730  214.2110  145.6330 C   0  0  0  0  0  2  0  0  0  0  0  0
  160.9230  212.9660  144.7770 C   0  0  0  0  0  2  0  0  0  0  0  0
  159.7030  212.6900  144.1600 O   0  0  0  0  0  0  0  0  0  0  0  0
  158.3580  214.4480  142.4690 O   0  0  0  0  0  1  0  0  0  0  0  0
  159.7170  213.4500  142.6440 P   0  0  1  0  0  0  0  0  0  0  0  0
  160.9630  214.2910  142.4280 O   0  0  0  0  0  0  0  0  0  0  0  0
  159.7050  212.1480  141.3700 C   0  0  0  0  0  2  0  0  0  0  0  0
  160.7290  212.4620  140.2940 C   0  0  0  0  0  2  0  0  0  0  0  0
  162.0820  211.7310  140.3730 C   0  0  2  0  0  0  0  0  0  0  0  0
  162.4270  211.8980  137.0430 C   0  0  0  0  0  2  0  0  0  0  0  0
  163.6210  213.1150  138.9200 C   0  0  0  0  0  0  0  0  0  0  0  0
  161.5890  213.9930  137.9720 O   0  0  0  0  0  1  0  0  0  0  0  0
  162.7430  213.2400  137.7080 C   0  0  2  0  0  3  0  0  0  0  0  0
  162.1680  210.6040  139.3210 C   0  0  2  0  0  3  0  0  0  0  0  0
  162.2490  211.1530  141.6410 O   0  0  0  0  0  1  0  0  0  0  0  0
  161.6330  210.9460  137.9300 C   0  0  1  0  0  3  0  0  0  0  0  0
  164.8560  213.2780  138.7680 O   0  0  0  0  0  0  0  0  0  0  0  0
  161.5940  209.4170  139.7810 O   0  0  0  0  0  1  0  0  0  0  0  0
  163.1550  212.6560  140.1730 O   0  0  0  0  0  0  0  0  0  0  0  0
  160.1960  210.5940  137.5620 C   0  0  0  0  0  2  0  0  0  0  0  0
  160.1190  209.3120  137.0120 O   0  0  0  0  0  1  0  0  0  0  0  0
  1  5  1  0  0  0  0
  2  3  1  0  0  0  0
  3  5  2  0  0  0  0
  4  1  2  0  0  0  0
  6  4  1  0  0  0  0
  6  2  2  0  0  0  0
  7  5  1  6  0  0  0
  7 12  1  0  0  0  0
  7 10  1  0  0  0  0
  9 31  1  1  0  0  0
 10 29  1  6  0  0  0
 10 15  1  0  0  0  0
 11  8  2  0  0  0  0
 11  9  1  0  0  0  0
 13 14  1  1  0  0  0
 14  9  1  0  0  0  0
 15 11  1  1  0  0  0
 16 12  1  6  0  0  0
 16 13  1  0  0  0  0
 16 15  1  0  0  0  0
 18 23  1  6  0  0  0
 18 21  1  0  0  0  0
 20 19  1  1  0  0  0
 20 18  1  0  0  0  0
 20 21  1  0  0  0  0
 21 17  1  1  0  0  0
 22 19  1  6  0  0  0
 22 17  1  0  0  0  0
 22 13  1  0  0  0  0
 23 24  1  6  0  0  0
 23 25  1  0  0  0  0
 26 28  1  0  0  0  0
 26 29  1  0  0  0  0
 29 27  2  0  0  0  0
 31 32  1  0  0  0  0
 31 30  1  0  0  0  0
 32 30  1  0  0  0  0
 33  2  1  0  0  0  0
 34 33  1  0  0  0  0
 35 34  1  0  0  0  0
 36 35  1  0  0  0  0
 37 36  1  0  0  0  0
 38 39  1  0  0  0  0
 39 40  2  6  0  0  0
 39 37  1  0  0  0  0
 41 39  1  0  0  0  0
 42 43  1  0  0  0  0
 42 41  1  0  0  0  0
 43 49  1  1  0  0  0
 44 47  1  0  0  0  0
 44 50  1  0  0  0  0
 45 53  1  0  0  0  0
 47 46  1  1  0  0  0
 47 45  1  0  0  0  0
 48 52  1  1  0  0  0
 48 43  1  0  0  0  0
 50 54  1  1  0  0  0
 50 48  1  0  0  0  0
 51 45  2  0  0  0  0
 53 43  1  0  0  0  0
 55 54  1  0  0  0  0
M  END
>  <MODEL>
1

>  <REMARK>
 VINA RESULT:      -4.9      0.000      0.000
  Name = 
  15 active torsions:
  status: ('A' for Active; 'I' for Inactive)
    1  A    between atoms: C_1  and  C_21
    2  A    between atoms: C_2  and  C_44
    3  A    between atoms: O_8  and  P_20
    4  A    between atoms: O_8  and  C_43
    5  A    between atoms: C_10  and  C_32
    6  A    between atoms: C_11  and  C_38
    7  A    between atoms: C_16  and  C_17
    8  A    between atoms: C_19  and  C_40
    9  A    between atoms: P_20  and  C_42
   10  A    between atoms: C_21  and  C_42
   11  A    between atoms: C_27  and  C_54
   12  A    between atoms: N_33  and  C_52
   13  A    between atoms: C_35  and  C_43
   14  A    between atoms: C_35  and  C_51
   15  A    between atoms: C_51  and  C_54
                            x       y       z     vdW  Elec       q    Type
                         _______ _______ _______ _____ _____    ______ ____

>  <TORSDO>
F 15

$$$$
=
 OpenBabel11062408553D

 55 61  0  0  1  0  0  0  0  0999 V2000
  160.6260  208.5760  154.1800 C   0  0  0  0  0  3  0  0  0  0  0  0
  161.9940  207.6460  151.9090 C   0  0  0  0  0  0  0  0  0  0  0  0
  161.8410  209.0260  152.1300 C   0  0  0  0  0  3  0  0  0  0  0  0
  160.7740  207.2020  153.9650 C   0  0  0  0  0  3  0  0  0  0  0  0
  161.1530  209.4960  153.2560 C   0  0  0  0  0  0  0  0  0  0  0  0
  161.4550  206.7380  152.8310 C   0  0  0  0  0  3  0  0  0  0  0  0
  161.0170  210.9620  153.4770 C   0  0  2  0  0  3  0  0  0  0  0  0
  157.5660  211.5790  155.6270 C   0  0  0  0  0  2  0  0  0  0  0  0
  157.1650  213.3800  153.9440 C   0  0  2  0  0  3  0  0  0  0  0  0
  160.2910  211.2460  154.7740 C   0  0  2  0  0  3  0  0  0  0  0  0
  158.0680  212.4920  154.8030 C   0  0  0  0  0  0  0  0  0  0  0  0
  160.2860  211.5660  152.4400 O   0  0  0  0  0  0  0  0  0  0  0  0
  158.5910  213.1810  152.2490 N   0  0  2  0  0  0  0  0  0  0  0  0
  157.9490  214.1050  153.0200 O   0  0  0  0  0  0  0  0  0  0  0  0
  159.5460  212.5330  154.4840 C   0  0  2  0  0  3  0  0  0  0  0  0
  159.8040  212.7610  152.9770 C   0  0  1  0  0  3  0  0  0  0  0  0
  158.2890  213.3910  149.8010 C   0  0  0  0  0  2  0  0  0  0  0  0
  160.0970  214.3570  148.3580 C   0  0  2  0  0  3  0  0  0  0  0  0
  160.5120  213.6870  150.7500 C   0  0  0  0  0  2  0  0  0  0  0  0
  160.6950  213.3100  149.2890 C   0  0  1  0  0  3  0  0  0  0  0  0
  159.3040  213.1010  148.7060 C   0  0  1  0  0  3  0  0  0  0  0  0
  159.0270  213.8870  151.0360 C   0  0  2  0  0  3  0  0  0  0  0  0
  160.7650  214.2990  146.9820 C   0  0  2  0  0  3  0  0  0  0  0  0
  159.7840  213.7270  145.9800 C   0  0  0  0  0  1  0  0  0  0  0  0
  161.9520  213.5560  146.9610 O   0  0  0  0  0  1  0  0  0  0  0  0
  162.5620  210.8570  155.8590 N   0  0  0  0  0  2  0  0  0  0  0  0
  160.8420  211.9910  156.9710 O   0  0  0  0  0  0  0  0  0  0  0  0
  163.5270  211.0320  156.9330 C   0  0  0  0  0  1  0  0  0  0  0  0
  161.2370  211.4010  155.9240 C   0  0  0  0  0  0  0  0  0  0  0  0
  154.7370  214.1760  154.4420 C   0  0  0  0  0  2  0  0  0  0  0  0
  156.2330  214.3630  154.6890 C   0  0  0  0  0  3  0  0  0  0  0  0
  155.3720  213.6130  155.6980 C   0  0  0  0  0  2  0  0  0  0  0  0
  162.7270  207.2050  150.6770 C   0  0  0  0  0  2  0  0  0  0  0  0
  162.1360  207.7000  149.3480 C   0  0  0  0  0  2  0  0  0  0  0  0
  160.7050  207.2020  149.1800 C   0  0  0  0  0  2  0  0  0  0  0  0
  160.6640  205.6850  149.1620 C   0  0  0  0  0  2  0  0  0  0  0  0
  159.9420  205.2380  150.2680 O   0  0  0  0  0  0  0  0  0  0  0  0
  162.2480  203.7280  150.6690 O   0  0  0  0  0  0  0  0  0  0  0  0
  160.5530  203.7130  150.6900 P   0  0  1  0  0  0  0  0  0  0  0  0
  160.0930  203.2650  152.0670 O   0  0  0  0  0  1  0  0  0  0  0  0
  159.9220  202.5070  149.4800 C   0  0  0  0  0  2  0  0  0  0  0  0
  160.2940  202.9360  148.0730 C   0  0  0  0  0  2  0  0  0  0  0  0
  161.6100  202.3870  147.4910 C   0  0  2  0  0  0  0  0  0  0  0  0
  161.0510  203.9690  144.5900 C   0  0  0  0  0  2  0  0  0  0  0  0
  162.7190  204.4050  146.4480 C   0  0  0  0  0  0  0  0  0  0  0  0
  160.5180  205.3810  146.5070 O   0  0  0  0  0  1  0  0  0  0  0  0
  161.5500  204.9350  145.6680 C   0  0  2  0  0  3  0  0  0  0  0  0
  161.3960  201.8210  146.0710 C   0  0  2  0  0  3  0  0  0  0  0  0
  162.1030  201.3520  148.3000 O   0  0  0  0  0  1  0  0  0  0  0  0
  160.5130  202.6560  145.1440 C   0  0  1  0  0  3  0  0  0  0  0  0
  163.8710  204.7460  146.0820 O   0  0  0  0  0  0  0  0  0  0  0  0
  160.9520  200.4970  146.0980 O   0  0  0  0  0  1  0  0  0  0  0  0
  162.6010  203.4180  147.4520 O   0  0  0  0  0  0  0  0  0  0  0  0
  159.0260  202.3420  145.0270 C   0  0  0  0  0  2  0  0  0  0  0  0
  158.3720  203.2920  144.2390 O   0  0  0  0  0  1  0  0  0  0  0  0
  2  3  2  0  0  0  0
  2  6  1  0  0  0  0
  3  5  1  0  0  0  0
  4  1  1  0  0  0  0
  5  1  2  0  0  0  0
  6  4  2  0  0  0  0
  7  5  1  6  0  0  0
  7 10  1  0  0  0  0
  9 31  1  1  0  0  0
  9 11  1  0  0  0  0
 10 29  1  1  0  0  0
 11  8  2  0  0  0  0
 12  7  1  0  0  0  0
 13 16  1  0  0  0  0
 13 14  1  1  0  0  0
 14  9  1  0  0  0  0
 15 10  1  0  0  0  0
 15 11  1  6  0  0  0
 16 12  1  6  0  0  0
 16 15  1  0  0  0  0
 18 23  1  6  0  0  0
 18 21  1  0  0  0  0
 18 20  1  0  0  0  0
 19 22  1  0  0  0  0
 20 19  1  1  0  0  0
 21 20  1  0  0  0  0
 21 17  1  1  0  0  0
 22 17  1  6  0  0  0
 22 13  1  0  0  0  0
 23 24  1  6  0  0  0
 25 23  1  0  0  0  0
 26 29  1  0  0  0  0
 26 28  1  0  0  0  0
 29 27  2  0  0  0  0
 30 31  1  0  0  0  0
 30 32  1  0  0  0  0
 31 32  1  0  0  0  0
 33  2  1  0  0  0  0
 34 33  1  0  0  0  0
 35 34  1  0  0  0  0
 36 35  1  0  0  0  0
 36 37  1  0  0  0  0
 37 39  1  0  0  0  0
 39 38  2  6  0  0  0
 39 40  1  0  0  0  0
 41 39  1  0  0  0  0
 42 41  1  0  0  0  0
 43 42  1  0  0  0  0
 43 49  1  1  0  0  0
 44 50  1  0  0  0  0
 44 47  1  0  0  0  0
 45 53  1  0  0  0  0
 47 45  1  0  0  0  0
 47 46  1  1  0  0  0
 48 52  1  1  0  0  0
 48 43  1  0  0  0  0
 50 54  1  1  0  0  0
 50 48  1  0  0  0  0
 51 45  2  0  0  0  0
 53 43  1  0  0  0  0
 55 54  1  0  0  0  0
M  END
>  <MODEL>
2

>  <REMARK>
 VINA RESULT:      -4.4      4.953      9.158
  Name = 
  15 active torsions:
  status: ('A' for Active; 'I' for Inactive)
    1  A    between atoms: C_1  and  C_21
    2  A    between atoms: C_2  and  C_44
    3  A    between atoms: O_8  and  P_20
    4  A    between atoms: O_8  and  C_43
    5  A    between atoms: C_10  and  C_32
    6  A    between atoms: C_11  and  C_38
    7  A    between atoms: C_16  and  C_17
    8  A    between atoms: C_19  and  C_40
    9  A    between atoms: P_20  and  C_42
   10  A    between atoms: C_21  and  C_42
   11  A    between atoms: C_27  and  C_54
   12  A    between atoms: N_33  and  C_52
   13  A    between atoms: C_35  and  C_43
   14  A    between atoms: C_35  and  C_51
   15  A    between atoms: C_51  and  C_54
                            x       y       z     vdW  Elec       q    Type
                         _______ _______ _______ _____ _____    ______ ____

>  <TORSDO>
F 15

$$$$
=
 OpenBabel11062408553D

 55 61  0  0  1  0  0  0  0  0999 V2000
  160.1440  208.3670  155.0180 C   0  0  0  0  0  3  0  0  0  0  0  0
  161.3560  207.0870  152.8300 C   0  0  0  0  0  0  0  0  0  0  0  0
  161.2960  208.4910  152.8870 C   0  0  0  0  0  3  0  0  0  0  0  0
  160.1990  206.9700  154.9660 C   0  0  0  0  0  3  0  0  0  0  0  0
  160.6860  209.1350  153.9720 C   0  0  0  0  0  0  0  0  0  0  0  0
  160.8020  206.3320  153.8730 C   0  0  0  0  0  3  0  0  0  0  0  0
  160.6490  210.6220  154.0190 C   0  0  2  0  0  3  0  0  0  0  0  0
  157.6030  211.7090  156.5590 C   0  0  0  0  0  2  0  0  0  0  0  0
  157.0230  213.3130  154.7360 C   0  0  2  0  0  3  0  0  0  0  0  0
  160.1460  211.1060  155.3620 C   0  0  2  0  0  3  0  0  0  0  0  0
  158.0090  212.4820  155.5580 C   0  0  0  0  0  0  0  0  0  0  0  0
  159.7930  211.1400  153.0330 O   0  0  0  0  0  0  0  0  0  0  0  0
  158.1590  212.8220  152.8880 N   0  0  2  0  0  0  0  0  0  0  0  0
  157.6850  213.8700  153.6190 O   0  0  0  0  0  0  0  0  0  0  0  0
  159.4210  212.3920  155.0210 C   0  0  2  0  0  3  0  0  0  0  0  0
  159.4510  212.4190  153.4760 C   0  0  1  0  0  3  0  0  0  0  0  0
  158.7950  212.2370  150.5670 C   0  0  0  0  0  2  0  0  0  0  0  0
  159.8370  213.9370  149.0490 C   0  0  2  0  0  3  0  0  0  0  0  0
  159.6040  214.3230  151.5270 C   0  0  0  0  0  2  0  0  0  0  0  0
  160.5500  213.9540  150.3960 C   0  0  1  0  0  3  0  0  0  0  0  0
  160.0550  212.6360  149.8150 C   0  0  1  0  0  3  0  0  0  0  0  0
  158.4320  213.3480  151.5420 C   0  0  2  0  0  3  0  0  0  0  0  0
  160.8350  214.1520  147.9090 C   0  0  2  0  0  3  0  0  0  0  0  0
  160.8600  212.9160  147.0340 C   0  0  0  0  0  1  0  0  0  0  0  0
  162.1330  214.4520  148.3420 O   0  0  0  0  0  1  0  0  0  0  0  0
  162.4780  210.5810  156.2410 N   0  0  0  0  0  2  0  0  0  0  0  0
  161.1140  212.1970  157.2470 O   0  0  0  0  0  0  0  0  0  0  0  0
  163.6060  210.8160  157.1290 C   0  0  0  0  0  1  0  0  0  0  0  0
  161.2650  211.3410  156.3280 C   0  0  0  0  0  0  0  0  0  0  0  0
  154.7450  214.4480  155.2840 C   0  0  0  0  0  2  0  0  0  0  0  0
  156.2610  214.4350  155.4770 C   0  0  0  0  0  3  0  0  0  0  0  0
  155.3440  213.8400  156.5380 C   0  0  0  0  0  2  0  0  0  0  0  0
  162.0080  206.4560  151.6350 C   0  0  0  0  0  2  0  0  0  0  0  0
  162.3060  204.9550  151.7660 C   0  0  0  0  0  2  0  0  0  0  0  0
  161.0250  204.1750  152.0400 C   0  0  0  0  0  2  0  0  0  0  0  0
  160.4350  203.6440  150.7460 C   0  0  0  0  0  2  0  0  0  0  0  0
  161.4730  203.2200  149.9160 O   0  0  0  0  0  0  0  0  0  0  0  0
  161.7850  200.4790  149.5360 O   0  0  0  0  0  1  0  0  0  0  0  0
  160.9210  201.8600  149.0680 P   0  0  1  0  0  0  0  0  0  0  0  0
  159.4410  201.5990  149.2890 O   0  0  0  0  0  0  0  0  0  0  0  0
  161.1640  202.1760  147.2900 C   0  0  0  0  0  2  0  0  0  0  0  0
  161.0030  203.6570  146.9970 C   0  0  0  0  0  2  0  0  0  0  0  0
  162.2510  204.4220  146.5180 C   0  0  2  0  0  0  0  0  0  0  0  0
  160.5550  207.3120  146.5400 C   0  0  0  0  0  2  0  0  0  0  0  0
  162.3820  206.4230  148.0570 C   0  0  0  0  0  0  0  0  0  0  0  0
  160.0630  205.9600  148.5110 O   0  0  0  0  0  1  0  0  0  0  0  0
  160.9570  206.8870  147.9550 C   0  0  2  0  0  3  0  0  0  0  0  0
  161.9040  205.3830  145.3620 C   0  0  2  0  0  3  0  0  0  0  0  0
  163.2230  203.5220  146.0560 O   0  0  0  0  0  1  0  0  0  0  0  0
  160.6090  206.1810  145.5210 C   0  0  1  0  0  3  0  0  0  0  0  0
  163.2450  207.2590  148.4220 O   0  0  0  0  0  0  0  0  0  0  0  0
  161.9250  204.7390  144.1230 O   0  0  0  0  0  1  0  0  0  0  0  0
  162.8230  205.1610  147.6020 O   0  0  0  0  0  0  0  0  0  0  0  0
  159.3170  205.6600  144.9040 C   0  0  0  0  0  2  0  0  0  0  0  0
  159.5040  204.3950  144.3410 O   0  0  0  0  0  1  0  0  0  0  0  0
  2  3  2  0  0  0  0
  2  6  1  0  0  0  0
  3  5  1  0  0  0  0
  4  1  1  0  0  0  0
  5  1  2  0  0  0  0
  6  4  2  0  0  0  0
  7  5  1  1  0  0  0
  7 10  1  0  0  0  0
  9 31  1  1  0  0  0
  9 11  1  0  0  0  0
 10 29  1  1  0  0  0
 11  8  2  0  0  0  0
 12  7  1  0  0  0  0
 13 16  1  0  0  0  0
 13 14  1  1  0  0  0
 14  9  1  0  0  0  0
 15 10  1  0  0  0  0
 15 11  1  6  0  0  0
 16 12  1  6  0  0  0
 16 15  1  0  0  0  0
 18 23  1  6  0  0  0
 18 21  1  0  0  0  0
 18 20  1  0  0  0  0
 19 22  1  0  0  0  0
 20 19  1  1  0  0  0
 21 20  1  0  0  0  0
 21 17  1  1  0  0  0
 22 17  1  6  0  0  0
 22 13  1  0  0  0  0
 23 24  1  1  0  0  0
 23 25  1  0  0  0  0
 26 29  1  0  0  0  0
 26 28  1  0  0  0  0
 29 27  2  0  0  0  0
 30 31  1  0  0  0  0
 30 32  1  0  0  0  0
 31 32  1  0  0  0  0
 33 34  1  0  0  0  0
 33  2  1  0  0  0  0
 34 35  1  0  0  0  0
 36 35  1  0  0  0  0
 37 36  1  0  0  0  0
 39 40  2  1  0  0  0
 39 38  1  0  0  0  0
 39 37  1  0  0  0  0
 41 39  1  0  0  0  0
 42 41  1  0  0  0  0
 43 49  1  6  0  0  0
 43 42  1  0  0  0  0
 43 53  1  0  0  0  0
 44 47  1  0  0  0  0
 45 51  2  0  0  0  0
 47 45  1  0  0  0  0
 47 46  1  6  0  0  0
 48 52  1  6  0  0  0
 48 50  1  0  0  0  0
 48 43  1  0  0  0  0
 50 54  1  1  0  0  0
 50 44  1  0  0  0  0
 53 45  1  0  0  0  0
 55 54  1  0  0  0  0
M  END
>  <MODEL>
3

>  <REMARK>
 VINA RESULT:      -4.3      5.238      9.137
  Name = 
  15 active torsions:
  status: ('A' for Active; 'I' for Inactive)
    1  A    between atoms: C_1  and  C_21
    2  A    between atoms: C_2  and  C_44
    3  A    between atoms: O_8  and  P_20
    4  A    between atoms: O_8  and  C_43
    5  A    between atoms: C_10  and  C_32
    6  A    between atoms: C_11  and  C_38
    7  A    between atoms: C_16  and  C_17
    8  A    between atoms: C_19  and  C_40
    9  A    between atoms: P_20  and  C_42
   10  A    between atoms: C_21  and  C_42
   11  A    between atoms: C_27  and  C_54
   12  A    between atoms: N_33  and  C_52
   13  A    between atoms: C_35  and  C_43
   14  A    between atoms: C_35  and  C_51
   15  A    between atoms: C_51  and  C_54
                            x       y       z     vdW  Elec       q    Type
                         _______ _______ _______ _____ _____    ______ ____

>  <TORSDO>
F 15

$$$$
=
 OpenBabel11062408553D

 55 61  0  0  1  0  0  0  0  0999 V2000
  161.2930  207.6770  154.0560 C   0  0  0  0  0  3  0  0  0  0  0  0
  161.2310  206.4120  151.5490 C   0  0  0  0  0  0  0  0  0  0  0  0
  161.3260  207.8120  151.6350 C   0  0  0  0  0  3  0  0  0  0  0  0
  161.1970  206.2840  153.9770 C   0  0  0  0  0  3  0  0  0  0  0  0
  161.3490  208.4490  152.8840 C   0  0  0  0  0  0  0  0  0  0  0  0
  161.1640  205.6530  152.7250 C   0  0  0  0  0  3  0  0  0  0  0  0
  161.4660  209.9310  152.9510 C   0  0  2  0  0  3  0  0  0  0  0  0
  157.7820  211.4200  154.0100 C   0  0  0  0  0  2  0  0  0  0  0  0
  158.2070  213.0380  152.1560 C   0  0  2  0  0  3  0  0  0  0  0  0
  160.5060  210.5010  153.9720 C   0  0  2  0  0  3  0  0  0  0  0  0
  158.6560  212.1180  153.2930 C   0  0  0  0  0  0  0  0  0  0  0  0
  161.1680  210.5210  151.7110 O   0  0  0  0  0  0  0  0  0  0  0  0
  159.9480  212.3760  150.9410 N   0  0  2  0  0  0  0  0  0  0  0  0
  159.3350  213.4890  151.4350 O   0  0  0  0  0  0  0  0  0  0  0  0
  160.1420  211.8540  153.3940 C   0  0  2  0  0  3  0  0  0  0  0  0
  160.8200  211.8410  152.0050 C   0  0  1  0  0  3  0  0  0  0  0  0
  160.4190  214.2200  149.3570 C   0  0  0  0  0  2  0  0  0  0  0  0
  161.6620  213.7980  147.2220 C   0  0  2  0  0  3  0  0  0  0  0  0
  160.7500  211.9200  148.6300 C   0  0  0  0  0  2  0  0  0  0  0  0
  160.5560  212.7620  147.3790 C   0  0  1  0  0  3  0  0  0  0  0  0
  160.3240  214.1950  147.8400 C   0  0  1  0  0  3  0  0  0  0  0  0
  160.8170  212.8350  149.8480 C   0  0  2  0  0  3  0  0  0  0  0  0
  161.8070  214.2130  145.7560 C   0  0  2  0  0  3  0  0  0  0  0  0
  161.1200  213.1850  144.8810 C   0  0  0  0  0  1  0  0  0  0  0  0
  163.1350  214.3770  145.3420 O   0  0  0  0  0  1  0  0  0  0  0  0
  162.5620  210.6240  155.4700 N   0  0  0  0  0  2  0  0  0  0  0  0
  160.3910  210.7070  156.3450 O   0  0  0  0  0  0  0  0  0  0  0  0
  163.2110  210.7980  156.7600 C   0  0  0  0  0  1  0  0  0  0  0  0
  161.1350  210.6290  155.3240 C   0  0  0  0  0  0  0  0  0  0  0  0
  156.0640  214.4500  151.7180 C   0  0  0  0  0  2  0  0  0  0  0  0
  157.3380  214.2570  152.5400 C   0  0  0  0  0  3  0  0  0  0  0  0
  155.9920  213.7960  153.0850 C   0  0  0  0  0  2  0  0  0  0  0  0
  161.1950  205.7900  150.1840 C   0  0  0  0  0  2  0  0  0  0  0  0
  160.2290  206.4480  149.1880 C   0  0  0  0  0  2  0  0  0  0  0  0
  160.9990  207.2460  148.1410 C   0  0  0  0  0  2  0  0  0  0  0  0
  160.8830  206.5900  146.7770 C   0  0  0  0  0  2  0  0  0  0  0  0
  162.1600  206.4470  146.2330 O   0  0  0  0  0  0  0  0  0  0  0  0
  164.2140  204.5830  145.9790 O   0  0  0  0  0  0  0  0  0  0  0  0
  162.5700  204.8040  146.3270 P   0  0  1  0  0  0  0  0  0  0  0  0
  162.2850  204.2120  147.6970 O   0  0  0  0  0  1  0  0  0  0  0  0
  161.5480  203.9050  145.1160 C   0  0  0  0  0  2  0  0  0  0  0  0
  161.3670  202.4630  145.5550 C   0  0  0  0  0  2  0  0  0  0  0  0
  159.9510  202.0240  145.9720 C   0  0  2  0  0  0  0  0  0  0  0  0
  161.2000  199.4290  147.6840 C   0  0  0  0  0  2  0  0  0  0  0  0
  160.1390  201.5980  148.4560 C   0  0  0  0  0  0  0  0  0  0  0  0
  162.5070  201.4590  148.0390 O   0  0  0  0  0  1  0  0  0  0  0  0
  161.3740  200.7420  148.4510 C   0  0  2  0  0  3  0  0  0  0  0  0
  159.7560  200.5070  145.7660 C   0  0  2  0  0  3  0  0  0  0  0  0
  158.9890  202.6940  145.2000 O   0  0  0  0  0  1  0  0  0  0  0  0
  160.9220  199.6190  146.1980 C   0  0  1  0  0  3  0  0  0  0  0  0
  159.3690  201.5090  149.4440 O   0  0  0  0  0  0  0  0  0  0  0  0
  159.3750  200.2030  144.4570 O   0  0  0  0  0  1  0  0  0  0  0  0
  159.7150  202.3570  147.3430 O   0  0  0  0  0  0  0  0  0  0  0  0
  161.9660  199.1870  145.1750 C   0  0  0  0  0  2  0  0  0  0  0  0
  161.8510  197.8260  144.8830 O   0  0  0  0  0  1  0  0  0  0  0  0
  2  3  2  0  0  0  0
  2  6  1  0  0  0  0
  3  5  1  0  0  0  0
  4  1  1  0  0  0  0
  5  1  2  0  0  0  0
  6  4  2  0  0  0  0
  7  5  1  6  0  0  0
  7 10  1  0  0  0  0
  9 31  1  1  0  0  0
  9 11  1  0  0  0  0
 10 29  1  1  0  0  0
 11  8  2  0  0  0  0
 12  7  1  0  0  0  0
 13 14  1  1  0  0  0
 13 16  1  0  0  0  0
 14  9  1  0  0  0  0
 15 11  1  6  0  0  0
 15 10  1  0  0  0  0
 16 12  1  6  0  0  0
 16 15  1  0  0  0  0
 17 22  1  0  0  0  0
 18 23  1  6  0  0  0
 18 20  1  0  0  0  0
 18 21  1  0  0  0  0
 20 21  1  0  0  0  0
 20 19  1  1  0  0  0
 21 17  1  1  0  0  0
 22 19  1  6  0  0  0
 22 13  1  0  0  0  0
 23 24  1  6  0  0  0
 25 23  1  0  0  0  0
 26 28  1  0  0  0  0
 29 26  1  0  0  0  0
 29 27  2  0  0  0  0
 30 31  1  0  0  0  0
 30 32  1  0  0  0  0
 31 32  1  0  0  0  0
 33  2  1  0  0  0  0
 34 33  1  0  0  0  0
 35 34  1  0  0  0  0
 36 35  1  0  0  0  0
 37 39  1  0  0  0  0
 37 36  1  0  0  0  0
 39 38  2  6  0  0  0
 39 40  1  0  0  0  0
 41 42  1  0  0  0  0
 41 39  1  0  0  0  0
 42 43  1  0  0  0  0
 43 49  1  6  0  0  0
 43 53  1  0  0  0  0
 44 47  1  0  0  0  0
 45 51  2  0  0  0  0
 47 46  1  6  0  0  0
 47 45  1  0  0  0  0
 48 52  1  6  0  0  0
 48 43  1  0  0  0  0
 48 50  1  0  0  0  0
 50 54  1  6  0  0  0
 50 44  1  0  0  0  0
 53 45  1  0  0  0  0
 55 54  1  0  0  0  0
M  END
>  <MODEL>
4

>  <REMARK>
 VINA RESULT:      -3.2      4.198      9.715
  Name = 
  15 active torsions:
  status: ('A' for Active; 'I' for Inactive)
    1  A    between atoms: C_1  and  C_21
    2  A    between atoms: C_2  and  C_44
    3  A    between atoms: O_8  and  P_20
    4  A    between atoms: O_8  and  C_43
    5  A    between atoms: C_10  and  C_32
    6  A    between atoms: C_11  and  C_38
    7  A    between atoms: C_16  and  C_17
    8  A    between atoms: C_19  and  C_40
    9  A    between atoms: P_20  and  C_42
   10  A    between atoms: C_21  and  C_42
   11  A    between atoms: C_27  and  C_54
   12  A    between atoms: N_33  and  C_52
   13  A    between atoms: C_35  and  C_43
   14  A    between atoms: C_35  and  C_51
   15  A    between atoms: C_51  and  C_54
                            x       y       z     vdW  Elec       q    Type
                         _______ _______ _______ _____ _____    ______ ____

>  <TORSDO>
F 15

$$$$
=
 OpenBabel11062408553D

 55 61  0  0  1  0  0  0  0  0999 V2000
  160.5070  207.8990  154.6850 C   0  0  0  0  0  3  0  0  0  0  0  0
  161.4880  206.3110  152.5850 C   0  0  0  0  0  0  0  0  0  0  0  0
  161.6130  207.7100  152.5340 C   0  0  0  0  0  3  0  0  0  0  0  0
  160.3780  206.5070  154.7400 C   0  0  0  0  0  3  0  0  0  0  0  0
  161.1180  208.5090  153.5750 C   0  0  0  0  0  0  0  0  0  0  0  0
  160.8660  205.7160  153.6910 C   0  0  0  0  0  3  0  0  0  0  0  0
  161.2770  209.9870  153.5080 C   0  0  2  0  0  3  0  0  0  0  0  0
  157.5890  211.6640  154.2120 C   0  0  0  0  0  2  0  0  0  0  0  0
  158.1610  213.0830  152.2400 C   0  0  2  0  0  3  0  0  0  0  0  0
  160.2810  210.6770  154.4150 C   0  0  2  0  0  3  0  0  0  0  0  0
  158.5200  212.2660  153.4830 C   0  0  0  0  0  0  0  0  0  0  0  0
  161.0630  210.4610  152.2030 O   0  0  0  0  0  0  0  0  0  0  0  0
  159.9440  212.2630  151.1930 N   0  0  2  0  0  0  0  0  0  0  0  0
  159.3390  213.4340  151.5430 O   0  0  0  0  0  0  0  0  0  0  0  0
  159.9900  211.9760  153.6910 C   0  0  2  0  0  3  0  0  0  0  0  0
  160.7410  211.8120  152.3500 C   0  0  1  0  0  3  0  0  0  0  0  0
  160.6640  214.0040  149.5860 C   0  0  0  0  0  2  0  0  0  0  0  0
  161.8910  213.3930  147.4880 C   0  0  2  0  0  3  0  0  0  0  0  0
  160.7320  211.6660  148.9090 C   0  0  0  0  0  2  0  0  0  0  0  0
  160.6660  212.4990  147.6390 C   0  0  1  0  0  3  0  0  0  0  0  0
  160.5980  213.9580  148.0670 C   0  0  1  0  0  3  0  0  0  0  0  0
  160.8840  212.5930  150.1110 C   0  0  2  0  0  3  0  0  0  0  0  0
  162.1130  213.7560  146.0180 C   0  0  2  0  0  3  0  0  0  0  0  0
  160.7850  213.7180  145.2920 C   0  0  0  0  0  1  0  0  0  0  0  0
  163.0360  212.9290  145.3640 O   0  0  0  0  0  1  0  0  0  0  0  0
  162.2180  211.2820  155.9540 N   0  0  0  0  0  2  0  0  0  0  0  0
  160.0930  210.7640  156.7900 O   0  0  0  0  0  0  0  0  0  0  0  0
  162.7850  211.5760  157.2610 C   0  0  0  0  0  1  0  0  0  0  0  0
  160.8410  210.9180  155.7820 C   0  0  0  0  0  0  0  0  0  0  0  0
  155.7960  214.1520  152.4410 C   0  0  0  0  0  2  0  0  0  0  0  0
  157.3110  214.3550  152.4570 C   0  0  0  0  0  3  0  0  0  0  0  0
  156.5320  214.2540  153.7630 C   0  0  0  0  0  2  0  0  0  0  0  0
  162.0220  205.5120  151.4330 C   0  0  0  0  0  2  0  0  0  0  0  0
  162.0990  203.9960  151.6650 C   0  0  0  0  0  2  0  0  0  0  0  0
  160.7030  203.3830  151.6740 C   0  0  0  0  0  2  0  0  0  0  0  0
  160.1910  203.1980  150.2570 C   0  0  0  0  0  2  0  0  0  0  0  0
  161.2060  202.6460  149.4760 O   0  0  0  0  0  0  0  0  0  0  0  0
  161.7280  200.1540  148.3480 O   0  0  0  0  0  0  0  0  0  0  0  0
  160.5430  201.3320  148.6360 P   0  0  1  0  0  0  0  0  0  0  0  0
  159.3930  200.6830  149.3870 O   0  0  0  0  0  1  0  0  0  0  0  0
  159.8850  201.9560  147.0560 C   0  0  0  0  0  2  0  0  0  0  0  0
  160.2770  203.4110  146.8670 C   0  0  0  0  0  2  0  0  0  0  0  0
  160.7290  203.8430  145.4590 C   0  0  2  0  0  0  0  0  0  0  0  0
  162.7060  206.2140  146.7650 C   0  0  0  0  0  2  0  0  0  0  0  0
  163.2460  204.0070  145.6390 C   0  0  0  0  0  0  0  0  0  0  0  0
  162.8570  204.1230  148.0130 O   0  0  0  0  0  1  0  0  0  0  0  0
  163.3350  204.8250  146.8960 C   0  0  2  0  0  3  0  0  0  0  0  0
  160.6800  205.3780  145.3070 C   0  0  2  0  0  3  0  0  0  0  0  0
  159.8880  203.2830  144.4860 O   0  0  0  0  0  1  0  0  0  0  0  0
  161.2070  206.1860  146.4930 C   0  0  1  0  0  3  0  0  0  0  0  0
  164.2340  204.0150  144.8650 O   0  0  0  0  0  0  0  0  0  0  0  0
  159.4070  205.8260  144.9440 O   0  0  0  0  0  1  0  0  0  0  0  0
  162.0580  203.3780  145.2040 O   0  0  0  0  0  0  0  0  0  0  0  0
  160.2380  206.6910  147.5570 C   0  0  0  0  0  2  0  0  0  0  0  0
  160.8980  207.4800  148.5020 O   0  0  0  0  0  1  0  0  0  0  0  0
  1  4  1  0  0  0  0
  2  6  1  0  0  0  0
  3  2  2  0  0  0  0
  3  5  1  0  0  0  0
  5  1  2  0  0  0  0
  6  4  2  0  0  0  0
  7  5  1  6  0  0  0
  7 10  1  0  0  0  0
  9 31  1  1  0  0  0
  9 11  1  0  0  0  0
 10 29  1  1  0  0  0
 11  8  2  0  0  0  0
 12  7  1  0  0  0  0
 13 14  1  1  0  0  0
 13 16  1  0  0  0  0
 14  9  1  0  0  0  0
 15 11  1  6  0  0  0
 15 10  1  0  0  0  0
 16 12  1  6  0  0  0
 16 15  1  0  0  0  0
 17 22  1  0  0  0  0
 18 23  1  6  0  0  0
 18 20  1  0  0  0  0
 18 21  1  0  0  0  0
 20 21  1  0  0  0  0
 20 19  1  1  0  0  0
 21 17  1  1  0  0  0
 22 19  1  6  0  0  0
 22 13  1  0  0  0  0
 23 24  1  6  0  0  0
 25 23  1  0  0  0  0
 26 28  1  0  0  0  0
 29 26  1  0  0  0  0
 29 27  2  0  0  0  0
 30 31  1  0  0  0  0
 30 32  1  0  0  0  0
 31 32  1  0  0  0  0
 33 34  1  0  0  0  0
 33  2  1  0  0  0  0
 34 35  1  0  0  0  0
 36 35  1  0  0  0  0
 37 36  1  0  0  0  0
 39 38  2  6  0  0  0
 39 40  1  0  0  0  0
 39 37  1  0  0  0  0
 41 39  1  0  0  0  0
 42 41  1  0  0  0  0
 43 49  1  6  0  0  0
 43 42  1  0  0  0  0
 44 47  1  0  0  0  0
 45 47  1  0  0  0  0
 47 46  1  1  0  0  0
 48 52  1  1  0  0  0
 48 43  1  0  0  0  0
 48 50  1  0  0  0  0
 50 44  1  0  0  0  0
 50 54  1  1  0  0  0
 51 45  2  0  0  0  0
 53 43  1  0  0  0  0
 53 45  1  0  0  0  0
 54 55  1  0  0  0  0
M  END
>  <MODEL>
5

>  <REMARK>
 VINA RESULT:      -3.2      4.418      9.295
  Name = 
  15 active torsions:
  status: ('A' for Active; 'I' for Inactive)
    1  A    between atoms: C_1  and  C_21
    2  A    between atoms: C_2  and  C_44
    3  A    between atoms: O_8  and  P_20
    4  A    between atoms: O_8  and  C_43
    5  A    between atoms: C_10  and  C_32
    6  A    between atoms: C_11  and  C_38
    7  A    between atoms: C_16  and  C_17
    8  A    between atoms: C_19  and  C_40
    9  A    between atoms: P_20  and  C_42
   10  A    between atoms: C_21  and  C_42
   11  A    between atoms: C_27  and  C_54
   12  A    between atoms: N_33  and  C_52
   13  A    between atoms: C_35  and  C_43
   14  A    between atoms: C_35  and  C_51
   15  A    between atoms: C_51  and  C_54
                            x       y       z     vdW  Elec       q    Type
                         _______ _______ _______ _____ _____    ______ ____

>  <TORSDO>
F 15

$$$$
=
 OpenBabel11062408553D

 55 61  0  0  1  0  0  0  0  0999 V2000
  157.4480  212.1610  150.4310 C   0  0  0  0  0  3  0  0  0  0  0  0
  159.7210  213.6440  149.7040 C   0  0  0  0  0  0  0  0  0  0  0  0
  159.7870  212.7130  150.7550 C   0  0  0  0  0  3  0  0  0  0  0  0
  157.3750  213.0870  149.3850 C   0  0  0  0  0  3  0  0  0  0  0  0
  158.6550  211.9760  151.1280 C   0  0  0  0  0  0  0  0  0  0  0  0
  158.5090  213.8280  149.0240 C   0  0  0  0  0  3  0  0  0  0  0  0
  158.7530  210.9840  152.2330 C   0  0  2  0  0  3  0  0  0  0  0  0
  160.5480  212.8580  155.4240 C   0  0  0  0  0  2  0  0  0  0  0  0
  161.9130  210.7700  155.5300 C   0  0  2  0  0  3  0  0  0  0  0  0
  158.6890  211.6720  153.5800 C   0  0  2  0  0  3  0  0  0  0  0  0
  160.6310  211.5470  155.2250 C   0  0  0  0  0  0  0  0  0  0  0  0
  159.9660  210.2770  152.1750 O   0  0  0  0  0  0  0  0  0  0  0  0
  161.6080  209.5560  153.6920 N   0  0  2  0  0  0  0  0  0  0  0  0
  161.7990  209.4510  155.0380 O   0  0  0  0  0  0  0  0  0  0  0  0
  159.5610  210.8000  154.4600 C   0  0  2  0  0  3  0  0  0  0  0  0
  160.1680  209.7840  153.4660 C   0  0  1  0  0  3  0  0  0  0  0  0
  161.6160  208.1710  151.6390 C   0  0  0  0  0  2  0  0  0  0  0  0
  161.6350  205.6680  151.7740 C   0  0  2  0  0  3  0  0  0  0  0  0
  161.1560  207.1100  153.7820 C   0  0  0  0  0  2  0  0  0  0  0  0
  160.5610  206.2190  152.7050 C   0  0  1  0  0  3  0  0  0  0  0  0
  160.8280  206.8980  151.3680 C   0  0  1  0  0  3  0  0  0  0  0  0
  161.9410  208.2410  153.1250 C   0  0  2  0  0  3  0  0  0  0  0  0
  161.1590  204.3760  151.1070 C   0  0  2  0  0  3  0  0  0  0  0  0
  161.7940  203.1940  151.8080 C   0  0  0  0  0  1  0  0  0  0  0  0
  161.4300  204.3150  149.7340 O   0  0  0  0  0  1  0  0  0  0  0  0
  156.5790  213.0030  154.0940 N   0  0  0  0  0  2  0  0  0  0  0  0
  156.7440  210.7180  154.5770 O   0  0  0  0  0  0  0  0  0  0  0  0
  155.2000  213.1140  154.5420 C   0  0  0  0  0  1  0  0  0  0  0  0
  157.2870  211.7560  154.1000 C   0  0  0  0  0  0  0  0  0  0  0  0
  163.8070  210.2610  157.2430 C   0  0  0  0  0  2  0  0  0  0  0  0
  162.3660  210.7150  157.0070 C   0  0  0  0  0  3  0  0  0  0  0  0
  163.4660  211.7390  157.2610 C   0  0  0  0  0  2  0  0  0  0  0  0
  160.9620  214.4130  149.3620 C   0  0  0  0  0  2  0  0  0  0  0  0
  161.9930  213.6550  148.5120 C   0  0  0  0  0  2  0  0  0  0  0  0
  161.9420  214.1250  147.0630 C   0  0  0  0  0  2  0  0  0  0  0  0
  160.7890  213.4680  146.3270 C   0  0  0  0  0  2  0  0  0  0  0  0
  160.5370  214.1770  145.1530 O   0  0  0  0  0  0  0  0  0  0  0  0
  163.1550  214.4530  144.2440 O   0  0  0  0  0  1  0  0  0  0  0  0
  161.6710  213.6700  143.9990 P   0  0  1  0  0  0  0  0  0  0  0  0
  161.9070  212.1700  144.0370 O   0  0  0  0  0  0  0  0  0  0  0  0
  161.0110  214.0810  142.3520 C   0  0  0  0  0  2  0  0  0  0  0  0
  161.3910  213.0030  141.3540 C   0  0  0  0  0  2  0  0  0  0  0  0
  160.3780  211.8650  141.1220 C   0  0  2  0  0  0  0  0  0  0  0  0
  161.6650  211.2650  138.0870 C   0  0  0  0  0  2  0  0  0  0  0  0
  161.7820  209.9510  140.2520 C   0  0  0  0  0  0  0  0  0  0  0  0
  163.4100  211.6530  139.7470 O   0  0  0  0  0  1  0  0  0  0  0  0
  162.5510  210.6910  139.1950 C   0  0  2  0  0  3  0  0  0  0  0  0
  159.7310  211.9730  139.7260 C   0  0  2  0  0  3  0  0  0  0  0  0
  159.3550  211.9250  142.0810 O   0  0  0  0  0  1  0  0  0  0  0  0
  160.6760  212.3170  138.5750 C   0  0  1  0  0  3  0  0  0  0  0  0
  161.6860  208.7040  140.1420 O   0  0  0  0  0  0  0  0  0  0  0  0
  158.6340  212.8380  139.7250 O   0  0  0  0  0  1  0  0  0  0  0  0
  161.0240  210.5950  141.2560 O   0  0  0  0  0  0  0  0  0  0  0  0
  160.8420  213.7670  138.1370 C   0  0  0  0  0  2  0  0  0  0  0  0
  161.8870  213.8980  137.2180 O   0  0  0  0  0  1  0  0  0  0  0  0
  1  5  1  0  0  0  0
  2  3  1  0  0  0  0
  3  5  2  0  0  0  0
  4  1  2  0  0  0  0
  6  4  1  0  0  0  0
  6  2  2  0  0  0  0
  7  5  1  6  0  0  0
  7 10  1  0  0  0  0
  9 31  1  1  0  0  0
 10 29  1  1  0  0  0
 10 15  1  0  0  0  0
 11  8  2  0  0  0  0
 11  9  1  0  0  0  0
 12  7  1  0  0  0  0
 13 14  1  1  0  0  0
 14  9  1  0  0  0  0
 15 11  1  6  0  0  0
 16 12  1  6  0  0  0
 16 13  1  0  0  0  0
 16 15  1  0  0  0  0
 18 23  1  6  0  0  0
 18 20  1  0  0  0  0
 20 19  1  1  0  0  0
 21 17  1  1  0  0  0
 21 18  1  0  0  0  0
 21 20  1  0  0  0  0
 22 17  1  6  0  0  0
 22 13  1  0  0  0  0
 22 19  1  0  0  0  0
 23 24  1  1  0  0  0
 25 23  1  0  0  0  0
 26 29  1  0  0  0  0
 26 28  1  0  0  0  0
 29 27  2  0  0  0  0
 30 32  1  0  0  0  0
 31 30  1  0  0  0  0
 31 32  1  0  0  0  0
 33  2  1  0  0  0  0
 34 33  1  0  0  0  0
 35 34  1  0  0  0  0
 36 35  1  0  0  0  0
 37 36  1  0  0  0  0
 39 40  2  1  0  0  0
 39 38  1  0  0  0  0
 39 37  1  0  0  0  0
 41 39  1  0  0  0  0
 42 41  1  0  0  0  0
 43 53  1  0  0  0  0
 43 42  1  0  0  0  0
 43 49  1  1  0  0  0
 44 50  1  0  0  0  0
 44 47  1  0  0  0  0
 45 53  1  0  0  0  0
 47 46  1  1  0  0  0
 47 45  1  0  0  0  0
 48 52  1  1  0  0  0
 48 43  1  0  0  0  0
 50 54  1  1  0  0  0
 50 48  1  0  0  0  0
 51 45  2  0  0  0  0
 55 54  1  0  0  0  0
M  END
>  <MODEL>
6

>  <REMARK>
 VINA RESULT:      -3.1      2.121      3.303
  Name = 
  15 active torsions:
  status: ('A' for Active; 'I' for Inactive)
    1  A    between atoms: C_1  and  C_21
    2  A    between atoms: C_2  and  C_44
    3  A    between atoms: O_8  and  P_20
    4  A    between atoms: O_8  and  C_43
    5  A    between atoms: C_10  and  C_32
    6  A    between atoms: C_11  and  C_38
    7  A    between atoms: C_16  and  C_17
    8  A    between atoms: C_19  and  C_40
    9  A    between atoms: P_20  and  C_42
   10  A    between atoms: C_21  and  C_42
   11  A    between atoms: C_27  and  C_54
   12  A    between atoms: N_33  and  C_52
   13  A    between atoms: C_35  and  C_43
   14  A    between atoms: C_35  and  C_51
   15  A    between atoms: C_51  and  C_54
                            x       y       z     vdW  Elec       q    Type
                         _______ _______ _______ _____ _____    ______ ____

>  <TORSDO>
F 15

$$$$
=
 OpenBabel11062408553D

 55 61  0  0  1  0  0  0  0  0999 V2000
  162.1810  210.0190  148.2420 C   0  0  0  0  0  3  0  0  0  0  0  0
  161.7790  209.5500  150.9830 C   0  0  0  0  0  0  0  0  0  0  0  0
  161.5030  210.8130  150.4310 C   0  0  0  0  0  3  0  0  0  0  0  0
  162.4590  208.7610  148.7850 C   0  0  0  0  0  3  0  0  0  0  0  0
  161.7090  211.0560  149.0660 C   0  0  0  0  0  0  0  0  0  0  0  0
  162.2600  208.5270  150.1530 C   0  0  0  0  0  3  0  0  0  0  0  0
  161.3940  212.3960  148.5010 C   0  0  2  0  0  3  0  0  0  0  0  0
  157.3040  212.6840  148.1920 C   0  0  0  0  0  2  0  0  0  0  0  0
  157.8120  213.5780  145.9170 C   0  0  2  0  0  3  0  0  0  0  0  0
  160.0540  212.8900  149.0020 C   0  0  2  0  0  3  0  0  0  0  0  0
  158.1290  213.3540  147.3970 C   0  0  0  0  0  0  0  0  0  0  0  0
  161.3350  212.3550  147.0980 O   0  0  0  0  0  0  0  0  0  0  0  0
  159.9490  213.2260  145.4120 N   0  0  2  0  0  0  0  0  0  0  0  0
  158.9380  214.1290  145.2670 O   0  0  0  0  0  0  0  0  0  0  0  0
  159.5290  213.7140  147.8440 C   0  0  2  0  0  3  0  0  0  0  0  0
  160.5710  213.4650  146.7290 C   0  0  1  0  0  3  0  0  0  0  0  0
  160.2940  214.0390  143.0990 C   0  0  0  0  0  2  0  0  0  0  0  0
  162.4110  213.5290  141.8570 C   0  0  2  0  0  3  0  0  0  0  0  0
  161.8050  212.3550  144.0010 C   0  0  0  0  0  2  0  0  0  0  0  0
  161.8700  212.2510  142.4860 C   0  0  1  0  0  3  0  0  0  0  0  0
  160.9060  213.2870  141.9260 C   0  0  1  0  0  3  0  0  0  0  0  0
  160.9490  213.5570  144.3860 C   0  0  2  0  0  3  0  0  0  0  0  0
  163.0140  213.2390  140.4810 C   0  0  2  0  0  3  0  0  0  0  0  0
  162.4640  214.2320  139.4790 C   0  0  0  0  0  1  0  0  0  0  0  0
  162.7870  211.9330  140.0270 O   0  0  0  0  0  1  0  0  0  0  0  0
  159.1600  213.6940  151.2470 N   0  0  0  0  0  2  0  0  0  0  0  0
  161.2070  214.4450  150.3940 O   0  0  0  0  0  0  0  0  0  0  0  0
  159.2770  214.4350  152.4930 C   0  0  0  0  0  1  0  0  0  0  0  0
  160.1880  213.7100  150.2480 C   0  0  0  0  0  0  0  0  0  0  0  0
  155.9140  214.1650  144.2340 C   0  0  0  0  0  2  0  0  0  0  0  0
  156.5720  214.4390  145.5870 C   0  0  0  0  0  3  0  0  0  0  0  0
  155.3290  213.5630  145.4970 C   0  0  0  0  0  2  0  0  0  0  0  0
  161.5530  209.3570  152.4530 C   0  0  0  0  0  2  0  0  0  0  0  0
  161.9600  207.9820  153.0050 C   0  0  0  0  0  2  0  0  0  0  0  0
  160.8430  206.9670  152.7930 C   0  0  0  0  0  2  0  0  0  0  0  0
  161.1870  206.0230  151.6550 C   0  0  0  0  0  2  0  0  0  0  0  0
  160.3850  204.8860  151.7510 O   0  0  0  0  0  0  0  0  0  0  0  0
  162.3400  203.1140  150.8580 O   0  0  0  0  0  1  0  0  0  0  0  0
  160.8460  203.8330  150.5040 P   0  0  1  0  0  0  0  0  0  0  0  0
  159.8270  202.7320  150.2680 O   0  0  0  0  0  0  0  0  0  0  0  0
  160.9680  204.8070  148.9700 C   0  0  0  0  0  2  0  0  0  0  0  0
  160.5090  203.9760  147.7860 C   0  0  0  0  0  2  0  0  0  0  0  0
  161.5550  203.0690  147.1110 C   0  0  2  0  0  0  0  0  0  0  0  0
  161.8020  205.1880  144.5260 C   0  0  0  0  0  2  0  0  0  0  0  0
  163.3990  204.6550  146.4220 C   0  0  0  0  0  0  0  0  0  0  0  0
  161.7250  206.3700  146.6590 O   0  0  0  0  0  1  0  0  0  0  0  0
  162.5620  205.7060  145.7500 C   0  0  2  0  0  3  0  0  0  0  0  0
  161.2300  202.8610  145.6170 C   0  0  2  0  0  3  0  0  0  0  0  0
  161.5760  201.8100  147.7290 O   0  0  0  0  0  1  0  0  0  0  0  0
  160.7800  204.1060  144.8510 C   0  0  1  0  0  3  0  0  0  0  0  0
  164.6140  204.5880  146.1120 O   0  0  0  0  0  0  0  0  0  0  0  0
  160.3210  201.8190  145.4210 O   0  0  0  0  0  1  0  0  0  0  0  0
  162.8610  203.6390  147.2430 O   0  0  0  0  0  0  0  0  0  0  0  0
  159.2930  204.4020  144.6910 C   0  0  0  0  0  2  0  0  0  0  0  0
  158.9780  205.6710  145.1840 O   0  0  0  0  0  1  0  0  0  0  0  0
  1  4  2  0  0  0  0
  1  5  1  0  0  0  0
  2 33  1  0  0  0  0
  3  2  1  0  0  0  0
  4  6  1  0  0  0  0
  5  3  2  0  0  0  0
  6  2  2  0  0  0  0
  7 10  1  0  0  0  0
  7  5  1  1  0  0  0
  9 31  1  1  0  0  0
  9 11  1  0  0  0  0
 10 29  1  1  0  0  0
 11  8  2  0  0  0  0
 12  7  1  0  0  0  0
 13 14  1  6  0  0  0
 13 16  1  0  0  0  0
 14  9  1  0  0  0  0
 15 11  1  6  0  0  0
 15 10  1  0  0  0  0
 16 12  1  1  0  0  0
 16 15  1  0  0  0  0
 18 23  1  6  0  0  0
 18 21  1  0  0  0  0
 18 20  1  0  0  0  0
 19 22  1  0  0  0  0
 20 19  1  1  0  0  0
 21 20  1  0  0  0  0
 21 17  1  1  0  0  0
 22 17  1  6  0  0  0
 22 13  1  0  0  0  0
 23 24  1  6  0  0  0
 25 23  1  0  0  0  0
 26 28  1  0  0  0  0
 29 27  2  0  0  0  0
 29 26  1  0  0  0  0
 30 32  1  0  0  0  0
 30 31  1  0  0  0  0
 32 31  1  0  0  0  0
 33 34  1  0  0  0  0
 35 34  1  0  0  0  0
 36 37  1  0  0  0  0
 36 35  1  0  0  0  0
 39 40  2  6  0  0  0
 39 38  1  0  0  0  0
 39 37  1  0  0  0  0
 41 39  1  0  0  0  0
 42 41  1  0  0  0  0
 43 53  1  0  0  0  0
 43 49  1  1  0  0  0
 43 42  1  0  0  0  0
 44 50  1  0  0  0  0
 44 47  1  0  0  0  0
 45 53  1  0  0  0  0
 47 45  1  0  0  0  0
 47 46  1  1  0  0  0
 48 52  1  1  0  0  0
 48 43  1  0  0  0  0
 50 54  1  1  0  0  0
 50 48  1  0  0  0  0
 51 45  2  0  0  0  0
 54 55  1  0  0  0  0
M  END
>  <MODEL>
7

>  <REMARK>
 VINA RESULT:      -2.8      3.555      9.990
  Name = 
  15 active torsions:
  status: ('A' for Active; 'I' for Inactive)
    1  A    between atoms: C_1  and  C_21
    2  A    between atoms: C_2  and  C_44
    3  A    between atoms: O_8  and  P_20
    4  A    between atoms: O_8  and  C_43
    5  A    between atoms: C_10  and  C_32
    6  A    between atoms: C_11  and  C_38
    7  A    between atoms: C_16  and  C_17
    8  A    between atoms: C_19  and  C_40
    9  A    between atoms: P_20  and  C_42
   10  A    between atoms: C_21  and  C_42
   11  A    between atoms: C_27  and  C_54
   12  A    between atoms: N_33  and  C_52
   13  A    between atoms: C_35  and  C_43
   14  A    between atoms: C_35  and  C_51
   15  A    between atoms: C_51  and  C_54
                            x       y       z     vdW  Elec       q    Type
                         _______ _______ _______ _____ _____    ______ ____

>  <TORSDO>
F 15

$$$$
=
 OpenBabel11062408553D

 55 61  0  0  1  0  0  0  0  0999 V2000
  160.5450  208.1700  154.0390 C   0  0  0  0  0  3  0  0  0  0  0  0
  161.9620  207.3140  151.7700 C   0  0  0  0  0  0  0  0  0  0  0  0
  161.8290  208.6860  152.0470 C   0  0  0  0  0  3  0  0  0  0  0  0
  160.6720  206.8040  153.7670 C   0  0  0  0  0  3  0  0  0  0  0  0
  161.1160  209.1190  153.1740 C   0  0  0  0  0  0  0  0  0  0  0  0
  161.3780  206.3780  152.6340 C   0  0  0  0  0  3  0  0  0  0  0  0
  161.0020  210.5760  153.4560 C   0  0  2  0  0  3  0  0  0  0  0  0
  157.2930  211.2330  155.1080 C   0  0  0  0  0  2  0  0  0  0  0  0
  157.2130  213.1340  153.4910 C   0  0  2  0  0  3  0  0  0  0  0  0
  160.1010  210.8240  154.6470 C   0  0  2  0  0  3  0  0  0  0  0  0
  157.9450  212.1640  154.4200 C   0  0  0  0  0  0  0  0  0  0  0  0
  160.4560  211.2640  152.3600 O   0  0  0  0  0  0  0  0  0  0  0  0
  158.8670  212.9600  152.0150 N   0  0  2  0  0  0  0  0  0  0  0  0
  158.1510  213.8700  152.7360 O   0  0  0  0  0  0  0  0  0  0  0  0
  159.4540  212.1570  154.3250 C   0  0  2  0  0  3  0  0  0  0  0  0
  159.9420  212.4510  152.8880 C   0  0  1  0  0  3  0  0  0  0  0  0
  158.5230  214.0040  149.7960 C   0  0  0  0  0  2  0  0  0  0  0  0
  160.4520  214.4010  148.2460 C   0  0  2  0  0  3  0  0  0  0  0  0
  160.6570  212.9380  150.2860 C   0  0  0  0  0  2  0  0  0  0  0  0
  160.5100  212.9720  148.7740 C   0  0  1  0  0  3  0  0  0  0  0  0
  159.1630  213.6160  148.4720 C   0  0  1  0  0  3  0  0  0  0  0  0
  159.5040  213.7090  150.9220 C   0  0  2  0  0  3  0  0  0  0  0  0
  160.8880  214.4520  146.7800 C   0  0  2  0  0  3  0  0  0  0  0  0
  159.7020  214.1250  145.8980 C   0  0  0  0  0  1  0  0  0  0  0  0
  161.9550  213.5950  146.4780 O   0  0  0  0  0  1  0  0  0  0  0  0
  162.3050  210.8810  155.9230 N   0  0  0  0  0  2  0  0  0  0  0  0
  160.2390  210.8880  157.0260 O   0  0  0  0  0  0  0  0  0  0  0  0
  163.0860  210.9850  157.1450 C   0  0  0  0  0  1  0  0  0  0  0  0
  160.8710  210.8790  155.9300 C   0  0  0  0  0  0  0  0  0  0  0  0
  154.7490  213.9330  153.7590 C   0  0  0  0  0  2  0  0  0  0  0  0
  156.2160  214.1170  154.1470 C   0  0  0  0  0  3  0  0  0  0  0  0
  155.2630  213.3670  155.0690 C   0  0  0  0  0  2  0  0  0  0  0  0
  162.7230  206.9130  150.5410 C   0  0  0  0  0  2  0  0  0  0  0  0
  162.6200  207.8870  149.3570 C   0  0  0  0  0  2  0  0  0  0  0  0
  161.3110  207.6760  148.6030 C   0  0  0  0  0  2  0  0  0  0  0  0
  161.5790  207.1740  147.1960 C   0  0  0  0  0  2  0  0  0  0  0  0
  160.9460  205.9430  147.0260 O   0  0  0  0  0  0  0  0  0  0  0  0
  161.5040  204.4330  144.7530 O   0  0  0  0  0  0  0  0  0  0  0  0
  162.0570  204.8980  146.2870 P   0  0  1  0  0  0  0  0  0  0  0  0
  163.4320  205.5260  146.1330 O   0  0  0  0  0  1  0  0  0  0  0  0
  162.2390  203.4340  147.3550 C   0  0  0  0  0  2  0  0  0  0  0  0
  161.9540  203.8030  148.8000 C   0  0  0  0  0  2  0  0  0  0  0  0
  160.5020  203.6540  149.2940 C   0  0  2  0  0  0  0  0  0  0  0  0
  161.2680  200.7810  150.8400 C   0  0  0  0  0  2  0  0  0  0  0  0
  160.7370  203.0880  151.7470 C   0  0  0  0  0  0  0  0  0  0  0  0
  162.9930  202.4730  151.1720 O   0  0  0  0  0  1  0  0  0  0  0  0
  161.7590  201.9930  151.6350 C   0  0  2  0  0  3  0  0  0  0  0  0
  159.9780  202.2220  149.0550 C   0  0  2  0  0  3  0  0  0  0  0  0
  159.6620  204.5440  148.6070 O   0  0  0  0  0  1  0  0  0  0  0  0
  160.9520  201.0900  149.3820 C   0  0  1  0  0  3  0  0  0  0  0  0
  160.0240  203.1200  152.7800 O   0  0  0  0  0  0  0  0  0  0  0  0
  159.4670  202.0620  147.7650 O   0  0  0  0  0  1  0  0  0  0  0  0
  160.4210  203.9680  150.6880 O   0  0  0  0  0  0  0  0  0  0  0  0
  161.8210  200.4940  148.2800 C   0  0  0  0  0  2  0  0  0  0  0  0
  161.0350  199.9210  147.2770 O   0  0  0  0  0  1  0  0  0  0  0  0
  2  3  2  0  0  0  0
  2  6  1  0  0  0  0
  3  5  1  0  0  0  0
  4  1  1  0  0  0  0
  5  1  2  0  0  0  0
  6  4  2  0  0  0  0
  7  5  1  6  0  0  0
  7 10  1  0  0  0  0
  9 31  1  1  0  0  0
  9 11  1  0  0  0  0
 10 29  1  1  0  0  0
 11  8  2  0  0  0  0
 12  7  1  0  0  0  0
 13 14  1  1  0  0  0
 13 16  1  0  0  0  0
 14  9  1  0  0  0  0
 15 11  1  6  0  0  0
 15 10  1  0  0  0  0
 16 12  1  6  0  0  0
 16 15  1  0  0  0  0
 18 23  1  6  0  0  0
 18 21  1  0  0  0  0
 18 20  1  0  0  0  0
 19 22  1  0  0  0  0
 20 19  1  1  0  0  0
 21 20  1  0  0  0  0
 21 17  1  1  0  0  0
 22 17  1  6  0  0  0
 22 13  1  0  0  0  0
 23 24  1  6  0  0  0
 25 23  1  0  0  0  0
 26 29  1  0  0  0  0
 26 28  1  0  0  0  0
 29 27  2  0  0  0  0
 30 31  1  0  0  0  0
 30 32  1  0  0  0  0
 31 32  1  0  0  0  0
 33  2  1  0  0  0  0
 34 33  1  0  0  0  0
 35 34  1  0  0  0  0
 36 35  1  0  0  0  0
 37 36  1  0  0  0  0
 39 38  2  6  0  0  0
 39 37  1  0  0  0  0
 39 41  1  0  0  0  0
 40 39  1  0  0  0  0
 41 42  1  0  0  0  0
 42 43  1  0  0  0  0
 43 49  1  6  0  0  0
 43 53  1  0  0  0  0
 44 47  1  0  0  0  0
 45 51  2  0  0  0  0
 47 46  1  6  0  0  0
 47 45  1  0  0  0  0
 48 52  1  6  0  0  0
 48 43  1  0  0  0  0
 48 50  1  0  0  0  0
 50 54  1  6  0  0  0
 50 44  1  0  0  0  0
 53 45  1  0  0  0  0
 55 54  1  0  0  0  0
M  END
>  <MODEL>
8

>  <REMARK>
 VINA RESULT:      -2.6      4.691      9.987
  Name = 
  15 active torsions:
  status: ('A' for Active; 'I' for Inactive)
    1  A    between atoms: C_1  and  C_21
    2  A    between atoms: C_2  and  C_44
    3  A    between atoms: O_8  and  P_20
    4  A    between atoms: O_8  and  C_43
    5  A    between atoms: C_10  and  C_32
    6  A    between atoms: C_11  and  C_38
    7  A    between atoms: C_16  and  C_17
    8  A    between atoms: C_19  and  C_40
    9  A    between atoms: P_20  and  C_42
   10  A    between atoms: C_21  and  C_42
   11  A    between atoms: C_27  and  C_54
   12  A    between atoms: N_33  and  C_52
   13  A    between atoms: C_35  and  C_43
   14  A    between atoms: C_35  and  C_51
   15  A    between atoms: C_51  and  C_54
                            x       y       z     vdW  Elec       q    Type
                         _______ _______ _______ _____ _____    ______ ____

>  <TORSDO>
F 15

$$$$
=
 OpenBabel11062408553D

 55 61  0  0  1  0  0  0  0  0999 V2000
  160.9850  207.2180  151.1570 C   0  0  0  0  0  3  0  0  0  0  0  0
  161.6960  206.4410  148.5520 C   0  0  0  0  0  0  0  0  0  0  0  0
  161.9530  207.7500  148.9980 C   0  0  0  0  0  3  0  0  0  0  0  0
  160.7250  205.9160  150.7190 C   0  0  0  0  0  3  0  0  0  0  0  0
  161.5930  208.1460  150.2930 C   0  0  0  0  0  0  0  0  0  0  0  0
  161.0790  205.5290  149.4190 C   0  0  0  0  0  3  0  0  0  0  0  0
  161.8900  209.5320  150.7480 C   0  0  2  0  0  3  0  0  0  0  0  0
  158.4870  211.0110  152.5200 C   0  0  0  0  0  2  0  0  0  0  0  0
  158.9780  213.0340  151.1420 C   0  0  2  0  0  3  0  0  0  0  0  0
  161.0740  209.8820  151.9730 C   0  0  2  0  0  3  0  0  0  0  0  0
  159.3890  211.7940  151.9390 C   0  0  0  0  0  0  0  0  0  0  0  0
  161.5830  210.4700  149.7490 O   0  0  0  0  0  0  0  0  0  0  0  0
  160.5450  212.5750  149.6320 N   0  0  2  0  0  0  0  0  0  0  0  0
  160.1020  213.5590  150.4650 O   0  0  0  0  0  0  0  0  0  0  0  0
  160.8360  211.3710  151.8210 C   0  0  2  0  0  3  0  0  0  0  0  0
  161.4150  211.6830  150.4220 C   0  0  1  0  0  3  0  0  0  0  0  0
  160.5880  214.2090  147.7720 C   0  0  0  0  0  2  0  0  0  0  0  0
  162.3880  214.1320  146.0300 C   0  0  2  0  0  3  0  0  0  0  0  0
  162.0190  212.2430  147.6540 C   0  0  0  0  0  2  0  0  0  0  0  0
  161.8150  212.7340  146.2310 C   0  0  1  0  0  3  0  0  0  0  0  0
  160.8990  213.9480  146.3060 C   0  0  1  0  0  3  0  0  0  0  0  0
  161.3880  213.2360  148.6260 C   0  0  2  0  0  3  0  0  0  0  0  0
  162.7120  214.3750  144.5550 C   0  0  2  0  0  3  0  0  0  0  0  0
  161.6440  213.7260  143.7000 C   0  0  0  0  0  1  0  0  0  0  0  0
  163.9760  213.9080  144.1690 O   0  0  0  0  0  1  0  0  0  0  0  0
  161.1160  208.9580  154.3460 N   0  0  0  0  0  2  0  0  0  0  0  0
  163.0250  209.8710  153.3430 O   0  0  0  0  0  0  0  0  0  0  0  0
  161.8000  208.5870  155.5750 C   0  0  0  0  0  1  0  0  0  0  0  0
  161.8020  209.5650  153.2420 C   0  0  0  0  0  0  0  0  0  0  0  0
  156.8270  214.4400  151.5610 C   0  0  0  0  0  2  0  0  0  0  0  0
  158.2880  214.1750  151.9240 C   0  0  0  0  0  3  0  0  0  0  0  0
  157.1640  213.6180  152.7900 C   0  0  0  0  0  2  0  0  0  0  0  0
  162.0900  206.0830  147.1500 C   0  0  0  0  0  2  0  0  0  0  0  0
  161.0820  206.4840  146.0620 C   0  0  0  0  0  2  0  0  0  0  0  0
  161.2620  205.6170  144.8200 C   0  0  0  0  0  2  0  0  0  0  0  0
  161.6980  206.4630  143.6370 C   0  0  0  0  0  2  0  0  0  0  0  0
  161.3580  205.8010  142.4570 O   0  0  0  0  0  0  0  0  0  0  0  0
  163.5950  207.2110  141.5810 O   0  0  0  0  0  1  0  0  0  0  0  0
  162.0400  206.6710  141.1720 P   0  0  1  0  0  0  0  0  0  0  0  0
  162.1360  205.8480  139.8990 O   0  0  0  0  0  0  0  0  0  0  0  0
  160.9560  208.0940  140.8260 C   0  0  0  0  0  2  0  0  0  0  0  0
  161.7270  209.1680  140.0810 C   0  0  0  0  0  2  0  0  0  0  0  0
  161.1150  209.6960  138.7690 C   0  0  2  0  0  0  0  0  0  0  0  0
  161.4190  212.8580  139.8360 C   0  0  0  0  0  2  0  0  0  0  0  0
  162.6740  211.5560  138.0610 C   0  0  0  0  0  0  0  0  0  0  0  0
  163.4010  211.5340  140.3560 O   0  0  0  0  0  1  0  0  0  0  0  0
  162.7620  212.2940  139.3650 C   0  0  2  0  0  3  0  0  0  0  0  0
  160.0350  210.7620  139.0490 C   0  0  2  0  0  3  0  0  0  0  0  0
  160.5140  208.6460  138.0580 O   0  0  0  0  0  1  0  0  0  0  0  0
  160.3730  211.7890  140.1300 C   0  0  1  0  0  3  0  0  0  0  0  0
  162.9500  212.1870  137.0110 O   0  0  0  0  0  0  0  0  0  0  0  0
  158.7880  210.1870  139.3030 O   0  0  0  0  0  1  0  0  0  0  0  0
  162.1370  210.2540  137.9380 O   0  0  0  0  0  0  0  0  0  0  0  0
  159.9090  211.5620  141.5640 C   0  0  0  0  0  2  0  0  0  0  0  0
  159.0540  212.5850  141.9820 O   0  0  0  0  0  1  0  0  0  0  0  0
  2  3  2  0  0  0  0
  2  6  1  0  0  0  0
  3  5  1  0  0  0  0
  4  1  1  0  0  0  0
  5  1  2  0  0  0  0
  6  4  2  0  0  0  0
  7  5  1  6  0  0  0
  7 10  1  0  0  0  0
  9 31  1  1  0  0  0
  9 11  1  0  0  0  0
 10 29  1  1  0  0  0
 11  8  2  0  0  0  0
 12  7  1  0  0  0  0
 13 16  1  0  0  0  0
 13 14  1  1  0  0  0
 14  9  1  0  0  0  0
 15 11  1  6  0  0  0
 15 10  1  0  0  0  0
 16 12  1  6  0  0  0
 16 15  1  0  0  0  0
 17 22  1  0  0  0  0
 18 23  1  6  0  0  0
 18 20  1  0  0  0  0
 18 21  1  0  0  0  0
 20 21  1  0  0  0  0
 20 19  1  1  0  0  0
 21 17  1  1  0  0  0
 22 19  1  6  0  0  0
 22 13  1  0  0  0  0
 23 24  1  6  0  0  0
 25 23  1  0  0  0  0
 26 28  1  0  0  0  0
 29 27  2  0  0  0  0
 29 26  1  0  0  0  0
 30 31  1  0  0  0  0
 30 32  1  0  0  0  0
 31 32  1  0  0  0  0
 33  2  1  0  0  0  0
 34 33  1  0  0  0  0
 35 34  1  0  0  0  0
 36 35  1  0  0  0  0
 37 36  1  0  0  0  0
 39 40  2  6  0  0  0
 39 38  1  0  0  0  0
 39 37  1  0  0  0  0
 41 39  1  0  0  0  0
 42 41  1  0  0  0  0
 43 49  1  6  0  0  0
 43 48  1  0  0  0  0
 43 42  1  0  0  0  0
 44 50  1  0  0  0  0
 45 47  1  0  0  0  0
 47 44  1  0  0  0  0
 47 46  1  1  0  0  0
 48 52  1  1  0  0  0
 48 50  1  0  0  0  0
 50 54  1  1  0  0  0
 51 45  2  0  0  0  0
 53 45  1  0  0  0  0
 53 43  1  0  0  0  0
 54 55  1  0  0  0  0
M  END
>  <MODEL>
9

>  <REMARK>
 VINA RESULT:      -2.3      2.483      6.716
  Name = 
  15 active torsions:
  status: ('A' for Active; 'I' for Inactive)
    1  A    between atoms: C_1  and  C_21
    2  A    between atoms: C_2  and  C_44
    3  A    between atoms: O_8  and  P_20
    4  A    between atoms: O_8  and  C_43
    5  A    between atoms: C_10  and  C_32
    6  A    between atoms: C_11  and  C_38
    7  A    between atoms: C_16  and  C_17
    8  A    between atoms: C_19  and  C_40
    9  A    between atoms: P_20  and  C_42
   10  A    between atoms: C_21  and  C_42
   11  A    between atoms: C_27  and  C_54
   12  A    between atoms: N_33  and  C_52
   13  A    between atoms: C_35  and  C_43
   14  A    between atoms: C_35  and  C_51
   15  A    between atoms: C_51  and  C_54
                            x       y       z     vdW  Elec       q    Type
                         _______ _______ _______ _____ _____    ______ ____

>  <TORSDO>
F 15

$$$$
