=
 OpenBabel11052422523D

 28 31  0  0  1  0  0  0  0  0999 V2000
  161.2840  205.9960  151.2580 C   0  0  1  0  0  3  0  0  0  0  0  0
  161.3330  208.3650  148.5250 C   0  0  0  0  0  2  0  0  0  0  0  0
  161.8680  206.5960  150.0420 N   0  0  0  0  0  0  0  0  0  0  0  0
  162.2220  208.9380  149.5960 C   0  0  0  0  0  2  0  0  0  0  0  0
  160.8480  207.0610  149.1060 C   0  0  0  0  0  2  0  0  0  0  0  0
  162.7110  207.7400  150.3810 C   0  0  0  0  0  2  0  0  0  0  0  0
  160.7720  203.9030  152.4300 O   0  0  0  0  0  1  0  0  0  0  0  0
  160.8110  204.5270  151.1830 C   0  0  2  0  0  3  0  0  0  0  0  0
  161.6350  203.7080  150.2000 C   0  0  0  0  0  2  0  0  0  0  0  0
  160.7660  203.1980  149.0570 C   0  0  2  0  0  3  0  0  0  0  0  0
  161.1690  200.7430  147.3430 C   0  0  0  0  0  2  0  0  0  0  0  0
  160.1730  201.8210  149.4020 C   0  0  0  0  0  2  0  0  0  0  0  0
  161.4860  204.5810  147.1050 C   0  0  0  0  0  1  0  0  0  0  0  0
  161.5660  203.2100  147.7450 C   0  0  2  0  0  3  0  0  0  0  0  0
  161.0490  202.1600  146.7650 C   0  0  0  0  0  2  0  0  0  0  0  0
  161.0490  200.6890  148.8710 C   0  0  0  0  0  2  0  0  0  0  0  0
  162.1450  206.2440  152.4880 C   0  0  0  0  0  2  0  0  0  0  0  0
  161.2680  206.4520  153.7150 C   0  0  0  0  0  2  0  0  0  0  0  0
  160.3800  208.5320  152.7350 C   0  0  0  0  0  3  0  0  0  0  0  0
  160.9450  208.6650  155.1190 C   0  0  2  0  0  0  0  0  0  0  0  0
  160.7000  210.7320  153.8480 C   0  0  0  0  0  0  0  0  0  0  0  0
  160.8170  207.8830  153.8270 C   0  0  0  0  0  0  0  0  0  0  0  0
  159.3970  206.9700  156.2210 C   0  0  0  0  0  1  0  0  0  0  0  0
  161.1670  210.0640  154.9820 O   0  0  0  0  0  0  0  0  0  0  0  0
  161.6460  208.0280  156.2950 C   0  0  0  0  0  2  0  0  0  0  0  0
  160.8770  211.9720  153.7310 O   0  0  0  0  0  0  0  0  0  0  0  0
  159.9490  209.9790  152.7860 C   0  0  0  0  0  2  0  0  0  0  0  0
  160.1410  208.2880  156.3560 C   0  0  1  0  0  3  0  0  0  0  0  0
  1 17  1  1  0  0  0
  2  5  1  0  0  0  0
  2  4  1  0  0  0  0
  3  6  1  0  0  0  0
  3  1  1  0  0  0  0
  4  6  1  0  0  0  0
  5  3  1  0  0  0  0
  8  1  1  0  0  0  0
  8  7  1  1  0  0  0
  9  8  1  0  0  0  0
 10 12  1  0  0  0  0
 10  9  1  1  0  0  0
 11 16  1  0  0  0  0
 14 13  1  6  0  0  0
 14 10  1  0  0  0  0
 15 11  1  0  0  0  0
 15 14  1  0  0  0  0
 16 12  1  0  0  0  0
 17 18  1  0  0  0  0
 18 22  1  0  0  0  0
 19 27  1  0  0  0  0
 19 22  2  0  0  0  0
 20 25  1  1  0  0  0
 20 28  1  0  0  0  0
 21 24  1  0  0  0  0
 22 20  1  0  0  0  0
 24 20  1  0  0  0  0
 25 28  1  0  0  0  0
 26 21  2  0  0  0  0
 27 21  1  0  0  0  0
 28 23  1  6  0  0  0
M  END
>  <MODEL>
1

>  <REMARK>
 VINA RESULT:      -8.2      0.000      0.000
  Name = 
  7 active torsions:
  status: ('A' for Active; 'I' for Inactive)
    1  A    between atoms: C_2  and  C_3
    2  A    between atoms: C_2  and  C_26
    3  A    between atoms: C_10  and  C_13
    4  A    between atoms: C_10  and  C_17
    5  A    between atoms: N_16  and  C_27
    6  A    between atoms: C_17  and  C_27
    7  A    between atoms: C_26  and  C_27
                            x       y       z     vdW  Elec       q    Type
                         _______ _______ _______ _____ _____    ______ ____

>  <TORSDO>
F 7

$$$$
=
 OpenBabel11052422523D

 28 31  0  0  1  0  0  0  0  0999 V2000
  162.1030  209.2760  149.1510 C   0  0  1  0  0  3  0  0  0  0  0  0
  161.6920  212.8470  148.7380 C   0  0  0  0  0  2  0  0  0  0  0  0
  161.8380  210.4920  148.3540 N   0  0  0  0  0  0  0  0  0  0  0  0
  163.1120  212.5370  148.3460 C   0  0  0  0  0  2  0  0  0  0  0  0
  161.1120  211.5060  149.1140 C   0  0  0  0  0  2  0  0  0  0  0  0
  163.0870  211.0920  147.8940 C   0  0  0  0  0  2  0  0  0  0  0  0
  162.9620  210.3090  151.2030 O   0  0  0  0  0  1  0  0  0  0  0  0
  162.0420  209.3940  150.6900 C   0  0  2  0  0  3  0  0  0  0  0  0
  162.1930  208.0430  151.3760 C   0  0  0  0  0  2  0  0  0  0  0  0
  161.0100  207.7690  152.2970 C   0  0  2  0  0  3  0  0  0  0  0  0
  160.7550  208.3590  155.2490 C   0  0  0  0  0  2  0  0  0  0  0  0
  160.4390  209.0860  152.8490 C   0  0  0  0  0  2  0  0  0  0  0  0
  161.2650  205.3540  152.8830 C   0  0  0  0  0  1  0  0  0  0  0  0
  161.4200  206.7730  153.3930 C   0  0  2  0  0  3  0  0  0  0  0  0
  160.5820  206.9540  154.6560 C   0  0  0  0  0  2  0  0  0  0  0  0
  161.0540  209.4380  154.2010 C   0  0  0  0  0  2  0  0  0  0  0  0
  161.3060  208.0800  148.6490 C   0  0  0  0  0  2  0  0  0  0  0  0
  162.2350  207.0580  148.0070 C   0  0  0  0  0  2  0  0  0  0  0  0
  161.1060  205.2480  149.2420 C   0  0  0  0  0  3  0  0  0  0  0  0
  161.7910  204.6770  146.9570 C   0  0  2  0  0  0  0  0  0  0  0  0
  161.2860  202.8750  148.5220 C   0  0  0  0  0  0  0  0  0  0  0  0
  161.6620  205.6690  148.0950 C   0  0  0  0  0  0  0  0  0  0  0  0
  160.4690  206.2860  145.4910 C   0  0  0  0  0  1  0  0  0  0  0  0
  161.8760  203.3070  147.3300 O   0  0  0  0  0  0  0  0  0  0  0  0
  162.6120  205.0510  145.7470 C   0  0  0  0  0  2  0  0  0  0  0  0
  161.3420  201.6620  148.8470 O   0  0  0  0  0  0  0  0  0  0  0  0
  160.5480  203.8530  149.3930 C   0  0  0  0  0  2  0  0  0  0  0  0
  161.0960  204.9080  145.6210 C   0  0  1  0  0  3  0  0  0  0  0  0
  1 17  1  6  0  0  0
  1  8  1  0  0  0  0
  2  5  1  0  0  0  0
  3  5  1  0  0  0  0
  3  1  1  0  0  0  0
  4  2  1  0  0  0  0
  6  4  1  0  0  0  0
  6  3  1  0  0  0  0
  8  7  1  1  0  0  0
  8  9  1  0  0  0  0
 10  9  1  1  0  0  0
 10 12  1  0  0  0  0
 10 14  1  0  0  0  0
 12 16  1  0  0  0  0
 14 13  1  6  0  0  0
 14 15  1  0  0  0  0
 15 11  1  0  0  0  0
 16 11  1  0  0  0  0
 18 22  1  0  0  0  0
 18 17  1  0  0  0  0
 19 27  1  0  0  0  0
 20 25  1  6  0  0  0
 20 24  1  0  0  0  0
 20 22  1  0  0  0  0
 21 26  2  0  0  0  0
 21 27  1  0  0  0  0
 22 19  2  0  0  0  0
 24 21  1  0  0  0  0
 28 23  1  1  0  0  0
 28 25  1  0  0  0  0
 28 20  1  0  0  0  0
M  END
>  <MODEL>
2

>  <REMARK>
 VINA RESULT:      -8.1      2.369      7.616
  Name = 
  7 active torsions:
  status: ('A' for Active; 'I' for Inactive)
    1  A    between atoms: C_2  and  C_3
    2  A    between atoms: C_2  and  C_26
    3  A    between atoms: C_10  and  C_13
    4  A    between atoms: C_10  and  C_17
    5  A    between atoms: N_16  and  C_27
    6  A    between atoms: C_17  and  C_27
    7  A    between atoms: C_26  and  C_27
                            x       y       z     vdW  Elec       q    Type
                         _______ _______ _______ _____ _____    ______ ____

>  <TORSDO>
F 7

$$$$
=
 OpenBabel11052422523D

 28 31  0  0  1  0  0  0  0  0999 V2000
  161.5250  206.6850  148.6280 C   0  0  1  0  0  3  0  0  0  0  0  0
  162.0820  205.8180  145.1600 C   0  0  0  0  0  2  0  0  0  0  0  0
  161.6160  206.9970  147.1860 N   0  0  0  0  0  0  0  0  0  0  0  0
  160.5910  205.7970  145.3650 C   0  0  0  0  0  2  0  0  0  0  0  0
  162.6360  206.2000  146.5090 C   0  0  0  0  0  2  0  0  0  0  0  0
  160.3420  206.7450  146.5190 C   0  0  0  0  0  2  0  0  0  0  0  0
  162.1600  209.0010  149.1250 O   0  0  0  0  0  1  0  0  0  0  0  0
  161.5200  207.8670  149.6230 C   0  0  2  0  0  3  0  0  0  0  0  0
  162.0970  207.4780  150.9770 C   0  0  0  0  0  2  0  0  0  0  0  0
  161.0090  207.4590  152.0440 C   0  0  2  0  0  3  0  0  0  0  0  0
  161.0980  208.6100  154.8360 C   0  0  0  0  0  2  0  0  0  0  0  0
  160.5590  208.8910  152.3820 C   0  0  0  0  0  2  0  0  0  0  0  0
  161.2170  205.1870  153.0600 C   0  0  0  0  0  1  0  0  0  0  0  0
  161.4890  206.6630  153.2670 C   0  0  2  0  0  3  0  0  0  0  0  0
  160.8000  207.1320  154.5460 C   0  0  0  0  0  2  0  0  0  0  0  0
  161.3300  209.4510  153.5740 C   0  0  0  0  0  2  0  0  0  0  0  0
  160.4090  205.6950  148.9280 C   0  0  0  0  0  2  0  0  0  0  0  0
  160.9740  204.4510  149.6010 C   0  0  0  0  0  2  0  0  0  0  0  0
  161.7510  203.5100  147.4590 C   0  0  0  0  0  3  0  0  0  0  0  0
  160.4430  201.9740  148.8540 C   0  0  2  0  0  0  0  0  0  0  0  0
  160.7160  201.4710  146.4830 C   0  0  0  0  0  0  0  0  0  0  0  0
  161.1090  203.3160  148.6220 C   0  0  0  0  0  0  0  0  0  0  0  0
  161.8290  201.7260  150.9750 C   0  0  0  0  0  1  0  0  0  0  0  0
  160.0350  201.2700  147.6880 O   0  0  0  0  0  0  0  0  0  0  0  0
  159.5260  201.8070  150.0420 C   0  0  0  0  0  2  0  0  0  0  0  0
  160.3720  200.8370  145.4540 O   0  0  0  0  0  0  0  0  0  0  0  0
  161.8840  202.4140  146.4290 C   0  0  0  0  0  2  0  0  0  0  0  0
  160.8630  201.0690  150.0040 C   0  0  1  0  0  3  0  0  0  0  0  0
  1 17  1  6  0  0  0
  1  8  1  0  0  0  0
  2  4  1  0  0  0  0
  2  5  1  0  0  0  0
  3  1  1  0  0  0  0
  4  6  1  0  0  0  0
  5  3  1  0  0  0  0
  6  3  1  0  0  0  0
  8  7  1  6  0  0  0
  8  9  1  0  0  0  0
 10  9  1  6  0  0  0
 10 12  1  0  0  0  0
 10 14  1  0  0  0  0
 12 16  1  0  0  0  0
 14 13  1  6  0  0  0
 14 15  1  0  0  0  0
 15 11  1  0  0  0  0
 16 11  1  0  0  0  0
 17 18  1  0  0  0  0
 19 22  2  0  0  0  0
 20 28  1  0  0  0  0
 20 25  1  1  0  0  0
 21 24  1  0  0  0  0
 22 20  1  0  0  0  0
 22 18  1  0  0  0  0
 24 20  1  0  0  0  0
 26 21  2  0  0  0  0
 27 21  1  0  0  0  0
 27 19  1  0  0  0  0
 28 25  1  0  0  0  0
 28 23  1  1  0  0  0
M  END
>  <MODEL>
3

>  <REMARK>
 VINA RESULT:      -8.1      2.489      7.695
  Name = 
  7 active torsions:
  status: ('A' for Active; 'I' for Inactive)
    1  A    between atoms: C_2  and  C_3
    2  A    between atoms: C_2  and  C_26
    3  A    between atoms: C_10  and  C_13
    4  A    between atoms: C_10  and  C_17
    5  A    between atoms: N_16  and  C_27
    6  A    between atoms: C_17  and  C_27
    7  A    between atoms: C_26  and  C_27
                            x       y       z     vdW  Elec       q    Type
                         _______ _______ _______ _____ _____    ______ ____

>  <TORSDO>
F 7

$$$$
=
 OpenBabel11052422523D

 28 31  0  0  1  0  0  0  0  0999 V2000
  161.5410  207.9740  150.8330 C   0  0  1  0  0  3  0  0  0  0  0  0
  161.2040  205.2800  153.2240 C   0  0  0  0  0  2  0  0  0  0  0  0
  161.9360  207.2270  152.0450 N   0  0  0  0  0  0  0  0  0  0  0  0
  162.2680  204.8490  152.2500 C   0  0  0  0  0  2  0  0  0  0  0  0
  160.7880  206.6460  152.7370 C   0  0  0  0  0  2  0  0  0  0  0  0
  162.8480  206.1380  151.7090 C   0  0  0  0  0  2  0  0  0  0  0  0
  162.2820  210.1370  149.9450 O   0  0  0  0  0  1  0  0  0  0  0  0
  161.4970  209.5160  150.9170 C   0  0  2  0  0  3  0  0  0  0  0  0
  161.8630  210.0260  152.3040 C   0  0  0  0  0  2  0  0  0  0  0  0
  160.6230  210.1300  153.1860 C   0  0  2  0  0  3  0  0  0  0  0  0
  159.5680  212.5470  154.6590 C   0  0  0  0  0  2  0  0  0  0  0  0
  159.6100  211.1140  152.5770 C   0  0  0  0  0  2  0  0  0  0  0  0
  161.3850  209.2220  155.3840 C   0  0  0  0  0  1  0  0  0  0  0  0
  161.0330  210.4840  154.6240 C   0  0  2  0  0  3  0  0  0  0  0  0
  159.9180  211.2260  155.3570 C   0  0  0  0  0  2  0  0  0  0  0  0
  159.7890  212.5200  153.1420 C   0  0  0  0  0  2  0  0  0  0  0  0
  162.2980  207.5020  149.6000 C   0  0  0  0  0  2  0  0  0  0  0  0
  161.3240  207.1610  148.4800 C   0  0  0  0  0  2  0  0  0  0  0  0
  160.4910  205.0210  149.3760 C   0  0  0  0  0  3  0  0  0  0  0  0
  161.6670  204.8610  147.2300 C   0  0  2  0  0  0  0  0  0  0  0  0
  161.3720  202.8420  148.5660 C   0  0  0  0  0  0  0  0  0  0  0  0
  161.1080  205.6750  148.3790 C   0  0  0  0  0  0  0  0  0  0  0  0
  160.2510  206.2560  145.6380 C   0  0  0  0  0  1  0  0  0  0  0  0
  162.0270  203.5180  147.5330 O   0  0  0  0  0  0  0  0  0  0  0  0
  162.5600  205.5380  146.2180 C   0  0  0  0  0  2  0  0  0  0  0  0
  161.6730  201.6490  148.8260 O   0  0  0  0  0  0  0  0  0  0  0  0
  160.2800  203.5260  149.3390 C   0  0  0  0  0  2  0  0  0  0  0  0
  161.1700  205.0570  145.8030 C   0  0  1  0  0  3  0  0  0  0  0  0
  1 17  1  6  0  0  0
  1  8  1  0  0  0  0
  1  3  1  0  0  0  0
  3  5  1  0  0  0  0
  4  2  1  0  0  0  0
  5  2  1  0  0  0  0
  6  3  1  0  0  0  0
  6  4  1  0  0  0  0
  8  7  1  6  0  0  0
  8  9  1  0  0  0  0
 10  9  1  6  0  0  0
 10 14  1  0  0  0  0
 11 15  1  0  0  0  0
 12 16  1  0  0  0  0
 12 10  1  0  0  0  0
 14 15  1  0  0  0  0
 14 13  1  1  0  0  0
 16 11  1  0  0  0  0
 18 17  1  0  0  0  0
 20 25  1  6  0  0  0
 20 24  1  0  0  0  0
 20 22  1  0  0  0  0
 21 26  2  0  0  0  0
 21 27  1  0  0  0  0
 22 18  1  0  0  0  0
 22 19  2  0  0  0  0
 24 21  1  0  0  0  0
 27 19  1  0  0  0  0
 28 23  1  1  0  0  0
 28 25  1  0  0  0  0
 28 20  1  0  0  0  0
M  END
>  <MODEL>
4

>  <REMARK>
 VINA RESULT:      -7.7      2.133      8.359
  Name = 
  7 active torsions:
  status: ('A' for Active; 'I' for Inactive)
    1  A    between atoms: C_2  and  C_3
    2  A    between atoms: C_2  and  C_26
    3  A    between atoms: C_10  and  C_13
    4  A    between atoms: C_10  and  C_17
    5  A    between atoms: N_16  and  C_27
    6  A    between atoms: C_17  and  C_27
    7  A    between atoms: C_26  and  C_27
                            x       y       z     vdW  Elec       q    Type
                         _______ _______ _______ _____ _____    ______ ____

>  <TORSDO>
F 7

$$$$
=
 OpenBabel11052422523D

 28 31  0  0  1  0  0  0  0  0999 V2000
  161.2830  206.8260  147.6460 C   0  0  1  0  0  3  0  0  0  0  0  0
  162.3080  204.7210  144.8880 C   0  0  0  0  0  2  0  0  0  0  0  0
  161.6700  206.5860  146.2410 N   0  0  0  0  0  0  0  0  0  0  0  0
  160.8170  204.8860  144.7610 C   0  0  0  0  0  2  0  0  0  0  0  0
  162.6660  205.5260  146.1120 C   0  0  0  0  0  2  0  0  0  0  0  0
  160.5100  206.2030  145.4410 C   0  0  0  0  0  2  0  0  0  0  0  0
  159.7060  206.2030  149.4180 O   0  0  0  0  0  1  0  0  0  0  0  0
  160.4990  205.7150  148.3790 C   0  0  2  0  0  3  0  0  0  0  0  0
  161.4110  204.6040  148.8800 C   0  0  0  0  0  2  0  0  0  0  0  0
  160.5940  203.4150  149.3730 C   0  0  2  0  0  3  0  0  0  0  0  0
  161.4710  201.1550  151.1760 C   0  0  0  0  0  2  0  0  0  0  0  0
  160.4540  203.4540  150.9040 C   0  0  0  0  0  2  0  0  0  0  0  0
  160.6720  201.8110  147.4590 C   0  0  0  0  0  1  0  0  0  0  0  0
  161.2050  202.1070  148.8470 C   0  0  2  0  0  3  0  0  0  0  0  0
  160.8950  200.9330  149.7710 C   0  0  0  0  0  2  0  0  0  0  0  0
  161.5450  202.6320  151.5850 C   0  0  0  0  0  2  0  0  0  0  0  0
  162.4510  207.3320  148.4820 C   0  0  0  0  0  2  0  0  0  0  0  0
  161.9600  208.3150  149.5360 C   0  0  0  0  0  2  0  0  0  0  0  0
  162.6450  206.5370  151.0990 C   0  0  0  0  0  3  0  0  0  0  0  0
  161.3400  208.3550  152.1020 C   0  0  2  0  0  0  0  0  0  0  0  0
  161.5270  206.2380  153.2990 C   0  0  0  0  0  0  0  0  0  0  0  0
  162.0350  207.7180  150.9150 C   0  0  0  0  0  0  0  0  0  0  0  0
  162.7840  210.4230  151.7540 C   0  0  0  0  0  1  0  0  0  0  0  0
  160.8790  207.4620  153.1080 O   0  0  0  0  0  0  0  0  0  0  0  0
  160.4560  209.5580  151.8760 C   0  0  0  0  0  2  0  0  0  0  0  0
  161.1340  205.4530  154.1990 O   0  0  0  0  0  0  0  0  0  0  0  0
  162.7180  205.8790  152.4560 C   0  0  0  0  0  2  0  0  0  0  0  0
  161.7710  209.7140  152.6380 C   0  0  1  0  0  3  0  0  0  0  0  0
  1  8  1  0  0  0  0
  1 17  1  1  0  0  0
  2  5  1  0  0  0  0
  3  1  1  0  0  0  0
  4  2  1  0  0  0  0
  4  6  1  0  0  0  0
  5  3  1  0  0  0  0
  6  3  1  0  0  0  0
  8  9  1  0  0  0  0
  8  7  1  1  0  0  0
 10  9  1  1  0  0  0
 10 12  1  0  0  0  0
 11 16  1  0  0  0  0
 12 16  1  0  0  0  0
 14 13  1  6  0  0  0
 14 10  1  0  0  0  0
 14 15  1  0  0  0  0
 15 11  1  0  0  0  0
 17 18  1  0  0  0  0
 18 22  1  0  0  0  0
 19 27  1  0  0  0  0
 20 25  1  6  0  0  0
 20 28  1  0  0  0  0
 20 24  1  0  0  0  0
 21 26  2  0  0  0  0
 22 19  2  0  0  0  0
 22 20  1  0  0  0  0
 24 21  1  0  0  0  0
 25 28  1  0  0  0  0
 27 21  1  0  0  0  0
 28 23  1  6  0  0  0
M  END
>  <MODEL>
5

>  <REMARK>
 VINA RESULT:      -7.7      2.169      4.133
  Name = 
  7 active torsions:
  status: ('A' for Active; 'I' for Inactive)
    1  A    between atoms: C_2  and  C_3
    2  A    between atoms: C_2  and  C_26
    3  A    between atoms: C_10  and  C_13
    4  A    between atoms: C_10  and  C_17
    5  A    between atoms: N_16  and  C_27
    6  A    between atoms: C_17  and  C_27
    7  A    between atoms: C_26  and  C_27
                            x       y       z     vdW  Elec       q    Type
                         _______ _______ _______ _____ _____    ______ ____

>  <TORSDO>
F 7

$$$$
=
 OpenBabel11052422523D

 28 31  0  0  1  0  0  0  0  0999 V2000
  161.9540  206.3990  150.9140 C   0  0  1  0  0  3  0  0  0  0  0  0
  161.9560  209.2090  148.6350 C   0  0  0  0  0  2  0  0  0  0  0  0
  162.6120  207.4760  150.1460 N   0  0  0  0  0  0  0  0  0  0  0  0
  161.9560  209.7930  150.0230 C   0  0  0  0  0  2  0  0  0  0  0  0
  161.9620  207.7180  148.8600 C   0  0  0  0  0  2  0  0  0  0  0  0
  162.5960  208.7310  150.8930 C   0  0  0  0  0  2  0  0  0  0  0  0
  161.6060  205.3700  153.1130 O   0  0  0  0  0  1  0  0  0  0  0  0
  161.8340  206.5730  152.4440 C   0  0  2  0  0  3  0  0  0  0  0  0
  160.7800  207.6040  152.8240 C   0  0  0  0  0  2  0  0  0  0  0  0
  161.2090  208.3860  154.0600 C   0  0  2  0  0  3  0  0  0  0  0  0
  159.6070  208.9860  156.5510 C   0  0  0  0  0  2  0  0  0  0  0  0
  161.2070  207.4780  155.3010 C   0  0  0  0  0  2  0  0  0  0  0  0
  160.9020  210.7720  153.3850 C   0  0  0  0  0  1  0  0  0  0  0  0
  160.3330  209.6390  154.2160 C   0  0  2  0  0  3  0  0  0  0  0  0
  160.2380  210.0770  155.6750 C   0  0  0  0  0  2  0  0  0  0  0  0
  159.8800  207.5610  156.0500 C   0  0  0  0  0  2  0  0  0  0  0  0
  160.6290  205.9830  150.2920 C   0  0  0  0  0  2  0  0  0  0  0  0
  160.4560  204.4720  150.3790 C   0  0  0  0  0  2  0  0  0  0  0  0
  161.5310  204.5150  148.1610 C   0  0  0  0  0  3  0  0  0  0  0  0
  160.5990  202.3440  148.8220 C   0  0  2  0  0  0  0  0  0  0  0  0
  161.0850  202.7510  146.4660 C   0  0  0  0  0  0  0  0  0  0  0  0
  160.9130  203.7980  149.1130 C   0  0  0  0  0  0  0  0  0  0  0  0
  161.9170  201.7090  150.9050 C   0  0  0  0  0  1  0  0  0  0  0  0
  160.4300  202.0050  147.4500 O   0  0  0  0  0  0  0  0  0  0  0  0
  159.7070  201.5820  149.7720 C   0  0  0  0  0  2  0  0  0  0  0  0
  160.9530  202.4440  145.2540 O   0  0  0  0  0  0  0  0  0  0  0  0
  161.9790  203.8940  146.8590 C   0  0  0  0  0  2  0  0  0  0  0  0
  161.1880  201.2210  149.6640 C   0  0  1  0  0  3  0  0  0  0  0  0
  1 17  1  6  0  0  0
  1  8  1  0  0  0  0
  2  5  1  0  0  0  0
  2  4  1  0  0  0  0
  3  6  1  0  0  0  0
  3  1  1  0  0  0  0
  4  6  1  0  0  0  0
  5  3  1  0  0  0  0
  8  9  1  0  0  0  0
  8  7  1  1  0  0  0
 10  9  1  6  0  0  0
 10 14  1  0  0  0  0
 10 12  1  0  0  0  0
 12 16  1  0  0  0  0
 14 13  1  6  0  0  0
 14 15  1  0  0  0  0
 15 11  1  0  0  0  0
 16 11  1  0  0  0  0
 17 18  1  0  0  0  0
 19 22  2  0  0  0  0
 20 22  1  0  0  0  0
 20 28  1  0  0  0  0
 20 25  1  1  0  0  0
 21 27  1  0  0  0  0
 21 24  1  0  0  0  0
 22 18  1  0  0  0  0
 24 20  1  0  0  0  0
 26 21  2  0  0  0  0
 27 19  1  0  0  0  0
 28 25  1  0  0  0  0
 28 23  1  1  0  0  0
M  END
>  <MODEL>
6

>  <REMARK>
 VINA RESULT:      -7.7      2.004      7.621
  Name = 
  7 active torsions:
  status: ('A' for Active; 'I' for Inactive)
    1  A    between atoms: C_2  and  C_3
    2  A    between atoms: C_2  and  C_26
    3  A    between atoms: C_10  and  C_13
    4  A    between atoms: C_10  and  C_17
    5  A    between atoms: N_16  and  C_27
    6  A    between atoms: C_17  and  C_27
    7  A    between atoms: C_26  and  C_27
                            x       y       z     vdW  Elec       q    Type
                         _______ _______ _______ _____ _____    ______ ____

>  <TORSDO>
F 7

$$$$
=
 OpenBabel11052422523D

 28 31  0  0  1  0  0  0  0  0999 V2000
  161.9060  208.6610  149.9500 C   0  0  1  0  0  3  0  0  0  0  0  0
  160.9220  207.0910  153.0570 C   0  0  0  0  0  2  0  0  0  0  0  0
  162.1230  208.2680  151.3580 N   0  0  0  0  0  0  0  0  0  0  0  0
  161.7830  206.0900  152.3340 C   0  0  0  0  0  2  0  0  0  0  0  0
  160.8860  208.2840  152.1350 C   0  0  0  0  0  2  0  0  0  0  0  0
  162.6800  206.9210  151.4400 C   0  0  0  0  0  2  0  0  0  0  0  0
  161.8310  211.0430  150.5280 O   0  0  0  0  0  1  0  0  0  0  0  0
  162.2140  210.1220  149.5530 C   0  0  2  0  0  3  0  0  0  0  0  0
  161.6110  210.4890  148.2040 C   0  0  0  0  0  2  0  0  0  0  0  0
  161.5010  212.0020  148.0550 C   0  0  2  0  0  3  0  0  0  0  0  0
  161.1480  213.6170  145.5250 C   0  0  0  0  0  2  0  0  0  0  0  0
  160.1260  212.3900  147.4860 C   0  0  0  0  0  2  0  0  0  0  0  0
  163.8750  212.7760  148.1220 C   0  0  0  0  0  1  0  0  0  0  0  0
  162.6800  212.5320  147.2230 C   0  0  2  0  0  3  0  0  0  0  0  0
  162.3170  213.8260  146.4990 C   0  0  0  0  0  2  0  0  0  0  0  0
  160.1680  212.5210  145.9660 C   0  0  0  0  0  2  0  0  0  0  0  0
  162.5350  207.6730  148.9780 C   0  0  0  0  0  2  0  0  0  0  0  0
  161.5230  207.2580  147.9180 C   0  0  0  0  0  2  0  0  0  0  0  0
  160.6730  205.2570  149.0810 C   0  0  0  0  0  3  0  0  0  0  0  0
  161.6790  204.8340  146.8840 C   0  0  2  0  0  0  0  0  0  0  0  0
  161.4030  202.9710  148.4340 C   0  0  0  0  0  0  0  0  0  0  0  0
  161.2400  205.7810  147.9820 C   0  0  0  0  0  0  0  0  0  0  0  0
  160.2070  206.1330  145.2630 C   0  0  0  0  0  1  0  0  0  0  0  0
  162.0060  203.5110  147.2950 O   0  0  0  0  0  0  0  0  0  0  0  0
  162.5220  205.3660  145.7500 C   0  0  0  0  0  2  0  0  0  0  0  0
  161.6740  201.7960  148.7910 O   0  0  0  0  0  0  0  0  0  0  0  0
  160.3990  203.7780  149.2090 C   0  0  0  0  0  2  0  0  0  0  0  0
  161.0860  204.9130  145.4840 C   0  0  1  0  0  3  0  0  0  0  0  0
  1 17  1  6  0  0  0
  1  3  1  0  0  0  0
  3  6  1  0  0  0  0
  3  5  1  0  0  0  0
  4  2  1  0  0  0  0
  5  2  1  0  0  0  0
  6  4  1  0  0  0  0
  8  1  1  0  0  0  0
  8  7  1  1  0  0  0
  9  8  1  0  0  0  0
 10  9  1  6  0  0  0
 11 16  1  0  0  0  0
 11 15  1  0  0  0  0
 12 10  1  0  0  0  0
 14 10  1  0  0  0  0
 14 13  1  1  0  0  0
 15 14  1  0  0  0  0
 16 12  1  0  0  0  0
 18 22  1  0  0  0  0
 18 17  1  0  0  0  0
 19 27  1  0  0  0  0
 20 25  1  6  0  0  0
 20 24  1  0  0  0  0
 20 22  1  0  0  0  0
 21 26  2  0  0  0  0
 21 27  1  0  0  0  0
 22 19  2  0  0  0  0
 24 21  1  0  0  0  0
 28 23  1  1  0  0  0
 28 25  1  0  0  0  0
 28 20  1  0  0  0  0
M  END
>  <MODEL>
7

>  <REMARK>
 VINA RESULT:      -7.6      3.060      8.361
  Name = 
  7 active torsions:
  status: ('A' for Active; 'I' for Inactive)
    1  A    between atoms: C_2  and  C_3
    2  A    between atoms: C_2  and  C_26
    3  A    between atoms: C_10  and  C_13
    4  A    between atoms: C_10  and  C_17
    5  A    between atoms: N_16  and  C_27
    6  A    between atoms: C_17  and  C_27
    7  A    between atoms: C_26  and  C_27
                            x       y       z     vdW  Elec       q    Type
                         _______ _______ _______ _____ _____    ______ ____

>  <TORSDO>
F 7

$$$$
=
 OpenBabel11052422523D

 28 31  0  0  1  0  0  0  0  0999 V2000
  161.1320  208.0330  151.8520 C   0  0  1  0  0  3  0  0  0  0  0  0
  162.0710  209.5020  148.6820 C   0  0  0  0  0  2  0  0  0  0  0  0
  162.1140  208.4930  150.8490 N   0  0  0  0  0  0  0  0  0  0  0  0
  162.1440  210.6110  149.6980 C   0  0  0  0  0  2  0  0  0  0  0  0
  161.6440  208.2960  149.4800 C   0  0  0  0  0  2  0  0  0  0  0  0
  162.4020  209.9150  151.0180 C   0  0  0  0  0  2  0  0  0  0  0  0
  161.8920  206.4340  153.5490 O   0  0  0  0  0  1  0  0  0  0  0  0
  161.2220  206.5680  152.3320 C   0  0  2  0  0  3  0  0  0  0  0  0
  161.8370  205.6560  151.2800 C   0  0  0  0  0  2  0  0  0  0  0  0
  160.7930  204.7000  150.7160 C   0  0  2  0  0  3  0  0  0  0  0  0
  161.0500  201.7340  150.1970 C   0  0  0  0  0  2  0  0  0  0  0  0
  160.4270  203.6260  151.7550 C   0  0  0  0  0  2  0  0  0  0  0  0
  160.9320  205.0620  148.2480 C   0  0  0  0  0  1  0  0  0  0  0  0
  161.2830  204.1190  149.3810 C   0  0  2  0  0  3  0  0  0  0  0  0
  160.6700  202.7470  149.1080 C   0  0  0  0  0  2  0  0  0  0  0  0
  161.2720  202.3670  151.5770 C   0  0  0  0  0  2  0  0  0  0  0  0
  161.0170  209.0000  153.0230 C   0  0  0  0  0  2  0  0  0  0  0  0
  159.9440  210.0440  152.7420 C   0  0  0  0  0  2  0  0  0  0  0  0
  160.7040  210.9740  154.8940 C   0  0  0  0  0  3  0  0  0  0  0  0
  158.9440  212.2610  153.7700 C   0  0  2  0  0  0  0  0  0  0  0  0
  159.3390  212.6310  156.1480 C   0  0  0  0  0  0  0  0  0  0  0  0
  159.9180  211.1010  153.8130 C   0  0  0  0  0  0  0  0  0  0  0  0
  160.0110  212.9900  151.5760 C   0  0  0  0  0  1  0  0  0  0  0  0
  158.5100  212.7580  155.0300 O   0  0  0  0  0  0  0  0  0  0  0  0
  157.8950  212.2980  152.6840 C   0  0  0  0  0  2  0  0  0  0  0  0
  158.9680  213.0860  157.2600 O   0  0  0  0  0  0  0  0  0  0  0  0
  160.6910  211.9890  156.0130 C   0  0  0  0  0  2  0  0  0  0  0  0
  159.0270  213.3250  152.6840 C   0  0  1  0  0  3  0  0  0  0  0  0
  1  8  1  0  0  0  0
  1 17  1  1  0  0  0
  2  5  1  0  0  0  0
  2  4  1  0  0  0  0
  3  6  1  0  0  0  0
  3  1  1  0  0  0  0
  4  6  1  0  0  0  0
  5  3  1  0  0  0  0
  8  7  1  1  0  0  0
  9  8  1  0  0  0  0
 10  9  1  1  0  0  0
 10 12  1  0  0  0  0
 11 16  1  0  0  0  0
 14 13  1  6  0  0  0
 14 10  1  0  0  0  0
 15 14  1  0  0  0  0
 15 11  1  0  0  0  0
 16 12  1  0  0  0  0
 18 17  1  0  0  0  0
 18 22  1  0  0  0  0
 19 27  1  0  0  0  0
 20 25  1  6  0  0  0
 20 22  1  0  0  0  0
 20 24  1  0  0  0  0
 21 26  2  0  0  0  0
 22 19  2  0  0  0  0
 24 21  1  0  0  0  0
 25 28  1  0  0  0  0
 27 21  1  0  0  0  0
 28 23  1  6  0  0  0
 28 20  1  0  0  0  0
M  END
>  <MODEL>
8

>  <REMARK>
 VINA RESULT:      -7.5      2.027      3.544
  Name = 
  7 active torsions:
  status: ('A' for Active; 'I' for Inactive)
    1  A    between atoms: C_2  and  C_3
    2  A    between atoms: C_2  and  C_26
    3  A    between atoms: C_10  and  C_13
    4  A    between atoms: C_10  and  C_17
    5  A    between atoms: N_16  and  C_27
    6  A    between atoms: C_17  and  C_27
    7  A    between atoms: C_26  and  C_27
                            x       y       z     vdW  Elec       q    Type
                         _______ _______ _______ _____ _____    ______ ____

>  <TORSDO>
F 7

$$$$
=
 OpenBabel11052422523D

 28 31  0  0  1  0  0  0  0  0999 V2000
  161.3450  207.9490  149.7630 C   0  0  1  0  0  3  0  0  0  0  0  0
  161.9650  211.1930  148.2860 C   0  0  0  0  0  2  0  0  0  0  0  0
  162.2210  209.0540  149.3220 N   0  0  0  0  0  0  0  0  0  0  0  0
  161.9470  211.4050  149.7760 C   0  0  0  0  0  2  0  0  0  0  0  0
  161.7200  209.7140  148.1200 C   0  0  0  0  0  2  0  0  0  0  0  0
  162.3430  210.0680  150.3660 C   0  0  0  0  0  2  0  0  0  0  0  0
  160.9280  206.8990  147.5870 O   0  0  0  0  0  1  0  0  0  0  0  0
  161.3160  206.6640  148.9060 C   0  0  2  0  0  3  0  0  0  0  0  0
  160.4530  205.5770  149.5310 C   0  0  0  0  0  2  0  0  0  0  0  0
  161.2550  204.2950  149.7260 C   0  0  2  0  0  3  0  0  0  0  0  0
  160.4880  201.4700  148.9780 C   0  0  0  0  0  2  0  0  0  0  0  0
  161.5950  203.6600  148.3670 C   0  0  0  0  0  2  0  0  0  0  0  0
  160.8340  203.6930  152.1130 C   0  0  0  0  0  1  0  0  0  0  0  0
  160.5040  203.3480  150.6740 C   0  0  2  0  0  3  0  0  0  0  0  0
  160.8620  201.8890  150.4060 C   0  0  0  0  0  2  0  0  0  0  0  0
  160.5550  202.6190  147.9620 C   0  0  0  0  0  2  0  0  0  0  0  0
  161.5250  207.6320  151.2410 C   0  0  0  0  0  2  0  0  0  0  0  0
  160.7120  208.5980  152.0920 C   0  0  0  0  0  2  0  0  0  0  0  0
  161.0620  206.9730  153.9120 C   0  0  0  0  0  3  0  0  0  0  0  0
  160.4500  209.2340  154.6410 C   0  0  2  0  0  0  0  0  0  0  0  0
  160.1850  207.3780  156.2020 C   0  0  0  0  0  0  0  0  0  0  0  0
  160.7870  208.2370  153.5510 C   0  0  0  0  0  0  0  0  0  0  0  0
  162.3580  210.6970  153.8040 C   0  0  0  0  0  1  0  0  0  0  0  0
  159.8850  208.6910  155.8290 O   0  0  0  0  0  0  0  0  0  0  0  0
  159.9150  210.5920  154.2540 C   0  0  0  0  0  2  0  0  0  0  0  0
  159.7030  206.9010  157.2610 O   0  0  0  0  0  0  0  0  0  0  0  0
  161.1160  206.5510  155.3610 C   0  0  0  0  0  2  0  0  0  0  0  0
  161.3050  210.4720  154.8760 C   0  0  1  0  0  3  0  0  0  0  0  0
  1 17  1  1  0  0  0
  2  4  1  0  0  0  0
  3  1  1  0  0  0  0
  3  6  1  0  0  0  0
  4  6  1  0  0  0  0
  5  2  1  0  0  0  0
  5  3  1  0  0  0  0
  8  7  1  6  0  0  0
  8  9  1  0  0  0  0
  8  1  1  0  0  0  0
 10  9  1  6  0  0  0
 10 14  1  0  0  0  0
 11 15  1  0  0  0  0
 12 10  1  0  0  0  0
 14 13  1  1  0  0  0
 15 14  1  0  0  0  0
 16 12  1  0  0  0  0
 16 11  1  0  0  0  0
 17 18  1  0  0  0  0
 18 22  1  0  0  0  0
 19 27  1  0  0  0  0
 20 25  1  6  0  0  0
 20 28  1  0  0  0  0
 20 24  1  0  0  0  0
 21 26  2  0  0  0  0
 22 19  2  0  0  0  0
 22 20  1  0  0  0  0
 24 21  1  0  0  0  0
 25 28  1  0  0  0  0
 27 21  1  0  0  0  0
 28 23  1  6  0  0  0
M  END
>  <MODEL>
9

>  <REMARK>
 VINA RESULT:      -7.4      1.915      3.293
  Name = 
  7 active torsions:
  status: ('A' for Active; 'I' for Inactive)
    1  A    between atoms: C_2  and  C_3
    2  A    between atoms: C_2  and  C_26
    3  A    between atoms: C_10  and  C_13
    4  A    between atoms: C_10  and  C_17
    5  A    between atoms: N_16  and  C_27
    6  A    between atoms: C_17  and  C_27
    7  A    between atoms: C_26  and  C_27
                            x       y       z     vdW  Elec       q    Type
                         _______ _______ _______ _____ _____    ______ ____

>  <TORSDO>
F 7

$$$$
