=
 OpenBabel11062409283D

 34 38  0  0  1  0  0  0  0  0999 V2000
  160.4580  208.6220  155.1720 C   0  0  1  0  0  3  0  0  0  0  0  0
  160.4430  212.4850  155.9410 C   0  0  0  0  0  2  0  0  0  0  0  0
  160.9910  211.1910  153.8860 C   0  0  0  0  0  2  0  0  0  0  0  0
  159.5130  207.6380  155.4760 O   0  0  0  0  0  1  0  0  0  0  0  0
  160.6950  207.7770  152.6980 C   0  0  2  0  0  3  0  0  0  0  0  0
  161.1380  208.5250  151.4540 C   0  0  0  0  0  2  0  0  0  0  0  0
  161.4710  209.9180  153.3700 N   0  0  1  0  0  0  0  0  0  0  0  0
  160.4650  208.9200  153.6740 C   0  0  2  0  0  3  0  0  0  0  0  0
  161.4820  209.9400  151.9170 C   0  0  0  0  0  2  0  0  0  0  0  0
  159.6000  212.3250  157.2060 C   0  0  0  0  0  2  0  0  0  0  0  0
  158.3800  211.4170  156.9640 C   0  0  2  0  0  3  0  0  0  0  0  0
  160.9710  211.1410  155.4200 C   0  0  2  0  0  3  0  0  0  0  0  0
  158.6640  210.2620  155.9930 C   0  0  0  0  0  2  0  0  0  0  0  0
  160.1580  209.9230  155.9470 C   0  0  1  0  0  3  0  0  0  0  0  0
  161.8370  206.8610  153.1330 C   0  0  0  0  0  2  0  0  0  0  0  0
  162.5020  206.1980  151.9330 C   0  0  0  0  0  2  0  0  0  0  0  0
  161.7960  205.8690  149.1690 O   0  0  0  0  0  0  0  0  0  0  0  0
  161.3080  202.7300  151.8760 C   0  0  0  0  0  2  0  0  0  0  0  0
  160.5410  202.0680  147.6130 C   0  0  2  0  0  3  0  0  0  0  0  0
  161.1490  203.4070  148.0300 C   0  0  0  0  0  2  0  0  0  0  0  0
  160.8740  203.6690  149.5120 C   0  0  1  0  0  3  0  0  0  0  0  0
  161.6620  205.1380  151.3920 N   0  0  0  0  0  0  0  0  0  0  0  0
  160.8530  201.1880  149.9430 C   0  0  0  0  0  2  0  0  0  0  0  0
  161.4590  202.5250  150.3580 C   0  0  2  0  0  3  0  0  0  0  0  0
  161.1140  200.9310  148.4610 C   0  0  0  0  0  2  0  0  0  0  0  0
  161.0460  204.1810  152.3070 C   0  0  0  0  0  2  0  0  0  0  0  0
  161.4760  204.9580  149.9820 C   0  0  0  0  0  0  0  0  0  0  0  0
  160.7990  201.8130  146.1670 C   0  0  0  0  0  0  0  0  0  0  0  0
  161.0440  202.7770  145.3980 O   0  0  0  0  0  0  0  0  0  0  0  0
  160.7720  200.5180  145.6630 O   0  0  0  0  0  1  0  0  0  0  0  0
  157.1940  212.2180  156.4500 C   0  0  0  0  0  2  0  0  0  0  0  0
  156.9240  211.9240  154.9830 C   0  0  1  0  0  3  0  0  0  0  0  0
  155.5980  211.5250  154.8120 O   0  0  0  0  0  1  0  0  0  0  0  0
  157.1750  213.1760  154.1680 C   0  0  0  0  0  1  0  0  0  0  0  0
  1  4  1  6  0  0  0
  1 14  1  0  0  0  0
  2 10  1  0  0  0  0
  3 12  1  0  0  0  0
  5 15  1  1  0  0  0
  5  8  1  0  0  0  0
  6  9  1  0  0  0  0
  6  5  1  0  0  0  0
  7  9  1  6  0  0  0
  7  8  1  0  0  0  0
  7  3  1  0  0  0  0
  8  1  1  0  0  0  0
 11 10  1  0  0  0  0
 12  2  1  0  0  0  0
 12 14  1  0  0  0  0
 13 11  1  0  0  0  0
 14 13  1  0  0  0  0
 16 15  1  0  0  0  0
 17 27  2  0  0  0  0
 18 26  1  0  0  0  0
 19 20  1  0  0  0  0
 19 25  1  0  0  0  0
 20 21  1  0  0  0  0
 21 27  1  0  0  0  0
 21 24  1  0  0  0  0
 22 16  1  0  0  0  0
 22 26  1  0  0  0  0
 23 24  1  0  0  0  0
 24 18  1  0  0  0  0
 25 23  1  0  0  0  0
 27 22  1  0  0  0  0
 28 19  1  0  0  0  0
 29 28  2  0  0  0  0
 30 28  1  0  0  0  0
 31 11  1  0  0  0  0
 32 31  1  0  0  0  0
 33 32  1  0  0  0  0
 34 32  1  0  0  0  0
M  END
>  <MODEL>
1

>  <REMARK>
 VINA RESULT:      -9.0      0.000      0.000
  Name = 
  6 active torsions:
  status: ('A' for Active; 'I' for Inactive)
    1  A    between atoms: C_3  and  C_25
    2  A    between atoms: C_7  and  C_11
    3  A    between atoms: C_8  and  C_17
    4  A    between atoms: C_8  and  N_18
    5  A    between atoms: C_10  and  C_17
    6  A    between atoms: C_25  and  C_27
                            x       y       z     vdW  Elec       q    Type
                         _______ _______ _______ _____ _____    ______ ____

>  <TORSDO>
F 6

$$$$
=
 OpenBabel11062409283D

 34 38  0  0  1  0  0  0  0  0999 V2000
  160.7250  209.8770  152.4010 C   0  0  1  0  0  3  0  0  0  0  0  0
  159.5390  209.2140  156.0980 C   0  0  0  0  0  2  0  0  0  0  0  0
  160.7100  207.7790  154.4340 C   0  0  0  0  0  2  0  0  0  0  0  0
  161.3980  210.9720  151.8520 O   0  0  0  0  0  1  0  0  0  0  0  0
  162.3170  208.1670  151.2070 C   0  0  2  0  0  3  0  0  0  0  0  0
  162.6690  206.7380  151.5840 C   0  0  0  0  0  2  0  0  0  0  0  0
  160.9220  207.5250  153.0170 N   0  0  1  0  0  0  0  0  0  0  0  0
  161.6440  208.6600  152.4770 C   0  0  2  0  0  3  0  0  0  0  0  0
  161.8590  206.4280  152.8420 C   0  0  0  0  0  2  0  0  0  0  0  0
  159.3630  210.7010  156.4070 C   0  0  0  0  0  2  0  0  0  0  0  0
  160.5810  211.5240  155.9510 C   0  0  2  0  0  3  0  0  0  0  0  0
  159.7320  208.9510  154.5980 C   0  0  2  0  0  3  0  0  0  0  0  0
  161.2140  211.0070  154.6510 C   0  0  0  0  0  2  0  0  0  0  0  0
  160.2060  210.2110  153.8160 C   0  0  1  0  0  3  0  0  0  0  0  0
  161.3580  208.1200  150.0190 C   0  0  0  0  0  2  0  0  0  0  0  0
  160.7080  206.7490  149.8850 C   0  0  0  0  0  2  0  0  0  0  0  0
  161.1550  203.9200  149.6860 O   0  0  0  0  0  0  0  0  0  0  0  0
  160.9300  206.2830  146.2530 C   0  0  0  0  0  2  0  0  0  0  0  0
  161.2700  201.9310  145.8820 C   0  0  2  0  0  3  0  0  0  0  0  0
  161.0630  202.5130  147.2790 C   0  0  0  0  0  2  0  0  0  0  0  0
  161.4740  203.9870  147.2980 C   0  0  1  0  0  3  0  0  0  0  0  0
  161.2060  206.0490  148.7080 N   0  0  0  0  0  0  0  0  0  0  0  0
  160.8560  204.1880  144.8660 C   0  0  0  0  0  2  0  0  0  0  0  0
  160.6510  204.7690  146.2610 C   0  0  2  0  0  3  0  0  0  0  0  0
  160.4600  202.7140  144.8480 C   0  0  0  0  0  2  0  0  0  0  0  0
  161.5910  206.8220  147.5310 C   0  0  0  0  0  2  0  0  0  0  0  0
  161.2630  204.6190  148.6410 C   0  0  0  0  0  0  0  0  0  0  0  0
  160.8780  200.4920  145.8610 C   0  0  0  0  0  0  0  0  0  0  0  0
  160.1010  200.0720  144.9650 O   0  0  0  0  0  0  0  0  0  0  0  0
  161.3640  199.6140  146.8210 O   0  0  0  0  0  1  0  0  0  0  0  0
  161.6460  211.5740  157.0370 C   0  0  0  0  0  2  0  0  0  0  0  0
  162.8590  210.7400  156.6580 C   0  0  1  0  0  3  0  0  0  0  0  0
  164.0220  211.3380  157.1440 O   0  0  0  0  0  1  0  0  0  0  0  0
  162.7230  209.3570  157.2610 C   0  0  0  0  0  1  0  0  0  0  0  0
  1  4  1  1  0  0  0
  1  8  1  0  0  0  0
  1 14  1  0  0  0  0
  2 10  1  0  0  0  0
  3 12  1  0  0  0  0
  5 15  1  6  0  0  0
  5  6  1  0  0  0  0
  5  8  1  0  0  0  0
  6  9  1  0  0  0  0
  7  9  1  1  0  0  0
  7  3  1  0  0  0  0
  8  7  1  0  0  0  0
 11 10  1  0  0  0  0
 11 31  1  0  0  0  0
 12  2  1  0  0  0  0
 13 11  1  0  0  0  0
 14 12  1  0  0  0  0
 14 13  1  0  0  0  0
 16 15  1  0  0  0  0
 18 24  1  0  0  0  0
 18 26  1  0  0  0  0
 19 20  1  0  0  0  0
 20 21  1  0  0  0  0
 21 27  1  0  0  0  0
 22 16  1  0  0  0  0
 23 24  1  0  0  0  0
 24 21  1  0  0  0  0
 25 23  1  0  0  0  0
 25 19  1  0  0  0  0
 26 22  1  0  0  0  0
 27 22  1  0  0  0  0
 27 17  2  0  0  0  0
 28 19  1  0  0  0  0
 28 30  1  0  0  0  0
 29 28  2  0  0  0  0
 32 31  1  0  0  0  0
 32 33  1  0  0  0  0
 32 34  1  0  0  0  0
M  END
>  <MODEL>
2

>  <REMARK>
 VINA RESULT:      -7.1      2.383      3.911
  Name = 
  6 active torsions:
  status: ('A' for Active; 'I' for Inactive)
    1  A    between atoms: C_3  and  C_25
    2  A    between atoms: C_7  and  C_11
    3  A    between atoms: C_8  and  C_17
    4  A    between atoms: C_8  and  N_18
    5  A    between atoms: C_10  and  C_17
    6  A    between atoms: C_25  and  C_27
                            x       y       z     vdW  Elec       q    Type
                         _______ _______ _______ _____ _____    ______ ____

>  <TORSDO>
F 6

$$$$
=
 OpenBabel11062409283D

 34 38  0  0  1  0  0  0  0  0999 V2000
  160.9040  207.8840  154.4760 C   0  0  1  0  0  3  0  0  0  0  0  0
  161.8440  211.4100  155.9590 C   0  0  0  0  0  2  0  0  0  0  0  0
  161.9260  210.4910  153.6460 C   0  0  0  0  0  2  0  0  0  0  0  0
  159.7810  207.0820  154.6990 O   0  0  0  0  0  1  0  0  0  0  0  0
  160.7580  207.5490  151.8780 C   0  0  2  0  0  3  0  0  0  0  0  0
  161.2720  208.4310  150.7530 C   0  0  0  0  0  2  0  0  0  0  0  0
  162.0580  209.2840  152.8460 N   0  0  1  0  0  0  0  0  0  0  0  0
  160.8720  208.4820  153.0720 C   0  0  2  0  0  3  0  0  0  0  0  0
  161.9690  209.6090  151.4320 C   0  0  0  0  0  2  0  0  0  0  0  0
  161.0810  211.1700  157.2610 C   0  0  0  0  0  2  0  0  0  0  0  0
  159.6700  210.6150  156.9970 C   0  0  2  0  0  3  0  0  0  0  0  0
  162.0060  210.1250  155.1340 C   0  0  2  0  0  3  0  0  0  0  0  0
  159.6050  209.6570  155.7990 C   0  0  0  0  0  2  0  0  0  0  0  0
  160.9720  209.0250  155.5130 C   0  0  1  0  0  3  0  0  0  0  0  0
  161.6840  206.3400  151.9920 C   0  0  0  0  0  2  0  0  0  0  0  0
  161.0150  205.0780  151.4620 C   0  0  0  0  0  2  0  0  0  0  0  0
  160.7690  202.5120  150.1970 O   0  0  0  0  0  0  0  0  0  0  0  0
  161.7980  205.8890  147.9710 C   0  0  0  0  0  2  0  0  0  0  0  0
  161.1000  202.0720  145.9380 C   0  0  2  0  0  3  0  0  0  0  0  0
  160.7850  202.1530  147.4310 C   0  0  0  0  0  2  0  0  0  0  0  0
  161.5410  203.3240  148.0630 C   0  0  1  0  0  3  0  0  0  0  0  0
  161.5360  204.7260  150.1470 N   0  0  0  0  0  0  0  0  0  0  0  0
  161.4660  204.5540  145.8680 C   0  0  0  0  0  2  0  0  0  0  0  0
  161.1520  204.6340  147.3580 C   0  0  2  0  0  3  0  0  0  0  0  0
  160.7230  203.3780  145.2380 C   0  0  0  0  0  2  0  0  0  0  0  0
  162.3180  205.7100  149.4060 C   0  0  0  0  0  2  0  0  0  0  0  0
  161.2440  203.4680  149.5250 C   0  0  0  0  0  0  0  0  0  0  0  0
  160.3710  200.9280  145.3190 C   0  0  0  0  0  0  0  0  0  0  0  0
  159.2610  201.1250  144.7600 O   0  0  0  0  0  0  0  0  0  0  0  0
  160.9080  199.6460  145.3550 O   0  0  0  0  0  1  0  0  0  0  0  0
  158.6680  211.7400  156.7880 C   0  0  0  0  0  2  0  0  0  0  0  0
  157.7550  211.4530  155.6080 C   0  0  1  0  0  3  0  0  0  0  0  0
  156.4530  211.2230  156.0550 O   0  0  0  0  0  1  0  0  0  0  0  0
  157.7550  212.6460  154.6740 C   0  0  0  0  0  1  0  0  0  0  0  0
  1  4  1  1  0  0  0
  1 14  1  0  0  0  0
  2 10  1  0  0  0  0
  3 12  1  0  0  0  0
  5 15  1  1  0  0  0
  5  8  1  0  0  0  0
  6  9  1  0  0  0  0
  6  5  1  0  0  0  0
  7  9  1  6  0  0  0
  7  8  1  0  0  0  0
  7  3  1  0  0  0  0
  8  1  1  0  0  0  0
 11 10  1  0  0  0  0
 12 14  1  0  0  0  0
 12  2  1  0  0  0  0
 13 11  1  0  0  0  0
 14 13  1  0  0  0  0
 16 15  1  0  0  0  0
 18 26  1  0  0  0  0
 19 20  1  0  0  0  0
 20 21  1  0  0  0  0
 21 27  1  0  0  0  0
 22 16  1  0  0  0  0
 23 24  1  0  0  0  0
 24 18  1  0  0  0  0
 24 21  1  0  0  0  0
 25 23  1  0  0  0  0
 25 19  1  0  0  0  0
 26 22  1  0  0  0  0
 27 22  1  0  0  0  0
 27 17  2  0  0  0  0
 28 30  1  0  0  0  0
 28 19  1  0  0  0  0
 29 28  2  0  0  0  0
 31 11  1  0  0  0  0
 32 33  1  0  0  0  0
 32 31  1  0  0  0  0
 34 32  1  0  0  0  0
M  END
>  <MODEL>
3

>  <REMARK>
 VINA RESULT:      -6.9      1.373      2.197
  Name = 
  6 active torsions:
  status: ('A' for Active; 'I' for Inactive)
    1  A    between atoms: C_3  and  C_25
    2  A    between atoms: C_7  and  C_11
    3  A    between atoms: C_8  and  C_17
    4  A    between atoms: C_8  and  N_18
    5  A    between atoms: C_10  and  C_17
    6  A    between atoms: C_25  and  C_27
                            x       y       z     vdW  Elec       q    Type
                         _______ _______ _______ _____ _____    ______ ____

>  <TORSDO>
F 6

$$$$
=
 OpenBabel11062409283D

 34 38  0  0  1  0  0  0  0  0999 V2000
  159.5510  210.5090  153.2850 C   0  0  1  0  0  3  0  0  0  0  0  0
  157.0700  211.0240  156.3000 C   0  0  0  0  0  2  0  0  0  0  0  0
  159.5420  210.7480  156.1960 C   0  0  0  0  0  2  0  0  0  0  0  0
  159.6250  211.1690  152.0550 O   0  0  0  0  0  1  0  0  0  0  0  0
  162.1400  210.7080  153.6660 C   0  0  2  0  0  3  0  0  0  0  0  0
  162.9350  210.7040  154.9600 C   0  0  0  0  0  2  0  0  0  0  0  0
  160.6490  210.1850  155.4380 N   0  0  1  0  0  0  0  0  0  0  0  0
  160.7230  210.9020  154.1810 C   0  0  2  0  0  3  0  0  0  0  0  0
  161.9110  210.5160  156.0790 C   0  0  0  0  0  2  0  0  0  0  0  0
  155.9320  211.5090  155.4030 C   0  0  0  0  0  2  0  0  0  0  0  0
  156.4140  212.5720  154.3990 C   0  0  2  0  0  3  0  0  0  0  0  0
  158.2200  210.4030  155.4960 C   0  0  2  0  0  3  0  0  0  0  0  0
  157.8390  212.3230  153.8850 C   0  0  0  0  0  2  0  0  0  0  0  0
  158.2260  210.8450  154.0040 C   0  0  1  0  0  3  0  0  0  0  0  0
  162.3320  209.3540  152.9870 C   0  0  0  0  0  2  0  0  0  0  0  0
  162.3400  209.4910  151.4700 C   0  0  0  0  0  2  0  0  0  0  0  0
  162.1570  209.0000  148.6470 O   0  0  0  0  0  0  0  0  0  0  0  0
  161.1970  206.0050  151.3900 C   0  0  0  0  0  2  0  0  0  0  0  0
  161.2320  205.1010  147.1030 C   0  0  2  0  0  3  0  0  0  0  0  0
  161.7450  206.4700  147.5480 C   0  0  0  0  0  2  0  0  0  0  0  0
  161.2010  206.8080  148.9380 C   0  0  1  0  0  3  0  0  0  0  0  0
  161.6200  208.3890  150.8440 N   0  0  0  0  0  0  0  0  0  0  0  0
  161.1150  204.3540  149.4960 C   0  0  0  0  0  2  0  0  0  0  0  0
  161.6260  205.7210  149.9400 C   0  0  2  0  0  3  0  0  0  0  0  0
  161.6460  204.0210  148.1040 C   0  0  0  0  0  2  0  0  0  0  0  0
  160.8520  207.4740  151.6830 C   0  0  0  0  0  2  0  0  0  0  0  0
  161.6990  208.1300  149.4370 C   0  0  0  0  0  0  0  0  0  0  0  0
  161.7540  204.7720  145.7460 C   0  0  0  0  0  0  0  0  0  0  0  0
  162.8670  205.2280  145.3790 O   0  0  0  0  0  1  0  0  0  0  0  0
  161.0210  203.9640  144.8850 O   0  0  0  0  0  0  0  0  0  0  0  0
  156.3390  213.9670  155.0010 C   0  0  0  0  0  2  0  0  0  0  0  0
  154.8980  214.4310  155.1410 C   0  0  1  0  0  3  0  0  0  0  0  0
  154.1370  213.9540  154.0730 O   0  0  0  0  0  1  0  0  0  0  0  0
  154.3250  213.8960  156.4370 C   0  0  0  0  0  1  0  0  0  0  0  0
  1  4  1  6  0  0  0
  1 14  1  0  0  0  0
  1  8  1  0  0  0  0
  5 15  1  1  0  0  0
  5  8  1  0  0  0  0
  5  6  1  0  0  0  0
  6  9  1  0  0  0  0
  7  9  1  1  0  0  0
  7  3  1  0  0  0  0
  8  7  1  0  0  0  0
 10  2  1  0  0  0  0
 11 31  1  0  0  0  0
 11 10  1  0  0  0  0
 12  3  1  0  0  0  0
 12  2  1  0  0  0  0
 13 14  1  0  0  0  0
 13 11  1  0  0  0  0
 14 12  1  0  0  0  0
 16 15  1  0  0  0  0
 17 27  2  0  0  0  0
 18 26  1  0  0  0  0
 19 20  1  0  0  0  0
 19 25  1  0  0  0  0
 20 21  1  0  0  0  0
 21 27  1  0  0  0  0
 21 24  1  0  0  0  0
 22 16  1  0  0  0  0
 22 26  1  0  0  0  0
 23 24  1  0  0  0  0
 24 18  1  0  0  0  0
 25 23  1  0  0  0  0
 27 22  1  0  0  0  0
 28 19  1  0  0  0  0
 29 28  1  0  0  0  0
 30 28  2  0  0  0  0
 31 32  1  0  0  0  0
 32 34  1  0  0  0  0
 33 32  1  0  0  0  0
M  END
>  <MODEL>
4

>  <REMARK>
 VINA RESULT:      -6.0      2.182      3.299
  Name = 
  6 active torsions:
  status: ('A' for Active; 'I' for Inactive)
    1  A    between atoms: C_3  and  C_25
    2  A    between atoms: C_7  and  C_11
    3  A    between atoms: C_8  and  C_17
    4  A    between atoms: C_8  and  N_18
    5  A    between atoms: C_10  and  C_17
    6  A    between atoms: C_25  and  C_27
                            x       y       z     vdW  Elec       q    Type
                         _______ _______ _______ _____ _____    ______ ____

>  <TORSDO>
F 6

$$$$
=
 OpenBabel11062409283D

 34 38  0  0  1  0  0  0  0  0999 V2000
  160.0240  209.5490  152.7740 C   0  0  1  0  0  3  0  0  0  0  0  0
  158.1930  212.9850  153.3720 C   0  0  0  0  0  2  0  0  0  0  0  0
  159.6780  211.6070  154.8190 C   0  0  0  0  0  2  0  0  0  0  0  0
  160.7650  209.1010  151.6770 O   0  0  0  0  0  1  0  0  0  0  0  0
  161.8430  208.7180  154.4740 C   0  0  2  0  0  3  0  0  0  0  0  0
  162.1470  209.1960  155.8830 C   0  0  0  0  0  2  0  0  0  0  0  0
  160.1520  210.2610  155.1040 N   0  0  1  0  0  0  0  0  0  0  0  0
  160.9380  209.8280  153.9650 C   0  0  2  0  0  3  0  0  0  0  0  0
  161.1260  210.2930  156.1810 C   0  0  0  0  0  2  0  0  0  0  0  0
  157.9330  213.2120  151.8830 C   0  0  0  0  0  2  0  0  0  0  0  0
  159.1980  212.9630  151.0420 C   0  0  2  0  0  3  0  0  0  0  0  0
  158.6630  211.5540  153.6680 C   0  0  2  0  0  3  0  0  0  0  0  0
  160.0690  211.8170  151.5750 C   0  0  0  0  0  2  0  0  0  0  0  0
  159.2480  210.8350  152.4180 C   0  0  1  0  0  3  0  0  0  0  0  0
  161.1190  207.3770  154.5750 C   0  0  0  0  0  2  0  0  0  0  0  0
  161.9500  206.2520  153.9690 C   0  0  0  0  0  2  0  0  0  0  0  0
  162.0820  207.2620  151.2840 O   0  0  0  0  0  0  0  0  0  0  0  0
  160.7350  203.3830  152.0320 C   0  0  0  0  0  2  0  0  0  0  0  0
  161.2420  204.7530  147.9010 C   0  0  2  0  0  3  0  0  0  0  0  0
  161.7350  205.6670  149.0220 C   0  0  0  0  0  2  0  0  0  0  0  0
  161.0430  205.3050  150.3370 C   0  0  1  0  0  3  0  0  0  0  0  0
  161.2790  205.6760  152.8110 N   0  0  0  0  0  0  0  0  0  0  0  0
  160.8300  202.9180  149.5630 C   0  0  0  0  0  2  0  0  0  0  0  0
  161.3210  203.8320  150.6820 C   0  0  2  0  0  3  0  0  0  0  0  0
  161.5100  203.2880  148.2470 C   0  0  0  0  0  2  0  0  0  0  0  0
  160.3960  204.5280  152.9990 C   0  0  0  0  0  2  0  0  0  0  0  0
  161.5130  206.1530  151.4800 C   0  0  0  0  0  0  0  0  0  0  0  0
  161.9090  205.1080  146.6160 C   0  0  0  0  0  0  0  0  0  0  0  0
  163.0740  204.6960  146.3840 O   0  0  0  0  0  1  0  0  0  0  0  0
  161.2520  205.8900  145.6730 O   0  0  0  0  0  0  0  0  0  0  0  0
  160.0440  214.2230  150.9370 C   0  0  0  0  0  2  0  0  0  0  0  0
  160.5160  214.4530  149.5110 C   0  0  1  0  0  3  0  0  0  0  0  0
  161.5790  213.6000  149.2140 O   0  0  0  0  0  1  0  0  0  0  0  0
  159.3740  214.1740  148.5550 C   0  0  0  0  0  1  0  0  0  0  0  0
  1  4  1  6  0  0  0
  1  8  1  0  0  0  0
  2 12  1  0  0  0  0
  5 15  1  1  0  0  0
  5  6  1  0  0  0  0
  6  9  1  0  0  0  0
  7  3  1  6  0  0  0
  7  9  1  0  0  0  0
  8  5  1  0  0  0  0
  8  7  1  0  0  0  0
 10  2  1  0  0  0  0
 11 13  1  0  0  0  0
 11 10  1  0  0  0  0
 12  3  1  0  0  0  0
 13 14  1  0  0  0  0
 14  1  1  0  0  0  0
 14 12  1  0  0  0  0
 16 15  1  0  0  0  0
 17 27  2  0  0  0  0
 18 26  1  0  0  0  0
 19 25  1  0  0  0  0
 19 20  1  0  0  0  0
 20 21  1  0  0  0  0
 21 24  1  0  0  0  0
 21 27  1  0  0  0  0
 22 26  1  0  0  0  0
 22 16  1  0  0  0  0
 23 24  1  0  0  0  0
 24 18  1  0  0  0  0
 25 23  1  0  0  0  0
 27 22  1  0  0  0  0
 28 19  1  0  0  0  0
 29 28  1  0  0  0  0
 30 28  2  0  0  0  0
 31 11  1  0  0  0  0
 32 31  1  0  0  0  0
 33 32  1  0  0  0  0
 34 32  1  0  0  0  0
M  END
>  <MODEL>
5

>  <REMARK>
 VINA RESULT:      -6.0      2.748      3.865
  Name = 
  6 active torsions:
  status: ('A' for Active; 'I' for Inactive)
    1  A    between atoms: C_3  and  C_25
    2  A    between atoms: C_7  and  C_11
    3  A    between atoms: C_8  and  C_17
    4  A    between atoms: C_8  and  N_18
    5  A    between atoms: C_10  and  C_17
    6  A    between atoms: C_25  and  C_27
                            x       y       z     vdW  Elec       q    Type
                         _______ _______ _______ _____ _____    ______ ____

>  <TORSDO>
F 6

$$$$
