=
 OpenBabel11052422363D

 31 34  0  0  1  0  0  0  0  0999 V2000
  161.1950  207.1000  152.2460 C   0  0  2  0  0  3  0  0  0  0  0  0
  161.1660  207.0640  149.7590 C   0  0  1  0  0  3  0  0  0  0  0  0
  162.3120  207.9440  152.1740 O   0  0  0  0  0  0  0  0  0  0  0  0
  161.2790  206.2530  153.4990 C   0  0  0  0  0  1  0  0  0  0  0  0
  161.1570  206.1930  151.0230 C   0  0  0  0  0  2  0  0  0  0  0  0
  162.2040  208.1070  149.8300 N   0  0  0  0  0  0  0  0  0  0  0  0
  162.0640  208.8180  151.1040 C   0  0  0  0  0  2  0  0  0  0  0  0
  161.3050  206.2050  148.4870 C   0  0  2  0  0  3  0  0  0  0  0  0
  160.4190  206.6310  147.4940 O   0  0  0  0  0  1  0  0  0  0  0  0
  161.1820  204.7200  148.7110 C   0  0  0  0  0  0  0  0  0  0  0  0
  160.6440  202.8590  150.1830 C   0  0  0  0  0  3  0  0  0  0  0  0
  160.7900  204.2300  149.9680 C   0  0  0  0  0  3  0  0  0  0  0  0
  160.8730  201.9610  149.1410 C   0  0  0  0  0  3  0  0  0  0  0  0
  161.2490  202.4350  147.8830 C   0  0  0  0  0  3  0  0  0  0  0  0
  161.4130  203.8110  147.6560 C   0  0  0  0  0  0  0  0  0  0  0  0
  161.1990  203.3950  145.2140 C   0  0  0  0  0  1  0  0  0  0  0  0
  163.2740  204.4380  146.1050 C   0  0  0  0  0  1  0  0  0  0  0  0
  161.7720  204.3080  146.2830 C   0  0  0  0  0  3  0  0  0  0  0  0
  161.9220  209.0870  148.7900 C   0  0  0  0  0  2  0  0  0  0  0  0
  161.9080  210.4880  149.3820 C   0  0  0  0  0  2  0  0  0  0  0  0
  162.1230  211.5270  148.2950 C   0  0  0  0  0  2  0  0  0  0  0  0
  158.1800  213.7670  145.6280 C   0  0  0  0  0  0  0  0  0  0  0  0
  160.0480  212.2760  146.1490 C   0  0  0  0  0  3  0  0  0  0  0  0
  159.7600  214.4530  149.2380 S   0  0  0  0  0  0  0  0  0  0  0  0
  161.0210  213.3960  149.5210 N   0  0  0  0  0  0  0  0  0  0  0  0
  157.1910  214.1790  144.7450 O   0  0  0  0  0  1  0  0  0  0  0  0
  161.1150  212.6260  148.4010 C   0  0  0  0  0  0  0  0  0  0  0  0
  159.0410  212.7100  145.2690 C   0  0  0  0  0  3  0  0  0  0  0  0
  159.3210  213.9500  147.7180 C   0  0  0  0  0  0  0  0  0  0  0  0
  160.1770  212.9150  147.3860 C   0  0  0  0  0  0  0  0  0  0  0  0
  158.3150  214.4030  146.8720 C   0  0  0  0  0  3  0  0  0  0  0  0
  1  4  1  1  0  0  0
  2  8  1  6  0  0  0
  2  6  1  0  0  0  0
  2  5  1  0  0  0  0
  3  1  1  0  0  0  0
  5  1  1  0  0  0  0
  6  7  1  0  0  0  0
  7  3  1  0  0  0  0
  8  9  1  6  0  0  0
  8 10  1  0  0  0  0
 10 12  1  0  0  0  0
 12 11  2  0  0  0  0
 13 11  1  0  0  0  0
 14 13  2  0  0  0  0
 15 14  1  0  0  0  0
 15 10  2  0  0  0  0
 16 18  1  0  0  0  0
 17 18  1  0  0  0  0
 18 15  1  0  0  0  0
 19 20  1  0  0  0  0
 19  6  1  0  0  0  0
 21 27  1  0  0  0  0
 21 20  1  0  0  0  0
 22 31  1  0  0  0  0
 23 30  2  0  0  0  0
 24 25  1  0  0  0  0
 26 22  1  0  0  0  0
 27 25  2  0  0  0  0
 28 22  2  0  0  0  0
 28 23  1  0  0  0  0
 29 24  1  0  0  0  0
 30 29  1  0  0  0  0
 30 27  1  0  0  0  0
 31 29  2  0  0  0  0
M  END
>  <MODEL>
1

>  <REMARK>
 VINA RESULT:      -9.4      0.000      0.000
  Name = 
  7 active torsions:
  status: ('A' for Active; 'I' for Inactive)
    1  A    between atoms: C_4  and  C_5
    2  A    between atoms: C_4  and  C_12
    3  A    between atoms: C_9  and  C_23
    4  A    between atoms: C_15  and  C_20
    5  A    between atoms: C_15  and  C_23
    6  A    between atoms: C_20  and  N_27
    7  A    between atoms: C_30  and  C_31
                            x       y       z     vdW  Elec       q    Type
                         _______ _______ _______ _____ _____    ______ ____

>  <TORSDO>
F 7

$$$$
=
 OpenBabel11052422363D

 31 34  0  0  1  0  0  0  0  0999 V2000
  161.1400  207.6410  152.1280 C   0  0  2  0  0  3  0  0  0  0  0  0
  161.2660  207.5360  149.6460 C   0  0  1  0  0  3  0  0  0  0  0  0
  162.2060  208.5520  152.0960 O   0  0  0  0  0  0  0  0  0  0  0  0
  161.2000  206.8360  153.4100 C   0  0  0  0  0  1  0  0  0  0  0  0
  161.2330  206.7010  150.9340 C   0  0  0  0  0  2  0  0  0  0  0  0
  162.2320  208.6440  149.7460 N   0  0  0  0  0  0  0  0  0  0  0  0
  161.9700  209.3790  150.9870 C   0  0  0  0  0  2  0  0  0  0  0  0
  161.5350  206.6530  148.4110 C   0  0  2  0  0  3  0  0  0  0  0  0
  160.8050  207.0990  147.3060 O   0  0  0  0  0  1  0  0  0  0  0  0
  161.3220  205.1770  148.6320 C   0  0  0  0  0  0  0  0  0  0  0  0
  160.6260  203.3530  150.0830 C   0  0  0  0  0  3  0  0  0  0  0  0
  160.8560  204.7140  149.8730 C   0  0  0  0  0  3  0  0  0  0  0  0
  160.8470  202.4410  149.0520 C   0  0  0  0  0  3  0  0  0  0  0  0
  161.2970  202.8900  147.8090 C   0  0  0  0  0  3  0  0  0  0  0  0
  161.5440  204.2550  147.5880 C   0  0  0  0  0  0  0  0  0  0  0  0
  161.2440  203.9780  145.1350 C   0  0  0  0  0  1  0  0  0  0  0  0
  163.4820  204.5810  146.0370 C   0  0  0  0  0  1  0  0  0  0  0  0
  161.9830  204.7270  146.2290 C   0  0  0  0  0  3  0  0  0  0  0  0
  161.9540  209.5760  148.6610 C   0  0  0  0  0  2  0  0  0  0  0  0
  161.9460  211.0030  149.1870 C   0  0  0  0  0  2  0  0  0  0  0  0
  162.5570  211.9490  148.1680 C   0  0  0  0  0  2  0  0  0  0  0  0
  161.8870  213.9690  143.3560 C   0  0  0  0  0  0  0  0  0  0  0  0
  162.9990  213.0100  145.3130 C   0  0  0  0  0  3  0  0  0  0  0  0
  159.3730  213.2620  146.3870 S   0  0  0  0  0  0  0  0  0  0  0  0
  160.2040  212.6050  147.6770 N   0  0  0  0  0  0  0  0  0  0  0  0
  161.9620  214.4530  142.0580 O   0  0  0  0  0  1  0  0  0  0  0  0
  161.5040  212.5270  147.2780 C   0  0  0  0  0  0  0  0  0  0  0  0
  163.0530  213.5050  143.9980 C   0  0  0  0  0  3  0  0  0  0  0  0
  160.6330  213.4460  145.3200 C   0  0  0  0  0  0  0  0  0  0  0  0
  161.7650  212.9860  145.9680 C   0  0  0  0  0  0  0  0  0  0  0  0
  160.6500  213.9420  144.0210 C   0  0  0  0  0  3  0  0  0  0  0  0
  1  4  1  1  0  0  0
  2  8  1  6  0  0  0
  2  6  1  0  0  0  0
  2  5  1  0  0  0  0
  3  1  1  0  0  0  0
  5  1  1  0  0  0  0
  6  7  1  0  0  0  0
  7  3  1  0  0  0  0
  8  9  1  6  0  0  0
  8 10  1  0  0  0  0
 10 12  1  0  0  0  0
 12 11  2  0  0  0  0
 13 11  1  0  0  0  0
 14 13  2  0  0  0  0
 15 14  1  0  0  0  0
 15 10  2  0  0  0  0
 16 18  1  0  0  0  0
 17 18  1  0  0  0  0
 18 15  1  0  0  0  0
 19 20  1  0  0  0  0
 19  6  1  0  0  0  0
 21 20  1  0  0  0  0
 22 28  2  0  0  0  0
 22 31  1  0  0  0  0
 23 30  2  0  0  0  0
 24 25  1  0  0  0  0
 26 22  1  0  0  0  0
 27 25  2  0  0  0  0
 27 21  1  0  0  0  0
 28 23  1  0  0  0  0
 29 30  1  0  0  0  0
 29 24  1  0  0  0  0
 30 27  1  0  0  0  0
 31 29  2  0  0  0  0
M  END
>  <MODEL>
2

>  <REMARK>
 VINA RESULT:      -9.3      1.811      2.008
  Name = 
  7 active torsions:
  status: ('A' for Active; 'I' for Inactive)
    1  A    between atoms: C_4  and  C_5
    2  A    between atoms: C_4  and  C_12
    3  A    between atoms: C_9  and  C_23
    4  A    between atoms: C_15  and  C_20
    5  A    between atoms: C_15  and  C_23
    6  A    between atoms: C_20  and  N_27
    7  A    between atoms: C_30  and  C_31
                            x       y       z     vdW  Elec       q    Type
                         _______ _______ _______ _____ _____    ______ ____

>  <TORSDO>
F 7

$$$$
=
 OpenBabel11052422363D

 31 34  0  0  1  0  0  0  0  0999 V2000
  161.7830  209.2690  150.2310 C   0  0  2  0  0  3  0  0  0  0  0  0
  161.1450  208.2960  152.4300 C   0  0  1  0  0  3  0  0  0  0  0  0
  162.6940  208.2130  150.0820 O   0  0  0  0  0  0  0  0  0  0  0  0
  162.3120  210.4990  149.5250 C   0  0  0  0  0  1  0  0  0  0  0  0
  161.5920  209.5760  151.7110 C   0  0  0  0  0  2  0  0  0  0  0  0
  161.9840  207.1450  152.0540 N   0  0  0  0  0  0  0  0  0  0  0  0
  162.0490  207.0750  150.5910 C   0  0  0  0  0  2  0  0  0  0  0  0
  161.1030  208.4960  153.9580 C   0  0  2  0  0  3  0  0  0  0  0  0
  160.3530  207.4920  154.5760 O   0  0  0  0  0  1  0  0  0  0  0  0
  160.6400  209.8600  154.4030 C   0  0  0  0  0  0  0  0  0  0  0  0
  159.0700  211.7080  154.2100 C   0  0  0  0  0  3  0  0  0  0  0  0
  159.5280  210.4580  153.7890 C   0  0  0  0  0  3  0  0  0  0  0  0
  159.7100  212.3680  155.2590 C   0  0  0  0  0  3  0  0  0  0  0  0
  160.8080  211.7780  155.8880 C   0  0  0  0  0  3  0  0  0  0  0  0
  161.2870  210.5270  155.4660 C   0  0  0  0  0  0  0  0  0  0  0  0
  161.9430  208.9370  157.2610 C   0  0  0  0  0  1  0  0  0  0  0  0
  163.3730  210.9170  156.7920 C   0  0  0  0  0  1  0  0  0  0  0  0
  162.4400  209.8840  156.1840 C   0  0  0  0  0  3  0  0  0  0  0  0
  161.2970  205.9330  152.4820 C   0  0  0  0  0  2  0  0  0  0  0  0
  161.7060  204.7610  151.6040 C   0  0  0  0  0  2  0  0  0  0  0  0
  160.5000  203.9000  151.2700 C   0  0  0  0  0  2  0  0  0  0  0  0
  161.5230  204.2520  146.1220 C   0  0  0  0  0  0  0  0  0  0  0  0
  160.9980  204.9290  148.4130 C   0  0  0  0  0  3  0  0  0  0  0  0
  161.1900  201.1500  148.6260 S   0  0  0  0  0  0  0  0  0  0  0  0
  160.8380  201.6930  150.1650 N   0  0  0  0  0  0  0  0  0  0  0  0
  161.7820  204.5990  144.8030 O   0  0  0  0  0  1  0  0  0  0  0  0
  160.7670  203.0500  150.0700 C   0  0  0  0  0  0  0  0  0  0  0  0
  161.2610  205.2600  147.0720 C   0  0  0  0  0  3  0  0  0  0  0  0
  161.2620  202.6090  147.8350 C   0  0  0  0  0  0  0  0  0  0  0  0
  161.0030  203.5810  148.7830 C   0  0  0  0  0  0  0  0  0  0  0  0
  161.5260  202.9000  146.5010 C   0  0  0  0  0  3  0  0  0  0  0  0
  1  4  1  6  0  0  0
  1  5  1  0  0  0  0
  2  8  1  1  0  0  0
  3  1  1  0  0  0  0
  3  7  1  0  0  0  0
  5  2  1  0  0  0  0
  6  2  1  0  0  0  0
  6 19  1  0  0  0  0
  7  6  1  0  0  0  0
  8 10  1  0  0  0  0
  8  9  1  1  0  0  0
 10 15  1  0  0  0  0
 11 13  2  0  0  0  0
 12 11  1  0  0  0  0
 12 10  2  0  0  0  0
 13 14  1  0  0  0  0
 15 14  2  0  0  0  0
 15 18  1  0  0  0  0
 18 17  1  0  0  0  0
 18 16  1  0  0  0  0
 20 19  1  0  0  0  0
 21 20  1  0  0  0  0
 22 31  2  0  0  0  0
 22 28  1  0  0  0  0
 23 30  1  0  0  0  0
 24 25  1  0  0  0  0
 26 22  1  0  0  0  0
 27 25  2  0  0  0  0
 27 21  1  0  0  0  0
 28 23  2  0  0  0  0
 29 24  1  0  0  0  0
 29 30  2  0  0  0  0
 30 27  1  0  0  0  0
 31 29  1  0  0  0  0
M  END
>  <MODEL>
3

>  <REMARK>
 VINA RESULT:      -9.3      4.206      8.960
  Name = 
  7 active torsions:
  status: ('A' for Active; 'I' for Inactive)
    1  A    between atoms: C_4  and  C_5
    2  A    between atoms: C_4  and  C_12
    3  A    between atoms: C_9  and  C_23
    4  A    between atoms: C_15  and  C_20
    5  A    between atoms: C_15  and  C_23
    6  A    between atoms: C_20  and  N_27
    7  A    between atoms: C_30  and  C_31
                            x       y       z     vdW  Elec       q    Type
                         _______ _______ _______ _____ _____    ______ ____

>  <TORSDO>
F 7

$$$$
=
 OpenBabel11052422363D

 31 34  0  0  1  0  0  0  0  0999 V2000
  158.7530  212.9840  152.3490 C   0  0  2  0  0  3  0  0  0  0  0  0
  159.0170  210.9060  153.6900 C   0  0  1  0  0  3  0  0  0  0  0  0
  160.0940  212.8480  151.9610 O   0  0  0  0  0  0  0  0  0  0  0  0
  158.3840  214.4530  152.3950 C   0  0  0  0  0  1  0  0  0  0  0  0
  158.5520  212.3680  153.7270 C   0  0  0  0  0  2  0  0  0  0  0  0
  160.3360  210.7750  153.0460 N   0  0  0  0  0  0  0  0  0  0  0  0
  160.2970  211.4740  151.7580 C   0  0  0  0  0  2  0  0  0  0  0  0
  159.0030  210.2760  155.0970 C   0  0  2  0  0  3  0  0  0  0  0  0
  158.0940  210.9310  155.9310 O   0  0  0  0  0  1  0  0  0  0  0  0
  160.3550  210.1730  155.7550 C   0  0  0  0  0  0  0  0  0  0  0  0
  162.3200  211.2590  156.6920 C   0  0  0  0  0  3  0  0  0  0  0  0
  161.0790  211.3370  156.0560 C   0  0  0  0  0  3  0  0  0  0  0  0
  162.8440  210.0170  157.0480 C   0  0  0  0  0  3  0  0  0  0  0  0
  162.1280  208.8520  156.7670 C   0  0  0  0  0  3  0  0  0  0  0  0
  160.8840  208.9150  156.1160 C   0  0  0  0  0  0  0  0  0  0  0  0
  159.9660  206.8440  157.1400 C   0  0  0  0  0  1  0  0  0  0  0  0
  160.7380  206.8060  154.7760 C   0  0  0  0  0  1  0  0  0  0  0  0
  160.1040  207.6550  155.8650 C   0  0  0  0  0  3  0  0  0  0  0  0
  160.5420  209.3680  152.7320 C   0  0  0  0  0  2  0  0  0  0  0  0
  161.2630  209.2290  151.4000 C   0  0  0  0  0  2  0  0  0  0  0  0
  162.1130  207.9700  151.3840 C   0  0  0  0  0  2  0  0  0  0  0  0
  160.9110  202.9450  150.3930 C   0  0  0  0  0  0  0  0  0  0  0  0
  161.6050  204.9440  151.6210 C   0  0  0  0  0  3  0  0  0  0  0  0
  161.0150  206.2230  148.1020 S   0  0  0  0  0  0  0  0  0  0  0  0
  161.4900  207.5400  149.0100 N   0  0  0  0  0  0  0  0  0  0  0  0
  160.6340  201.5850  150.3830 O   0  0  0  0  0  1  0  0  0  0  0  0
  161.7040  207.0640  150.2680 C   0  0  0  0  0  0  0  0  0  0  0  0
  161.3210  203.5670  151.5890 C   0  0  0  0  0  3  0  0  0  0  0  0
  161.0670  205.0510  149.2780 C   0  0  0  0  0  0  0  0  0  0  0  0
  161.4710  205.6820  150.4410 C   0  0  0  0  0  0  0  0  0  0  0  0
  160.7780  203.6930  149.2110 C   0  0  0  0  0  3  0  0  0  0  0  0
  1  4  1  1  0  0  0
  1  5  1  0  0  0  0
  2  5  1  0  0  0  0
  2  8  1  1  0  0  0
  3  1  1  0  0  0  0
  6  2  1  0  0  0  0
  7  3  1  0  0  0  0
  7  6  1  0  0  0  0
  8 10  1  0  0  0  0
  8  9  1  1  0  0  0
 10 12  2  0  0  0  0
 10 15  1  0  0  0  0
 11 13  2  0  0  0  0
 12 11  1  0  0  0  0
 14 13  1  0  0  0  0
 15 14  2  0  0  0  0
 17 18  1  0  0  0  0
 18 15  1  0  0  0  0
 18 16  1  0  0  0  0
 19  6  1  0  0  0  0
 20 19  1  0  0  0  0
 21 20  1  0  0  0  0
 22 28  1  0  0  0  0
 24 25  1  0  0  0  0
 24 29  1  0  0  0  0
 25 27  2  0  0  0  0
 26 22  1  0  0  0  0
 27 30  1  0  0  0  0
 27 21  1  0  0  0  0
 28 23  2  0  0  0  0
 29 30  2  0  0  0  0
 30 23  1  0  0  0  0
 31 29  1  0  0  0  0
 31 22  2  0  0  0  0
M  END
>  <MODEL>
4

>  <REMARK>
 VINA RESULT:      -9.2      4.082      8.858
  Name = 
  7 active torsions:
  status: ('A' for Active; 'I' for Inactive)
    1  A    between atoms: C_4  and  C_5
    2  A    between atoms: C_4  and  C_12
    3  A    between atoms: C_9  and  C_23
    4  A    between atoms: C_15  and  C_20
    5  A    between atoms: C_15  and  C_23
    6  A    between atoms: C_20  and  N_27
    7  A    between atoms: C_30  and  C_31
                            x       y       z     vdW  Elec       q    Type
                         _______ _______ _______ _____ _____    ______ ____

>  <TORSDO>
F 7

$$$$
=
 OpenBabel11052422363D

 31 34  0  0  1  0  0  0  0  0999 V2000
  160.7450  207.5740  155.8280 C   0  0  2  0  0  3  0  0  0  0  0  0
  160.7610  209.5450  154.3110 C   0  0  1  0  0  3  0  0  0  0  0  0
  160.5350  206.7670  154.7000 O   0  0  0  0  0  0  0  0  0  0  0  0
  160.0840  206.9410  157.0350 C   0  0  0  0  0  1  0  0  0  0  0  0
  160.1490  208.9550  155.5890 C   0  0  0  0  0  2  0  0  0  0  0  0
  160.7440  208.5710  153.2050 N   0  0  0  0  0  0  0  0  0  0  0  0
  161.3320  207.3150  153.6830 C   0  0  0  0  0  2  0  0  0  0  0  0
  160.0720  210.8670  153.9170 C   0  0  2  0  0  3  0  0  0  0  0  0
  160.8270  211.5650  152.9710 O   0  0  0  0  0  1  0  0  0  0  0  0
  159.7110  211.7600  155.0760 C   0  0  0  0  0  0  0  0  0  0  0  0
  160.3900  213.0260  157.0390 C   0  0  0  0  0  3  0  0  0  0  0  0
  160.7040  212.1760  155.9780 C   0  0  0  0  0  3  0  0  0  0  0  0
  159.0830  213.4820  157.2050 C   0  0  0  0  0  3  0  0  0  0  0  0
  158.0880  213.0880  156.3080 C   0  0  0  0  0  3  0  0  0  0  0  0
  158.3880  212.2220  155.2420 C   0  0  0  0  0  0  0  0  0  0  0  0
  157.0530  212.9830  153.2880 C   0  0  0  0  0  1  0  0  0  0  0  0
  156.0250  211.4480  154.9530 C   0  0  0  0  0  1  0  0  0  0  0  0
  157.3150  211.8460  154.2580 C   0  0  0  0  0  3  0  0  0  0  0  0
  161.6390  209.0620  152.1660 C   0  0  0  0  0  2  0  0  0  0  0  0
  162.0250  207.9280  151.2290 C   0  0  0  0  0  2  0  0  0  0  0  0
  160.8110  207.4370  150.4600 C   0  0  0  0  0  2  0  0  0  0  0  0
  161.1950  202.5750  148.4860 C   0  0  0  0  0  0  0  0  0  0  0  0
  160.7740  204.3830  150.0790 C   0  0  0  0  0  3  0  0  0  0  0  0
  161.9560  206.1980  146.9690 S   0  0  0  0  0  0  0  0  0  0  0  0
  161.6400  207.3740  148.1110 N   0  0  0  0  0  0  0  0  0  0  0  0
  161.2000  201.2180  148.1920 O   0  0  0  0  0  1  0  0  0  0  0  0
  161.2230  206.7060  149.2230 C   0  0  0  0  0  0  0  0  0  0  0  0
  160.7880  203.0130  149.7620 C   0  0  0  0  0  3  0  0  0  0  0  0
  161.5670  204.8490  147.8560 C   0  0  0  0  0  0  0  0  0  0  0  0
  161.1710  205.3000  149.1020 C   0  0  0  0  0  0  0  0  0  0  0  0
  161.5920  203.5020  147.5090 C   0  0  0  0  0  3  0  0  0  0  0  0
  1  4  1  1  0  0  0
  2  8  1  6  0  0  0
  2  5  1  0  0  0  0
  3  1  1  0  0  0  0
  5  1  1  0  0  0  0
  6  7  1  0  0  0  0
  6  2  1  0  0  0  0
  7  3  1  0  0  0  0
  8  9  1  6  0  0  0
  8 10  1  0  0  0  0
 10 15  2  0  0  0  0
 10 12  1  0  0  0  0
 11 13  1  0  0  0  0
 12 11  2  0  0  0  0
 14 13  2  0  0  0  0
 15 14  1  0  0  0  0
 16 18  1  0  0  0  0
 18 17  1  0  0  0  0
 18 15  1  0  0  0  0
 19  6  1  0  0  0  0
 20 19  1  0  0  0  0
 21 20  1  0  0  0  0
 22 28  1  0  0  0  0
 24 29  1  0  0  0  0
 24 25  1  0  0  0  0
 25 27  2  0  0  0  0
 26 22  1  0  0  0  0
 27 21  1  0  0  0  0
 28 23  2  0  0  0  0
 29 30  2  0  0  0  0
 30 27  1  0  0  0  0
 30 23  1  0  0  0  0
 31 29  1  0  0  0  0
 31 22  2  0  0  0  0
M  END
>  <MODEL>
5

>  <REMARK>
 VINA RESULT:      -9.0      4.566      9.168
  Name = 
  7 active torsions:
  status: ('A' for Active; 'I' for Inactive)
    1  A    between atoms: C_4  and  C_5
    2  A    between atoms: C_4  and  C_12
    3  A    between atoms: C_9  and  C_23
    4  A    between atoms: C_15  and  C_20
    5  A    between atoms: C_15  and  C_23
    6  A    between atoms: C_20  and  N_27
    7  A    between atoms: C_30  and  C_31
                            x       y       z     vdW  Elec       q    Type
                         _______ _______ _______ _____ _____    ______ ____

>  <TORSDO>
F 7

$$$$
=
 OpenBabel11052422363D

 31 34  0  0  1  0  0  0  0  0999 V2000
  160.7860  207.6630  156.1000 C   0  0  2  0  0  3  0  0  0  0  0  0
  160.9510  209.8830  154.9900 C   0  0  1  0  0  3  0  0  0  0  0  0
  160.2940  207.1490  154.8910 O   0  0  0  0  0  0  0  0  0  0  0  0
  160.1850  206.8960  157.2600 C   0  0  0  0  0  1  0  0  0  0  0  0
  160.4150  209.1360  156.2190 C   0  0  0  0  0  2  0  0  0  0  0  0
  160.6210  209.1740  153.7410 N   0  0  0  0  0  0  0  0  0  0  0  0
  161.0360  207.7740  153.8770 C   0  0  0  0  0  2  0  0  0  0  0  0
  160.4600  211.3440  154.9640 C   0  0  2  0  0  3  0  0  0  0  0  0
  160.9860  212.0700  156.0350 O   0  0  0  0  0  1  0  0  0  0  0  0
  158.9630  211.5060  154.8920 C   0  0  0  0  0  0  0  0  0  0  0  0
  156.7610  211.0930  155.8410 C   0  0  0  0  0  3  0  0  0  0  0  0
  158.1470  210.9270  155.8780 C   0  0  0  0  0  3  0  0  0  0  0  0
  156.1760  211.8500  154.8270 C   0  0  0  0  0  3  0  0  0  0  0  0
  156.9760  212.4420  153.8490 C   0  0  0  0  0  3  0  0  0  0  0  0
  158.3710  212.2730  153.8670 C   0  0  0  0  0  0  0  0  0  0  0  0
  158.9420  214.4490  152.8070 C   0  0  0  0  0  1  0  0  0  0  0  0
  159.0160  212.3660  151.4500 C   0  0  0  0  0  1  0  0  0  0  0  0
  159.2230  212.9580  152.8330 C   0  0  0  0  0  3  0  0  0  0  0  0
  161.4470  209.7350  152.6790 C   0  0  0  0  0  2  0  0  0  0  0  0
  161.1310  209.0540  151.3570 C   0  0  0  0  0  2  0  0  0  0  0  0
  162.3250  208.2470  150.8760 C   0  0  0  0  0  2  0  0  0  0  0  0
  160.8290  203.2890  149.9510 C   0  0  0  0  0  0  0  0  0  0  0  0
  161.5740  205.2770  151.1660 C   0  0  0  0  0  3  0  0  0  0  0  0
  161.3550  206.4630  147.5730 S   0  0  0  0  0  0  0  0  0  0  0  0
  161.8570  207.7750  148.4750 N   0  0  0  0  0  0  0  0  0  0  0  0
  160.4520  201.9530  149.9630 O   0  0  0  0  0  1  0  0  0  0  0  0
  161.9360  207.3320  149.7600 C   0  0  0  0  0  0  0  0  0  0  0  0
  161.1910  203.9240  151.1560 C   0  0  0  0  0  3  0  0  0  0  0  0
  161.2280  205.3350  148.7860 C   0  0  0  0  0  0  0  0  0  0  0  0
  161.5880  205.9770  149.9570 C   0  0  0  0  0  0  0  0  0  0  0  0
  160.8440  203.9990  148.7400 C   0  0  0  0  0  3  0  0  0  0  0  0
  1  5  1  0  0  0  0
  1  4  1  1  0  0  0
  2  8  1  6  0  0  0
  2  5  1  0  0  0  0
  3  1  1  0  0  0  0
  6  7  1  0  0  0  0
  6  2  1  0  0  0  0
  7  3  1  0  0  0  0
  8  9  1  1  0  0  0
 10  8  1  0  0  0  0
 10 12  1  0  0  0  0
 11 12  2  0  0  0  0
 13 11  1  0  0  0  0
 14 15  1  0  0  0  0
 14 13  2  0  0  0  0
 15 10  2  0  0  0  0
 16 18  1  0  0  0  0
 17 18  1  0  0  0  0
 18 15  1  0  0  0  0
 19  6  1  0  0  0  0
 20 19  1  0  0  0  0
 21 20  1  0  0  0  0
 22 26  1  0  0  0  0
 22 28  1  0  0  0  0
 24 25  1  0  0  0  0
 24 29  1  0  0  0  0
 25 27  2  0  0  0  0
 27 30  1  0  0  0  0
 27 21  1  0  0  0  0
 28 23  2  0  0  0  0
 29 30  2  0  0  0  0
 30 23  1  0  0  0  0
 31 29  1  0  0  0  0
 31 22  2  0  0  0  0
M  END
>  <MODEL>
6

>  <REMARK>
 VINA RESULT:      -8.9      4.293      8.786
  Name = 
  7 active torsions:
  status: ('A' for Active; 'I' for Inactive)
    1  A    between atoms: C_4  and  C_5
    2  A    between atoms: C_4  and  C_12
    3  A    between atoms: C_9  and  C_23
    4  A    between atoms: C_15  and  C_20
    5  A    between atoms: C_15  and  C_23
    6  A    between atoms: C_20  and  N_27
    7  A    between atoms: C_30  and  C_31
                            x       y       z     vdW  Elec       q    Type
                         _______ _______ _______ _____ _____    ______ ____

>  <TORSDO>
F 7

$$$$
=
 OpenBabel11052422363D

 31 34  0  0  1  0  0  0  0  0999 V2000
  160.2730  212.3810  150.3770 C   0  0  2  0  0  3  0  0  0  0  0  0
  161.0610  210.7090  152.0420 C   0  0  1  0  0  3  0  0  0  0  0  0
  161.4360  212.1220  149.6370 O   0  0  0  0  0  0  0  0  0  0  0  0
  159.8480  213.8190  150.1670 C   0  0  0  0  0  1  0  0  0  0  0  0
  160.5430  212.1420  151.8570 C   0  0  0  0  0  2  0  0  0  0  0  0
  162.1240  210.3900  151.0730 N   0  0  0  0  0  0  0  0  0  0  0  0
  161.6500  210.7370  149.7300 C   0  0  0  0  0  2  0  0  0  0  0  0
  161.5180  210.4600  153.4930 C   0  0  2  0  0  3  0  0  0  0  0  0
  162.9120  210.4290  153.5830 O   0  0  0  0  0  1  0  0  0  0  0  0
  160.9120  209.2440  154.1460 C   0  0  0  0  0  0  0  0  0  0  0  0
  160.7510  206.8240  154.3270 C   0  0  0  0  0  3  0  0  0  0  0  0
  161.2810  207.9600  153.7140 C   0  0  0  0  0  3  0  0  0  0  0  0
  159.8570  206.9570  155.3900 C   0  0  0  0  0  3  0  0  0  0  0  0
  159.4930  208.2280  155.8390 C   0  0  0  0  0  3  0  0  0  0  0  0
  160.0100  209.3800  155.2220 C   0  0  0  0  0  0  0  0  0  0  0  0
  159.7840  210.7870  157.2590 C   0  0  0  0  0  1  0  0  0  0  0  0
  158.2380  211.1440  155.3440 C   0  0  0  0  0  1  0  0  0  0  0  0
  159.6450  210.7400  155.7480 C   0  0  0  0  0  3  0  0  0  0  0  0
  162.3080  208.9450  151.0720 C   0  0  0  0  0  2  0  0  0  0  0  0
  161.9770  208.3770  149.7010 C   0  0  0  0  0  2  0  0  0  0  0  0
  161.2050  207.0750  149.8360 C   0  0  0  0  0  2  0  0  0  0  0  0
  161.0000  202.0210  148.3890 C   0  0  0  0  0  0  0  0  0  0  0  0
  160.8690  204.0170  149.7990 C   0  0  0  0  0  3  0  0  0  0  0  0
  161.9550  205.3780  146.4320 S   0  0  0  0  0  0  0  0  0  0  0  0
  161.8360  206.6900  147.4570 N   0  0  0  0  0  0  0  0  0  0  0  0
  160.8620  200.6470  148.2480 O   0  0  0  0  0  1  0  0  0  0  0  0
  161.4510  206.1840  148.6620 C   0  0  0  0  0  0  0  0  0  0  0  0
  160.7370  202.6270  149.6350 C   0  0  0  0  0  3  0  0  0  0  0  0
  161.5200  204.1710  147.4880 C   0  0  0  0  0  0  0  0  0  0  0  0
  161.2660  204.7850  148.7010 C   0  0  0  0  0  0  0  0  0  0  0  0
  161.3990  202.8000  147.2910 C   0  0  0  0  0  3  0  0  0  0  0  0
  1  4  1  1  0  0  0
  1  5  1  0  0  0  0
  2  8  1  1  0  0  0
  3  7  1  0  0  0  0
  3  1  1  0  0  0  0
  5  2  1  0  0  0  0
  6  2  1  0  0  0  0
  7  6  1  0  0  0  0
  8  9  1  6  0  0  0
  8 10  1  0  0  0  0
 10 15  1  0  0  0  0
 11 13  2  0  0  0  0
 12 10  2  0  0  0  0
 12 11  1  0  0  0  0
 13 14  1  0  0  0  0
 15 18  1  0  0  0  0
 15 14  2  0  0  0  0
 17 18  1  0  0  0  0
 18 16  1  0  0  0  0
 19  6  1  0  0  0  0
 20 21  1  0  0  0  0
 20 19  1  0  0  0  0
 22 28  1  0  0  0  0
 24 25  1  0  0  0  0
 24 29  1  0  0  0  0
 25 27  2  0  0  0  0
 26 22  1  0  0  0  0
 27 30  1  0  0  0  0
 27 21  1  0  0  0  0
 28 23  2  0  0  0  0
 29 30  2  0  0  0  0
 30 23  1  0  0  0  0
 31 29  1  0  0  0  0
 31 22  2  0  0  0  0
M  END
>  <MODEL>
7

>  <REMARK>
 VINA RESULT:      -8.8      3.424      8.532
  Name = 
  7 active torsions:
  status: ('A' for Active; 'I' for Inactive)
    1  A    between atoms: C_4  and  C_5
    2  A    between atoms: C_4  and  C_12
    3  A    between atoms: C_9  and  C_23
    4  A    between atoms: C_15  and  C_20
    5  A    between atoms: C_15  and  C_23
    6  A    between atoms: C_20  and  N_27
    7  A    between atoms: C_30  and  C_31
                            x       y       z     vdW  Elec       q    Type
                         _______ _______ _______ _____ _____    ______ ____

>  <TORSDO>
F 7

$$$$
=
 OpenBabel11052422363D

 31 34  0  0  1  0  0  0  0  0999 V2000
  161.6570  206.3650  153.1410 C   0  0  2  0  0  3  0  0  0  0  0  0
  161.5050  208.6540  152.1800 C   0  0  1  0  0  3  0  0  0  0  0  0
  161.2040  205.8690  151.9100 O   0  0  0  0  0  0  0  0  0  0  0  0
  161.1920  205.4530  154.2570 C   0  0  0  0  0  1  0  0  0  0  0  0
  161.1030  207.7660  153.3650 C   0  0  0  0  0  2  0  0  0  0  0  0
  161.2370  207.9900  150.8930 N   0  0  0  0  0  0  0  0  0  0  0  0
  161.8320  206.6510  150.9270 C   0  0  0  0  0  2  0  0  0  0  0  0
  160.8290  210.0380  152.2610 C   0  0  2  0  0  3  0  0  0  0  0  0
  161.3730  210.9180  151.3220 O   0  0  0  0  0  1  0  0  0  0  0  0
  160.8220  210.6570  153.6340 C   0  0  0  0  0  0  0  0  0  0  0  0
  161.9400  211.0660  155.7560 C   0  0  0  0  0  3  0  0  0  0  0  0
  161.9190  210.4740  154.4920 C   0  0  0  0  0  3  0  0  0  0  0  0
  160.8710  211.8590  156.1730 C   0  0  0  0  0  3  0  0  0  0  0  0
  159.7800  212.0610  155.3250 C   0  0  0  0  0  3  0  0  0  0  0  0
  159.7410  211.4610  154.0550 C   0  0  0  0  0  0  0  0  0  0  0  0
  158.7600  213.0500  152.4140 C   0  0  0  0  0  1  0  0  0  0  0  0
  157.2570  211.7150  153.8790 C   0  0  0  0  0  1  0  0  0  0  0  0
  158.5810  211.7270  153.1360 C   0  0  0  0  0  3  0  0  0  0  0  0
  161.9550  208.7210  149.8560 C   0  0  0  0  0  2  0  0  0  0  0  0
  162.3370  207.7810  148.7230 C   0  0  0  0  0  2  0  0  0  0  0  0
  161.0950  207.2810  148.0050 C   0  0  0  0  0  2  0  0  0  0  0  0
  161.1390  202.0250  148.2490 C   0  0  0  0  0  0  0  0  0  0  0  0
  160.8900  204.3570  148.9450 C   0  0  0  0  0  3  0  0  0  0  0  0
  161.9960  204.6230  145.3300 S   0  0  0  0  0  0  0  0  0  0  0  0
  161.7970  206.1870  145.8800 N   0  0  0  0  0  0  0  0  0  0  0  0
  161.0630  200.6730  148.5540 O   0  0  0  0  0  1  0  0  0  0  0  0
  161.4060  206.0740  147.1800 C   0  0  0  0  0  0  0  0  0  0  0  0
  160.8210  202.9830  149.2330 C   0  0  0  0  0  3  0  0  0  0  0  0
  161.5880  203.7970  146.7120 C   0  0  0  0  0  0  0  0  0  0  0  0
  161.2800  204.7530  147.6630 C   0  0  0  0  0  0  0  0  0  0  0  0
  161.5300  202.4310  146.9630 C   0  0  0  0  0  3  0  0  0  0  0  0
  1  5  1  0  0  0  0
  1  4  1  1  0  0  0
  2  8  1  6  0  0  0
  2  5  1  0  0  0  0
  3  1  1  0  0  0  0
  6  7  1  0  0  0  0
  6  2  1  0  0  0  0
  7  3  1  0  0  0  0
  8  9  1  6  0  0  0
  8 10  1  0  0  0  0
 10 15  2  0  0  0  0
 10 12  1  0  0  0  0
 11 13  1  0  0  0  0
 12 11  2  0  0  0  0
 14 13  2  0  0  0  0
 15 14  1  0  0  0  0
 16 18  1  0  0  0  0
 18 17  1  0  0  0  0
 18 15  1  0  0  0  0
 19  6  1  0  0  0  0
 20 19  1  0  0  0  0
 21 20  1  0  0  0  0
 22 26  1  0  0  0  0
 22 28  1  0  0  0  0
 23 28  2  0  0  0  0
 24 25  1  0  0  0  0
 24 29  1  0  0  0  0
 25 27  2  0  0  0  0
 27 30  1  0  0  0  0
 27 21  1  0  0  0  0
 29 31  1  0  0  0  0
 29 30  2  0  0  0  0
 30 23  1  0  0  0  0
 31 22  2  0  0  0  0
M  END
>  <MODEL>
8

>  <REMARK>
 VINA RESULT:      -8.5      4.015      8.547
  Name = 
  7 active torsions:
  status: ('A' for Active; 'I' for Inactive)
    1  A    between atoms: C_4  and  C_5
    2  A    between atoms: C_4  and  C_12
    3  A    between atoms: C_9  and  C_23
    4  A    between atoms: C_15  and  C_20
    5  A    between atoms: C_15  and  C_23
    6  A    between atoms: C_20  and  N_27
    7  A    between atoms: C_30  and  C_31
                            x       y       z     vdW  Elec       q    Type
                         _______ _______ _______ _____ _____    ______ ____

>  <TORSDO>
F 7

$$$$
=
 OpenBabel11052422363D

 31 34  0  0  1  0  0  0  0  0999 V2000
  160.7660  207.5980  155.9890 C   0  0  2  0  0  3  0  0  0  0  0  0
  160.8790  209.6850  154.6400 C   0  0  1  0  0  3  0  0  0  0  0  0
  160.1900  206.9670  154.8770 O   0  0  0  0  0  0  0  0  0  0  0  0
  160.2360  206.9690  157.2610 C   0  0  0  0  0  1  0  0  0  0  0  0
  160.4180  209.0810  155.9740 C   0  0  0  0  0  2  0  0  0  0  0  0
  160.4610  208.8530  153.4980 N   0  0  0  0  0  0  0  0  0  0  0  0
  160.8700  207.4690  153.7560 C   0  0  0  0  0  2  0  0  0  0  0  0
  160.4020  211.1430  154.4900 C   0  0  2  0  0  3  0  0  0  0  0  0
  161.0540  211.9810  155.3970 O   0  0  0  0  0  1  0  0  0  0  0  0
  158.9080  211.3290  154.5670 C   0  0  0  0  0  0  0  0  0  0  0  0
  156.7950  210.8820  155.6860 C   0  0  0  0  0  3  0  0  0  0  0  0
  158.1740  210.6960  155.5830 C   0  0  0  0  0  3  0  0  0  0  0  0
  156.1340  211.7150  154.7830 C   0  0  0  0  0  3  0  0  0  0  0  0
  156.8540  212.3620  153.7760 C   0  0  0  0  0  3  0  0  0  0  0  0
  158.2410  212.1730  153.6540 C   0  0  0  0  0  0  0  0  0  0  0  0
  159.2380  214.3570  153.0070 C   0  0  0  0  0  1  0  0  0  0  0  0
  158.3040  212.8650  151.2500 C   0  0  0  0  0  1  0  0  0  0  0  0
  159.0080  212.9140  152.5950 C   0  0  0  0  0  3  0  0  0  0  0  0
  161.2200  209.2840  152.3310 C   0  0  0  0  0  2  0  0  0  0  0  0
  161.7860  208.0760  151.6000 C   0  0  0  0  0  2  0  0  0  0  0  0
  160.9160  207.7220  150.4060 C   0  0  0  0  0  2  0  0  0  0  0  0
  161.5800  204.2830  146.4810 C   0  0  0  0  0  0  0  0  0  0  0  0
  161.3430  206.4180  147.6520 C   0  0  0  0  0  3  0  0  0  0  0  0
  160.9750  203.8460  150.4110 S   0  0  0  0  0  0  0  0  0  0  0  0
  160.8290  205.3420  151.1370 N   0  0  0  0  0  0  0  0  0  0  0  0
  161.7860  203.5850  145.2990 O   0  0  0  0  0  1  0  0  0  0  0  0
  160.9580  206.2540  150.1330 C   0  0  0  0  0  0  0  0  0  0  0  0
  161.5490  205.6920  146.4650 C   0  0  0  0  0  3  0  0  0  0  0  0
  161.2060  204.3300  148.8390 C   0  0  0  0  0  0  0  0  0  0  0  0
  161.1720  205.7120  148.8460 C   0  0  0  0  0  0  0  0  0  0  0  0
  161.4070  203.5810  147.6850 C   0  0  0  0  0  3  0  0  0  0  0  0
  1  4  1  1  0  0  0
  2  8  1  6  0  0  0
  2  5  1  0  0  0  0
  3  1  1  0  0  0  0
  5  1  1  0  0  0  0
  6  7  1  0  0  0  0
  6  2  1  0  0  0  0
  7  3  1  0  0  0  0
  8 10  1  0  0  0  0
  8  9  1  1  0  0  0
 10 12  1  0  0  0  0
 12 11  2  0  0  0  0
 13 11  1  0  0  0  0
 14 13  2  0  0  0  0
 15 14  1  0  0  0  0
 15 10  2  0  0  0  0
 17 18  1  0  0  0  0
 18 16  1  0  0  0  0
 18 15  1  0  0  0  0
 19  6  1  0  0  0  0
 20 19  1  0  0  0  0
 21 20  1  0  0  0  0
 22 31  1  0  0  0  0
 23 30  2  0  0  0  0
 24 25  1  0  0  0  0
 26 22  1  0  0  0  0
 27 21  1  0  0  0  0
 27 25  2  0  0  0  0
 28 22  2  0  0  0  0
 28 23  1  0  0  0  0
 29 30  1  0  0  0  0
 29 24  1  0  0  0  0
 30 27  1  0  0  0  0
 31 29  2  0  0  0  0
M  END
>  <MODEL>
9

>  <REMARK>
 VINA RESULT:      -8.4      4.342      8.591
  Name = 
  7 active torsions:
  status: ('A' for Active; 'I' for Inactive)
    1  A    between atoms: C_4  and  C_5
    2  A    between atoms: C_4  and  C_12
    3  A    between atoms: C_9  and  C_23
    4  A    between atoms: C_15  and  C_20
    5  A    between atoms: C_15  and  C_23
    6  A    between atoms: C_20  and  N_27
    7  A    between atoms: C_30  and  C_31
                            x       y       z     vdW  Elec       q    Type
                         _______ _______ _______ _____ _____    ______ ____

>  <TORSDO>
F 7

$$$$
