=
 OpenBabel11052423073D

 27 30  0  0  1  0  0  0  0  0999 V2000
  161.5260  207.3290  155.3010 O   0  0  0  0  0  1  0  0  0  0  0  0
  160.3330  209.3310  152.4350 N   0  0  0  0  0  2  0  0  0  0  0  0
  160.1330  211.3920  153.7100 N   0  0  0  0  0  2  0  0  0  0  0  0
  161.1860  208.3960  153.1610 C   0  0  1  0  0  3  0  0  0  0  0  0
  160.7320  208.2600  154.6260 C   0  0  2  0  0  3  0  0  0  0  0  0
  160.8770  210.6630  152.6720 C   0  0  2  0  0  3  0  0  0  0  0  0
  159.0350  211.3930  155.8900 C   0  0  0  0  0  1  0  0  0  0  0  0
  160.7160  209.5930  155.3910 C   0  0  2  0  0  3  0  0  0  0  0  0
  159.6500  210.5350  154.8010 C   0  0  2  0  0  3  0  0  0  0  0  0
  160.9530  212.9700  149.0360 C   0  0  0  0  0  3  0  0  0  0  0  0
  162.6100  211.5190  148.1380 F   0  0  0  0  0  0  0  0  0  0  0  0
  159.2270  212.9530  152.2910 O   0  0  0  0  0  1  0  0  0  0  0  0
  161.7730  211.0950  150.3370 C   0  0  0  0  0  0  0  0  0  0  0  0
  162.6110  209.9900  150.4470 O   0  0  0  0  0  1  0  0  0  0  0  0
  160.9140  211.4530  151.3970 C   0  0  0  0  0  0  0  0  0  0  0  0
  161.7870  211.8560  149.1610 C   0  0  0  0  0  0  0  0  0  0  0  0
  160.1030  213.3280  150.0830 C   0  0  0  0  0  3  0  0  0  0  0  0
  160.0810  212.5760  151.2610 C   0  0  0  0  0  0  0  0  0  0  0  0
  161.2100  204.6220  151.1070 C   0  0  0  0  0  3  0  0  0  0  0  0
  161.1950  207.0740  152.4600 C   0  0  0  0  0  0  0  0  0  0  0  0
  161.1980  205.8710  153.1810 C   0  0  0  0  0  3  0  0  0  0  0  0
  161.2060  204.6480  152.5050 C   0  0  0  0  0  3  0  0  0  0  0  0
  161.2060  205.8190  150.3860 C   0  0  0  0  0  3  0  0  0  0  0  0
  161.1980  207.0430  151.0610 C   0  0  0  0  0  3  0  0  0  0  0  0
  162.7060  209.8810  156.8690 C   0  0  0  0  0  2  0  0  0  0  0  0
  162.1040  211.2510  156.6460 C   0  0  0  0  0  2  0  0  0  0  0  0
  162.1040  210.2330  155.5210 C   0  0  0  0  0  3  0  0  0  0  0  0
  2  6  1  0  0  0  0
  2  4  1  0  0  0  0
  3  9  1  0  0  0  0
  4 20  1  6  0  0  0
  4  5  1  0  0  0  0
  5  1  1  1  0  0  0
  5  8  1  0  0  0  0
  6 15  1  6  0  0  0
  6  3  1  0  0  0  0
  8 27  1  6  0  0  0
  9  8  1  0  0  0  0
  9  7  1  1  0  0  0
 10 16  2  0  0  0  0
 10 17  1  0  0  0  0
 11 16  1  0  0  0  0
 13 14  1  0  0  0  0
 13 15  2  0  0  0  0
 16 13  1  0  0  0  0
 17 18  2  0  0  0  0
 18 15  1  0  0  0  0
 18 12  1  0  0  0  0
 19 22  1  0  0  0  0
 20 21  1  0  0  0  0
 22 21  2  0  0  0  0
 23 24  1  0  0  0  0
 23 19  2  0  0  0  0
 24 20  2  0  0  0  0
 26 25  1  0  0  0  0
 27 26  1  0  0  0  0
 27 25  1  0  0  0  0
M  END
>  <MODEL>
1

>  <REMARK>
 VINA RESULT:      -7.1      0.000      0.000
  Name = 
  3 active torsions:
  status: ('A' for Active; 'I' for Inactive)
    1  A    between atoms: C_9  and  C_15
    2  A    between atoms: C_14  and  C_19
    3  A    between atoms: C_22  and  C_24
                            x       y       z     vdW  Elec       q    Type
                         _______ _______ _______ _____ _____    ______ ____

>  <TORSDO>
F 3

$$$$
=
 OpenBabel11052423073D

 27 30  0  0  1  0  0  0  0  0999 V2000
  158.9870  213.0280  154.8340 O   0  0  0  0  0  1  0  0  0  0  0  0
  160.8880  210.8460  152.5390 N   0  0  0  0  0  2  0  0  0  0  0  0
  161.8860  209.5200  154.3170 N   0  0  0  0  0  2  0  0  0  0  0  0
  159.7310  211.5620  153.0650 C   0  0  1  0  0  3  0  0  0  0  0  0
  160.0880  212.3080  154.3630 C   0  0  2  0  0  3  0  0  0  0  0  0
  160.9180  209.5520  153.2110 C   0  0  2  0  0  3  0  0  0  0  0  0
  162.8860  210.6120  156.2570 C   0  0  0  0  0  1  0  0  0  0  0  0
  160.6300  211.3890  155.4700 C   0  0  2  0  0  3  0  0  0  0  0  0
  161.9850  210.7890  155.0510 C   0  0  2  0  0  3  0  0  0  0  0  0
  161.7080  206.3620  150.4280 C   0  0  0  0  0  3  0  0  0  0  0  0
  162.4380  207.9420  148.8070 F   0  0  0  0  0  0  0  0  0  0  0  0
  160.4570  206.8180  153.8630 O   0  0  0  0  0  1  0  0  0  0  0  0
  161.7040  208.7310  150.9410 C   0  0  0  0  0  0  0  0  0  0  0  0
  161.9540  210.0420  150.5470 O   0  0  0  0  0  1  0  0  0  0  0  0
  161.2020  208.4530  152.2290 C   0  0  0  0  0  0  0  0  0  0  0  0
  161.9560  207.6830  150.0470 C   0  0  0  0  0  0  0  0  0  0  0  0
  161.2100  206.0820  151.7010 C   0  0  0  0  0  3  0  0  0  0  0  0
  160.9550  207.1210  152.6010 C   0  0  0  0  0  0  0  0  0  0  0  0
  158.2500  214.2430  150.0510 C   0  0  0  0  0  3  0  0  0  0  0  0
  159.2000  212.4940  152.0200 C   0  0  0  0  0  0  0  0  0  0  0  0
  157.8360  212.8180  151.9630 C   0  0  0  0  0  3  0  0  0  0  0  0
  157.3630  213.6900  150.9790 C   0  0  0  0  0  3  0  0  0  0  0  0
  159.6090  213.9230  150.1050 C   0  0  0  0  0  3  0  0  0  0  0  0
  160.0840  213.0500  151.0890 C   0  0  0  0  0  3  0  0  0  0  0  0
  159.0000  210.7880  157.2610 C   0  0  0  0  0  2  0  0  0  0  0  0
  160.0720  209.7210  157.2470 C   0  0  0  0  0  2  0  0  0  0  0  0
  159.6110  210.3460  155.9440 C   0  0  0  0  0  3  0  0  0  0  0  0
  2  4  1  0  0  0  0
  2  6  1  0  0  0  0
  3  9  1  0  0  0  0
  4 20  1  6  0  0  0
  4  5  1  0  0  0  0
  5  1  1  1  0  0  0
  5  8  1  0  0  0  0
  6 15  1  6  0  0  0
  6  3  1  0  0  0  0
  8 27  1  6  0  0  0
  9  8  1  0  0  0  0
  9  7  1  1  0  0  0
 10 17  1  0  0  0  0
 11 16  1  0  0  0  0
 13 15  2  0  0  0  0
 14 13  1  0  0  0  0
 15 18  1  0  0  0  0
 16 10  2  0  0  0  0
 16 13  1  0  0  0  0
 17 18  2  0  0  0  0
 18 12  1  0  0  0  0
 19 23  2  0  0  0  0
 19 22  1  0  0  0  0
 21 20  1  0  0  0  0
 22 21  2  0  0  0  0
 23 24  1  0  0  0  0
 24 20  2  0  0  0  0
 26 25  1  0  0  0  0
 27 26  1  0  0  0  0
 27 25  1  0  0  0  0
M  END
>  <MODEL>
2

>  <REMARK>
 VINA RESULT:      -7.0      1.707      5.296
  Name = 
  3 active torsions:
  status: ('A' for Active; 'I' for Inactive)
    1  A    between atoms: C_9  and  C_15
    2  A    between atoms: C_14  and  C_19
    3  A    between atoms: C_22  and  C_24
                            x       y       z     vdW  Elec       q    Type
                         _______ _______ _______ _____ _____    ______ ____

>  <TORSDO>
F 3

$$$$
=
 OpenBabel11052423073D

 27 30  0  0  1  0  0  0  0  0999 V2000
  158.7640  213.3170  154.3190 O   0  0  0  0  0  1  0  0  0  0  0  0
  160.8960  210.8440  152.5910 N   0  0  0  0  0  2  0  0  0  0  0  0
  161.5870  209.7230  154.6360 N   0  0  0  0  0  2  0  0  0  0  0  0
  159.7010  211.6370  152.8570 C   0  0  1  0  0  3  0  0  0  0  0  0
  159.8950  212.5270  154.0980 C   0  0  2  0  0  3  0  0  0  0  0  0
  160.7860  209.6390  153.4050 C   0  0  2  0  0  3  0  0  0  0  0  0
  162.3380  211.0220  156.5600 C   0  0  0  0  0  1  0  0  0  0  0  0
  160.2440  211.7380  155.3710 C   0  0  2  0  0  3  0  0  0  0  0  0
  161.6240  211.0690  155.2240 C   0  0  2  0  0  3  0  0  0  0  0  0
  161.9120  206.1910  151.0840 C   0  0  0  0  0  3  0  0  0  0  0  0
  161.1250  204.7580  152.8110 F   0  0  0  0  0  0  0  0  0  0  0  0
  161.9850  209.8660  150.8320 O   0  0  0  0  0  1  0  0  0  0  0  0
  160.9550  207.1240  153.1060 C   0  0  0  0  0  0  0  0  0  0  0  0
  160.3750  206.9300  154.3560 O   0  0  0  0  0  1  0  0  0  0  0  0
  161.1690  208.4260  152.6090 C   0  0  0  0  0  0  0  0  0  0  0  0
  161.3270  206.0130  152.3400 C   0  0  0  0  0  0  0  0  0  0  0  0
  162.1270  207.4770  150.5890 C   0  0  0  0  0  3  0  0  0  0  0  0
  161.7590  208.5940  151.3450 C   0  0  0  0  0  0  0  0  0  0  0  0
  158.6640  213.9540  149.3900 C   0  0  0  0  0  3  0  0  0  0  0  0
  159.3550  212.4470  151.6470 C   0  0  0  0  0  0  0  0  0  0  0  0
  160.3560  212.9890  150.8260 C   0  0  0  0  0  3  0  0  0  0  0  0
  160.0100  213.7410  149.7010 C   0  0  0  0  0  3  0  0  0  0  0  0
  157.6640  213.4160  150.2050 C   0  0  0  0  0  3  0  0  0  0  0  0
  158.0090  212.6630  151.3310 C   0  0  0  0  0  3  0  0  0  0  0  0
  158.2980  211.4210  156.9000 C   0  0  0  0  0  2  0  0  0  0  0  0
  159.3320  210.3780  157.2610 C   0  0  0  0  0  2  0  0  0  0  0  0
  159.1330  210.7760  155.8100 C   0  0  0  0  0  3  0  0  0  0  0  0
  2  4  1  0  0  0  0
  2  6  1  0  0  0  0
  3  9  1  0  0  0  0
  4 20  1  6  0  0  0
  4  5  1  0  0  0  0
  5  1  1  1  0  0  0
  5  8  1  0  0  0  0
  6 15  1  6  0  0  0
  6  3  1  0  0  0  0
  8 27  1  6  0  0  0
  9  8  1  0  0  0  0
  9  7  1  1  0  0  0
 10 16  1  0  0  0  0
 12 18  1  0  0  0  0
 13 14  1  0  0  0  0
 15 13  1  0  0  0  0
 16 11  1  0  0  0  0
 16 13  2  0  0  0  0
 17 10  2  0  0  0  0
 17 18  1  0  0  0  0
 18 15  2  0  0  0  0
 19 22  2  0  0  0  0
 19 23  1  0  0  0  0
 21 20  2  0  0  0  0
 22 21  1  0  0  0  0
 23 24  2  0  0  0  0
 24 20  1  0  0  0  0
 25 26  1  0  0  0  0
 27 25  1  0  0  0  0
 27 26  1  0  0  0  0
M  END
>  <MODEL>
3

>  <REMARK>
 VINA RESULT:      -6.7      2.133      5.590
  Name = 
  3 active torsions:
  status: ('A' for Active; 'I' for Inactive)
    1  A    between atoms: C_9  and  C_15
    2  A    between atoms: C_14  and  C_19
    3  A    between atoms: C_22  and  C_24
                            x       y       z     vdW  Elec       q    Type
                         _______ _______ _______ _____ _____    ______ ____

>  <TORSDO>
F 3

$$$$
=
 OpenBabel11052423073D

 27 30  0  0  1  0  0  0  0  0999 V2000
  161.5200  208.9630  155.3970 O   0  0  0  0  0  1  0  0  0  0  0  0
  159.3640  210.5270  152.8370 N   0  0  0  0  0  2  0  0  0  0  0  0
  158.4290  212.1800  154.3570 N   0  0  0  0  0  2  0  0  0  0  0  0
  160.5870  209.9790  153.4140 C   0  0  1  0  0  3  0  0  0  0  0  0
  160.3560  209.5270  154.8680 C   0  0  2  0  0  3  0  0  0  0  0  0
  159.3190  211.9350  153.2120 C   0  0  2  0  0  3  0  0  0  0  0  0
  157.6180  211.5110  156.5590 C   0  0  0  0  0  1  0  0  0  0  0  0
  159.8490  210.6500  155.7870 C   0  0  2  0  0  3  0  0  0  0  0  0
  158.4410  211.1010  155.3540 C   0  0  2  0  0  3  0  0  0  0  0  0
  158.1210  214.3850  149.8790 C   0  0  0  0  0  3  0  0  0  0  0  0
  160.1300  213.8290  148.7350 F   0  0  0  0  0  0  0  0  0  0  0  0
  156.8590  213.3690  153.1890 O   0  0  0  0  0  1  0  0  0  0  0  0
  159.7440  212.9050  150.9050 C   0  0  0  0  0  0  0  0  0  0  0  0
  160.9620  212.2360  150.8410 O   0  0  0  0  0  1  0  0  0  0  0  0
  158.9160  212.7820  152.0400 C   0  0  0  0  0  0  0  0  0  0  0  0
  159.3410  213.7060  149.8290 C   0  0  0  0  0  0  0  0  0  0  0  0
  157.3000  214.2670  151.0020 C   0  0  0  0  0  3  0  0  0  0  0  0
  157.6930  213.4700  152.0810 C   0  0  0  0  0  0  0  0  0  0  0  0
  162.0430  206.7890  150.9310 C   0  0  0  0  0  3  0  0  0  0  0  0
  161.0880  208.8580  152.5600 C   0  0  0  0  0  0  0  0  0  0  0  0
  160.8440  207.5190  152.9030 C   0  0  0  0  0  3  0  0  0  0  0  0
  161.3210  206.4880  152.0900 C   0  0  0  0  0  3  0  0  0  0  0  0
  162.2880  208.1210  150.5860 C   0  0  0  0  0  3  0  0  0  0  0  0
  161.8110  209.1540  151.3990 C   0  0  0  0  0  3  0  0  0  0  0  0
  161.5870  211.6670  157.2610 C   0  0  0  0  0  2  0  0  0  0  0  0
  160.4630  212.6700  157.1260 C   0  0  0  0  0  2  0  0  0  0  0  0
  160.8480  211.8030  155.9420 C   0  0  0  0  0  3  0  0  0  0  0  0
  2  6  1  0  0  0  0
  2  4  1  0  0  0  0
  3  9  1  0  0  0  0
  4 20  1  6  0  0  0
  4  5  1  0  0  0  0
  5  1  1  1  0  0  0
  5  8  1  0  0  0  0
  6 15  1  6  0  0  0
  6  3  1  0  0  0  0
  8 27  1  6  0  0  0
  9  8  1  0  0  0  0
  9  7  1  1  0  0  0
 10 17  1  0  0  0  0
 11 16  1  0  0  0  0
 13 15  2  0  0  0  0
 14 13  1  0  0  0  0
 15 18  1  0  0  0  0
 16 10  2  0  0  0  0
 16 13  1  0  0  0  0
 17 18  2  0  0  0  0
 18 12  1  0  0  0  0
 19 22  1  0  0  0  0
 20 21  1  0  0  0  0
 22 21  2  0  0  0  0
 23 19  2  0  0  0  0
 23 24  1  0  0  0  0
 24 20  2  0  0  0  0
 26 25  1  0  0  0  0
 27 26  1  0  0  0  0
 27 25  1  0  0  0  0
M  END
>  <MODEL>
4

>  <REMARK>
 VINA RESULT:      -6.1      1.774      2.299
  Name = 
  3 active torsions:
  status: ('A' for Active; 'I' for Inactive)
    1  A    between atoms: C_9  and  C_15
    2  A    between atoms: C_14  and  C_19
    3  A    between atoms: C_22  and  C_24
                            x       y       z     vdW  Elec       q    Type
                         _______ _______ _______ _____ _____    ______ ____

>  <TORSDO>
F 3

$$$$
=
 OpenBabel11052423073D

 27 30  0  0  1  0  0  0  0  0999 V2000
  158.5700  212.0470  155.5590 O   0  0  0  0  0  1  0  0  0  0  0  0
  160.4960  211.1350  152.5430 N   0  0  0  0  0  2  0  0  0  0  0  0
  162.0800  209.7320  153.7430 N   0  0  0  0  0  2  0  0  0  0  0  0
  159.3150  211.3440  153.3720 C   0  0  1  0  0  3  0  0  0  0  0  0
  159.7090  211.8050  154.7870 C   0  0  2  0  0  3  0  0  0  0  0  0
  160.9510  209.7740  152.8010 C   0  0  2  0  0  3  0  0  0  0  0  0
  163.1200  210.5290  155.8020 C   0  0  0  0  0  1  0  0  0  0  0  0
  160.6410  210.8230  155.5150 C   0  0  2  0  0  3  0  0  0  0  0  0
  162.0030  210.7490  154.8000 C   0  0  2  0  0  3  0  0  0  0  0  0
  162.0000  207.8410  149.0980 C   0  0  0  0  0  3  0  0  0  0  0  0
  161.5210  205.7190  150.0580 F   0  0  0  0  0  0  0  0  0  0  0  0
  161.8110  211.2380  150.5140 O   0  0  0  0  0  1  0  0  0  0  0  0
  161.2400  207.6810  151.3950 C   0  0  0  0  0  0  0  0  0  0  0  0
  160.8300  206.8960  152.4680 O   0  0  0  0  0  1  0  0  0  0  0  0
  161.3100  209.0840  151.5180 C   0  0  0  0  0  0  0  0  0  0  0  0
  161.5850  207.0670  150.1840 C   0  0  0  0  0  0  0  0  0  0  0  0
  162.0720  209.2300  149.2160 C   0  0  0  0  0  3  0  0  0  0  0  0
  161.7300  209.8530  150.4200 C   0  0  0  0  0  0  0  0  0  0  0  0
  156.7140  214.1550  151.4220 C   0  0  0  0  0  3  0  0  0  0  0  0
  158.4010  212.3260  152.7060 C   0  0  0  0  0  0  0  0  0  0  0  0
  157.3970  212.9880  153.4290 C   0  0  0  0  0  3  0  0  0  0  0  0
  156.5560  213.9000  152.7870 C   0  0  0  0  0  3  0  0  0  0  0  0
  157.7130  213.4970  150.6990 C   0  0  0  0  0  3  0  0  0  0  0  0
  158.5550  212.5840  151.3400 C   0  0  0  0  0  3  0  0  0  0  0  0
  159.8920  209.2050  157.2610 C   0  0  0  0  0  2  0  0  0  0  0  0
  160.9880  208.5350  156.4620 C   0  0  0  0  0  2  0  0  0  0  0  0
  159.9990  209.4530  155.7670 C   0  0  0  0  0  3  0  0  0  0  0  0
  2  6  1  0  0  0  0
  2  4  1  0  0  0  0
  3  9  1  0  0  0  0
  4 20  1  6  0  0  0
  4  5  1  0  0  0  0
  5  8  1  0  0  0  0
  5  1  1  1  0  0  0
  6 15  1  6  0  0  0
  6  3  1  0  0  0  0
  8 27  1  6  0  0  0
  9  8  1  0  0  0  0
  9  7  1  1  0  0  0
 10 17  2  0  0  0  0
 10 16  1  0  0  0  0
 11 16  1  0  0  0  0
 13 15  1  0  0  0  0
 13 14  1  0  0  0  0
 16 13  2  0  0  0  0
 17 18  1  0  0  0  0
 18 12  1  0  0  0  0
 18 15  2  0  0  0  0
 19 22  1  0  0  0  0
 20 21  1  0  0  0  0
 22 21  2  0  0  0  0
 23 24  1  0  0  0  0
 23 19  2  0  0  0  0
 24 20  2  0  0  0  0
 26 25  1  0  0  0  0
 27 26  1  0  0  0  0
 27 25  1  0  0  0  0
M  END
>  <MODEL>
5

>  <REMARK>
 VINA RESULT:      -5.7      2.397      5.140
  Name = 
  3 active torsions:
  status: ('A' for Active; 'I' for Inactive)
    1  A    between atoms: C_9  and  C_15
    2  A    between atoms: C_14  and  C_19
    3  A    between atoms: C_22  and  C_24
                            x       y       z     vdW  Elec       q    Type
                         _______ _______ _______ _____ _____    ______ ____

>  <TORSDO>
F 3

$$$$
=
 OpenBabel11052423073D

 27 30  0  0  1  0  0  0  0  0999 V2000
  161.2120  205.4960  152.9310 O   0  0  0  0  0  1  0  0  0  0  0  0
  161.6750  209.1320  152.4830 N   0  0  0  0  0  2  0  0  0  0  0  0
  161.9570  208.9950  150.0710 N   0  0  0  0  0  2  0  0  0  0  0  0
  161.0520  207.9050  152.9650 C   0  0  1  0  0  3  0  0  0  0  0  0
  161.7870  206.6650  152.4270 C   0  0  2  0  0  3  0  0  0  0  0  0
  161.0860  209.4150  151.1790 C   0  0  2  0  0  3  0  0  0  0  0  0
  163.4490  207.3280  149.0960 C   0  0  0  0  0  1  0  0  0  0  0  0
  161.8470  206.6050  150.8920 C   0  0  2  0  0  3  0  0  0  0  0  0
  162.7050  207.7610  150.3440 C   0  0  2  0  0  3  0  0  0  0  0  0
  160.0810  213.5920  150.8820 C   0  0  0  0  0  3  0  0  0  0  0  0
  161.3920  213.7780  148.9070 F   0  0  0  0  0  0  0  0  0  0  0  0
  159.4030  210.7110  153.0760 O   0  0  0  0  0  1  0  0  0  0  0  0
  161.2470  211.6580  150.0020 C   0  0  0  0  0  0  0  0  0  0  0  0
  162.0770  211.0980  149.0350 O   0  0  0  0  0  1  0  0  0  0  0  0
  160.7440  210.8710  151.0580 C   0  0  0  0  0  0  0  0  0  0  0  0
  160.9120  213.0150  149.9190 C   0  0  0  0  0  0  0  0  0  0  0  0
  159.5820  212.8180  151.9300 C   0  0  0  0  0  3  0  0  0  0  0  0
  159.9100  211.4620  152.0220 C   0  0  0  0  0  0  0  0  0  0  0  0
  160.9610  207.9750  157.2610 C   0  0  0  0  0  3  0  0  0  0  0  0
  161.0100  207.9170  154.4610 C   0  0  0  0  0  0  0  0  0  0  0  0
  160.2730  206.9600  155.1740 C   0  0  0  0  0  3  0  0  0  0  0  0
  160.2490  206.9900  156.5710 C   0  0  0  0  0  3  0  0  0  0  0  0
  161.6970  208.9300  156.5540 C   0  0  0  0  0  3  0  0  0  0  0  0
  161.7220  208.9010  155.1560 C   0  0  0  0  0  3  0  0  0  0  0  0
  160.2440  205.0760  149.7430 C   0  0  0  0  0  2  0  0  0  0  0  0
  160.6130  206.1660  148.7620 C   0  0  0  0  0  2  0  0  0  0  0  0
  160.4650  206.4940  150.2360 C   0  0  0  0  0  3  0  0  0  0  0  0
  2  4  1  0  0  0  0
  3  9  1  0  0  0  0
  3  6  1  0  0  0  0
  4 20  1  1  0  0  0
  5  1  1  6  0  0  0
  5  4  1  0  0  0  0
  6 15  1  6  0  0  0
  6  2  1  0  0  0  0
  8 27  1  6  0  0  0
  8  5  1  0  0  0  0
  9  7  1  6  0  0  0
  9  8  1  0  0  0  0
 10 17  1  0  0  0  0
 11 16  1  0  0  0  0
 13 15  2  0  0  0  0
 14 13  1  0  0  0  0
 15 18  1  0  0  0  0
 16 13  1  0  0  0  0
 16 10  2  0  0  0  0
 17 18  2  0  0  0  0
 18 12  1  0  0  0  0
 20 24  2  0  0  0  0
 20 21  1  0  0  0  0
 21 22  2  0  0  0  0
 22 19  1  0  0  0  0
 23 19  2  0  0  0  0
 24 23  1  0  0  0  0
 25 27  1  0  0  0  0
 26 25  1  0  0  0  0
 26 27  1  0  0  0  0
M  END
>  <MODEL>
6

>  <REMARK>
 VINA RESULT:      -5.0      1.788      4.683
  Name = 
  3 active torsions:
  status: ('A' for Active; 'I' for Inactive)
    1  A    between atoms: C_9  and  C_15
    2  A    between atoms: C_14  and  C_19
    3  A    between atoms: C_22  and  C_24
                            x       y       z     vdW  Elec       q    Type
                         _______ _______ _______ _____ _____    ______ ____

>  <TORSDO>
F 3

$$$$
=
 OpenBabel11052423073D

 27 30  0  0  1  0  0  0  0  0999 V2000
  161.2110  205.4140  152.8830 O   0  0  0  0  0  1  0  0  0  0  0  0
  161.6610  209.0610  152.5100 N   0  0  0  0  0  2  0  0  0  0  0  0
  161.9540  208.9740  150.0970 N   0  0  0  0  0  2  0  0  0  0  0  0
  161.0410  207.8220  152.9650 C   0  0  1  0  0  3  0  0  0  0  0  0
  161.7840  206.5960  152.4050 C   0  0  2  0  0  3  0  0  0  0  0  0
  161.0770  209.3680  151.2090 C   0  0  2  0  0  3  0  0  0  0  0  0
  163.4570  207.3320  149.0960 C   0  0  0  0  0  1  0  0  0  0  0  0
  161.8500  206.5660  150.8700 C   0  0  2  0  0  3  0  0  0  0  0  0
  162.7060  207.7360  150.3490 C   0  0  2  0  0  3  0  0  0  0  0  0
  160.0990  213.5500  150.8900 C   0  0  0  0  0  3  0  0  0  0  0  0
  158.8660  213.4280  152.9190 F   0  0  0  0  0  0  0  0  0  0  0  0
  161.9780  210.9760  149.0390 O   0  0  0  0  0  1  0  0  0  0  0  0
  159.9360  211.4540  152.0980 C   0  0  0  0  0  0  0  0  0  0  0  0
  159.4570  210.7360  153.1880 O   0  0  0  0  0  1  0  0  0  0  0  0
  160.7290  210.8240  151.1160 C   0  0  0  0  0  0  0  0  0  0  0  0
  159.6270  212.8150  151.9790 C   0  0  0  0  0  0  0  0  0  0  0  0
  160.8820  212.9300  149.9150 C   0  0  0  0  0  3  0  0  0  0  0  0
  161.1980  211.5720  150.0230 C   0  0  0  0  0  0  0  0  0  0  0  0
  160.9370  207.8010  157.2610 C   0  0  0  0  0  3  0  0  0  0  0  0
  160.9930  207.8040  154.4610 C   0  0  0  0  0  0  0  0  0  0  0  0
  160.1100  206.9570  155.1480 C   0  0  0  0  0  3  0  0  0  0  0  0
  160.0830  206.9570  156.5450 C   0  0  0  0  0  3  0  0  0  0  0  0
  161.8180  208.6450  156.5790 C   0  0  0  0  0  3  0  0  0  0  0  0
  161.8460  208.6470  155.1820 C   0  0  0  0  0  3  0  0  0  0  0  0
  160.2680  205.0620  149.6610 C   0  0  0  0  0  2  0  0  0  0  0  0
  160.6280  206.1910  148.7210 C   0  0  0  0  0  2  0  0  0  0  0  0
  160.4720  206.4640  150.2050 C   0  0  0  0  0  3  0  0  0  0  0  0
  2  4  1  0  0  0  0
  3  9  1  0  0  0  0
  3  6  1  0  0  0  0
  4 20  1  1  0  0  0
  5  1  1  6  0  0  0
  5  4  1  0  0  0  0
  6 15  1  1  0  0  0
  6  2  1  0  0  0  0
  8 27  1  6  0  0  0
  8  5  1  0  0  0  0
  9  7  1  6  0  0  0
  9  8  1  0  0  0  0
 10 16  1  0  0  0  0
 12 18  1  0  0  0  0
 13 14  1  0  0  0  0
 15 13  1  0  0  0  0
 16 13  2  0  0  0  0
 16 11  1  0  0  0  0
 17 18  1  0  0  0  0
 17 10  2  0  0  0  0
 18 15  2  0  0  0  0
 20 21  2  0  0  0  0
 20 24  1  0  0  0  0
 21 22  1  0  0  0  0
 22 19  2  0  0  0  0
 23 19  1  0  0  0  0
 24 23  2  0  0  0  0
 25 27  1  0  0  0  0
 26 25  1  0  0  0  0
 26 27  1  0  0  0  0
M  END
>  <MODEL>
7

>  <REMARK>
 VINA RESULT:      -4.8      2.161      4.990
  Name = 
  3 active torsions:
  status: ('A' for Active; 'I' for Inactive)
    1  A    between atoms: C_9  and  C_15
    2  A    between atoms: C_14  and  C_19
    3  A    between atoms: C_22  and  C_24
                            x       y       z     vdW  Elec       q    Type
                         _______ _______ _______ _____ _____    ______ ____

>  <TORSDO>
F 3

$$$$
=
 OpenBabel11052423073D

 27 30  0  0  1  0  0  0  0  0999 V2000
  159.3540  214.1900  141.9570 O   0  0  0  0  0  1  0  0  0  0  0  0
  160.3360  211.8470  139.2760 N   0  0  0  0  0  2  0  0  0  0  0  0
  162.7040  211.9070  139.8260 N   0  0  0  0  0  2  0  0  0  0  0  0
  159.5660  212.3490  140.4090 C   0  0  1  0  0  3  0  0  0  0  0  0
  160.1250  213.6960  140.9030 C   0  0  2  0  0  3  0  0  0  0  0  0
  161.4660  211.1130  139.8320 C   0  0  2  0  0  3  0  0  0  0  0  0
  163.8270  214.0390  140.2150 C   0  0  0  0  0  1  0  0  0  0  0  0
  161.6040  213.6320  141.3150 C   0  0  2  0  0  3  0  0  0  0  0  0
  162.4890  213.3360  140.0900 C   0  0  2  0  0  3  0  0  0  0  0  0
  162.0560  207.4240  137.6890 C   0  0  0  0  0  3  0  0  0  0  0  0
  161.8530  206.2010  139.7180 F   0  0  0  0  0  0  0  0  0  0  0  0
  161.8820  211.0430  137.0160 O   0  0  0  0  0  1  0  0  0  0  0  0
  161.6620  208.5830  139.7820 C   0  0  0  0  0  0  0  0  0  0  0  0
  161.4670  208.5340  141.1590 O   0  0  0  0  0  1  0  0  0  0  0  0
  161.6670  209.8180  139.1010 C   0  0  0  0  0  0  0  0  0  0  0  0
  161.8560  207.3920  139.0710 C   0  0  0  0  0  0  0  0  0  0  0  0
  162.0620  208.6450  137.0120 C   0  0  0  0  0  3  0  0  0  0  0  0
  161.8700  209.8390  137.7120 C   0  0  0  0  0  0  0  0  0  0  0  0
  155.4200  212.6980  139.3350 C   0  0  0  0  0  3  0  0  0  0  0  0
  158.1220  212.4570  140.0280 C   0  0  0  0  0  0  0  0  0  0  0  0
  157.4850  211.4370  139.3040 C   0  0  0  0  0  3  0  0  0  0  0  0
  156.1370  211.5590  138.9590 C   0  0  0  0  0  3  0  0  0  0  0  0
  156.0510  213.7160  140.0560 C   0  0  0  0  0  3  0  0  0  0  0  0
  157.4000  213.5950  140.4020 C   0  0  0  0  0  3  0  0  0  0  0  0
  161.8690  213.4990  143.7930 C   0  0  0  0  0  2  0  0  0  0  0  0
  163.1750  213.0570  143.1740 C   0  0  0  0  0  2  0  0  0  0  0  0
  161.8620  212.6980  142.5040 C   0  0  0  0  0  3  0  0  0  0  0  0
  2  6  1  0  0  0  0
  2  4  1  0  0  0  0
  3  6  1  0  0  0  0
  3  9  1  0  0  0  0
  4 20  1  6  0  0  0
  4  5  1  0  0  0  0
  5  8  1  0  0  0  0
  5  1  1  1  0  0  0
  6 15  1  6  0  0  0
  8 27  1  1  0  0  0
  9  7  1  1  0  0  0
  9  8  1  0  0  0  0
 10 16  1  0  0  0  0
 12 18  1  0  0  0  0
 13 14  1  0  0  0  0
 15 13  1  0  0  0  0
 16 11  1  0  0  0  0
 16 13  2  0  0  0  0
 17 10  2  0  0  0  0
 17 18  1  0  0  0  0
 18 15  2  0  0  0  0
 19 23  1  0  0  0  0
 20 24  1  0  0  0  0
 21 20  2  0  0  0  0
 22 21  1  0  0  0  0
 22 19  2  0  0  0  0
 23 24  2  0  0  0  0
 26 25  1  0  0  0  0
 27 26  1  0  0  0  0
 27 25  1  0  0  0  0
M  END
>  <MODEL>
8

>  <REMARK>
 VINA RESULT:      -4.6     10.869     13.761
  Name = 
  3 active torsions:
  status: ('A' for Active; 'I' for Inactive)
    1  A    between atoms: C_9  and  C_15
    2  A    between atoms: C_14  and  C_19
    3  A    between atoms: C_22  and  C_24
                            x       y       z     vdW  Elec       q    Type
                         _______ _______ _______ _____ _____    ______ ____

>  <TORSDO>
F 3

$$$$
=
 OpenBabel11052423073D

 27 30  0  0  1  0  0  0  0  0999 V2000
  157.7250  214.2050  142.2890 O   0  0  0  0  0  1  0  0  0  0  0  0
  159.7310  212.9910  139.4350 N   0  0  0  0  0  2  0  0  0  0  0  0
  161.7630  212.6960  140.7390 N   0  0  0  0  0  2  0  0  0  0  0  0
  158.5880  213.0740  140.3370 C   0  0  1  0  0  3  0  0  0  0  0  0
  158.8420  214.0990  141.4570 C   0  0  2  0  0  3  0  0  0  0  0  0
  160.6600  212.0350  140.0260 C   0  0  2  0  0  3  0  0  0  0  0  0
  162.5210  214.4530  142.2550 C   0  0  0  0  0  1  0  0  0  0  0  0
  160.0960  213.7960  142.2940 C   0  0  2  0  0  3  0  0  0  0  0  0
  161.3630  213.9310  141.4280 C   0  0  2  0  0  3  0  0  0  0  0  0
  162.2340  209.3910  137.0120 C   0  0  0  0  0  3  0  0  0  0  0  0
  160.7430  207.6790  137.7200 F   0  0  0  0  0  0  0  0  0  0  0  0
  162.7310  212.8300  138.2400 O   0  0  0  0  0  1  0  0  0  0  0  0
  160.6950  209.7890  138.8430 C   0  0  0  0  0  0  0  0  0  0  0  0
  159.6840  209.3260  139.6780 O   0  0  0  0  0  1  0  0  0  0  0  0
  161.1940  211.1010  138.9790 C   0  0  0  0  0  0  0  0  0  0  0  0
  161.2170  208.9410  137.8580 C   0  0  0  0  0  0  0  0  0  0  0  0
  162.7320  210.6880  137.1460 C   0  0  0  0  0  3  0  0  0  0  0  0
  162.2180  211.5430  138.1250 C   0  0  0  0  0  0  0  0  0  0  0  0
  155.0730  214.0430  138.0640 C   0  0  0  0  0  3  0  0  0  0  0  0
  157.3540  213.4040  139.5560 C   0  0  0  0  0  0  0  0  0  0  0  0
  156.0820  213.0390  140.0210 C   0  0  0  0  0  3  0  0  0  0  0  0
  154.9440  213.3580  139.2750 C   0  0  0  0  0  3  0  0  0  0  0  0
  156.3380  214.4080  137.5970 C   0  0  0  0  0  3  0  0  0  0  0  0
  157.4780  214.0900  138.3420 C   0  0  0  0  0  3  0  0  0  0  0  0
  159.3380  212.6950  144.4010 C   0  0  0  0  0  2  0  0  0  0  0  0
  160.8410  212.5410  144.3240 C   0  0  0  0  0  2  0  0  0  0  0  0
  160.0080  212.4690  143.0580 C   0  0  0  0  0  3  0  0  0  0  0  0
  2  6  1  0  0  0  0
  2  4  1  0  0  0  0
  3  9  1  0  0  0  0
  4 20  1  6  0  0  0
  4  5  1  0  0  0  0
  5  1  1  1  0  0  0
  5  8  1  0  0  0  0
  6 15  1  6  0  0  0
  6  3  1  0  0  0  0
  8 27  1  6  0  0  0
  9  7  1  1  0  0  0
  9  8  1  0  0  0  0
 10 17  2  0  0  0  0
 10 16  1  0  0  0  0
 11 16  1  0  0  0  0
 13 15  1  0  0  0  0
 13 14  1  0  0  0  0
 16 13  2  0  0  0  0
 17 18  1  0  0  0  0
 18 12  1  0  0  0  0
 18 15  2  0  0  0  0
 19 22  1  0  0  0  0
 20 21  1  0  0  0  0
 22 21  2  0  0  0  0
 23 19  2  0  0  0  0
 23 24  1  0  0  0  0
 24 20  2  0  0  0  0
 26 25  1  0  0  0  0
 27 26  1  0  0  0  0
 27 25  1  0  0  0  0
M  END
>  <MODEL>
9

>  <REMARK>
 VINA RESULT:      -4.2     10.302     13.862
  Name = 
  3 active torsions:
  status: ('A' for Active; 'I' for Inactive)
    1  A    between atoms: C_9  and  C_15
    2  A    between atoms: C_14  and  C_19
    3  A    between atoms: C_22  and  C_24
                            x       y       z     vdW  Elec       q    Type
                         _______ _______ _______ _____ _____    ______ ____

>  <TORSDO>
F 3

$$$$
