=
 OpenBabel11052421573D

 30 33  0  0  1  0  0  0  0  0999 V2000
  161.5250  205.3730  150.6610 C   0  0  0  0  0  2  0  0  0  0  0  0
  161.0380  203.0160  151.3400 C   0  0  0  0  0  0  0  0  0  0  0  0
  161.7980  203.9540  146.5690 C   0  0  0  0  0  2  0  0  0  0  0  0
  161.1960  206.3640  149.5490 C   0  0  2  0  0  3  0  0  0  0  0  0
  162.3100  205.0360  145.6070 C   0  0  0  0  0  2  0  0  0  0  0  0
  160.7440  201.6830  151.0470 C   0  0  0  0  0  3  0  0  0  0  0  0
  161.1880  203.3900  152.6360 F   0  0  0  0  0  0  0  0  0  0  0  0
  161.1020  204.5290  147.8170 C   0  0  2  0  0  3  0  0  0  0  0  0
  160.5850  201.2750  149.7230 C   0  0  0  0  0  3  0  0  0  0  0  0
  161.1710  203.9560  150.3060 C   0  0  0  0  0  0  0  0  0  0  0  0
  161.7180  205.8830  148.1940 C   0  0  1  0  0  3  0  0  0  0  0  0
  161.4490  206.2970  145.6730 C   0  0  0  0  0  2  0  0  0  0  0  0
  161.4500  206.9110  147.0820 C   0  0  0  0  0  2  0  0  0  0  0  0
  160.7280  202.1990  148.6870 C   0  0  0  0  0  3  0  0  0  0  0  0
  161.0490  203.5380  148.9590 C   0  0  0  0  0  0  0  0  0  0  0  0
  162.7590  209.1600  151.3640 O   0  0  0  0  0  0  0  0  0  0  0  0
  162.0110  208.1520  151.2340 C   0  0  0  0  0  0  0  0  0  0  0  0
  161.6560  207.7120  149.9010 N   0  0  0  0  0  0  0  0  0  0  0  0
  162.2110  206.4530  153.0340 N   0  0  0  0  0  0  0  0  0  0  0  0
  160.4730  207.8400  153.1880 N   0  0  0  0  0  2  0  0  0  0  0  0
  161.5510  207.4830  152.4720 C   0  0  0  0  0  0  0  0  0  0  0  0
  161.4710  206.1870  154.1290 C   0  0  0  0  0  3  0  0  0  0  0  0
  160.4210  207.0230  154.2250 N   0  0  0  0  0  0  0  0  0  0  0  0
  161.9530  208.5780  148.7680 C   0  0  0  0  0  2  0  0  0  0  0  0
  161.5220  210.0030  149.0730 C   0  0  0  0  0  2  0  0  0  0  0  0
  162.3860  210.9880  148.3080 C   0  0  0  0  0  2  0  0  0  0  0  0
  161.8390  212.3310  148.4320 N   0  0  0  0  0  2  0  0  0  0  0  0
  160.4350  212.1200  146.5770 O   0  0  0  0  0  0  0  0  0  0  0  0
  160.8610  212.8340  147.5240 C   0  0  0  0  0  0  0  0  0  0  0  0
  160.3710  214.1230  147.6870 O   0  0  0  0  0  1  0  0  0  0  0  0
  2  7  1  0  0  0  0
  4 18  1  1  0  0  0
  4  1  1  0  0  0  0
  5 12  1  0  0  0  0
  5  3  1  0  0  0  0
  6  2  1  0  0  0  0
  8  3  1  6  0  0  0
  8 11  1  0  0  0  0
  8 15  1  0  0  0  0
  9  6  2  0  0  0  0
 10  1  1  0  0  0  0
 10  2  2  0  0  0  0
 11 13  1  6  0  0  0
 11  4  1  0  0  0  0
 12 13  1  0  0  0  0
 14 15  2  0  0  0  0
 14  9  1  0  0  0  0
 15 10  1  0  0  0  0
 17 16  2  0  0  0  0
 17 21  1  0  0  0  0
 18 17  1  0  0  0  0
 19 22  1  0  0  0  0
 20 23  1  0  0  0  0
 21 19  2  0  0  0  0
 21 20  1  0  0  0  0
 22 23  2  0  0  0  0
 24 25  1  0  0  0  0
 24 18  1  0  0  0  0
 26 27  1  0  0  0  0
 26 25  1  0  0  0  0
 28 29  2  0  0  0  0
 29 30  1  0  0  0  0
 29 27  1  0  0  0  0
M  END
>  <MODEL>
1

>  <REMARK>
 VINA RESULT:      -8.7      0.000      0.000
  Name = 
  6 active torsions:
  status: ('A' for Active; 'I' for Inactive)
    1  A    between atoms: C_4  and  N_13
    2  A    between atoms: N_7  and  C_16
    3  A    between atoms: C_8  and  C_12
    4  A    between atoms: N_13  and  C_27
    5  A    between atoms: C_16  and  C_30
    6  A    between atoms: C_27  and  C_30
                            x       y       z     vdW  Elec       q    Type
                         _______ _______ _______ _____ _____    ______ ____

>  <TORSDO>
F 6

$$$$
=
 OpenBabel11052421573D

 30 33  0  0  1  0  0  0  0  0999 V2000
  160.7800  206.5170  148.8210 C   0  0  0  0  0  2  0  0  0  0  0  0
  160.7950  206.2050  146.3400 C   0  0  0  0  0  0  0  0  0  0  0  0
  160.9390  202.1950  149.1910 C   0  0  0  0  0  2  0  0  0  0  0  0
  161.4250  205.9410  150.0780 C   0  0  2  0  0  3  0  0  0  0  0  0
  160.7530  201.7250  150.6410 C   0  0  0  0  0  2  0  0  0  0  0  0
  160.9260  205.4150  145.1970 C   0  0  0  0  0  3  0  0  0  0  0  0
  160.5020  207.5230  146.2030 F   0  0  0  0  0  0  0  0  0  0  0  0
  161.5100  203.6220  149.0830 C   0  0  2  0  0  3  0  0  0  0  0  0
  161.2270  204.0580  145.3120 C   0  0  0  0  0  3  0  0  0  0  0  0
  160.9670  205.6410  147.6140 C   0  0  0  0  0  0  0  0  0  0  0  0
  161.0540  204.4700  150.2770 C   0  0  1  0  0  3  0  0  0  0  0  0
  161.7740  202.3730  151.5750 C   0  0  0  0  0  2  0  0  0  0  0  0
  161.6450  203.9050  151.5810 C   0  0  0  0  0  2  0  0  0  0  0  0
  161.3880  203.4850  146.5750 C   0  0  0  0  0  3  0  0  0  0  0  0
  161.2350  204.2560  147.7370 C   0  0  0  0  0  0  0  0  0  0  0  0
  160.3830  208.7950  152.1580 O   0  0  0  0  0  0  0  0  0  0  0  0
  161.0280  208.2220  151.2370 C   0  0  0  0  0  0  0  0  0  0  0  0
  161.1240  206.7760  151.2460 N   0  0  0  0  0  0  0  0  0  0  0  0
  161.8050  210.4090  150.3540 N   0  0  0  0  0  0  0  0  0  0  0  0
  162.1270  208.6480  149.0260 N   0  0  0  0  0  2  0  0  0  0  0  0
  161.6390  209.0810  150.1990 C   0  0  0  0  0  0  0  0  0  0  0  0
  162.4110  210.7700  149.2050 C   0  0  0  0  0  3  0  0  0  0  0  0
  162.6070  209.7080  148.4020 N   0  0  0  0  0  0  0  0  0  0  0  0
  160.7030  206.0480  152.4350 C   0  0  0  0  0  2  0  0  0  0  0  0
  161.5550  206.4550  153.6260 C   0  0  0  0  0  2  0  0  0  0  0  0
  160.6710  206.9140  154.7710 C   0  0  0  0  0  2  0  0  0  0  0  0
  161.3920  207.8600  155.6080 N   0  0  0  0  0  2  0  0  0  0  0  0
  159.7470  209.5120  155.4620 O   0  0  0  0  0  0  0  0  0  0  0  0
  160.8660  209.1510  155.9130 C   0  0  0  0  0  0  0  0  0  0  0  0
  161.5950  210.0170  156.7170 O   0  0  0  0  0  1  0  0  0  0  0  0
  1  4  1  0  0  0  0
  2 10  1  0  0  0  0
  3  5  1  0  0  0  0
  4 11  1  0  0  0  0
  4 18  1  1  0  0  0
  5 12  1  0  0  0  0
  6  9  1  0  0  0  0
  6  2  2  0  0  0  0
  7  2  1  0  0  0  0
  8  3  1  6  0  0  0
  8 11  1  0  0  0  0
  9 14  2  0  0  0  0
 10 15  2  0  0  0  0
 10  1  1  0  0  0  0
 11 13  1  1  0  0  0
 12 13  1  0  0  0  0
 14 15  1  0  0  0  0
 15  8  1  0  0  0  0
 17 18  1  0  0  0  0
 17 16  2  0  0  0  0
 18 24  1  0  0  0  0
 20 21  1  0  0  0  0
 21 19  2  0  0  0  0
 21 17  1  0  0  0  0
 22 19  1  0  0  0  0
 23 20  1  0  0  0  0
 23 22  2  0  0  0  0
 24 25  1  0  0  0  0
 25 26  1  0  0  0  0
 26 27  1  0  0  0  0
 27 29  1  0  0  0  0
 28 29  2  0  0  0  0
 29 30  1  0  0  0  0
M  END
>  <MODEL>
2

>  <REMARK>
 VINA RESULT:      -8.5      2.624      5.611
  Name = 
  6 active torsions:
  status: ('A' for Active; 'I' for Inactive)
    1  A    between atoms: C_4  and  N_13
    2  A    between atoms: N_7  and  C_16
    3  A    between atoms: C_8  and  C_12
    4  A    between atoms: N_13  and  C_27
    5  A    between atoms: C_16  and  C_30
    6  A    between atoms: C_27  and  C_30
                            x       y       z     vdW  Elec       q    Type
                         _______ _______ _______ _____ _____    ______ ____

>  <TORSDO>
F 6

$$$$
=
 OpenBabel11052421573D

 30 33  0  0  1  0  0  0  0  0999 V2000
  160.9890  204.7000  148.6600 C   0  0  0  0  0  2  0  0  0  0  0  0
  160.7440  202.2120  148.7220 C   0  0  0  0  0  0  0  0  0  0  0  0
  160.9850  204.6330  153.0000 C   0  0  0  0  0  2  0  0  0  0  0  0
  161.7280  205.8220  149.3820 C   0  0  2  0  0  3  0  0  0  0  0  0
  160.9220  206.0430  153.6070 C   0  0  0  0  0  2  0  0  0  0  0  0
  160.7250  200.9910  149.3970 C   0  0  0  0  0  3  0  0  0  0  0  0
  160.5000  202.2330  147.3870 F   0  0  0  0  0  0  0  0  0  0  0  0
  161.6080  204.6040  151.5920 C   0  0  2  0  0  3  0  0  0  0  0  0
  160.9730  200.9430  150.7690 C   0  0  0  0  0  3  0  0  0  0  0  0
  161.0160  203.4010  149.4170 C   0  0  0  0  0  0  0  0  0  0  0  0
  161.3120  205.9160  150.8520 C   0  0  1  0  0  3  0  0  0  0  0  0
  162.0590  206.9250  153.0930 C   0  0  0  0  0  2  0  0  0  0  0  0
  162.0020  207.0910  151.5660 C   0  0  0  0  0  2  0  0  0  0  0  0
  161.2320  202.1210  151.4710 C   0  0  0  0  0  3  0  0  0  0  0  0
  161.2300  203.3620  150.8160 C   0  0  0  0  0  0  0  0  0  0  0  0
  160.7810  208.2990  146.8280 O   0  0  0  0  0  0  0  0  0  0  0  0
  161.2750  207.2170  147.2490 C   0  0  0  0  0  0  0  0  0  0  0  0
  161.5830  207.0900  148.6590 N   0  0  0  0  0  0  0  0  0  0  0  0
  160.5620  205.7610  145.3670 N   0  0  0  0  0  0  0  0  0  0  0  0
  162.6450  205.4600  146.1010 N   0  0  0  0  0  2  0  0  0  0  0  0
  161.4980  206.1410  146.2570 C   0  0  0  0  0  0  0  0  0  0  0  0
  161.1920  204.8000  144.6630 C   0  0  0  0  0  3  0  0  0  0  0  0
  162.4500  204.6160  145.1040 N   0  0  0  0  0  0  0  0  0  0  0  0
  161.5580  208.2810  149.4960 C   0  0  0  0  0  2  0  0  0  0  0  0
  162.3250  209.4080  148.8250 C   0  0  0  0  0  2  0  0  0  0  0  0
  161.9330  210.7430  149.4310 C   0  0  0  0  0  2  0  0  0  0  0  0
  162.4800  211.8310  148.6350 N   0  0  0  0  0  2  0  0  0  0  0  0
  160.6470  211.9300  147.1910 O   0  0  0  0  0  1  0  0  0  0  0  0
  161.7760  212.3780  147.5210 C   0  0  0  0  0  0  0  0  0  0  0  0
  162.3430  213.4160  146.7940 O   0  0  0  0  0  0  0  0  0  0  0  0
  1  4  1  0  0  0  0
  1 10  1  0  0  0  0
  2  6  2  0  0  0  0
  2 10  1  0  0  0  0
  3  5  1  0  0  0  0
  4 18  1  6  0  0  0
  4 11  1  0  0  0  0
  6  9  1  0  0  0  0
  7  2  1  0  0  0  0
  8  3  1  1  0  0  0
  9 14  2  0  0  0  0
 10 15  2  0  0  0  0
 11 13  1  1  0  0  0
 11  8  1  0  0  0  0
 12  5  1  0  0  0  0
 13 12  1  0  0  0  0
 15 14  1  0  0  0  0
 15  8  1  0  0  0  0
 16 17  2  0  0  0  0
 17 18  1  0  0  0  0
 18 24  1  0  0  0  0
 19 21  2  0  0  0  0
 20 21  1  0  0  0  0
 21 17  1  0  0  0  0
 22 23  2  0  0  0  0
 22 19  1  0  0  0  0
 23 20  1  0  0  0  0
 25 26  1  0  0  0  0
 25 24  1  0  0  0  0
 27 26  1  0  0  0  0
 28 29  1  0  0  0  0
 29 27  1  0  0  0  0
 30 29  2  0  0  0  0
M  END
>  <MODEL>
3

>  <REMARK>
 VINA RESULT:      -8.3      2.288      4.725
  Name = 
  6 active torsions:
  status: ('A' for Active; 'I' for Inactive)
    1  A    between atoms: C_4  and  N_13
    2  A    between atoms: N_7  and  C_16
    3  A    between atoms: C_8  and  C_12
    4  A    between atoms: N_13  and  C_27
    5  A    between atoms: C_16  and  C_30
    6  A    between atoms: C_27  and  C_30
                            x       y       z     vdW  Elec       q    Type
                         _______ _______ _______ _____ _____    ______ ____

>  <TORSDO>
F 6

$$$$
=
 OpenBabel11052421573D

 30 33  0  0  1  0  0  0  0  0999 V2000
  161.0010  204.5680  148.4640 C   0  0  0  0  0  2  0  0  0  0  0  0
  160.7880  202.0870  148.2280 C   0  0  0  0  0  0  0  0  0  0  0  0
  160.8830  203.9940  152.7650 C   0  0  0  0  0  2  0  0  0  0  0  0
  161.7050  205.6060  149.3320 C   0  0  2  0  0  3  0  0  0  0  0  0
  160.7850  205.3220  153.5300 C   0  0  0  0  0  2  0  0  0  0  0  0
  160.7670  200.7950  148.7560 C   0  0  0  0  0  3  0  0  0  0  0  0
  160.5790  202.2620  146.8980 F   0  0  0  0  0  0  0  0  0  0  0  0
  161.5430  204.1360  151.3800 C   0  0  2  0  0  3  0  0  0  0  0  0
  160.9800  200.5900  150.1190 C   0  0  0  0  0  3  0  0  0  0  0  0
  161.0250  203.1900  149.0650 C   0  0  0  0  0  0  0  0  0  0  0  0
  161.2490  205.5220  150.7900 C   0  0  1  0  0  3  0  0  0  0  0  0
  161.9230  206.2700  153.1540 C   0  0  0  0  0  2  0  0  0  0  0  0
  161.9040  206.6130  151.6560 C   0  0  0  0  0  2  0  0  0  0  0  0
  161.2040  201.6800  150.9600 C   0  0  0  0  0  3  0  0  0  0  0  0
  161.2030  202.9890  150.4550 C   0  0  0  0  0  0  0  0  0  0  0  0
  160.7660  208.3580  147.0750 O   0  0  0  0  0  0  0  0  0  0  0  0
  161.2590  207.2340  147.3700 C   0  0  0  0  0  0  0  0  0  0  0  0
  161.5620  206.9480  148.7580 N   0  0  0  0  0  0  0  0  0  0  0  0
  160.5460  205.9870  145.3450 N   0  0  0  0  0  0  0  0  0  0  0  0
  162.6410  205.6370  146.0220 N   0  0  0  0  0  2  0  0  0  0  0  0
  161.4870  206.2790  146.2630 C   0  0  0  0  0  0  0  0  0  0  0  0
  161.1820  205.1190  144.5320 C   0  0  0  0  0  3  0  0  0  0  0  0
  162.4470  204.9060  144.9390 N   0  0  0  0  0  0  0  0  0  0  0  0
  161.5330  208.0350  149.7260 C   0  0  0  0  0  2  0  0  0  0  0  0
  162.2360  209.2580  149.1600 C   0  0  0  0  0  2  0  0  0  0  0  0
  162.0970  210.4310  150.1120 C   0  0  0  0  0  2  0  0  0  0  0  0
  162.3050  209.9880  151.4820 N   0  0  0  0  0  2  0  0  0  0  0  0
  160.3940  211.0500  152.3030 O   0  0  0  0  0  0  0  0  0  0  0  0
  161.4070  210.3380  152.5340 C   0  0  0  0  0  0  0  0  0  0  0  0
  161.6530  209.8890  153.8240 O   0  0  0  0  0  1  0  0  0  0  0  0
  1 10  1  0  0  0  0
  1  4  1  0  0  0  0
  2  6  2  0  0  0  0
  2 10  1  0  0  0  0
  3  5  1  0  0  0  0
  4 18  1  6  0  0  0
  4 11  1  0  0  0  0
  6  9  1  0  0  0  0
  7  2  1  0  0  0  0
  8  3  1  1  0  0  0
  9 14  2  0  0  0  0
 10 15  2  0  0  0  0
 11  8  1  0  0  0  0
 11 13  1  1  0  0  0
 12  5  1  0  0  0  0
 13 12  1  0  0  0  0
 15 14  1  0  0  0  0
 15  8  1  0  0  0  0
 16 17  2  0  0  0  0
 17 18  1  0  0  0  0
 18 24  1  0  0  0  0
 19 21  2  0  0  0  0
 20 21  1  0  0  0  0
 21 17  1  0  0  0  0
 22 23  2  0  0  0  0
 22 19  1  0  0  0  0
 23 20  1  0  0  0  0
 25 24  1  0  0  0  0
 25 26  1  0  0  0  0
 26 27  1  0  0  0  0
 27 29  1  0  0  0  0
 28 29  2  0  0  0  0
 29 30  1  0  0  0  0
M  END
>  <MODEL>
4

>  <REMARK>
 VINA RESULT:      -8.2      2.506      5.187
  Name = 
  6 active torsions:
  status: ('A' for Active; 'I' for Inactive)
    1  A    between atoms: C_4  and  N_13
    2  A    between atoms: N_7  and  C_16
    3  A    between atoms: C_8  and  C_12
    4  A    between atoms: N_13  and  C_27
    5  A    between atoms: C_16  and  C_30
    6  A    between atoms: C_27  and  C_30
                            x       y       z     vdW  Elec       q    Type
                         _______ _______ _______ _____ _____    ______ ____

>  <TORSDO>
F 6

$$$$
=
 OpenBabel11052421573D

 30 33  0  0  1  0  0  0  0  0999 V2000
  161.4330  204.7590  148.4990 C   0  0  0  0  0  2  0  0  0  0  0  0
  160.9550  202.3670  147.9480 C   0  0  0  0  0  0  0  0  0  0  0  0
  160.7080  203.7640  152.6610 C   0  0  0  0  0  2  0  0  0  0  0  0
  162.1420  205.5980  149.5570 C   0  0  2  0  0  3  0  0  0  0  0  0
  160.6750  205.0060  153.5630 C   0  0  0  0  0  2  0  0  0  0  0  0
  160.7130  201.0420  148.3130 C   0  0  0  0  0  3  0  0  0  0  0  0
  160.9370  202.7050  146.6340 F   0  0  0  0  0  0  0  0  0  0  0  0
  161.5490  203.9600  151.3860 C   0  0  2  0  0  3  0  0  0  0  0  0
  160.7270  200.6700  149.6570 C   0  0  0  0  0  3  0  0  0  0  0  0
  161.2160  203.3350  148.9310 C   0  0  0  0  0  0  0  0  0  0  0  0
  161.5000  205.4260  150.9350 C   0  0  1  0  0  3  0  0  0  0  0  0
  161.9570  205.8280  153.4310 C   0  0  0  0  0  2  0  0  0  0  0  0
  162.1670  206.3240  151.9910 C   0  0  0  0  0  2  0  0  0  0  0  0
  160.9730  201.6280  150.6420 C   0  0  0  0  0  3  0  0  0  0  0  0
  161.1920  202.9700  150.2980 C   0  0  0  0  0  0  0  0  0  0  0  0
  161.4940  208.7670  147.7980 O   0  0  0  0  0  0  0  0  0  0  0  0
  161.7290  207.5300  147.8840 C   0  0  0  0  0  0  0  0  0  0  0  0
  162.2340  206.9990  149.1340 N   0  0  0  0  0  0  0  0  0  0  0  0
  160.2330  206.5780  146.1450 N   0  0  0  0  0  0  0  0  0  0  0  0
  162.3870  206.0250  145.9920 N   0  0  0  0  0  2  0  0  0  0  0  0
  161.4600  206.7020  146.6870 C   0  0  0  0  0  0  0  0  0  0  0  0
  160.4560  205.7780  145.0830 C   0  0  0  0  0  3  0  0  0  0  0  0
  161.7550  205.4420  144.9880 N   0  0  0  0  0  0  0  0  0  0  0  0
  162.6960  207.9260  150.1590 C   0  0  0  0  0  2  0  0  0  0  0  0
  161.5890  208.9050  150.5140 C   0  0  0  0  0  2  0  0  0  0  0  0
  162.0990  209.9350  151.5060 C   0  0  0  0  0  2  0  0  0  0  0  0
  160.9780  210.6000  152.1530 N   0  0  0  0  0  2  0  0  0  0  0  0
  160.9980  209.1970  154.0210 O   0  0  0  0  0  1  0  0  0  0  0  0
  160.4770  210.1730  153.4190 C   0  0  0  0  0  0  0  0  0  0  0  0
  159.4050  210.8420  153.9940 O   0  0  0  0  0  0  0  0  0  0  0  0
  1 10  1  0  0  0  0
  1  4  1  0  0  0  0
  2  6  2  0  0  0  0
  2 10  1  0  0  0  0
  3  5  1  0  0  0  0
  4 18  1  6  0  0  0
  4 11  1  0  0  0  0
  6  9  1  0  0  0  0
  7  2  1  0  0  0  0
  8  3  1  1  0  0  0
  9 14  2  0  0  0  0
 10 15  2  0  0  0  0
 11  8  1  0  0  0  0
 11 13  1  1  0  0  0
 12  5  1  0  0  0  0
 13 12  1  0  0  0  0
 15 14  1  0  0  0  0
 15  8  1  0  0  0  0
 16 17  2  0  0  0  0
 17 18  1  0  0  0  0
 18 24  1  0  0  0  0
 19 21  2  0  0  0  0
 20 21  1  0  0  0  0
 21 17  1  0  0  0  0
 22 19  1  0  0  0  0
 23 22  2  0  0  0  0
 23 20  1  0  0  0  0
 24 25  1  0  0  0  0
 25 26  1  0  0  0  0
 26 27  1  0  0  0  0
 27 29  1  0  0  0  0
 29 30  2  0  0  0  0
 29 28  1  0  0  0  0
M  END
>  <MODEL>
5

>  <REMARK>
 VINA RESULT:      -7.9      2.662      5.229
  Name = 
  6 active torsions:
  status: ('A' for Active; 'I' for Inactive)
    1  A    between atoms: C_4  and  N_13
    2  A    between atoms: N_7  and  C_16
    3  A    between atoms: C_8  and  C_12
    4  A    between atoms: N_13  and  C_27
    5  A    between atoms: C_16  and  C_30
    6  A    between atoms: C_27  and  C_30
                            x       y       z     vdW  Elec       q    Type
                         _______ _______ _______ _____ _____    ______ ____

>  <TORSDO>
F 6

$$$$
=
 OpenBabel11052421573D

 30 33  0  0  1  0  0  0  0  0999 V2000
  161.6150  209.5460  153.2310 C   0  0  0  0  0  2  0  0  0  0  0  0
  161.2300  209.6450  155.7000 C   0  0  0  0  0  0  0  0  0  0  0  0
  161.2060  205.2350  153.5140 C   0  0  0  0  0  2  0  0  0  0  0  0
  161.1150  208.8040  151.9960 C   0  0  2  0  0  3  0  0  0  0  0  0
  161.5600  204.5250  152.1980 C   0  0  0  0  0  2  0  0  0  0  0  0
  160.8850  209.0580  156.9180 C   0  0  0  0  0  3  0  0  0  0  0  0
  161.5930  210.9520  155.6740 F   0  0  0  0  0  0  0  0  0  0  0  0
  160.7270  206.6840  153.3140 C   0  0  2  0  0  3  0  0  0  0  0  0
  160.5080  207.7170  156.9710 C   0  0  0  0  0  3  0  0  0  0  0  0
  161.1990  208.8880  154.5170 C   0  0  0  0  0  0  0  0  0  0  0  0
  161.4050  207.3040  152.0840 C   0  0  1  0  0  3  0  0  0  0  0  0
  160.7290  205.0600  151.0330 C   0  0  0  0  0  2  0  0  0  0  0  0
  160.9650  206.5620  150.8100 C   0  0  0  0  0  2  0  0  0  0  0  0
  160.4860  206.9540  155.8020 C   0  0  0  0  0  3  0  0  0  0  0  0
  160.8550  207.5160  154.5710 C   0  0  0  0  0  0  0  0  0  0  0  0
  162.3440  211.3130  149.5990 O   0  0  0  0  0  0  0  0  0  0  0  0
  161.5370  210.8290  150.4400 C   0  0  0  0  0  0  0  0  0  0  0  0
  161.6340  209.4220  150.7710 N   0  0  0  0  0  0  0  0  0  0  0  0
  160.1770  212.9070  150.4540 N   0  0  0  0  0  0  0  0  0  0  0  0
  159.8750  211.5280  152.1790 N   0  0  0  0  0  2  0  0  0  0  0  0
  160.5440  211.7490  151.0360 C   0  0  0  0  0  0  0  0  0  0  0  0
  159.2540  213.3920  151.3090 C   0  0  0  0  0  3  0  0  0  0  0  0
  159.0700  212.5610  152.3510 N   0  0  0  0  0  0  0  0  0  0  0  0
  162.4740  208.5600  149.9520 C   0  0  0  0  0  2  0  0  0  0  0  0
  161.9050  208.4580  148.5460 C   0  0  0  0  0  2  0  0  0  0  0  0
  162.3020  207.1370  147.9140 C   0  0  0  0  0  2  0  0  0  0  0  0
  161.2510  206.6760  147.0200 N   0  0  0  0  0  2  0  0  0  0  0  0
  162.7030  205.4570  145.6550 O   0  0  0  0  0  1  0  0  0  0  0  0
  161.5260  205.8330  145.9020 C   0  0  0  0  0  0  0  0  0  0  0  0
  160.4860  205.4220  145.0800 O   0  0  0  0  0  0  0  0  0  0  0  0
  1 10  1  0  0  0  0
  2  6  1  0  0  0  0
  4 18  1  6  0  0  0
  4 11  1  0  0  0  0
  4  1  1  0  0  0  0
  5  3  1  0  0  0  0
  6  9  2  0  0  0  0
  7  2  1  0  0  0  0
  8  3  1  1  0  0  0
  8 15  1  0  0  0  0
 10 15  1  0  0  0  0
 10  2  2  0  0  0  0
 11 13  1  6  0  0  0
 11  8  1  0  0  0  0
 12  5  1  0  0  0  0
 13 12  1  0  0  0  0
 14  9  1  0  0  0  0
 15 14  2  0  0  0  0
 16 17  2  0  0  0  0
 17 18  1  0  0  0  0
 17 21  1  0  0  0  0
 19 21  2  0  0  0  0
 19 22  1  0  0  0  0
 20 23  1  0  0  0  0
 21 20  1  0  0  0  0
 22 23  2  0  0  0  0
 24 18  1  0  0  0  0
 25 24  1  0  0  0  0
 26 25  1  0  0  0  0
 27 26  1  0  0  0  0
 28 29  1  0  0  0  0
 29 27  1  0  0  0  0
 30 29  2  0  0  0  0
M  END
>  <MODEL>
6

>  <REMARK>
 VINA RESULT:      -7.8      3.306      6.194
  Name = 
  6 active torsions:
  status: ('A' for Active; 'I' for Inactive)
    1  A    between atoms: C_4  and  N_13
    2  A    between atoms: N_7  and  C_16
    3  A    between atoms: C_8  and  C_12
    4  A    between atoms: N_13  and  C_27
    5  A    between atoms: C_16  and  C_30
    6  A    between atoms: C_27  and  C_30
                            x       y       z     vdW  Elec       q    Type
                         _______ _______ _______ _____ _____    ______ ____

>  <TORSDO>
F 6

$$$$
=
 OpenBabel11052421573D

 30 33  0  0  1  0  0  0  0  0999 V2000
  161.1890  207.5730  154.2470 C   0  0  0  0  0  2  0  0  0  0  0  0
  161.1890  205.4010  153.0080 C   0  0  0  0  0  0  0  0  0  0  0  0
  161.8670  209.5460  150.4410 C   0  0  0  0  0  2  0  0  0  0  0  0
  160.6900  209.0070  154.0980 C   0  0  2  0  0  3  0  0  0  0  0  0
  162.1660  211.0440  150.6030 C   0  0  0  0  0  2  0  0  0  0  0  0
  161.1910  204.6540  151.8290 C   0  0  0  0  0  3  0  0  0  0  0  0
  161.2220  204.7550  154.2000 F   0  0  0  0  0  0  0  0  0  0  0  0
  161.0310  208.9640  151.5960 C   0  0  2  0  0  3  0  0  0  0  0  0
  161.1570  205.2950  150.5910 C   0  0  0  0  0  3  0  0  0  0  0  0
  161.1510  206.8040  152.9560 C   0  0  0  0  0  0  0  0  0  0  0  0
  161.3380  209.7080  152.9030 C   0  0  1  0  0  3  0  0  0  0  0  0
  161.0570  211.7550  151.3770 C   0  0  0  0  0  2  0  0  0  0  0  0
  160.8910  211.1750  152.7910 C   0  0  0  0  0  2  0  0  0  0  0  0
  161.1310  206.6890  150.5290 C   0  0  0  0  0  3  0  0  0  0  0  0
  161.1560  207.4600  151.7010 C   0  0  0  0  0  0  0  0  0  0  0  0
  159.9140  210.7330  157.2560 O   0  0  0  0  0  0  0  0  0  0  0  0
  159.7980  210.4900  156.0240 C   0  0  0  0  0  0  0  0  0  0  0  0
  160.8460  209.7450  155.3560 N   0  0  0  0  0  0  0  0  0  0  0  0
  157.3570  210.4650  155.5670 N   0  0  0  0  0  0  0  0  0  0  0  0
  158.5400  212.0120  154.4810 N   0  0  0  0  0  2  0  0  0  0  0  0
  158.5790  210.9850  155.3450 C   0  0  0  0  0  0  0  0  0  0  0  0
  156.5640  211.2220  154.7810 C   0  0  0  0  0  3  0  0  0  0  0  0
  157.2760  212.1570  154.1250 N   0  0  0  0  0  0  0  0  0  0  0  0
  162.1060  209.5230  156.0510 C   0  0  0  0  0  2  0  0  0  0  0  0
  162.9950  210.7490  155.9280 C   0  0  0  0  0  2  0  0  0  0  0  0
  163.8640  210.8940  157.1630 C   0  0  0  0  0  2  0  0  0  0  0  0
  164.3680  212.2550  157.2610 N   0  0  0  0  0  2  0  0  0  0  0  0
  166.5480  211.6800  156.6520 O   0  0  0  0  0  0  0  0  0  0  0  0
  165.7310  212.5770  156.9900 C   0  0  0  0  0  0  0  0  0  0  0  0
  166.1610  213.8930  157.0970 O   0  0  0  0  0  1  0  0  0  0  0  0
  2  7  1  0  0  0  0
  3  5  1  0  0  0  0
  4  1  1  0  0  0  0
  4 18  1  1  0  0  0
  5 12  1  0  0  0  0
  6  2  2  0  0  0  0
  8  3  1  6  0  0  0
  8 15  1  0  0  0  0
  8 11  1  0  0  0  0
  9  6  1  0  0  0  0
 10  2  1  0  0  0  0
 10  1  1  0  0  0  0
 11 13  1  6  0  0  0
 11  4  1  0  0  0  0
 12 13  1  0  0  0  0
 14  9  2  0  0  0  0
 14 15  1  0  0  0  0
 15 10  2  0  0  0  0
 17 16  2  0  0  0  0
 18 17  1  0  0  0  0
 18 24  1  0  0  0  0
 20 21  1  0  0  0  0
 21 19  2  0  0  0  0
 21 17  1  0  0  0  0
 22 19  1  0  0  0  0
 23 20  1  0  0  0  0
 23 22  2  0  0  0  0
 25 24  1  0  0  0  0
 25 26  1  0  0  0  0
 26 27  1  0  0  0  0
 28 29  2  0  0  0  0
 29 30  1  0  0  0  0
 29 27  1  0  0  0  0
M  END
>  <MODEL>
7

>  <REMARK>
 VINA RESULT:      -7.6      4.426      6.782
  Name = 
  6 active torsions:
  status: ('A' for Active; 'I' for Inactive)
    1  A    between atoms: C_4  and  N_13
    2  A    between atoms: N_7  and  C_16
    3  A    between atoms: C_8  and  C_12
    4  A    between atoms: N_13  and  C_27
    5  A    between atoms: C_16  and  C_30
    6  A    between atoms: C_27  and  C_30
                            x       y       z     vdW  Elec       q    Type
                         _______ _______ _______ _____ _____    ______ ____

>  <TORSDO>
F 6

$$$$
=
 OpenBabel11052421573D

 30 33  0  0  1  0  0  0  0  0999 V2000
  161.4670  207.9700  153.2140 C   0  0  0  0  0  2  0  0  0  0  0  0
  161.1340  205.5790  152.5630 C   0  0  0  0  0  0  0  0  0  0  0  0
  162.1020  208.8450  149.0110 C   0  0  0  0  0  2  0  0  0  0  0  0
  161.1260  209.3750  152.7280 C   0  0  2  0  0  3  0  0  0  0  0  0
  162.5810  210.2860  148.7780 C   0  0  0  0  0  2  0  0  0  0  0  0
  160.9690  204.5710  151.6120 C   0  0  0  0  0  3  0  0  0  0  0  0
  161.1740  205.2470  153.8780 F   0  0  0  0  0  0  0  0  0  0  0  0
  161.2870  208.6760  150.3060 C   0  0  2  0  0  3  0  0  0  0  0  0
  160.9240  204.8880  150.2540 C   0  0  0  0  0  3  0  0  0  0  0  0
  161.2530  206.9190  152.1610 C   0  0  0  0  0  0  0  0  0  0  0  0
  161.7660  209.6730  151.3710 C   0  0  1  0  0  3  0  0  0  0  0  0
  161.6170  211.3020  149.3900 C   0  0  0  0  0  2  0  0  0  0  0  0
  161.4830  211.1130  150.9100 C   0  0  0  0  0  2  0  0  0  0  0  0
  161.0530  206.2150  149.8440 C   0  0  0  0  0  3  0  0  0  0  0  0
  161.2460  207.2410  150.7830 C   0  0  0  0  0  0  0  0  0  0  0  0
  160.7720  211.9700  155.3160 O   0  0  0  0  0  0  0  0  0  0  0  0
  160.5740  211.4420  154.1870 C   0  0  0  0  0  0  0  0  0  0  0  0
  161.4520  210.3740  153.7520 N   0  0  0  0  0  0  0  0  0  0  0  0
  158.1910  211.4680  153.4910 N   0  0  0  0  0  0  0  0  0  0  0  0
  159.5130  212.9690  152.5080 N   0  0  0  0  0  2  0  0  0  0  0  0
  159.4420  211.9550  153.3850 C   0  0  0  0  0  0  0  0  0  0  0  0
  157.4990  212.2310  152.6210 C   0  0  0  0  0  3  0  0  0  0  0  0
  158.2950  213.1380  152.0260 N   0  0  0  0  0  0  0  0  0  0  0  0
  162.6740  210.1160  154.5000 C   0  0  0  0  0  2  0  0  0  0  0  0
  162.5600  210.6910  155.9020 C   0  0  0  0  0  2  0  0  0  0  0  0
  162.6820  209.5850  156.9350 C   0  0  0  0  0  2  0  0  0  0  0  0
  161.8800  208.4400  156.5350 N   0  0  0  0  0  2  0  0  0  0  0  0
  159.8660  209.3740  157.2610 O   0  0  0  0  0  1  0  0  0  0  0  0
  160.4670  208.4030  156.7300 C   0  0  0  0  0  0  0  0  0  0  0  0
  159.7480  207.2850  156.3300 O   0  0  0  0  0  0  0  0  0  0  0  0
  2  7  1  0  0  0  0
  4  1  1  0  0  0  0
  4 18  1  1  0  0  0
  5  3  1  0  0  0  0
  5 12  1  0  0  0  0
  6  2  2  0  0  0  0
  8  3  1  6  0  0  0
  8 15  1  0  0  0  0
  8 11  1  0  0  0  0
  9  6  1  0  0  0  0
 10  2  1  0  0  0  0
 10  1  1  0  0  0  0
 11 13  1  6  0  0  0
 11  4  1  0  0  0  0
 12 13  1  0  0  0  0
 14  9  2  0  0  0  0
 14 15  1  0  0  0  0
 15 10  2  0  0  0  0
 17 16  2  0  0  0  0
 18 17  1  0  0  0  0
 18 24  1  0  0  0  0
 20 21  1  0  0  0  0
 21 19  2  0  0  0  0
 21 17  1  0  0  0  0
 22 19  1  0  0  0  0
 23 20  1  0  0  0  0
 23 22  2  0  0  0  0
 24 25  1  0  0  0  0
 25 26  1  0  0  0  0
 27 29  1  0  0  0  0
 27 26  1  0  0  0  0
 29 28  1  0  0  0  0
 30 29  2  0  0  0  0
M  END
>  <MODEL>
8

>  <REMARK>
 VINA RESULT:      -7.6      3.532      6.212
  Name = 
  6 active torsions:
  status: ('A' for Active; 'I' for Inactive)
    1  A    between atoms: C_4  and  N_13
    2  A    between atoms: N_7  and  C_16
    3  A    between atoms: C_8  and  C_12
    4  A    between atoms: N_13  and  C_27
    5  A    between atoms: C_16  and  C_30
    6  A    between atoms: C_27  and  C_30
                            x       y       z     vdW  Elec       q    Type
                         _______ _______ _______ _____ _____    ______ ____

>  <TORSDO>
F 6

$$$$
=
 OpenBabel11052421573D

 30 33  0  0  1  0  0  0  0  0999 V2000
  162.3250  210.5570  150.0430 C   0  0  0  0  0  2  0  0  0  0  0  0
  162.7050  212.2690  148.2600 C   0  0  0  0  0  0  0  0  0  0  0  0
  159.6700  213.4020  151.9660 C   0  0  0  0  0  2  0  0  0  0  0  0
  161.2010  209.9970  150.9090 C   0  0  2  0  0  3  0  0  0  0  0  0
  159.2190  212.9330  153.3580 C   0  0  0  0  0  2  0  0  0  0  0  0
  162.4160  213.4820  147.6340 C   0  0  0  0  0  3  0  0  0  0  0  0
  163.7140  211.5000  147.7780 F   0  0  0  0  0  0  0  0  0  0  0  0
  160.0490  212.2410  151.0270 C   0  0  2  0  0  3  0  0  0  0  0  0
  161.3840  214.2900  148.1100 C   0  0  0  0  0  3  0  0  0  0  0  0
  161.9570  211.8510  149.3730 C   0  0  0  0  0  0  0  0  0  0  0  0
  160.6170  211.0660  151.8340 C   0  0  1  0  0  3  0  0  0  0  0  0
  158.5640  211.5540  153.2990 C   0  0  0  0  0  2  0  0  0  0  0  0
  159.5310  210.4890  152.7580 C   0  0  0  0  0  2  0  0  0  0  0  0
  160.6430  213.8890  149.2230 C   0  0  0  0  0  3  0  0  0  0  0  0
  160.9340  212.6860  149.8830 C   0  0  0  0  0  0  0  0  0  0  0  0
  162.7450  206.7350  151.6340 O   0  0  0  0  0  0  0  0  0  0  0  0
  162.0120  207.5400  150.9970 C   0  0  0  0  0  0  0  0  0  0  0  0
  161.6430  208.7940  151.6220 N   0  0  0  0  0  0  0  0  0  0  0  0
  162.3240  207.3810  148.5380 N   0  0  0  0  0  0  0  0  0  0  0  0
  160.4570  206.4700  149.3490 N   0  0  0  0  0  2  0  0  0  0  0  0
  161.5840  207.1400  149.6380 C   0  0  0  0  0  0  0  0  0  0  0  0
  161.5820  206.8330  147.5550 C   0  0  0  0  0  3  0  0  0  0  0  0
  160.4550  206.2820  148.0410 N   0  0  0  0  0  0  0  0  0  0  0  0
  161.9080  208.9800  153.0420 C   0  0  0  0  0  2  0  0  0  0  0  0
  161.1190  207.9690  153.8570 C   0  0  0  0  0  2  0  0  0  0  0  0
  161.3380  208.2040  155.3400 C   0  0  0  0  0  2  0  0  0  0  0  0
  161.6470  209.6050  155.5820 N   0  0  0  0  0  2  0  0  0  0  0  0
  159.5640  210.0830  156.5250 O   0  0  0  0  0  1  0  0  0  0  0  0
  160.7040  210.4930  156.1820 C   0  0  0  0  0  0  0  0  0  0  0  0
  161.0490  211.8220  156.3900 O   0  0  0  0  0  0  0  0  0  0  0  0
  1  4  1  0  0  0  0
  2 10  1  0  0  0  0
  3  5  1  0  0  0  0
  4 18  1  1  0  0  0
  4 11  1  0  0  0  0
  6  9  1  0  0  0  0
  6  2  2  0  0  0  0
  7  2  1  0  0  0  0
  8 11  1  0  0  0  0
  8  3  1  1  0  0  0
  9 14  2  0  0  0  0
 10 15  2  0  0  0  0
 10  1  1  0  0  0  0
 11 13  1  6  0  0  0
 12  5  1  0  0  0  0
 13 12  1  0  0  0  0
 14 15  1  0  0  0  0
 15  8  1  0  0  0  0
 17 18  1  0  0  0  0
 17 16  2  0  0  0  0
 18 24  1  0  0  0  0
 19 21  2  0  0  0  0
 20 21  1  0  0  0  0
 21 17  1  0  0  0  0
 22 23  2  0  0  0  0
 22 19  1  0  0  0  0
 23 20  1  0  0  0  0
 24 25  1  0  0  0  0
 25 26  1  0  0  0  0
 26 27  1  0  0  0  0
 27 29  1  0  0  0  0
 29 30  2  0  0  0  0
 29 28  1  0  0  0  0
M  END
>  <MODEL>
9

>  <REMARK>
 VINA RESULT:      -7.4      3.953      8.011
  Name = 
  6 active torsions:
  status: ('A' for Active; 'I' for Inactive)
    1  A    between atoms: C_4  and  N_13
    2  A    between atoms: N_7  and  C_16
    3  A    between atoms: C_8  and  C_12
    4  A    between atoms: N_13  and  C_27
    5  A    between atoms: C_16  and  C_30
    6  A    between atoms: C_27  and  C_30
                            x       y       z     vdW  Elec       q    Type
                         _______ _______ _______ _____ _____    ______ ____

>  <TORSDO>
F 6

$$$$
