=
 OpenBabel11062410503D

 32 35  0  0  1  0  0  0  0  0999 V2000
  160.3840  205.7870  150.3160 C   0  0  1  0  0  3  0  0  0  0  0  0
  160.9050  200.8830  149.9890 C   0  0  0  0  0  3  0  0  0  0  0  0
  160.9010  201.0080  148.5980 C   0  0  0  0  0  3  0  0  0  0  0  0
  160.8370  206.8080  152.6000 C   0  0  2  0  0  3  0  0  0  0  0  0
  162.0880  204.6970  151.8550 C   0  0  0  0  0  2  0  0  0  0  0  0
  163.2510  206.6310  152.6320 O   0  0  0  0  0  1  0  0  0  0  0  0
  160.8640  202.0240  150.7920 C   0  0  0  0  0  3  0  0  0  0  0  0
  160.7660  204.5090  151.1010 C   0  0  2  0  0  3  0  0  0  0  0  0
  160.8260  203.2990  150.2100 C   0  0  0  0  0  0  0  0  0  0  0  0
  160.7120  204.8030  148.1680 C   0  0  1  0  0  3  0  0  0  0  0  0
  162.0680  205.9050  152.8040 C   0  0  1  0  0  3  0  0  0  0  0  0
  160.8590  202.2740  148.0090 C   0  0  0  0  0  3  0  0  0  0  0  0
  160.8440  203.4310  148.8040 C   0  0  0  0  0  0  0  0  0  0  0  0
  160.6000  207.0800  151.1180 C   0  0  0  0  0  2  0  0  0  0  0  0
  161.1500  205.8650  149.0750 N   0  0  0  0  0  2  0  0  0  0  0  0
  163.4220  204.4060  145.5230 C   0  0  0  0  0  0  0  0  0  0  0  0
  162.8560  205.0880  144.4430 C   0  0  0  0  0  3  0  0  0  0  0  0
  160.8950  205.5880  145.7760 C   0  0  0  0  0  0  0  0  0  0  0  0
  161.0540  206.3300  143.5090 F   0  0  0  0  0  0  0  0  0  0  0  0
  161.5940  205.6740  144.5660 C   0  0  0  0  0  0  0  0  0  0  0  0
  162.7270  204.3180  146.7330 C   0  0  0  0  0  3  0  0  0  0  0  0
  164.6510  203.8490  145.4050 F   0  0  0  0  0  0  0  0  0  0  0  0
  159.6360  206.1700  145.8870 O   0  0  0  0  0  1  0  0  0  0  0  0
  161.4620  204.9100  146.8680 C   0  0  0  0  0  0  0  0  0  0  0  0
  160.9520  208.1130  153.3750 C   0  0  0  0  0  2  0  0  0  0  0  0
  162.2620  210.0180  151.9520 S   0  0  0  0  0  1  0  0  0  0  0  0
  160.6560  209.3010  152.4610 C   0  0  2  0  0  3  0  0  0  0  0  0
  160.3060  211.6230  152.7830 C   0  0  0  0  0  1  0  0  0  0  0  0
  159.8270  210.2950  153.1550 N   0  0  0  0  0  0  0  0  0  0  0  0
  160.0760  210.1880  154.5890 C   0  0  0  0  0  2  0  0  0  0  0  0
  160.7710  211.4380  155.0990 C   0  0  0  0  0  2  0  0  0  0  0  0
  161.9030  211.0910  155.8380 O   0  0  0  0  0  1  0  0  0  0  0  0
  1  8  1  0  0  0  0
  1 14  1  1  0  0  0
  2  7  1  0  0  0  0
  3  2  2  0  0  0  0
  4 11  1  0  0  0  0
  4 25  1  1  0  0  0
  5 11  1  0  0  0  0
  8  5  1  6  0  0  0
  9  7  2  0  0  0  0
  9  8  1  0  0  0  0
 10 24  1  6  0  0  0
 10 13  1  0  0  0  0
 10 15  1  0  0  0  0
 11  6  1  6  0  0  0
 12  3  1  0  0  0  0
 12 13  2  0  0  0  0
 13  9  1  0  0  0  0
 14  4  1  0  0  0  0
 15  1  1  0  0  0  0
 16 21  1  0  0  0  0
 17 20  1  0  0  0  0
 17 16  2  0  0  0  0
 18 23  1  0  0  0  0
 18 24  1  0  0  0  0
 19 20  1  0  0  0  0
 20 18  2  0  0  0  0
 21 24  2  0  0  0  0
 22 16  1  0  0  0  0
 27 26  1  1  0  0  0
 27 29  1  0  0  0  0
 27 25  1  0  0  0  0
 28 29  1  0  0  0  0
 29 30  1  0  0  0  0
 30 31  1  0  0  0  0
 31 32  1  0  0  0  0
M  END
>  <MODEL>
1

>  <REMARK>
 VINA RESULT:      -7.1      0.000      0.000
  Name = 
  6 active torsions:
  status: ('A' for Active; 'I' for Inactive)
    1  A    between atoms: C_1  and  C_10
    2  A    between atoms: C_8  and  C_23
    3  A    between atoms: C_10  and  N_24
    4  A    between atoms: C_16  and  C_32
    5  A    between atoms: C_19  and  C_23
    6  A    between atoms: C_19  and  N_24
                            x       y       z     vdW  Elec       q    Type
                         _______ _______ _______ _____ _____    ______ ____

>  <TORSDO>
F 6

$$$$
=
 OpenBabel11062410503D

 32 35  0  0  1  0  0  0  0  0999 V2000
  160.3780  205.8880  150.4070 C   0  0  1  0  0  3  0  0  0  0  0  0
  160.8210  200.9760  150.0940 C   0  0  0  0  0  3  0  0  0  0  0  0
  160.8230  201.0970  148.7030 C   0  0  0  0  0  3  0  0  0  0  0  0
  160.8400  206.9080  152.6890 C   0  0  2  0  0  3  0  0  0  0  0  0
  162.0600  204.7760  151.9520 C   0  0  0  0  0  2  0  0  0  0  0  0
  163.2520  206.6930  152.7270 O   0  0  0  0  0  1  0  0  0  0  0  0
  160.7970  202.1200  150.8930 C   0  0  0  0  0  3  0  0  0  0  0  0
  160.7380  204.6070  151.1960 C   0  0  2  0  0  3  0  0  0  0  0  0
  160.7800  203.3940  150.3080 C   0  0  0  0  0  0  0  0  0  0  0  0
  160.6960  204.8930  148.2620 C   0  0  1  0  0  3  0  0  0  0  0  0
  162.0570  205.9870  152.8980 C   0  0  1  0  0  3  0  0  0  0  0  0
  160.8030  202.3620  148.1100 C   0  0  0  0  0  3  0  0  0  0  0  0
  160.8040  203.5220  148.9020 C   0  0  0  0  0  0  0  0  0  0  0  0
  160.6120  207.1800  151.2050 C   0  0  0  0  0  2  0  0  0  0  0  0
  161.1490  205.9510  149.1670 N   0  0  0  0  0  2  0  0  0  0  0  0
  163.4300  204.4940  145.6430 C   0  0  0  0  0  0  0  0  0  0  0  0
  162.8550  205.1340  144.5430 C   0  0  0  0  0  3  0  0  0  0  0  0
  160.8740  205.6200  145.8510 C   0  0  0  0  0  0  0  0  0  0  0  0
  161.0290  206.3080  143.5670 F   0  0  0  0  0  0  0  0  0  0  0  0
  161.5790  205.6930  144.6430 C   0  0  0  0  0  0  0  0  0  0  0  0
  162.7300  204.4200  146.8500 C   0  0  0  0  0  3  0  0  0  0  0  0
  164.6730  203.9640  145.5460 F   0  0  0  0  0  0  0  0  0  0  0  0
  159.6010  206.1740  145.9400 O   0  0  0  0  0  1  0  0  0  0  0  0
  161.4510  204.9850  146.9630 C   0  0  0  0  0  0  0  0  0  0  0  0
  160.9750  208.2140  153.4610 C   0  0  0  0  0  2  0  0  0  0  0  0
  159.6880  207.2840  155.6630 S   0  0  0  0  0  1  0  0  0  0  0  0
  161.2400  207.9310  154.9380 C   0  0  2  0  0  3  0  0  0  0  0  0
  162.0700  208.7860  156.9880 C   0  0  0  0  0  1  0  0  0  0  0  0
  161.6800  209.1510  155.6290 N   0  0  0  0  0  0  0  0  0  0  0  0
  160.5290  210.0350  155.7880 C   0  0  0  0  0  2  0  0  0  0  0  0
  160.8910  211.4510  155.3750 C   0  0  0  0  0  2  0  0  0  0  0  0
  160.4670  211.6920  154.0660 O   0  0  0  0  0  1  0  0  0  0  0  0
  1  8  1  0  0  0  0
  1 14  1  1  0  0  0
  2  7  1  0  0  0  0
  3  2  2  0  0  0  0
  4 11  1  0  0  0  0
  4 25  1  1  0  0  0
  5 11  1  0  0  0  0
  8  5  1  6  0  0  0
  9  7  2  0  0  0  0
  9  8  1  0  0  0  0
 10 24  1  6  0  0  0
 10 13  1  0  0  0  0
 10 15  1  0  0  0  0
 11  6  1  6  0  0  0
 12  3  1  0  0  0  0
 12 13  2  0  0  0  0
 13  9  1  0  0  0  0
 14  4  1  0  0  0  0
 15  1  1  0  0  0  0
 16 21  1  0  0  0  0
 17 20  1  0  0  0  0
 17 16  2  0  0  0  0
 18 23  1  0  0  0  0
 18 24  1  0  0  0  0
 19 20  1  0  0  0  0
 20 18  2  0  0  0  0
 21 24  2  0  0  0  0
 22 16  1  0  0  0  0
 25 27  1  0  0  0  0
 27 29  1  0  0  0  0
 27 26  1  1  0  0  0
 29 30  1  0  0  0  0
 29 28  1  0  0  0  0
 31 30  1  0  0  0  0
 32 31  1  0  0  0  0
M  END
>  <MODEL>
2

>  <REMARK>
 VINA RESULT:      -7.0      1.378      1.617
  Name = 
  6 active torsions:
  status: ('A' for Active; 'I' for Inactive)
    1  A    between atoms: C_1  and  C_10
    2  A    between atoms: C_8  and  C_23
    3  A    between atoms: C_10  and  N_24
    4  A    between atoms: C_16  and  C_32
    5  A    between atoms: C_19  and  C_23
    6  A    between atoms: C_19  and  N_24
                            x       y       z     vdW  Elec       q    Type
                         _______ _______ _______ _____ _____    ______ ____

>  <TORSDO>
F 6

$$$$
=
 OpenBabel11062410503D

 32 35  0  0  1  0  0  0  0  0999 V2000
  161.2020  209.6220  153.5610 C   0  0  1  0  0  3  0  0  0  0  0  0
  162.0310  210.8970  148.8590 C   0  0  0  0  0  3  0  0  0  0  0  0
  162.3830  209.5720  148.5950 C   0  0  0  0  0  3  0  0  0  0  0  0
  159.9050  211.3000  154.9610 C   0  0  2  0  0  3  0  0  0  0  0  0
  159.4720  211.1080  152.4410 C   0  0  0  0  0  2  0  0  0  0  0  0
  157.6970  210.9570  154.0290 O   0  0  0  0  0  1  0  0  0  0  0  0
  161.5660  211.2560  150.1250 C   0  0  0  0  0  3  0  0  0  0  0  0
  160.9520  210.7130  152.4930 C   0  0  2  0  0  3  0  0  0  0  0  0
  161.4410  210.2920  151.1340 C   0  0  0  0  0  0  0  0  0  0  0  0
  161.7280  207.9160  151.9790 C   0  0  1  0  0  3  0  0  0  0  0  0
  158.9300  211.5750  153.8000 C   0  0  1  0  0  3  0  0  0  0  0  0
  162.2660  208.6050  149.5950 C   0  0  0  0  0  3  0  0  0  0  0  0
  161.7750  208.9460  150.8660 C   0  0  0  0  0  0  0  0  0  0  0  0
  160.4610  209.8820  154.8820 C   0  0  0  0  0  2  0  0  0  0  0  0
  160.8090  208.3120  153.0470 N   0  0  0  0  0  2  0  0  0  0  0  0
  160.8060  205.0540  149.6430 C   0  0  0  0  0  0  0  0  0  0  0  0
  160.6900  203.9900  150.5410 C   0  0  0  0  0  3  0  0  0  0  0  0
  161.2490  205.4700  152.3770 C   0  0  0  0  0  0  0  0  0  0  0  0
  160.8030  203.1530  152.7660 F   0  0  0  0  0  0  0  0  0  0  0  0
  160.9140  204.1950  151.9040 C   0  0  0  0  0  0  0  0  0  0  0  0
  161.1390  206.3280  150.1110 C   0  0  0  0  0  3  0  0  0  0  0  0
  160.5760  204.8550  148.3230 F   0  0  0  0  0  0  0  0  0  0  0  0
  161.4760  205.6620  153.7360 O   0  0  0  0  0  1  0  0  0  0  0  0
  161.3590  206.5440  151.4800 C   0  0  0  0  0  0  0  0  0  0  0  0
  159.2610  211.5500  156.3180 C   0  0  0  0  0  2  0  0  0  0  0  0
  160.2420  213.9230  157.2010 S   0  0  0  0  0  1  0  0  0  0  0  0
  158.8430  213.0140  156.4450 C   0  0  2  0  0  3  0  0  0  0  0  0
  156.9300  211.8570  157.2330 C   0  0  0  0  0  1  0  0  0  0  0  0
  157.6280  213.1390  157.2600 N   0  0  0  0  0  0  0  0  0  0  0  0
  156.7230  214.0790  156.6050 C   0  0  0  0  0  2  0  0  0  0  0  0
  155.7620  213.3380  155.6920 C   0  0  0  0  0  2  0  0  0  0  0  0
  155.7140  213.9560  154.4410 O   0  0  0  0  0  1  0  0  0  0  0  0
  1 14  1  1  0  0  0
  2  7  1  0  0  0  0
  3  2  2  0  0  0  0
  3 12  1  0  0  0  0
  4 25  1  1  0  0  0
  5 11  1  0  0  0  0
  7  9  2  0  0  0  0
  8  5  1  6  0  0  0
  8  1  1  0  0  0  0
  9  8  1  0  0  0  0
 10 24  1  6  0  0  0
 10 15  1  0  0  0  0
 11  6  1  1  0  0  0
 11  4  1  0  0  0  0
 12 13  2  0  0  0  0
 13  9  1  0  0  0  0
 13 10  1  0  0  0  0
 14  4  1  0  0  0  0
 15  1  1  0  0  0  0
 16 21  2  0  0  0  0
 16 17  1  0  0  0  0
 17 20  2  0  0  0  0
 18 23  1  0  0  0  0
 20 18  1  0  0  0  0
 20 19  1  0  0  0  0
 21 24  1  0  0  0  0
 22 16  1  0  0  0  0
 24 18  2  0  0  0  0
 25 27  1  0  0  0  0
 27 26  1  1  0  0  0
 27 29  1  0  0  0  0
 28 29  1  0  0  0  0
 30 29  1  0  0  0  0
 31 30  1  0  0  0  0
 32 31  1  0  0  0  0
M  END
>  <MODEL>
3

>  <REMARK>
 VINA RESULT:      -6.2      3.579      6.540
  Name = 
  6 active torsions:
  status: ('A' for Active; 'I' for Inactive)
    1  A    between atoms: C_1  and  C_10
    2  A    between atoms: C_8  and  C_23
    3  A    between atoms: C_10  and  N_24
    4  A    between atoms: C_16  and  C_32
    5  A    between atoms: C_19  and  C_23
    6  A    between atoms: C_19  and  N_24
                            x       y       z     vdW  Elec       q    Type
                         _______ _______ _______ _____ _____    ______ ____

>  <TORSDO>
F 6

$$$$
=
 OpenBabel11062410503D

 32 35  0  0  1  0  0  0  0  0999 V2000
  162.2730  207.9710  149.8690 C   0  0  1  0  0  3  0  0  0  0  0  0
  160.9560  206.2030  154.2930 C   0  0  0  0  0  3  0  0  0  0  0  0
  160.8670  207.5170  154.7550 C   0  0  0  0  0  3  0  0  0  0  0  0
  162.1750  206.3250  147.9350 C   0  0  2  0  0  3  0  0  0  0  0  0
  160.5490  206.1050  149.9050 C   0  0  0  0  0  2  0  0  0  0  0  0
  159.7740  206.2040  147.6500 O   0  0  0  0  0  1  0  0  0  0  0  0
  161.2420  205.9550  152.9490 C   0  0  0  0  0  3  0  0  0  0  0  0
  161.7580  206.7190  150.6190 C   0  0  2  0  0  3  0  0  0  0  0  0
  161.4350  207.0190  152.0570 C   0  0  0  0  0  0  0  0  0  0  0  0
  161.6190  209.5040  151.5760 C   0  0  1  0  0  3  0  0  0  0  0  0
  160.8370  205.7520  148.4380 C   0  0  1  0  0  3  0  0  0  0  0  0
  161.0600  208.5840  153.8750 C   0  0  0  0  0  3  0  0  0  0  0  0
  161.3240  208.3500  152.5160 C   0  0  0  0  0  0  0  0  0  0  0  0
  162.3310  207.7860  148.3450 C   0  0  0  0  0  2  0  0  0  0  0  0
  161.4300  209.1250  150.1750 N   0  0  0  0  0  2  0  0  0  0  0  0
  159.2310  211.8960  153.3280 C   0  0  0  0  0  0  0  0  0  0  0  0
  159.2650  212.9980  152.4720 C   0  0  0  0  0  3  0  0  0  0  0  0
  160.8300  211.8380  151.0290 C   0  0  0  0  0  0  0  0  0  0  0  0
  160.0940  214.0520  150.5060 F   0  0  0  0  0  0  0  0  0  0  0  0
  160.0660  212.9740  151.3270 C   0  0  0  0  0  0  0  0  0  0  0  0
  159.9920  210.7610  153.0340 C   0  0  0  0  0  3  0  0  0  0  0  0
  158.4440  211.9180  154.4310 F   0  0  0  0  0  0  0  0  0  0  0  0
  161.6290  211.8250  149.8900 O   0  0  0  0  0  1  0  0  0  0  0  0
  160.7920  210.7240  151.8830 C   0  0  0  0  0  0  0  0  0  0  0  0
  162.3320  206.1690  146.4280 C   0  0  0  0  0  2  0  0  0  0  0  0
  163.9660  204.0420  146.0110 S   0  0  0  0  0  1  0  0  0  0  0  0
  162.2550  204.6950  146.0370 C   0  0  2  0  0  3  0  0  0  0  0  0
  161.0620  205.8340  144.3330 C   0  0  0  0  0  1  0  0  0  0  0  0
  161.6070  204.5380  144.7270 N   0  0  0  0  0  0  0  0  0  0  0  0
  160.4450  203.6680  144.8850 C   0  0  0  0  0  2  0  0  0  0  0  0
  160.8310  202.4050  145.6350 C   0  0  0  0  0  2  0  0  0  0  0  0
  160.0740  201.3250  145.1770 O   0  0  0  0  0  1  0  0  0  0  0  0
  1 14  1  6  0  0  0
  1 15  1  0  0  0  0
  1  8  1  0  0  0  0
  2  3  1  0  0  0  0
  4 25  1  6  0  0  0
  4 14  1  0  0  0  0
  4 11  1  0  0  0  0
  7  2  2  0  0  0  0
  8  5  1  6  0  0  0
  8  9  1  0  0  0  0
  9 13  2  0  0  0  0
  9  7  1  0  0  0  0
 10 24  1  1  0  0  0
 10 13  1  0  0  0  0
 11  6  1  6  0  0  0
 11  5  1  0  0  0  0
 12  3  2  0  0  0  0
 13 12  1  0  0  0  0
 15 10  1  0  0  0  0
 16 22  1  0  0  0  0
 17 16  2  0  0  0  0
 18 20  2  0  0  0  0
 18 24  1  0  0  0  0
 19 20  1  0  0  0  0
 20 17  1  0  0  0  0
 21 16  1  0  0  0  0
 23 18  1  0  0  0  0
 24 21  2  0  0  0  0
 27 26  1  6  0  0  0
 27 25  1  0  0  0  0
 28 29  1  0  0  0  0
 29 30  1  0  0  0  0
 29 27  1  0  0  0  0
 30 31  1  0  0  0  0
 32 31  1  0  0  0  0
M  END
>  <MODEL>
4

>  <REMARK>
 VINA RESULT:      -6.1      4.093      8.483
  Name = 
  6 active torsions:
  status: ('A' for Active; 'I' for Inactive)
    1  A    between atoms: C_1  and  C_10
    2  A    between atoms: C_8  and  C_23
    3  A    between atoms: C_10  and  N_24
    4  A    between atoms: C_16  and  C_32
    5  A    between atoms: C_19  and  C_23
    6  A    between atoms: C_19  and  N_24
                            x       y       z     vdW  Elec       q    Type
                         _______ _______ _______ _____ _____    ______ ____

>  <TORSDO>
F 6

$$$$
=
 OpenBabel11062410503D

 32 35  0  0  1  0  0  0  0  0999 V2000
  161.0830  209.6700  152.7220 C   0  0  1  0  0  3  0  0  0  0  0  0
  162.0520  211.3710  157.2600 C   0  0  0  0  0  3  0  0  0  0  0  0
  161.0390  212.3160  157.0880 C   0  0  0  0  0  3  0  0  0  0  0  0
  162.0790  207.4040  152.1420 C   0  0  2  0  0  3  0  0  0  0  0  0
  161.4150  207.9460  154.5590 C   0  0  0  0  0  2  0  0  0  0  0  0
  160.6130  205.9910  153.4510 O   0  0  0  0  0  1  0  0  0  0  0  0
  162.2860  210.4100  156.2740 C   0  0  0  0  0  3  0  0  0  0  0  0
  161.7890  209.3470  154.0600 C   0  0  2  0  0  3  0  0  0  0  0  0
  161.5030  210.3830  155.1120 C   0  0  0  0  0  0  0  0  0  0  0  0
  159.6720  211.3560  153.6480 C   0  0  1  0  0  3  0  0  0  0  0  0
  161.7160  206.8450  153.5310 C   0  0  1  0  0  3  0  0  0  0  0  0
  160.2560  212.2990  155.9310 C   0  0  0  0  0  3  0  0  0  0  0  0
  160.4630  211.3230  154.9420 C   0  0  0  0  0  0  0  0  0  0  0  0
  161.1040  208.5010  151.7250 C   0  0  0  0  0  2  0  0  0  0  0  0
  159.6970  210.0620  152.9640 N   0  0  0  0  0  2  0  0  0  0  0  0
  156.0780  211.4580  154.9020 C   0  0  0  0  0  0  0  0  0  0  0  0
  155.5930  212.5990  154.2600 C   0  0  0  0  0  3  0  0  0  0  0  0
  157.7550  212.9400  153.2170 C   0  0  0  0  0  0  0  0  0  0  0  0
  155.9470  214.4510  152.8080 F   0  0  0  0  0  0  0  0  0  0  0  0
  156.4290  213.3420  153.4230 C   0  0  0  0  0  0  0  0  0  0  0  0
  157.4010  211.0530  154.6990 C   0  0  0  0  0  3  0  0  0  0  0  0
  155.2620  210.7320  155.7040 F   0  0  0  0  0  0  0  0  0  0  0  0
  158.5810  213.6910  152.3870 O   0  0  0  0  0  1  0  0  0  0  0  0
  158.2450  211.7890  153.8550 C   0  0  0  0  0  0  0  0  0  0  0  0
  162.1420  206.3100  151.0860 C   0  0  0  0  0  2  0  0  0  0  0  0
  160.0820  205.2490  149.6710 S   0  0  0  0  0  1  0  0  0  0  0  0
  161.2300  206.6550  149.9100 C   0  0  2  0  0  3  0  0  0  0  0  0
  161.9620  208.3370  148.4070 C   0  0  0  0  0  1  0  0  0  0  0  0
  162.0200  206.9070  148.6970 N   0  0  0  0  0  0  0  0  0  0  0  0
  161.3560  206.2620  147.5680 C   0  0  0  0  0  2  0  0  0  0  0  0
  162.3530  205.4390  146.7700 C   0  0  0  0  0  2  0  0  0  0  0  0
  162.3180  205.8150  145.4260 O   0  0  0  0  0  1  0  0  0  0  0  0
  1 14  1  6  0  0  0
  1 15  1  0  0  0  0
  1  8  1  0  0  0  0
  3  2  1  0  0  0  0
  4 25  1  6  0  0  0
  4 11  1  0  0  0  0
  7  2  2  0  0  0  0
  8  5  1  1  0  0  0
  8  9  1  0  0  0  0
  9  7  1  0  0  0  0
 10 24  1  1  0  0  0
 10 13  1  0  0  0  0
 11  6  1  6  0  0  0
 11  5  1  0  0  0  0
 12  3  2  0  0  0  0
 13  9  2  0  0  0  0
 13 12  1  0  0  0  0
 14  4  1  0  0  0  0
 15 10  1  0  0  0  0
 16 22  1  0  0  0  0
 17 16  2  0  0  0  0
 18 20  2  0  0  0  0
 18 24  1  0  0  0  0
 19 20  1  0  0  0  0
 20 17  1  0  0  0  0
 21 16  1  0  0  0  0
 23 18  1  0  0  0  0
 24 21  2  0  0  0  0
 27 26  1  6  0  0  0
 27 25  1  0  0  0  0
 28 29  1  0  0  0  0
 29 27  1  0  0  0  0
 30 29  1  0  0  0  0
 31 30  1  0  0  0  0
 32 31  1  0  0  0  0
M  END
>  <MODEL>
5

>  <REMARK>
 VINA RESULT:      -6.0      4.529      9.489
  Name = 
  6 active torsions:
  status: ('A' for Active; 'I' for Inactive)
    1  A    between atoms: C_1  and  C_10
    2  A    between atoms: C_8  and  C_23
    3  A    between atoms: C_10  and  N_24
    4  A    between atoms: C_16  and  C_32
    5  A    between atoms: C_19  and  C_23
    6  A    between atoms: C_19  and  N_24
                            x       y       z     vdW  Elec       q    Type
                         _______ _______ _______ _____ _____    ______ ____

>  <TORSDO>
F 6

$$$$
=
 OpenBabel11062410503D

 32 35  0  0  1  0  0  0  0  0999 V2000
  162.2040  208.2410  150.7980 C   0  0  1  0  0  3  0  0  0  0  0  0
  160.8680  205.8470  154.9100 C   0  0  0  0  0  3  0  0  0  0  0  0
  160.7160  207.0830  155.5420 C   0  0  0  0  0  3  0  0  0  0  0  0
  162.2140  206.8670  148.6590 C   0  0  2  0  0  3  0  0  0  0  0  0
  160.5570  206.3240  150.5390 C   0  0  0  0  0  2  0  0  0  0  0  0
  159.8260  206.6970  148.2980 O   0  0  0  0  0  1  0  0  0  0  0  0
  161.1920  205.7920  153.5530 C   0  0  0  0  0  3  0  0  0  0  0  0
  161.7250  206.8820  151.3600 C   0  0  2  0  0  3  0  0  0  0  0  0
  161.3600  206.9730  152.8160 C   0  0  0  0  0  0  0  0  0  0  0  0
  161.4540  209.5050  152.6770 C   0  0  1  0  0  3  0  0  0  0  0  0
  160.8890  206.1820  149.0460 C   0  0  1  0  0  3  0  0  0  0  0  0
  160.8850  208.2650  154.8170 C   0  0  0  0  0  3  0  0  0  0  0  0
  161.1860  208.2250  153.4460 C   0  0  0  0  0  0  0  0  0  0  0  0
  162.3020  208.2650  149.2650 C   0  0  0  0  0  2  0  0  0  0  0  0
  161.3100  209.3110  151.2330 N   0  0  0  0  0  2  0  0  0  0  0  0
  158.6160  212.0410  152.7840 C   0  0  0  0  0  0  0  0  0  0  0  0
  158.9150  212.7410  153.9550 C   0  0  0  0  0  3  0  0  0  0  0  0
  160.8640  211.3430  154.3030 C   0  0  0  0  0  0  0  0  0  0  0  0
  160.3100  213.0770  155.8540 F   0  0  0  0  0  0  0  0  0  0  0  0
  160.0330  212.3920  154.7160 C   0  0  0  0  0  0  0  0  0  0  0  0
  159.4430  210.9940  152.3680 C   0  0  0  0  0  3  0  0  0  0  0  0
  157.5380  212.3900  152.0420 F   0  0  0  0  0  0  0  0  0  0  0  0
  161.9720  210.9990  155.0710 O   0  0  0  0  0  1  0  0  0  0  0  0
  160.5720  210.6410  153.1220 C   0  0  0  0  0  0  0  0  0  0  0  0
  162.4080  206.9210  147.1500 C   0  0  0  0  0  2  0  0  0  0  0  0
  163.5230  204.5240  146.5340 S   0  0  0  0  0  1  0  0  0  0  0  0
  162.0290  205.5830  146.5180 C   0  0  2  0  0  3  0  0  0  0  0  0
  160.1160  206.1290  145.2280 C   0  0  0  0  0  1  0  0  0  0  0  0
  161.5310  205.7770  145.1500 N   0  0  0  0  0  0  0  0  0  0  0  0
  161.5670  204.4920  144.4560 C   0  0  0  0  0  2  0  0  0  0  0  0
  160.3500  203.6610  144.8240 C   0  0  0  0  0  2  0  0  0  0  0  0
  160.7490  202.4090  145.2950 O   0  0  0  0  0  1  0  0  0  0  0  0
  1 14  1  6  0  0  0
  1 15  1  0  0  0  0
  1  8  1  0  0  0  0
  2  3  1  0  0  0  0
  4 25  1  6  0  0  0
  4 11  1  0  0  0  0
  4 14  1  0  0  0  0
  7  2  2  0  0  0  0
  8  5  1  6  0  0  0
  8  9  1  0  0  0  0
  9 13  2  0  0  0  0
  9  7  1  0  0  0  0
 10 24  1  1  0  0  0
 10 13  1  0  0  0  0
 11  6  1  6  0  0  0
 11  5  1  0  0  0  0
 12  3  2  0  0  0  0
 13 12  1  0  0  0  0
 15 10  1  0  0  0  0
 16 17  1  0  0  0  0
 17 20  2  0  0  0  0
 18 20  1  0  0  0  0
 18 23  1  0  0  0  0
 20 19  1  0  0  0  0
 21 16  2  0  0  0  0
 21 24  1  0  0  0  0
 22 16  1  0  0  0  0
 24 18  2  0  0  0  0
 27 26  1  6  0  0  0
 27 25  1  0  0  0  0
 29 28  1  0  0  0  0
 29 27  1  0  0  0  0
 30 31  1  0  0  0  0
 30 29  1  0  0  0  0
 31 32  1  0  0  0  0
M  END
>  <MODEL>
6

>  <REMARK>
 VINA RESULT:      -6.0      4.092      8.789
  Name = 
  6 active torsions:
  status: ('A' for Active; 'I' for Inactive)
    1  A    between atoms: C_1  and  C_10
    2  A    between atoms: C_8  and  C_23
    3  A    between atoms: C_10  and  N_24
    4  A    between atoms: C_16  and  C_32
    5  A    between atoms: C_19  and  C_23
    6  A    between atoms: C_19  and  N_24
                            x       y       z     vdW  Elec       q    Type
                         _______ _______ _______ _____ _____    ______ ____

>  <TORSDO>
F 6

$$$$
=
 OpenBabel11062410503D

 32 35  0  0  1  0  0  0  0  0999 V2000
  160.3940  206.9220  150.1060 C   0  0  1  0  0  3  0  0  0  0  0  0
  160.9930  202.0920  150.9670 C   0  0  0  0  0  3  0  0  0  0  0  0
  160.9770  201.8770  149.5870 C   0  0  0  0  0  3  0  0  0  0  0  0
  160.8470  208.4710  152.0700 C   0  0  2  0  0  3  0  0  0  0  0  0
  162.1270  206.2610  151.8420 C   0  0  0  0  0  2  0  0  0  0  0  0
  163.2640  208.3410  152.1160 O   0  0  0  0  0  1  0  0  0  0  0  0
  160.9400  203.3930  151.4700 C   0  0  0  0  0  3  0  0  0  0  0  0
  160.8030  205.8780  151.1710 C   0  0  2  0  0  3  0  0  0  0  0  0
  160.8760  204.4890  150.5980 C   0  0  0  0  0  0  0  0  0  0  0  0
  160.7220  205.4520  148.2550 C   0  0  1  0  0  3  0  0  0  0  0  0
  162.0950  207.6620  152.4710 C   0  0  1  0  0  3  0  0  0  0  0  0
  160.9100  202.9620  148.7110 C   0  0  0  0  0  3  0  0  0  0  0  0
  160.8810  204.2780  149.2020 C   0  0  0  0  0  0  0  0  0  0  0  0
  160.5940  208.3740  150.5680 C   0  0  0  0  0  2  0  0  0  0  0  0
  161.1500  206.7090  148.8740 N   0  0  0  0  0  2  0  0  0  0  0  0
  163.4070  204.4440  145.7510 C   0  0  0  0  0  0  0  0  0  0  0  0
  162.8330  204.8590  144.5470 C   0  0  0  0  0  3  0  0  0  0  0  0
  160.8840  205.6610  145.7450 C   0  0  0  0  0  0  0  0  0  0  0  0
  161.0240  205.8570  143.3660 F   0  0  0  0  0  0  0  0  0  0  0  0
  161.5730  205.4630  144.5420 C   0  0  0  0  0  0  0  0  0  0  0  0
  162.7230  204.6410  146.9540 C   0  0  0  0  0  3  0  0  0  0  0  0
  164.6340  203.8710  145.7550 F   0  0  0  0  0  0  0  0  0  0  0  0
  159.6270  206.2570  145.7290 O   0  0  0  0  0  1  0  0  0  0  0  0
  161.4610  205.2530  146.9590 C   0  0  0  0  0  0  0  0  0  0  0  0
  160.9470  209.9270  152.5050 C   0  0  0  0  0  2  0  0  0  0  0  0
  159.7690  212.0570  153.7070 S   0  0  0  0  0  1  0  0  0  0  0  0
  159.8940  210.2350  153.5680 C   0  0  2  0  0  3  0  0  0  0  0  0
  159.3300  210.1140  155.8680 C   0  0  0  0  0  1  0  0  0  0  0  0
  160.2630  209.6290  154.8550 N   0  0  0  0  0  0  0  0  0  0  0  0
  161.5660  210.1510  155.2570 C   0  0  0  0  0  2  0  0  0  0  0  0
  162.0130  209.5060  156.5580 C   0  0  0  0  0  2  0  0  0  0  0  0
  162.0100  208.1160  156.4310 O   0  0  0  0  0  1  0  0  0  0  0  0
  1 14  1  1  0  0  0
  1  8  1  0  0  0  0
  2  7  1  0  0  0  0
  3  2  2  0  0  0  0
  4 11  1  0  0  0  0
  4 25  1  6  0  0  0
  5 11  1  0  0  0  0
  8  5  1  6  0  0  0
  9  8  1  0  0  0  0
  9  7  2  0  0  0  0
 10 24  1  6  0  0  0
 10 15  1  0  0  0  0
 10 13  1  0  0  0  0
 11  6  1  6  0  0  0
 12 13  2  0  0  0  0
 12  3  1  0  0  0  0
 13  9  1  0  0  0  0
 14  4  1  0  0  0  0
 15  1  1  0  0  0  0
 16 22  1  0  0  0  0
 16 21  1  0  0  0  0
 17 16  2  0  0  0  0
 18 24  1  0  0  0  0
 19 20  1  0  0  0  0
 20 17  1  0  0  0  0
 20 18  2  0  0  0  0
 21 24  2  0  0  0  0
 23 18  1  0  0  0  0
 25 27  1  0  0  0  0
 27 26  1  1  0  0  0
 27 29  1  0  0  0  0
 29 30  1  0  0  0  0
 29 28  1  0  0  0  0
 30 31  1  0  0  0  0
 32 31  1  0  0  0  0
M  END
>  <MODEL>
7

>  <REMARK>
 VINA RESULT:      -5.5      1.336      1.628
  Name = 
  6 active torsions:
  status: ('A' for Active; 'I' for Inactive)
    1  A    between atoms: C_1  and  C_10
    2  A    between atoms: C_8  and  C_23
    3  A    between atoms: C_10  and  N_24
    4  A    between atoms: C_16  and  C_32
    5  A    between atoms: C_19  and  C_23
    6  A    between atoms: C_19  and  N_24
                            x       y       z     vdW  Elec       q    Type
                         _______ _______ _______ _____ _____    ______ ____

>  <TORSDO>
F 6

$$$$
=
 OpenBabel11062410503D

 32 35  0  0  1  0  0  0  0  0999 V2000
  161.9350  208.7110  151.0180 C   0  0  1  0  0  3  0  0  0  0  0  0
  160.6410  206.9450  155.4490 C   0  0  0  0  0  3  0  0  0  0  0  0
  160.2980  208.2440  155.8310 C   0  0  0  0  0  3  0  0  0  0  0  0
  162.2500  206.9860  149.1780 C   0  0  2  0  0  3  0  0  0  0  0  0
  160.5550  206.5780  151.0580 C   0  0  0  0  0  2  0  0  0  0  0  0
  159.9290  206.4380  148.7590 O   0  0  0  0  0  1  0  0  0  0  0  0
  161.0560  206.6890  154.1410 C   0  0  0  0  0  3  0  0  0  0  0  0
  161.5910  207.4250  151.8060 C   0  0  2  0  0  3  0  0  0  0  0  0
  161.1240  207.7290  153.2030 C   0  0  0  0  0  0  0  0  0  0  0  0
  160.9160  210.1840  152.5940 C   0  0  1  0  0  3  0  0  0  0  0  0
  160.9980  206.2130  149.6320 C   0  0  1  0  0  3  0  0  0  0  0  0
  160.3660  209.2870  154.9040 C   0  0  0  0  0  3  0  0  0  0  0  0
  160.7580  209.0400  153.5780 C   0  0  0  0  0  0  0  0  0  0  0  0
  162.1270  208.4700  149.5130 C   0  0  0  0  0  2  0  0  0  0  0  0
  160.8900  209.7140  151.2080 N   0  0  0  0  0  2  0  0  0  0  0  0
  157.9740  212.1480  154.0040 C   0  0  0  0  0  0  0  0  0  0  0  0
  157.9450  213.2530  153.1510 C   0  0  0  0  0  3  0  0  0  0  0  0
  159.8460  212.3720  151.9320 C   0  0  0  0  0  0  0  0  0  0  0  0
  158.8450  214.4490  151.3000 F   0  0  0  0  0  0  0  0  0  0  0  0
  158.8800  213.3690  152.1190 C   0  0  0  0  0  0  0  0  0  0  0  0
  158.9360  211.1500  153.8200 C   0  0  0  0  0  3  0  0  0  0  0  0
  157.0590  212.0320  154.9950 F   0  0  0  0  0  0  0  0  0  0  0  0
  160.7770  212.4990  150.9050 O   0  0  0  0  0  1  0  0  0  0  0  0
  159.8740  211.2540  152.7820 C   0  0  0  0  0  0  0  0  0  0  0  0
  162.5330  206.7910  147.6940 C   0  0  0  0  0  2  0  0  0  0  0  0
  162.2870  204.0890  147.6010 S   0  0  0  0  0  1  0  0  0  0  0  0
  161.6100  205.7200  147.1150 C   0  0  2  0  0  3  0  0  0  0  0  0
  160.1440  206.1730  145.3080 C   0  0  0  0  0  1  0  0  0  0  0  0
  161.5240  205.8450  145.6540 N   0  0  0  0  0  0  0  0  0  0  0  0
  161.7640  204.5320  145.0610 C   0  0  0  0  0  2  0  0  0  0  0  0
  160.4550  203.9180  144.5930 C   0  0  0  0  0  2  0  0  0  0  0  0
  160.3790  202.5840  145.0000 O   0  0  0  0  0  1  0  0  0  0  0  0
  1 14  1  6  0  0  0
  1 15  1  0  0  0  0
  1  8  1  0  0  0  0
  2  3  1  0  0  0  0
  4 25  1  6  0  0  0
  4 14  1  0  0  0  0
  4 11  1  0  0  0  0
  7  2  2  0  0  0  0
  8  5  1  6  0  0  0
  8  9  1  0  0  0  0
  9 13  2  0  0  0  0
  9  7  1  0  0  0  0
 10 24  1  6  0  0  0
 10 13  1  0  0  0  0
 11  6  1  6  0  0  0
 11  5  1  0  0  0  0
 12  3  2  0  0  0  0
 13 12  1  0  0  0  0
 15 10  1  0  0  0  0
 16 22  1  0  0  0  0
 17 16  2  0  0  0  0
 18 20  2  0  0  0  0
 18 24  1  0  0  0  0
 19 20  1  0  0  0  0
 20 17  1  0  0  0  0
 21 16  1  0  0  0  0
 23 18  1  0  0  0  0
 24 21  2  0  0  0  0
 27 26  1  6  0  0  0
 27 25  1  0  0  0  0
 28 29  1  0  0  0  0
 29 27  1  0  0  0  0
 30 29  1  0  0  0  0
 31 32  1  0  0  0  0
 31 30  1  0  0  0  0
M  END
>  <MODEL>
8

>  <REMARK>
 VINA RESULT:      -5.4      4.282      8.769
  Name = 
  6 active torsions:
  status: ('A' for Active; 'I' for Inactive)
    1  A    between atoms: C_1  and  C_10
    2  A    between atoms: C_8  and  C_23
    3  A    between atoms: C_10  and  N_24
    4  A    between atoms: C_16  and  C_32
    5  A    between atoms: C_19  and  C_23
    6  A    between atoms: C_19  and  N_24
                            x       y       z     vdW  Elec       q    Type
                         _______ _______ _______ _____ _____    ______ ____

>  <TORSDO>
F 6

$$$$
=
 OpenBabel11062410503D

 32 35  0  0  1  0  0  0  0  0999 V2000
  161.7200  208.9150  152.5890 C   0  0  1  0  0  3  0  0  0  0  0  0
  161.8160  210.5850  157.2400 C   0  0  0  0  0  3  0  0  0  0  0  0
  161.1660  211.7410  156.8040 C   0  0  0  0  0  3  0  0  0  0  0  0
  162.2210  206.4420  152.2810 C   0  0  2  0  0  3  0  0  0  0  0  0
  161.0840  207.2750  154.4230 C   0  0  0  0  0  2  0  0  0  0  0  0
  160.1410  205.5200  153.1090 O   0  0  0  0  0  1  0  0  0  0  0  0
  162.0550  209.5400  156.3460 C   0  0  0  0  0  3  0  0  0  0  0  0
  161.9260  208.5050  154.0670 C   0  0  2  0  0  3  0  0  0  0  0  0
  161.6400  209.6410  155.0100 C   0  0  0  0  0  0  0  0  0  0  0  0
  160.5920  210.9520  153.1070 C   0  0  1  0  0  3  0  0  0  0  0  0
  161.3610  206.0740  153.5050 C   0  0  1  0  0  3  0  0  0  0  0  0
  160.7520  211.8520  155.4750 C   0  0  0  0  0  3  0  0  0  0  0  0
  160.9630  210.7990  154.5700 C   0  0  0  0  0  0  0  0  0  0  0  0
  161.7120  207.7210  151.6220 C   0  0  0  0  0  2  0  0  0  0  0  0
  160.4690  209.6540  152.4400 N   0  0  0  0  0  2  0  0  0  0  0  0
  157.0770  212.3170  153.6330 C   0  0  0  0  0  0  0  0  0  0  0  0
  156.9670  213.2160  152.5700 C   0  0  0  0  0  3  0  0  0  0  0  0
  159.2110  212.6500  151.8490 C   0  0  0  0  0  0  0  0  0  0  0  0
  157.9140  214.2650  150.6550 F   0  0  0  0  0  0  0  0  0  0  0  0
  158.0320  213.3860  151.6810 C   0  0  0  0  0  0  0  0  0  0  0  0
  158.2520  211.5800  153.8040 C   0  0  0  0  0  3  0  0  0  0  0  0
  156.0380  212.1450  154.4850 F   0  0  0  0  0  0  0  0  0  0  0  0
  160.2680  212.8310  150.9630 O   0  0  0  0  0  1  0  0  0  0  0  0
  159.3240  211.7390  152.9130 C   0  0  0  0  0  0  0  0  0  0  0  0
  162.2860  205.3050  151.2690 C   0  0  0  0  0  2  0  0  0  0  0  0
  160.3500  203.6420  150.3440 S   0  0  0  0  0  1  0  0  0  0  0  0
  161.0570  205.3310  150.3620 C   0  0  2  0  0  3  0  0  0  0  0  0
  160.3100  206.5490  148.4700 C   0  0  0  0  0  1  0  0  0  0  0  0
  161.4200  205.7690  149.0080 N   0  0  0  0  0  0  0  0  0  0  0  0
  161.5110  204.5920  148.1480 C   0  0  0  0  0  2  0  0  0  0  0  0
  162.6780  204.7310  147.1860 C   0  0  0  0  0  2  0  0  0  0  0  0
  162.2500  205.3180  145.9940 O   0  0  0  0  0  1  0  0  0  0  0  0
  1 14  1  6  0  0  0
  1  8  1  0  0  0  0
  3  2  1  0  0  0  0
  4 25  1  6  0  0  0
  4 11  1  0  0  0  0
  7  2  2  0  0  0  0
  8  5  1  1  0  0  0
  8  9  1  0  0  0  0
  9  7  1  0  0  0  0
 10 24  1  1  0  0  0
 10 13  1  0  0  0  0
 11  6  1  6  0  0  0
 11  5  1  0  0  0  0
 12  3  2  0  0  0  0
 13  9  2  0  0  0  0
 13 12  1  0  0  0  0
 14  4  1  0  0  0  0
 15  1  1  0  0  0  0
 15 10  1  0  0  0  0
 16 21  1  0  0  0  0
 16 22  1  0  0  0  0
 17 16  2  0  0  0  0
 18 24  1  0  0  0  0
 19 20  1  0  0  0  0
 20 18  2  0  0  0  0
 20 17  1  0  0  0  0
 23 18  1  0  0  0  0
 24 21  2  0  0  0  0
 27 26  1  6  0  0  0
 27 25  1  0  0  0  0
 28 29  1  0  0  0  0
 29 27  1  0  0  0  0
 30 29  1  0  0  0  0
 31 30  1  0  0  0  0
 32 31  1  0  0  0  0
M  END
>  <MODEL>
9

>  <REMARK>
 VINA RESULT:      -4.9      3.939      8.909
  Name = 
  6 active torsions:
  status: ('A' for Active; 'I' for Inactive)
    1  A    between atoms: C_1  and  C_10
    2  A    between atoms: C_8  and  C_23
    3  A    between atoms: C_10  and  N_24
    4  A    between atoms: C_16  and  C_32
    5  A    between atoms: C_19  and  C_23
    6  A    between atoms: C_19  and  N_24
                            x       y       z     vdW  Elec       q    Type
                         _______ _______ _______ _____ _____    ______ ____

>  <TORSDO>
F 6

$$$$
