=
 OpenBabel11052422053D

 25 28  0  0  1  0  0  0  0  0999 V2000
  161.3900  205.2660  149.2560 C   0  0  0  0  0  0  0  0  0  0  0  0
  161.4120  206.2210  150.2940 C   0  0  0  0  0  0  0  0  0  0  0  0
  161.8710  206.9970  147.6030 C   0  0  0  0  0  3  0  0  0  0  0  0
  161.1600  203.8780  149.3420 C   0  0  0  0  0  0  0  0  0  0  0  0
  160.7510  201.1220  149.1140 C   0  0  0  0  0  3  0  0  0  0  0  0
  161.8940  207.9510  148.6250 C   0  0  0  0  0  3  0  0  0  0  0  0
  161.2140  203.2450  148.1020 C   0  0  0  0  0  0  0  0  0  0  0  0
  161.0150  201.8740  147.9600 C   0  0  0  0  0  3  0  0  0  0  0  0
  161.6900  208.5520  150.9920 C   0  0  0  0  0  0  0  0  0  0  0  0
  161.9480  209.9950  150.7080 C   0  0  0  0  0  1  0  0  0  0  0  0
  161.1890  205.8650  151.6310 C   0  0  0  0  0  3  0  0  0  0  0  0
  160.6920  201.7450  150.3730 C   0  0  0  0  0  3  0  0  0  0  0  0
  161.6200  205.6720  147.9400 C   0  0  0  0  0  0  0  0  0  0  0  0
  161.5440  204.3600  146.8840 S   0  0  0  0  0  0  0  0  0  0  0  0
  161.4620  208.1680  152.3170 C   0  0  0  0  0  3  0  0  0  0  0  0
  160.8970  203.1290  150.4930 C   0  0  0  0  0  3  0  0  0  0  0  0
  161.2190  206.8320  152.6390 C   0  0  0  0  0  0  0  0  0  0  0  0
  161.6670  207.5840  149.9690 C   0  0  0  0  0  0  0  0  0  0  0  0
  160.9600  206.4410  154.0510 C   0  0  0  0  0  2  0  0  0  0  0  0
  160.4460  207.6360  154.8370 C   0  0  0  0  0  2  0  0  0  0  0  0
  161.1690  207.7470  156.1690 C   0  0  2  0  0  3  0  0  0  0  0  0
  160.2510  207.6170  157.2110 O   0  0  0  0  0  1  0  0  0  0  0  0
  161.8820  209.0550  156.2830 C   0  0  0  0  0  0  0  0  0  0  0  0
  161.6570  210.0460  155.3360 O   0  0  0  0  0  0  0  0  0  0  0  0
  162.6730  209.2720  157.2390 O   0  0  0  0  0  1  0  0  0  0  0  0
  1  4  1  0  0  0  0
  1  2  2  0  0  0  0
  2 11  1  0  0  0  0
  3 13  2  0  0  0  0
  3  6  1  0  0  0  0
  4 16  1  0  0  0  0
  5 12  1  0  0  0  0
  6 18  2  0  0  0  0
  7  4  2  0  0  0  0
  8  7  1  0  0  0  0
  8  5  2  0  0  0  0
  9 15  2  0  0  0  0
 10  9  1  0  0  0  0
 11 17  2  0  0  0  0
 12 16  2  0  0  0  0
 13  1  1  0  0  0  0
 14 13  1  0  0  0  0
 14  7  1  0  0  0  0
 15 17  1  0  0  0  0
 17 19  1  0  0  0  0
 18  2  1  0  0  0  0
 18  9  1  0  0  0  0
 19 20  1  0  0  0  0
 20 21  1  0  0  0  0
 21 23  1  0  0  0  0
 21 22  1  1  0  0  0
 23 25  1  0  0  0  0
 24 23  2  0  0  0  0
M  END
>  <MODEL>
1

>  <REMARK>
 VINA RESULT:     -10.3      0.000      0.000
  Name = 
  4 active torsions:
  status: ('A' for Active; 'I' for Inactive)
    1  A    between atoms: C_2  and  C_21
    2  A    between atoms: C_6  and  C_15
    3  A    between atoms: C_6  and  C_23
    4  A    between atoms: C_15  and  C_21
                            x       y       z     vdW  Elec       q    Type
                         _______ _______ _______ _____ _____    ______ ____

>  <TORSDO>
F 4

$$$$
=
 OpenBabel11052422053D

 25 28  0  0  1  0  0  0  0  0999 V2000
  161.1180  204.3360  149.6840 C   0  0  0  0  0  0  0  0  0  0  0  0
  161.2960  205.6750  150.0890 C   0  0  0  0  0  0  0  0  0  0  0  0
  160.7690  203.6420  151.9980 C   0  0  0  0  0  3  0  0  0  0  0  0
  161.1630  203.7970  148.3820 C   0  0  0  0  0  0  0  0  0  0  0  0
  161.1760  202.3760  145.9750 C   0  0  0  0  0  3  0  0  0  0  0  0
  160.9440  204.9670  152.4100 C   0  0  0  0  0  3  0  0  0  0  0  0
  160.9400  202.4220  148.3590 C   0  0  0  0  0  0  0  0  0  0  0  0
  160.9410  201.6900  147.1750 C   0  0  0  0  0  3  0  0  0  0  0  0
  161.3860  207.3230  151.8980 C   0  0  0  0  0  0  0  0  0  0  0  0
  161.3080  207.7100  153.3390 C   0  0  0  0  0  1  0  0  0  0  0  0
  161.5570  206.6980  149.1670 C   0  0  0  0  0  3  0  0  0  0  0  0
  161.4030  203.7630  145.9790 C   0  0  0  0  0  3  0  0  0  0  0  0
  160.8590  203.3540  150.6410 C   0  0  0  0  0  0  0  0  0  0  0  0
  160.6850  201.8400  149.9190 S   0  0  0  0  0  0  0  0  0  0  0  0
  161.6460  208.3220  150.9570 C   0  0  0  0  0  3  0  0  0  0  0  0
  161.3980  204.4820  147.1850 C   0  0  0  0  0  3  0  0  0  0  0  0
  161.7270  208.0160  149.5980 C   0  0  0  0  0  0  0  0  0  0  0  0
  161.2080  205.9910  151.4750 C   0  0  0  0  0  0  0  0  0  0  0  0
  162.0240  209.0880  148.6090 C   0  0  0  0  0  2  0  0  0  0  0  0
  162.0090  210.4460  149.2910 C   0  0  0  0  0  2  0  0  0  0  0  0
  162.0180  211.5600  148.2580 C   0  0  2  0  0  3  0  0  0  0  0  0
  163.2540  212.2060  148.2790 O   0  0  0  0  0  1  0  0  0  0  0  0
  160.9270  212.5460  148.5240 C   0  0  0  0  0  0  0  0  0  0  0  0
  160.0950  212.9480  147.4870 O   0  0  0  0  0  0  0  0  0  0  0  0
  160.7480  213.0040  149.6830 O   0  0  0  0  0  1  0  0  0  0  0  0
  1  2  2  0  0  0  0
  1 13  1  0  0  0  0
  2 18  1  0  0  0  0
  3  6  1  0  0  0  0
  4  1  1  0  0  0  0
  5 12  2  0  0  0  0
  5  8  1  0  0  0  0
  7  4  1  0  0  0  0
  7 14  1  0  0  0  0
  8  7  2  0  0  0  0
  9 10  1  0  0  0  0
 11 17  2  0  0  0  0
 11  2  1  0  0  0  0
 12 16  1  0  0  0  0
 13  3  2  0  0  0  0
 14 13  1  0  0  0  0
 15  9  2  0  0  0  0
 16  4  2  0  0  0  0
 17 15  1  0  0  0  0
 18  9  1  0  0  0  0
 18  6  2  0  0  0  0
 19 20  1  0  0  0  0
 19 17  1  0  0  0  0
 21 22  1  1  0  0  0
 21 23  1  0  0  0  0
 21 20  1  0  0  0  0
 23 25  1  0  0  0  0
 24 23  2  0  0  0  0
M  END
>  <MODEL>
2

>  <REMARK>
 VINA RESULT:     -10.0      3.225      5.156
  Name = 
  4 active torsions:
  status: ('A' for Active; 'I' for Inactive)
    1  A    between atoms: C_2  and  C_21
    2  A    between atoms: C_6  and  C_15
    3  A    between atoms: C_6  and  C_23
    4  A    between atoms: C_15  and  C_21
                            x       y       z     vdW  Elec       q    Type
                         _______ _______ _______ _____ _____    ______ ____

>  <TORSDO>
F 4

$$$$
=
 OpenBabel11052422053D

 25 28  0  0  1  0  0  0  0  0999 V2000
  161.3210  205.5040  150.8780 C   0  0  0  0  0  0  0  0  0  0  0  0
  161.2210  204.4110  149.9920 C   0  0  0  0  0  0  0  0  0  0  0  0
  160.9280  204.0400  152.7910 C   0  0  0  0  0  3  0  0  0  0  0  0
  161.5630  206.8600  150.5770 C   0  0  0  0  0  0  0  0  0  0  0  0
  162.0180  209.6110  150.3780 C   0  0  0  0  0  3  0  0  0  0  0  0
  160.8260  202.9490  151.9210 C   0  0  0  0  0  3  0  0  0  0  0  0
  161.5960  207.6660  151.7130 C   0  0  0  0  0  0  0  0  0  0  0  0
  161.8210  209.0390  151.6420 C   0  0  0  0  0  3  0  0  0  0  0  0
  160.8620  202.0120  149.6570 C   0  0  0  0  0  0  0  0  0  0  0  0
  160.5940  200.6320  150.1630 C   0  0  0  0  0  1  0  0  0  0  0  0
  161.3620  204.5660  148.6070 C   0  0  0  0  0  3  0  0  0  0  0  0
  161.9860  208.8130  149.2200 C   0  0  0  0  0  3  0  0  0  0  0  0
  161.1740  205.2960  152.2500 C   0  0  0  0  0  0  0  0  0  0  0  0
  161.3340  206.7450  153.0980 S   0  0  0  0  0  0  0  0  0  0  0  0
  161.0060  202.1960  148.2800 C   0  0  0  0  0  3  0  0  0  0  0  0
  161.7580  207.4300  149.3150 C   0  0  0  0  0  3  0  0  0  0  0  0
  161.2600  203.4640  147.7540 C   0  0  0  0  0  0  0  0  0  0  0  0
  160.9680  203.1150  150.5270 C   0  0  0  0  0  0  0  0  0  0  0  0
  161.3920  203.6480  146.2830 C   0  0  0  0  0  2  0  0  0  0  0  0
  162.7040  204.3430  145.9590 C   0  0  0  0  0  2  0  0  0  0  0  0
  162.4460  205.7310  145.3970 C   0  0  2  0  0  3  0  0  0  0  0  0
  162.3100  206.6410  146.4450 O   0  0  0  0  0  1  0  0  0  0  0  0
  161.2140  205.7450  144.5520 C   0  0  0  0  0  0  0  0  0  0  0  0
  160.0100  206.1730  145.0960 O   0  0  0  0  0  1  0  0  0  0  0  0
  161.2620  205.3870  143.3450 O   0  0  0  0  0  0  0  0  0  0  0  0
  1 13  2  0  0  0  0
  2 18  1  0  0  0  0
  2  1  1  0  0  0  0
  4  1  1  0  0  0  0
  4  7  1  0  0  0  0
  5  8  1  0  0  0  0
  6  3  2  0  0  0  0
  7 14  1  0  0  0  0
  8  7  2  0  0  0  0
  9 10  1  0  0  0  0
  9 18  2  0  0  0  0
 11  2  2  0  0  0  0
 12 16  1  0  0  0  0
 12  5  2  0  0  0  0
 13  3  1  0  0  0  0
 13 14  1  0  0  0  0
 15  9  1  0  0  0  0
 16  4  2  0  0  0  0
 17 15  2  0  0  0  0
 17 11  1  0  0  0  0
 18  6  1  0  0  0  0
 19 17  1  0  0  0  0
 20 19  1  0  0  0  0
 21 20  1  0  0  0  0
 21 22  1  1  0  0  0
 23 24  1  0  0  0  0
 23 21  1  0  0  0  0
 25 23  2  0  0  0  0
M  END
>  <MODEL>
3

>  <REMARK>
 VINA RESULT:     -10.0      4.326      7.854
  Name = 
  4 active torsions:
  status: ('A' for Active; 'I' for Inactive)
    1  A    between atoms: C_2  and  C_21
    2  A    between atoms: C_6  and  C_15
    3  A    between atoms: C_6  and  C_23
    4  A    between atoms: C_15  and  C_21
                            x       y       z     vdW  Elec       q    Type
                         _______ _______ _______ _____ _____    ______ ____

>  <TORSDO>
F 4

$$$$
=
 OpenBabel11052422053D

 25 28  0  0  1  0  0  0  0  0999 V2000
  161.1010  206.6070  152.0700 C   0  0  0  0  0  0  0  0  0  0  0  0
  161.1430  205.9200  150.8390 C   0  0  0  0  0  0  0  0  0  0  0  0
  160.8760  204.5000  153.2810 C   0  0  0  0  0  3  0  0  0  0  0  0
  161.1770  207.9950  152.3060 C   0  0  0  0  0  0  0  0  0  0  0  0
  161.2920  210.6530  153.1640 C   0  0  0  0  0  3  0  0  0  0  0  0
  160.9150  203.8090  152.0660 C   0  0  0  0  0  3  0  0  0  0  0  0
  161.1020  208.3160  153.6600 C   0  0  0  0  0  0  0  0  0  0  0  0
  161.1570  209.6310  154.1140 C   0  0  0  0  0  3  0  0  0  0  0  0
  161.0850  203.7970  149.6200 C   0  0  0  0  0  0  0  0  0  0  0  0
  160.9840  202.3080  149.5640 C   0  0  0  0  0  1  0  0  0  0  0  0
  161.2750  206.5970  149.6180 C   0  0  0  0  0  3  0  0  0  0  0  0
  161.3680  210.3470  151.7930 C   0  0  0  0  0  3  0  0  0  0  0  0
  160.9700  205.8860  153.2580 C   0  0  0  0  0  0  0  0  0  0  0  0
  160.9440  206.9210  154.5890 S   0  0  0  0  0  0  0  0  0  0  0  0
  161.2150  204.4970  148.4190 C   0  0  0  0  0  3  0  0  0  0  0  0
  161.3110  209.0130  151.3570 C   0  0  0  0  0  3  0  0  0  0  0  0
  161.3160  205.8900  148.4140 C   0  0  0  0  0  0  0  0  0  0  0  0
  161.0470  204.4990  150.8410 C   0  0  0  0  0  0  0  0  0  0  0  0
  161.4360  206.6240  147.1250 C   0  0  0  0  0  2  0  0  0  0  0  0
  162.1270  205.7520  146.0900 C   0  0  0  0  0  2  0  0  0  0  0  0
  161.1920  205.4670  144.9270 C   0  0  2  0  0  3  0  0  0  0  0  0
  160.0330  206.2300  145.0610 O   0  0  0  0  0  1  0  0  0  0  0  0
  160.8380  204.0160  144.8670 C   0  0  0  0  0  0  0  0  0  0  0  0
  159.6790  203.6170  144.2150 O   0  0  0  0  0  0  0  0  0  0  0  0
  161.5900  203.1520  145.3920 O   0  0  0  0  0  1  0  0  0  0  0  0
  1  4  1  0  0  0  0
  1 13  2  0  0  0  0
  2 18  1  0  0  0  0
  2  1  1  0  0  0  0
  4  7  1  0  0  0  0
  5  8  1  0  0  0  0
  6  3  2  0  0  0  0
  7  8  2  0  0  0  0
  7 14  1  0  0  0  0
  9 18  2  0  0  0  0
 10  9  1  0  0  0  0
 11  2  2  0  0  0  0
 12  5  2  0  0  0  0
 13  3  1  0  0  0  0
 13 14  1  0  0  0  0
 15  9  1  0  0  0  0
 16 12  1  0  0  0  0
 16  4  2  0  0  0  0
 17 15  2  0  0  0  0
 17 11  1  0  0  0  0
 18  6  1  0  0  0  0
 19 17  1  0  0  0  0
 20 19  1  0  0  0  0
 21 22  1  1  0  0  0
 21 20  1  0  0  0  0
 23 21  1  0  0  0  0
 23 25  1  0  0  0  0
 24 23  2  0  0  0  0
M  END
>  <MODEL>
4

>  <REMARK>
 VINA RESULT:      -9.9      4.732      8.101
  Name = 
  4 active torsions:
  status: ('A' for Active; 'I' for Inactive)
    1  A    between atoms: C_2  and  C_21
    2  A    between atoms: C_6  and  C_15
    3  A    between atoms: C_6  and  C_23
    4  A    between atoms: C_15  and  C_21
                            x       y       z     vdW  Elec       q    Type
                         _______ _______ _______ _____ _____    ______ ____

>  <TORSDO>
F 4

$$$$
=
 OpenBabel11052422053D

 25 28  0  0  1  0  0  0  0  0999 V2000
  161.4230  205.2850  149.1640 C   0  0  0  0  0  0  0  0  0  0  0  0
  161.4520  206.3810  150.0510 C   0  0  0  0  0  0  0  0  0  0  0  0
  161.9750  206.7420  147.2850 C   0  0  0  0  0  3  0  0  0  0  0  0
  161.1550  203.9300  149.4480 C   0  0  0  0  0  0  0  0  0  0  0  0
  160.6800  201.1810  149.6190 C   0  0  0  0  0  3  0  0  0  0  0  0
  162.0060  207.8350  148.1560 C   0  0  0  0  0  3  0  0  0  0  0  0
  161.2140  203.1200  148.3160 C   0  0  0  0  0  0  0  0  0  0  0  0
  160.9820  201.7490  148.3730 C   0  0  0  0  0  3  0  0  0  0  0  0
  161.7780  208.7820  150.4050 C   0  0  0  0  0  0  0  0  0  0  0  0
  162.0780  210.1610  149.9170 C   0  0  0  0  0  1  0  0  0  0  0  0
  161.1970  206.2310  151.4210 C   0  0  0  0  0  3  0  0  0  0  0  0
  160.6150  201.9830  150.7710 C   0  0  0  0  0  3  0  0  0  0  0  0
  161.6850  205.4870  147.8080 C   0  0  0  0  0  0  0  0  0  0  0  0
  161.5920  204.0360  146.9540 S   0  0  0  0  0  0  0  0  0  0  0  0
  161.5180  208.6030  151.7670 C   0  0  0  0  0  3  0  0  0  0  0  0
  160.8530  203.3650  150.6910 C   0  0  0  0  0  3  0  0  0  0  0  0
  161.2350  207.3350  152.2760 C   0  0  0  0  0  0  0  0  0  0  0  0
  161.7470  207.6750  149.5340 C   0  0  0  0  0  0  0  0  0  0  0  0
  160.9420  207.1620  153.7250 C   0  0  0  0  0  2  0  0  0  0  0  0
  160.8470  208.5190  154.4040 C   0  0  0  0  0  2  0  0  0  0  0  0
  159.9830  208.4300  155.6500 C   0  0  2  0  0  3  0  0  0  0  0  0
  159.6810  209.7150  156.1010 O   0  0  0  0  0  1  0  0  0  0  0  0
  160.6780  207.6660  156.7300 C   0  0  0  0  0  0  0  0  0  0  0  0
  161.9330  208.0730  157.1620 O   0  0  0  0  0  0  0  0  0  0  0  0
  160.1290  206.6650  157.2610 O   0  0  0  0  0  1  0  0  0  0  0  0
  1  4  1  0  0  0  0
  1  2  2  0  0  0  0
  2 11  1  0  0  0  0
  3 13  2  0  0  0  0
  3  6  1  0  0  0  0
  4 16  1  0  0  0  0
  5 12  1  0  0  0  0
  6 18  2  0  0  0  0
  7  8  1  0  0  0  0
  7  4  2  0  0  0  0
  8  5  2  0  0  0  0
  9 15  2  0  0  0  0
 10  9  1  0  0  0  0
 11 17  2  0  0  0  0
 13  1  1  0  0  0  0
 14 13  1  0  0  0  0
 14  7  1  0  0  0  0
 15 17  1  0  0  0  0
 16 12  2  0  0  0  0
 17 19  1  0  0  0  0
 18  2  1  0  0  0  0
 18  9  1  0  0  0  0
 19 20  1  0  0  0  0
 20 21  1  0  0  0  0
 21 22  1  1  0  0  0
 21 23  1  0  0  0  0
 23 24  2  0  0  0  0
 23 25  1  0  0  0  0
M  END
>  <MODEL>
5

>  <REMARK>
 VINA RESULT:      -9.7      0.831      1.231
  Name = 
  4 active torsions:
  status: ('A' for Active; 'I' for Inactive)
    1  A    between atoms: C_2  and  C_21
    2  A    between atoms: C_6  and  C_15
    3  A    between atoms: C_6  and  C_23
    4  A    between atoms: C_15  and  C_21
                            x       y       z     vdW  Elec       q    Type
                         _______ _______ _______ _____ _____    ______ ____

>  <TORSDO>
F 4

$$$$
=
 OpenBabel11052422053D

 25 28  0  0  1  0  0  0  0  0999 V2000
  161.2130  204.3870  149.0850 C   0  0  0  0  0  0  0  0  0  0  0  0
  161.3270  205.3930  150.0670 C   0  0  0  0  0  0  0  0  0  0  0  0
  160.8310  202.6980  150.8050 C   0  0  0  0  0  3  0  0  0  0  0  0
  161.3130  204.5100  147.6840 C   0  0  0  0  0  0  0  0  0  0  0  0
  161.4450  204.3570  144.8960 C   0  0  0  0  0  3  0  0  0  0  0  0
  160.9430  203.6870  151.7870 C   0  0  0  0  0  3  0  0  0  0  0  0
  161.1450  203.2950  147.0230 C   0  0  0  0  0  0  0  0  0  0  0  0
  161.2060  203.1910  145.6360 C   0  0  0  0  0  3  0  0  0  0  0  0
  161.3030  206.0240  152.4330 C   0  0  0  0  0  0  0  0  0  0  0  0
  161.1730  205.7020  153.8860 C   0  0  0  0  0  1  0  0  0  0  0  0
  161.5700  206.7310  149.7310 C   0  0  0  0  0  3  0  0  0  0  0  0
  161.6170  205.5920  145.5470 C   0  0  0  0  0  3  0  0  0  0  0  0
  160.9680  203.0680  149.4730 C   0  0  0  0  0  0  0  0  0  0  0  0
  160.8730  202.0540  148.1290 S   0  0  0  0  0  0  0  0  0  0  0  0
  161.5480  207.3500  152.0690 C   0  0  0  0  0  3  0  0  0  0  0  0
  161.5510  205.6740  146.9470 C   0  0  0  0  0  3  0  0  0  0  0  0
  161.6760  207.7070  150.7250 C   0  0  0  0  0  0  0  0  0  0  0  0
  161.1900  205.0330  151.4380 C   0  0  0  0  0  0  0  0  0  0  0  0
  161.9560  209.1200  150.3520 C   0  0  0  0  0  2  0  0  0  0  0  0
  162.1850  209.9540  151.6020 C   0  0  0  0  0  2  0  0  0  0  0  0
  160.8890  210.6100  152.0480 C   0  0  2  0  0  3  0  0  0  0  0  0
  160.6720  211.7690  151.3030 O   0  0  0  0  0  1  0  0  0  0  0  0
  160.9320  210.9440  153.5040 C   0  0  0  0  0  0  0  0  0  0  0  0
  161.8230  210.2800  154.3360 O   0  0  0  0  0  1  0  0  0  0  0  0
  160.1770  211.8340  153.9780 O   0  0  0  0  0  0  0  0  0  0  0  0
  1 13  1  0  0  0  0
  1  2  2  0  0  0  0
  2 18  1  0  0  0  0
  3  6  1  0  0  0  0
  4  1  1  0  0  0  0
  5 12  2  0  0  0  0
  5  8  1  0  0  0  0
  7  4  1  0  0  0  0
  7 14  1  0  0  0  0
  8  7  2  0  0  0  0
  9 10  1  0  0  0  0
 11  2  1  0  0  0  0
 11 17  2  0  0  0  0
 12 16  1  0  0  0  0
 13  3  2  0  0  0  0
 14 13  1  0  0  0  0
 15  9  2  0  0  0  0
 16  4  2  0  0  0  0
 17 15  1  0  0  0  0
 18  6  2  0  0  0  0
 18  9  1  0  0  0  0
 19 17  1  0  0  0  0
 19 20  1  0  0  0  0
 20 21  1  0  0  0  0
 21 22  1  6  0  0  0
 21 23  1  0  0  0  0
 23 25  2  0  0  0  0
 23 24  1  0  0  0  0
M  END
>  <MODEL>
6

>  <REMARK>
 VINA RESULT:      -9.7      1.847      3.937
  Name = 
  4 active torsions:
  status: ('A' for Active; 'I' for Inactive)
    1  A    between atoms: C_2  and  C_21
    2  A    between atoms: C_6  and  C_15
    3  A    between atoms: C_6  and  C_23
    4  A    between atoms: C_15  and  C_21
                            x       y       z     vdW  Elec       q    Type
                         _______ _______ _______ _____ _____    ______ ____

>  <TORSDO>
F 4

$$$$
=
 OpenBabel11052422053D

 25 28  0  0  1  0  0  0  0  0999 V2000
  161.3610  205.3130  149.4710 C   0  0  0  0  0  0  0  0  0  0  0  0
  161.4360  206.4220  150.3390 C   0  0  0  0  0  0  0  0  0  0  0  0
  160.7510  203.8520  151.3300 C   0  0  0  0  0  3  0  0  0  0  0  0
  161.5880  205.2660  148.0810 C   0  0  0  0  0  0  0  0  0  0  0  0
  161.9560  204.7820  145.3520 C   0  0  0  0  0  3  0  0  0  0  0  0
  160.8230  204.9460  152.1990 C   0  0  0  0  0  3  0  0  0  0  0  0
  161.4220  203.9880  147.5500 C   0  0  0  0  0  0  0  0  0  0  0  0
  161.5990  203.7200  146.1950 C   0  0  0  0  0  3  0  0  0  0  0  0
  161.2360  207.3270  152.6060 C   0  0  0  0  0  0  0  0  0  0  0  0
  160.9640  207.1840  154.0670 C   0  0  0  0  0  1  0  0  0  0  0  0
  161.7710  207.7020  149.8760 C   0  0  0  0  0  3  0  0  0  0  0  0
  162.1280  206.0780  145.8710 C   0  0  0  0  0  3  0  0  0  0  0  0
  161.0210  204.0590  149.9830 C   0  0  0  0  0  0  0  0  0  0  0  0
  160.9960  202.8980  148.7600 S   0  0  0  0  0  0  0  0  0  0  0  0
  161.5740  208.5920  152.1160 C   0  0  0  0  0  3  0  0  0  0  0  0
  161.9450  206.3260  147.2410 C   0  0  0  0  0  3  0  0  0  0  0  0
  161.8350  208.7830  150.7580 C   0  0  0  0  0  0  0  0  0  0  0  0
  161.1630  206.2310  151.7240 C   0  0  0  0  0  0  0  0  0  0  0  0
  162.2130  210.1320  150.2550 C   0  0  0  0  0  2  0  0  0  0  0  0
  161.9890  210.2090  148.7540 C   0  0  0  0  0  2  0  0  0  0  0  0
  161.5510  211.6080  148.3530 C   0  0  2  0  0  3  0  0  0  0  0  0
  160.7290  211.5360  147.2280 O   0  0  0  0  0  1  0  0  0  0  0  0
  162.7310  212.4770  148.0630 C   0  0  0  0  0  0  0  0  0  0  0  0
  162.6220  213.8540  148.1990 O   0  0  0  0  0  1  0  0  0  0  0  0
  163.8280  211.9690  147.7090 O   0  0  0  0  0  0  0  0  0  0  0  0
  1 13  1  0  0  0  0
  1  2  2  0  0  0  0
  2 18  1  0  0  0  0
  3  6  1  0  0  0  0
  4  1  1  0  0  0  0
  5 12  2  0  0  0  0
  5  8  1  0  0  0  0
  7  4  1  0  0  0  0
  7 14  1  0  0  0  0
  8  7  2  0  0  0  0
  9 10  1  0  0  0  0
 11  2  1  0  0  0  0
 11 17  2  0  0  0  0
 12 16  1  0  0  0  0
 13  3  2  0  0  0  0
 14 13  1  0  0  0  0
 15  9  2  0  0  0  0
 16  4  2  0  0  0  0
 17 15  1  0  0  0  0
 18  6  2  0  0  0  0
 18  9  1  0  0  0  0
 19 17  1  0  0  0  0
 20 19  1  0  0  0  0
 21 22  1  6  0  0  0
 21 20  1  0  0  0  0
 23 24  1  0  0  0  0
 23 21  1  0  0  0  0
 25 23  2  0  0  0  0
M  END
>  <MODEL>
7

>  <REMARK>
 VINA RESULT:      -9.6      3.624      5.373
  Name = 
  4 active torsions:
  status: ('A' for Active; 'I' for Inactive)
    1  A    between atoms: C_2  and  C_21
    2  A    between atoms: C_6  and  C_15
    3  A    between atoms: C_6  and  C_23
    4  A    between atoms: C_15  and  C_21
                            x       y       z     vdW  Elec       q    Type
                         _______ _______ _______ _____ _____    ______ ____

>  <TORSDO>
F 4

$$$$
=
 OpenBabel11052422053D

 25 28  0  0  1  0  0  0  0  0999 V2000
  161.4110  207.4970  150.9760 C   0  0  0  0  0  0  0  0  0  0  0  0
  161.3450  206.4200  150.0680 C   0  0  0  0  0  0  0  0  0  0  0  0
  161.9570  209.0400  149.1650 C   0  0  0  0  0  3  0  0  0  0  0  0
  161.2060  207.4860  152.3710 C   0  0  0  0  0  0  0  0  0  0  0  0
  160.8750  207.8580  155.1220 C   0  0  0  0  0  3  0  0  0  0  0  0
  161.8950  207.9790  148.2570 C   0  0  0  0  0  3  0  0  0  0  0  0
  161.3530  208.7460  152.9480 C   0  0  0  0  0  0  0  0  0  0  0  0
  161.1940  208.9590  154.3140 C   0  0  0  0  0  3  0  0  0  0  0  0
  161.5340  205.6040  147.7670 C   0  0  0  0  0  0  0  0  0  0  0  0
  161.7880  205.8080  146.3090 C   0  0  0  0  0  1  0  0  0  0  0  0
  161.0440  205.1170  150.4870 C   0  0  0  0  0  3  0  0  0  0  0  0
  160.7230  206.5790  154.5560 C   0  0  0  0  0  3  0  0  0  0  0  0
  161.7130  208.7770  150.5080 C   0  0  0  0  0  0  0  0  0  0  0  0
  161.7330  209.8910  151.7730 S   0  0  0  0  0  0  0  0  0  0  0  0
  161.2330  204.3150  148.2130 C   0  0  0  0  0  3  0  0  0  0  0  0
  160.8880  206.3870  153.1750 C   0  0  0  0  0  3  0  0  0  0  0  0
  160.9840  204.0700  149.5640 C   0  0  0  0  0  0  0  0  0  0  0  0
  161.5920  206.6690  148.6880 C   0  0  0  0  0  0  0  0  0  0  0  0
  160.6830  202.6870  150.0280 C   0  0  0  0  0  2  0  0  0  0  0  0
  160.0820  201.8750  148.8930 C   0  0  0  0  0  2  0  0  0  0  0  0
  161.0140  200.7410  148.4990 C   0  0  2  0  0  3  0  0  0  0  0  0
  162.2710  200.9530  149.0640 O   0  0  0  0  0  1  0  0  0  0  0  0
  161.1370  200.6400  147.0140 C   0  0  0  0  0  0  0  0  0  0  0  0
  161.5770  199.4550  146.4390 O   0  0  0  0  0  1  0  0  0  0  0  0
  160.8310  201.6160  146.2780 O   0  0  0  0  0  0  0  0  0  0  0  0
  1  4  1  0  0  0  0
  2 11  1  0  0  0  0
  2  1  1  0  0  0  0
  3 13  1  0  0  0  0
  4  7  2  0  0  0  0
  4 16  1  0  0  0  0
  6 18  1  0  0  0  0
  6  3  2  0  0  0  0
  7  8  1  0  0  0  0
  8  5  2  0  0  0  0
  9 15  2  0  0  0  0
  9 18  1  0  0  0  0
 10  9  1  0  0  0  0
 12  5  1  0  0  0  0
 13  1  2  0  0  0  0
 13 14  1  0  0  0  0
 14  7  1  0  0  0  0
 15 17  1  0  0  0  0
 16 12  2  0  0  0  0
 17 19  1  0  0  0  0
 17 11  2  0  0  0  0
 18  2  2  0  0  0  0
 20 19  1  0  0  0  0
 21 20  1  0  0  0  0
 21 22  1  1  0  0  0
 23 21  1  0  0  0  0
 24 23  1  0  0  0  0
 25 23  2  0  0  0  0
M  END
>  <MODEL>
8

>  <REMARK>
 VINA RESULT:      -9.5      4.592      7.360
  Name = 
  4 active torsions:
  status: ('A' for Active; 'I' for Inactive)
    1  A    between atoms: C_2  and  C_21
    2  A    between atoms: C_6  and  C_15
    3  A    between atoms: C_6  and  C_23
    4  A    between atoms: C_15  and  C_21
                            x       y       z     vdW  Elec       q    Type
                         _______ _______ _______ _____ _____    ______ ____

>  <TORSDO>
F 4

$$$$
=
 OpenBabel11052422053D

 25 28  0  0  1  0  0  0  0  0999 V2000
  161.4530  207.4230  151.2910 C   0  0  0  0  0  0  0  0  0  0  0  0
  161.2810  206.0790  150.8980 C   0  0  0  0  0  0  0  0  0  0  0  0
  161.2270  206.8060  153.6420 C   0  0  0  0  0  3  0  0  0  0  0  0
  161.6640  208.5560  150.4790 C   0  0  0  0  0  0  0  0  0  0  0  0
  162.0930  211.0120  149.2130 C   0  0  0  0  0  3  0  0  0  0  0  0
  161.0550  205.4700  153.2630 C   0  0  0  0  0  3  0  0  0  0  0  0
  161.7920  209.7320  151.2170 C   0  0  0  0  0  0  0  0  0  0  0  0
  162.0060  210.9670  150.6120 C   0  0  0  0  0  3  0  0  0  0  0  0
  160.9020  203.7440  151.5300 C   0  0  0  0  0  0  0  0  0  0  0  0
  160.6820  202.6670  152.5420 C   0  0  0  0  0  1  0  0  0  0  0  0
  161.3040  205.6930  149.5510 C   0  0  0  0  0  3  0  0  0  0  0  0
  161.9660  209.8350  148.4530 C   0  0  0  0  0  3  0  0  0  0  0  0
  161.4230  207.7560  152.6460 C   0  0  0  0  0  0  0  0  0  0  0  0
  161.6500  209.4120  152.8640 S   0  0  0  0  0  0  0  0  0  0  0  0
  160.9280  203.3880  150.1790 C   0  0  0  0  0  3  0  0  0  0  0  0
  161.7510  208.6000  149.0840 C   0  0  0  0  0  3  0  0  0  0  0  0
  161.1330  204.3540  149.1930 C   0  0  0  0  0  0  0  0  0  0  0  0
  161.0780  205.0910  151.9040 C   0  0  0  0  0  0  0  0  0  0  0  0
  161.1400  203.9630  147.7570 C   0  0  0  0  0  2  0  0  0  0  0  0
  161.9590  204.9550  146.9490 C   0  0  0  0  0  2  0  0  0  0  0  0
  162.0320  204.5240  145.4940 C   0  0  2  0  0  3  0  0  0  0  0  0
  163.3640  204.4940  145.0820 O   0  0  0  0  0  1  0  0  0  0  0  0
  161.2540  205.4550  144.6200 C   0  0  0  0  0  0  0  0  0  0  0  0
  160.2340  206.2210  145.1680 O   0  0  0  0  0  1  0  0  0  0  0  0
  161.5260  205.5590  143.3950 O   0  0  0  0  0  0  0  0  0  0  0  0
  1 13  1  0  0  0  0
  2  1  2  0  0  0  0
  2 18  1  0  0  0  0
  4  7  1  0  0  0  0
  4  1  1  0  0  0  0
  5  8  1  0  0  0  0
  6  3  1  0  0  0  0
  7 14  1  0  0  0  0
  8  7  2  0  0  0  0
  9 18  1  0  0  0  0
  9 10  1  0  0  0  0
 11  2  1  0  0  0  0
 12 16  1  0  0  0  0
 12  5  2  0  0  0  0
 13 14  1  0  0  0  0
 13  3  2  0  0  0  0
 15  9  2  0  0  0  0
 16  4  2  0  0  0  0
 17 11  2  0  0  0  0
 17 15  1  0  0  0  0
 18  6  2  0  0  0  0
 19 17  1  0  0  0  0
 20 19  1  0  0  0  0
 21 22  1  6  0  0  0
 21 20  1  0  0  0  0
 23 24  1  0  0  0  0
 23 21  1  0  0  0  0
 25 23  2  0  0  0  0
M  END
>  <MODEL>
9

>  <REMARK>
 VINA RESULT:      -9.2      4.638      7.899
  Name = 
  4 active torsions:
  status: ('A' for Active; 'I' for Inactive)
    1  A    between atoms: C_2  and  C_21
    2  A    between atoms: C_6  and  C_15
    3  A    between atoms: C_6  and  C_23
    4  A    between atoms: C_15  and  C_21
                            x       y       z     vdW  Elec       q    Type
                         _______ _______ _______ _____ _____    ______ ____

>  <TORSDO>
F 4

$$$$
