=
 OpenBabel11062408443D

 55 61  0  0  1  0  0  0  0  0999 V2000
  160.3550  213.7860  149.7510 N   0  0  0  0  0  0  0  0  0  0  0  0
  158.9600  214.0390  150.0790 C   0  0  0  0  0  2  0  0  0  0  0  0
  158.7770  214.0840  151.5930 C   0  0  0  0  0  2  0  0  0  0  0  0
  156.4310  213.6520  151.3470 O   0  0  0  0  0  1  0  0  0  0  0  0
  157.5650  213.2810  152.0770 C   0  0  0  0  0  0  0  0  0  0  0  0
  157.8170  211.9290  151.8290 O   0  0  0  0  0  1  0  0  0  0  0  0
  157.8310  213.5220  156.8070 O   0  0  0  0  0  1  0  0  0  0  0  0
  157.3010  213.5250  153.5920 C   0  0  1  0  0  0  0  0  0  0  0  0
  159.6670  213.7470  153.8210 O   0  0  0  0  0  1  0  0  0  0  0  0
  158.4560  213.8030  154.5210 C   0  0  1  0  0  0  0  0  0  0  0  0
  158.5370  212.9390  155.7450 C   0  0  2  0  0  0  0  0  0  0  0  0
  156.1360  214.4510  153.9610 C   0  0  0  0  0  1  0  0  0  0  0  0
  157.7260  212.3950  154.5550 C   0  0  2  0  0  0  0  0  0  0  0  0
  156.4290  211.8510  155.1600 C   0  0  0  0  0  0  0  0  0  0  0  0
  156.0310  210.6880  154.8760 O   0  0  0  0  0  0  0  0  0  0  0  0
  155.7740  212.5370  156.1820 O   0  0  0  0  0  1  0  0  0  0  0  0
  159.8340  212.2000  156.1270 C   0  0  1  0  0  3  0  0  0  0  0  0
  160.4610  212.7770  157.2380 O   0  0  0  0  0  1  0  0  0  0  0  0
  159.5670  210.7230  156.3800 C   0  0  0  0  0  2  0  0  0  0  0  0
  160.5190  210.2110  157.2600 O   0  0  0  0  0  1  0  0  0  0  0  0
  160.5050  212.3540  149.5240 C   0  0  0  0  0  2  0  0  0  0  0  0
  161.4350  211.7710  150.5740 C   0  0  0  0  0  2  0  0  0  0  0  0
  160.6340  211.2420  151.7450 C   0  0  0  0  0  2  0  0  0  0  0  0
  159.9460  209.0380  152.3360 O   0  0  0  0  0  0  0  0  0  0  0  0
  162.1090  209.2260  151.4550 N   0  0  0  0  0  2  0  0  0  0  0  0
  160.8470  209.7730  151.8450 C   0  0  0  0  0  0  0  0  0  0  0  0
  162.1840  206.9250  147.9730 C   0  0  0  0  0  3  0  0  0  0  0  0
  161.5520  208.0730  154.0120 C   0  0  0  0  0  3  0  0  0  0  0  0
  161.0540  203.5360  149.3190 C   0  0  0  0  0  2  0  0  0  0  0  0
  160.9330  207.5580  155.1540 C   0  0  0  0  0  3  0  0  0  0  0  0
  161.3400  205.9200  152.9180 C   0  0  0  0  0  0  0  0  0  0  0  0
  160.7320  205.4060  154.0690 C   0  0  0  0  0  3  0  0  0  0  0  0
  160.5210  206.2250  155.1820 C   0  0  0  0  0  3  0  0  0  0  0  0
  161.7500  207.2680  152.8770 C   0  0  0  0  0  0  0  0  0  0  0  0
  162.4160  207.6270  149.1510 C   0  0  0  0  0  3  0  0  0  0  0  0
  161.3370  203.4090  146.8540 C   0  0  1  0  0  3  0  0  0  0  0  0
  161.7320  205.6940  150.4550 C   0  0  0  0  0  0  0  0  0  0  0  0
  161.7220  205.6100  148.0150 C   0  0  0  0  0  0  0  0  0  0  0  0
  161.6240  204.9890  151.7830 C   0  0  0  0  0  2  0  0  0  0  0  0
  161.4190  204.9280  146.7090 C   0  0  0  0  0  2  0  0  0  0  0  0
  162.4630  207.8230  151.6610 C   0  0  1  0  0  3  0  0  0  0  0  0
  160.4200  203.0530  148.0170 C   0  0  0  0  0  2  0  0  0  0  0  0
  162.1750  207.0340  150.4000 C   0  0  0  0  0  0  0  0  0  0  0  0
  161.4770  204.9860  149.2620 C   0  0  0  0  0  0  0  0  0  0  0  0
  160.8500  202.7840  145.5880 C   0  0  0  0  0  0  0  0  0  0  0  0
  160.4290  203.4950  144.6360 O   0  0  0  0  0  0  0  0  0  0  0  0
  160.8500  201.4010  145.4640 O   0  0  0  0  0  1  0  0  0  0  0  0
  160.6040  214.4520  148.4810 C   0  0  0  0  0  2  0  0  0  0  0  0
  159.3510  214.4060  147.6220 C   0  0  0  0  0  2  0  0  0  0  0  0
  160.1330  212.5840  143.8190 C   0  0  0  0  0  3  0  0  0  0  0  0
  159.6710  213.8970  146.2590 C   0  0  0  0  0  0  0  0  0  0  0  0
  158.7310  213.7800  145.3650 N   0  0  0  0  0  0  0  0  0  0  0  0
  161.1100  212.3570  144.9380 C   0  0  0  0  0  2  0  0  0  0  0  0
  158.9900  213.2320  144.0630 C   0  0  0  0  0  3  0  0  0  0  0  0
  161.0900  213.5300  145.9180 C   0  0  0  0  0  2  0  0  0  0  0  0
  1  2  1  0  0  0  0
  2  3  1  0  0  0  0
  3  5  1  0  0  0  0
  4  5  1  0  0  0  0
  5  8  1  0  0  0  0
  6  5  1  0  0  0  0
  8 12  1  1  0  0  0
  8 10  1  0  0  0  0
  8 13  1  0  0  0  0
 10  9  1  6  0  0  0
 10 13  1  0  0  0  0
 10 11  1  0  0  0  0
 11 17  1  0  0  0  0
 11  7  1  1  0  0  0
 13 14  1  1  0  0  0
 13 11  1  0  0  0  0
 14 16  1  0  0  0  0
 15 14  2  0  0  0  0
 17 19  1  0  0  0  0
 17 18  1  1  0  0  0
 19 20  1  0  0  0  0
 21  1  1  0  0  0  0
 21 22  1  0  0  0  0
 22 23  1  0  0  0  0
 23 26  1  0  0  0  0
 25 26  1  0  0  0  0
 26 24  2  0  0  0  0
 27 38  2  0  0  0  0
 27 35  1  0  0  0  0
 28 30  1  0  0  0  0
 30 33  2  0  0  0  0
 31 32  2  0  0  0  0
 32 33  1  0  0  0  0
 34 31  1  0  0  0  0
 34 28  2  0  0  0  0
 35 43  2  0  0  0  0
 36 45  1  6  0  0  0
 36 42  1  0  0  0  0
 37 39  1  0  0  0  0
 38 44  1  0  0  0  0
 39 31  1  0  0  0  0
 40 36  1  0  0  0  0
 40 38  1  0  0  0  0
 41 25  1  6  0  0  0
 41 34  1  0  0  0  0
 42 29  1  0  0  0  0
 43 37  1  0  0  0  0
 43 41  1  0  0  0  0
 44 29  1  0  0  0  0
 44 37  2  0  0  0  0
 46 45  2  0  0  0  0
 47 45  1  0  0  0  0
 48  1  1  0  0  0  0
 49 48  1  0  0  0  0
 50 54  2  0  0  0  0
 50 53  1  0  0  0  0
 51 49  1  0  0  0  0
 52 51  2  0  0  0  0
 53 55  1  0  0  0  0
 54 52  1  0  0  0  0
 55 51  1  0  0  0  0
M  END
>  <MODEL>
1

>  <REMARK>
 VINA RESULT:      -5.4      0.000      0.000
  Name = 
  16 active torsions:
  status: ('A' for Active; 'I' for Inactive)
    1  A    between atoms: C_1  and  C_53
    2  A    between atoms: C_4  and  C_35
    3  A    between atoms: C_4  and  C_37
    4  A    between atoms: C_6  and  C_20
    5  A    between atoms: C_8  and  C_22
    6  A    between atoms: C_8  and  N_43
    7  A    between atoms: C_10  and  C_32
    8  A    between atoms: C_11  and  C_29
    9  A    between atoms: N_19  and  C_45
   10  A    between atoms: C_20  and  C_22
   11  A    between atoms: C_27  and  C_54
   12  A    between atoms: C_29  and  C_38
   13  A    between atoms: C_35  and  N_43
   14  A    between atoms: C_37  and  C_40
   15  A    between atoms: N_43  and  C_51
   16  A    between atoms: C_51  and  C_54
                            x       y       z     vdW  Elec       q    Type
                         _______ _______ _______ _____ _____    ______ ____

>  <TORSDO>
F 16

$$$$
=
 OpenBabel11062408443D

 55 61  0  0  1  0  0  0  0  0999 V2000
  160.9690  211.4000  148.4790 N   0  0  0  0  0  0  0  0  0  0  0  0
  161.9460  210.3550  148.7460 C   0  0  0  0  0  2  0  0  0  0  0  0
  161.2620  208.9920  148.7750 C   0  0  0  0  0  2  0  0  0  0  0  0
  163.4020  208.3190  147.9280 O   0  0  0  0  0  1  0  0  0  0  0  0
  162.2200  207.8290  148.4920 C   0  0  0  0  0  0  0  0  0  0  0  0
  162.5390  207.2280  149.7140 O   0  0  0  0  0  1  0  0  0  0  0  0
  160.3600  203.9650  146.4660 O   0  0  0  0  0  1  0  0  0  0  0  0
  161.5770  206.7980  147.5200 C   0  0  1  0  0  0  0  0  0  0  0  0
  160.6120  205.7900  149.4560 O   0  0  0  0  0  1  0  0  0  0  0  0
  160.6830  205.7110  148.0610 C   0  0  1  0  0  0  0  0  0  0  0  0
  161.0290  204.3100  147.6490 C   0  0  2  0  0  0  0  0  0  0  0  0
  160.9630  207.3430  146.2250 C   0  0  0  0  0  1  0  0  0  0  0  0
  162.1480  205.3640  147.5610 C   0  0  2  0  0  0  0  0  0  0  0  0
  162.8140  205.1400  146.2000 C   0  0  0  0  0  0  0  0  0  0  0  0
  163.8760  204.4640  146.1130 O   0  0  0  0  0  1  0  0  0  0  0  0
  162.1650  205.4960  145.0200 O   0  0  0  0  0  0  0  0  0  0  0  0
  161.1880  203.1800  148.6840 C   0  0  1  0  0  3  0  0  0  0  0  0
  160.1540  203.1810  149.6280 O   0  0  0  0  0  1  0  0  0  0  0  0
  161.2750  201.8220  148.0010 C   0  0  0  0  0  2  0  0  0  0  0  0
  161.4780  200.8230  148.9510 O   0  0  0  0  0  1  0  0  0  0  0  0
  160.8600  212.2220  149.6790 C   0  0  0  0  0  2  0  0  0  0  0  0
  159.6780  213.1640  149.5390 C   0  0  0  0  0  2  0  0  0  0  0  0
  159.3470  213.7920  150.8760 C   0  0  0  0  0  2  0  0  0  0  0  0
  158.7280  211.7380  151.9150 O   0  0  0  0  0  0  0  0  0  0  0  0
  160.3920  212.9700  153.0110 N   0  0  0  0  0  2  0  0  0  0  0  0
  159.4750  212.7550  151.9350 C   0  0  0  0  0  0  0  0  0  0  0  0
  161.9560  209.1850  152.2030 C   0  0  0  0  0  3  0  0  0  0  0  0
  158.5570  213.4150  155.1580 C   0  0  0  0  0  3  0  0  0  0  0  0
  160.0180  207.0500  154.7060 C   0  0  0  0  0  2  0  0  0  0  0  0
  157.4160  213.5230  155.9580 C   0  0  0  0  0  3  0  0  0  0  0  0
  158.7170  211.0560  155.6930 C   0  0  0  0  0  0  0  0  0  0  0  0
  157.5820  211.1730  156.5030 C   0  0  0  0  0  3  0  0  0  0  0  0
  156.9270  212.4010  156.6290 C   0  0  0  0  0  3  0  0  0  0  0  0
  159.2120  212.1820  155.0050 C   0  0  0  0  0  0  0  0  0  0  0  0
  161.6430  210.4700  152.6350 C   0  0  0  0  0  3  0  0  0  0  0  0
  161.4580  205.5950  153.2960 C   0  0  1  0  0  3  0  0  0  0  0  0
  160.2410  209.5520  154.3950 C   0  0  0  0  0  0  0  0  0  0  0  0
  161.4190  208.0730  152.8500 C   0  0  0  0  0  0  0  0  0  0  0  0
  159.4360  209.7460  155.6550 C   0  0  0  0  0  2  0  0  0  0  0  0
  161.7340  206.7120  152.2910 C   0  0  0  0  0  2  0  0  0  0  0  0
  160.4750  212.0850  154.1720 C   0  0  1  0  0  3  0  0  0  0  0  0
  160.0620  205.7650  153.8830 C   0  0  0  0  0  2  0  0  0  0  0  0
  160.7710  210.6720  153.7160 C   0  0  0  0  0  0  0  0  0  0  0  0
  160.5410  208.2480  153.9470 C   0  0  0  0  0  0  0  0  0  0  0  0
  161.5990  204.2560  152.6500 C   0  0  0  0  0  0  0  0  0  0  0  0
  162.5370  204.0260  151.8410 O   0  0  0  0  0  0  0  0  0  0  0  0
  160.6760  203.2580  152.9350 O   0  0  0  0  0  1  0  0  0  0  0  0
  161.5400  212.2370  147.4350 C   0  0  0  0  0  2  0  0  0  0  0  0
  160.5780  212.3220  146.2610 C   0  0  0  0  0  2  0  0  0  0  0  0
  162.5560  213.8700  142.7850 C   0  0  0  0  0  3  0  0  0  0  0  0
  161.2310  212.9870  145.0990 C   0  0  0  0  0  0  0  0  0  0  0  0
  160.6180  213.0530  143.9520 N   0  0  0  0  0  0  0  0  0  0  0  0
  163.3930  213.4580  143.9630 C   0  0  0  0  0  2  0  0  0  0  0  0
  161.2430  213.6280  142.7930 C   0  0  0  0  0  3  0  0  0  0  0  0
  162.5990  213.5920  145.2620 C   0  0  0  0  0  2  0  0  0  0  0  0
  1  2  1  0  0  0  0
  1 21  1  0  0  0  0
  2  3  1  0  0  0  0
  4  5  1  0  0  0  0
  5  3  1  0  0  0  0
  5  6  1  0  0  0  0
  8 12  1  6  0  0  0
  8 13  1  0  0  0  0
  8 10  1  0  0  0  0
  8  5  1  0  0  0  0
 10  9  1  1  0  0  0
 11  7  1  6  0  0  0
 11 10  1  0  0  0  0
 11 17  1  0  0  0  0
 13 14  1  6  0  0  0
 13 11  1  0  0  0  0
 13 10  1  0  0  0  0
 15 14  1  0  0  0  0
 16 14  2  0  0  0  0
 17 18  1  1  0  0  0
 19 17  1  0  0  0  0
 19 20  1  0  0  0  0
 22 21  1  0  0  0  0
 22 23  1  0  0  0  0
 23 26  1  0  0  0  0
 24 26  2  0  0  0  0
 26 25  1  0  0  0  0
 27 35  2  0  0  0  0
 27 38  1  0  0  0  0
 28 30  1  0  0  0  0
 30 33  2  0  0  0  0
 31 32  2  0  0  0  0
 32 33  1  0  0  0  0
 34 28  2  0  0  0  0
 34 31  1  0  0  0  0
 35 43  1  0  0  0  0
 36 45  1  6  0  0  0
 36 42  1  0  0  0  0
 37 39  1  0  0  0  0
 38 44  2  0  0  0  0
 39 31  1  0  0  0  0
 40 38  1  0  0  0  0
 40 36  1  0  0  0  0
 41 25  1  6  0  0  0
 41 34  1  0  0  0  0
 42 29  1  0  0  0  0
 43 41  1  0  0  0  0
 43 37  2  0  0  0  0
 44 37  1  0  0  0  0
 44 29  1  0  0  0  0
 45 47  1  0  0  0  0
 46 45  2  0  0  0  0
 48  1  1  0  0  0  0
 49 48  1  0  0  0  0
 50 54  2  0  0  0  0
 50 53  1  0  0  0  0
 51 55  1  0  0  0  0
 51 49  1  0  0  0  0
 52 51  2  0  0  0  0
 53 55  1  0  0  0  0
 54 52  1  0  0  0  0
M  END
>  <MODEL>
2

>  <REMARK>
 VINA RESULT:      -4.2      2.377      7.711
  Name = 
  16 active torsions:
  status: ('A' for Active; 'I' for Inactive)
    1  A    between atoms: C_1  and  C_53
    2  A    between atoms: C_4  and  C_35
    3  A    between atoms: C_4  and  C_37
    4  A    between atoms: C_6  and  C_20
    5  A    between atoms: C_8  and  C_22
    6  A    between atoms: C_8  and  N_43
    7  A    between atoms: C_10  and  C_32
    8  A    between atoms: C_11  and  C_29
    9  A    between atoms: N_19  and  C_45
   10  A    between atoms: C_20  and  C_22
   11  A    between atoms: C_27  and  C_54
   12  A    between atoms: C_29  and  C_38
   13  A    between atoms: C_35  and  N_43
   14  A    between atoms: C_37  and  C_40
   15  A    between atoms: N_43  and  C_51
   16  A    between atoms: C_51  and  C_54
                            x       y       z     vdW  Elec       q    Type
                         _______ _______ _______ _____ _____    ______ ____

>  <TORSDO>
F 16

$$$$
=
 OpenBabel11062408443D

 55 61  0  0  1  0  0  0  0  0999 V2000
  161.2730  205.3150  148.0400 N   0  0  0  0  0  0  0  0  0  0  0  0
  160.8630  204.4100  149.1030 C   0  0  0  0  0  2  0  0  0  0  0  0
  161.7720  204.5790  150.3170 C   0  0  0  0  0  2  0  0  0  0  0  0
  159.6860  205.2420  151.2980 O   0  0  0  0  0  1  0  0  0  0  0  0
  161.0040  204.8880  151.6060 C   0  0  0  0  0  0  0  0  0  0  0  0
  160.9700  203.7210  152.3760 O   0  0  0  0  0  1  0  0  0  0  0  0
  162.1540  208.2430  154.7560 O   0  0  0  0  0  1  0  0  0  0  0  0
  161.6760  206.0500  152.3940 C   0  0  1  0  0  0  0  0  0  0  0  0
  160.8220  205.0160  154.3680 O   0  0  0  0  0  1  0  0  0  0  0  0
  161.5890  206.0880  153.8980 C   0  0  1  0  0  0  0  0  0  0  0  0
  161.0870  207.3710  154.4950 C   0  0  2  0  0  0  0  0  0  0  0  0
  163.0930  206.4560  151.9710 C   0  0  0  0  0  1  0  0  0  0  0  0
  160.7280  207.0940  153.0240 C   0  0  2  0  0  0  0  0  0  0  0  0
  161.0000  208.4070  152.2830 C   0  0  0  0  0  0  0  0  0  0  0  0
  160.0430  209.1290  151.8930 O   0  0  0  0  0  0  0  0  0  0  0  0
  162.2900  208.9280  152.2040 O   0  0  0  0  0  1  0  0  0  0  0  0
  159.9390  207.3880  155.5220 C   0  0  1  0  0  3  0  0  0  0  0  0
  160.3350  206.8780  156.7640 O   0  0  0  0  0  1  0  0  0  0  0  0
  159.3740  208.7920  155.6850 C   0  0  0  0  0  2  0  0  0  0  0  0
  160.1610  209.5220  156.5750 O   0  0  0  0  0  1  0  0  0  0  0  0
  162.0260  206.4050  148.6500 C   0  0  0  0  0  2  0  0  0  0  0  0
  161.4960  207.7330  148.1400 C   0  0  0  0  0  2  0  0  0  0  0  0
  162.5080  208.8310  148.3880 C   0  0  0  0  0  2  0  0  0  0  0  0
  160.6440  210.2550  147.9660 O   0  0  0  0  0  0  0  0  0  0  0  0
  162.4500  211.2470  149.0820 N   0  0  0  0  0  2  0  0  0  0  0  0
  161.7910  210.1300  148.4800 C   0  0  0  0  0  0  0  0  0  0  0  0
  159.7990  212.0300  152.2100 C   0  0  0  0  0  3  0  0  0  0  0  0
  162.2670  212.6090  146.5750 C   0  0  0  0  0  3  0  0  0  0  0  0
  157.3800  214.4520  150.5210 C   0  0  0  0  0  2  0  0  0  0  0  0
  161.9300  213.0140  145.2800 C   0  0  0  0  0  3  0  0  0  0  0  0
  160.3740  213.8380  147.4600 C   0  0  0  0  0  0  0  0  0  0  0  0
  160.0490  214.2520  146.1620 C   0  0  0  0  0  3  0  0  0  0  0  0
  160.8190  213.8340  145.0730 C   0  0  0  0  0  3  0  0  0  0  0  0
  161.4880  213.0030  147.6760 C   0  0  0  0  0  0  0  0  0  0  0  0
  160.8260  211.9660  151.2730 C   0  0  0  0  0  3  0  0  0  0  0  0
  156.6040  213.9620  152.8310 C   0  0  1  0  0  3  0  0  0  0  0  0
  159.6120  213.4870  149.8190 C   0  0  0  0  0  0  0  0  0  0  0  0
  158.6700  212.8110  151.9680 C   0  0  0  0  0  0  0  0  0  0  0  0
  159.5750  214.3780  148.6030 C   0  0  0  0  0  2  0  0  0  0  0  0
  157.5610  212.7820  152.9840 C   0  0  0  0  0  2  0  0  0  0  0  0
  161.8880  212.5960  149.0800 C   0  0  1  0  0  3  0  0  0  0  0  0
  156.1690  214.0860  151.3760 C   0  0  0  0  0  2  0  0  0  0  0  0
  160.7390  212.6710  150.0640 C   0  0  0  0  0  0  0  0  0  0  0  0
  158.5600  213.5380  150.7580 C   0  0  0  0  0  0  0  0  0  0  0  0
  155.4180  213.7990  153.7240 C   0  0  0  0  0  0  0  0  0  0  0  0
  154.2520  214.0090  153.2940 O   0  0  0  0  0  0  0  0  0  0  0  0
  155.6050  213.4230  155.0470 O   0  0  0  0  0  1  0  0  0  0  0  0
  162.1980  204.5700  147.2010 C   0  0  0  0  0  2  0  0  0  0  0  0
  161.4420  203.9170  146.0550 C   0  0  0  0  0  2  0  0  0  0  0  0
  161.0790  199.7000  146.7460 C   0  0  0  0  0  3  0  0  0  0  0  0
  161.1900  202.4780  146.3480 C   0  0  0  0  0  0  0  0  0  0  0  0
  161.7020  201.9270  147.4100 N   0  0  0  0  0  0  0  0  0  0  0  0
  160.8240  200.2240  145.3610 C   0  0  0  0  0  2  0  0  0  0  0  0
  161.5350  200.5270  147.6910 C   0  0  0  0  0  3  0  0  0  0  0  0
  160.3300  201.6700  145.4150 C   0  0  0  0  0  2  0  0  0  0  0  0
  1 21  1  0  0  0  0
  1  2  1  0  0  0  0
  2  3  1  0  0  0  0
  3  5  1  0  0  0  0
  4  5  1  0  0  0  0
  5  6  1  0  0  0  0
  5  8  1  0  0  0  0
  8 12  1  6  0  0  0
  8 13  1  0  0  0  0
  8 10  1  0  0  0  0
 10  9  1  1  0  0  0
 10 11  1  0  0  0  0
 11  7  1  1  0  0  0
 11 17  1  0  0  0  0
 13 14  1  1  0  0  0
 13 10  1  0  0  0  0
 13 11  1  0  0  0  0
 15 14  2  0  0  0  0
 16 14  1  0  0  0  0
 17 19  1  0  0  0  0
 17 18  1  1  0  0  0
 19 20  1  0  0  0  0
 22 23  1  0  0  0  0
 22 21  1  0  0  0  0
 23 26  1  0  0  0  0
 24 26  2  0  0  0  0
 26 25  1  0  0  0  0
 28 34  1  0  0  0  0
 29 44  1  0  0  0  0
 29 42  1  0  0  0  0
 30 28  2  0  0  0  0
 31 34  2  0  0  0  0
 31 39  1  0  0  0  0
 32 31  1  0  0  0  0
 33 30  1  0  0  0  0
 33 32  2  0  0  0  0
 34 41  1  0  0  0  0
 35 27  2  0  0  0  0
 36 40  1  0  0  0  0
 36 45  1  1  0  0  0
 37 43  2  0  0  0  0
 37 44  1  0  0  0  0
 38 27  1  0  0  0  0
 38 40  1  0  0  0  0
 39 37  1  0  0  0  0
 41 25  1  6  0  0  0
 41 43  1  0  0  0  0
 42 36  1  0  0  0  0
 43 35  1  0  0  0  0
 44 38  2  0  0  0  0
 45 47  1  0  0  0  0
 46 45  2  0  0  0  0
 48  1  1  0  0  0  0
 49 51  1  0  0  0  0
 49 48  1  0  0  0  0
 50 54  2  0  0  0  0
 51 52  2  0  0  0  0
 52 54  1  0  0  0  0
 53 55  1  0  0  0  0
 53 50  1  0  0  0  0
 55 51  1  0  0  0  0
M  END
>  <MODEL>
3

>  <REMARK>
 VINA RESULT:      -4.1      2.407      9.406
  Name = 
  16 active torsions:
  status: ('A' for Active; 'I' for Inactive)
    1  A    between atoms: C_1  and  C_53
    2  A    between atoms: C_4  and  C_35
    3  A    between atoms: C_4  and  C_37
    4  A    between atoms: C_6  and  C_20
    5  A    between atoms: C_8  and  C_22
    6  A    between atoms: C_8  and  N_43
    7  A    between atoms: C_10  and  C_32
    8  A    between atoms: C_11  and  C_29
    9  A    between atoms: N_19  and  C_45
   10  A    between atoms: C_20  and  C_22
   11  A    between atoms: C_27  and  C_54
   12  A    between atoms: C_29  and  C_38
   13  A    between atoms: C_35  and  N_43
   14  A    between atoms: C_37  and  C_40
   15  A    between atoms: N_43  and  C_51
   16  A    between atoms: C_51  and  C_54
                            x       y       z     vdW  Elec       q    Type
                         _______ _______ _______ _____ _____    ______ ____

>  <TORSDO>
F 16

$$$$
=
 OpenBabel11062408443D

 55 61  0  0  1  0  0  0  0  0999 V2000
  161.6990  205.8510  143.8360 N   0  0  0  0  0  0  0  0  0  0  0  0
  161.3700  205.8160  142.4190 C   0  0  0  0  0  2  0  0  0  0  0  0
  161.7540  207.1370  141.7580 C   0  0  0  0  0  2  0  0  0  0  0  0
  163.7030  206.7860  140.4060 O   0  0  0  0  0  1  0  0  0  0  0  0
  162.3170  206.9630  140.3440 C   0  0  0  0  0  0  0  0  0  0  0  0
  161.7560  205.8050  139.7970 O   0  0  0  0  0  1  0  0  0  0  0  0
  161.5180  211.3260  138.6610 O   0  0  0  0  0  1  0  0  0  0  0  0
  161.9980  208.2020  139.4580 C   0  0  1  0  0  0  0  0  0  0  0  0
  163.4430  209.4310  140.9060 O   0  0  0  0  0  1  0  0  0  0  0  0
  162.6410  209.5310  139.7640 C   0  0  1  0  0  0  0  0  0  0  0  0
  161.7070  210.6970  139.9000 C   0  0  2  0  0  0  0  0  0  0  0  0
  161.9900  207.9950  137.9390 C   0  0  0  0  0  1  0  0  0  0  0  0
  161.1080  209.2930  140.0940 C   0  0  2  0  0  0  0  0  0  0  0  0
  159.8040  209.2910  139.2900 C   0  0  0  0  0  0  0  0  0  0  0  0
  159.5700  208.3730  138.4570 O   0  0  0  0  0  0  0  0  0  0  0  0
  158.7710  210.1740  139.6020 O   0  0  0  0  0  1  0  0  0  0  0  0
  161.7560  211.6320  141.1250 C   0  0  1  0  0  3  0  0  0  0  0  0
  162.2030  212.9150  140.7910 O   0  0  0  0  0  1  0  0  0  0  0  0
  160.3980  211.7080  141.8080 C   0  0  0  0  0  2  0  0  0  0  0  0
  159.9610  213.0310  141.8530 O   0  0  0  0  0  1  0  0  0  0  0  0
  160.5540  206.4090  144.5440 C   0  0  0  0  0  2  0  0  0  0  0  0
  161.0420  207.3620  145.6210 C   0  0  0  0  0  2  0  0  0  0  0  0
  161.9060  206.6240  146.6210 C   0  0  0  0  0  2  0  0  0  0  0  0
  159.8960  205.7550  147.5630 O   0  0  0  0  0  0  0  0  0  0  0  0
  161.5440  206.3970  149.0990 N   0  0  0  0  0  2  0  0  0  0  0  0
  161.0570  206.2050  147.7690 C   0  0  0  0  0  0  0  0  0  0  0  0
  161.4760  209.5600  151.8220 C   0  0  0  0  0  3  0  0  0  0  0  0
  161.1480  203.6880  149.9250 C   0  0  0  0  0  3  0  0  0  0  0  0
  161.1500  207.6690  155.1220 C   0  0  0  0  0  2  0  0  0  0  0  0
  161.3120  202.3840  150.4010 C   0  0  0  0  0  3  0  0  0  0  0  0
  160.8870  204.4920  152.1970 C   0  0  0  0  0  0  0  0  0  0  0  0
  161.0390  203.1830  152.6670 C   0  0  0  0  0  3  0  0  0  0  0  0
  161.2610  202.1320  151.7720 C   0  0  0  0  0  3  0  0  0  0  0  0
  160.9470  204.7580  150.8150 C   0  0  0  0  0  0  0  0  0  0  0  0
  161.2360  208.5480  150.8990 C   0  0  0  0  0  3  0  0  0  0  0  0
  161.3700  210.1040  155.5670 C   0  0  1  0  0  3  0  0  0  0  0  0
  160.9740  206.9430  152.7040 C   0  0  0  0  0  0  0  0  0  0  0  0
  161.4730  209.2830  153.1890 C   0  0  0  0  0  0  0  0  0  0  0  0
  160.5670  205.5720  153.1810 C   0  0  0  0  0  2  0  0  0  0  0  0
  161.8110  210.4030  154.1350 C   0  0  0  0  0  2  0  0  0  0  0  0
  160.7240  206.1600  150.2860 C   0  0  1  0  0  3  0  0  0  0  0  0
  161.8560  208.7190  155.9760 C   0  0  0  0  0  2  0  0  0  0  0  0
  161.0050  207.2300  151.3210 C   0  0  0  0  0  0  0  0  0  0  0  0
  161.2360  207.9630  153.6420 C   0  0  0  0  0  0  0  0  0  0  0  0
  161.8880  211.1430  156.5060 C   0  0  0  0  0  0  0  0  0  0  0  0
  163.0570  211.0670  156.9730 O   0  0  0  0  0  1  0  0  0  0  0  0
  161.0670  212.1980  156.8790 O   0  0  0  0  0  0  0  0  0  0  0  0
  161.8330  204.4650  144.2580 C   0  0  0  0  0  2  0  0  0  0  0  0
  160.4600  203.8760  144.5360 C   0  0  0  0  0  2  0  0  0  0  0  0
  161.1580  200.3180  146.8250 C   0  0  0  0  0  3  0  0  0  0  0  0
  160.5760  202.6590  145.3870 C   0  0  0  0  0  0  0  0  0  0  0  0
  161.2510  202.7000  146.5000 N   0  0  0  0  0  0  0  0  0  0  0  0
  160.7250  200.1760  145.3940 C   0  0  0  0  0  2  0  0  0  0  0  0
  161.4390  201.5300  147.3130 C   0  0  0  0  0  3  0  0  0  0  0  0
  159.8980  201.3860  144.9580 C   0  0  0  0  0  2  0  0  0  0  0  0
  1 48  1  0  0  0  0
  1 21  1  0  0  0  0
  2  1  1  0  0  0  0
  3  2  1  0  0  0  0
  5  4  1  0  0  0  0
  5  3  1  0  0  0  0
  6  5  1  0  0  0  0
  8 12  1  6  0  0  0
  8 10  1  0  0  0  0
  8 13  1  0  0  0  0
  8  5  1  0  0  0  0
 10 11  1  0  0  0  0
 10 13  1  0  0  0  0
 10  9  1  1  0  0  0
 11  7  1  6  0  0  0
 11 13  1  0  0  0  0
 11 17  1  0  0  0  0
 13 14  1  6  0  0  0
 14 16  1  0  0  0  0
 15 14  2  0  0  0  0
 17 18  1  6  0  0  0
 17 19  1  0  0  0  0
 19 20  1  0  0  0  0
 21 22  1  0  0  0  0
 22 23  1  0  0  0  0
 23 26  1  0  0  0  0
 24 26  2  0  0  0  0
 26 25  1  0  0  0  0
 27 38  1  0  0  0  0
 28 30  2  0  0  0  0
 28 34  1  0  0  0  0
 29 42  1  0  0  0  0
 30 33  1  0  0  0  0
 31 32  1  0  0  0  0
 31 39  1  0  0  0  0
 33 32  2  0  0  0  0
 34 31  2  0  0  0  0
 35 43  1  0  0  0  0
 35 27  2  0  0  0  0
 36 42  1  0  0  0  0
 36 45  1  1  0  0  0
 37 39  1  0  0  0  0
 37 44  1  0  0  0  0
 38 44  2  0  0  0  0
 38 40  1  0  0  0  0
 40 36  1  0  0  0  0
 41 25  1  6  0  0  0
 41 34  1  0  0  0  0
 41 43  1  0  0  0  0
 43 37  2  0  0  0  0
 44 29  1  0  0  0  0
 45 47  2  0  0  0  0
 45 46  1  0  0  0  0
 48 49  1  0  0  0  0
 49 51  1  0  0  0  0
 50 54  2  0  0  0  0
 51 52  2  0  0  0  0
 52 54  1  0  0  0  0
 53 50  1  0  0  0  0
 55 51  1  0  0  0  0
 55 53  1  0  0  0  0
M  END
>  <MODEL>
4

>  <REMARK>
 VINA RESULT:      -3.9      4.584     11.516
  Name = 
  16 active torsions:
  status: ('A' for Active; 'I' for Inactive)
    1  A    between atoms: C_1  and  C_53
    2  A    between atoms: C_4  and  C_35
    3  A    between atoms: C_4  and  C_37
    4  A    between atoms: C_6  and  C_20
    5  A    between atoms: C_8  and  C_22
    6  A    between atoms: C_8  and  N_43
    7  A    between atoms: C_10  and  C_32
    8  A    between atoms: C_11  and  C_29
    9  A    between atoms: N_19  and  C_45
   10  A    between atoms: C_20  and  C_22
   11  A    between atoms: C_27  and  C_54
   12  A    between atoms: C_29  and  C_38
   13  A    between atoms: C_35  and  N_43
   14  A    between atoms: C_37  and  C_40
   15  A    between atoms: N_43  and  C_51
   16  A    between atoms: C_51  and  C_54
                            x       y       z     vdW  Elec       q    Type
                         _______ _______ _______ _____ _____    ______ ____

>  <TORSDO>
F 16

$$$$
=
 OpenBabel11062408443D

 55 61  0  0  1  0  0  0  0  0999 V2000
  161.1170  213.1020  148.6380 N   0  0  0  0  0  0  0  0  0  0  0  0
  159.9140  213.6980  149.1980 C   0  0  0  0  0  2  0  0  0  0  0  0
  159.3820  212.8340  150.3370 C   0  0  0  0  0  2  0  0  0  0  0  0
  160.5180  214.3400  151.8180 O   0  0  0  0  0  1  0  0  0  0  0  0
  159.3650  213.5600  151.6870 C   0  0  0  0  0  0  0  0  0  0  0  0
  158.2590  214.4160  151.7010 O   0  0  0  0  0  1  0  0  0  0  0  0
  158.0480  210.8970  155.3850 O   0  0  0  0  0  1  0  0  0  0  0  0
  159.2940  212.5470  152.8660 C   0  0  1  0  0  0  0  0  0  0  0  0
  156.9640  212.3660  152.3850 O   0  0  0  0  0  1  0  0  0  0  0  0
  157.9840  211.8870  153.2140 C   0  0  1  0  0  0  0  0  0  0  0  0
  157.5590  211.9870  154.6500 C   0  0  2  0  0  0  0  0  0  0  0  0
  160.4130  211.5030  152.9620 C   0  0  0  0  0  1  0  0  0  0  0  0
  158.5750  213.0280  154.1460 C   0  0  2  0  0  0  0  0  0  0  0  0
  159.6540  213.1040  155.2300 C   0  0  0  0  0  0  0  0  0  0  0  0
  159.5500  213.9310  156.1760 O   0  0  0  0  0  1  0  0  0  0  0  0
  160.6560  212.1380  155.3080 O   0  0  0  0  0  0  0  0  0  0  0  0
  156.1560  212.4860  155.0440 C   0  0  1  0  0  3  0  0  0  0  0  0
  155.4780  211.5680  155.8550 O   0  0  0  0  0  1  0  0  0  0  0  0
  156.2320  213.8420  155.7320 C   0  0  0  0  0  2  0  0  0  0  0  0
  155.5530  213.7970  156.9490 O   0  0  0  0  0  1  0  0  0  0  0  0
  160.7070  212.0090  147.7650 C   0  0  0  0  0  2  0  0  0  0  0  0
  160.5630  210.7370  148.5820 C   0  0  0  0  0  2  0  0  0  0  0  0
  161.9210  210.2630  149.0550 C   0  0  0  0  0  2  0  0  0  0  0  0
  160.6770  208.2970  149.5750 O   0  0  0  0  0  0  0  0  0  0  0  0
  163.0000  208.1230  149.8160 N   0  0  0  0  0  2  0  0  0  0  0  0
  161.8130  208.8380  149.4670 C   0  0  0  0  0  0  0  0  0  0  0  0
  162.5740  205.0740  146.9950 C   0  0  0  0  0  3  0  0  0  0  0  0
  162.1020  207.8160  152.5130 C   0  0  0  0  0  3  0  0  0  0  0  0
  160.5810  202.5070  148.9980 C   0  0  0  0  0  2  0  0  0  0  0  0
  161.3440  207.7690  153.6860 C   0  0  0  0  0  3  0  0  0  0  0  0
  161.3750  205.5750  151.9430 C   0  0  0  0  0  0  0  0  0  0  0  0
  160.6270  205.5280  153.1260 C   0  0  0  0  0  3  0  0  0  0  0  0
  160.6040  206.6260  153.9910 C   0  0  0  0  0  3  0  0  0  0  0  0
  162.1170  206.7290  151.6220 C   0  0  0  0  0  0  0  0  0  0  0  0
  162.9470  205.9720  147.9900 C   0  0  0  0  0  3  0  0  0  0  0  0
  160.8850  201.7030  146.6670 C   0  0  1  0  0  3  0  0  0  0  0  0
  161.7590  204.6520  149.6480 C   0  0  0  0  0  0  0  0  0  0  0  0
  161.7900  203.9640  147.3050 C   0  0  0  0  0  0  0  0  0  0  0  0
  161.4400  204.3490  151.0900 C   0  0  0  0  0  2  0  0  0  0  0  0
  161.3560  203.0700  146.1750 C   0  0  0  0  0  2  0  0  0  0  0  0
  162.9790  206.7730  150.3770 C   0  0  1  0  0  3  0  0  0  0  0  0
  159.8790  201.8810  147.7960 C   0  0  0  0  0  2  0  0  0  0  0  0
  162.5310  205.7870  149.3170 C   0  0  0  0  0  0  0  0  0  0  0  0
  161.3620  203.7500  148.6380 C   0  0  0  0  0  0  0  0  0  0  0  0
  160.2870  200.9170  145.5460 C   0  0  0  0  0  0  0  0  0  0  0  0
  159.4760  201.4520  144.7430 O   0  0  0  0  0  0  0  0  0  0  0  0
  160.6200  199.5770  145.3960 O   0  0  0  0  0  1  0  0  0  0  0  0
  161.7240  214.1210  147.7950 C   0  0  0  0  0  2  0  0  0  0  0  0
  160.7960  214.4510  146.6360 C   0  0  0  0  0  2  0  0  0  0  0  0
  162.7120  213.3900  142.9500 C   0  0  0  0  0  3  0  0  0  0  0  0
  161.4830  214.2180  145.3350 C   0  0  0  0  0  0  0  0  0  0  0  0
  160.7870  213.9990  144.2570 N   0  0  0  0  0  0  0  0  0  0  0  0
  163.4920  213.2570  144.2270 C   0  0  0  0  0  2  0  0  0  0  0  0
  161.4160  213.7060  142.9980 C   0  0  0  0  0  3  0  0  0  0  0  0
  162.9860  214.2500  145.2730 C   0  0  0  0  0  2  0  0  0  0  0  0
  1  2  1  0  0  0  0
  2  3  1  0  0  0  0
  3  5  1  0  0  0  0
  5  6  1  0  0  0  0
  5  4  1  0  0  0  0
  5  8  1  0  0  0  0
  8 12  1  1  0  0  0
  8 10  1  0  0  0  0
  8 13  1  0  0  0  0
 10  9  1  6  0  0  0
 10 13  1  0  0  0  0
 10 11  1  0  0  0  0
 11 17  1  0  0  0  0
 11  7  1  1  0  0  0
 13 11  1  0  0  0  0
 13 14  1  1  0  0  0
 14 16  2  0  0  0  0
 14 15  1  0  0  0  0
 17 19  1  0  0  0  0
 17 18  1  1  0  0  0
 19 20  1  0  0  0  0
 21 22  1  0  0  0  0
 21  1  1  0  0  0  0
 22 23  1  0  0  0  0
 23 26  1  0  0  0  0
 26 24  2  0  0  0  0
 26 25  1  0  0  0  0
 27 38  2  0  0  0  0
 27 35  1  0  0  0  0
 28 30  1  0  0  0  0
 30 33  2  0  0  0  0
 31 32  2  0  0  0  0
 32 33  1  0  0  0  0
 34 31  1  0  0  0  0
 34 28  2  0  0  0  0
 35 43  2  0  0  0  0
 36 45  1  6  0  0  0
 36 42  1  0  0  0  0
 37 39  1  0  0  0  0
 38 44  1  0  0  0  0
 39 31  1  0  0  0  0
 40 36  1  0  0  0  0
 40 38  1  0  0  0  0
 41 25  1  6  0  0  0
 41 34  1  0  0  0  0
 42 29  1  0  0  0  0
 43 37  1  0  0  0  0
 43 41  1  0  0  0  0
 44 29  1  0  0  0  0
 44 37  2  0  0  0  0
 46 45  2  0  0  0  0
 47 45  1  0  0  0  0
 48  1  1  0  0  0  0
 49 48  1  0  0  0  0
 50 54  2  0  0  0  0
 50 53  1  0  0  0  0
 51 49  1  0  0  0  0
 52 51  2  0  0  0  0
 53 55  1  0  0  0  0
 54 52  1  0  0  0  0
 55 51  1  0  0  0  0
M  END
>  <MODEL>
5

>  <REMARK>
 VINA RESULT:      -3.5      1.559      2.691
  Name = 
  16 active torsions:
  status: ('A' for Active; 'I' for Inactive)
    1  A    between atoms: C_1  and  C_53
    2  A    between atoms: C_4  and  C_35
    3  A    between atoms: C_4  and  C_37
    4  A    between atoms: C_6  and  C_20
    5  A    between atoms: C_8  and  C_22
    6  A    between atoms: C_8  and  N_43
    7  A    between atoms: C_10  and  C_32
    8  A    between atoms: C_11  and  C_29
    9  A    between atoms: N_19  and  C_45
   10  A    between atoms: C_20  and  C_22
   11  A    between atoms: C_27  and  C_54
   12  A    between atoms: C_29  and  C_38
   13  A    between atoms: C_35  and  N_43
   14  A    between atoms: C_37  and  C_40
   15  A    between atoms: N_43  and  C_51
   16  A    between atoms: C_51  and  C_54
                            x       y       z     vdW  Elec       q    Type
                         _______ _______ _______ _____ _____    ______ ____

>  <TORSDO>
F 16

$$$$
=
 OpenBabel11062408443D

 55 61  0  0  1  0  0  0  0  0999 V2000
  161.0130  213.0750  148.8590 N   0  0  0  0  0  0  0  0  0  0  0  0
  159.9220  213.8280  149.4610 C   0  0  0  0  0  2  0  0  0  0  0  0
  160.0350  213.7910  150.9820 C   0  0  0  0  0  2  0  0  0  0  0  0
  158.0920  212.3900  150.8480 O   0  0  0  0  0  1  0  0  0  0  0  0
  159.2300  212.6520  151.6180 C   0  0  0  0  0  0  0  0  0  0  0  0
  160.0300  211.5050  151.6130 O   0  0  0  0  0  1  0  0  0  0  0  0
  158.4720  212.7520  156.3000 O   0  0  0  0  0  1  0  0  0  0  0  0
  158.7960  213.0160  153.0680 C   0  0  1  0  0  0  0  0  0  0  0  0
  160.7730  211.8900  153.7900 O   0  0  0  0  0  1  0  0  0  0  0  0
  159.6620  212.6160  154.2350 C   0  0  1  0  0  0  0  0  0  0  0  0
  158.9740  211.8650  155.3370 C   0  0  2  0  0  0  0  0  0  0  0  0
  158.2710  214.4370  153.3070 C   0  0  0  0  0  1  0  0  0  0  0  0
  158.3010  211.8500  153.9520 C   0  0  2  0  0  0  0  0  0  0  0  0
  156.8180  212.1250  154.2150 C   0  0  0  0  0  0  0  0  0  0  0  0
  156.3200  213.2520  153.9460 O   0  0  0  0  0  0  0  0  0  0  0  0
  155.9510  211.0900  154.5610 O   0  0  0  0  0  1  0  0  0  0  0  0
  159.5310  210.5340  155.8780 C   0  0  1  0  0  3  0  0  0  0  0  0
  159.6840  209.5770  154.8670 O   0  0  0  0  0  1  0  0  0  0  0  0
  160.8520  210.7500  156.6030 C   0  0  0  0  0  2  0  0  0  0  0  0
  161.7650  209.7620  156.2360 O   0  0  0  0  0  1  0  0  0  0  0  0
  160.4270  212.0550  147.9980 C   0  0  0  0  0  2  0  0  0  0  0  0
  160.4180  210.7230  148.7270 C   0  0  0  0  0  2  0  0  0  0  0  0
  161.8340  210.2240  148.9220 C   0  0  0  0  0  2  0  0  0  0  0  0
  160.7620  208.0960  148.9800 O   0  0  0  0  0  0  0  0  0  0  0  0
  162.8820  208.1940  149.9720 N   0  0  0  0  0  2  0  0  0  0  0  0
  161.7880  208.7760  149.2590 C   0  0  0  0  0  0  0  0  0  0  0  0
  162.5610  205.2540  147.0240 C   0  0  0  0  0  3  0  0  0  0  0  0
  161.9160  207.7740  152.6300 C   0  0  0  0  0  3  0  0  0  0  0  0
  160.5410  202.5930  148.8720 C   0  0  0  0  0  2  0  0  0  0  0  0
  161.1270  207.6740  153.7790 C   0  0  0  0  0  3  0  0  0  0  0  0
  161.2260  205.5500  151.9540 C   0  0  0  0  0  0  0  0  0  0  0  0
  160.4480  205.4510  153.1130 C   0  0  0  0  0  3  0  0  0  0  0  0
  160.3900  206.5130  154.0200 C   0  0  0  0  0  3  0  0  0  0  0  0
  161.9650  206.7230  151.6990 C   0  0  0  0  0  0  0  0  0  0  0  0
  162.8990  206.1160  148.0630 C   0  0  0  0  0  3  0  0  0  0  0  0
  160.9150  201.8830  146.5200 C   0  0  1  0  0  3  0  0  0  0  0  0
  161.6800  204.7210  149.6360 C   0  0  0  0  0  0  0  0  0  0  0  0
  161.7800  204.1250  147.2700 C   0  0  0  0  0  0  0  0  0  0  0  0
  161.3260  204.3590  151.0560 C   0  0  0  0  0  2  0  0  0  0  0  0
  161.3850  203.2730  146.0950 C   0  0  0  0  0  2  0  0  0  0  0  0
  162.8590  206.8230  150.4790 C   0  0  1  0  0  3  0  0  0  0  0  0
  159.8770  202.0080  147.6280 C   0  0  0  0  0  2  0  0  0  0  0  0
  162.4490  205.8750  149.3710 C   0  0  0  0  0  0  0  0  0  0  0  0
  161.3190  203.8560  148.5810 C   0  0  0  0  0  0  0  0  0  0  0  0
  160.3540  201.1360  145.3540 C   0  0  0  0  0  0  0  0  0  0  0  0
  160.4920  199.8870  145.2610 O   0  0  0  0  0  1  0  0  0  0  0  0
  159.6840  201.8300  144.3550 O   0  0  0  0  0  0  0  0  0  0  0  0
  161.7270  214.0060  147.9990 C   0  0  0  0  0  2  0  0  0  0  0  0
  160.9250  214.2560  146.7320 C   0  0  0  0  0  2  0  0  0  0  0  0
  163.2350  213.8080  143.1480 C   0  0  0  0  0  3  0  0  0  0  0  0
  161.7510  213.9690  145.5260 C   0  0  0  0  0  0  0  0  0  0  0  0
  162.9950  214.3510  145.4790 N   0  0  0  0  0  0  0  0  0  0  0  0
  161.7390  213.7190  143.0510 C   0  0  0  0  0  2  0  0  0  0  0  0
  163.8030  214.1500  144.3070 C   0  0  0  0  0  3  0  0  0  0  0  0
  161.1420  213.2240  144.3690 C   0  0  0  0  0  2  0  0  0  0  0  0
  1  2  1  0  0  0  0
  2  3  1  0  0  0  0
  3  5  1  0  0  0  0
  4  5  1  0  0  0  0
  5  8  1  0  0  0  0
  6  5  1  0  0  0  0
  8 12  1  1  0  0  0
  8 13  1  0  0  0  0
  8 10  1  0  0  0  0
 10  9  1  6  0  0  0
 10 11  1  0  0  0  0
 11 17  1  0  0  0  0
 11  7  1  1  0  0  0
 13 14  1  1  0  0  0
 13 10  1  0  0  0  0
 13 11  1  0  0  0  0
 14 16  1  0  0  0  0
 15 14  2  0  0  0  0
 17 18  1  6  0  0  0
 17 19  1  0  0  0  0
 20 19  1  0  0  0  0
 21 22  1  0  0  0  0
 21  1  1  0  0  0  0
 22 23  1  0  0  0  0
 23 26  1  0  0  0  0
 24 26  2  0  0  0  0
 26 25  1  0  0  0  0
 27 38  2  0  0  0  0
 27 35  1  0  0  0  0
 28 30  1  0  0  0  0
 30 33  2  0  0  0  0
 31 32  2  0  0  0  0
 32 33  1  0  0  0  0
 34 31  1  0  0  0  0
 34 28  2  0  0  0  0
 35 43  2  0  0  0  0
 36 45  1  6  0  0  0
 36 42  1  0  0  0  0
 37 39  1  0  0  0  0
 38 44  1  0  0  0  0
 39 31  1  0  0  0  0
 40 36  1  0  0  0  0
 40 38  1  0  0  0  0
 41 25  1  6  0  0  0
 41 34  1  0  0  0  0
 42 29  1  0  0  0  0
 43 37  1  0  0  0  0
 43 41  1  0  0  0  0
 44 29  1  0  0  0  0
 44 37  2  0  0  0  0
 46 45  1  0  0  0  0
 47 45  2  0  0  0  0
 48  1  1  0  0  0  0
 49 48  1  0  0  0  0
 50 54  2  0  0  0  0
 51 49  1  0  0  0  0
 52 51  2  0  0  0  0
 53 50  1  0  0  0  0
 53 55  1  0  0  0  0
 54 52  1  0  0  0  0
 55 51  1  0  0  0  0
M  END
>  <MODEL>
6

>  <REMARK>
 VINA RESULT:      -3.1      1.659      2.121
  Name = 
  16 active torsions:
  status: ('A' for Active; 'I' for Inactive)
    1  A    between atoms: C_1  and  C_53
    2  A    between atoms: C_4  and  C_35
    3  A    between atoms: C_4  and  C_37
    4  A    between atoms: C_6  and  C_20
    5  A    between atoms: C_8  and  C_22
    6  A    between atoms: C_8  and  N_43
    7  A    between atoms: C_10  and  C_32
    8  A    between atoms: C_11  and  C_29
    9  A    between atoms: N_19  and  C_45
   10  A    between atoms: C_20  and  C_22
   11  A    between atoms: C_27  and  C_54
   12  A    between atoms: C_29  and  C_38
   13  A    between atoms: C_35  and  N_43
   14  A    between atoms: C_37  and  C_40
   15  A    between atoms: N_43  and  C_51
   16  A    between atoms: C_51  and  C_54
                            x       y       z     vdW  Elec       q    Type
                         _______ _______ _______ _____ _____    ______ ____

>  <TORSDO>
F 16

$$$$
=
 OpenBabel11062408443D

 55 61  0  0  1  0  0  0  0  0999 V2000
  159.8770  210.8470  153.8940 N   0  0  0  0  0  0  0  0  0  0  0  0
  159.7220  212.2140  153.4200 C   0  0  0  0  0  2  0  0  0  0  0  0
  160.2560  212.3400  151.9960 C   0  0  0  0  0  2  0  0  0  0  0  0
  158.2460  212.5810  150.7110 O   0  0  0  0  0  1  0  0  0  0  0  0
  159.4040  213.2550  151.1110 C   0  0  0  0  0  0  0  0  0  0  0  0
  159.0200  214.3590  151.8780 O   0  0  0  0  0  1  0  0  0  0  0  0
  160.7960  214.3690  146.7150 O   0  0  0  0  0  1  0  0  0  0  0  0
  160.1950  213.7080  149.8490 C   0  0  1  0  0  0  0  0  0  0  0  0
  158.0930  214.4050  148.9580 O   0  0  0  0  0  1  0  0  0  0  0  0
  159.4680  214.3560  148.6980 C   0  0  1  0  0  0  0  0  0  0  0  0
  159.7070  213.7510  147.3460 C   0  0  2  0  0  0  0  0  0  0  0  0
  161.5170  214.4490  150.0780 C   0  0  0  0  0  1  0  0  0  0  0  0
  159.9930  212.8640  148.5700 C   0  0  2  0  0  0  0  0  0  0  0  0
  161.3450  212.2020  148.2880 C   0  0  0  0  0  0  0  0  0  0  0  0
  161.4400  210.9450  148.2320 O   0  0  0  0  0  1  0  0  0  0  0  0
  162.4430  212.9620  147.8900 O   0  0  0  0  0  0  0  0  0  0  0  0
  158.5400  213.3470  146.4240 C   0  0  1  0  0  3  0  0  0  0  0  0
  158.1820  214.3750  145.5440 O   0  0  0  0  0  1  0  0  0  0  0  0
  158.8710  212.0800  145.6470 C   0  0  0  0  0  2  0  0  0  0  0  0
  159.1120  212.3900  144.3100 O   0  0  0  0  0  1  0  0  0  0  0  0
  161.2940  210.5110  153.8250 C   0  0  0  0  0  2  0  0  0  0  0  0
  161.4690  209.0180  154.0350 C   0  0  0  0  0  2  0  0  0  0  0  0
  160.5780  208.2470  153.0840 C   0  0  0  0  0  2  0  0  0  0  0  0
  162.5470  206.9200  152.8750 O   0  0  0  0  0  0  0  0  0  0  0  0
  160.7920  206.3690  151.4260 N   0  0  0  0  0  2  0  0  0  0  0  0
  161.3650  207.1330  152.4890 C   0  0  0  0  0  0  0  0  0  0  0  0
  161.5960  207.3870  147.4580 C   0  0  0  0  0  3  0  0  0  0  0  0
  160.5630  203.6450  152.2660 C   0  0  0  0  0  3  0  0  0  0  0  0
  161.4980  203.9520  145.7940 C   0  0  0  0  0  2  0  0  0  0  0  0
  160.1070  202.3570  152.5590 C   0  0  0  0  0  3  0  0  0  0  0  0
  161.0130  202.9750  149.9800 C   0  0  0  0  0  0  0  0  0  0  0  0
  160.5680  201.6830  150.2830 C   0  0  0  0  0  3  0  0  0  0  0  0
  160.1070  201.3760  151.5660 C   0  0  0  0  0  3  0  0  0  0  0  0
  161.0070  203.9740  150.9740 C   0  0  0  0  0  0  0  0  0  0  0  0
  161.5930  207.0420  148.8050 C   0  0  0  0  0  3  0  0  0  0  0  0
  161.8430  205.7110  144.0730 C   0  0  1  0  0  3  0  0  0  0  0  0
  161.4910  204.6870  148.2170 C   0  0  0  0  0  0  0  0  0  0  0  0
  161.5430  206.3990  146.4760 C   0  0  0  0  0  0  0  0  0  0  0  0
  161.5770  203.2370  148.6200 C   0  0  0  0  0  2  0  0  0  0  0  0
  161.4740  206.8360  145.0390 C   0  0  0  0  0  2  0  0  0  0  0  0
  161.5420  205.3610  150.6790 C   0  0  1  0  0  3  0  0  0  0  0  0
  161.0560  204.4550  144.4230 C   0  0  0  0  0  2  0  0  0  0  0  0
  161.5190  205.6980  149.2020 C   0  0  0  0  0  0  0  0  0  0  0  0
  161.4750  205.0340  146.8490 C   0  0  0  0  0  0  0  0  0  0  0  0
  161.5810  206.1210  142.6600 C   0  0  0  0  0  0  0  0  0  0  0  0
  160.8970  207.1480  142.4030 O   0  0  0  0  0  1  0  0  0  0  0  0
  162.0890  205.3550  141.6200 O   0  0  0  0  0  0  0  0  0  0  0  0
  159.5040  210.8570  155.2990 C   0  0  0  0  0  2  0  0  0  0  0  0
  159.2720  212.2870  155.7610 C   0  0  0  0  0  2  0  0  0  0  0  0
  155.1470  212.7280  156.8450 C   0  0  0  0  0  3  0  0  0  0  0  0
  157.8250  212.5210  156.0260 C   0  0  0  0  0  0  0  0  0  0  0  0
  157.4550  213.4010  156.9120 N   0  0  0  0  0  0  0  0  0  0  0  0
  155.5700  211.4760  156.1300 C   0  0  0  0  0  2  0  0  0  0  0  0
  156.0720  213.6070  157.2410 C   0  0  0  0  0  3  0  0  0  0  0  0
  156.7940  211.7440  155.2530 C   0  0  0  0  0  2  0  0  0  0  0  0
  1 48  1  0  0  0  0
  2  1  1  0  0  0  0
  3  2  1  0  0  0  0
  4  5  1  0  0  0  0
  5  6  1  0  0  0  0
  5  3  1  0  0  0  0
  8 12  1  1  0  0  0
  8  5  1  0  0  0  0
 10  9  1  1  0  0  0
 10  8  1  0  0  0  0
 11  7  1  6  0  0  0
 11 13  1  0  0  0  0
 11 10  1  0  0  0  0
 13 14  1  6  0  0  0
 13 10  1  0  0  0  0
 13  8  1  0  0  0  0
 15 14  1  0  0  0  0
 16 14  2  0  0  0  0
 17 18  1  6  0  0  0
 17 11  1  0  0  0  0
 19 17  1  0  0  0  0
 20 19  1  0  0  0  0
 21  1  1  0  0  0  0
 21 22  1  0  0  0  0
 23 22  1  0  0  0  0
 25 26  1  0  0  0  0
 26 24  2  0  0  0  0
 26 23  1  0  0  0  0
 27 35  1  0  0  0  0
 28 30  1  0  0  0  0
 29 44  1  0  0  0  0
 31 32  2  0  0  0  0
 31 34  1  0  0  0  0
 32 33  1  0  0  0  0
 33 30  2  0  0  0  0
 34 28  2  0  0  0  0
 35 43  2  0  0  0  0
 36 45  1  6  0  0  0
 36 42  1  0  0  0  0
 36 40  1  0  0  0  0
 37 39  1  0  0  0  0
 37 43  1  0  0  0  0
 38 44  1  0  0  0  0
 38 27  2  0  0  0  0
 39 31  1  0  0  0  0
 40 38  1  0  0  0  0
 41 34  1  0  0  0  0
 41 25  1  1  0  0  0
 42 29  1  0  0  0  0
 43 41  1  0  0  0  0
 44 37  2  0  0  0  0
 46 45  1  0  0  0  0
 47 45  2  0  0  0  0
 48 49  1  0  0  0  0
 49 51  1  0  0  0  0
 50 54  2  0  0  0  0
 51 52  2  0  0  0  0
 52 54  1  0  0  0  0
 53 50  1  0  0  0  0
 55 51  1  0  0  0  0
 55 53  1  0  0  0  0
M  END
>  <MODEL>
7

>  <REMARK>
 VINA RESULT:      -2.7      2.908      6.896
  Name = 
  16 active torsions:
  status: ('A' for Active; 'I' for Inactive)
    1  A    between atoms: C_1  and  C_53
    2  A    between atoms: C_4  and  C_35
    3  A    between atoms: C_4  and  C_37
    4  A    between atoms: C_6  and  C_20
    5  A    between atoms: C_8  and  C_22
    6  A    between atoms: C_8  and  N_43
    7  A    between atoms: C_10  and  C_32
    8  A    between atoms: C_11  and  C_29
    9  A    between atoms: N_19  and  C_45
   10  A    between atoms: C_20  and  C_22
   11  A    between atoms: C_27  and  C_54
   12  A    between atoms: C_29  and  C_38
   13  A    between atoms: C_35  and  N_43
   14  A    between atoms: C_37  and  C_40
   15  A    between atoms: N_43  and  C_51
   16  A    between atoms: C_51  and  C_54
                            x       y       z     vdW  Elec       q    Type
                         _______ _______ _______ _____ _____    ______ ____

>  <TORSDO>
F 16

$$$$
