=
 OpenBabel11062409473D

 34 39  0  0  1  0  0  0  0  0999 V2000
  159.8710  210.0800  156.5350 C   0  0  1  0  0  3  0  0  0  0  0  0
  157.8780  213.2600  155.5630 C   0  0  0  0  0  2  0  0  0  0  0  0
  159.9710  212.9050  157.0450 C   0  0  0  0  0  2  0  0  0  0  0  0
  160.5190  208.6420  154.6390 N   0  0  0  0  0  0  0  0  0  0  0  0
  159.8880  208.6590  155.9610 C   0  0  0  0  0  2  0  0  0  0  0  0
  162.0430  210.4800  155.2120 C   0  0  2  0  0  3  0  0  0  0  0  0
  161.5470  211.3620  154.1650 N   0  0  0  0  0  1  0  0  0  0  0  0
  161.9270  209.0260  154.7620 C   0  0  0  0  0  2  0  0  0  0  0  0
  161.2670  212.1440  156.9540 C   0  0  0  0  0  0  0  0  0  0  0  0
  161.2890  210.6920  156.5390 C   0  0  1  0  0  3  0  0  0  0  0  0
  162.3090  212.7010  157.2610 O   0  0  0  0  0  0  0  0  0  0  0  0
  157.9280  213.3820  154.0310 C   0  0  0  0  0  2  0  0  0  0  0  0
  158.5630  212.1880  153.2970 C   0  0  1  0  0  3  0  0  0  0  0  0
  157.8160  210.8690  153.5610 C   0  0  0  0  0  2  0  0  0  0  0  0
  158.9150  212.3290  156.1350 C   0  0  0  0  0  0  0  0  0  0  0  0
  157.7360  210.4460  155.0350 C   0  0  0  0  0  2  0  0  0  0  0  0
  158.8520  210.9990  155.8920 C   0  0  0  0  0  0  0  0  0  0  0  0
  158.6760  212.4620  151.7930 C   0  0  0  0  0  3  0  0  0  0  0  0
  157.6680  213.5110  151.3550 C   0  0  0  0  0  1  0  0  0  0  0  0
  160.0630  212.9690  151.4360 C   0  0  0  0  0  1  0  0  0  0  0  0
  160.4090  207.3050  154.0420 C   0  0  0  0  0  2  0  0  0  0  0  0
  161.2460  208.3940  150.5390 N   0  0  0  0  0  0  0  0  0  0  0  0
  160.7720  206.0700  151.9160 N   0  0  0  0  0  0  0  0  0  0  0  0
  161.6080  205.9330  147.8410 C   0  0  0  0  0  0  0  0  0  0  0  0
  161.5750  207.1640  148.5130 C   0  0  0  0  0  3  0  0  0  0  0  0
  161.2900  207.2080  149.8790 C   0  0  0  0  0  0  0  0  0  0  0  0
  161.0970  204.7850  149.9240 C   0  0  0  0  0  3  0  0  0  0  0  0
  161.0480  206.0130  150.5870 C   0  0  0  0  0  0  0  0  0  0  0  0
  161.3820  204.7460  148.5550 C   0  0  0  0  0  3  0  0  0  0  0  0
  160.7250  207.2610  152.5720 C   0  0  0  0  0  0  0  0  0  0  0  0
  160.9690  208.4460  151.8690 C   0  0  0  0  0  3  0  0  0  0  0  0
  161.9570  205.8780  146.3850 C   0  0  1  0  0  3  0  0  0  0  0  0
  161.2390  204.7920  145.7200 C   0  0  0  0  0  2  0  0  0  0  0  0
  160.7650  206.1730  145.5720 N   0  0  0  0  0  2  0  0  0  0  0  0
  1  5  1  6  0  0  0
  1 10  1  0  0  0  0
  2 15  1  0  0  0  0
  4  8  1  0  0  0  0
  4  5  1  0  0  0  0
  6  7  1  6  0  0  0
  6 10  1  0  0  0  0
  8  6  1  0  0  0  0
  9  3  1  0  0  0  0
  9 11  2  0  0  0  0
 10  9  1  6  0  0  0
 12  2  1  0  0  0  0
 13 18  1  6  0  0  0
 13 14  1  0  0  0  0
 13 12  1  0  0  0  0
 14 16  1  0  0  0  0
 15  3  1  0  0  0  0
 16 17  1  0  0  0  0
 17 15  2  0  0  0  0
 17  1  1  0  0  0  0
 19 18  1  0  0  0  0
 20 18  1  0  0  0  0
 21  4  1  0  0  0  0
 22 31  1  0  0  0  0
 23 30  1  0  0  0  0
 24 25  2  0  0  0  0
 24 29  1  0  0  0  0
 25 26  1  0  0  0  0
 26 22  2  0  0  0  0
 26 28  1  0  0  0  0
 27 28  1  0  0  0  0
 28 23  2  0  0  0  0
 29 27  2  0  0  0  0
 30 21  1  0  0  0  0
 31 30  2  0  0  0  0
 32 24  1  1  0  0  0
 33 32  1  0  0  0  0
 34 33  1  0  0  0  0
 34 32  1  0  0  0  0
M  END
>  <MODEL>
1

>  <REMARK>
 VINA RESULT:      -5.4      0.000      0.000
  Name = 
  4 active torsions:
  status: ('A' for Active; 'I' for Inactive)
    1  A    between atoms: C_3  and  C_25
    2  A    between atoms: C_7  and  C_11
    3  A    between atoms: N_8  and  C_18
    4  A    between atoms: C_18  and  C_30
                            x       y       z     vdW  Elec       q    Type
                         _______ _______ _______ _____ _____    ______ ____

>  <TORSDO>
F 4

$$$$
=
 OpenBabel11062409473D

 34 39  0  0  1  0  0  0  0  0999 V2000
  160.6710  212.2050  154.2180 C   0  0  1  0  0  3  0  0  0  0  0  0
  157.8880  214.1060  156.1330 C   0  0  0  0  0  2  0  0  0  0  0  0
  158.8970  214.4190  153.7700 C   0  0  0  0  0  2  0  0  0  0  0  0
  160.4170  209.7530  154.1830 N   0  0  0  0  0  0  0  0  0  0  0  0
  161.3470  210.8500  154.4580 C   0  0  0  0  0  2  0  0  0  0  0  0
  159.2600  211.0150  152.4240 C   0  0  2  0  0  3  0  0  0  0  0  0
  157.9690  210.9780  153.0950 N   0  0  0  0  0  1  0  0  0  0  0  0
  160.0570  209.7580  152.7630 C   0  0  0  0  0  2  0  0  0  0  0  0
  159.2590  213.5400  152.6030 C   0  0  0  0  0  0  0  0  0  0  0  0
  160.0620  212.2760  152.8010 C   0  0  1  0  0  3  0  0  0  0  0  0
  158.9320  213.8780  151.4770 O   0  0  0  0  0  0  0  0  0  0  0  0
  156.7800  213.0900  156.4600 C   0  0  0  0  0  2  0  0  0  0  0  0
  157.1130  211.6250  156.1260 C   0  0  1  0  0  3  0  0  0  0  0  0
  158.3500  211.1140  156.8850 C   0  0  0  0  0  2  0  0  0  0  0  0
  158.8420  213.6450  155.0630 C   0  0  0  0  0  0  0  0  0  0  0  0
  159.6460  211.8960  156.6250 C   0  0  0  0  0  2  0  0  0  0  0  0
  159.6760  212.6040  155.2900 C   0  0  0  0  0  0  0  0  0  0  0  0
  155.9040  210.7150  156.3730 C   0  0  0  0  0  3  0  0  0  0  0  0
  154.8790  211.4020  157.2590 C   0  0  0  0  0  1  0  0  0  0  0  0
  155.2220  210.3500  155.0650 C   0  0  0  0  0  1  0  0  0  0  0  0
  161.0290  208.4670  154.5450 C   0  0  0  0  0  2  0  0  0  0  0  0
  161.1890  205.2120  152.6650 N   0  0  0  0  0  0  0  0  0  0  0  0
  161.0680  207.8990  152.1260 N   0  0  0  0  0  0  0  0  0  0  0  0
  161.2400  205.1600  148.9960 C   0  0  0  0  0  0  0  0  0  0  0  0
  161.2360  204.7120  150.3250 C   0  0  0  0  0  3  0  0  0  0  0  0
  161.1830  205.6330  151.3740 C   0  0  0  0  0  0  0  0  0  0  0  0
  161.1050  207.4610  149.7740 C   0  0  0  0  0  3  0  0  0  0  0  0
  161.1190  207.0140  151.0970 C   0  0  0  0  0  0  0  0  0  0  0  0
  161.1600  206.5360  148.7270 C   0  0  0  0  0  3  0  0  0  0  0  0
  161.0780  207.4720  153.4190 C   0  0  0  0  0  0  0  0  0  0  0  0
  161.1380  206.1020  153.6920 C   0  0  0  0  0  3  0  0  0  0  0  0
  161.2520  204.1740  147.8680 C   0  0  1  0  0  3  0  0  0  0  0  0
  161.2760  204.8630  146.5780 C   0  0  0  0  0  2  0  0  0  0  0  0
  162.5140  204.2870  147.1170 N   0  0  0  0  0  2  0  0  0  0  0  0
  1  5  1  1  0  0  0
  1 17  1  0  0  0  0
  2 12  1  0  0  0  0
  3 15  1  0  0  0  0
  4  5  1  0  0  0  0
  4 21  1  0  0  0  0
  6  8  1  0  0  0  0
  6 10  1  0  0  0  0
  6  7  1  1  0  0  0
  8  4  1  0  0  0  0
  9  3  1  0  0  0  0
 10  9  1  1  0  0  0
 10  1  1  0  0  0  0
 11  9  2  0  0  0  0
 13 18  1  1  0  0  0
 13 12  1  0  0  0  0
 13 14  1  0  0  0  0
 15 17  2  0  0  0  0
 15  2  1  0  0  0  0
 16 14  1  0  0  0  0
 17 16  1  0  0  0  0
 18 19  1  0  0  0  0
 20 18  1  0  0  0  0
 22 31  1  0  0  0  0
 23 30  1  0  0  0  0
 24 25  2  0  0  0  0
 25 26  1  0  0  0  0
 26 22  2  0  0  0  0
 27 28  1  0  0  0  0
 28 26  1  0  0  0  0
 28 23  2  0  0  0  0
 29 24  1  0  0  0  0
 29 27  2  0  0  0  0
 30 31  2  0  0  0  0
 30 21  1  0  0  0  0
 32 24  1  1  0  0  0
 33 34  1  0  0  0  0
 33 32  1  0  0  0  0
 34 32  1  0  0  0  0
M  END
>  <MODEL>
2

>  <REMARK>
 VINA RESULT:      -5.1      2.027      3.442
  Name = 
  4 active torsions:
  status: ('A' for Active; 'I' for Inactive)
    1  A    between atoms: C_3  and  C_25
    2  A    between atoms: C_7  and  C_11
    3  A    between atoms: N_8  and  C_18
    4  A    between atoms: C_18  and  C_30
                            x       y       z     vdW  Elec       q    Type
                         _______ _______ _______ _____ _____    ______ ____

>  <TORSDO>
F 4

$$$$
=
 OpenBabel11062409473D

 34 39  0  0  1  0  0  0  0  0999 V2000
  159.4520  210.3900  156.1740 C   0  0  1  0  0  3  0  0  0  0  0  0
  158.9140  212.9880  153.3480 C   0  0  0  0  0  2  0  0  0  0  0  0
  159.8450  213.2030  155.7540 C   0  0  0  0  0  2  0  0  0  0  0  0
  160.6670  208.3540  155.4940 N   0  0  0  0  0  0  0  0  0  0  0  0
  159.4720  208.8560  156.1750 C   0  0  0  0  0  2  0  0  0  0  0  0
  162.0240  210.2740  156.2040 C   0  0  2  0  0  3  0  0  0  0  0  0
  162.3160  210.7080  154.8460 N   0  0  0  0  0  1  0  0  0  0  0  0
  161.8630  208.7570  156.2400 C   0  0  0  0  0  2  0  0  0  0  0  0
  160.8240  212.4620  156.6250 C   0  0  0  0  0  0  0  0  0  0  0  0
  160.7610  210.9600  156.7620 C   0  0  1  0  0  3  0  0  0  0  0  0
  161.6530  213.0930  157.2610 O   0  0  0  0  0  0  0  0  0  0  0  0
  159.7570  212.5370  152.1440 C   0  0  0  0  0  2  0  0  0  0  0  0
  160.4220  211.1560  152.2870 C   0  0  1  0  0  3  0  0  0  0  0  0
  159.3970  210.0270  152.4920 C   0  0  0  0  0  2  0  0  0  0  0  0
  159.3050  212.3330  154.6460 C   0  0  0  0  0  0  0  0  0  0  0  0
  158.4970  210.1770  153.7280 C   0  0  0  0  0  2  0  0  0  0  0  0
  159.1090  211.0070  154.8330 C   0  0  0  0  0  0  0  0  0  0  0  0
  161.3340  210.8580  151.0920 C   0  0  0  0  0  3  0  0  0  0  0  0
  161.4980  212.0850  150.2130 C   0  0  0  0  0  1  0  0  0  0  0  0
  162.7160  210.4280  151.5570 C   0  0  0  0  0  1  0  0  0  0  0  0
  160.6100  206.8910  155.3820 C   0  0  0  0  0  2  0  0  0  0  0  0
  161.0090  204.5450  152.4680 N   0  0  0  0  0  0  0  0  0  0  0  0
  160.8960  207.2440  152.9390 N   0  0  0  0  0  0  0  0  0  0  0  0
  161.4210  205.8360  149.0570 C   0  0  0  0  0  0  0  0  0  0  0  0
  161.2950  204.9330  150.1240 C   0  0  0  0  0  3  0  0  0  0  0  0
  161.1230  205.4080  151.4260 C   0  0  0  0  0  0  0  0  0  0  0  0
  161.1720  207.6950  150.6050 C   0  0  0  0  0  3  0  0  0  0  0  0
  161.0630  206.7960  151.6680 C   0  0  0  0  0  0  0  0  0  0  0  0
  161.3450  207.2150  149.3030 C   0  0  0  0  0  3  0  0  0  0  0  0
  160.7860  206.3750  153.9800 C   0  0  0  0  0  0  0  0  0  0  0  0
  160.8420  204.9990  153.7380 C   0  0  0  0  0  3  0  0  0  0  0  0
  161.5610  205.3300  147.6540 C   0  0  1  0  0  3  0  0  0  0  0  0
  160.8570  206.2030  146.7160 C   0  0  0  0  0  2  0  0  0  0  0  0
  162.3160  206.3000  146.8440 N   0  0  0  0  0  2  0  0  0  0  0  0
  1  5  1  6  0  0  0
  1 10  1  0  0  0  0
  2 15  1  0  0  0  0
  3  9  1  0  0  0  0
  4  5  1  0  0  0  0
  4  8  1  0  0  0  0
  6  7  1  6  0  0  0
  6  8  1  0  0  0  0
  6 10  1  0  0  0  0
  9 11  2  0  0  0  0
 10  9  1  6  0  0  0
 12 13  1  0  0  0  0
 12  2  1  0  0  0  0
 13 18  1  6  0  0  0
 13 14  1  0  0  0  0
 14 16  1  0  0  0  0
 15 17  2  0  0  0  0
 15  3  1  0  0  0  0
 16 17  1  0  0  0  0
 17  1  1  0  0  0  0
 18 20  1  0  0  0  0
 19 18  1  0  0  0  0
 21  4  1  0  0  0  0
 22 31  1  0  0  0  0
 23 30  1  0  0  0  0
 24 29  1  0  0  0  0
 24 25  2  0  0  0  0
 25 26  1  0  0  0  0
 26 28  1  0  0  0  0
 26 22  2  0  0  0  0
 27 28  1  0  0  0  0
 28 23  2  0  0  0  0
 29 27  2  0  0  0  0
 30 21  1  0  0  0  0
 31 30  2  0  0  0  0
 32 24  1  1  0  0  0
 33 34  1  0  0  0  0
 33 32  1  0  0  0  0
 34 32  1  0  0  0  0
M  END
>  <MODEL>
3

>  <REMARK>
 VINA RESULT:      -4.3      1.392      2.191
  Name = 
  4 active torsions:
  status: ('A' for Active; 'I' for Inactive)
    1  A    between atoms: C_3  and  C_25
    2  A    between atoms: C_7  and  C_11
    3  A    between atoms: N_8  and  C_18
    4  A    between atoms: C_18  and  C_30
                            x       y       z     vdW  Elec       q    Type
                         _______ _______ _______ _____ _____    ______ ____

>  <TORSDO>
F 4

$$$$
=
 OpenBabel11062409473D

 34 39  0  0  1  0  0  0  0  0999 V2000
  161.3200  211.9170  153.6890 C   0  0  1  0  0  3  0  0  0  0  0  0
  160.1800  210.9290  157.2600 C   0  0  0  0  0  2  0  0  0  0  0  0
  159.2580  212.6420  155.5530 C   0  0  0  0  0  2  0  0  0  0  0  0
  161.6710  210.0220  152.1510 N   0  0  0  0  0  0  0  0  0  0  0  0
  162.2680  211.2470  152.6880 C   0  0  0  0  0  2  0  0  0  0  0  0
  159.3920  210.9230  152.3030 C   0  0  2  0  0  3  0  0  0  0  0  0
  158.9270  209.8880  153.2150 N   0  0  0  0  0  1  0  0  0  0  0  0
  160.4700  210.3560  151.3830 C   0  0  0  0  0  2  0  0  0  0  0  0
  158.9400  212.6660  154.0810 C   0  0  0  0  0  0  0  0  0  0  0  0
  159.9290  212.1520  153.0630 C   0  0  1  0  0  3  0  0  0  0  0  0
  157.8820  213.1470  153.7070 O   0  0  0  0  0  0  0  0  0  0  0  0
  159.8380  209.4300  157.2340 C   0  0  0  0  0  2  0  0  0  0  0  0
  160.1850  208.6990  155.9250 C   0  0  1  0  0  3  0  0  0  0  0  0
  161.6860  208.7650  155.5930 C   0  0  0  0  0  2  0  0  0  0  0  0
  160.2530  211.5620  155.8960 C   0  0  0  0  0  0  0  0  0  0  0  0
  162.2600  210.1810  155.4340 C   0  0  0  0  0  2  0  0  0  0  0  0
  161.2340  211.2150  155.0300 C   0  0  0  0  0  0  0  0  0  0  0  0
  159.6940  207.2480  155.9570 C   0  0  0  0  0  3  0  0  0  0  0  0
  160.2940  206.4460  154.8150 C   0  0  0  0  0  1  0  0  0  0  0  0
  160.0840  206.5710  157.2600 C   0  0  0  0  0  1  0  0  0  0  0  0
  162.6380  209.3180  151.2980 C   0  0  0  0  0  2  0  0  0  0  0  0
  161.4370  206.6410  148.9440 N   0  0  0  0  0  0  0  0  0  0  0  0
  161.9450  206.9540  151.6210 N   0  0  0  0  0  0  0  0  0  0  0  0
  160.5480  203.3050  150.1860 C   0  0  0  0  0  0  0  0  0  0  0  0
  160.7660  204.3720  149.3030 C   0  0  0  0  0  3  0  0  0  0  0  0
  161.2310  205.5970  149.7870 C   0  0  0  0  0  0  0  0  0  0  0  0
  161.2930  204.6900  152.0410 C   0  0  0  0  0  3  0  0  0  0  0  0
  161.4930  205.7570  151.1630 C   0  0  0  0  0  0  0  0  0  0  0  0
  160.8270  203.4660  151.5520 C   0  0  0  0  0  3  0  0  0  0  0  0
  162.1460  207.9990  150.7720 C   0  0  0  0  0  0  0  0  0  0  0  0
  161.8880  207.8370  149.4060 C   0  0  0  0  0  3  0  0  0  0  0  0
  160.0930  201.9760  149.6650 C   0  0  1  0  0  3  0  0  0  0  0  0
  160.8910  201.5730  148.5080 C   0  0  0  0  0  2  0  0  0  0  0  0
  161.1680  200.9810  149.8220 N   0  0  0  0  0  2  0  0  0  0  0  0
  1  5  1  6  0  0  0
  1 17  1  0  0  0  0
  3 15  1  0  0  0  0
  4  5  1  0  0  0  0
  6 10  1  0  0  0  0
  6  7  1  1  0  0  0
  8  4  1  0  0  0  0
  8  6  1  0  0  0  0
  9  3  1  0  0  0  0
 10  1  1  0  0  0  0
 10  9  1  1  0  0  0
 11  9  2  0  0  0  0
 12  2  1  0  0  0  0
 13 18  1  1  0  0  0
 13 12  1  0  0  0  0
 14 13  1  0  0  0  0
 15  2  1  0  0  0  0
 16 14  1  0  0  0  0
 17 16  1  0  0  0  0
 17 15  2  0  0  0  0
 18 20  1  0  0  0  0
 19 18  1  0  0  0  0
 21  4  1  0  0  0  0
 22 31  2  0  0  0  0
 22 26  1  0  0  0  0
 24 29  1  0  0  0  0
 25 26  1  0  0  0  0
 25 24  2  0  0  0  0
 26 28  2  0  0  0  0
 28 23  1  0  0  0  0
 28 27  1  0  0  0  0
 29 27  2  0  0  0  0
 30 21  1  0  0  0  0
 30 23  2  0  0  0  0
 31 30  1  0  0  0  0
 32 34  1  0  0  0  0
 32 24  1  1  0  0  0
 33 32  1  0  0  0  0
 33 34  1  0  0  0  0
M  END
>  <MODEL>
4

>  <REMARK>
 VINA RESULT:      -3.6      2.172      4.308
  Name = 
  4 active torsions:
  status: ('A' for Active; 'I' for Inactive)
    1  A    between atoms: C_3  and  C_25
    2  A    between atoms: C_7  and  C_11
    3  A    between atoms: N_8  and  C_18
    4  A    between atoms: C_18  and  C_30
                            x       y       z     vdW  Elec       q    Type
                         _______ _______ _______ _____ _____    ______ ____

>  <TORSDO>
F 4

$$$$
=
 OpenBabel11062409473D

 34 39  0  0  1  0  0  0  0  0999 V2000
  158.8430  212.9020  155.1650 C   0  0  1  0  0  3  0  0  0  0  0  0
  160.2210  209.4120  156.1400 C   0  0  0  0  0  2  0  0  0  0  0  0
  157.9410  210.5620  156.5640 C   0  0  0  0  0  2  0  0  0  0  0  0
  159.1140  213.4960  152.7870 N   0  0  0  0  0  0  0  0  0  0  0  0
  159.3250  213.9560  154.1610 C   0  0  0  0  0  2  0  0  0  0  0  0
  157.1020  212.2260  153.3930 C   0  0  2  0  0  3  0  0  0  0  0  0
  157.6500  210.9460  152.9690 N   0  0  0  0  0  1  0  0  0  0  0  0
  157.6790  213.3470  152.5330 C   0  0  0  0  0  2  0  0  0  0  0  0
  156.9400  211.3510  155.7620 C   0  0  0  0  0  0  0  0  0  0  0  0
  157.3790  212.4990  154.8850 C   0  0  1  0  0  3  0  0  0  0  0  0
  155.7540  211.0830  155.8570 O   0  0  0  0  0  0  0  0  0  0  0  0
  160.5770  208.6790  154.8370 C   0  0  0  0  0  2  0  0  0  0  0  0
  160.4750  209.5270  153.5560 C   0  0  1  0  0  3  0  0  0  0  0  0
  161.4070  210.7510  153.5850 C   0  0  0  0  0  2  0  0  0  0  0  0
  159.3150  210.5990  155.9450 C   0  0  0  0  0  0  0  0  0  0  0  0
  161.1650  211.7310  154.7430 C   0  0  0  0  0  2  0  0  0  0  0  0
  159.7550  211.6980  155.2880 C   0  0  0  0  0  0  0  0  0  0  0  0
  160.7290  208.6740  152.3090 C   0  0  0  0  0  3  0  0  0  0  0  0
  161.8450  209.2650  151.4640 C   0  0  0  0  0  1  0  0  0  0  0  0
  161.1300  207.2590  152.6900 C   0  0  0  0  0  1  0  0  0  0  0  0
  159.7000  214.4510  151.8370 C   0  0  0  0  0  2  0  0  0  0  0  0
  161.0570  212.4700  148.9420 N   0  0  0  0  0  0  0  0  0  0  0  0
  159.0930  214.3210  149.4310 N   0  0  0  0  0  0  0  0  0  0  0  0
  159.6310  212.8350  145.5800 C   0  0  0  0  0  0  0  0  0  0  0  0
  160.4460  212.3860  146.6290 C   0  0  0  0  0  3  0  0  0  0  0  0
  160.2670  212.8890  147.9190 C   0  0  0  0  0  0  0  0  0  0  0  0
  158.4330  214.2750  147.1320 C   0  0  0  0  0  3  0  0  0  0  0  0
  159.2570  213.8400  148.1710 C   0  0  0  0  0  0  0  0  0  0  0  0
  158.6160  213.7690  145.8410 C   0  0  0  0  0  3  0  0  0  0  0  0
  159.8900  213.9010  150.4510 C   0  0  0  0  0  0  0  0  0  0  0  0
  160.8900  212.9550  150.2000 C   0  0  0  0  0  3  0  0  0  0  0  0
  159.7900  212.2640  144.2040 C   0  0  1  0  0  3  0  0  0  0  0  0
  159.3170  213.2090  143.1930 C   0  0  0  0  0  2  0  0  0  0  0  0
  160.7570  213.0670  143.4370 N   0  0  0  0  0  2  0  0  0  0  0  0
  1  5  1  6  0  0  0
  1 17  1  0  0  0  0
  4  5  1  0  0  0  0
  6  7  1  6  0  0  0
  6 10  1  0  0  0  0
  8  4  1  0  0  0  0
  8  6  1  0  0  0  0
  9 11  2  0  0  0  0
  9  3  1  0  0  0  0
 10  1  1  0  0  0  0
 10  9  1  1  0  0  0
 12  2  1  0  0  0  0
 13 18  1  6  0  0  0
 13 14  1  0  0  0  0
 13 12  1  0  0  0  0
 14 16  1  0  0  0  0
 15  2  1  0  0  0  0
 15  3  1  0  0  0  0
 16 17  1  0  0  0  0
 17 15  2  0  0  0  0
 18 20  1  0  0  0  0
 19 18  1  0  0  0  0
 21  4  1  0  0  0  0
 22 31  1  0  0  0  0
 23 30  1  0  0  0  0
 24 29  1  0  0  0  0
 24 25  2  0  0  0  0
 25 26  1  0  0  0  0
 26 28  1  0  0  0  0
 26 22  2  0  0  0  0
 27 28  1  0  0  0  0
 28 23  2  0  0  0  0
 29 27  2  0  0  0  0
 30 21  1  0  0  0  0
 31 30  2  0  0  0  0
 32 24  1  1  0  0  0
 33 34  1  0  0  0  0
 33 32  1  0  0  0  0
 34 32  1  0  0  0  0
M  END
>  <MODEL>
5

>  <REMARK>
 VINA RESULT:      -3.5      3.712      6.059
  Name = 
  4 active torsions:
  status: ('A' for Active; 'I' for Inactive)
    1  A    between atoms: C_3  and  C_25
    2  A    between atoms: C_7  and  C_11
    3  A    between atoms: N_8  and  C_18
    4  A    between atoms: C_18  and  C_30
                            x       y       z     vdW  Elec       q    Type
                         _______ _______ _______ _____ _____    ______ ____

>  <TORSDO>
F 4

$$$$
=
 OpenBabel11062409473D

 34 39  0  0  1  0  0  0  0  0999 V2000
  160.6410  212.2550  153.6060 C   0  0  1  0  0  3  0  0  0  0  0  0
  160.0960  211.0820  157.2610 C   0  0  0  0  0  2  0  0  0  0  0  0
  158.8040  212.7480  155.7580 C   0  0  0  0  0  2  0  0  0  0  0  0
  160.9340  210.4360  151.9670 N   0  0  0  0  0  0  0  0  0  0  0  0
  161.4940  211.6960  152.4610 C   0  0  0  0  0  2  0  0  0  0  0  0
  158.6300  211.1270  152.4600 C   0  0  2  0  0  3  0  0  0  0  0  0
  158.3860  210.0330  153.3890 N   0  0  0  0  0  1  0  0  0  0  0  0
  159.6130  210.6820  151.3810 C   0  0  0  0  0  2  0  0  0  0  0  0
  158.2830  212.7800  154.3460 C   0  0  0  0  0  0  0  0  0  0  0  0
  159.1610  212.3800  153.1840 C   0  0  1  0  0  3  0  0  0  0  0  0
  157.1470  213.1740  154.1370 O   0  0  0  0  0  0  0  0  0  0  0  0
  159.8820  209.5600  157.2270 C   0  0  0  0  0  2  0  0  0  0  0  0
  160.1040  208.8950  155.8570 C   0  0  1  0  0  3  0  0  0  0  0  0
  161.5330  209.1020  155.3260 C   0  0  0  0  0  2  0  0  0  0  0  0
  159.9250  211.7520  155.9230 C   0  0  0  0  0  0  0  0  0  0  0  0
  161.9570  210.5670  155.1420 C   0  0  0  0  0  2  0  0  0  0  0  0
  160.8020  211.5150  154.9190 C   0  0  0  0  0  0  0  0  0  0  0  0
  159.7470  207.4060  155.9020 C   0  0  0  0  0  3  0  0  0  0  0  0
  160.5200  206.6290  154.8500 C   0  0  0  0  0  1  0  0  0  0  0  0
  160.0760  206.8090  157.2610 C   0  0  0  0  0  1  0  0  0  0  0  0
  161.8290  209.8420  150.9640 C   0  0  0  0  0  2  0  0  0  0  0  0
  161.2800  206.1940  151.7020 N   0  0  0  0  0  0  0  0  0  0  0  0
  161.6790  207.8200  149.5290 N   0  0  0  0  0  0  0  0  0  0  0  0
  161.2060  203.7190  148.9930 C   0  0  0  0  0  0  0  0  0  0  0  0
  161.1550  204.2730  150.2820 C   0  0  0  0  0  3  0  0  0  0  0  0
  161.3180  205.6480  150.4590 C   0  0  0  0  0  0  0  0  0  0  0  0
  161.5560  205.9370  148.0580 C   0  0  0  0  0  3  0  0  0  0  0  0
  161.5220  206.4840  149.3420 C   0  0  0  0  0  0  0  0  0  0  0  0
  161.3930  204.5590  147.8840 C   0  0  0  0  0  3  0  0  0  0  0  0
  161.6440  208.3620  150.7770 C   0  0  0  0  0  0  0  0  0  0  0  0
  161.4390  207.5320  151.8840 C   0  0  0  0  0  3  0  0  0  0  0  0
  160.9860  202.2510  148.7950 C   0  0  1  0  0  3  0  0  0  0  0  0
  160.8080  201.5750  150.0790 C   0  0  0  0  0  2  0  0  0  0  0  0
  159.6360  201.8800  149.2510 N   0  0  0  0  0  2  0  0  0  0  0  0
  1  5  1  6  0  0  0
  1 17  1  0  0  0  0
  3 15  1  0  0  0  0
  4  5  1  0  0  0  0
  6 10  1  0  0  0  0
  6  7  1  1  0  0  0
  8  4  1  0  0  0  0
  8  6  1  0  0  0  0
  9  3  1  0  0  0  0
 10  1  1  0  0  0  0
 10  9  1  1  0  0  0
 11  9  2  0  0  0  0
 12  2  1  0  0  0  0
 13 18  1  1  0  0  0
 13 12  1  0  0  0  0
 14 13  1  0  0  0  0
 15  2  1  0  0  0  0
 16 14  1  0  0  0  0
 17 16  1  0  0  0  0
 17 15  2  0  0  0  0
 18 20  1  0  0  0  0
 19 18  1  0  0  0  0
 21  4  1  0  0  0  0
 22 31  1  0  0  0  0
 23 30  1  0  0  0  0
 24 25  2  0  0  0  0
 25 26  1  0  0  0  0
 26 22  2  0  0  0  0
 27 28  1  0  0  0  0
 28 23  2  0  0  0  0
 28 26  1  0  0  0  0
 29 27  2  0  0  0  0
 29 24  1  0  0  0  0
 30 21  1  0  0  0  0
 30 31  2  0  0  0  0
 32 24  1  1  0  0  0
 32 34  1  0  0  0  0
 32 33  1  0  0  0  0
 34 33  1  0  0  0  0
M  END
>  <MODEL>
6

>  <REMARK>
 VINA RESULT:      -3.3      2.002      4.249
  Name = 
  4 active torsions:
  status: ('A' for Active; 'I' for Inactive)
    1  A    between atoms: C_3  and  C_25
    2  A    between atoms: C_7  and  C_11
    3  A    between atoms: N_8  and  C_18
    4  A    between atoms: C_18  and  C_30
                            x       y       z     vdW  Elec       q    Type
                         _______ _______ _______ _____ _____    ______ ____

>  <TORSDO>
F 4

$$$$
