=
 OpenBabel11052422373D

 31 33  0  0  1  0  0  0  0  0999 V2000
  160.4240  207.1130  155.2030 C   0  0  0  0  0  0  0  0  0  0  0  0
  161.3000  205.9400  153.0410 C   0  0  0  0  0  0  0  0  0  0  0  0
  159.0050  206.9550  155.6150 C   0  0  0  0  0  1  0  0  0  0  0  0
  160.8580  206.5270  154.1240 C   0  0  0  0  0  0  0  0  0  0  0  0
  162.0590  206.7230  152.0330 C   0  0  0  0  0  0  0  0  0  0  0  0
  163.3210  206.6930  152.0450 O   0  0  0  0  0  0  0  0  0  0  0  0
  161.3940  207.5590  150.9750 C   0  0  2  0  0  3  0  0  0  0  0  0
  161.4880  208.2570  148.5640 C   0  0  0  0  0  2  0  0  0  0  0  0
  161.8510  207.1720  149.5640 C   0  0  0  0  0  2  0  0  0  0  0  0
  162.1560  209.5460  149.0170 C   0  0  0  0  0  2  0  0  0  0  0  0
  161.7220  209.9120  150.3500 N   0  0  0  0  0  0  0  0  0  0  0  0
  161.4460  209.0480  151.2740 C   0  0  0  0  0  0  0  0  0  0  0  0
  159.8290  210.3280  152.4510 O   0  0  0  0  0  1  0  0  0  0  0  0
  162.0440  210.3200  153.3200 C   0  0  0  0  0  1  0  0  0  0  0  0
  160.9630  209.5320  152.6080 C   0  0  2  0  0  3  0  0  0  0  0  0
  161.3220  207.8970  156.0030 C   0  0  0  0  0  0  0  0  0  0  0  0
  162.0720  208.5560  156.6780 C   0  0  0  0  0  3  0  0  0  0  0  0
  160.8780  204.5240  152.7990 C   0  0  0  0  0  2  0  0  0  0  0  0
  161.6430  203.8880  151.6450 C   0  0  0  0  0  2  0  0  0  0  0  0
  161.1170  202.4970  151.3390 C   0  0  0  0  0  2  0  0  0  0  0  0
  160.3670  202.4920  150.0190 C   0  0  0  0  0  2  0  0  0  0  0  0
  161.5360  204.2780  145.1900 C   0  0  1  0  0  3  0  0  0  0  0  0
  161.8120  204.2750  147.7080 C   0  0  0  0  0  2  0  0  0  0  0  0
  160.9320  200.8700  146.8840 C   0  0  0  0  0  2  0  0  0  0  0  0
  161.1140  200.7780  148.3890 C   0  0  0  0  0  2  0  0  0  0  0  0
  160.9620  204.9720  144.1270 O   0  0  0  0  0  1  0  0  0  0  0  0
  161.3190  202.2150  148.8680 C   0  0  1  0  0  3  0  0  0  0  0  0
  161.4070  205.1060  146.4830 C   0  0  0  0  0  2  0  0  0  0  0  0
  161.4060  202.2660  146.5960 C   0  0  2  0  0  3  0  0  0  0  0  0
  160.9970  203.0660  147.7320 N   0  0  2  0  0  0  0  0  0  0  0  0
  160.8790  202.8980  145.3200 C   0  0  0  0  0  2  0  0  0  0  0  0
  1  3  1  0  0  0  0
  1 16  1  0  0  0  0
  2  4  2  0  0  0  0
  4  1  2  0  0  0  0
  5  6  2  0  0  0  0
  5  2  1  0  0  0  0
  7 12  1  0  0  0  0
  7  5  1  1  0  0  0
  8 10  1  0  0  0  0
  8  9  1  0  0  0  0
  9  7  1  0  0  0  0
 10 11  1  0  0  0  0
 11 12  2  0  0  0  0
 12 15  1  0  0  0  0
 13 15  1  0  0  0  0
 15 14  1  6  0  0  0
 16 17  3  0  0  0  0
 18  2  1  0  0  0  0
 19 18  1  0  0  0  0
 20 19  1  0  0  0  0
 21 20  1  0  0  0  0
 22 26  1  6  0  0  0
 22 31  1  0  0  0  0
 22 28  1  0  0  0  0
 24 25  1  0  0  0  0
 25 27  1  0  0  0  0
 27 21  1  1  0  0  0
 28 23  1  0  0  0  0
 29 31  1  6  0  0  0
 29 24  1  0  0  0  0
 29 30  1  0  0  0  0
 30 23  1  1  0  0  0
 30 27  1  0  0  0  0
M  END
>  <MODEL>
1

>  <REMARK>
 VINA RESULT:      -7.9      0.000      0.000
  Name = 
  9 active torsions:
  status: ('A' for Active; 'I' for Inactive)
    1  A    between atoms: C_2  and  C_13
    2  A    between atoms: C_4  and  C_5
    3  A    between atoms: C_4  and  C_12
    4  A    between atoms: C_9  and  C_23
    5  A    between atoms: C_12  and  C_27
    6  A    between atoms: C_15  and  C_20
    7  A    between atoms: C_15  and  C_23
    8  A    between atoms: C_20  and  C_27
    9  A    between atoms: C_30  and  C_31
                            x       y       z     vdW  Elec       q    Type
                         _______ _______ _______ _____ _____    ______ ____

>  <TORSDO>
F 9

$$$$
=
 OpenBabel11052422373D

 31 33  0  0  1  0  0  0  0  0999 V2000
  160.9550  208.1500  155.0400 C   0  0  0  0  0  0  0  0  0  0  0  0
  160.5580  209.9130  153.1550 C   0  0  0  0  0  0  0  0  0  0  0  0
  160.4900  206.7500  154.8630 C   0  0  0  0  0  1  0  0  0  0  0  0
  160.7550  209.0280  154.0980 C   0  0  0  0  0  0  0  0  0  0  0  0
  159.9500  211.2270  153.4900 C   0  0  0  0  0  0  0  0  0  0  0  0
  160.4970  211.9600  154.3590 O   0  0  0  0  0  0  0  0  0  0  0  0
  158.7010  211.7420  152.8320 C   0  0  2  0  0  3  0  0  0  0  0  0
  157.7560  213.5730  151.3940 C   0  0  0  0  0  2  0  0  0  0  0  0
  159.0080  212.7930  151.7580 C   0  0  0  0  0  2  0  0  0  0  0  0
  157.2340  214.2290  152.6640 C   0  0  0  0  0  2  0  0  0  0  0  0
  156.9430  213.2360  153.6770 N   0  0  0  0  0  0  0  0  0  0  0  0
  157.6270  212.1470  153.8280 C   0  0  0  0  0  0  0  0  0  0  0  0
  155.8510  210.8900  154.7780 O   0  0  0  0  0  1  0  0  0  0  0  0
  157.5260  211.6920  156.2660 C   0  0  0  0  0  1  0  0  0  0  0  0
  157.2140  211.1620  154.8800 C   0  0  2  0  0  3  0  0  0  0  0  0
  161.6410  208.5330  156.2420 C   0  0  0  0  0  0  0  0  0  0  0  0
  162.2140  208.8580  157.2510 C   0  0  0  0  0  3  0  0  0  0  0  0
  160.8160  209.4900  151.7420 C   0  0  0  0  0  2  0  0  0  0  0  0
  162.2870  209.1830  151.4960 C   0  0  0  0  0  2  0  0  0  0  0  0
  162.4510  207.9500  150.6250 C   0  0  0  0  0  2  0  0  0  0  0  0
  161.8220  206.7410  151.2940 C   0  0  0  0  0  2  0  0  0  0  0  0
  160.7800  202.0190  149.1750 C   0  0  1  0  0  3  0  0  0  0  0  0
  160.5400  203.7620  150.9970 C   0  0  0  0  0  2  0  0  0  0  0  0
  161.0470  205.6700  147.9720 C   0  0  0  0  0  2  0  0  0  0  0  0
  160.8770  206.7750  149.0000 C   0  0  0  0  0  2  0  0  0  0  0  0
  161.4090  200.8190  148.8470 O   0  0  0  0  0  1  0  0  0  0  0  0
  160.8300  206.0720  150.3570 C   0  0  1  0  0  3  0  0  0  0  0  0
  161.0130  202.3400  150.6630 C   0  0  0  0  0  2  0  0  0  0  0  0
  160.7180  204.4430  148.7740 C   0  0  2  0  0  3  0  0  0  0  0  0
  161.2240  204.6930  150.1080 N   0  0  2  0  0  0  0  0  0  0  0  0
  161.2910  203.1360  148.2560 C   0  0  0  0  0  2  0  0  0  0  0  0
  1 16  1  0  0  0  0
  2  5  1  0  0  0  0
  2  4  2  0  0  0  0
  3  1  1  0  0  0  0
  4  1  2  0  0  0  0
  5  6  2  0  0  0  0
  7  5  1  1  0  0  0
  7 12  1  0  0  0  0
  8  9  1  0  0  0  0
  8 10  1  0  0  0  0
  9  7  1  0  0  0  0
 10 11  1  0  0  0  0
 11 12  2  0  0  0  0
 12 15  1  0  0  0  0
 13 15  1  0  0  0  0
 15 14  1  1  0  0  0
 16 17  3  0  0  0  0
 18  2  1  0  0  0  0
 19 18  1  0  0  0  0
 20 21  1  0  0  0  0
 20 19  1  0  0  0  0
 22 26  1  6  0  0  0
 22 28  1  0  0  0  0
 24 25  1  0  0  0  0
 25 27  1  0  0  0  0
 27 21  1  1  0  0  0
 28 23  1  0  0  0  0
 29 24  1  6  0  0  0
 29 30  1  0  0  0  0
 30 27  1  0  0  0  0
 30 23  1  1  0  0  0
 31 29  1  0  0  0  0
 31 22  1  0  0  0  0
M  END
>  <MODEL>
2

>  <REMARK>
 VINA RESULT:      -7.8      3.127      4.888
  Name = 
  9 active torsions:
  status: ('A' for Active; 'I' for Inactive)
    1  A    between atoms: C_2  and  C_13
    2  A    between atoms: C_4  and  C_5
    3  A    between atoms: C_4  and  C_12
    4  A    between atoms: C_9  and  C_23
    5  A    between atoms: C_12  and  C_27
    6  A    between atoms: C_15  and  C_20
    7  A    between atoms: C_15  and  C_23
    8  A    between atoms: C_20  and  C_27
    9  A    between atoms: C_30  and  C_31
                            x       y       z     vdW  Elec       q    Type
                         _______ _______ _______ _____ _____    ______ ____

>  <TORSDO>
F 9

$$$$
=
 OpenBabel11052422373D

 31 33  0  0  1  0  0  0  0  0999 V2000
  161.9210  211.9740  148.9790 C   0  0  0  0  0  0  0  0  0  0  0  0
  161.9420  209.8720  150.5280 C   0  0  0  0  0  0  0  0  0  0  0  0
  163.0020  212.1750  147.9800 C   0  0  0  0  0  1  0  0  0  0  0  0
  161.9340  210.9240  149.7510 C   0  0  0  0  0  0  0  0  0  0  0  0
  161.7730  210.0340  151.9950 C   0  0  0  0  0  0  0  0  0  0  0  0
  162.7880  210.2170  152.7210 O   0  0  0  0  0  0  0  0  0  0  0  0
  160.4310  209.9980  152.6740 C   0  0  2  0  0  3  0  0  0  0  0  0
  158.4760  211.3940  153.4080 C   0  0  0  0  0  2  0  0  0  0  0  0
  159.6240  211.2770  152.4200 C   0  0  0  0  0  2  0  0  0  0  0  0
  159.0680  211.3930  154.8090 C   0  0  0  0  0  2  0  0  0  0  0  0
  159.8300  210.1840  155.0480 N   0  0  0  0  0  0  0  0  0  0  0  0
  160.5130  209.5760  154.1310 C   0  0  0  0  0  0  0  0  0  0  0  0
  160.4530  207.2030  154.1210 O   0  0  0  0  0  1  0  0  0  0  0  0
  161.5510  208.2500  155.9540 C   0  0  0  0  0  1  0  0  0  0  0  0
  161.2300  208.3050  154.4740 C   0  0  2  0  0  3  0  0  0  0  0  0
  160.8520  212.9260  149.0830 C   0  0  0  0  0  0  0  0  0  0  0  0
  159.9530  213.7220  149.1750 C   0  0  0  0  0  3  0  0  0  0  0  0
  162.2800  208.5520  149.9060 C   0  0  0  0  0  2  0  0  0  0  0  0
  162.1930  207.4080  150.9070 C   0  0  0  0  0  2  0  0  0  0  0  0
  160.8690  206.6750  150.7890 C   0  0  0  0  0  2  0  0  0  0  0  0
  160.7030  206.1010  149.3930 C   0  0  0  0  0  2  0  0  0  0  0  0
  161.0530  201.9430  146.1580 C   0  0  1  0  0  3  0  0  0  0  0  0
  161.7870  204.2330  146.9550 C   0  0  0  0  0  2  0  0  0  0  0  0
  160.5990  202.5690  149.9330 C   0  0  0  0  0  2  0  0  0  0  0  0
  161.0500  203.9070  150.4950 C   0  0  0  0  0  2  0  0  0  0  0  0
  160.3290  201.2800  145.1700 O   0  0  0  0  0  1  0  0  0  0  0  0
  161.4120  204.7620  149.2810 C   0  0  1  0  0  3  0  0  0  0  0  0
  161.2050  203.4290  145.7830 C   0  0  0  0  0  2  0  0  0  0  0  0
  161.0820  202.6480  148.5130 C   0  0  2  0  0  3  0  0  0  0  0  0
  160.9300  204.0330  148.1180 N   0  0  2  0  0  0  0  0  0  0  0  0
  160.3620  201.7580  147.5150 C   0  0  0  0  0  2  0  0  0  0  0  0
  1 16  1  0  0  0  0
  1  4  2  0  0  0  0
  2  5  1  0  0  0  0
  3  1  1  0  0  0  0
  4  2  2  0  0  0  0
  5  6  2  0  0  0  0
  7  5  1  1  0  0  0
  7 12  1  0  0  0  0
  8 10  1  0  0  0  0
  9  7  1  0  0  0  0
  9  8  1  0  0  0  0
 10 11  1  0  0  0  0
 12 15  1  0  0  0  0
 12 11  2  0  0  0  0
 13 15  1  0  0  0  0
 15 14  1  1  0  0  0
 16 17  3  0  0  0  0
 18  2  1  0  0  0  0
 18 19  1  0  0  0  0
 20 19  1  0  0  0  0
 21 20  1  0  0  0  0
 22 26  1  6  0  0  0
 22 31  1  0  0  0  0
 24 25  1  0  0  0  0
 27 21  1  1  0  0  0
 27 25  1  0  0  0  0
 28 22  1  0  0  0  0
 28 23  1  0  0  0  0
 29 31  1  6  0  0  0
 29 24  1  0  0  0  0
 30 23  1  6  0  0  0
 30 29  1  0  0  0  0
 30 27  1  0  0  0  0
M  END
>  <MODEL>
3

>  <REMARK>
 VINA RESULT:      -7.7      2.313      4.910
  Name = 
  9 active torsions:
  status: ('A' for Active; 'I' for Inactive)
    1  A    between atoms: C_2  and  C_13
    2  A    between atoms: C_4  and  C_5
    3  A    between atoms: C_4  and  C_12
    4  A    between atoms: C_9  and  C_23
    5  A    between atoms: C_12  and  C_27
    6  A    between atoms: C_15  and  C_20
    7  A    between atoms: C_15  and  C_23
    8  A    between atoms: C_20  and  C_27
    9  A    between atoms: C_30  and  C_31
                            x       y       z     vdW  Elec       q    Type
                         _______ _______ _______ _____ _____    ______ ____

>  <TORSDO>
F 9

$$$$
=
 OpenBabel11052422373D

 31 33  0  0  1  0  0  0  0  0999 V2000
  162.1000  208.9240  149.2840 C   0  0  0  0  0  0  0  0  0  0  0  0
  161.2400  208.6180  151.7310 C   0  0  0  0  0  0  0  0  0  0  0  0
  162.8140  207.8150  148.6000 C   0  0  0  0  0  1  0  0  0  0  0  0
  161.6730  208.7680  150.5050 C   0  0  0  0  0  0  0  0  0  0  0  0
  161.5550  209.6450  152.7570 C   0  0  0  0  0  0  0  0  0  0  0  0
  162.7170  210.1320  152.8120 O   0  0  0  0  0  0  0  0  0  0  0  0
  160.5420  210.1500  153.7470 C   0  0  2  0  0  3  0  0  0  0  0  0
  159.4520  212.2100  154.6840 C   0  0  0  0  0  2  0  0  0  0  0  0
  160.1490  211.6070  153.4770 C   0  0  0  0  0  2  0  0  0  0  0  0
  160.4060  212.1140  155.8650 C   0  0  0  0  0  2  0  0  0  0  0  0
  160.7760  210.7370  156.1210 N   0  0  0  0  0  0  0  0  0  0  0  0
  160.9190  209.8500  155.1880 C   0  0  0  0  0  0  0  0  0  0  0  0
  160.1150  207.6450  155.5490 O   0  0  0  0  0  1  0  0  0  0  0  0
  161.8980  208.3880  156.9400 C   0  0  0  0  0  1  0  0  0  0  0  0
  161.2610  208.4400  155.5650 C   0  0  2  0  0  3  0  0  0  0  0  0
  161.8640  210.1600  148.5950 C   0  0  0  0  0  0  0  0  0  0  0  0
  161.6610  211.1980  148.0170 C   0  0  0  0  0  3  0  0  0  0  0  0
  160.5730  207.3230  152.0770 C   0  0  0  0  0  2  0  0  0  0  0  0
  161.5580  206.2990  152.6260 C   0  0  0  0  0  2  0  0  0  0  0  0
  161.1880  204.8930  152.1890 C   0  0  0  0  0  2  0  0  0  0  0  0
  160.8930  204.8610  150.7000 C   0  0  0  0  0  2  0  0  0  0  0  0
  161.0260  202.3180  146.0750 C   0  0  1  0  0  3  0  0  0  0  0  0
  161.9220  204.0160  147.7270 C   0  0  0  0  0  2  0  0  0  0  0  0
  160.4490  201.4350  149.7810 C   0  0  0  0  0  2  0  0  0  0  0  0
  160.9900  202.3860  150.8350 C   0  0  0  0  0  2  0  0  0  0  0  0
  160.2940  202.1780  144.8980 O   0  0  0  0  0  1  0  0  0  0  0  0
  161.4850  203.6120  150.0680 C   0  0  1  0  0  3  0  0  0  0  0  0
  161.3280  203.8070  146.3270 C   0  0  0  0  0  2  0  0  0  0  0  0
  161.0050  202.0220  148.5150 C   0  0  2  0  0  3  0  0  0  0  0  0
  160.9960  203.4580  148.7060 N   0  0  2  0  0  0  0  0  0  0  0  0
  160.2570  201.6790  147.2380 C   0  0  0  0  0  2  0  0  0  0  0  0
  1  4  2  0  0  0  0
  2 18  1  0  0  0  0
  2  5  1  0  0  0  0
  3  1  1  0  0  0  0
  4  2  2  0  0  0  0
  5  6  2  0  0  0  0
  7  5  1  6  0  0  0
  7 12  1  0  0  0  0
  8 10  1  0  0  0  0
  9  7  1  0  0  0  0
  9  8  1  0  0  0  0
 10 11  1  0  0  0  0
 12 15  1  0  0  0  0
 12 11  2  0  0  0  0
 13 15  1  0  0  0  0
 15 14  1  1  0  0  0
 16  1  1  0  0  0  0
 17 16  3  0  0  0  0
 18 19  1  0  0  0  0
 20 19  1  0  0  0  0
 21 20  1  0  0  0  0
 22 26  1  6  0  0  0
 22 28  1  0  0  0  0
 22 31  1  0  0  0  0
 24 25  1  0  0  0  0
 27 21  1  1  0  0  0
 27 25  1  0  0  0  0
 28 23  1  0  0  0  0
 29 31  1  6  0  0  0
 29 30  1  0  0  0  0
 29 24  1  0  0  0  0
 30 23  1  6  0  0  0
 30 27  1  0  0  0  0
M  END
>  <MODEL>
4

>  <REMARK>
 VINA RESULT:      -7.7      2.036      4.524
  Name = 
  9 active torsions:
  status: ('A' for Active; 'I' for Inactive)
    1  A    between atoms: C_2  and  C_13
    2  A    between atoms: C_4  and  C_5
    3  A    between atoms: C_4  and  C_12
    4  A    between atoms: C_9  and  C_23
    5  A    between atoms: C_12  and  C_27
    6  A    between atoms: C_15  and  C_20
    7  A    between atoms: C_15  and  C_23
    8  A    between atoms: C_20  and  C_27
    9  A    between atoms: C_30  and  C_31
                            x       y       z     vdW  Elec       q    Type
                         _______ _______ _______ _____ _____    ______ ____

>  <TORSDO>
F 9

$$$$
=
 OpenBabel11052422373D

 31 33  0  0  1  0  0  0  0  0999 V2000
  160.8710  207.3610  154.3500 C   0  0  0  0  0  0  0  0  0  0  0  0
  161.0760  209.6900  153.1870 C   0  0  0  0  0  0  0  0  0  0  0  0
  161.1940  206.1200  153.5990 C   0  0  0  0  0  1  0  0  0  0  0  0
  160.9740  208.5220  153.7670 C   0  0  0  0  0  0  0  0  0  0  0  0
  159.9490  210.6540  153.2630 C   0  0  0  0  0  0  0  0  0  0  0  0
  159.0800  210.6670  152.3480 O   0  0  0  0  0  0  0  0  0  0  0  0
  159.7800  211.6290  154.3950 C   0  0  2  0  0  3  0  0  0  0  0  0
  160.6040  212.2680  156.6800 C   0  0  0  0  0  2  0  0  0  0  0  0
  160.9630  211.5900  155.3690 C   0  0  0  0  0  2  0  0  0  0  0  0
  159.3970  211.5450  157.2600 C   0  0  0  0  0  2  0  0  0  0  0  0
  158.2790  211.5840  156.3400 N   0  0  0  0  0  0  0  0  0  0  0  0
  158.4120  211.5470  155.0520 C   0  0  0  0  0  0  0  0  0  0  0  0
  157.0210  212.9430  153.7280 O   0  0  0  0  0  1  0  0  0  0  0  0
  155.9560  211.2010  154.9500 C   0  0  0  0  0  1  0  0  0  0  0  0
  157.1910  211.6380  154.1870 C   0  0  2  0  0  3  0  0  0  0  0  0
  160.4640  207.2830  155.7250 C   0  0  0  0  0  0  0  0  0  0  0  0
  160.1170  207.2190  156.8770 C   0  0  0  0  0  3  0  0  0  0  0  0
  162.2820  209.9380  152.3350 C   0  0  0  0  0  2  0  0  0  0  0  0
  162.0460  209.5470  150.8810 C   0  0  0  0  0  2  0  0  0  0  0  0
  161.3900  208.1810  150.7800 C   0  0  0  0  0  2  0  0  0  0  0  0
  162.0990  207.3290  149.7430 C   0  0  0  0  0  2  0  0  0  0  0  0
  160.6710  202.2570  149.4100 C   0  0  1  0  0  3  0  0  0  0  0  0
  160.5070  204.5710  150.4270 C   0  0  0  0  0  2  0  0  0  0  0  0
  161.4380  205.1510  146.9860 C   0  0  0  0  0  2  0  0  0  0  0  0
  161.3250  206.5730  147.5110 C   0  0  0  0  0  2  0  0  0  0  0  0
  161.1800  200.9760  149.6160 O   0  0  0  0  0  1  0  0  0  0  0  0
  161.1040  206.4380  149.0170 C   0  0  1  0  0  3  0  0  0  0  0  0
  160.8360  203.0950  150.6920 C   0  0  0  0  0  2  0  0  0  0  0  0
  160.9150  204.3480  148.1420 C   0  0  2  0  0  3  0  0  0  0  0  0
  161.3530  205.0410  149.3370 N   0  0  2  0  0  0  0  0  0  0  0  0
  161.3690  202.9000  148.2050 C   0  0  0  0  0  2  0  0  0  0  0  0
  1 16  1  0  0  0  0
  2  5  1  0  0  0  0
  2  4  2  0  0  0  0
  3  1  1  0  0  0  0
  4  1  2  0  0  0  0
  6  5  2  0  0  0  0
  7  5  1  6  0  0  0
  7 12  1  0  0  0  0
  7  9  1  0  0  0  0
  8 10  1  0  0  0  0
  9  8  1  0  0  0  0
 11 10  1  0  0  0  0
 12 11  2  0  0  0  0
 13 15  1  0  0  0  0
 15 14  1  1  0  0  0
 15 12  1  0  0  0  0
 16 17  3  0  0  0  0
 18  2  1  0  0  0  0
 19 18  1  0  0  0  0
 20 19  1  0  0  0  0
 21 20  1  0  0  0  0
 22 26  1  1  0  0  0
 22 28  1  0  0  0  0
 23 28  1  0  0  0  0
 24 25  1  0  0  0  0
 25 27  1  0  0  0  0
 27 30  1  0  0  0  0
 27 21  1  1  0  0  0
 29 24  1  6  0  0  0
 29 31  1  0  0  0  0
 29 30  1  0  0  0  0
 30 23  1  1  0  0  0
 31 22  1  0  0  0  0
M  END
>  <MODEL>
5

>  <REMARK>
 VINA RESULT:      -7.3      2.860      5.121
  Name = 
  9 active torsions:
  status: ('A' for Active; 'I' for Inactive)
    1  A    between atoms: C_2  and  C_13
    2  A    between atoms: C_4  and  C_5
    3  A    between atoms: C_4  and  C_12
    4  A    between atoms: C_9  and  C_23
    5  A    between atoms: C_12  and  C_27
    6  A    between atoms: C_15  and  C_20
    7  A    between atoms: C_15  and  C_23
    8  A    between atoms: C_20  and  C_27
    9  A    between atoms: C_30  and  C_31
                            x       y       z     vdW  Elec       q    Type
                         _______ _______ _______ _____ _____    ______ ____

>  <TORSDO>
F 9

$$$$
=
 OpenBabel11052422373D

 31 33  0  0  1  0  0  0  0  0999 V2000
  162.2380  208.1100  149.3310 C   0  0  0  0  0  0  0  0  0  0  0  0
  161.2600  206.8020  151.3690 C   0  0  0  0  0  0  0  0  0  0  0  0
  163.0630  207.4030  148.3170 C   0  0  0  0  0  1  0  0  0  0  0  0
  161.7520  207.4550  150.3470 C   0  0  0  0  0  0  0  0  0  0  0  0
  161.4450  207.3330  152.7440 C   0  0  0  0  0  0  0  0  0  0  0  0
  162.3250  206.8250  153.4920 O   0  0  0  0  0  0  0  0  0  0  0  0
  160.6310  208.4670  153.3000 C   0  0  2  0  0  3  0  0  0  0  0  0
  160.2700  210.9520  153.2240 C   0  0  0  0  0  2  0  0  0  0  0  0
  160.7620  209.7390  152.4540 C   0  0  0  0  0  2  0  0  0  0  0  0
  161.0970  211.0590  154.4960 C   0  0  0  0  0  2  0  0  0  0  0  0
  160.9710  209.8580  155.2970 N   0  0  0  0  0  0  0  0  0  0  0  0
  160.8370  208.6730  154.7910 C   0  0  0  0  0  0  0  0  0  0  0  0
  159.3340  207.1080  155.7550 O   0  0  0  0  0  1  0  0  0  0  0  0
  161.1510  207.8370  157.1080 C   0  0  0  0  0  1  0  0  0  0  0  0
  160.6710  207.5000  155.7100 C   0  0  2  0  0  3  0  0  0  0  0  0
  161.9610  209.5110  149.1830 C   0  0  0  0  0  0  0  0  0  0  0  0
  161.7300  210.6870  149.0640 C   0  0  0  0  0  3  0  0  0  0  0  0
  160.6610  205.4550  151.1080 C   0  0  0  0  0  2  0  0  0  0  0  0
  161.6870  204.3370  151.2350 C   0  0  0  0  0  2  0  0  0  0  0  0
  161.0160  202.9760  151.2590 C   0  0  0  0  0  2  0  0  0  0  0  0
  160.2560  202.7360  149.9660 C   0  0  0  0  0  2  0  0  0  0  0  0
  161.4990  204.3210  145.0860 C   0  0  1  0  0  3  0  0  0  0  0  0
  161.7460  204.4140  147.6050 C   0  0  0  0  0  2  0  0  0  0  0  0
  160.8390  200.9880  146.9030 C   0  0  0  0  0  2  0  0  0  0  0  0
  161.0030  200.9530  148.4130 C   0  0  0  0  0  2  0  0  0  0  0  0
  160.9440  204.9790  143.9900 O   0  0  0  0  0  1  0  0  0  0  0  0
  161.2180  202.4050  148.8380 C   0  0  1  0  0  3  0  0  0  0  0  0
  161.3630  205.2000  146.3440 C   0  0  0  0  0  2  0  0  0  0  0  0
  161.3310  202.3670  146.5670 C   0  0  2  0  0  3  0  0  0  0  0  0
  160.9180  203.2150  147.6660 N   0  0  2  0  0  0  0  0  0  0  0  0
  160.8250  202.9540  145.2610 C   0  0  0  0  0  2  0  0  0  0  0  0
  1  4  2  0  0  0  0
  2  5  1  0  0  0  0
  3  1  1  0  0  0  0
  4  2  2  0  0  0  0
  5  6  2  0  0  0  0
  7  5  1  6  0  0  0
  7 12  1  0  0  0  0
  8 10  1  0  0  0  0
  9  8  1  0  0  0  0
  9  7  1  0  0  0  0
 10 11  1  0  0  0  0
 12 11  2  0  0  0  0
 12 15  1  0  0  0  0
 15 13  1  0  0  0  0
 15 14  1  1  0  0  0
 16  1  1  0  0  0  0
 17 16  3  0  0  0  0
 18 19  1  0  0  0  0
 18  2  1  0  0  0  0
 19 20  1  0  0  0  0
 21 20  1  0  0  0  0
 22 26  1  6  0  0  0
 22 31  1  0  0  0  0
 22 28  1  0  0  0  0
 24 25  1  0  0  0  0
 25 27  1  0  0  0  0
 27 21  1  1  0  0  0
 28 23  1  0  0  0  0
 29 31  1  6  0  0  0
 29 24  1  0  0  0  0
 29 30  1  0  0  0  0
 30 23  1  1  0  0  0
 30 27  1  0  0  0  0
M  END
>  <MODEL>
6

>  <REMARK>
 VINA RESULT:      -7.2      1.547      3.728
  Name = 
  9 active torsions:
  status: ('A' for Active; 'I' for Inactive)
    1  A    between atoms: C_2  and  C_13
    2  A    between atoms: C_4  and  C_5
    3  A    between atoms: C_4  and  C_12
    4  A    between atoms: C_9  and  C_23
    5  A    between atoms: C_12  and  C_27
    6  A    between atoms: C_15  and  C_20
    7  A    between atoms: C_15  and  C_23
    8  A    between atoms: C_20  and  C_27
    9  A    between atoms: C_30  and  C_31
                            x       y       z     vdW  Elec       q    Type
                         _______ _______ _______ _____ _____    ______ ____

>  <TORSDO>
F 9

$$$$
=
 OpenBabel11052422373D

 31 33  0  0  1  0  0  0  0  0999 V2000
  161.5670  209.5070  150.8120 C   0  0  0  0  0  0  0  0  0  0  0  0
  161.6920  206.8990  150.7860 C   0  0  0  0  0  0  0  0  0  0  0  0
  161.0850  210.2190  152.0240 C   0  0  0  0  0  1  0  0  0  0  0  0
  161.6280  208.2060  150.8020 C   0  0  0  0  0  0  0  0  0  0  0  0
  161.0910  206.1430  149.6570 C   0  0  0  0  0  0  0  0  0  0  0  0
  159.8670  206.2930  149.3920 O   0  0  0  0  0  0  0  0  0  0  0  0
  161.8780  205.1960  148.7940 C   0  0  2  0  0  3  0  0  0  0  0  0
  162.7610  204.8000  146.4770 C   0  0  0  0  0  2  0  0  0  0  0  0
  162.3270  205.8520  147.4830 C   0  0  0  0  0  2  0  0  0  0  0  0
  161.5820  203.8680  146.2430 C   0  0  0  0  0  2  0  0  0  0  0  0
  161.1600  203.2480  147.4820 N   0  0  0  0  0  0  0  0  0  0  0  0
  161.2090  203.8430  148.6320 C   0  0  0  0  0  0  0  0  0  0  0  0
  161.8020  203.1300  150.8180 O   0  0  0  0  0  1  0  0  0  0  0  0
  160.4510  201.6550  149.5280 C   0  0  0  0  0  1  0  0  0  0  0  0
  160.7880  203.0950  149.8610 C   0  0  2  0  0  3  0  0  0  0  0  0
  161.9830  210.2530  149.6580 C   0  0  0  0  0  0  0  0  0  0  0  0
  162.3280  210.8790  148.6880 C   0  0  0  0  0  3  0  0  0  0  0  0
  162.2400  206.2170  152.0010 C   0  0  0  0  0  2  0  0  0  0  0  0
  161.2080  206.1140  153.1150 C   0  0  0  0  0  2  0  0  0  0  0  0
  161.3210  207.2830  154.0780 C   0  0  0  0  0  2  0  0  0  0  0  0
  160.4300  207.0630  155.2870 C   0  0  0  0  0  2  0  0  0  0  0  0
  159.3690  212.2340  155.3800 C   0  0  1  0  0  3  0  0  0  0  0  0
  158.7250  209.8060  155.7080 C   0  0  0  0  0  2  0  0  0  0  0  0
  162.2660  209.9150  156.4160 C   0  0  0  0  0  2  0  0  0  0  0  0
  161.9530  208.4490  156.6680 C   0  0  0  0  0  2  0  0  0  0  0  0
  159.2300  213.3240  154.5230 O   0  0  0  0  0  1  0  0  0  0  0  0
  160.5030  208.2560  156.2250 C   0  0  1  0  0  3  0  0  0  0  0  0
  158.4270  211.0990  154.9350 C   0  0  0  0  0  2  0  0  0  0  0  0
  160.8960  210.4950  156.2070 C   0  0  2  0  0  3  0  0  0  0  0  0
  160.1320  209.4740  155.5210 N   0  0  2  0  0  0  0  0  0  0  0  0
  160.8360  211.7880  155.4130 C   0  0  0  0  0  2  0  0  0  0  0  0
  1  3  1  0  0  0  0
  2  4  2  0  0  0  0
  2 18  1  0  0  0  0
  4  1  2  0  0  0  0
  5  2  1  0  0  0  0
  6  5  2  0  0  0  0
  7  5  1  6  0  0  0
  8  9  1  0  0  0  0
  9  7  1  0  0  0  0
 10  8  1  0  0  0  0
 10 11  1  0  0  0  0
 11 12  2  0  0  0  0
 12  7  1  0  0  0  0
 12 15  1  0  0  0  0
 15 14  1  6  0  0  0
 15 13  1  0  0  0  0
 16  1  1  0  0  0  0
 17 16  3  0  0  0  0
 18 19  1  0  0  0  0
 19 20  1  0  0  0  0
 20 21  1  0  0  0  0
 22 26  1  6  0  0  0
 22 31  1  0  0  0  0
 24 25  1  0  0  0  0
 27 21  1  6  0  0  0
 27 25  1  0  0  0  0
 28 22  1  0  0  0  0
 28 23  1  0  0  0  0
 29 31  1  6  0  0  0
 29 24  1  0  0  0  0
 30 23  1  1  0  0  0
 30 29  1  0  0  0  0
 30 27  1  0  0  0  0
M  END
>  <MODEL>
7

>  <REMARK>
 VINA RESULT:      -7.2      2.208      8.192
  Name = 
  9 active torsions:
  status: ('A' for Active; 'I' for Inactive)
    1  A    between atoms: C_2  and  C_13
    2  A    between atoms: C_4  and  C_5
    3  A    between atoms: C_4  and  C_12
    4  A    between atoms: C_9  and  C_23
    5  A    between atoms: C_12  and  C_27
    6  A    between atoms: C_15  and  C_20
    7  A    between atoms: C_15  and  C_23
    8  A    between atoms: C_20  and  C_27
    9  A    between atoms: C_30  and  C_31
                            x       y       z     vdW  Elec       q    Type
                         _______ _______ _______ _____ _____    ______ ____

>  <TORSDO>
F 9

$$$$
=
 OpenBabel11052422373D

 31 33  0  0  1  0  0  0  0  0999 V2000
  161.9630  209.6180  149.8670 C   0  0  0  0  0  0  0  0  0  0  0  0
  161.3950  209.2470  152.3880 C   0  0  0  0  0  0  0  0  0  0  0  0
  162.3290  208.4640  149.0060 C   0  0  0  0  0  1  0  0  0  0  0  0
  161.6800  209.4300  151.1250 C   0  0  0  0  0  0  0  0  0  0  0  0
  162.0540  210.0840  153.4240 C   0  0  0  0  0  0  0  0  0  0  0  0
  163.2260  210.5060  153.2280 O   0  0  0  0  0  0  0  0  0  0  0  0
  161.3840  210.4680  154.7140 C   0  0  2  0  0  3  0  0  0  0  0  0
  160.4500  209.5840  156.8720 C   0  0  0  0  0  2  0  0  0  0  0  0
  161.4470  209.3410  155.7520 C   0  0  0  0  0  2  0  0  0  0  0  0
  159.0650  209.6720  156.2480 C   0  0  0  0  0  2  0  0  0  0  0  0
  159.0060  210.7380  155.2680 N   0  0  0  0  0  0  0  0  0  0  0  0
  160.0040  211.0690  154.5120 C   0  0  0  0  0  0  0  0  0  0  0  0
  159.2900  213.3140  154.2150 O   0  0  0  0  0  1  0  0  0  0  0  0
  158.9840  211.8300  152.3810 C   0  0  0  0  0  1  0  0  0  0  0  0
  159.8510  212.2180  153.5610 C   0  0  2  0  0  3  0  0  0  0  0  0
  161.9010  210.9400  149.3090 C   0  0  0  0  0  0  0  0  0  0  0  0
  161.8530  212.0510  148.8450 C   0  0  0  0  0  3  0  0  0  0  0  0
  160.5230  208.0820  152.7410 C   0  0  0  0  0  2  0  0  0  0  0  0
  161.3320  206.8860  153.2250 C   0  0  0  0  0  2  0  0  0  0  0  0
  162.0300  206.1920  152.0690 C   0  0  0  0  0  2  0  0  0  0  0  0
  161.6180  204.7320  152.0000 C   0  0  0  0  0  2  0  0  0  0  0  0
  160.9210  201.1940  148.1450 C   0  0  1  0  0  3  0  0  0  0  0  0
  160.4570  202.1080  150.4610 C   0  0  0  0  0  2  0  0  0  0  0  0
  161.2000  205.0240  148.4620 C   0  0  0  0  0  2  0  0  0  0  0  0
  160.9000  205.6530  149.8120 C   0  0  0  0  0  2  0  0  0  0  0  0
  161.6130  200.2040  147.4490 O   0  0  0  0  0  1  0  0  0  0  0  0
  160.7410  204.4840  150.7850 C   0  0  1  0  0  3  0  0  0  0  0  0
  161.0000  200.9180  149.6580 C   0  0  0  0  0  2  0  0  0  0  0  0
  160.8290  203.5870  148.6970 C   0  0  2  0  0  3  0  0  0  0  0  0
  161.1960  203.3010  150.0690 N   0  0  2  0  0  0  0  0  0  0  0  0
  161.4860  202.5720  147.7790 C   0  0  0  0  0  2  0  0  0  0  0  0
  1  4  2  0  0  0  0
  2 18  1  0  0  0  0
  2  5  1  0  0  0  0
  3  1  1  0  0  0  0
  4  2  2  0  0  0  0
  6  5  2  0  0  0  0
  7  5  1  6  0  0  0
  7  9  1  0  0  0  0
  9  8  1  0  0  0  0
 10  8  1  0  0  0  0
 11 10  1  0  0  0  0
 12  7  1  0  0  0  0
 12 11  2  0  0  0  0
 15 14  1  6  0  0  0
 15 13  1  0  0  0  0
 15 12  1  0  0  0  0
 16  1  1  0  0  0  0
 17 16  3  0  0  0  0
 18 19  1  0  0  0  0
 20 19  1  0  0  0  0
 21 20  1  0  0  0  0
 22 26  1  6  0  0  0
 22 28  1  0  0  0  0
 24 29  1  0  0  0  0
 24 25  1  0  0  0  0
 25 27  1  0  0  0  0
 27 21  1  1  0  0  0
 28 23  1  0  0  0  0
 29 31  1  6  0  0  0
 29 30  1  0  0  0  0
 30 23  1  1  0  0  0
 30 27  1  0  0  0  0
 31 22  1  0  0  0  0
M  END
>  <MODEL>
8

>  <REMARK>
 VINA RESULT:      -7.1      2.298      5.020
  Name = 
  9 active torsions:
  status: ('A' for Active; 'I' for Inactive)
    1  A    between atoms: C_2  and  C_13
    2  A    between atoms: C_4  and  C_5
    3  A    between atoms: C_4  and  C_12
    4  A    between atoms: C_9  and  C_23
    5  A    between atoms: C_12  and  C_27
    6  A    between atoms: C_15  and  C_20
    7  A    between atoms: C_15  and  C_23
    8  A    between atoms: C_20  and  C_27
    9  A    between atoms: C_30  and  C_31
                            x       y       z     vdW  Elec       q    Type
                         _______ _______ _______ _____ _____    ______ ____

>  <TORSDO>
F 9

$$$$
=
 OpenBabel11052422373D

 31 33  0  0  1  0  0  0  0  0999 V2000
  161.1250  205.1060  145.7540 C   0  0  0  0  0  0  0  0  0  0  0  0
  161.5940  206.2280  148.0650 C   0  0  0  0  0  0  0  0  0  0  0  0
  160.8310  205.9440  144.5630 C   0  0  0  0  0  1  0  0  0  0  0  0
  161.3580  205.6680  146.9060 C   0  0  0  0  0  0  0  0  0  0  0  0
  160.8670  205.7600  149.2730 C   0  0  0  0  0  0  0  0  0  0  0  0
  159.7300  206.2390  149.5370 O   0  0  0  0  0  0  0  0  0  0  0  0
  161.4190  204.7240  150.2110 C   0  0  2  0  0  3  0  0  0  0  0  0
  161.2060  202.3410  150.9770 C   0  0  0  0  0  2  0  0  0  0  0  0
  160.9790  203.3060  149.8260 C   0  0  0  0  0  2  0  0  0  0  0  0
  160.4140  202.8500  152.1720 C   0  0  0  0  0  2  0  0  0  0  0  0
  160.8310  204.1890  152.5360 N   0  0  0  0  0  0  0  0  0  0  0  0
  161.2150  205.0770  151.6750 C   0  0  0  0  0  0  0  0  0  0  0  0
  163.0230  206.6030  151.8800 O   0  0  0  0  0  1  0  0  0  0  0  0
  161.4360  206.5610  153.6530 C   0  0  0  0  0  1  0  0  0  0  0  0
  161.6700  206.4200  152.1620 C   0  0  2  0  0  3  0  0  0  0  0  0
  161.1710  203.6760  145.6330 C   0  0  0  0  0  0  0  0  0  0  0  0
  161.2060  202.4760  145.5350 C   0  0  0  0  0  3  0  0  0  0  0  0
  162.4850  207.4310  148.0860 C   0  0  0  0  0  2  0  0  0  0  0  0
  161.9550  208.5200  149.0090 C   0  0  0  0  0  2  0  0  0  0  0  0
  161.9560  209.8730  148.3200 C   0  0  0  0  0  2  0  0  0  0  0  0
  161.9570  210.9910  149.3470 C   0  0  0  0  0  2  0  0  0  0  0  0
  159.0840  213.6870  145.8310 C   0  0  1  0  0  3  0  0  0  0  0  0
  159.6300  212.9580  148.1950 C   0  0  0  0  0  2  0  0  0  0  0  0
  162.8100  212.9520  146.4820 C   0  0  0  0  0  2  0  0  0  0  0  0
  163.2240  212.5440  147.8860 C   0  0  0  0  0  2  0  0  0  0  0  0
  158.2040  213.4810  144.7700 O   0  0  0  0  0  1  0  0  0  0  0  0
  161.9200  212.3450  148.6580 C   0  0  1  0  0  3  0  0  0  0  0  0
  158.5720  212.9500  147.0830 C   0  0  0  0  0  2  0  0  0  0  0  0
  161.3620  213.3010  146.6710 C   0  0  2  0  0  3  0  0  0  0  0  0
  160.8560  212.3750  147.6640 N   0  0  2  0  0  0  0  0  0  0  0  0
  160.4920  213.2300  145.4280 C   0  0  0  0  0  2  0  0  0  0  0  0
  1  4  2  0  0  0  0
  2 18  1  0  0  0  0
  2  5  1  0  0  0  0
  3  1  1  0  0  0  0
  4  2  2  0  0  0  0
  5  6  2  0  0  0  0
  7  5  1  6  0  0  0
  7 12  1  0  0  0  0
  8 10  1  0  0  0  0
  9  7  1  0  0  0  0
  9  8  1  0  0  0  0
 10 11  1  0  0  0  0
 12 15  1  0  0  0  0
 12 11  2  0  0  0  0
 13 15  1  0  0  0  0
 15 14  1  1  0  0  0
 16  1  1  0  0  0  0
 17 16  3  0  0  0  0
 18 19  1  0  0  0  0
 20 19  1  0  0  0  0
 20 21  1  0  0  0  0
 22 26  1  6  0  0  0
 22 28  1  0  0  0  0
 24 29  1  0  0  0  0
 24 25  1  0  0  0  0
 25 27  1  0  0  0  0
 27 21  1  6  0  0  0
 28 23  1  0  0  0  0
 29 31  1  6  0  0  0
 29 30  1  0  0  0  0
 30 23  1  1  0  0  0
 30 27  1  0  0  0  0
 31 22  1  0  0  0  0
M  END
>  <MODEL>
9

>  <REMARK>
 VINA RESULT:      -7.0      3.240      8.191
  Name = 
  9 active torsions:
  status: ('A' for Active; 'I' for Inactive)
    1  A    between atoms: C_2  and  C_13
    2  A    between atoms: C_4  and  C_5
    3  A    between atoms: C_4  and  C_12
    4  A    between atoms: C_9  and  C_23
    5  A    between atoms: C_12  and  C_27
    6  A    between atoms: C_15  and  C_20
    7  A    between atoms: C_15  and  C_23
    8  A    between atoms: C_20  and  C_27
    9  A    between atoms: C_30  and  C_31
                            x       y       z     vdW  Elec       q    Type
                         _______ _______ _______ _____ _____    ______ ____

>  <TORSDO>
F 9

$$$$
