=
 OpenBabel11062409223D

 37 41  0  0  1  0  0  0  0  0999 V2000
  160.3890  207.0740  149.2390 C   0  0  0  0  0  1  0  0  0  0  0  0
  161.8310  209.9850  152.9090 C   0  0  2  0  0  3  0  0  0  0  0  0
  159.1260  211.7740  155.4950 C   0  0  1  0  0  0  0  0  0  0  0  0
  159.1640  212.8240  153.9710 S   0  0  0  0  0  0  0  0  0  0  0  0
  161.2590  208.1160  151.3660 C   0  0  2  0  0  3  0  0  0  0  0  0
  160.6380  210.7890  152.6320 N   0  0  1  0  0  0  0  0  0  0  0  0
  162.1950  209.3310  151.6040 C   0  0  1  0  0  3  0  0  0  0  0  0
  160.5480  211.6460  153.7960 C   0  0  2  0  0  3  0  0  0  0  0  0
  161.2810  207.2130  152.5210 N   0  0  0  0  0  2  0  0  0  0  0  0
  161.9430  210.5030  150.6350 C   0  0  1  0  0  3  0  0  0  0  0  0
  162.5870  209.1330  148.5610 C   0  0  0  0  0  2  0  0  0  0  0  0
  160.5870  206.9640  154.7310 O   0  0  0  0  0  1  0  0  0  0  0  0
  160.7150  207.8850  153.6910 C   0  0  1  0  0  3  0  0  0  0  0  0
  161.5760  210.1050  149.1850 C   0  0  2  0  0  3  0  0  0  0  0  0
  161.6340  209.0290  154.1210 C   0  0  2  0  0  3  0  0  0  0  0  0
  160.9850  211.4710  151.3940 C   0  0  1  0  0  3  0  0  0  0  0  0
  161.6110  207.3020  150.1130 C   0  0  2  0  0  3  0  0  0  0  0  0
  159.9990  210.7360  154.8470 C   0  0  1  0  0  3  0  0  0  0  0  0
  162.8160  207.8180  149.3160 C   0  0  0  0  0  2  0  0  0  0  0  0
  161.0880  209.8090  155.3600 C   0  0  0  0  0  2  0  0  0  0  0  0
  159.8180  212.4260  156.6950 C   0  0  0  0  0  2  0  0  0  0  0  0
  160.0470  213.7830  156.4630 O   0  0  0  0  0  1  0  0  0  0  0  0
  157.7460  211.1860  155.7990 C   0  0  0  0  0  2  0  0  0  0  0  0
  155.8370  211.9680  154.5960 O   0  0  0  0  0  0  0  0  0  0  0  0
  156.4580  213.2690  156.4160 N   0  0  0  0  0  1  0  0  0  0  0  0
  156.6270  212.1470  155.5590 C   0  0  0  0  0  0  0  0  0  0  0  0
  161.5080  211.3470  148.2920 C   0  0  0  0  0  2  0  0  0  0  0  0
  162.6940  212.3040  148.4550 C   0  0  1  0  0  3  0  0  0  0  0  0
  163.9380  211.8370  147.7170 C   0  0  0  0  0  1  0  0  0  0  0  0
  162.3550  213.7250  148.1280 C   0  0  0  0  0  0  0  0  0  0  0  0
  161.7700  214.4530  148.9760 O   0  0  0  0  0  0  0  0  0  0  0  0
  162.7090  214.2340  146.8750 O   0  0  0  0  0  0  0  0  0  0  0  0
  161.7970  214.2760  145.7840 C   0  0  0  0  0  2  0  0  0  0  0  0
  162.2340  213.3120  144.6980 C   0  0  0  0  0  1  0  0  0  0  0  0
  159.7010  211.8120  150.6480 C   0  0  0  0  0  2  0  0  0  0  0  0
  159.4840  213.3100  150.6820 C   0  0  0  0  0  2  0  0  0  0  0  0
  158.1230  213.5870  150.5570 O   0  0  0  0  0  1  0  0  0  0  0  0
  1 17  1  0  0  0  0
  2 15  1  0  0  0  0
  3 23  1  0  0  0  0
  3 21  1  0  0  0  0
  4  3  1  0  0  0  0
  5  7  1  0  0  0  0
  5  9  1  0  0  0  0
  6  2  1  0  0  0  0
  6  8  1  0  0  0  0
  7  2  1  0  0  0  0
  8  4  1  0  0  0  0
  8 18  1  0  0  0  0
  9 13  1  0  0  0  0
 10 16  1  0  0  0  0
 10  7  1  0  0  0  0
 11 14  1  0  0  0  0
 11 19  1  0  0  0  0
 13 15  1  0  0  0  0
 13 12  1  0  0  0  0
 14 10  1  0  0  0  0
 15 20  1  0  0  0  0
 16  6  1  0  0  0  0
 17  5  1  0  0  0  0
 18 20  1  0  0  0  0
 18  3  1  0  0  0  0
 19 17  1  0  0  0  0
 22 21  1  0  0  0  0
 24 26  2  0  0  0  0
 26 23  1  0  0  0  0
 26 25  1  0  0  0  0
 27 28  1  0  0  0  0
 27 14  1  0  0  0  0
 29 28  1  0  0  0  0
 30 28  1  0  0  0  0
 30 31  2  0  0  0  0
 32 30  1  0  0  0  0
 33 32  1  0  0  0  0
 34 33  1  0  0  0  0
 35 36  1  0  0  0  0
 35 16  1  0  0  0  0
 37 36  1  0  0  0  0
M  END
>  <MODEL>
1

>  <REMARK>
 VINA RESULT:      -3.4      0.000      0.000
  Name = 
  10 active torsions:
  status: ('A' for Active; 'I' for Inactive)
    1  A    between atoms: C_1  and  C_5
    2  A    between atoms: C_1  and  C_23
    3  A    between atoms: C_2  and  C_6
    4  A    between atoms: C_5  and  O_26
    5  A    between atoms: C_6  and  C_8
    6  A    between atoms: C_8  and  C_19
    7  A    between atoms: C_11  and  O_26
    8  A    between atoms: C_23  and  C_25
    9  A    between atoms: C_27  and  C_33
   10  A    between atoms: C_29  and  C_33
                            x       y       z     vdW  Elec       q    Type
                         _______ _______ _______ _____ _____    ______ ____

>  <TORSDO>
F 10

$$$$
=
 OpenBabel11062409223D

 37 41  0  0  1  0  0  0  0  0999 V2000
  160.1240  205.1550  152.0540 C   0  0  0  0  0  1  0  0  0  0  0  0
  161.5410  208.8520  154.9410 C   0  0  2  0  0  3  0  0  0  0  0  0
  158.9150  211.8150  156.1760 C   0  0  1  0  0  0  0  0  0  0  0  0
  159.4520  212.2740  154.4660 S   0  0  0  0  0  0  0  0  0  0  0  0
  160.8310  206.6930  153.9240 C   0  0  2  0  0  3  0  0  0  0  0  0
  160.6300  209.6990  154.1680 N   0  0  1  0  0  0  0  0  0  0  0  0
  161.9650  207.7500  154.0090 C   0  0  1  0  0  3  0  0  0  0  0  0
  160.5400  210.8980  154.9740 C   0  0  2  0  0  3  0  0  0  0  0  0
  160.4480  206.2370  155.2640 N   0  0  0  0  0  2  0  0  0  0  0  0
  162.1560  208.5540  152.7080 C   0  0  1  0  0  3  0  0  0  0  0  0
  162.8160  206.4850  151.3390 C   0  0  0  0  0  2  0  0  0  0  0  0
  159.3480  206.8580  157.2220 O   0  0  0  0  0  1  0  0  0  0  0  0
  159.8590  207.3440  156.0180 C   0  0  1  0  0  3  0  0  0  0  0  0
  161.9620  207.7590  151.3940 C   0  0  2  0  0  3  0  0  0  0  0  0
  160.9280  208.4010  156.2980 C   0  0  2  0  0  3  0  0  0  0  0  0
  161.3290  209.8620  152.9030 C   0  0  1  0  0  3  0  0  0  0  0  0
  161.1970  205.4620  153.0830 C   0  0  2  0  0  3  0  0  0  0  0  0
  159.6260  210.4930  156.0860 C   0  0  1  0  0  3  0  0  0  0  0  0
  162.6060  205.4790  152.4780 C   0  0  0  0  0  2  0  0  0  0  0  0
  160.3700  209.6290  157.0890 C   0  0  0  0  0  2  0  0  0  0  0  0
  159.5220  212.7100  157.2600 C   0  0  0  0  0  2  0  0  0  0  0  0
  159.8700  213.9580  156.7410 O   0  0  0  0  0  1  0  0  0  0  0  0
  157.4060  211.5940  156.3060 C   0  0  0  0  0  2  0  0  0  0  0  0
  156.5950  213.8130  155.9600 O   0  0  0  0  0  0  0  0  0  0  0  0
  155.8130  212.2290  154.4520 N   0  0  0  0  0  1  0  0  0  0  0  0
  156.5940  212.6140  155.5780 C   0  0  0  0  0  0  0  0  0  0  0  0
  162.3330  208.6250  150.1870 C   0  0  0  0  0  2  0  0  0  0  0  0
  161.3940  208.4640  148.9860 C   0  0  1  0  0  3  0  0  0  0  0  0
  161.6120  209.5230  147.9180 C   0  0  0  0  0  1  0  0  0  0  0  0
  161.4060  207.0830  148.4080 C   0  0  0  0  0  0  0  0  0  0  0  0
  160.4780  206.2720  148.6760 O   0  0  0  0  0  0  0  0  0  0  0  0
  162.4530  206.7130  147.5600 O   0  0  0  0  0  0  0  0  0  0  0  0
  162.4100  205.5330  146.7660 C   0  0  0  0  0  2  0  0  0  0  0  0
  161.5940  205.7740  145.5110 C   0  0  0  0  0  1  0  0  0  0  0  0
  160.3040  210.1360  151.8090 C   0  0  0  0  0  2  0  0  0  0  0  0
  160.4290  211.5750  151.3540 C   0  0  0  0  0  2  0  0  0  0  0  0
  161.5280  211.7020  150.5070 O   0  0  0  0  0  1  0  0  0  0  0  0
  1 17  1  0  0  0  0
  2 15  1  0  0  0  0
  3 23  1  0  0  0  0
  3 21  1  0  0  0  0
  4  8  1  0  0  0  0
  4  3  1  0  0  0  0
  5  7  1  0  0  0  0
  5  9  1  0  0  0  0
  6  2  1  0  0  0  0
  6  8  1  0  0  0  0
  7  2  1  0  0  0  0
  8 18  1  0  0  0  0
  9 13  1  0  0  0  0
 10 16  1  0  0  0  0
 10  7  1  0  0  0  0
 11 14  1  0  0  0  0
 11 19  1  0  0  0  0
 13 15  1  0  0  0  0
 13 12  1  0  0  0  0
 14 10  1  0  0  0  0
 15 20  1  0  0  0  0
 16  6  1  0  0  0  0
 17  5  1  0  0  0  0
 18  3  1  0  0  0  0
 18 20  1  0  0  0  0
 19 17  1  0  0  0  0
 22 21  1  0  0  0  0
 25 26  1  0  0  0  0
 26 24  2  0  0  0  0
 26 23  1  0  0  0  0
 27 14  1  0  0  0  0
 28 27  1  0  0  0  0
 29 28  1  0  0  0  0
 30 31  2  0  0  0  0
 30 28  1  0  0  0  0
 32 30  1  0  0  0  0
 33 32  1  0  0  0  0
 34 33  1  0  0  0  0
 35 16  1  0  0  0  0
 36 35  1  0  0  0  0
 37 36  1  0  0  0  0
M  END
>  <MODEL>
2

>  <REMARK>
 VINA RESULT:      -3.1      2.476      3.763
  Name = 
  10 active torsions:
  status: ('A' for Active; 'I' for Inactive)
    1  A    between atoms: C_1  and  C_5
    2  A    between atoms: C_1  and  C_23
    3  A    between atoms: C_2  and  C_6
    4  A    between atoms: C_5  and  O_26
    5  A    between atoms: C_6  and  C_8
    6  A    between atoms: C_8  and  C_19
    7  A    between atoms: C_11  and  O_26
    8  A    between atoms: C_23  and  C_25
    9  A    between atoms: C_27  and  C_33
   10  A    between atoms: C_29  and  C_33
                            x       y       z     vdW  Elec       q    Type
                         _______ _______ _______ _____ _____    ______ ____

>  <TORSDO>
F 10

$$$$
=
 OpenBabel11062409223D

 37 41  0  0  1  0  0  0  0  0999 V2000
  159.3360  204.6900  152.5470 C   0  0  0  0  0  1  0  0  0  0  0  0
  162.6390  207.7840  150.6660 C   0  0  2  0  0  3  0  0  0  0  0  0
  161.5310  211.2850  148.7390 C   0  0  1  0  0  0  0  0  0  0  0  0
  161.3470  209.9250  147.4970 S   0  0  0  0  0  0  0  0  0  0  0  0
  161.1060  206.4260  152.0840 C   0  0  2  0  0  3  0  0  0  0  0  0
  161.6870  208.0100  149.5760 N   0  0  1  0  0  0  0  0  0  0  0  0
  162.3610  206.3930  151.1700 C   0  0  1  0  0  3  0  0  0  0  0  0
  162.2210  209.1840  148.9180 C   0  0  2  0  0  3  0  0  0  0  0  0
  161.2630  207.4310  153.1400 N   0  0  0  0  0  2  0  0  0  0  0  0
  162.1290  205.6630  149.8330 C   0  0  1  0  0  3  0  0  0  0  0  0
  161.6560  203.4080  150.9660 C   0  0  0  0  0  2  0  0  0  0  0  0
  161.2980  209.7210  153.5710 O   0  0  0  0  0  1  0  0  0  0  0  0
  161.3190  208.7700  152.5510 C   0  0  1  0  0  3  0  0  0  0  0  0
  161.2110  204.4180  149.9000 C   0  0  2  0  0  3  0  0  0  0  0  0
  162.6020  208.9160  151.7320 C   0  0  2  0  0  3  0  0  0  0  0  0
  161.7760  206.7800  148.8040 C   0  0  1  0  0  3  0  0  0  0  0  0
  160.7900  205.0780  152.7470 C   0  0  2  0  0  3  0  0  0  0  0  0
  161.8260  210.2980  149.8330 C   0  0  1  0  0  3  0  0  0  0  0  0
  161.7570  203.9380  152.4010 C   0  0  0  0  0  2  0  0  0  0  0  0
  162.7290  210.3190  151.0550 C   0  0  0  0  0  2  0  0  0  0  0  0
  162.7300  212.1960  148.4630 C   0  0  0  0  0  2  0  0  0  0  0  0
  162.6590  212.7400  147.1790 O   0  0  0  0  0  1  0  0  0  0  0  0
  160.2250  212.0250  149.0350 C   0  0  0  0  0  2  0  0  0  0  0  0
  160.7790  214.2640  149.6510 O   0  0  0  0  0  0  0  0  0  0  0  0
  160.0890  212.9010  151.4000 N   0  0  0  0  0  1  0  0  0  0  0  0
  160.3830  213.1310  150.0270 C   0  0  0  0  0  0  0  0  0  0  0  0
  161.1910  203.6970  148.5500 C   0  0  0  0  0  2  0  0  0  0  0  0
  161.0070  202.1780  148.6510 C   0  0  1  0  0  3  0  0  0  0  0  0
  159.6930  201.7830  149.3040 C   0  0  0  0  0  1  0  0  0  0  0  0
  161.2150  201.4700  147.3490 C   0  0  0  0  0  0  0  0  0  0  0  0
  161.4580  200.2320  147.3280 O   0  0  0  0  0  0  0  0  0  0  0  0
  161.1240  202.1980  146.1600 O   0  0  0  0  0  0  0  0  0  0  0  0
  160.1100  201.9550  145.1920 C   0  0  0  0  0  2  0  0  0  0  0  0
  159.7160  203.2490  144.5080 C   0  0  0  0  0  1  0  0  0  0  0  0
  160.4610  206.5710  148.0640 C   0  0  0  0  0  2  0  0  0  0  0  0
  160.7430  206.3580  146.5910 C   0  0  0  0  0  2  0  0  0  0  0  0
  162.1140  206.2060  146.3970 O   0  0  0  0  0  1  0  0  0  0  0  0
  1 17  1  0  0  0  0
  2  7  1  0  0  0  0
  2 15  1  0  0  0  0
  3 23  1  0  0  0  0
  3 18  1  0  0  0  0
  4  3  1  0  0  0  0
  4  8  1  0  0  0  0
  5 17  1  0  0  0  0
  5  9  1  0  0  0  0
  6  2  1  0  0  0  0
  7  5  1  0  0  0  0
  8  6  1  0  0  0  0
  8 18  1  0  0  0  0
 10 14  1  0  0  0  0
 10  7  1  0  0  0  0
 11 19  1  0  0  0  0
 13  9  1  0  0  0  0
 13 12  1  0  0  0  0
 14 11  1  0  0  0  0
 15 13  1  0  0  0  0
 16  6  1  0  0  0  0
 16 10  1  0  0  0  0
 18 20  1  0  0  0  0
 19 17  1  0  0  0  0
 20 15  1  0  0  0  0
 21  3  1  0  0  0  0
 22 21  1  0  0  0  0
 23 26  1  0  0  0  0
 24 26  2  0  0  0  0
 26 25  1  0  0  0  0
 27 28  1  0  0  0  0
 27 14  1  0  0  0  0
 28 29  1  0  0  0  0
 30 28  1  0  0  0  0
 31 30  2  0  0  0  0
 32 30  1  0  0  0  0
 33 32  1  0  0  0  0
 34 33  1  0  0  0  0
 35 16  1  0  0  0  0
 36 35  1  0  0  0  0
 37 36  1  0  0  0  0
M  END
>  <MODEL>
3

>  <REMARK>
 VINA RESULT:      -2.5      4.097      7.416
  Name = 
  10 active torsions:
  status: ('A' for Active; 'I' for Inactive)
    1  A    between atoms: C_1  and  C_5
    2  A    between atoms: C_1  and  C_23
    3  A    between atoms: C_2  and  C_6
    4  A    between atoms: C_5  and  O_26
    5  A    between atoms: C_6  and  C_8
    6  A    between atoms: C_8  and  C_19
    7  A    between atoms: C_11  and  O_26
    8  A    between atoms: C_23  and  C_25
    9  A    between atoms: C_27  and  C_33
   10  A    between atoms: C_29  and  C_33
                            x       y       z     vdW  Elec       q    Type
                         _______ _______ _______ _____ _____    ______ ____

>  <TORSDO>
F 10

$$$$
=
 OpenBabel11062409223D

 37 41  0  0  1  0  0  0  0  0999 V2000
  163.6670  206.2180  147.8680 C   0  0  0  0  0  1  0  0  0  0  0  0
  160.4620  208.4890  150.7960 C   0  0  2  0  0  3  0  0  0  0  0  0
  161.5280  209.9220  154.5400 C   0  0  1  0  0  0  0  0  0  0  0  0
  161.2070  208.1110  154.7460 S   0  0  0  0  0  0  0  0  0  0  0  0
  162.0960  207.7980  149.0500 C   0  0  2  0  0  3  0  0  0  0  0  0
  161.1340  207.8230  151.9140 N   0  0  1  0  0  0  0  0  0  0  0  0
  160.6610  207.5910  149.6060 C   0  0  1  0  0  3  0  0  0  0  0  0
  160.6200  208.5300  153.0690 C   0  0  2  0  0  3  0  0  0  0  0  0
  162.3480  209.2180  148.7840 N   0  0  0  0  0  2  0  0  0  0  0  0
  160.4490  206.2150  150.2660 C   0  0  1  0  0  3  0  0  0  0  0  0
  160.8720  204.9270  148.0860 C   0  0  0  0  0  2  0  0  0  0  0  0
  162.7380  211.2820  149.7920 O   0  0  0  0  0  1  0  0  0  0  0  0
  162.3320  209.9700  150.0390 C   0  0  1  0  0  3  0  0  0  0  0  0
  161.1730  205.0280  149.5880 C   0  0  2  0  0  3  0  0  0  0  0  0
  160.9180  209.9660  150.6230 C   0  0  2  0  0  3  0  0  0  0  0  0
  160.6860  206.4450  151.7900 C   0  0  1  0  0  3  0  0  0  0  0  0
  162.3770  207.0110  147.7620 C   0  0  2  0  0  3  0  0  0  0  0  0
  161.3810  209.8170  153.0470 C   0  0  1  0  0  3  0  0  0  0  0  0
  161.2060  206.1650  147.2440 C   0  0  0  0  0  2  0  0  0  0  0  0
  160.8230  210.7390  151.9780 C   0  0  0  0  0  2  0  0  0  0  0  0
  160.4370  210.8020  155.1540 C   0  0  0  0  0  2  0  0  0  0  0  0
  159.5110  210.0310  155.8590 O   0  0  0  0  0  1  0  0  0  0  0  0
  162.9570  210.3360  154.9010 C   0  0  0  0  0  2  0  0  0  0  0  0
  163.7830  211.4800  156.8270 O   0  0  0  0  0  0  0  0  0  0  0  0
  162.7130  209.4650  157.2580 N   0  0  0  0  0  1  0  0  0  0  0  0
  163.1790  210.4740  156.3710 C   0  0  0  0  0  0  0  0  0  0  0  0
  160.7560  203.7060  150.2390 C   0  0  0  0  0  2  0  0  0  0  0  0
  161.3960  202.4650  149.6060 C   0  0  1  0  0  3  0  0  0  0  0  0
  161.9850  201.5130  150.6340 C   0  0  0  0  0  1  0  0  0  0  0  0
  160.4880  201.7550  148.6500 C   0  0  0  0  0  0  0  0  0  0  0  0
  159.2820  201.5440  148.9540 O   0  0  0  0  0  0  0  0  0  0  0  0
  160.9940  201.3450  147.4140 O   0  0  0  0  0  0  0  0  0  0  0  0
  160.8330  202.1170  146.2300 C   0  0  0  0  0  2  0  0  0  0  0  0
  160.0620  201.3270  145.1900 C   0  0  0  0  0  1  0  0  0  0  0  0
  161.7330  205.5320  152.4170 C   0  0  0  0  0  2  0  0  0  0  0  0
  161.1000  204.7400  153.5410 C   0  0  0  0  0  2  0  0  0  0  0  0
  160.7360  203.4780  153.0740 O   0  0  0  0  0  1  0  0  0  0  0  0
  2  6  1  0  0  0  0
  3  4  1  0  0  0  0
  3 23  1  0  0  0  0
  3 21  1  0  0  0  0
  5  7  1  0  0  0  0
  6  8  1  0  0  0  0
  7 10  1  0  0  0  0
  7  2  1  0  0  0  0
  8  4  1  0  0  0  0
  9  5  1  0  0  0  0
  9 13  1  0  0  0  0
 10 16  1  0  0  0  0
 11 14  1  0  0  0  0
 12 13  1  0  0  0  0
 13 15  1  0  0  0  0
 14 27  1  0  0  0  0
 14 10  1  0  0  0  0
 15  2  1  0  0  0  0
 15 20  1  0  0  0  0
 16  6  1  0  0  0  0
 16 35  1  0  0  0  0
 17  1  1  0  0  0  0
 17  5  1  0  0  0  0
 18  8  1  0  0  0  0
 18  3  1  0  0  0  0
 19 17  1  0  0  0  0
 19 11  1  0  0  0  0
 20 18  1  0  0  0  0
 21 22  1  0  0  0  0
 23 26  1  0  0  0  0
 26 24  2  0  0  0  0
 26 25  1  0  0  0  0
 28 27  1  0  0  0  0
 28 29  1  0  0  0  0
 30 31  2  0  0  0  0
 30 28  1  0  0  0  0
 32 30  1  0  0  0  0
 33 32  1  0  0  0  0
 34 33  1  0  0  0  0
 35 36  1  0  0  0  0
 37 36  1  0  0  0  0
M  END
>  <MODEL>
4

>  <REMARK>
 VINA RESULT:      -2.2      3.779      7.080
  Name = 
  10 active torsions:
  status: ('A' for Active; 'I' for Inactive)
    1  A    between atoms: C_1  and  C_5
    2  A    between atoms: C_1  and  C_23
    3  A    between atoms: C_2  and  C_6
    4  A    between atoms: C_5  and  O_26
    5  A    between atoms: C_6  and  C_8
    6  A    between atoms: C_8  and  C_19
    7  A    between atoms: C_11  and  O_26
    8  A    between atoms: C_23  and  C_25
    9  A    between atoms: C_27  and  C_33
   10  A    between atoms: C_29  and  C_33
                            x       y       z     vdW  Elec       q    Type
                         _______ _______ _______ _____ _____    ______ ____

>  <TORSDO>
F 10

$$$$
=
 OpenBabel11062409223D

 37 41  0  0  1  0  0  0  0  0999 V2000
  159.3850  210.8460  152.9290 C   0  0  0  0  0  1  0  0  0  0  0  0
  162.6600  208.2520  150.3670 C   0  0  2  0  0  3  0  0  0  0  0  0
  161.5460  205.7930  147.2180 C   0  0  1  0  0  0  0  0  0  0  0  0
  161.2370  204.8290  148.7670 S   0  0  0  0  0  0  0  0  0  0  0  0
  161.1780  209.9770  151.3820 C   0  0  2  0  0  3  0  0  0  0  0  0
  161.6480  207.1960  150.2960 N   0  0  1  0  0  0  0  0  0  0  0  0
  162.3690  209.0130  151.6320 C   0  0  1  0  0  3  0  0  0  0  0  0
  162.1770  206.3070  149.2820 C   0  0  2  0  0  3  0  0  0  0  0  0
  161.4360  210.8240  150.2130 N   0  0  0  0  0  2  0  0  0  0  0  0
  162.0280  207.8450  152.5770 C   0  0  1  0  0  3  0  0  0  0  0  0
  161.5550  209.3900  154.5720 C   0  0  0  0  0  2  0  0  0  0  0  0
  161.5750  210.8330  147.8870 O   0  0  0  0  0  1  0  0  0  0  0  0
  161.4980  210.0010  149.0040 C   0  0  1  0  0  3  0  0  0  0  0  0
  161.0750  208.1870  153.7480 C   0  0  2  0  0  3  0  0  0  0  0  0
  162.7300  209.0960  149.0620 C   0  0  2  0  0  3  0  0  0  0  0  0
  161.6460  206.6540  151.6460 C   0  0  1  0  0  3  0  0  0  0  0  0
  160.8620  210.8880  152.5760 C   0  0  2  0  0  3  0  0  0  0  0  0
  161.8780  207.0280  148.0070 C   0  0  1  0  0  3  0  0  0  0  0  0
  161.7660  210.6990  153.8000 C   0  0  0  0  0  2  0  0  0  0  0  0
  162.8580  208.1710  147.8090 C   0  0  0  0  0  2  0  0  0  0  0  0
  162.7540  205.2890  146.4240 C   0  0  0  0  0  2  0  0  0  0  0  0
  163.0490  203.9640  146.7500 O   0  0  0  0  0  1  0  0  0  0  0  0
  160.2860  206.0260  146.3800 C   0  0  0  0  0  2  0  0  0  0  0  0
  160.8360  206.2700  144.0690 O   0  0  0  0  0  0  0  0  0  0  0  0
  160.0220  204.1820  144.6750 N   0  0  0  0  0  1  0  0  0  0  0  0
  160.4040  205.5180  144.9800 C   0  0  0  0  0  0  0  0  0  0  0  0
  160.9440  206.9920  154.6970 C   0  0  0  0  0  2  0  0  0  0  0  0
  160.4950  207.3620  156.1150 C   0  0  1  0  0  3  0  0  0  0  0  0
  161.6560  207.7090  157.0320 C   0  0  0  0  0  1  0  0  0  0  0  0
  159.4330  208.4170  156.1420 C   0  0  0  0  0  0  0  0  0  0  0  0
  158.3910  208.2900  155.4420 O   0  0  0  0  0  0  0  0  0  0  0  0
  159.6090  209.5340  156.9620 O   0  0  0  0  0  0  0  0  0  0  0  0
  158.9260  210.7610  156.7360 C   0  0  0  0  0  2  0  0  0  0  0  0
  159.9150  211.9090  156.6780 C   0  0  0  0  0  1  0  0  0  0  0  0
  160.2790  206.0400  151.9250 C   0  0  0  0  0  2  0  0  0  0  0  0
  160.4310  204.5470  152.1250 C   0  0  0  0  0  2  0  0  0  0  0  0
  161.7780  204.2000  152.0330 O   0  0  0  0  0  1  0  0  0  0  0  0
  2  7  1  0  0  0  0
  3 18  1  0  0  0  0
  3  4  1  0  0  0  0
  4  8  1  0  0  0  0
  5  7  1  0  0  0  0
  5 17  1  0  0  0  0
  6  2  1  0  0  0  0
  6 16  1  0  0  0  0
  7 10  1  0  0  0  0
  8  6  1  0  0  0  0
  9  5  1  0  0  0  0
 10 14  1  0  0  0  0
 12 13  1  0  0  0  0
 13 15  1  0  0  0  0
 13  9  1  0  0  0  0
 14 11  1  0  0  0  0
 14 27  1  0  0  0  0
 15  2  1  0  0  0  0
 16 35  1  0  0  0  0
 16 10  1  0  0  0  0
 17  1  1  0  0  0  0
 17 19  1  0  0  0  0
 18  8  1  0  0  0  0
 19 11  1  0  0  0  0
 20 18  1  0  0  0  0
 20 15  1  0  0  0  0
 21 22  1  0  0  0  0
 21  3  1  0  0  0  0
 23  3  1  0  0  0  0
 24 26  2  0  0  0  0
 25 26  1  0  0  0  0
 26 23  1  0  0  0  0
 27 28  1  0  0  0  0
 28 30  1  0  0  0  0
 28 29  1  0  0  0  0
 30 32  1  0  0  0  0
 31 30  2  0  0  0  0
 33 32  1  0  0  0  0
 34 33  1  0  0  0  0
 35 36  1  0  0  0  0
 37 36  1  0  0  0  0
M  END
>  <MODEL>
5

>  <REMARK>
 VINA RESULT:      -1.8      3.666      8.819
  Name = 
  10 active torsions:
  status: ('A' for Active; 'I' for Inactive)
    1  A    between atoms: C_1  and  C_5
    2  A    between atoms: C_1  and  C_23
    3  A    between atoms: C_2  and  C_6
    4  A    between atoms: C_5  and  O_26
    5  A    between atoms: C_6  and  C_8
    6  A    between atoms: C_8  and  C_19
    7  A    between atoms: C_11  and  O_26
    8  A    between atoms: C_23  and  C_25
    9  A    between atoms: C_27  and  C_33
   10  A    between atoms: C_29  and  C_33
                            x       y       z     vdW  Elec       q    Type
                         _______ _______ _______ _____ _____    ______ ____

>  <TORSDO>
F 10

$$$$
=
 OpenBabel11062409223D

 37 41  0  0  1  0  0  0  0  0999 V2000
  159.4770  204.0560  151.6440 C   0  0  0  0  0  1  0  0  0  0  0  0
  161.9620  207.6560  153.8520 C   0  0  2  0  0  3  0  0  0  0  0  0
  160.2310  211.3280  154.7040 C   0  0  1  0  0  0  0  0  0  0  0  0
  160.7300  211.3870  152.9230 S   0  0  0  0  0  0  0  0  0  0  0  0
  160.6760  205.6210  153.2180 C   0  0  2  0  0  3  0  0  0  0  0  0
  161.2250  208.5840  152.9910 N   0  0  1  0  0  0  0  0  0  0  0  0
  162.0340  206.3610  153.0900 C   0  0  1  0  0  3  0  0  0  0  0  0
  161.4890  209.8710  153.6000 C   0  0  2  0  0  3  0  0  0  0  0  0
  160.2980  205.4730  154.6270 N   0  0  0  0  0  2  0  0  0  0  0  0
  162.3130  206.8960  151.6720 C   0  0  1  0  0  3  0  0  0  0  0  0
  162.3470  204.5530  150.6230 C   0  0  0  0  0  2  0  0  0  0  0  0
  159.5350  206.6240  156.5040 O   0  0  0  0  0  1  0  0  0  0  0  0
  160.0530  206.7880  155.2190 C   0  0  1  0  0  3  0  0  0  0  0  0
  161.8320  205.9950  150.5090 C   0  0  2  0  0  3  0  0  0  0  0  0
  161.3640  207.5740  155.2860 C   0  0  2  0  0  3  0  0  0  0  0  0
  161.8430  208.3830  151.6890 C   0  0  1  0  0  3  0  0  0  0  0  0
  160.6680  204.2290  152.5690 C   0  0  2  0  0  3  0  0  0  0  0  0
  160.5930  209.8720  154.7960 C   0  0  1  0  0  3  0  0  0  0  0  0
  161.9890  203.8070  151.9140 C   0  0  0  0  0  2  0  0  0  0  0  0
  161.1810  209.0020  155.8940 C   0  0  0  0  0  2  0  0  0  0  0  0
  161.1170  212.1890  155.6080 C   0  0  0  0  0  2  0  0  0  0  0  0
  160.4500  212.5260  156.7870 O   0  0  0  0  0  1  0  0  0  0  0  0
  158.7280  211.5120  154.9250 C   0  0  0  0  0  2  0  0  0  0  0  0
  157.4520  212.3910  153.1080 O   0  0  0  0  0  0  0  0  0  0  0  0
  158.3780  213.9810  154.5240 N   0  0  0  0  0  1  0  0  0  0  0  0
  158.1450  212.6340  154.1290 C   0  0  0  0  0  0  0  0  0  0  0  0
  162.3070  206.5570  149.1670 C   0  0  0  0  0  2  0  0  0  0  0  0
  161.4670  206.1100  147.9650 C   0  0  1  0  0  3  0  0  0  0  0  0
  160.9410  207.2760  147.1440 C   0  0  0  0  0  1  0  0  0  0  0  0
  162.1550  205.0940  147.1080 C   0  0  0  0  0  0  0  0  0  0  0  0
  162.7260  205.4430  146.0390 O   0  0  0  0  0  0  0  0  0  0  0  0
  162.1640  203.7580  147.5180 O   0  0  0  0  0  0  0  0  0  0  0  0
  161.2190  202.8080  147.0410 C   0  0  0  0  0  2  0  0  0  0  0  0
  160.9450  201.7620  148.1050 C   0  0  0  0  0  1  0  0  0  0  0  0
  160.8340  208.7450  150.6070 C   0  0  0  0  0  2  0  0  0  0  0  0
  161.4860  209.6710  149.6020 C   0  0  0  0  0  2  0  0  0  0  0  0
  162.5420  210.3480  150.2090 O   0  0  0  0  0  1  0  0  0  0  0  0
  1 17  1  0  0  0  0
  2 15  1  0  0  0  0
  3 18  1  0  0  0  0
  3 23  1  0  0  0  0
  3 21  1  0  0  0  0
  4  8  1  0  0  0  0
  4  3  1  0  0  0  0
  5  9  1  0  0  0  0
  6  8  1  0  0  0  0
  6  2  1  0  0  0  0
  7  5  1  0  0  0  0
  7  2  1  0  0  0  0
  8 18  1  0  0  0  0
  9 13  1  0  0  0  0
 10 16  1  0  0  0  0
 10  7  1  0  0  0  0
 11 19  1  0  0  0  0
 13 15  1  0  0  0  0
 13 12  1  0  0  0  0
 14 11  1  0  0  0  0
 14 10  1  0  0  0  0
 15 20  1  0  0  0  0
 16  6  1  0  0  0  0
 17  5  1  0  0  0  0
 18 20  1  0  0  0  0
 19 17  1  0  0  0  0
 21 22  1  0  0  0  0
 24 26  2  0  0  0  0
 26 25  1  0  0  0  0
 26 23  1  0  0  0  0
 27 14  1  0  0  0  0
 28 27  1  0  0  0  0
 29 28  1  0  0  0  0
 30 32  1  0  0  0  0
 30 28  1  0  0  0  0
 31 30  2  0  0  0  0
 33 32  1  0  0  0  0
 33 34  1  0  0  0  0
 35 16  1  0  0  0  0
 36 37  1  0  0  0  0
 36 35  1  0  0  0  0
M  END
>  <MODEL>
6

>  <REMARK>
 VINA RESULT:      -1.5      3.125      5.002
  Name = 
  10 active torsions:
  status: ('A' for Active; 'I' for Inactive)
    1  A    between atoms: C_1  and  C_5
    2  A    between atoms: C_1  and  C_23
    3  A    between atoms: C_2  and  C_6
    4  A    between atoms: C_5  and  O_26
    5  A    between atoms: C_6  and  C_8
    6  A    between atoms: C_8  and  C_19
    7  A    between atoms: C_11  and  O_26
    8  A    between atoms: C_23  and  C_25
    9  A    between atoms: C_27  and  C_33
   10  A    between atoms: C_29  and  C_33
                            x       y       z     vdW  Elec       q    Type
                         _______ _______ _______ _____ _____    ______ ____

>  <TORSDO>
F 10

$$$$
=
 OpenBabel11062409223D

 37 41  0  0  1  0  0  0  0  0999 V2000
  159.4290  212.7000  147.8280 C   0  0  0  0  0  1  0  0  0  0  0  0
  162.1640  210.1430  150.9900 C   0  0  2  0  0  3  0  0  0  0  0  0
  160.9570  206.4610  152.4710 C   0  0  1  0  0  0  0  0  0  0  0  0
  160.0810  207.7420  153.4790 S   0  0  0  0  0  0  0  0  0  0  0  0
  161.1230  211.2660  149.0260 C   0  0  2  0  0  3  0  0  0  0  0  0
  160.9070  209.7370  151.6240 N   0  0  1  0  0  0  0  0  0  0  0  0
  161.8900  211.4810  150.3580 C   0  0  1  0  0  3  0  0  0  0  0  0
  161.3170  208.6510  152.4890 C   0  0  2  0  0  3  0  0  0  0  0  0
  161.8440  210.3260  148.1610 N   0  0  0  0  0  2  0  0  0  0  0  0
  161.0340  212.1310  151.4630 C   0  0  1  0  0  3  0  0  0  0  0  0
  160.6960  214.3050  150.1400 C   0  0  0  0  0  2  0  0  0  0  0  0
  162.4130  208.0840  147.8770 O   0  0  0  0  0  1  0  0  0  0  0  0
  161.8760  209.0010  148.7810 C   0  0  1  0  0  3  0  0  0  0  0  0
  160.0310  213.2090  150.9860 C   0  0  2  0  0  3  0  0  0  0  0  0
  162.7340  209.0460  150.0460 C   0  0  2  0  0  3  0  0  0  0  0  0
  160.4850  210.9460  152.3150 C   0  0  1  0  0  3  0  0  0  0  0  0
  160.8850  212.5600  148.2350 C   0  0  2  0  0  3  0  0  0  0  0  0
  161.5000  207.5100  151.5400 C   0  0  1  0  0  3  0  0  0  0  0  0
  161.4400  213.8340  148.8850 C   0  0  0  0  0  2  0  0  0  0  0  0
  162.8040  207.6660  150.7770 C   0  0  0  0  0  2  0  0  0  0  0  0
  162.0770  205.7510  153.2360 C   0  0  0  0  0  2  0  0  0  0  0  0
  161.8430  205.7890  154.6120 O   0  0  0  0  0  1  0  0  0  0  0  0
  160.0120  205.5250  151.7140 C   0  0  0  0  0  2  0  0  0  0  0  0
  160.2590  205.8220  149.3570 O   0  0  0  0  0  0  0  0  0  0  0  0
  161.3160  203.9500  150.2330 N   0  0  0  0  0  1  0  0  0  0  0  0
  160.5260  205.1250  150.3700 C   0  0  0  0  0  0  0  0  0  0  0  0
  159.3630  213.8850  152.1860 C   0  0  0  0  0  2  0  0  0  0  0  0
  157.9680  214.4510  151.8930 C   0  0  1  0  0  3  0  0  0  0  0  0
  157.3470  213.8710  150.6330 C   0  0  0  0  0  1  0  0  0  0  0  0
  157.0370  214.3620  153.0620 C   0  0  0  0  0  0  0  0  0  0  0  0
  155.7970  214.2260  152.8800 O   0  0  0  0  0  0  0  0  0  0  0  0
  157.5660  214.4190  154.3540 O   0  0  0  0  0  0  0  0  0  0  0  0
  156.7860  214.1340  155.5100 C   0  0  0  0  0  2  0  0  0  0  0  0
  157.5920  213.3100  156.4950 C   0  0  0  0  0  1  0  0  0  0  0  0
  158.9690  210.9180  152.4660 C   0  0  0  0  0  2  0  0  0  0  0  0
  158.6060  211.1430  153.9190 C   0  0  0  0  0  2  0  0  0  0  0  0
  159.7690  211.2780  154.6740 O   0  0  0  0  0  1  0  0  0  0  0  0
  1 17  1  0  0  0  0
  2  6  1  0  0  0  0
  3 21  1  0  0  0  0
  3  4  1  0  0  0  0
  5  7  1  0  0  0  0
  6 16  1  0  0  0  0
  6  8  1  0  0  0  0
  7  2  1  0  0  0  0
  7 10  1  0  0  0  0
  8  4  1  0  0  0  0
  9 13  1  0  0  0  0
  9  5  1  0  0  0  0
 10 16  1  0  0  0  0
 11 14  1  0  0  0  0
 12 13  1  0  0  0  0
 13 15  1  0  0  0  0
 14 10  1  0  0  0  0
 14 27  1  0  0  0  0
 15 20  1  0  0  0  0
 15  2  1  0  0  0  0
 16 35  1  0  0  0  0
 17 19  1  0  0  0  0
 17  5  1  0  0  0  0
 18  3  1  0  0  0  0
 18  8  1  0  0  0  0
 19 11  1  0  0  0  0
 20 18  1  0  0  0  0
 21 22  1  0  0  0  0
 23  3  1  0  0  0  0
 24 26  2  0  0  0  0
 25 26  1  0  0  0  0
 26 23  1  0  0  0  0
 28 27  1  0  0  0  0
 28 30  1  0  0  0  0
 29 28  1  0  0  0  0
 30 32  1  0  0  0  0
 31 30  2  0  0  0  0
 32 33  1  0  0  0  0
 33 34  1  0  0  0  0
 35 36  1  0  0  0  0
 36 37  1  0  0  0  0
M  END
>  <MODEL>
7

>  <REMARK>
 VINA RESULT:      -1.1      2.847      6.548
  Name = 
  10 active torsions:
  status: ('A' for Active; 'I' for Inactive)
    1  A    between atoms: C_1  and  C_5
    2  A    between atoms: C_1  and  C_23
    3  A    between atoms: C_2  and  C_6
    4  A    between atoms: C_5  and  O_26
    5  A    between atoms: C_6  and  C_8
    6  A    between atoms: C_8  and  C_19
    7  A    between atoms: C_11  and  O_26
    8  A    between atoms: C_23  and  C_25
    9  A    between atoms: C_27  and  C_33
   10  A    between atoms: C_29  and  C_33
                            x       y       z     vdW  Elec       q    Type
                         _______ _______ _______ _____ _____    ______ ____

>  <TORSDO>
F 10

$$$$
=
 OpenBabel11062409223D

 37 41  0  0  1  0  0  0  0  0999 V2000
  158.4350  212.0020  152.3960 C   0  0  0  0  0  1  0  0  0  0  0  0
  162.0090  208.6690  152.7600 C   0  0  2  0  0  3  0  0  0  0  0  0
  161.3980  204.6720  151.8330 C   0  0  1  0  0  0  0  0  0  0  0  0
  160.7540  204.9150  153.5510 S   0  0  0  0  0  0  0  0  0  0  0  0
  160.4460  210.5020  152.1300 C   0  0  2  0  0  3  0  0  0  0  0  0
  160.9800  207.7330  153.2160 N   0  0  1  0  0  0  0  0  0  0  0  0
  161.5200  210.0370  153.1500 C   0  0  1  0  0  3  0  0  0  0  0  0
  161.6490  206.4510  153.1370 C   0  0  2  0  0  3  0  0  0  0  0  0
  160.9620  210.4130  150.7610 N   0  0  0  0  0  2  0  0  0  0  0  0
  160.9500  209.7310  154.5490 C   0  0  1  0  0  3  0  0  0  0  0  0
  160.1810  212.1500  154.9370 C   0  0  0  0  0  2  0  0  0  0  0  0
  161.5410  208.9310  149.0580 O   0  0  0  0  0  1  0  0  0  0  0  0
  161.2130  209.0140  150.4120 C   0  0  1  0  0  3  0  0  0  0  0  0
  159.8090  210.6630  155.0250 C   0  0  2  0  0  3  0  0  0  0  0  0
  162.3670  208.4740  151.2580 C   0  0  2  0  0  3  0  0  0  0  0  0
  160.6950  208.1930  154.5670 C   0  0  1  0  0  3  0  0  0  0  0  0
  159.9520  211.9360  152.3650 C   0  0  2  0  0  3  0  0  0  0  0  0
  161.6330  206.1490  151.6730 C   0  0  1  0  0  3  0  0  0  0  0  0
  160.5970  212.6630  153.5530 C   0  0  0  0  0  2  0  0  0  0  0  0
  162.6860  206.9740  150.9550 C   0  0  0  0  0  2  0  0  0  0  0  0
  162.7090  203.8840  151.7850 C   0  0  0  0  0  2  0  0  0  0  0  0
  162.4650  202.5180  151.6340 O   0  0  0  0  0  1  0  0  0  0  0  0
  160.3340  204.1980  150.8420 C   0  0  0  0  0  2  0  0  0  0  0  0
  160.1390  205.7700  149.0550 O   0  0  0  0  0  0  0  0  0  0  0  0
  161.3150  203.8350  148.5430 N   0  0  0  0  0  1  0  0  0  0  0  0
  160.5810  204.6580  149.4420 C   0  0  0  0  0  0  0  0  0  0  0  0
  159.4430  210.3570  156.4800 C   0  0  0  0  0  2  0  0  0  0  0  0
  158.4830  211.3720  157.1130 C   0  0  1  0  0  3  0  0  0  0  0  0
  159.0950  212.7550  157.2590 C   0  0  0  0  0  1  0  0  0  0  0  0
  157.1490  211.4240  156.4370 C   0  0  0  0  0  0  0  0  0  0  0  0
  156.9070  210.6810  155.4460 O   0  0  0  0  0  0  0  0  0  0  0  0
  156.1750  212.2970  156.9270 O   0  0  0  0  0  0  0  0  0  0  0  0
  155.7710  213.4630  156.2190 C   0  0  0  0  0  2  0  0  0  0  0  0
  154.6110  214.1320  156.9300 C   0  0  0  0  0  1  0  0  0  0  0  0
  159.2730  207.7870  154.9320 C   0  0  0  0  0  2  0  0  0  0  0  0
  159.2890  207.0280  156.2430 C   0  0  0  0  0  2  0  0  0  0  0  0
  160.4890  207.2720  156.9080 O   0  0  0  0  0  1  0  0  0  0  0  0
  2  7  1  0  0  0  0
  2  6  1  0  0  0  0
  3  4  1  0  0  0  0
  5 17  1  0  0  0  0
  5  7  1  0  0  0  0
  6 16  1  0  0  0  0
  7 10  1  0  0  0  0
  8  6  1  0  0  0  0
  8  4  1  0  0  0  0
  9  5  1  0  0  0  0
 10 16  1  0  0  0  0
 10 14  1  0  0  0  0
 11 14  1  0  0  0  0
 12 13  1  0  0  0  0
 13  9  1  0  0  0  0
 13 15  1  0  0  0  0
 14 27  1  0  0  0  0
 15  2  1  0  0  0  0
 16 35  1  0  0  0  0
 17  1  1  0  0  0  0
 17 19  1  0  0  0  0
 18  3  1  0  0  0  0
 18  8  1  0  0  0  0
 19 11  1  0  0  0  0
 20 15  1  0  0  0  0
 20 18  1  0  0  0  0
 21  3  1  0  0  0  0
 22 21  1  0  0  0  0
 23  3  1  0  0  0  0
 24 26  2  0  0  0  0
 25 26  1  0  0  0  0
 26 23  1  0  0  0  0
 27 28  1  0  0  0  0
 28 29  1  0  0  0  0
 30 32  1  0  0  0  0
 30 28  1  0  0  0  0
 31 30  2  0  0  0  0
 33 32  1  0  0  0  0
 33 34  1  0  0  0  0
 35 36  1  0  0  0  0
 36 37  1  0  0  0  0
M  END
>  <MODEL>
8

>  <REMARK>
 VINA RESULT:      -1.1      3.586      8.109
  Name = 
  10 active torsions:
  status: ('A' for Active; 'I' for Inactive)
    1  A    between atoms: C_1  and  C_5
    2  A    between atoms: C_1  and  C_23
    3  A    between atoms: C_2  and  C_6
    4  A    between atoms: C_5  and  O_26
    5  A    between atoms: C_6  and  C_8
    6  A    between atoms: C_8  and  C_19
    7  A    between atoms: C_11  and  O_26
    8  A    between atoms: C_23  and  C_25
    9  A    between atoms: C_27  and  C_33
   10  A    between atoms: C_29  and  C_33
                            x       y       z     vdW  Elec       q    Type
                         _______ _______ _______ _____ _____    ______ ____

>  <TORSDO>
F 10

$$$$
=
 OpenBabel11062409223D

 37 41  0  0  1  0  0  0  0  0999 V2000
  162.9770  206.7360  155.0300 C   0  0  0  0  0  1  0  0  0  0  0  0
  160.1620  206.3360  151.0380 C   0  0  2  0  0  3  0  0  0  0  0  0
  161.7710  205.8440  147.2470 C   0  0  1  0  0  0  0  0  0  0  0  0
  161.8640  207.6530  147.6230 S   0  0  0  0  0  0  0  0  0  0  0  0
  161.4470  206.0360  153.1490 C   0  0  2  0  0  3  0  0  0  0  0  0
  161.1910  207.1040  150.3340 N   0  0  1  0  0  0  0  0  0  0  0  0
  160.2490  206.7610  152.4790 C   0  0  1  0  0  3  0  0  0  0  0  0
  160.8330  206.9260  148.9420 C   0  0  2  0  0  3  0  0  0  0  0  0
  161.3510  204.5870  152.9510 N   0  0  0  0  0  2  0  0  0  0  0  0
  160.4670  208.2760  152.3020 C   0  0  1  0  0  3  0  0  0  0  0  0
  160.6120  208.7100  154.8280 C   0  0  0  0  0  2  0  0  0  0  0  0
  161.5570  202.8830  151.3760 O   0  0  0  0  0  1  0  0  0  0  0  0
  161.4820  204.2670  151.5290 C   0  0  1  0  0  3  0  0  0  0  0  0
  161.2300  208.9820  153.4490 C   0  0  2  0  0  3  0  0  0  0  0  0
  160.2710  204.8080  150.7680 C   0  0  2  0  0  3  0  0  0  0  0  0
  161.0030  208.4520  150.8480 C   0  0  1  0  0  3  0  0  0  0  0  0
  161.5680  206.3090  154.6560 C   0  0  2  0  0  3  0  0  0  0  0  0
  161.3050  205.5390  148.6440 C   0  0  1  0  0  3  0  0  0  0  0  0
  160.4960  207.2380  155.2390 C   0  0  0  0  0  2  0  0  0  0  0  0
  160.3450  204.5200  149.2340 C   0  0  0  0  0  2  0  0  0  0  0  0
  160.7030  205.4970  146.2070 C   0  0  0  0  0  2  0  0  0  0  0  0
  160.4560  206.5810  145.3630 O   0  0  0  0  0  1  0  0  0  0  0  0
  163.1370  205.1990  146.9960 C   0  0  0  0  0  2  0  0  0  0  0  0
  163.8960  203.9530  145.1060 O   0  0  0  0  0  0  0  0  0  0  0  0
  162.0970  203.0250  146.2430 N   0  0  0  0  0  1  0  0  0  0  0  0
  163.0790  204.0370  146.0600 C   0  0  0  0  0  0  0  0  0  0  0  0
  161.2400  210.4970  153.2300 C   0  0  0  0  0  2  0  0  0  0  0  0
  160.0340  211.2270  153.8340 C   0  0  1  0  0  3  0  0  0  0  0  0
  160.3890  212.0310  155.0740 C   0  0  0  0  0  1  0  0  0  0  0  0
  159.2820  212.0510  152.8350 C   0  0  0  0  0  0  0  0  0  0  0  0
  159.8950  212.6340  151.8990 O   0  0  0  0  0  0  0  0  0  0  0  0
  157.8930  212.1520  152.9490 O   0  0  0  0  0  0  0  0  0  0  0  0
  157.2560  213.2900  153.5170 C   0  0  0  0  0  2  0  0  0  0  0  0
  156.5330  212.9050  154.7930 C   0  0  0  0  0  1  0  0  0  0  0  0
  162.3230  209.2050  150.7430 C   0  0  0  0  0  2  0  0  0  0  0  0
  162.0690  210.5880  150.1810 C   0  0  0  0  0  2  0  0  0  0  0  0
  162.3320  210.5900  148.8120 O   0  0  0  0  0  1  0  0  0  0  0  0
  2  7  1  0  0  0  0
  3  4  1  0  0  0  0
  3 18  1  0  0  0  0
  4  8  1  0  0  0  0
  5 17  1  0  0  0  0
  6 16  1  0  0  0  0
  6  2  1  0  0  0  0
  7  5  1  0  0  0  0
  8  6  1  0  0  0  0
  9  5  1  0  0  0  0
 10  7  1  0  0  0  0
 10 14  1  0  0  0  0
 11 19  1  0  0  0  0
 12 13  1  0  0  0  0
 13  9  1  0  0  0  0
 14 11  1  0  0  0  0
 15  2  1  0  0  0  0
 15 13  1  0  0  0  0
 16 10  1  0  0  0  0
 17  1  1  0  0  0  0
 17 19  1  0  0  0  0
 18  8  1  0  0  0  0
 18 20  1  0  0  0  0
 20 15  1  0  0  0  0
 21  3  1  0  0  0  0
 22 21  1  0  0  0  0
 23  3  1  0  0  0  0
 24 26  2  0  0  0  0
 26 25  1  0  0  0  0
 26 23  1  0  0  0  0
 27 14  1  0  0  0  0
 27 28  1  0  0  0  0
 28 29  1  0  0  0  0
 30 32  1  0  0  0  0
 30 28  1  0  0  0  0
 31 30  2  0  0  0  0
 32 33  1  0  0  0  0
 33 34  1  0  0  0  0
 35 16  1  0  0  0  0
 36 35  1  0  0  0  0
 37 36  1  0  0  0  0
M  END
>  <MODEL>
9

>  <REMARK>
 VINA RESULT:      -0.9      3.700      7.956
  Name = 
  10 active torsions:
  status: ('A' for Active; 'I' for Inactive)
    1  A    between atoms: C_1  and  C_5
    2  A    between atoms: C_1  and  C_23
    3  A    between atoms: C_2  and  C_6
    4  A    between atoms: C_5  and  O_26
    5  A    between atoms: C_6  and  C_8
    6  A    between atoms: C_8  and  C_19
    7  A    between atoms: C_11  and  O_26
    8  A    between atoms: C_23  and  C_25
    9  A    between atoms: C_27  and  C_33
   10  A    between atoms: C_29  and  C_33
                            x       y       z     vdW  Elec       q    Type
                         _______ _______ _______ _____ _____    ______ ____

>  <TORSDO>
F 10

$$$$
