=
 OpenBabel11052422273D

 31 35  0  0  1  0  0  0  0  0999 V2000
  160.8550  208.0480  154.2540 C   0  0  0  0  0  0  0  0  0  0  0  0
  161.2740  207.2090  150.7660 C   0  0  0  0  0  0  0  0  0  0  0  0
  160.8180  205.7640  150.7020 C   0  0  0  0  0  0  0  0  0  0  0  0
  161.4510  203.5290  151.5640 C   0  0  0  0  0  3  0  0  0  0  0  0
  161.2500  207.9340  151.9120 C   0  0  0  0  0  0  0  0  0  0  0  0
  161.2150  209.3940  154.2620 C   0  0  0  0  0  3  0  0  0  0  0  0
  161.4280  204.8560  151.7430 C   0  0  0  0  0  3  0  0  0  0  0  0
  161.9440  209.2920  149.5410 N   0  0  0  0  0  0  0  0  0  0  0  0
  160.5110  207.4780  155.3220 O   0  0  0  0  0  0  0  0  0  0  0  0
  161.2450  205.8710  148.2520 C   0  0  0  0  0  3  0  0  0  0  0  0
  160.8700  201.5100  150.1900 N   0  0  0  0  0  1  0  0  0  0  0  0
  161.9360  209.9630  150.8050 C   0  0  0  0  0  3  0  0  0  0  0  0
  161.5960  207.9010  149.4940 C   0  0  0  0  0  0  0  0  0  0  0  0
  160.8790  207.3540  153.0880 N   0  0  0  0  0  2  0  0  0  0  0  0
  160.9890  202.9240  150.2940 C   0  0  0  0  0  0  0  0  0  0  0  0
  161.5990  209.3120  151.9240 C   0  0  0  0  0  0  0  0  0  0  0  0
  161.5770  209.9940  153.1000 N   0  0  0  0  0  0  0  0  0  0  0  0
  161.5490  207.2680  148.3570 N   0  0  0  0  0  0  0  0  0  0  0  0
  160.9410  205.1440  149.3260 C   0  0  0  0  0  0  0  0  0  0  0  0
  160.7910  203.6860  149.2120 C   0  0  0  0  0  2  0  0  0  0  0  0
  162.3630  210.0210  148.3500 C   0  0  0  0  0  2  0  0  0  0  0  0
  163.1730  212.3560  148.2100 C   0  0  0  0  0  1  0  0  0  0  0  0
  161.9590  211.4830  148.4560 C   0  0  1  0  0  3  0  0  0  0  0  0
  160.9270  211.7840  147.4730 N   0  0  0  0  0  2  0  0  0  0  0  0
  157.7530  213.7280  147.0560 C   0  0  0  0  0  0  0  0  0  0  0  0
  158.7660  214.2930  149.1800 C   0  0  0  0  0  3  0  0  0  0  0  0
  156.6590  213.8980  146.0660 C   0  0  0  0  0  1  0  0  0  0  0  0
  158.8020  212.8420  146.7920 C   0  0  0  0  0  3  0  0  0  0  0  0
  159.8150  213.4070  148.9170 C   0  0  0  0  0  3  0  0  0  0  0  0
  159.8380  212.6770  147.7240 C   0  0  0  0  0  0  0  0  0  0  0  0
  157.7340  214.4530  148.2500 C   0  0  0  0  0  3  0  0  0  0  0  0
  1  6  1  0  0  0  0
  1  9  2  0  0  0  0
  2  5  2  0  0  0  0
  3  2  1  0  0  0  0
  3  7  2  0  0  0  0
  4  7  1  0  0  0  0
  5 16  1  0  0  0  0
  5 14  1  0  0  0  0
  8 12  1  0  0  0  0
 10 18  1  0  0  0  0
 10 19  2  0  0  0  0
 11 15  1  0  0  0  0
 12 16  2  0  0  0  0
 13  8  1  0  0  0  0
 13  2  1  0  0  0  0
 14  1  1  0  0  0  0
 15  4  2  0  0  0  0
 16 17  1  0  0  0  0
 17  6  2  0  0  0  0
 18 13  2  0  0  0  0
 19  3  1  0  0  0  0
 20 19  1  0  0  0  0
 20 15  1  0  0  0  0
 21 23  1  0  0  0  0
 21  8  1  0  0  0  0
 23 22  1  6  0  0  0
 24 30  1  0  0  0  0
 24 23  1  0  0  0  0
 25 31  1  0  0  0  0
 27 25  1  0  0  0  0
 28 25  2  0  0  0  0
 28 30  1  0  0  0  0
 29 26  1  0  0  0  0
 30 29  2  0  0  0  0
 31 26  2  0  0  0  0
M  END
>  <MODEL>
1

>  <REMARK>
 VINA RESULT:      -9.5      0.000      0.000
  Name = 
  4 active torsions:
  status: ('A' for Active; 'I' for Inactive)
    1  A    between atoms: N_3  and  C_9
    2  A    between atoms: N_3  and  C_22
    3  A    between atoms: C_9  and  C_23
    4  A    between atoms: N_15  and  C_23
                            x       y       z     vdW  Elec       q    Type
                         _______ _______ _______ _____ _____    ______ ____

>  <TORSDO>
F 4

$$$$
=
 OpenBabel11052422273D

 31 35  0  0  1  0  0  0  0  0999 V2000
  161.9530  210.0980  149.7840 C   0  0  0  0  0  0  0  0  0  0  0  0
  161.1610  208.1540  152.7220 C   0  0  0  0  0  0  0  0  0  0  0  0
  160.8240  209.2120  153.7560 C   0  0  2  0  0  3  0  0  0  0  0  0
  161.8920  211.0810  154.9830 C   0  0  0  0  0  3  0  0  0  0  0  0
  161.4930  208.4590  151.4440 C   0  0  0  0  0  0  0  0  0  0  0  0
  162.1880  209.0980  148.8430 C   0  0  0  0  0  3  0  0  0  0  0  0
  161.8330  210.3300  153.8770 C   0  0  0  0  0  3  0  0  0  0  0  0
  161.1890  205.7300  152.0820 N   0  0  0  0  0  0  0  0  0  0  0  0
  162.0570  211.3100  149.4590 O   0  0  0  0  0  0  0  0  0  0  0  0
  160.3380  207.3430  155.3260 C   0  0  0  0  0  3  0  0  0  0  0  0
  161.0140  211.6690  157.2610 N   0  0  0  0  0  1  0  0  0  0  0  0
  161.5820  206.1460  150.7690 C   0  0  0  0  0  3  0  0  0  0  0  0
  160.9540  206.7300  153.0830 C   0  0  0  0  0  0  0  0  0  0  0  0
  161.6120  209.7590  151.0530 N   0  0  0  0  0  2  0  0  0  0  0  0
  161.0540  210.7650  156.1640 C   0  0  0  0  0  0  0  0  0  0  0  0
  161.7180  207.4440  150.4740 C   0  0  0  0  0  0  0  0  0  0  0  0
  162.0650  207.7970  149.2080 N   0  0  0  0  0  0  0  0  0  0  0  0
  160.5530  206.3920  154.2750 N   0  0  0  0  0  0  0  0  0  0  0  0
  160.4950  208.6510  155.1220 C   0  0  0  0  0  0  0  0  0  0  0  0
  160.4250  209.5870  156.2530 C   0  0  0  0  0  3  0  0  0  0  0  0
  161.0980  204.3060  152.3790 C   0  0  0  0  0  2  0  0  0  0  0  0
  161.9550  202.0930  151.6770 C   0  0  0  0  0  1  0  0  0  0  0  0
  161.5980  203.4860  151.2010 C   0  0  1  0  0  3  0  0  0  0  0  0
  160.5640  203.4080  150.1770 N   0  0  0  0  0  2  0  0  0  0  0  0
  161.6150  203.9580  146.6250 C   0  0  0  0  0  0  0  0  0  0  0  0
  160.8420  201.6790  146.8890 C   0  0  0  0  0  3  0  0  0  0  0  0
  162.1600  205.0410  145.7670 C   0  0  0  0  0  1  0  0  0  0  0  0
  161.3580  204.2010  147.9780 C   0  0  0  0  0  3  0  0  0  0  0  0
  160.5850  201.9220  148.2420 C   0  0  0  0  0  3  0  0  0  0  0  0
  160.8430  203.1820  148.7930 C   0  0  0  0  0  0  0  0  0  0  0  0
  161.3570  202.6970  146.0810 C   0  0  0  0  0  3  0  0  0  0  0  0
  1 14  1  0  0  0  0
  2 13  1  0  0  0  0
  2  3  1  0  0  0  0
  3  7  1  1  0  0  0
  3 19  1  0  0  0  0
  4 15  1  0  0  0  0
  5  2  2  0  0  0  0
  6 17  2  0  0  0  0
  6  1  1  0  0  0  0
  7  4  2  0  0  0  0
  8 21  1  0  0  0  0
  8 13  1  0  0  0  0
  9  1  2  0  0  0  0
 12  8  1  0  0  0  0
 13 18  2  0  0  0  0
 14  5  1  0  0  0  0
 15 20  2  0  0  0  0
 15 11  1  0  0  0  0
 16 12  2  0  0  0  0
 16  5  1  0  0  0  0
 17 16  1  0  0  0  0
 18 10  1  0  0  0  0
 19 10  2  0  0  0  0
 19 20  1  0  0  0  0
 23 22  1  1  0  0  0
 23 21  1  0  0  0  0
 24 23  1  0  0  0  0
 25 28  1  0  0  0  0
 26 29  2  0  0  0  0
 27 25  1  0  0  0  0
 28 30  2  0  0  0  0
 29 30  1  0  0  0  0
 30 24  1  0  0  0  0
 31 25  2  0  0  0  0
 31 26  1  0  0  0  0
M  END
>  <MODEL>
2

>  <REMARK>
 VINA RESULT:      -9.3      3.271      7.957
  Name = 
  4 active torsions:
  status: ('A' for Active; 'I' for Inactive)
    1  A    between atoms: N_3  and  C_9
    2  A    between atoms: N_3  and  C_22
    3  A    between atoms: C_9  and  C_23
    4  A    between atoms: N_15  and  C_23
                            x       y       z     vdW  Elec       q    Type
                         _______ _______ _______ _____ _____    ______ ____

>  <TORSDO>
F 4

$$$$
=
 OpenBabel11052422273D

 31 35  0  0  1  0  0  0  0  0999 V2000
  161.0140  208.1580  154.3720 C   0  0  0  0  0  0  0  0  0  0  0  0
  161.2630  207.3720  150.8560 C   0  0  0  0  0  0  0  0  0  0  0  0
  160.8290  205.9190  150.7960 C   0  0  0  0  0  0  0  0  0  0  0  0
  161.5430  203.6850  151.5940 C   0  0  0  0  0  3  0  0  0  0  0  0
  161.2870  208.0810  152.0110 C   0  0  0  0  0  0  0  0  0  0  0  0
  161.3500  209.5100  154.3800 C   0  0  0  0  0  3  0  0  0  0  0  0
  161.5080  205.0090  151.7920 C   0  0  0  0  0  3  0  0  0  0  0  0
  161.8330  209.4810  149.6260 N   0  0  0  0  0  0  0  0  0  0  0  0
  160.7350  207.5690  155.4490 O   0  0  0  0  0  0  0  0  0  0  0  0
  161.1240  206.0660  148.3290 C   0  0  0  0  0  3  0  0  0  0  0  0
  160.9250  201.6740  150.2240 N   0  0  0  0  0  1  0  0  0  0  0  0
  161.8800  210.1360  150.8980 C   0  0  0  0  0  3  0  0  0  0  0  0
  161.5060  208.0850  149.5790 C   0  0  0  0  0  0  0  0  0  0  0  0
  160.9880  207.4800  153.1970 N   0  0  0  0  0  2  0  0  0  0  0  0
  161.0250  203.0880  150.3410 C   0  0  0  0  0  0  0  0  0  0  0  0
  161.6130  209.4650  152.0240 C   0  0  0  0  0  0  0  0  0  0  0  0
  161.6410  210.1310  153.2090 N   0  0  0  0  0  0  0  0  0  0  0  0
  161.4100  207.4660  148.4370 N   0  0  0  0  0  0  0  0  0  0  0  0
  160.8900  205.3190  149.4070 C   0  0  0  0  0  0  0  0  0  0  0  0
  160.7580  203.8610  149.2810 C   0  0  0  0  0  2  0  0  0  0  0  0
  162.1760  210.2330  148.4250 C   0  0  0  0  0  2  0  0  0  0  0  0
  163.4880  212.3250  148.2510 C   0  0  0  0  0  1  0  0  0  0  0  0
  162.1780  211.7250  148.7180 C   0  0  1  0  0  3  0  0  0  0  0  0
  161.0670  212.3660  148.0260 N   0  0  0  0  0  2  0  0  0  0  0  0
  162.0090  213.2350  144.5070 C   0  0  0  0  0  0  0  0  0  0  0  0
  159.7790  212.2940  144.5310 C   0  0  0  0  0  3  0  0  0  0  0  0
  163.1520  213.8180  143.7600 C   0  0  0  0  0  1  0  0  0  0  0  0
  162.0890  213.0790  145.8950 C   0  0  0  0  0  3  0  0  0  0  0  0
  159.8580  212.1380  145.9190 C   0  0  0  0  0  3  0  0  0  0  0  0
  161.0130  212.5280  146.6060 C   0  0  0  0  0  0  0  0  0  0  0  0
  160.8540  212.8420  143.8260 C   0  0  0  0  0  3  0  0  0  0  0  0
  1  6  1  0  0  0  0
  1  9  2  0  0  0  0
  2  5  2  0  0  0  0
  3  2  1  0  0  0  0
  3  7  2  0  0  0  0
  4  7  1  0  0  0  0
  5 16  1  0  0  0  0
  5 14  1  0  0  0  0
  8 12  1  0  0  0  0
 10 18  1  0  0  0  0
 10 19  2  0  0  0  0
 11 15  1  0  0  0  0
 12 16  2  0  0  0  0
 13  8  1  0  0  0  0
 13  2  1  0  0  0  0
 14  1  1  0  0  0  0
 15  4  2  0  0  0  0
 16 17  1  0  0  0  0
 17  6  2  0  0  0  0
 18 13  2  0  0  0  0
 19  3  1  0  0  0  0
 20 19  1  0  0  0  0
 20 15  1  0  0  0  0
 21 23  1  0  0  0  0
 21  8  1  0  0  0  0
 23 22  1  6  0  0  0
 24 23  1  0  0  0  0
 25 28  1  0  0  0  0
 26 29  2  0  0  0  0
 27 25  1  0  0  0  0
 28 30  2  0  0  0  0
 29 30  1  0  0  0  0
 30 24  1  0  0  0  0
 31 25  2  0  0  0  0
 31 26  1  0  0  0  0
M  END
>  <MODEL>
3

>  <REMARK>
 VINA RESULT:      -9.3      1.510      2.255
  Name = 
  4 active torsions:
  status: ('A' for Active; 'I' for Inactive)
    1  A    between atoms: N_3  and  C_9
    2  A    between atoms: N_3  and  C_22
    3  A    between atoms: C_9  and  C_23
    4  A    between atoms: N_15  and  C_23
                            x       y       z     vdW  Elec       q    Type
                         _______ _______ _______ _____ _____    ______ ____

>  <TORSDO>
F 4

$$$$
=
 OpenBabel11052422273D

 31 35  0  0  1  0  0  0  0  0999 V2000
  160.8580  212.7400  150.2730 C   0  0  0  0  0  0  0  0  0  0  0  0
  161.4130  209.2500  151.0170 C   0  0  0  0  0  0  0  0  0  0  0  0
  160.9710  209.1310  152.4640 C   0  0  2  0  0  3  0  0  0  0  0  0
  161.5890  209.9590  154.7160 C   0  0  0  0  0  3  0  0  0  0  0  0
  161.3410  210.4120  150.3230 C   0  0  0  0  0  0  0  0  0  0  0  0
  161.2070  212.7960  148.9260 C   0  0  0  0  0  3  0  0  0  0  0  0
  161.5490  210.1710  153.3950 C   0  0  0  0  0  3  0  0  0  0  0  0
  162.1120  208.1050  148.8990 N   0  0  0  0  0  0  0  0  0  0  0  0
  160.4790  213.7790  150.8730 O   0  0  0  0  0  0  0  0  0  0  0  0
  161.4880  206.7030  152.2900 C   0  0  0  0  0  3  0  0  0  0  0  0
  161.0750  208.5120  156.7020 N   0  0  0  0  0  1  0  0  0  0  0  0
  162.0520  209.3850  148.2610 C   0  0  0  0  0  3  0  0  0  0  0  0
  161.7770  208.0090  150.2910 C   0  0  0  0  0  0  0  0  0  0  0  0
  160.9310  211.5580  150.9360 N   0  0  0  0  0  2  0  0  0  0  0  0
  161.1790  208.6570  155.2910 C   0  0  0  0  0  0  0  0  0  0  0  0
  161.6790  210.4730  148.9430 C   0  0  0  0  0  0  0  0  0  0  0  0
  161.6070  211.6650  148.2930 N   0  0  0  0  0  0  0  0  0  0  0  0
  161.7770  206.8550  150.8940 N   0  0  0  0  0  0  0  0  0  0  0  0
  161.1500  207.7460  153.0470 C   0  0  0  0  0  0  0  0  0  0  0  0
  161.0150  207.5890  154.5020 C   0  0  0  0  0  3  0  0  0  0  0  0
  162.5690  206.9500  148.1360 C   0  0  0  0  0  2  0  0  0  0  0  0
  160.8210  206.6040  146.4190 C   0  0  0  0  0  1  0  0  0  0  0  0
  161.3880  206.0860  147.7250 C   0  0  1  0  0  3  0  0  0  0  0  0
  161.8170  204.7030  147.5630 N   0  0  0  0  0  2  0  0  0  0  0  0
  160.8310  202.8140  150.6420 C   0  0  0  0  0  0  0  0  0  0  0  0
  160.8150  201.3140  148.7410 C   0  0  0  0  0  3  0  0  0  0  0  0
  160.6330  203.0520  152.0940 C   0  0  0  0  0  1  0  0  0  0  0  0
  161.2210  203.8660  149.8080 C   0  0  0  0  0  3  0  0  0  0  0  0
  161.2060  202.3660  147.9070 C   0  0  0  0  0  3  0  0  0  0  0  0
  161.4090  203.6460  148.4350 C   0  0  0  0  0  0  0  0  0  0  0  0
  160.6270  201.5380  150.1080 C   0  0  0  0  0  3  0  0  0  0  0  0
  1  9  2  0  0  0  0
  1 14  1  0  0  0  0
  2  3  1  0  0  0  0
  3 19  1  0  0  0  0
  3  7  1  1  0  0  0
  4 15  1  0  0  0  0
  5 14  1  0  0  0  0
  5  2  2  0  0  0  0
  6  1  1  0  0  0  0
  7  4  2  0  0  0  0
  8 13  1  0  0  0  0
 10 19  2  0  0  0  0
 12  8  1  0  0  0  0
 12 16  2  0  0  0  0
 13 18  2  0  0  0  0
 13  2  1  0  0  0  0
 15 11  1  0  0  0  0
 16  5  1  0  0  0  0
 17  6  2  0  0  0  0
 17 16  1  0  0  0  0
 18 10  1  0  0  0  0
 19 20  1  0  0  0  0
 20 15  2  0  0  0  0
 21  8  1  0  0  0  0
 23 22  1  6  0  0  0
 23 21  1  0  0  0  0
 24 23  1  0  0  0  0
 24 30  1  0  0  0  0
 25 27  1  0  0  0  0
 26 31  2  0  0  0  0
 28 25  2  0  0  0  0
 29 30  2  0  0  0  0
 29 26  1  0  0  0  0
 30 28  1  0  0  0  0
 31 25  1  0  0  0  0
M  END
>  <MODEL>
4

>  <REMARK>
 VINA RESULT:      -8.6      2.569      7.299
  Name = 
  4 active torsions:
  status: ('A' for Active; 'I' for Inactive)
    1  A    between atoms: N_3  and  C_9
    2  A    between atoms: N_3  and  C_22
    3  A    between atoms: C_9  and  C_23
    4  A    between atoms: N_15  and  C_23
                            x       y       z     vdW  Elec       q    Type
                         _______ _______ _______ _____ _____    ______ ____

>  <TORSDO>
F 4

$$$$
=
 OpenBabel11052422273D

 31 35  0  0  1  0  0  0  0  0999 V2000
  160.8340  201.6790  150.0840 C   0  0  0  0  0  0  0  0  0  0  0  0
  161.2290  205.1370  149.1180 C   0  0  0  0  0  0  0  0  0  0  0  0
  160.8730  205.1260  147.6440 C   0  0  0  0  0  0  0  0  0  0  0  0
  161.6780  204.1840  145.4990 C   0  0  0  0  0  3  0  0  0  0  0  0
  161.1820  204.0240  149.8910 C   0  0  0  0  0  0  0  0  0  0  0  0
  161.1000  201.7400  151.4500 C   0  0  0  0  0  3  0  0  0  0  0  0
  161.5680  204.0620  146.8270 C   0  0  0  0  0  3  0  0  0  0  0  0
  161.7250  206.4690  151.1840 N   0  0  0  0  0  0  0  0  0  0  0  0
  160.5540  200.5790  149.5410 O   0  0  0  0  0  0  0  0  0  0  0  0
  161.2340  207.5890  147.6690 C   0  0  0  0  0  3  0  0  0  0  0  0
  161.2060  205.4530  143.3840 N   0  0  0  0  0  1  0  0  0  0  0  0
  161.7000  205.2360  151.9090 C   0  0  0  0  0  3  0  0  0  0  0  0
  161.4730  206.4460  149.7710 C   0  0  0  0  0  0  0  0  0  0  0  0
  160.8790  202.8140  149.3410 N   0  0  0  0  0  2  0  0  0  0  0  0
  161.2290  205.4140  144.8060 C   0  0  0  0  0  0  0  0  0  0  0  0
  161.4350  204.0810  151.2880 C   0  0  0  0  0  0  0  0  0  0  0  0
  161.3930  202.9350  152.0200 N   0  0  0  0  0  0  0  0  0  0  0  0
  161.4440  207.5530  149.0860 N   0  0  0  0  0  0  0  0  0  0  0  0
  161.0060  206.4760  146.9720 C   0  0  0  0  0  0  0  0  0  0  0  0
  160.9540  206.5220  145.5040 C   0  0  0  0  0  2  0  0  0  0  0  0
  162.0650  207.7010  151.8850 C   0  0  0  0  0  2  0  0  0  0  0  0
  160.8280  207.9140  154.0190 C   0  0  0  0  0  1  0  0  0  0  0  0
  160.8310  208.2880  152.5500 C   0  0  1  0  0  3  0  0  0  0  0  0
  160.8350  209.7390  152.4110 N   0  0  0  0  0  2  0  0  0  0  0  0
  158.3750  211.9490  154.1680 C   0  0  0  0  0  0  0  0  0  0  0  0
  160.4550  211.9210  155.4070 C   0  0  0  0  0  3  0  0  0  0  0  0
  156.9780  212.4280  154.0090 C   0  0  0  0  0  1  0  0  0  0  0  0
  158.9270  211.0780  153.2230 C   0  0  0  0  0  3  0  0  0  0  0  0
  161.0070  211.0490  154.4620 C   0  0  0  0  0  3  0  0  0  0  0  0
  160.2460  210.6230  153.3680 C   0  0  0  0  0  0  0  0  0  0  0  0
  159.1390  212.3700  155.2600 C   0  0  0  0  0  3  0  0  0  0  0  0
  1  6  1  0  0  0  0
  2 13  1  0  0  0  0
  2  5  2  0  0  0  0
  3  2  1  0  0  0  0
  4  7  1  0  0  0  0
  5 16  1  0  0  0  0
  6 17  2  0  0  0  0
  7  3  2  0  0  0  0
  8 21  1  0  0  0  0
  8 12  1  0  0  0  0
  9  1  2  0  0  0  0
 10 18  1  0  0  0  0
 11 15  1  0  0  0  0
 13  8  1  0  0  0  0
 14  5  1  0  0  0  0
 14  1  1  0  0  0  0
 15  4  2  0  0  0  0
 15 20  1  0  0  0  0
 16 12  2  0  0  0  0
 16 17  1  0  0  0  0
 18 13  2  0  0  0  0
 19  3  1  0  0  0  0
 19 10  2  0  0  0  0
 20 19  1  0  0  0  0
 21 23  1  0  0  0  0
 23 22  1  1  0  0  0
 24 23  1  0  0  0  0
 24 30  1  0  0  0  0
 25 31  1  0  0  0  0
 27 25  1  0  0  0  0
 28 30  1  0  0  0  0
 28 25  2  0  0  0  0
 29 26  1  0  0  0  0
 30 29  2  0  0  0  0
 31 26  2  0  0  0  0
M  END
>  <MODEL>
5

>  <REMARK>
 VINA RESULT:      -8.5      3.798      5.846
  Name = 
  4 active torsions:
  status: ('A' for Active; 'I' for Inactive)
    1  A    between atoms: N_3  and  C_9
    2  A    between atoms: N_3  and  C_22
    3  A    between atoms: C_9  and  C_23
    4  A    between atoms: N_15  and  C_23
                            x       y       z     vdW  Elec       q    Type
                         _______ _______ _______ _____ _____    ______ ____

>  <TORSDO>
F 4

$$$$
=
 OpenBabel11052422273D

 31 35  0  0  1  0  0  0  0  0999 V2000
  160.9760  207.5130  154.4210 C   0  0  0  0  0  0  0  0  0  0  0  0
  161.3900  209.0160  151.1630 C   0  0  0  0  0  0  0  0  0  0  0  0
  161.1990  210.4960  151.4390 C   0  0  0  0  0  0  0  0  0  0  0  0
  159.4560  212.0760  152.2140 C   0  0  0  0  0  3  0  0  0  0  0  0
  161.3440  208.0780  152.1400 C   0  0  0  0  0  0  0  0  0  0  0  0
  161.2260  206.1710  154.1420 C   0  0  0  0  0  3  0  0  0  0  0  0
  159.9680  210.8400  152.2450 C   0  0  0  0  0  3  0  0  0  0  0  0
  162.0780  207.2170  149.5580 N   0  0  0  0  0  0  0  0  0  0  0  0
  160.6900  207.8740  155.5920 O   0  0  0  0  0  0  0  0  0  0  0  0
  161.6660  210.8770  149.0240 C   0  0  0  0  0  3  0  0  0  0  0  0
  159.5530  214.4510  151.4060 N   0  0  0  0  0  1  0  0  0  0  0  0
  161.9580  206.2910  150.6430 C   0  0  0  0  0  3  0  0  0  0  0  0
  161.8120  208.6060  149.8020 C   0  0  0  0  0  0  0  0  0  0  0  0
  161.0420  208.4290  153.4220 N   0  0  0  0  0  2  0  0  0  0  0  0
  160.0050  213.1070  151.3030 C   0  0  0  0  0  0  0  0  0  0  0  0
  161.6150  206.7090  151.8660 C   0  0  0  0  0  0  0  0  0  0  0  0
  161.5400  205.8000  152.8750 N   0  0  0  0  0  0  0  0  0  0  0  0
  161.9530  209.4840  148.8510 N   0  0  0  0  0  0  0  0  0  0  0  0
  161.2780  211.3650  150.2020 C   0  0  0  0  0  0  0  0  0  0  0  0
  160.8370  212.7620  150.3140 C   0  0  0  0  0  2  0  0  0  0  0  0
  162.4060  206.7170  148.2280 C   0  0  0  0  0  2  0  0  0  0  0  0
  160.7690  206.5790  146.3770 C   0  0  0  0  0  1  0  0  0  0  0  0
  161.2420  205.9240  147.6590 C   0  0  1  0  0  3  0  0  0  0  0  0
  161.6610  204.5540  147.3880 N   0  0  0  0  0  2  0  0  0  0  0  0
  160.9120  202.5330  150.4510 C   0  0  0  0  0  0  0  0  0  0  0  0
  160.9120  201.0820  148.5120 C   0  0  0  0  0  3  0  0  0  0  0  0
  160.7570  202.7240  151.9150 C   0  0  0  0  0  1  0  0  0  0  0  0
  161.2050  203.6270  149.6310 C   0  0  0  0  0  3  0  0  0  0  0  0
  161.2050  202.1770  147.6920 C   0  0  0  0  0  3  0  0  0  0  0  0
  161.3520  203.4530  148.2460 C   0  0  0  0  0  0  0  0  0  0  0  0
  160.7640  201.2610  149.8910 C   0  0  0  0  0  3  0  0  0  0  0  0
  1  9  2  0  0  0  0
  2  3  1  0  0  0  0
  2  5  2  0  0  0  0
  3  7  2  0  0  0  0
  4  7  1  0  0  0  0
  5 14  1  0  0  0  0
  6  1  1  0  0  0  0
  8 13  1  0  0  0  0
  8 12  1  0  0  0  0
 10 19  2  0  0  0  0
 12 16  2  0  0  0  0
 13  2  1  0  0  0  0
 14  1  1  0  0  0  0
 15 11  1  0  0  0  0
 15  4  2  0  0  0  0
 16  5  1  0  0  0  0
 16 17  1  0  0  0  0
 17  6  2  0  0  0  0
 18 10  1  0  0  0  0
 18 13  2  0  0  0  0
 19 20  1  0  0  0  0
 19  3  1  0  0  0  0
 20 15  1  0  0  0  0
 21  8  1  0  0  0  0
 23 22  1  6  0  0  0
 23 21  1  0  0  0  0
 24 23  1  0  0  0  0
 24 30  1  0  0  0  0
 25 27  1  0  0  0  0
 26 31  2  0  0  0  0
 28 25  2  0  0  0  0
 29 30  2  0  0  0  0
 29 26  1  0  0  0  0
 30 28  1  0  0  0  0
 31 25  1  0  0  0  0
M  END
>  <MODEL>
6

>  <REMARK>
 VINA RESULT:      -8.5      2.321      7.557
  Name = 
  4 active torsions:
  status: ('A' for Active; 'I' for Inactive)
    1  A    between atoms: N_3  and  C_9
    2  A    between atoms: N_3  and  C_22
    3  A    between atoms: C_9  and  C_23
    4  A    between atoms: N_15  and  C_23
                            x       y       z     vdW  Elec       q    Type
                         _______ _______ _______ _____ _____    ______ ____

>  <TORSDO>
F 4

$$$$
=
 OpenBabel11052422273D

 31 35  0  0  1  0  0  0  0  0999 V2000
  161.5420  209.2010  154.8800 C   0  0  0  0  0  0  0  0  0  0  0  0
  161.4020  208.1820  151.4180 C   0  0  0  0  0  0  0  0  0  0  0  0
  161.9520  209.3890  150.6800 C   0  0  0  0  0  0  0  0  0  0  0  0
  161.4070  211.7670  150.2530 C   0  0  0  0  0  3  0  0  0  0  0  0
  161.3060  208.1310  152.7690 C   0  0  0  0  0  0  0  0  0  0  0  0
  161.0980  208.0500  155.5270 C   0  0  0  0  0  3  0  0  0  0  0  0
  161.3340  210.7110  151.0720 C   0  0  0  0  0  3  0  0  0  0  0  0
  160.6820  205.7810  151.3420 N   0  0  0  0  0  0  0  0  0  0  0  0
  161.8520  210.2230  155.5460 O   0  0  0  0  0  0  0  0  0  0  0  0
  161.6780  208.0740  148.5850 C   0  0  0  0  0  3  0  0  0  0  0  0
  162.2020  212.8090  148.1110 N   0  0  0  0  0  1  0  0  0  0  0  0
  160.5660  205.8370  152.7680 C   0  0  0  0  0  3  0  0  0  0  0  0
  161.1200  206.9520  150.6380 C   0  0  0  0  0  0  0  0  0  0  0  0
  161.6370  209.2150  153.5260 N   0  0  0  0  0  2  0  0  0  0  0  0
  161.9870  211.6420  148.8960 C   0  0  0  0  0  0  0  0  0  0  0  0
  160.8710  206.9540  153.4370 C   0  0  0  0  0  0  0  0  0  0  0  0
  160.7740  206.9560  154.7930 N   0  0  0  0  0  0  0  0  0  0  0  0
  161.2800  206.9260  149.3460 N   0  0  0  0  0  0  0  0  0  0  0  0
  161.9570  209.2360  149.1740 C   0  0  0  0  0  0  0  0  0  0  0  0
  162.2060  210.4350  148.3620 C   0  0  0  0  0  2  0  0  0  0  0  0
  160.2960  204.5620  150.6430 C   0  0  0  0  0  2  0  0  0  0  0  0
  161.5760  202.9440  152.0120 C   0  0  0  0  0  1  0  0  0  0  0  0
  161.4470  203.5690  150.6370 C   0  0  1  0  0  3  0  0  0  0  0  0
  161.2000  202.5300  149.6450 N   0  0  0  0  0  2  0  0  0  0  0  0
  161.5850  204.2310  146.3310 C   0  0  0  0  0  0  0  0  0  0  0  0
  160.8290  201.9580  145.9820 C   0  0  0  0  0  3  0  0  0  0  0  0
  161.9840  205.5530  145.7840 C   0  0  0  0  0  1  0  0  0  0  0  0
  161.5890  204.0170  147.7130 C   0  0  0  0  0  3  0  0  0  0  0  0
  160.8330  201.7440  147.3640 C   0  0  0  0  0  3  0  0  0  0  0  0
  161.2130  202.7710  148.2350 C   0  0  0  0  0  0  0  0  0  0  0  0
  161.2060  203.2010  145.4660 C   0  0  0  0  0  3  0  0  0  0  0  0
  1  6  1  0  0  0  0
  1  9  2  0  0  0  0
  2  5  2  0  0  0  0
  3  7  2  0  0  0  0
  3  2  1  0  0  0  0
  4  7  1  0  0  0  0
  5 16  1  0  0  0  0
  5 14  1  0  0  0  0
  8 12  1  0  0  0  0
 10 19  2  0  0  0  0
 10 18  1  0  0  0  0
 11 15  1  0  0  0  0
 12 16  2  0  0  0  0
 13  8  1  0  0  0  0
 13  2  1  0  0  0  0
 14  1  1  0  0  0  0
 15  4  2  0  0  0  0
 16 17  1  0  0  0  0
 17  6  2  0  0  0  0
 18 13  2  0  0  0  0
 19  3  1  0  0  0  0
 20 15  1  0  0  0  0
 20 19  1  0  0  0  0
 21  8  1  0  0  0  0
 23 21  1  0  0  0  0
 23 22  1  1  0  0  0
 24 23  1  0  0  0  0
 25 28  1  0  0  0  0
 26 29  2  0  0  0  0
 27 25  1  0  0  0  0
 28 30  2  0  0  0  0
 29 30  1  0  0  0  0
 30 24  1  0  0  0  0
 31 26  1  0  0  0  0
 31 25  2  0  0  0  0
M  END
>  <MODEL>
7

>  <REMARK>
 VINA RESULT:      -8.2      2.432      7.261
  Name = 
  4 active torsions:
  status: ('A' for Active; 'I' for Inactive)
    1  A    between atoms: N_3  and  C_9
    2  A    between atoms: N_3  and  C_22
    3  A    between atoms: C_9  and  C_23
    4  A    between atoms: N_15  and  C_23
                            x       y       z     vdW  Elec       q    Type
                         _______ _______ _______ _____ _____    ______ ____

>  <TORSDO>
F 4

$$$$
=
 OpenBabel11052422273D

 31 35  0  0  1  0  0  0  0  0999 V2000
  162.0680  210.4690  149.0920 C   0  0  0  0  0  0  0  0  0  0  0  0
  161.5340  207.0710  150.1930 C   0  0  0  0  0  0  0  0  0  0  0  0
  161.7890  206.2570  148.9380 C   0  0  0  0  0  0  0  0  0  0  0  0
  160.8590  205.9230  146.6670 C   0  0  0  0  0  3  0  0  0  0  0  0
  161.6580  208.4200  150.2290 C   0  0  0  0  0  0  0  0  0  0  0  0
  161.8950  211.1760  150.2790 C   0  0  0  0  0  3  0  0  0  0  0  0
  161.0620  206.7420  147.7060 C   0  0  0  0  0  3  0  0  0  0  0  0
  161.1520  207.1070  152.6710 N   0  0  0  0  0  0  0  0  0  0  0  0
  162.3330  211.0790  148.0240 O   0  0  0  0  0  0  0  0  0  0  0  0
  161.3780  204.2290  150.3220 C   0  0  0  0  0  3  0  0  0  0  0  0
  161.1580  203.6840  145.5710 N   0  0  0  0  0  1  0  0  0  0  0  0
  161.2530  208.5330  152.6020 C   0  0  0  0  0  3  0  0  0  0  0  0
  161.3080  206.3440  151.4660 C   0  0  0  0  0  0  0  0  0  0  0  0
  161.9480  209.1170  149.0940 N   0  0  0  0  0  2  0  0  0  0  0  0
  161.2330  204.4910  146.7400 C   0  0  0  0  0  0  0  0  0  0  0  0
  161.5000  209.1470  151.4400 C   0  0  0  0  0  0  0  0  0  0  0  0
  161.6160  210.5020  151.4230 N   0  0  0  0  0  0  0  0  0  0  0  0
  161.2660  205.0420  151.4970 N   0  0  0  0  0  0  0  0  0  0  0  0
  161.5810  204.7690  149.1210 C   0  0  0  0  0  0  0  0  0  0  0  0
  161.5320  203.9280  147.9160 C   0  0  0  0  0  2  0  0  0  0  0  0
  160.8350  206.4770  153.9470 C   0  0  0  0  0  2  0  0  0  0  0  0
  159.2120  206.8840  155.7710 C   0  0  0  0  0  1  0  0  0  0  0  0
  160.3070  207.5090  154.9300 C   0  0  1  0  0  3  0  0  0  0  0  0
  161.3870  207.9710  155.7920 N   0  0  0  0  0  2  0  0  0  0  0  0
  160.4830  211.4700  156.7740 C   0  0  0  0  0  0  0  0  0  0  0  0
  162.8220  211.0790  157.2610 C   0  0  0  0  0  3  0  0  0  0  0  0
  159.3020  212.3700  156.7710 C   0  0  0  0  0  1  0  0  0  0  0  0
  160.3660  210.1630  156.2890 C   0  0  0  0  0  3  0  0  0  0  0  0
  162.7060  209.7730  156.7760 C   0  0  0  0  0  3  0  0  0  0  0  0
  161.4790  209.3080  156.2900 C   0  0  0  0  0  0  0  0  0  0  0  0
  161.7100  211.9270  157.2600 C   0  0  0  0  0  3  0  0  0  0  0  0
  1 14  1  0  0  0  0
  1  6  1  0  0  0  0
  2  5  2  0  0  0  0
  2 13  1  0  0  0  0
  3 19  1  0  0  0  0
  3  2  1  0  0  0  0
  4 15  2  0  0  0  0
  4  7  1  0  0  0  0
  5 16  1  0  0  0  0
  6 17  2  0  0  0  0
  7  3  2  0  0  0  0
  8 21  1  0  0  0  0
  9  1  2  0  0  0  0
 10 18  1  0  0  0  0
 11 15  1  0  0  0  0
 12  8  1  0  0  0  0
 13 18  2  0  0  0  0
 13  8  1  0  0  0  0
 14  5  1  0  0  0  0
 15 20  1  0  0  0  0
 16 12  2  0  0  0  0
 17 16  1  0  0  0  0
 19 10  2  0  0  0  0
 20 19  1  0  0  0  0
 21 23  1  0  0  0  0
 23 22  1  1  0  0  0
 23 24  1  0  0  0  0
 24 30  1  0  0  0  0
 25 31  1  0  0  0  0
 27 25  1  0  0  0  0
 28 30  1  0  0  0  0
 28 25  2  0  0  0  0
 29 26  1  0  0  0  0
 30 29  2  0  0  0  0
 31 26  2  0  0  0  0
M  END
>  <MODEL>
8

>  <REMARK>
 VINA RESULT:      -8.0      3.162      6.447
  Name = 
  4 active torsions:
  status: ('A' for Active; 'I' for Inactive)
    1  A    between atoms: N_3  and  C_9
    2  A    between atoms: N_3  and  C_22
    3  A    between atoms: C_9  and  C_23
    4  A    between atoms: N_15  and  C_23
                            x       y       z     vdW  Elec       q    Type
                         _______ _______ _______ _____ _____    ______ ____

>  <TORSDO>
F 4

$$$$
=
 OpenBabel11052422273D

 31 35  0  0  1  0  0  0  0  0999 V2000
  161.9910  209.7600  149.1270 C   0  0  0  0  0  0  0  0  0  0  0  0
  161.5520  207.0840  151.5130 C   0  0  0  0  0  0  0  0  0  0  0  0
  161.6510  205.8370  150.6550 C   0  0  0  0  0  0  0  0  0  0  0  0
  160.4620  204.7040  148.8010 C   0  0  0  0  0  3  0  0  0  0  0  0
  161.6930  208.3340  151.0070 C   0  0  0  0  0  0  0  0  0  0  0  0
  161.9640  210.8790  149.9560 C   0  0  0  0  0  3  0  0  0  0  0  0
  160.7920  205.8480  149.4120 C   0  0  0  0  0  3  0  0  0  0  0  0
  161.4590  208.0940  153.8060 N   0  0  0  0  0  0  0  0  0  0  0  0
  162.1370  209.8950  147.8840 O   0  0  0  0  0  0  0  0  0  0  0  0
  161.3810  204.5260  152.7530 C   0  0  0  0  0  3  0  0  0  0  0  0
  160.6090  202.2030  148.6390 N   0  0  0  0  0  1  0  0  0  0  0  0
  161.5660  209.3760  153.1770 C   0  0  0  0  0  3  0  0  0  0  0  0
  161.4660  206.9180  152.9840 C   0  0  0  0  0  0  0  0  0  0  0  0
  161.8580  208.5220  149.6670 N   0  0  0  0  0  2  0  0  0  0  0  0
  160.8260  203.3930  149.3860 C   0  0  0  0  0  0  0  0  0  0  0  0
  161.6840  209.4800  151.8490 C   0  0  0  0  0  0  0  0  0  0  0  0
  161.8120  210.7140  151.2940 N   0  0  0  0  0  0  0  0  0  0  0  0
  161.4150  205.7340  153.5240 N   0  0  0  0  0  0  0  0  0  0  0  0
  161.4500  204.5480  151.4220 C   0  0  0  0  0  0  0  0  0  0  0  0
  161.2530  203.3120  150.6520 C   0  0  0  0  0  2  0  0  0  0  0  0
  161.2850  208.0230  155.2520 C   0  0  0  0  0  2  0  0  0  0  0  0
  159.3350  206.9670  156.3520 C   0  0  0  0  0  1  0  0  0  0  0  0
  159.8200  208.2000  155.6170 C   0  0  1  0  0  3  0  0  0  0  0  0
  159.6600  209.3750  156.4650 N   0  0  0  0  0  2  0  0  0  0  0  0
  157.4660  212.0720  155.0740 C   0  0  0  0  0  0  0  0  0  0  0  0
  159.6920  212.9540  155.4330 C   0  0  0  0  0  3  0  0  0  0  0  0
  156.0620  212.2630  154.6280 C   0  0  0  0  0  1  0  0  0  0  0  0
  157.8830  210.8270  155.5550 C   0  0  0  0  0  3  0  0  0  0  0  0
  160.1090  211.7090  155.9130 C   0  0  0  0  0  3  0  0  0  0  0  0
  159.2070  210.6410  155.9780 C   0  0  0  0  0  0  0  0  0  0  0  0
  158.3700  213.1360  155.0140 C   0  0  0  0  0  3  0  0  0  0  0  0
  1 14  1  0  0  0  0
  1  6  1  0  0  0  0
  2 13  1  0  0  0  0
  3 19  1  0  0  0  0
  3  2  1  0  0  0  0
  4 15  2  0  0  0  0
  4  7  1  0  0  0  0
  5  2  2  0  0  0  0
  5 16  1  0  0  0  0
  6 17  2  0  0  0  0
  7  3  2  0  0  0  0
  8 21  1  0  0  0  0
  9  1  2  0  0  0  0
 10 18  1  0  0  0  0
 11 15  1  0  0  0  0
 12  8  1  0  0  0  0
 13 18  2  0  0  0  0
 13  8  1  0  0  0  0
 14  5  1  0  0  0  0
 15 20  1  0  0  0  0
 16 12  2  0  0  0  0
 17 16  1  0  0  0  0
 19 10  2  0  0  0  0
 20 19  1  0  0  0  0
 21 23  1  0  0  0  0
 23 22  1  1  0  0  0
 23 24  1  0  0  0  0
 25 28  1  0  0  0  0
 26 29  2  0  0  0  0
 27 25  1  0  0  0  0
 28 30  2  0  0  0  0
 29 30  1  0  0  0  0
 30 24  1  0  0  0  0
 31 25  2  0  0  0  0
 31 26  1  0  0  0  0
M  END
>  <MODEL>
9

>  <REMARK>
 VINA RESULT:      -7.7      3.143      5.713
  Name = 
  4 active torsions:
  status: ('A' for Active; 'I' for Inactive)
    1  A    between atoms: N_3  and  C_9
    2  A    between atoms: N_3  and  C_22
    3  A    between atoms: C_9  and  C_23
    4  A    between atoms: N_15  and  C_23
                            x       y       z     vdW  Elec       q    Type
                         _______ _______ _______ _____ _____    ______ ____

>  <TORSDO>
F 4

$$$$
