=
 OpenBabel11052422413D

 31 34  0  0  1  0  0  0  0  0999 V2000
  160.8170  201.9300  149.8820 C   0  0  0  0  0  0  0  0  0  0  0  0
  161.0290  205.6790  149.6630 C   0  0  0  0  0  0  0  0  0  0  0  0
  160.7810  206.0460  148.2050 C   0  0  2  0  0  3  0  0  0  0  0  0
  161.4300  204.6130  146.3260 C   0  0  0  0  0  2  0  0  0  0  0  0
  160.9880  204.3490  150.1780 C   0  0  0  0  0  0  0  0  0  0  0  0
  160.9080  201.7410  151.2610 C   0  0  0  0  0  3  0  0  0  0  0  0
  160.2690  204.9770  147.2500 C   0  0  0  0  0  2  0  0  0  0  0  0
  161.3340  206.5140  151.9540 C   0  0  0  0  0  0  0  0  0  0  0  0
  160.6850  200.8360  149.0390 O   0  0  0  0  0  1  0  0  0  0  0  0
  162.0600  208.5780  148.9770 C   0  0  0  0  0  3  0  0  0  0  0  0
  162.4500  205.7370  146.4090 C   0  0  2  0  0  3  0  0  0  0  0  0
  161.2430  205.2090  152.4380 C   0  0  0  0  0  3  0  0  0  0  0  0
  161.2750  206.7540  150.5660 C   0  0  0  0  0  0  0  0  0  0  0  0
  160.8580  203.2210  149.3510 C   0  0  0  0  0  3  0  0  0  0  0  0
  163.8280  205.1480  146.6530 C   0  0  0  0  0  1  0  0  0  0  0  0
  161.0910  204.1360  151.5740 C   0  0  0  0  0  0  0  0  0  0  0  0
  161.0460  202.8430  152.1050 C   0  0  0  0  0  3  0  0  0  0  0  0
  161.4980  208.1560  150.1190 C   0  0  0  0  0  3  0  0  0  0  0  0
  162.5430  207.7300  147.8720 C   0  0  0  0  0  3  0  0  0  0  0  0
  162.0170  206.5450  147.5730 C   0  0  0  0  0  0  0  0  0  0  0  0
  160.1220  206.9280  154.6120 O   0  0  0  0  0  0  0  0  0  0  0  0
  160.8940  207.8050  154.1400 C   0  0  0  0  0  0  0  0  0  0  0  0
  161.5130  207.6190  152.8590 N   0  0  0  0  0  2  0  0  0  0  0  0
  162.0980  208.9720  155.7920 O   0  0  0  0  0  0  0  0  0  0  0  0
  160.6970  211.3680  155.6460 C   0  0  0  0  0  1  0  0  0  0  0  0
  160.4990  210.2750  154.6990 N   0  0  0  0  0  0  0  0  0  0  0  0
  161.1970  209.0310  154.9100 C   0  0  0  0  0  0  0  0  0  0  0  0
  159.7140  210.5140  153.4870 C   0  0  1  0  0  3  0  0  0  0  0  0
  158.5110  211.3950  153.7890 C   0  0  0  0  0  1  0  0  0  0  0  0
  159.9450  212.3950  151.8630 C   0  0  0  0  0  1  0  0  0  0  0  0
  160.5820  211.1270  152.3960 C   0  0  0  0  0  2  0  0  0  0  0  0
  1  6  1  0  0  0  0
  2  5  2  0  0  0  0
  2 13  1  0  0  0  0
  3  7  1  6  0  0  0
  3  2  1  0  0  0  0
  4 11  1  0  0  0  0
  4  7  1  0  0  0  0
  5 16  1  0  0  0  0
  6 17  2  0  0  0  0
  8 12  1  0  0  0  0
  8 23  1  0  0  0  0
  9  1  1  0  0  0  0
 10 18  2  0  0  0  0
 11 15  1  1  0  0  0
 11 20  1  0  0  0  0
 13  8  2  0  0  0  0
 14  1  2  0  0  0  0
 14  5  1  0  0  0  0
 16 17  1  0  0  0  0
 16 12  2  0  0  0  0
 18 13  1  0  0  0  0
 19 10  1  0  0  0  0
 20 19  2  0  0  0  0
 20  3  1  0  0  0  0
 22 21  2  0  0  0  0
 22 27  1  0  0  0  0
 23 22  1  0  0  0  0
 26 27  1  0  0  0  0
 26 25  1  0  0  0  0
 27 24  2  0  0  0  0
 28 29  1  1  0  0  0
 28 26  1  0  0  0  0
 30 31  1  0  0  0  0
 31 28  1  0  0  0  0
M  END
>  <MODEL>
1

>  <REMARK>
 VINA RESULT:      -9.0      0.000      0.000
  Name = 
  4 active torsions:
  status: ('A' for Active; 'I' for Inactive)
    1  A    between atoms: C_1  and  N_19
    2  A    between atoms: C_1  and  C_24
    3  A    between atoms: C_9  and  C_22
    4  A    between atoms: C_15  and  N_23
                            x       y       z     vdW  Elec       q    Type
                         _______ _______ _______ _____ _____    ______ ____

>  <TORSDO>
F 4

$$$$
=
 OpenBabel11052422413D

 31 34  0  0  1  0  0  0  0  0999 V2000
  160.8220  201.8780  149.8750 C   0  0  0  0  0  0  0  0  0  0  0  0
  161.2060  205.5970  149.4550 C   0  0  0  0  0  0  0  0  0  0  0  0
  160.9030  205.9040  147.9930 C   0  0  2  0  0  3  0  0  0  0  0  0
  161.3860  204.3500  146.1610 C   0  0  0  0  0  2  0  0  0  0  0  0
  161.1260  204.2970  150.0380 C   0  0  0  0  0  0  0  0  0  0  0  0
  160.9740  201.7520  151.2550 C   0  0  0  0  0  3  0  0  0  0  0  0
  160.2920  204.8180  147.1190 C   0  0  0  0  0  2  0  0  0  0  0  0
  161.6660  206.5250  151.6830 C   0  0  0  0  0  0  0  0  0  0  0  0
  160.5940  200.7530  149.0950 O   0  0  0  0  0  1  0  0  0  0  0  0
  162.3410  208.4020  148.5720 C   0  0  0  0  0  3  0  0  0  0  0  0
  162.4620  205.4240  146.1370 C   0  0  2  0  0  3  0  0  0  0  0  0
  161.5370  205.2510  152.2360 C   0  0  0  0  0  3  0  0  0  0  0  0
  161.5490  206.6990  150.2890 C   0  0  0  0  0  0  0  0  0  0  0  0
  160.8990  203.1380  149.2770 C   0  0  0  0  0  3  0  0  0  0  0  0
  163.8190  204.7760  146.3450 C   0  0  0  0  0  1  0  0  0  0  0  0
  161.2890  204.1460  151.4360 C   0  0  0  0  0  0  0  0  0  0  0  0
  161.2080  202.8850  152.0350 C   0  0  0  0  0  3  0  0  0  0  0  0
  161.8180  208.0650  149.7600 C   0  0  0  0  0  3  0  0  0  0  0  0
  162.7260  207.4770  147.4900 C   0  0  0  0  0  3  0  0  0  0  0  0
  162.1280  206.3080  147.2780 C   0  0  0  0  0  0  0  0  0  0  0  0
  159.8230  208.6500  152.5690 O   0  0  0  0  0  0  0  0  0  0  0  0
  161.0320  208.6940  152.9210 C   0  0  0  0  0  0  0  0  0  0  0  0
  161.9460  207.6610  152.5200 N   0  0  0  0  0  2  0  0  0  0  0  0
  161.6500  210.9400  153.2530 O   0  0  0  0  0  0  0  0  0  0  0  0
  162.5690  210.6870  155.8630 C   0  0  0  0  0  1  0  0  0  0  0  0
  161.8810  209.6110  155.1580 N   0  0  0  0  0  0  0  0  0  0  0  0
  161.5270  209.7970  153.7720 C   0  0  0  0  0  0  0  0  0  0  0  0
  161.4410  208.4340  155.9070 C   0  0  1  0  0  3  0  0  0  0  0  0
  162.1330  208.3650  157.2610 C   0  0  0  0  0  1  0  0  0  0  0  0
  159.3600  207.0700  155.7140 C   0  0  0  0  0  1  0  0  0  0  0  0
  159.9260  208.4320  156.0660 C   0  0  0  0  0  2  0  0  0  0  0  0
  1  6  1  0  0  0  0
  2  5  2  0  0  0  0
  2 13  1  0  0  0  0
  3  7  1  6  0  0  0
  3  2  1  0  0  0  0
  4  7  1  0  0  0  0
  5 16  1  0  0  0  0
  6 17  2  0  0  0  0
  8 12  1  0  0  0  0
  8 23  1  0  0  0  0
  9  1  1  0  0  0  0
 10 18  2  0  0  0  0
 11  4  1  0  0  0  0
 11 15  1  1  0  0  0
 11 20  1  0  0  0  0
 13  8  2  0  0  0  0
 14  1  2  0  0  0  0
 14  5  1  0  0  0  0
 16 17  1  0  0  0  0
 16 12  2  0  0  0  0
 18 13  1  0  0  0  0
 19 10  1  0  0  0  0
 20 19  2  0  0  0  0
 20  3  1  0  0  0  0
 21 22  2  0  0  0  0
 22 27  1  0  0  0  0
 23 22  1  0  0  0  0
 24 27  2  0  0  0  0
 26 25  1  0  0  0  0
 26 28  1  0  0  0  0
 27 26  1  0  0  0  0
 28 31  1  0  0  0  0
 28 29  1  1  0  0  0
 30 31  1  0  0  0  0
M  END
>  <MODEL>
2

>  <REMARK>
 VINA RESULT:      -8.0      1.432      2.151
  Name = 
  4 active torsions:
  status: ('A' for Active; 'I' for Inactive)
    1  A    between atoms: C_1  and  N_19
    2  A    between atoms: C_1  and  C_24
    3  A    between atoms: C_9  and  C_22
    4  A    between atoms: C_15  and  N_23
                            x       y       z     vdW  Elec       q    Type
                         _______ _______ _______ _____ _____    ______ ____

>  <TORSDO>
F 4

$$$$
=
 OpenBabel11052422413D

 31 34  0  0  1  0  0  0  0  0999 V2000
  161.2910  204.3080  145.8910 C   0  0  0  0  0  0  0  0  0  0  0  0
  161.3400  204.5210  149.6470 C   0  0  0  0  0  0  0  0  0  0  0  0
  161.7620  203.1470  150.1560 C   0  0  2  0  0  3  0  0  0  0  0  0
  161.2220  201.0560  148.9970 C   0  0  0  0  0  2  0  0  0  0  0  0
  161.2430  204.8730  148.2670 C   0  0  0  0  0  0  0  0  0  0  0  0
  161.0440  205.6380  145.5550 C   0  0  0  0  0  3  0  0  0  0  0  0
  162.3010  202.1240  149.1670 C   0  0  0  0  0  2  0  0  0  0  0  0
  160.8520  206.8550  150.2380 C   0  0  0  0  0  0  0  0  0  0  0  0
  161.4410  203.3550  144.8930 O   0  0  0  0  0  1  0  0  0  0  0  0
  160.5720  204.0910  152.6730 C   0  0  0  0  0  3  0  0  0  0  0  0
  160.2720  201.1750  150.1780 C   0  0  2  0  0  3  0  0  0  0  0  0
  160.8080  207.1850  148.8830 C   0  0  0  0  0  3  0  0  0  0  0  0
  161.0700  205.5180  150.6270 C   0  0  0  0  0  0  0  0  0  0  0  0
  161.3870  203.9330  147.2330 C   0  0  0  0  0  3  0  0  0  0  0  0
  158.8430  201.2130  149.6690 C   0  0  0  0  0  1  0  0  0  0  0  0
  160.9810  206.2170  147.9060 C   0  0  0  0  0  0  0  0  0  0  0  0
  160.8890  206.5920  146.5610 C   0  0  0  0  0  3  0  0  0  0  0  0
  160.9830  205.2220  152.0840 C   0  0  0  0  0  3  0  0  0  0  0  0
  160.1530  202.8510  151.9940 C   0  0  0  0  0  3  0  0  0  0  0  0
  160.6320  202.4640  150.8150 C   0  0  0  0  0  0  0  0  0  0  0  0
  162.8110  208.7570  151.3530 O   0  0  0  0  0  0  0  0  0  0  0  0
  161.6270  208.7650  151.7840 C   0  0  0  0  0  0  0  0  0  0  0  0
  160.6490  207.8640  151.2430 N   0  0  0  0  0  2  0  0  0  0  0  0
  160.7910  210.8520  152.4780 O   0  0  0  0  0  0  0  0  0  0  0  0
  161.0890  210.4770  155.2150 C   0  0  0  0  0  1  0  0  0  0  0  0
  161.2960  209.4100  154.2420 N   0  0  0  0  0  0  0  0  0  0  0  0
  161.2170  209.7200  152.8360 C   0  0  0  0  0  0  0  0  0  0  0  0
  161.4360  208.0310  154.7140 C   0  0  1  0  0  3  0  0  0  0  0  0
  162.0380  207.9970  156.1100 C   0  0  0  0  0  1  0  0  0  0  0  0
  159.5920  207.0590  156.0850 C   0  0  0  0  0  1  0  0  0  0  0  0
  160.0950  207.3110  154.6770 C   0  0  0  0  0  2  0  0  0  0  0  0
  1 14  1  0  0  0  0
  2  3  1  0  0  0  0
  2 13  2  0  0  0  0
  3  7  1  6  0  0  0
  3 20  1  0  0  0  0
  4  7  1  0  0  0  0
  4 11  1  0  0  0  0
  5  2  1  0  0  0  0
  6  1  2  0  0  0  0
  6 17  1  0  0  0  0
  8 13  1  0  0  0  0
  8 23  1  0  0  0  0
  9  1  1  0  0  0  0
 11 15  1  6  0  0  0
 11 20  1  0  0  0  0
 12  8  2  0  0  0  0
 13 18  1  0  0  0  0
 14  5  2  0  0  0  0
 16  5  1  0  0  0  0
 16 12  1  0  0  0  0
 17 16  2  0  0  0  0
 18 10  2  0  0  0  0
 19 10  1  0  0  0  0
 20 19  2  0  0  0  0
 21 22  2  0  0  0  0
 22 27  1  0  0  0  0
 23 22  1  0  0  0  0
 24 27  2  0  0  0  0
 26 28  1  0  0  0  0
 26 25  1  0  0  0  0
 27 26  1  0  0  0  0
 28 29  1  1  0  0  0
 31 28  1  0  0  0  0
 31 30  1  0  0  0  0
M  END
>  <MODEL>
3

>  <REMARK>
 VINA RESULT:      -7.2      2.025      4.446
  Name = 
  4 active torsions:
  status: ('A' for Active; 'I' for Inactive)
    1  A    between atoms: C_1  and  N_19
    2  A    between atoms: C_1  and  C_24
    3  A    between atoms: C_9  and  C_22
    4  A    between atoms: C_15  and  N_23
                            x       y       z     vdW  Elec       q    Type
                         _______ _______ _______ _____ _____    ______ ____

>  <TORSDO>
F 4

$$$$
=
 OpenBabel11052422413D

 31 34  0  0  1  0  0  0  0  0999 V2000
  161.0360  204.9150  145.9040 C   0  0  0  0  0  0  0  0  0  0  0  0
  161.3300  204.4310  149.6230 C   0  0  0  0  0  0  0  0  0  0  0  0
  161.7390  202.9790  149.8420 C   0  0  2  0  0  3  0  0  0  0  0  0
  161.0620  201.1490  148.3600 C   0  0  0  0  0  2  0  0  0  0  0  0
  161.1570  205.0340  148.3410 C   0  0  0  0  0  0  0  0  0  0  0  0
  160.8110  206.2900  145.8340 C   0  0  0  0  0  3  0  0  0  0  0  0
  162.1830  202.1460  148.6480 C   0  0  0  0  0  2  0  0  0  0  0  0
  160.9540  206.6250  150.6630 C   0  0  0  0  0  0  0  0  0  0  0  0
  161.0920  204.1610  144.7410 O   0  0  0  0  0  1  0  0  0  0  0  0
  160.7420  203.4650  152.5650 C   0  0  0  0  0  3  0  0  0  0  0  0
  160.1930  201.0660  149.6050 C   0  0  2  0  0  3  0  0  0  0  0  0
  160.8350  207.2000  149.3970 C   0  0  0  0  0  3  0  0  0  0  0  0
  161.1540  205.2350  150.7850 C   0  0  0  0  0  0  0  0  0  0  0  0
  161.2060  204.2980  147.1450 C   0  0  0  0  0  3  0  0  0  0  0  0
  158.7360  201.2250  149.2110 C   0  0  0  0  0  1  0  0  0  0  0  0
  160.9150  206.4260  148.2500 C   0  0  0  0  0  0  0  0  0  0  0  0
  160.7500  207.0440  147.0060 C   0  0  0  0  0  3  0  0  0  0  0  0
  161.1510  204.6780  152.1660 C   0  0  0  0  0  3  0  0  0  0  0  0
  160.2420  202.3800  151.7000 C   0  0  0  0  0  3  0  0  0  0  0  0
  160.6330  202.2080  150.4410 C   0  0  0  0  0  0  0  0  0  0  0  0
  162.3270  209.1610  151.2840 O   0  0  0  0  0  0  0  0  0  0  0  0
  161.5430  208.6570  152.1330 C   0  0  0  0  0  0  0  0  0  0  0  0
  160.8470  207.4350  151.8470 N   0  0  0  0  0  2  0  0  0  0  0  0
  162.0540  209.0250  154.4000 O   0  0  0  0  0  0  0  0  0  0  0  0
  159.9510  210.7480  154.9770 C   0  0  0  0  0  1  0  0  0  0  0  0
  160.2610  210.3010  153.6230 N   0  0  0  0  0  0  0  0  0  0  0  0
  161.3080  209.3290  153.4290 C   0  0  0  0  0  0  0  0  0  0  0  0
  159.6040  210.9530  152.4890 C   0  0  1  0  0  3  0  0  0  0  0  0
  158.2440  211.5010  152.8940 C   0  0  0  0  0  1  0  0  0  0  0  0
  159.6570  213.2710  151.5670 C   0  0  0  0  0  1  0  0  0  0  0  0
  160.4880  212.0510  151.9130 C   0  0  0  0  0  2  0  0  0  0  0  0
  1 14  1  0  0  0  0
  2  3  1  0  0  0  0
  2 13  2  0  0  0  0
  3  7  1  6  0  0  0
  3 20  1  0  0  0  0
  4  7  1  0  0  0  0
  4 11  1  0  0  0  0
  5  2  1  0  0  0  0
  6  1  2  0  0  0  0
  6 17  1  0  0  0  0
  8 13  1  0  0  0  0
  8 23  1  0  0  0  0
  9  1  1  0  0  0  0
 11 15  1  6  0  0  0
 11 20  1  0  0  0  0
 12  8  2  0  0  0  0
 13 18  1  0  0  0  0
 14  5  2  0  0  0  0
 16  5  1  0  0  0  0
 16 12  1  0  0  0  0
 17 16  2  0  0  0  0
 18 10  2  0  0  0  0
 19 10  1  0  0  0  0
 20 19  2  0  0  0  0
 21 22  2  0  0  0  0
 22 27  1  0  0  0  0
 23 22  1  0  0  0  0
 26 25  1  0  0  0  0
 27 26  1  0  0  0  0
 27 24  2  0  0  0  0
 28 29  1  1  0  0  0
 28 26  1  0  0  0  0
 30 31  1  0  0  0  0
 31 28  1  0  0  0  0
M  END
>  <MODEL>
4

>  <REMARK>
 VINA RESULT:      -7.2      1.742      3.996
  Name = 
  4 active torsions:
  status: ('A' for Active; 'I' for Inactive)
    1  A    between atoms: C_1  and  N_19
    2  A    between atoms: C_1  and  C_24
    3  A    between atoms: C_9  and  C_22
    4  A    between atoms: C_15  and  N_23
                            x       y       z     vdW  Elec       q    Type
                         _______ _______ _______ _____ _____    ______ ____

>  <TORSDO>
F 4

$$$$
=
 OpenBabel11052422413D

 31 34  0  0  1  0  0  0  0  0999 V2000
  161.2200  212.9770  150.0400 C   0  0  0  0  0  0  0  0  0  0  0  0
  160.8980  209.4200  151.2230 C   0  0  0  0  0  0  0  0  0  0  0  0
  160.1600  209.4680  152.5550 C   0  0  2  0  0  3  0  0  0  0  0  0
  160.3510  211.3330  154.1350 C   0  0  0  0  0  2  0  0  0  0  0  0
  161.1820  210.5630  150.4180 C   0  0  0  0  0  0  0  0  0  0  0  0
  161.7640  212.7840  148.7710 C   0  0  0  0  0  3  0  0  0  0  0  0
  159.5060  210.7710  152.9930 C   0  0  0  0  0  2  0  0  0  0  0  0
  161.8080  207.9890  149.4450 C   0  0  0  0  0  0  0  0  0  0  0  0
  160.9600  214.2610  150.4980 O   0  0  0  0  0  1  0  0  0  0  0  0
  161.3030  206.7820  152.9000 C   0  0  0  0  0  3  0  0  0  0  0  0
  161.2010  210.1950  154.6760 C   0  0  2  0  0  3  0  0  0  0  0  0
  162.0330  209.1180  148.6570 C   0  0  0  0  0  3  0  0  0  0  0  0
  161.2860  208.1350  150.7460 C   0  0  0  0  0  0  0  0  0  0  0  0
  160.9350  211.8760  150.8520 C   0  0  0  0  0  3  0  0  0  0  0  0
  162.6460  210.6510  154.7740 C   0  0  0  0  0  1  0  0  0  0  0  0
  161.7470  210.3890  149.1300 C   0  0  0  0  0  0  0  0  0  0  0  0
  162.0280  211.4920  148.3170 C   0  0  0  0  0  3  0  0  0  0  0  0
  161.1860  206.8980  151.5690 C   0  0  0  0  0  3  0  0  0  0  0  0
  161.5110  207.8800  153.8610 C   0  0  0  0  0  3  0  0  0  0  0  0
  161.0640  209.1170  153.6680 C   0  0  0  0  0  0  0  0  0  0  0  0
  160.2130  206.2500  147.6750 O   0  0  0  0  0  0  0  0  0  0  0  0
  161.3250  205.8420  148.1050 C   0  0  0  0  0  0  0  0  0  0  0  0
  162.1300  206.6770  148.9510 N   0  0  0  0  0  2  0  0  0  0  0  0
  162.7320  204.4390  146.8450 O   0  0  0  0  0  0  0  0  0  0  0  0
  161.7180  202.0080  147.7300 C   0  0  0  0  0  1  0  0  0  0  0  0
  161.3310  203.2880  148.3140 N   0  0  0  0  0  0  0  0  0  0  0  0
  161.8320  204.5050  147.7260 C   0  0  0  0  0  0  0  0  0  0  0  0
  160.5650  203.3000  149.5610 C   0  0  1  0  0  3  0  0  0  0  0  0
  159.8210  201.9870  149.7510 C   0  0  0  0  0  1  0  0  0  0  0  0
  160.8000  203.1830  152.0430 C   0  0  0  0  0  1  0  0  0  0  0  0
  161.4740  203.5920  150.7480 C   0  0  0  0  0  2  0  0  0  0  0  0
  1  9  1  0  0  0  0
  1 14  1  0  0  0  0
  2  3  1  0  0  0  0
  3  7  1  1  0  0  0
  3 20  1  0  0  0  0
  4 11  1  0  0  0  0
  5 14  2  0  0  0  0
  5  2  1  0  0  0  0
  6  1  2  0  0  0  0
  7  4  1  0  0  0  0
  8 13  1  0  0  0  0
 10 19  1  0  0  0  0
 11 15  1  6  0  0  0
 12 16  1  0  0  0  0
 12  8  2  0  0  0  0
 13  2  2  0  0  0  0
 13 18  1  0  0  0  0
 16  5  1  0  0  0  0
 17  6  1  0  0  0  0
 17 16  2  0  0  0  0
 18 10  2  0  0  0  0
 20 19  2  0  0  0  0
 20 11  1  0  0  0  0
 21 22  2  0  0  0  0
 22 23  1  0  0  0  0
 23  8  1  0  0  0  0
 24 27  2  0  0  0  0
 25 26  1  0  0  0  0
 26 28  1  0  0  0  0
 27 22  1  0  0  0  0
 27 26  1  0  0  0  0
 28 29  1  1  0  0  0
 28 31  1  0  0  0  0
 31 30  1  0  0  0  0
M  END
>  <MODEL>
5

>  <REMARK>
 VINA RESULT:      -6.6      2.757      8.193
  Name = 
  4 active torsions:
  status: ('A' for Active; 'I' for Inactive)
    1  A    between atoms: C_1  and  N_19
    2  A    between atoms: C_1  and  C_24
    3  A    between atoms: C_9  and  C_22
    4  A    between atoms: C_15  and  N_23
                            x       y       z     vdW  Elec       q    Type
                         _______ _______ _______ _____ _____    ______ ____

>  <TORSDO>
F 4

$$$$
=
 OpenBabel11052422413D

 31 34  0  0  1  0  0  0  0  0999 V2000
  160.4890  207.1840  155.4410 C   0  0  0  0  0  0  0  0  0  0  0  0
  161.6650  208.7970  152.2520 C   0  0  0  0  0  0  0  0  0  0  0  0
  161.9340  210.2610  152.5780 C   0  0  2  0  0  3  0  0  0  0  0  0
  160.6780  211.5200  154.2640 C   0  0  0  0  0  2  0  0  0  0  0  0
  161.2450  207.8240  153.2080 C   0  0  0  0  0  0  0  0  0  0  0  0
  160.4260  205.8470  155.0520 C   0  0  0  0  0  3  0  0  0  0  0  0
  161.9500  210.7060  154.0330 C   0  0  0  0  0  2  0  0  0  0  0  0
  161.8410  207.0140  150.5710 C   0  0  0  0  0  0  0  0  0  0  0  0
  160.1520  207.5480  156.7370 O   0  0  0  0  0  1  0  0  0  0  0  0
  161.7350  210.5940  149.6630 C   0  0  0  0  0  3  0  0  0  0  0  0
  160.1540  211.9460  152.9020 C   0  0  2  0  0  3  0  0  0  0  0  0
  161.4750  206.0740  151.5350 C   0  0  0  0  0  3  0  0  0  0  0  0
  161.8930  208.3810  150.9090 C   0  0  0  0  0  0  0  0  0  0  0  0
  160.8940  208.1590  154.5260 C   0  0  0  0  0  3  0  0  0  0  0  0
  158.6760  211.6140  152.8080 C   0  0  0  0  0  1  0  0  0  0  0  0
  161.1620  206.4620  152.8280 C   0  0  0  0  0  0  0  0  0  0  0  0
  160.7610  205.4860  153.7470 C   0  0  0  0  0  3  0  0  0  0  0  0
  162.1750  209.3350  149.8000 C   0  0  0  0  0  3  0  0  0  0  0  0
  160.9010  211.3400  150.6230 C   0  0  0  0  0  3  0  0  0  0  0  0
  160.9310  211.1330  151.9360 C   0  0  0  0  0  0  0  0  0  0  0  0
  159.9730  206.2060  148.4360 O   0  0  0  0  0  0  0  0  0  0  0  0
  161.2130  206.1940  148.2100 C   0  0  0  0  0  0  0  0  0  0  0  0
  162.1430  206.6020  149.2260 N   0  0  0  0  0  2  0  0  0  0  0  0
  162.4660  206.5940  146.2590 O   0  0  0  0  0  0  0  0  0  0  0  0
  161.7840  204.2690  144.9000 C   0  0  0  0  0  1  0  0  0  0  0  0
  161.4230  204.5070  146.2930 N   0  0  0  0  0  0  0  0  0  0  0  0
  161.7320  205.7830  146.8880 C   0  0  0  0  0  0  0  0  0  0  0  0
  160.8890  203.4020  147.0900 C   0  0  1  0  0  3  0  0  0  0  0  0
  160.8020  202.1290  146.2600 C   0  0  0  0  0  1  0  0  0  0  0  0
  160.8430  202.8430  149.5220 C   0  0  0  0  0  1  0  0  0  0  0  0
  161.7310  203.1840  148.3410 C   0  0  0  0  0  2  0  0  0  0  0  0
  1  9  1  0  0  0  0
  2  3  1  0  0  0  0
  2  5  1  0  0  0  0
  3  7  1  1  0  0  0
  5 14  1  0  0  0  0
  6  1  1  0  0  0  0
  7  4  1  0  0  0  0
  8 13  1  0  0  0  0
  8 12  2  0  0  0  0
 10 18  2  0  0  0  0
 10 19  1  0  0  0  0
 11 15  1  1  0  0  0
 11  4  1  0  0  0  0
 12 16  1  0  0  0  0
 13  2  2  0  0  0  0
 14  1  2  0  0  0  0
 16  5  2  0  0  0  0
 16 17  1  0  0  0  0
 17  6  2  0  0  0  0
 18 13  1  0  0  0  0
 19 20  2  0  0  0  0
 20  3  1  0  0  0  0
 20 11  1  0  0  0  0
 22 21  2  0  0  0  0
 22 23  1  0  0  0  0
 23  8  1  0  0  0  0
 24 27  2  0  0  0  0
 25 26  1  0  0  0  0
 26 27  1  0  0  0  0
 26 28  1  0  0  0  0
 27 22  1  0  0  0  0
 28 29  1  6  0  0  0
 28 31  1  0  0  0  0
 31 30  1  0  0  0  0
M  END
>  <MODEL>
6

>  <REMARK>
 VINA RESULT:      -6.4      2.530      7.527
  Name = 
  4 active torsions:
  status: ('A' for Active; 'I' for Inactive)
    1  A    between atoms: C_1  and  N_19
    2  A    between atoms: C_1  and  C_24
    3  A    between atoms: C_9  and  C_22
    4  A    between atoms: C_15  and  N_23
                            x       y       z     vdW  Elec       q    Type
                         _______ _______ _______ _____ _____    ______ ____

>  <TORSDO>
F 4

$$$$
=
 OpenBabel11052422413D

 31 34  0  0  1  0  0  0  0  0999 V2000
  161.7440  211.5320  149.7490 C   0  0  0  0  0  0  0  0  0  0  0  0
  160.9110  208.6330  151.9980 C   0  0  0  0  0  0  0  0  0  0  0  0
  160.1860  209.2120  153.2060 C   0  0  2  0  0  3  0  0  0  0  0  0
  160.6410  211.4450  154.1080 C   0  0  0  0  0  2  0  0  0  0  0  0
  161.3580  209.4020  150.8820 C   0  0  0  0  0  0  0  0  0  0  0  0
  162.2560  210.8650  148.6370 C   0  0  0  0  0  3  0  0  0  0  0  0
  159.7260  210.6630  153.1690 C   0  0  0  0  0  2  0  0  0  0  0  0
  161.6070  206.5910  150.8210 C   0  0  0  0  0  0  0  0  0  0  0  0
  161.6710  212.9180  149.7560 O   0  0  0  0  0  1  0  0  0  0  0  0
  160.9290  206.6550  154.4520 C   0  0  0  0  0  3  0  0  0  0  0  0
  161.3180  210.4410  155.0280 C   0  0  2  0  0  3  0  0  0  0  0  0
  161.9940  207.3600  149.7230 C   0  0  0  0  0  3  0  0  0  0  0  0
  161.1100  207.2220  151.9790 C   0  0  0  0  0  0  0  0  0  0  0  0
  161.3010  210.8050  150.8570 C   0  0  0  0  0  3  0  0  0  0  0  0
  162.8130  210.7040  155.0420 C   0  0  0  0  0  1  0  0  0  0  0  0
  161.8930  208.7430  149.7480 C   0  0  0  0  0  0  0  0  0  0  0  0
  162.3310  209.4720  148.6370 C   0  0  0  0  0  3  0  0  0  0  0  0
  160.8310  206.3470  153.1510 C   0  0  0  0  0  3  0  0  0  0  0  0
  161.2920  207.9680  155.0170 C   0  0  0  0  0  3  0  0  0  0  0  0
  161.0280  209.1230  154.4140 C   0  0  0  0  0  0  0  0  0  0  0  0
  159.5780  204.5770  150.0960 O   0  0  0  0  0  0  0  0  0  0  0  0
  160.7250  204.1980  150.4540 C   0  0  0  0  0  0  0  0  0  0  0  0
  161.7370  205.1590  150.7920 N   0  0  0  0  0  2  0  0  0  0  0  0
  161.2010  202.2240  151.6430 O   0  0  0  0  0  0  0  0  0  0  0  0
  161.7760  200.6080  149.4570 C   0  0  0  0  0  1  0  0  0  0  0  0
  161.2320  201.9550  149.3250 N   0  0  0  0  0  0  0  0  0  0  0  0
  161.0570  202.7590  150.5090 C   0  0  0  0  0  0  0  0  0  0  0  0
  160.7450  202.4020  148.0190 C   0  0  1  0  0  3  0  0  0  0  0  0
  161.5810  203.5620  147.4990 C   0  0  0  0  0  1  0  0  0  0  0  0
  160.4560  201.7590  145.6250 C   0  0  0  0  0  1  0  0  0  0  0  0
  160.7310  201.2480  147.0260 C   0  0  0  0  0  2  0  0  0  0  0  0
  1  9  1  0  0  0  0
  1 14  1  0  0  0  0
  2  3  1  0  0  0  0
  3  7  1  6  0  0  0
  3 20  1  0  0  0  0
  4 11  1  0  0  0  0
  5  2  1  0  0  0  0
  6 17  1  0  0  0  0
  6  1  2  0  0  0  0
  7  4  1  0  0  0  0
  8 13  1  0  0  0  0
 10 19  1  0  0  0  0
 11 15  1  6  0  0  0
 12 16  1  0  0  0  0
 12  8  2  0  0  0  0
 13  2  2  0  0  0  0
 13 18  1  0  0  0  0
 14  5  2  0  0  0  0
 16  5  1  0  0  0  0
 17 16  2  0  0  0  0
 18 10  2  0  0  0  0
 20 19  2  0  0  0  0
 20 11  1  0  0  0  0
 21 22  2  0  0  0  0
 22 27  1  0  0  0  0
 22 23  1  0  0  0  0
 23  8  1  0  0  0  0
 26 25  1  0  0  0  0
 26 27  1  0  0  0  0
 27 24  2  0  0  0  0
 28 29  1  6  0  0  0
 28 26  1  0  0  0  0
 30 31  1  0  0  0  0
 31 28  1  0  0  0  0
M  END
>  <MODEL>
7

>  <REMARK>
 VINA RESULT:      -6.2      2.560      8.078
  Name = 
  4 active torsions:
  status: ('A' for Active; 'I' for Inactive)
    1  A    between atoms: C_1  and  N_19
    2  A    between atoms: C_1  and  C_24
    3  A    between atoms: C_9  and  C_22
    4  A    between atoms: C_15  and  N_23
                            x       y       z     vdW  Elec       q    Type
                         _______ _______ _______ _____ _____    ______ ____

>  <TORSDO>
F 4

$$$$
