=
 OpenBabel11062408243D

 32 37  0  0  1  0  0  0  0  0999 V2000
  161.3140  208.8290  151.3090 N   0  0  1  0  0  0  0  0  0  0  0  0
  161.7390  206.7080  150.2620 C   0  0  1  0  0  3  0  0  0  0  0  0
  161.8670  210.1910  151.3720 C   0  0  0  0  0  2  0  0  0  0  0  0
  162.1210  208.1460  150.2830 C   0  0  1  0  0  3  0  0  0  0  0  0
  161.4530  206.0160  148.9600 C   0  0  2  0  0  3  0  0  0  0  0  0
  161.7650  202.7860  151.8990 S   0  0  0  0  0  0  0  0  0  0  0  0
  161.6800  205.5890  152.1660 C   0  0  2  0  0  3  0  0  0  0  0  0
  159.8210  202.9620  150.2660 C   0  0  0  0  0  2  0  0  0  0  0  0
  160.2690  204.3400  150.3770 N   0  0  2  0  0  0  0  0  0  0  0  0
  161.8890  208.7520  148.8970 C   0  0  2  0  0  3  0  0  0  0  0  0
  161.2500  204.5260  149.2800 C   0  0  0  0  0  2  0  0  0  0  0  0
  162.6530  207.9480  147.8150 C   0  0  0  0  0  2  0  0  0  0  0  0
  162.3190  210.2110  148.9100 C   0  0  0  0  0  2  0  0  0  0  0  0
  160.7890  206.7330  152.7370 C   0  0  0  0  0  2  0  0  0  0  0  0
  161.3950  208.1840  152.6620 C   0  0  2  0  0  3  0  0  0  0  0  0
  162.5530  206.0040  151.1500 O   0  0  0  0  0  0  0  0  0  0  0  0
  162.5540  206.3990  147.9570 C   0  0  2  0  0  3  0  0  0  0  0  0
  161.6240  210.9430  150.0600 C   0  0  0  0  0  2  0  0  0  0  0  0
  160.8720  202.0760  150.5900 O   0  0  0  0  0  0  0  0  0  0  0  0
  160.8580  204.3360  151.7210 C   0  0  1  0  0  3  0  0  0  0  0  0
  159.8070  209.5240  156.0160 C   0  0  0  0  0  0  0  0  0  0  0  0
  159.7290  209.3230  157.2600 O   0  0  0  0  0  0  0  0  0  0  0  0
  160.6300  209.0070  153.6700 C   0  0  0  0  0  0  0  0  0  0  0  0
  159.1910  210.7330  155.4630 C   0  0  0  0  0  3  0  0  0  0  0  0
  160.0370  210.1380  153.2570 C   0  0  0  0  0  3  0  0  0  0  0  0
  160.5200  208.5370  155.1150 C   0  0  1  0  0  3  0  0  0  0  0  0
  161.8940  208.2010  155.6730 C   0  0  0  0  0  1  0  0  0  0  0  0
  159.2900  211.0230  154.1580 C   0  0  0  0  0  0  0  0  0  0  0  0
  158.7210  212.4750  152.2380 C   0  0  0  0  0  1  0  0  0  0  0  0
  158.7290  212.1810  153.6250 O   0  0  0  0  0  0  0  0  0  0  0  0
  162.2840  205.7870  146.5890 C   0  0  0  0  0  2  0  0  0  0  0  0
  163.2510  204.8120  146.3010 O   0  0  0  0  0  1  0  0  0  0  0  0
  1  3  1  1  0  0  0
  1 15  1  0  0  0  0
  2  4  1  0  0  0  0
  2 16  1  6  0  0  0
  4  1  1  0  0  0  0
  5 11  1  0  0  0  0
  5  2  1  0  0  0  0
  7 14  1  0  0  0  0
  8  9  1  0  0  0  0
  8 19  1  0  0  0  0
  9 20  1  0  0  0  0
 10 13  1  0  0  0  0
 10  4  1  0  0  0  0
 11  9  1  0  0  0  0
 12 17  1  0  0  0  0
 12 10  1  0  0  0  0
 13 18  1  0  0  0  0
 15 14  1  0  0  0  0
 15 23  1  0  0  0  0
 16  7  1  0  0  0  0
 17  5  1  0  0  0  0
 18  3  1  0  0  0  0
 19  6  1  0  0  0  0
 20  6  1  0  0  0  0
 20  7  1  0  0  0  0
 21 22  2  0  0  0  0
 23 26  1  0  0  0  0
 24 21  1  0  0  0  0
 25 23  2  0  0  0  0
 25 28  1  0  0  0  0
 26 27  1  0  0  0  0
 26 21  1  0  0  0  0
 28 24  2  0  0  0  0
 29 30  1  0  0  0  0
 30 28  1  0  0  0  0
 31 17  1  0  0  0  0
 32 31  1  0  0  0  0
M  END
>  <MODEL>
1

>  <REMARK>
 VINA RESULT:      -7.1      0.000      0.000
  Name = 
  3 active torsions:
  status: ('A' for Active; 'I' for Inactive)
    1  A    between atoms: C_13  and  C_29
    2  A    between atoms: O_15  and  C_26
    3  A    between atoms: C_16  and  C_27
                            x       y       z     vdW  Elec       q    Type
                         _______ _______ _______ _____ _____    ______ ____

>  <TORSDO>
F 3

$$$$
=
 OpenBabel11062408243D

 32 37  0  0  1  0  0  0  0  0999 V2000
  161.1680  205.3680  150.9890 N   0  0  1  0  0  0  0  0  0  0  0  0
  161.0370  204.3580  148.8130 C   0  0  1  0  0  3  0  0  0  0  0  0
  160.6130  205.2130  152.3440 C   0  0  0  0  0  2  0  0  0  0  0  0
  160.6590  204.2040  150.2430 C   0  0  1  0  0  3  0  0  0  0  0  0
  161.6560  203.2150  148.0610 C   0  0  2  0  0  3  0  0  0  0  0  0
  160.5950  206.1340  144.9770 S   0  0  0  0  0  0  0  0  0  0  0  0
  160.5990  206.2680  147.7910 C   0  0  2  0  0  3  0  0  0  0  0  0
  162.8980  205.0600  145.1030 C   0  0  0  0  0  2  0  0  0  0  0  0
  162.4330  204.9770  146.4770 N   0  0  2  0  0  0  0  0  0  0  0  0
  161.2440  202.8970  150.7830 C   0  0  2  0  0  3  0  0  0  0  0  0
  161.7720  203.6540  146.5930 C   0  0  0  0  0  2  0  0  0  0  0  0
  160.7930  201.6970  149.9140 C   0  0  0  0  0  2  0  0  0  0  0  0
  160.8220  202.7210  152.2340 C   0  0  0  0  0  2  0  0  0  0  0  0
  161.3060  206.9910  148.9750 C   0  0  0  0  0  2  0  0  0  0  0  0
  160.7360  206.6850  150.4110 C   0  0  2  0  0  3  0  0  0  0  0  0
  160.0210  205.0380  148.1400 O   0  0  0  0  0  0  0  0  0  0  0  0
  160.8560  201.9400  148.3760 C   0  0  2  0  0  3  0  0  0  0  0  0
  161.1890  203.9720  153.0330 C   0  0  0  0  0  2  0  0  0  0  0  0
  161.8000  205.1430  144.2170 O   0  0  0  0  0  0  0  0  0  0  0  0
  161.5120  206.1190  146.5300 C   0  0  1  0  0  3  0  0  0  0  0  0
  162.5540  209.9160  151.7600 C   0  0  0  0  0  0  0  0  0  0  0  0
  163.3320  210.8590  151.4410 O   0  0  0  0  0  0  0  0  0  0  0  0
  161.2090  207.8130  151.2950 C   0  0  0  0  0  0  0  0  0  0  0  0
  161.9380  209.9380  153.0890 C   0  0  0  0  0  3  0  0  0  0  0  0
  160.6930  207.9190  152.5310 C   0  0  0  0  0  3  0  0  0  0  0  0
  162.2660  208.7870  150.7920 C   0  0  1  0  0  3  0  0  0  0  0  0
  161.8800  209.3390  149.4290 C   0  0  0  0  0  1  0  0  0  0  0  0
  161.0650  208.9920  153.4600 C   0  0  0  0  0  0  0  0  0  0  0  0
  160.2570  207.8560  155.5050 C   0  0  0  0  0  1  0  0  0  0  0  0
  160.4540  209.0150  154.7130 O   0  0  0  0  0  0  0  0  0  0  0  0
  161.4760  200.7250  147.7010 C   0  0  0  0  0  2  0  0  0  0  0  0
  160.9270  200.5540  146.4210 O   0  0  0  0  0  1  0  0  0  0  0  0
  1  3  1  1  0  0  0
  2 16  1  6  0  0  0
  2  4  1  0  0  0  0
  3 18  1  0  0  0  0
  4 10  1  0  0  0  0
  4  1  1  0  0  0  0
  5 17  1  0  0  0  0
  5  2  1  0  0  0  0
  6 20  1  0  0  0  0
  7 16  1  0  0  0  0
  7 14  1  0  0  0  0
  8  9  1  0  0  0  0
  9 20  1  0  0  0  0
  9 11  1  0  0  0  0
 10 13  1  0  0  0  0
 11  5  1  0  0  0  0
 12 10  1  0  0  0  0
 13 18  1  0  0  0  0
 14 15  1  0  0  0  0
 15  1  1  0  0  0  0
 15 23  1  0  0  0  0
 17 12  1  0  0  0  0
 19  6  1  0  0  0  0
 19  8  1  0  0  0  0
 20  7  1  0  0  0  0
 21 24  1  0  0  0  0
 22 21  2  0  0  0  0
 23 25  2  0  0  0  0
 24 28  2  0  0  0  0
 25 28  1  0  0  0  0
 26 23  1  0  0  0  0
 26 21  1  0  0  0  0
 27 26  1  0  0  0  0
 28 30  1  0  0  0  0
 30 29  1  0  0  0  0
 31 17  1  0  0  0  0
 32 31  1  0  0  0  0
M  END
>  <MODEL>
2

>  <REMARK>
 VINA RESULT:      -6.8      2.573      5.157
  Name = 
  3 active torsions:
  status: ('A' for Active; 'I' for Inactive)
    1  A    between atoms: C_13  and  C_29
    2  A    between atoms: O_15  and  C_26
    3  A    between atoms: C_16  and  C_27
                            x       y       z     vdW  Elec       q    Type
                         _______ _______ _______ _____ _____    ______ ____

>  <TORSDO>
F 3

$$$$
=
 OpenBabel11062408243D

 32 37  0  0  1  0  0  0  0  0999 V2000
  160.5220  208.3590  153.9900 N   0  0  1  0  0  0  0  0  0  0  0  0
  159.8780  210.6560  154.2770 C   0  0  1  0  0  3  0  0  0  0  0  0
  161.3290  207.3190  154.6480 C   0  0  0  0  0  2  0  0  0  0  0  0
  160.5370  209.4930  154.9300 C   0  0  1  0  0  3  0  0  0  0  0  0
  158.8370  211.4510  155.0120 C   0  0  2  0  0  3  0  0  0  0  0  0
  159.8100  213.8640  151.4910 S   0  0  0  0  0  0  0  0  0  0  0  0
  160.5110  211.2420  152.2430 C   0  0  2  0  0  3  0  0  0  0  0  0
  157.4130  213.3310  152.1590 C   0  0  0  0  0  2  0  0  0  0  0  0
  158.1590  212.2280  152.7410 N   0  0  2  0  0  0  0  0  0  0  0  0
  159.7980  209.1530  156.2250 C   0  0  2  0  0  3  0  0  0  0  0  0
  158.4840  212.6560  154.1240 C   0  0  0  0  0  2  0  0  0  0  0  0
  159.7220  210.3920  157.1520 C   0  0  0  0  0  2  0  0  0  0  0  0
  160.4990  207.9900  156.9110 C   0  0  0  0  0  2  0  0  0  0  0  0
  160.3050  209.7570  151.8200 C   0  0  0  0  0  2  0  0  0  0  0  0
  161.1100  208.6850  152.6470 C   0  0  2  0  0  3  0  0  0  0  0  0
  160.8380  211.4060  153.5970 O   0  0  0  0  0  0  0  0  0  0  0  0
  159.3540  211.7260  156.4340 C   0  0  2  0  0  3  0  0  0  0  0  0
  160.6500  206.8270  155.9290 C   0  0  0  0  0  2  0  0  0  0  0  0
  158.2530  214.4530  151.9840 O   0  0  0  0  0  0  0  0  0  0  0  0
  159.3150  212.1650  151.8390 C   0  0  1  0  0  3  0  0  0  0  0  0
  161.3400  206.2320  149.5660 C   0  0  0  0  0  0  0  0  0  0  0  0
  161.4970  206.1760  148.3140 O   0  0  0  0  0  0  0  0  0  0  0  0
  161.1520  207.4430  151.7890 C   0  0  0  0  0  0  0  0  0  0  0  0
  161.2960  204.9760  150.3210 C   0  0  0  0  0  3  0  0  0  0  0  0
  161.1240  206.2450  152.3940 C   0  0  0  0  0  3  0  0  0  0  0  0
  161.2000  207.5640  150.2720 C   0  0  1  0  0  3  0  0  0  0  0  0
  162.3090  208.5130  149.8460 C   0  0  0  0  0  1  0  0  0  0  0  0
  161.1860  204.9780  151.6560 C   0  0  0  0  0  0  0  0  0  0  0  0
  161.2100  202.5080  151.7880 C   0  0  0  0  0  1  0  0  0  0  0  0
  161.1670  203.7920  152.3870 O   0  0  0  0  0  0  0  0  0  0  0  0
  158.3140  212.4690  157.2600 C   0  0  0  0  0  2  0  0  0  0  0  0
  157.0690  211.8320  157.1520 O   0  0  0  0  0  1  0  0  0  0  0  0
  1  3  1  1  0  0  0
  1  4  1  0  0  0  0
  2 16  1  1  0  0  0
  2  4  1  0  0  0  0
  2  5  1  0  0  0  0
  3 18  1  0  0  0  0
  4 10  1  0  0  0  0
  5 17  1  0  0  0  0
  6 20  1  0  0  0  0
  6 19  1  0  0  0  0
  7 16  1  0  0  0  0
  8  9  1  0  0  0  0
  9 11  1  0  0  0  0
 10 13  1  0  0  0  0
 10 12  1  0  0  0  0
 11  5  1  0  0  0  0
 14  7  1  0  0  0  0
 14 15  1  0  0  0  0
 15  1  1  0  0  0  0
 17 12  1  0  0  0  0
 17 31  1  0  0  0  0
 18 13  1  0  0  0  0
 19  8  1  0  0  0  0
 20  7  1  0  0  0  0
 20  9  1  0  0  0  0
 21 26  1  0  0  0  0
 21 24  1  0  0  0  0
 22 21  2  0  0  0  0
 23 25  2  0  0  0  0
 23 15  1  0  0  0  0
 24 28  2  0  0  0  0
 26 23  1  0  0  0  0
 27 26  1  0  0  0  0
 28 30  1  0  0  0  0
 28 25  1  0  0  0  0
 29 30  1  0  0  0  0
 32 31  1  0  0  0  0
M  END
>  <MODEL>
3

>  <REMARK>
 VINA RESULT:      -6.6      2.828      8.256
  Name = 
  3 active torsions:
  status: ('A' for Active; 'I' for Inactive)
    1  A    between atoms: C_13  and  C_29
    2  A    between atoms: O_15  and  C_26
    3  A    between atoms: C_16  and  C_27
                            x       y       z     vdW  Elec       q    Type
                         _______ _______ _______ _____ _____    ______ ____

>  <TORSDO>
F 3

$$$$
=
 OpenBabel11062408243D

 32 37  0  0  1  0  0  0  0  0999 V2000
  161.2150  207.3070  151.5100 N   0  0  1  0  0  0  0  0  0  0  0  0
  161.4010  209.6990  151.6340 C   0  0  1  0  0  3  0  0  0  0  0  0
  161.5820  206.1030  152.2720 C   0  0  0  0  0  2  0  0  0  0  0  0
  161.5880  208.4300  152.3870 C   0  0  1  0  0  3  0  0  0  0  0  0
  160.6750  210.8560  152.2580 C   0  0  2  0  0  3  0  0  0  0  0  0
  162.5660  212.5250  148.6810 S   0  0  0  0  0  0  0  0  0  0  0  0
  162.2790  209.8830  149.6140 C   0  0  2  0  0  3  0  0  0  0  0  0
  160.1100  212.9020  149.2270 C   0  0  0  0  0  2  0  0  0  0  0  0
  160.4000  211.6530  149.9120 N   0  0  2  0  0  0  0  0  0  0  0  0
  160.7250  208.4610  153.6510 C   0  0  2  0  0  3  0  0  0  0  0  0
  160.8000  212.0410  151.2870 C   0  0  0  0  0  2  0  0  0  0  0  0
  161.0490  209.7130  154.5030 C   0  0  0  0  0  2  0  0  0  0  0  0
  160.9490  207.1790  154.4400 C   0  0  0  0  0  2  0  0  0  0  0  0
  161.5860  208.5340  149.2590 C   0  0  0  0  0  2  0  0  0  0  0  0
  161.9330  207.3130  150.1910 C   0  0  2  0  0  3  0  0  0  0  0  0
  162.5890  210.0210  150.9750 O   0  0  0  0  0  0  0  0  0  0  0  0
  161.1990  211.0360  153.6930 C   0  0  2  0  0  3  0  0  0  0  0  0
  160.7240  205.9690  153.5330 C   0  0  0  0  0  2  0  0  0  0  0  0
  161.2950  213.6490  149.0440 O   0  0  0  0  0  0  0  0  0  0  0  0
  161.4970  211.1310  149.0880 C   0  0  1  0  0  3  0  0  0  0  0  0
  161.2840  204.7650  147.2500 C   0  0  0  0  0  0  0  0  0  0  0  0
  161.3460  204.6140  145.9970 O   0  0  0  0  0  0  0  0  0  0  0  0
  161.5740  206.0750  149.4050 C   0  0  0  0  0  0  0  0  0  0  0  0
  160.9310  203.6080  148.0760 C   0  0  0  0  0  3  0  0  0  0  0  0
  161.2440  204.9610  150.0790 C   0  0  0  0  0  3  0  0  0  0  0  0
  161.5660  206.1110  147.8830 C   0  0  1  0  0  3  0  0  0  0  0  0
  162.8710  206.6860  147.3550 C   0  0  0  0  0  1  0  0  0  0  0  0
  160.9030  203.6990  149.4130 C   0  0  0  0  0  0  0  0  0  0  0  0
  160.9310  201.2670  149.8670 C   0  0  0  0  0  1  0  0  0  0  0  0
  160.5920  202.5990  150.2120 O   0  0  0  0  0  0  0  0  0  0  0  0
  160.4510  212.1500  154.4120 C   0  0  0  0  0  2  0  0  0  0  0  0
  159.0910  211.8250  154.5200 O   0  0  0  0  0  1  0  0  0  0  0  0
  1  3  1  1  0  0  0
  1  4  1  0  0  0  0
  2 16  1  1  0  0  0
  2  5  1  0  0  0  0
  2  4  1  0  0  0  0
  3 18  1  0  0  0  0
  4 10  1  0  0  0  0
  5 17  1  0  0  0  0
  6 19  1  0  0  0  0
  6 20  1  0  0  0  0
  7 16  1  0  0  0  0
  8  9  1  0  0  0  0
  9 11  1  0  0  0  0
 10 13  1  0  0  0  0
 10 12  1  0  0  0  0
 11  5  1  0  0  0  0
 14  7  1  0  0  0  0
 14 15  1  0  0  0  0
 15  1  1  0  0  0  0
 17 31  1  0  0  0  0
 17 12  1  0  0  0  0
 18 13  1  0  0  0  0
 19  8  1  0  0  0  0
 20  7  1  0  0  0  0
 20  9  1  0  0  0  0
 21 26  1  0  0  0  0
 21 24  1  0  0  0  0
 22 21  2  0  0  0  0
 23 25  2  0  0  0  0
 23 15  1  0  0  0  0
 24 28  2  0  0  0  0
 26 23  1  0  0  0  0
 27 26  1  0  0  0  0
 28 25  1  0  0  0  0
 28 30  1  0  0  0  0
 29 30  1  0  0  0  0
 31 32  1  0  0  0  0
M  END
>  <MODEL>
4

>  <REMARK>
 VINA RESULT:      -5.6      2.553      7.858
  Name = 
  3 active torsions:
  status: ('A' for Active; 'I' for Inactive)
    1  A    between atoms: C_13  and  C_29
    2  A    between atoms: O_15  and  C_26
    3  A    between atoms: C_16  and  C_27
                            x       y       z     vdW  Elec       q    Type
                         _______ _______ _______ _____ _____    ______ ____

>  <TORSDO>
F 3

$$$$
=
 OpenBabel11062408243D

 32 37  0  0  1  0  0  0  0  0999 V2000
  161.3410  206.5270  150.5800 N   0  0  1  0  0  0  0  0  0  0  0  0
  161.6770  208.8800  150.9300 C   0  0  1  0  0  3  0  0  0  0  0  0
  161.6530  205.2340  151.2100 C   0  0  0  0  0  2  0  0  0  0  0  0
  161.8040  207.5350  151.5500 C   0  0  1  0  0  3  0  0  0  0  0  0
  161.0390  210.0100  151.6860 C   0  0  2  0  0  3  0  0  0  0  0  0
  162.9390  211.9110  148.2310 S   0  0  0  0  0  0  0  0  0  0  0  0
  162.5140  209.2110  148.9110 C   0  0  2  0  0  3  0  0  0  0  0  0
  160.5240  212.3750  148.8850 C   0  0  0  0  0  2  0  0  0  0  0  0
  160.7550  211.0500  149.4370 N   0  0  2  0  0  0  0  0  0  0  0  0
  160.9770  207.4900  152.8370 C   0  0  2  0  0  3  0  0  0  0  0  0
  161.2110  211.2760  150.8300 C   0  0  0  0  0  2  0  0  0  0  0  0
  161.3980  208.6310  153.7960 C   0  0  0  0  0  2  0  0  0  0  0  0
  161.1410  206.1270  153.4910 C   0  0  0  0  0  2  0  0  0  0  0  0
  161.7310  207.9460  148.4490 C   0  0  0  0  0  2  0  0  0  0  0  0
  162.0250  206.6210  149.2470 C   0  0  2  0  0  3  0  0  0  0  0  0
  162.8650  209.1960  150.2690 O   0  0  0  0  0  0  0  0  0  0  0  0
  161.6070  210.0170  153.1140 C   0  0  2  0  0  3  0  0  0  0  0  0
  160.8210  205.0270  152.4780 C   0  0  0  0  0  2  0  0  0  0  0  0
  161.7470  213.0660  148.7400 O   0  0  0  0  0  0  0  0  0  0  0  0
  161.7960  210.5480  148.5330 C   0  0  1  0  0  3  0  0  0  0  0  0
  161.0490  204.4550  146.0970 C   0  0  0  0  0  0  0  0  0  0  0  0
  160.9840  204.4590  144.8350 O   0  0  0  0  0  0  0  0  0  0  0  0
  161.5720  205.4900  148.3560 C   0  0  0  0  0  0  0  0  0  0  0  0
  160.7650  203.2060  146.8070 C   0  0  0  0  0  3  0  0  0  0  0  0
  161.2950  204.3020  148.9180 C   0  0  0  0  0  3  0  0  0  0  0  0
  161.4130  205.7130  146.8580 C   0  0  1  0  0  3  0  0  0  0  0  0
  162.6660  206.3460  146.2750 C   0  0  0  0  0  1  0  0  0  0  0  0
  160.8710  203.1320  148.1410 C   0  0  0  0  0  0  0  0  0  0  0  0
  160.7140  201.8250  150.2370 C   0  0  0  0  0  1  0  0  0  0  0  0
  160.6270  201.9430  148.8270 O   0  0  0  0  0  0  0  0  0  0  0  0
  160.9470  211.0970  153.9600 C   0  0  0  0  0  2  0  0  0  0  0  0
  159.5560  210.9170  153.9700 O   0  0  0  0  0  1  0  0  0  0  0  0
  1  3  1  1  0  0  0
  1  4  1  0  0  0  0
  2 16  1  1  0  0  0
  2  4  1  0  0  0  0
  2  5  1  0  0  0  0
  3 18  1  0  0  0  0
  4 10  1  0  0  0  0
  5 17  1  0  0  0  0
  6 20  1  0  0  0  0
  6 19  1  0  0  0  0
  7 16  1  0  0  0  0
  8  9  1  0  0  0  0
  9 11  1  0  0  0  0
 10 13  1  0  0  0  0
 10 12  1  0  0  0  0
 11  5  1  0  0  0  0
 14  7  1  0  0  0  0
 14 15  1  0  0  0  0
 15  1  1  0  0  0  0
 17 12  1  0  0  0  0
 17 31  1  0  0  0  0
 18 13  1  0  0  0  0
 19  8  1  0  0  0  0
 20  7  1  0  0  0  0
 20  9  1  0  0  0  0
 21 24  1  0  0  0  0
 21 26  1  0  0  0  0
 22 21  2  0  0  0  0
 23 25  2  0  0  0  0
 23 15  1  0  0  0  0
 24 28  2  0  0  0  0
 26 23  1  0  0  0  0
 27 26  1  0  0  0  0
 28 30  1  0  0  0  0
 28 25  1  0  0  0  0
 30 29  1  0  0  0  0
 31 32  1  0  0  0  0
M  END
>  <MODEL>
5

>  <REMARK>
 VINA RESULT:      -4.9      2.568      7.943
  Name = 
  3 active torsions:
  status: ('A' for Active; 'I' for Inactive)
    1  A    between atoms: C_13  and  C_29
    2  A    between atoms: O_15  and  C_26
    3  A    between atoms: C_16  and  C_27
                            x       y       z     vdW  Elec       q    Type
                         _______ _______ _______ _____ _____    ______ ____

>  <TORSDO>
F 3

$$$$
=
 OpenBabel11062408243D

 32 37  0  0  1  0  0  0  0  0999 V2000
  161.5890  207.6190  151.1190 N   0  0  1  0  0  0  0  0  0  0  0  0
  161.4570  209.9950  151.4560 C   0  0  1  0  0  3  0  0  0  0  0  0
  162.1460  206.4160  151.7560 C   0  0  0  0  0  2  0  0  0  0  0  0
  161.8440  208.7030  152.0840 C   0  0  1  0  0  3  0  0  0  0  0  0
  160.6090  210.9820  152.2050 C   0  0  2  0  0  3  0  0  0  0  0  0
  162.1070  213.2000  148.7410 S   0  0  0  0  0  0  0  0  0  0  0  0
  162.2170  210.4720  149.4370 C   0  0  2  0  0  3  0  0  0  0  0  0
  159.6470  213.1860  149.3920 C   0  0  0  0  0  2  0  0  0  0  0  0
  160.1310  211.9350  149.9510 N   0  0  2  0  0  0  0  0  0  0  0  0
  161.0390  208.5050  153.3700 C   0  0  2  0  0  3  0  0  0  0  0  0
  160.5320  212.2530  151.3430 C   0  0  0  0  0  2  0  0  0  0  0  0
  161.2270  209.7110  154.3230 C   0  0  0  0  0  2  0  0  0  0  0  0
  161.4650  207.2030  154.0320 C   0  0  0  0  0  2  0  0  0  0  0  0
  161.6970  209.0760  148.9800 C   0  0  0  0  0  2  0  0  0  0  0  0
  162.2430  207.8380  149.7860 C   0  0  2  0  0  3  0  0  0  0  0  0
  162.5620  210.5330  150.7950 O   0  0  0  0  0  0  0  0  0  0  0  0
  161.1630  211.1070  153.6340 C   0  0  2  0  0  3  0  0  0  0  0  0
  161.3670  206.0560  153.0250 C   0  0  0  0  0  2  0  0  0  0  0  0
  160.7120  214.1020  149.2440 O   0  0  0  0  0  0  0  0  0  0  0  0
  161.2530  211.6410  149.0510 C   0  0  1  0  0  3  0  0  0  0  0  0
  161.1580  204.2940  148.4360 C   0  0  0  0  0  0  0  0  0  0  0  0
  160.5580  203.2250  148.7400 O   0  0  0  0  0  0  0  0  0  0  0  0
  162.0210  206.6360  148.9010 C   0  0  0  0  0  0  0  0  0  0  0  0
  161.6120  204.4700  147.0540 C   0  0  0  0  0  3  0  0  0  0  0  0
  162.3990  206.7080  147.6140 C   0  0  0  0  0  3  0  0  0  0  0  0
  161.4050  205.3670  149.4750 C   0  0  1  0  0  3  0  0  0  0  0  0
  160.1220  205.6890  150.2250 C   0  0  0  0  0  1  0  0  0  0  0  0
  162.2060  205.6070  146.6640 C   0  0  0  0  0  0  0  0  0  0  0  0
  161.7850  205.5610  144.2260 C   0  0  0  0  0  1  0  0  0  0  0  0
  162.6210  205.7970  145.3470 O   0  0  0  0  0  0  0  0  0  0  0  0
  160.3030  212.0420  154.4740 C   0  0  0  0  0  2  0  0  0  0  0  0
  158.9890  211.5550  154.5420 O   0  0  0  0  0  1  0  0  0  0  0  0
  1  3  1  1  0  0  0
  1  4  1  0  0  0  0
  2 16  1  1  0  0  0
  2  4  1  0  0  0  0
  2  5  1  0  0  0  0
  3 18  1  0  0  0  0
  4 10  1  0  0  0  0
  5 17  1  0  0  0  0
  6 20  1  0  0  0  0
  6 19  1  0  0  0  0
  7 16  1  0  0  0  0
  8  9  1  0  0  0  0
  9 11  1  0  0  0  0
 10 13  1  0  0  0  0
 10 12  1  0  0  0  0
 11  5  1  0  0  0  0
 14  7  1  0  0  0  0
 14 15  1  0  0  0  0
 15  1  1  0  0  0  0
 17 12  1  0  0  0  0
 17 31  1  0  0  0  0
 18 13  1  0  0  0  0
 19  8  1  0  0  0  0
 20  7  1  0  0  0  0
 20  9  1  0  0  0  0
 21 22  2  0  0  0  0
 21 26  1  0  0  0  0
 23 26  1  0  0  0  0
 23 15  1  0  0  0  0
 24 21  1  0  0  0  0
 25 23  2  0  0  0  0
 26 27  1  0  0  0  0
 28 24  2  0  0  0  0
 28 25  1  0  0  0  0
 29 30  1  0  0  0  0
 30 28  1  0  0  0  0
 31 32  1  0  0  0  0
M  END
>  <MODEL>
6

>  <REMARK>
 VINA RESULT:      -4.7      2.698      7.800
  Name = 
  3 active torsions:
  status: ('A' for Active; 'I' for Inactive)
    1  A    between atoms: C_13  and  C_29
    2  A    between atoms: O_15  and  C_26
    3  A    between atoms: C_16  and  C_27
                            x       y       z     vdW  Elec       q    Type
                         _______ _______ _______ _____ _____    ______ ____

>  <TORSDO>
F 3

$$$$
=
 OpenBabel11062408243D

 32 37  0  0  1  0  0  0  0  0999 V2000
  161.7120  209.4080  151.1860 N   0  0  1  0  0  0  0  0  0  0  0  0
  161.8320  207.1880  150.2740 C   0  0  1  0  0  3  0  0  0  0  0  0
  162.3180  210.7370  151.0110 C   0  0  0  0  0  2  0  0  0  0  0  0
  162.2640  208.5990  150.0860 C   0  0  1  0  0  3  0  0  0  0  0  0
  161.2580  206.4080  149.1260 C   0  0  2  0  0  3  0  0  0  0  0  0
  162.0450  203.4180  152.2240 S   0  0  0  0  0  0  0  0  0  0  0  0
  162.1230  206.2340  152.2450 C   0  0  2  0  0  3  0  0  0  0  0  0
  159.8150  203.5670  151.0080 C   0  0  0  0  0  2  0  0  0  0  0  0
  160.3280  204.9230  150.8990 N   0  0  2  0  0  0  0  0  0  0  0  0
  161.7750  209.1010  148.7250 C   0  0  2  0  0  3  0  0  0  0  0  0
  161.0690  204.9630  149.6150 C   0  0  0  0  0  2  0  0  0  0  0  0
  162.2690  208.1700  147.5900 C   0  0  0  0  0  2  0  0  0  0  0  0
  162.2540  210.5300  148.5180 C   0  0  0  0  0  2  0  0  0  0  0  0
  161.4120  207.4680  152.8760 C   0  0  0  0  0  2  0  0  0  0  0  0
  162.0450  208.8720  152.5490 C   0  0  2  0  0  3  0  0  0  0  0  0
  162.7840  206.5150  151.0400 O   0  0  0  0  0  0  0  0  0  0  0  0
  162.1430  206.6460  147.8900 C   0  0  2  0  0  3  0  0  0  0  0  0
  161.8390  211.3910  149.7120 C   0  0  0  0  0  2  0  0  0  0  0  0
  160.8760  202.6540  151.1930 O   0  0  0  0  0  0  0  0  0  0  0  0
  161.1800  204.9960  152.0920 C   0  0  1  0  0  3  0  0  0  0  0  0
  159.9140  211.5510  154.5100 C   0  0  0  0  0  0  0  0  0  0  0  0
  158.8900  212.2870  154.4460 O   0  0  0  0  0  0  0  0  0  0  0  0
  161.5350  209.8160  153.6110 C   0  0  0  0  0  0  0  0  0  0  0  0
  160.6570  211.4960  155.7720 C   0  0  0  0  0  3  0  0  0  0  0  0
  162.1500  209.8310  154.8050 C   0  0  0  0  0  3  0  0  0  0  0  0
  160.3650  210.7430  153.3110 C   0  0  1  0  0  3  0  0  0  0  0  0
  159.2000  209.9610  152.7250 C   0  0  0  0  0  1  0  0  0  0  0  0
  161.7190  210.6910  155.9120 C   0  0  0  0  0  0  0  0  0  0  0  0
  163.7650  211.0330  157.2600 C   0  0  0  0  0  1  0  0  0  0  0  0
  162.4190  210.6120  157.1150 O   0  0  0  0  0  0  0  0  0  0  0  0
  161.5750  205.9400  146.6670 C   0  0  0  0  0  2  0  0  0  0  0  0
  160.4130  206.5930  146.2310 O   0  0  0  0  0  1  0  0  0  0  0  0
  1  3  1  1  0  0  0
  1 15  1  0  0  0  0
  2 16  1  6  0  0  0
  4  2  1  0  0  0  0
  4  1  1  0  0  0  0
  5 11  1  0  0  0  0
  5  2  1  0  0  0  0
  7 14  1  0  0  0  0
  8 19  1  0  0  0  0
  9  8  1  0  0  0  0
  9 20  1  0  0  0  0
 10  4  1  0  0  0  0
 11  9  1  0  0  0  0
 12 17  1  0  0  0  0
 12 10  1  0  0  0  0
 13 10  1  0  0  0  0
 13 18  1  0  0  0  0
 15 14  1  0  0  0  0
 15 23  1  0  0  0  0
 16  7  1  0  0  0  0
 17  5  1  0  0  0  0
 18  3  1  0  0  0  0
 19  6  1  0  0  0  0
 20  6  1  0  0  0  0
 20  7  1  0  0  0  0
 21 24  1  0  0  0  0
 22 21  2  0  0  0  0
 23 25  2  0  0  0  0
 24 28  2  0  0  0  0
 25 28  1  0  0  0  0
 26 23  1  0  0  0  0
 26 21  1  0  0  0  0
 27 26  1  0  0  0  0
 28 30  1  0  0  0  0
 30 29  1  0  0  0  0
 31 17  1  0  0  0  0
 32 31  1  0  0  0  0
M  END
>  <MODEL>
7

>  <REMARK>
 VINA RESULT:      -4.5      1.367      2.331
  Name = 
  3 active torsions:
  status: ('A' for Active; 'I' for Inactive)
    1  A    between atoms: C_13  and  C_29
    2  A    between atoms: O_15  and  C_26
    3  A    between atoms: C_16  and  C_27
                            x       y       z     vdW  Elec       q    Type
                         _______ _______ _______ _____ _____    ______ ____

>  <TORSDO>
F 3

$$$$
=
 OpenBabel11062408243D

 32 37  0  0  1  0  0  0  0  0999 V2000
  161.5270  208.6190  151.1710 N   0  0  1  0  0  0  0  0  0  0  0  0
  161.7550  206.5030  150.0540 C   0  0  1  0  0  3  0  0  0  0  0  0
  162.1410  209.9550  151.1990 C   0  0  0  0  0  2  0  0  0  0  0  0
  162.1980  207.9230  150.0590 C   0  0  1  0  0  3  0  0  0  0  0  0
  161.3100  205.8490  148.7780 C   0  0  2  0  0  3  0  0  0  0  0  0
  161.7790  202.5520  151.6200 S   0  0  0  0  0  0  0  0  0  0  0  0
  161.8400  205.3510  151.9370 C   0  0  2  0  0  3  0  0  0  0  0  0
  159.6900  202.8380  150.1950 C   0  0  0  0  0  2  0  0  0  0  0  0
  160.2050  204.1950  150.2810 N   0  0  2  0  0  0  0  0  0  0  0  0
  161.8540  208.5650  148.7130 C   0  0  2  0  0  3  0  0  0  0  0  0
  161.0780  204.3620  149.0940 C   0  0  0  0  0  2  0  0  0  0  0  0
  162.4700  207.7520  147.5470 C   0  0  0  0  0  2  0  0  0  0  0  0
  162.3440  210.0050  148.7050 C   0  0  0  0  0  2  0  0  0  0  0  0
  161.0600  206.5180  152.6130 C   0  0  0  0  0  2  0  0  0  0  0  0
  161.7170  207.9440  152.5000 C   0  0  2  0  0  3  0  0  0  0  0  0
  162.6230  205.7490  150.8440 O   0  0  0  0  0  0  0  0  0  0  0  0
  162.3200  206.2070  147.6750 C   0  0  2  0  0  3  0  0  0  0  0  0
  161.8000  210.7420  149.9300 C   0  0  0  0  0  2  0  0  0  0  0  0
  160.7300  201.9040  150.3970 O   0  0  0  0  0  0  0  0  0  0  0  0
  160.9250  204.1400  151.5590 C   0  0  1  0  0  3  0  0  0  0  0  0
  159.9640  210.8720  154.4790 C   0  0  0  0  0  0  0  0  0  0  0  0
  159.4590  212.0240  154.3640 O   0  0  0  0  0  0  0  0  0  0  0  0
  161.0920  208.7780  153.5920 C   0  0  0  0  0  0  0  0  0  0  0  0
  159.8600  210.1910  155.7720 C   0  0  0  0  0  3  0  0  0  0  0  0
  160.9470  208.2330  154.8110 C   0  0  0  0  0  3  0  0  0  0  0  0
  160.6620  210.2110  153.3100 C   0  0  1  0  0  3  0  0  0  0  0  0
  159.7930  210.2730  152.0640 C   0  0  0  0  0  1  0  0  0  0  0  0
  160.3310  208.9460  155.9350 C   0  0  0  0  0  0  0  0  0  0  0  0
  160.1180  206.8680  157.2610 C   0  0  0  0  0  1  0  0  0  0  0  0
  160.2160  208.2780  157.1530 O   0  0  0  0  0  0  0  0  0  0  0  0
  161.8890  205.6330  146.3320 C   0  0  0  0  0  2  0  0  0  0  0  0
  160.5510  205.9640  146.0750 O   0  0  0  0  0  1  0  0  0  0  0  0
  1  3  1  1  0  0  0
  1 15  1  0  0  0  0
  2  4  1  0  0  0  0
  2 16  1  6  0  0  0
  4  1  1  0  0  0  0
  5 11  1  0  0  0  0
  5  2  1  0  0  0  0
  7 14  1  0  0  0  0
  8  9  1  0  0  0  0
  8 19  1  0  0  0  0
  9 20  1  0  0  0  0
 10  4  1  0  0  0  0
 11  9  1  0  0  0  0
 12 17  1  0  0  0  0
 12 10  1  0  0  0  0
 13 10  1  0  0  0  0
 13 18  1  0  0  0  0
 15 14  1  0  0  0  0
 15 23  1  0  0  0  0
 16  7  1  0  0  0  0
 17  5  1  0  0  0  0
 18  3  1  0  0  0  0
 19  6  1  0  0  0  0
 20  6  1  0  0  0  0
 20  7  1  0  0  0  0
 21 24  1  0  0  0  0
 22 21  2  0  0  0  0
 23 25  2  0  0  0  0
 24 28  2  0  0  0  0
 25 28  1  0  0  0  0
 26 23  1  0  0  0  0
 26 21  1  0  0  0  0
 27 26  1  0  0  0  0
 28 30  1  0  0  0  0
 30 29  1  0  0  0  0
 31 17  1  0  0  0  0
 32 31  1  0  0  0  0
M  END
>  <MODEL>
8

>  <REMARK>
 VINA RESULT:      -4.5      0.888      2.263
  Name = 
  3 active torsions:
  status: ('A' for Active; 'I' for Inactive)
    1  A    between atoms: C_13  and  C_29
    2  A    between atoms: O_15  and  C_26
    3  A    between atoms: C_16  and  C_27
                            x       y       z     vdW  Elec       q    Type
                         _______ _______ _______ _____ _____    ______ ____

>  <TORSDO>
F 3

$$$$
=
 OpenBabel11062408243D

 32 37  0  0  1  0  0  0  0  0999 V2000
  161.6750  208.4970  151.4630 N   0  0  1  0  0  0  0  0  0  0  0  0
  161.7730  206.4260  150.2470 C   0  0  1  0  0  3  0  0  0  0  0  0
  162.2840  209.8360  151.4680 C   0  0  0  0  0  2  0  0  0  0  0  0
  162.2090  207.8480  150.2530 C   0  0  1  0  0  3  0  0  0  0  0  0
  161.1810  205.8160  149.0100 C   0  0  2  0  0  3  0  0  0  0  0  0
  161.9950  202.4200  151.6490 S   0  0  0  0  0  0  0  0  0  0  0  0
  162.0860  205.2050  152.0620 C   0  0  2  0  0  3  0  0  0  0  0  0
  159.7500  202.7440  150.4960 C   0  0  0  0  0  2  0  0  0  0  0  0
  160.2670  204.1000  150.5710 N   0  0  2  0  0  0  0  0  0  0  0  0
  161.7050  208.5370  148.9830 C   0  0  2  0  0  3  0  0  0  0  0  0
  160.9920  204.3180  149.2950 C   0  0  0  0  0  2  0  0  0  0  0  0
  162.1790  207.7730  147.7220 C   0  0  0  0  0  2  0  0  0  0  0  0
  162.1860  209.9800  148.9710 C   0  0  0  0  0  2  0  0  0  0  0  0
  161.3890  206.3400  152.8690 C   0  0  0  0  0  2  0  0  0  0  0  0
  162.0240  207.7750  152.7330 C   0  0  2  0  0  3  0  0  0  0  0  0
  162.7320  205.6500  150.8990 O   0  0  0  0  0  0  0  0  0  0  0  0
  162.0500  206.2220  147.8080 C   0  0  2  0  0  3  0  0  0  0  0  0
  161.7910  210.6670  150.2790 C   0  0  0  0  0  2  0  0  0  0  0  0
  160.8090  201.8100  150.5370 O   0  0  0  0  0  0  0  0  0  0  0  0
  161.1350  204.0030  151.7500 C   0  0  1  0  0  3  0  0  0  0  0  0
  159.8670  209.0720  155.7710 C   0  0  0  0  0  0  0  0  0  0  0  0
  158.8170  208.8620  156.4410 O   0  0  0  0  0  0  0  0  0  0  0  0
  161.5320  208.5620  153.9230 C   0  0  0  0  0  0  0  0  0  0  0  0
  160.7890  210.1150  156.2260 C   0  0  0  0  0  3  0  0  0  0  0  0
  162.3150  209.5360  154.4160 C   0  0  0  0  0  3  0  0  0  0  0  0
  160.1650  208.2640  154.5250 C   0  0  1  0  0  3  0  0  0  0  0  0
  160.0170  206.7770  154.8040 C   0  0  0  0  0  1  0  0  0  0  0  0
  161.9430  210.3430  155.5830 C   0  0  0  0  0  0  0  0  0  0  0  0
  163.7240  211.1270  157.1120 C   0  0  0  0  0  1  0  0  0  0  0  0
  162.8400  211.3170  156.0200 O   0  0  0  0  0  0  0  0  0  0  0  0
  161.4630  205.6960  146.5060 C   0  0  0  0  0  2  0  0  0  0  0  0
  162.4080  205.8040  145.4740 O   0  0  0  0  0  1  0  0  0  0  0  0
  1  3  1  1  0  0  0
  1 15  1  0  0  0  0
  2  4  1  0  0  0  0
  2 16  1  6  0  0  0
  4  1  1  0  0  0  0
  5 11  1  0  0  0  0
  5  2  1  0  0  0  0
  6 20  1  0  0  0  0
  7 14  1  0  0  0  0
  8 19  1  0  0  0  0
  8  9  1  0  0  0  0
  9 20  1  0  0  0  0
 10  4  1  0  0  0  0
 11  9  1  0  0  0  0
 12 17  1  0  0  0  0
 12 10  1  0  0  0  0
 13 10  1  0  0  0  0
 13 18  1  0  0  0  0
 15 14  1  0  0  0  0
 15 23  1  0  0  0  0
 16  7  1  0  0  0  0
 17  5  1  0  0  0  0
 18  3  1  0  0  0  0
 19  6  1  0  0  0  0
 20  7  1  0  0  0  0
 21 24  1  0  0  0  0
 21 22  2  0  0  0  0
 23 25  2  0  0  0  0
 23 26  1  0  0  0  0
 25 28  1  0  0  0  0
 26 27  1  0  0  0  0
 26 21  1  0  0  0  0
 28 30  1  0  0  0  0
 28 24  2  0  0  0  0
 30 29  1  0  0  0  0
 31 17  1  0  0  0  0
 32 31  1  0  0  0  0
M  END
>  <MODEL>
9

>  <REMARK>
 VINA RESULT:      -4.2      1.424      1.864
  Name = 
  3 active torsions:
  status: ('A' for Active; 'I' for Inactive)
    1  A    between atoms: C_13  and  C_29
    2  A    between atoms: O_15  and  C_26
    3  A    between atoms: C_16  and  C_27
                            x       y       z     vdW  Elec       q    Type
                         _______ _______ _______ _____ _____    ______ ____

>  <TORSDO>
F 3

$$$$
