=
 OpenBabel11052423083D

 27 31  0  0  1  0  0  0  0  0999 V2000
  160.5870  209.2630  152.2000 C   0  0  2  0  0  3  0  0  0  0  0  0
  162.1150  208.1710  150.7360 N   0  0  2  0  0  0  0  0  0  0  0  0
  160.7790  207.8580  152.7950 C   0  0  1  0  0  3  0  0  0  0  0  0
  160.9870  204.1930  149.6680 C   0  0  0  0  0  3  0  0  0  0  0  0
  160.5180  201.8680  150.2470 N   0  0  0  0  0  1  0  0  0  0  0  0
  161.2350  207.9190  149.5810 C   0  0  0  0  0  2  0  0  0  0  0  0
  161.3050  204.8180  152.3740 C   0  0  0  0  0  3  0  0  0  0  0  0
  161.0980  207.5140  156.6400 C   0  0  0  0  0  1  0  0  0  0  0  0
  160.9930  203.5110  151.9900 C   0  0  0  0  0  3  0  0  0  0  0  0
  159.7630  209.1840  155.4300 N   0  0  0  0  0  2  0  0  0  0  0  0
  161.7990  207.2300  151.8380 C   0  0  1  0  0  3  0  0  0  0  0  0
  161.8040  209.4800  151.3270 C   0  0  1  0  0  3  0  0  0  0  0  0
  160.8310  203.1990  150.6380 C   0  0  0  0  0  0  0  0  0  0  0  0
  161.2870  205.5040  150.0470 C   0  0  0  0  0  0  0  0  0  0  0  0
  160.2450  210.3830  153.0890 N   0  0  0  0  0  2  0  0  0  0  0  0
  161.4510  205.8220  151.4080 C   0  0  0  0  0  0  0  0  0  0  0  0
  160.4260  207.8790  155.3290 C   0  0  1  0  0  3  0  0  0  0  0  0
  161.5050  206.5420  148.9980 C   0  0  0  0  0  2  0  0  0  0  0  0
  160.7220  210.2950  155.4850 C   0  0  0  0  0  2  0  0  0  0  0  0
  161.2720  210.6240  154.0960 C   0  0  0  0  0  2  0  0  0  0  0  0
  161.4290  207.7980  154.1790 C   0  0  0  0  0  2  0  0  0  0  0  0
  161.5320  212.7780  148.6000 C   0  0  0  0  0  3  0  0  0  0  0  0
  161.7130  210.6180  150.3390 C   0  0  0  0  0  0  0  0  0  0  0  0
  160.9530  211.7040  150.6530 N   0  0  0  0  0  0  0  0  0  0  0  0
  160.8480  212.7710  149.8160 C   0  0  0  0  0  3  0  0  0  0  0  0
  162.3250  211.6820  148.2580 C   0  0  0  0  0  3  0  0  0  0  0  0
  162.4210  210.5950  149.1290 C   0  0  0  0  0  3  0  0  0  0  0  0
  1  3  1  0  0  0  0
  1 15  1  1  0  0  0
  2  6  1  6  0  0  0
  2 12  1  0  0  0  0
  2 11  1  0  0  0  0
  3 21  1  1  0  0  0
  4 14  2  0  0  0  0
  4 13  1  0  0  0  0
  5 13  1  0  0  0  0
  9  7  1  0  0  0  0
 10 19  1  0  0  0  0
 11 16  1  6  0  0  0
 11  3  1  0  0  0  0
 12 23  1  6  0  0  0
 12  1  1  0  0  0  0
 13  9  2  0  0  0  0
 14 16  1  0  0  0  0
 15 20  1  0  0  0  0
 16  7  2  0  0  0  0
 17 10  1  0  0  0  0
 17  8  1  1  0  0  0
 18  6  1  0  0  0  0
 18 14  1  0  0  0  0
 20 19  1  0  0  0  0
 21 17  1  0  0  0  0
 22 25  1  0  0  0  0
 23 24  1  0  0  0  0
 25 24  2  0  0  0  0
 26 22  2  0  0  0  0
 26 27  1  0  0  0  0
 27 23  2  0  0  0  0
M  END
>  <MODEL>
1

>  <REMARK>
 VINA RESULT:      -9.3      0.000      0.000
  Name = 
  1 active torsions:
  status: ('A' for Active; 'I' for Inactive)
    1  A    between atoms: C_9  and  C_15
                            x       y       z     vdW  Elec       q    Type
                         _______ _______ _______ _____ _____    ______ ____

>  <TORSDO>
F 1

$$$$
=
 OpenBabel11052423083D

 27 31  0  0  1  0  0  0  0  0999 V2000
  161.7280  204.6250  148.8980 C   0  0  2  0  0  3  0  0  0  0  0  0
  160.7060  206.7590  148.6250 N   0  0  2  0  0  0  0  0  0  0  0  0
  161.3550  205.0770  150.3200 C   0  0  1  0  0  3  0  0  0  0  0  0
  162.0770  209.7280  151.3730 C   0  0  0  0  0  3  0  0  0  0  0  0
  162.3320  210.5970  153.6400 N   0  0  0  0  0  1  0  0  0  0  0  0
  161.8930  207.5800  148.3220 C   0  0  0  0  0  2  0  0  0  0  0  0
  160.9600  207.3740  152.3850 C   0  0  0  0  0  3  0  0  0  0  0  0
  159.8850  202.4530  152.7610 C   0  0  0  0  0  1  0  0  0  0  0  0
  161.3640  208.3880  153.2580 C   0  0  0  0  0  3  0  0  0  0  0  0
  161.5360  202.0350  150.9900 N   0  0  0  0  0  2  0  0  0  0  0  0
  160.6680  206.4250  150.0690 C   0  0  1  0  0  3  0  0  0  0  0  0
  160.8330  205.4410  147.9900 C   0  0  1  0  0  3  0  0  0  0  0  0
  161.9250  209.5630  152.7520 C   0  0  0  0  0  0  0  0  0  0  0  0
  161.6850  208.7120  150.4970 C   0  0  0  0  0  0  0  0  0  0  0  0
  161.7930  203.1890  148.5910 N   0  0  0  0  0  2  0  0  0  0  0  0
  161.1190  207.5270  151.0020 C   0  0  0  0  0  0  0  0  0  0  0  0
  160.9250  203.0640  151.8390 C   0  0  1  0  0  3  0  0  0  0  0  0
  161.8020  208.9250  149.0250 C   0  0  0  0  0  2  0  0  0  0  0  0
  160.6130  201.5430  149.9590 C   0  0  0  0  0  2  0  0  0  0  0  0
  160.5110  202.5220  148.7890 C   0  0  0  0  0  2  0  0  0  0  0  0
  160.3160  204.2200  151.0470 C   0  0  0  0  0  2  0  0  0  0  0  0
  162.0180  205.4530  143.8680 C   0  0  0  0  0  3  0  0  0  0  0  0
  161.2280  205.4730  146.5320 C   0  0  0  0  0  0  0  0  0  0  0  0
  162.4900  205.1010  146.1830 N   0  0  0  0  0  0  0  0  0  0  0  0
  162.9000  205.0860  144.8860 C   0  0  0  0  0  3  0  0  0  0  0  0
  160.7160  205.8290  144.1980 C   0  0  0  0  0  3  0  0  0  0  0  0
  160.3120  205.8380  145.5340 C   0  0  0  0  0  3  0  0  0  0  0  0
  1 15  1  1  0  0  0
  1  3  1  0  0  0  0
  2  6  1  1  0  0  0
  2 11  1  0  0  0  0
  3 21  1  6  0  0  0
  4 13  1  0  0  0  0
  6 18  1  0  0  0  0
  7  9  1  0  0  0  0
 10 17  1  0  0  0  0
 11  3  1  0  0  0  0
 11 16  1  1  0  0  0
 12 23  1  6  0  0  0
 12  2  1  0  0  0  0
 12  1  1  0  0  0  0
 13  9  2  0  0  0  0
 13  5  1  0  0  0  0
 14 16  1  0  0  0  0
 14  4  2  0  0  0  0
 15 20  1  0  0  0  0
 16  7  2  0  0  0  0
 17  8  1  6  0  0  0
 18 14  1  0  0  0  0
 19 10  1  0  0  0  0
 20 19  1  0  0  0  0
 21 17  1  0  0  0  0
 22 26  2  0  0  0  0
 22 25  1  0  0  0  0
 24 23  1  0  0  0  0
 25 24  2  0  0  0  0
 26 27  1  0  0  0  0
 27 23  2  0  0  0  0
M  END
>  <MODEL>
2

>  <REMARK>
 VINA RESULT:      -7.4      2.523      6.473
  Name = 
  1 active torsions:
  status: ('A' for Active; 'I' for Inactive)
    1  A    between atoms: C_9  and  C_15
                            x       y       z     vdW  Elec       q    Type
                         _______ _______ _______ _____ _____    ______ ____

>  <TORSDO>
F 1

$$$$
=
 OpenBabel11052423083D

 27 31  0  0  1  0  0  0  0  0999 V2000
  160.9820  207.4120  150.5930 C   0  0  2  0  0  3  0  0  0  0  0  0
  161.8000  206.8230  152.7510 N   0  0  2  0  0  0  0  0  0  0  0  0
  161.2590  208.7500  151.2970 C   0  0  1  0  0  3  0  0  0  0  0  0
  160.0500  209.0360  155.9570 C   0  0  0  0  0  3  0  0  0  0  0  0
  159.6310  211.1310  157.1400 N   0  0  0  0  0  1  0  0  0  0  0  0
  160.5500  206.3700  153.3890 C   0  0  0  0  0  2  0  0  0  0  0  0
  161.3550  210.4310  153.9170 C   0  0  0  0  0  3  0  0  0  0  0  0
  162.8900  211.6060  149.2510 C   0  0  0  0  0  1  0  0  0  0  0  0
  160.8230  211.1240  155.0080 C   0  0  0  0  0  3  0  0  0  0  0  0
  161.3520  209.8920  148.3950 N   0  0  0  0  0  2  0  0  0  0  0  0
  161.8190  208.3020  152.6520 C   0  0  1  0  0  3  0  0  0  0  0  0
  161.8250  206.4030  151.3430 C   0  0  1  0  0  3  0  0  0  0  0  0
  160.1680  210.4260  156.0270 C   0  0  0  0  0  0  0  0  0  0  0  0
  160.5700  208.3400  154.8620 C   0  0  0  0  0  0  0  0  0  0  0  0
  161.0690  207.3350  149.1270 N   0  0  0  0  0  2  0  0  0  0  0  0
  161.2300  209.0390  153.8340 C   0  0  0  0  0  0  0  0  0  0  0  0
  161.8290  210.5780  149.6010 C   0  0  1  0  0  3  0  0  0  0  0  0
  160.4850  206.8510  154.8290 C   0  0  0  0  0  2  0  0  0  0  0  0
  162.3540  208.9710  147.8440 C   0  0  0  0  0  2  0  0  0  0  0  0
  162.4010  207.6620  148.6340 C   0  0  0  0  0  2  0  0  0  0  0  0
  162.3500  209.6250  150.6750 C   0  0  0  0  0  2  0  0  0  0  0  0
  160.8810  202.2910  150.5740 C   0  0  0  0  0  3  0  0  0  0  0  0
  161.4810  204.9520  151.1070 C   0  0  0  0  0  0  0  0  0  0  0  0
  161.0790  204.5630  149.8650 N   0  0  0  0  0  0  0  0  0  0  0  0
  160.7770  203.2680  149.5820 C   0  0  0  0  0  3  0  0  0  0  0  0
  161.2990  202.6610  151.8520 C   0  0  0  0  0  3  0  0  0  0  0  0
  161.6040  203.9950  152.1250 C   0  0  0  0  0  3  0  0  0  0  0  0
  1 15  1  6  0  0  0
  1  3  1  0  0  0  0
  1 12  1  0  0  0  0
  2  6  1  6  0  0  0
  3 21  1  6  0  0  0
  3 11  1  0  0  0  0
  4 13  1  0  0  0  0
  6 18  1  0  0  0  0
  7  9  1  0  0  0  0
  9 13  2  0  0  0  0
 10 17  1  0  0  0  0
 11  2  1  0  0  0  0
 11 16  1  1  0  0  0
 12 23  1  1  0  0  0
 12  2  1  0  0  0  0
 13  5  1  0  0  0  0
 14  4  2  0  0  0  0
 16  7  2  0  0  0  0
 16 14  1  0  0  0  0
 17  8  1  6  0  0  0
 17 21  1  0  0  0  0
 18 14  1  0  0  0  0
 19 10  1  0  0  0  0
 19 20  1  0  0  0  0
 20 15  1  0  0  0  0
 22 26  1  0  0  0  0
 23 27  1  0  0  0  0
 24 23  2  0  0  0  0
 25 24  1  0  0  0  0
 25 22  2  0  0  0  0
 26 27  2  0  0  0  0
M  END
>  <MODEL>
3

>  <REMARK>
 VINA RESULT:      -6.4      1.658      6.830
  Name = 
  1 active torsions:
  status: ('A' for Active; 'I' for Inactive)
    1  A    between atoms: C_9  and  C_15
                            x       y       z     vdW  Elec       q    Type
                         _______ _______ _______ _____ _____    ______ ____

>  <TORSDO>
F 1

$$$$
