=
 OpenBabel11052423063D

 27 31  0  0  1  0  0  0  0  0999 V2000
  161.0070  210.6190  154.5280 C   0  0  0  0  0  2  0  0  0  0  0  0
  160.7160  210.2150  152.0260 C   0  0  0  0  0  0  0  0  0  0  0  0
  160.8980  207.8440  152.8600 N   0  0  0  0  0  2  0  0  0  0  0  0
  162.3880  208.8000  148.4390 N   0  0  0  0  0  2  0  0  0  0  0  0
  163.0030  206.5720  148.0020 O   0  0  0  0  0  0  0  0  0  0  0  0
  160.9880  211.1400  150.9910 C   0  0  0  0  0  3  0  0  0  0  0  0
  161.9750  207.0880  150.1470 C   0  0  2  0  0  3  0  0  0  0  0  0
  160.1430  206.9390  156.4990 C   0  0  0  0  0  2  0  0  0  0  0  0
  160.7630  206.1800  150.0270 C   0  0  0  0  0  1  0  0  0  0  0  0
  159.7140  208.2500  156.7680 O   0  0  0  0  0  0  0  0  0  0  0  0
  161.5530  208.4520  150.5870 C   0  0  0  0  0  0  0  0  0  0  0  0
  160.0750  210.6880  153.3140 C   0  0  2  0  0  3  0  0  0  0  0  0
  162.4970  207.4200  148.7810 C   0  0  0  0  0  0  0  0  0  0  0  0
  161.8040  209.3750  149.5940 C   0  0  0  0  0  0  0  0  0  0  0  0
  161.5500  209.2110  154.7920 C   0  0  1  0  0  3  0  0  0  0  0  0
  161.0320  208.8400  151.8290 C   0  0  0  0  0  0  0  0  0  0  0  0
  160.6490  206.7950  155.0530 C   0  0  0  0  0  2  0  0  0  0  0  0
  161.5380  210.7280  149.7720 C   0  0  0  0  0  3  0  0  0  0  0  0
  160.8210  208.9700  157.2580 C   0  0  0  0  0  2  0  0  0  0  0  0
  161.9870  209.0640  156.2560 C   0  0  0  0  0  2  0  0  0  0  0  0
  160.6030  208.1090  154.2630 C   0  0  2  0  0  3  0  0  0  0  0  0
  158.0010  214.4530  153.1230 C   0  0  0  0  0  3  0  0  0  0  0  0
  159.3560  212.0040  153.2250 C   0  0  0  0  0  0  0  0  0  0  0  0
  158.5350  212.3120  152.1280 C   0  0  0  0  0  3  0  0  0  0  0  0
  157.8620  213.5360  152.0780 C   0  0  0  0  0  3  0  0  0  0  0  0
  158.8120  214.1480  154.2200 C   0  0  0  0  0  3  0  0  0  0  0  0
  159.4860  212.9240  154.2710 C   0  0  0  0  0  3  0  0  0  0  0  0
  2 12  1  0  0  0  0
  3 21  1  0  0  0  0
  4 13  1  0  0  0  0
  4 14  1  0  0  0  0
  5 13  2  0  0  0  0
  6  2  2  0  0  0  0
  7  9  1  6  0  0  0
  7 11  1  0  0  0  0
  8 10  1  0  0  0  0
 10 19  1  0  0  0  0
 11 16  2  0  0  0  0
 12 23  1  6  0  0  0
 12  1  1  0  0  0  0
 13  7  1  0  0  0  0
 14 18  2  0  0  0  0
 14 11  1  0  0  0  0
 15  1  1  1  0  0  0
 15 20  1  0  0  0  0
 16  2  1  0  0  0  0
 16  3  1  0  0  0  0
 17  8  1  0  0  0  0
 18  6  1  0  0  0  0
 20 19  1  0  0  0  0
 21 15  1  0  0  0  0
 21 17  1  1  0  0  0
 22 26  1  0  0  0  0
 23 27  1  0  0  0  0
 24 23  2  0  0  0  0
 25 24  1  0  0  0  0
 25 22  2  0  0  0  0
 26 27  2  0  0  0  0
M  END
>  <MODEL>
1

>  <REMARK>
 VINA RESULT:      -6.1      0.000      0.000
  Name = 
  1 active torsions:
  status: ('A' for Active; 'I' for Inactive)
    1  A    between atoms: C_9  and  C_15
                            x       y       z     vdW  Elec       q    Type
                         _______ _______ _______ _____ _____    ______ ____

>  <TORSDO>
F 1

$$$$
=
 OpenBabel11052423063D

 27 31  0  0  1  0  0  0  0  0999 V2000
  162.3320  209.2400  149.5580 C   0  0  0  0  0  2  0  0  0  0  0  0
  161.2460  208.2920  151.6630 C   0  0  0  0  0  0  0  0  0  0  0  0
  160.6010  210.7190  151.8630 N   0  0  0  0  0  2  0  0  0  0  0  0
  161.1310  208.1900  155.8630 N   0  0  0  0  0  2  0  0  0  0  0  0
  160.5860  210.0020  157.2610 O   0  0  0  0  0  0  0  0  0  0  0  0
  161.6060  207.0940  152.3250 C   0  0  0  0  0  3  0  0  0  0  0  0
  160.4870  210.3300  154.8510 C   0  0  2  0  0  3  0  0  0  0  0  0
  160.5190  213.0260  148.8130 C   0  0  0  0  0  2  0  0  0  0  0  0
  159.0190  210.7030  154.7460 C   0  0  0  0  0  1  0  0  0  0  0  0
  160.7860  211.9470  147.9520 O   0  0  0  0  0  0  0  0  0  0  0  0
  160.8270  209.2920  153.8310 C   0  0  0  0  0  0  0  0  0  0  0  0
  161.2360  208.3460  150.1490 C   0  0  2  0  0  3  0  0  0  0  0  0
  160.7200  209.5340  156.1000 C   0  0  0  0  0  0  0  0  0  0  0  0
  161.1800  208.1110  154.4500 C   0  0  0  0  0  0  0  0  0  0  0  0
  162.2630  210.6870  150.0560 C   0  0  1  0  0  3  0  0  0  0  0  0
  160.8730  209.4280  152.4370 C   0  0  0  0  0  0  0  0  0  0  0  0
  160.5130  212.5840  150.2860 C   0  0  0  0  0  2  0  0  0  0  0  0
  161.5810  206.9970  153.7210 C   0  0  0  0  0  3  0  0  0  0  0  0
  162.1810  211.8810  147.7680 C   0  0  0  0  0  2  0  0  0  0  0  0
  162.9630  211.6330  149.0720 C   0  0  0  0  0  2  0  0  0  0  0  0
  160.8310  211.0960  150.4730 C   0  0  2  0  0  3  0  0  0  0  0  0
  161.0460  204.4990  148.2310 C   0  0  0  0  0  3  0  0  0  0  0  0
  161.1600  207.0120  149.4620 C   0  0  0  0  0  0  0  0  0  0  0  0
  161.4330  206.8840  148.0900 C   0  0  0  0  0  3  0  0  0  0  0  0
  161.3730  205.6290  147.4770 C   0  0  0  0  0  3  0  0  0  0  0  0
  160.7790  204.6210  149.5980 C   0  0  0  0  0  3  0  0  0  0  0  0
  160.8380  205.8760  150.2120 C   0  0  0  0  0  3  0  0  0  0  0  0
  1 15  1  0  0  0  0
  1 12  1  0  0  0  0
  2  6  2  0  0  0  0
  2 16  1  0  0  0  0
  3 16  1  0  0  0  0
  4 13  1  0  0  0  0
  6 18  1  0  0  0  0
  7  9  1  6  0  0  0
  7 13  1  0  0  0  0
  8 17  1  0  0  0  0
 10  8  1  0  0  0  0
 11 14  1  0  0  0  0
 11  7  1  0  0  0  0
 12 23  1  6  0  0  0
 12  2  1  0  0  0  0
 13  5  2  0  0  0  0
 14  4  1  0  0  0  0
 15 20  1  6  0  0  0
 15 21  1  0  0  0  0
 16 11  2  0  0  0  0
 18 14  2  0  0  0  0
 19 10  1  0  0  0  0
 19 20  1  0  0  0  0
 21 17  1  1  0  0  0
 21  3  1  0  0  0  0
 22 26  1  0  0  0  0
 23 27  1  0  0  0  0
 24 23  2  0  0  0  0
 25 24  1  0  0  0  0
 25 22  2  0  0  0  0
 26 27  2  0  0  0  0
M  END
>  <MODEL>
2

>  <REMARK>
 VINA RESULT:      -5.9      2.333      7.224
  Name = 
  1 active torsions:
  status: ('A' for Active; 'I' for Inactive)
    1  A    between atoms: C_9  and  C_15
                            x       y       z     vdW  Elec       q    Type
                         _______ _______ _______ _____ _____    ______ ____

>  <TORSDO>
F 1

$$$$
=
 OpenBabel11052423063D

 27 31  0  0  1  0  0  0  0  0999 V2000
  159.9480  211.7300  152.7130 C   0  0  0  0  0  2  0  0  0  0  0  0
  161.1070  209.4670  152.4980 C   0  0  0  0  0  0  0  0  0  0  0  0
  161.2970  210.3110  150.1320 N   0  0  0  0  0  2  0  0  0  0  0  0
  161.0810  205.6060  150.8370 N   0  0  0  0  0  2  0  0  0  0  0  0
  161.2380  205.1030  148.5440 O   0  0  0  0  0  0  0  0  0  0  0  0
  160.9440  208.3570  153.3590 C   0  0  0  0  0  3  0  0  0  0  0  0
  161.3660  207.4360  149.2270 C   0  0  2  0  0  3  0  0  0  0  0  0
  161.0760  214.0410  149.3130 C   0  0  0  0  0  2  0  0  0  0  0  0
  162.7470  207.7440  148.6740 C   0  0  0  0  0  1  0  0  0  0  0  0
  161.0400  214.3700  150.6800 O   0  0  0  0  0  0  0  0  0  0  0  0
  161.2570  207.9220  150.6350 C   0  0  0  0  0  0  0  0  0  0  0  0
  161.1640  210.8680  153.0720 C   0  0  2  0  0  3  0  0  0  0  0  0
  161.2340  205.9610  149.4640 C   0  0  0  0  0  0  0  0  0  0  0  0
  161.1000  206.8580  151.4990 C   0  0  0  0  0  0  0  0  0  0  0  0
  159.7370  211.8750  151.2030 C   0  0  1  0  0  3  0  0  0  0  0  0
  161.2400  209.2450  151.0970 C   0  0  0  0  0  0  0  0  0  0  0  0
  161.1070  212.5180  149.0990 C   0  0  0  0  0  2  0  0  0  0  0  0
  160.9340  207.0470  152.8660 C   0  0  0  0  0  3  0  0  0  0  0  0
  159.6880  214.4530  151.0650 C   0  0  0  0  0  2  0  0  0  0  0  0
  158.9150  213.1320  150.8890 C   0  0  0  0  0  2  0  0  0  0  0  0
  161.0550  211.7220  150.4090 C   0  0  2  0  0  3  0  0  0  0  0  0
  162.1070  211.1520  157.2600 C   0  0  0  0  0  3  0  0  0  0  0  0
  161.5050  210.9470  154.5330 C   0  0  0  0  0  0  0  0  0  0  0  0
  162.7890  210.6230  154.9990 C   0  0  0  0  0  3  0  0  0  0  0  0
  163.0870  210.7230  156.3610 C   0  0  0  0  0  3  0  0  0  0  0  0
  160.8290  211.4820  156.8000 C   0  0  0  0  0  3  0  0  0  0  0  0
  160.5300  211.3820  155.4380 C   0  0  0  0  0  3  0  0  0  0  0  0
  1 12  1  0  0  0  0
  2 12  1  0  0  0  0
  2  6  1  0  0  0  0
  3 21  1  0  0  0  0
  3 16  1  0  0  0  0
  4 14  1  0  0  0  0
  5 13  2  0  0  0  0
  7  9  1  1  0  0  0
  7 13  1  0  0  0  0
  7 11  1  0  0  0  0
  8 10  1  0  0  0  0
 10 19  1  0  0  0  0
 11 16  1  0  0  0  0
 11 14  2  0  0  0  0
 12 23  1  1  0  0  0
 13  4  1  0  0  0  0
 14 18  1  0  0  0  0
 15 20  1  1  0  0  0
 15  1  1  0  0  0  0
 16  2  2  0  0  0  0
 17  8  1  0  0  0  0
 18  6  2  0  0  0  0
 20 19  1  0  0  0  0
 21 17  1  6  0  0  0
 21 15  1  0  0  0  0
 23 24  2  0  0  0  0
 23 27  1  0  0  0  0
 24 25  1  0  0  0  0
 25 22  2  0  0  0  0
 26 22  1  0  0  0  0
 27 26  2  0  0  0  0
M  END
>  <MODEL>
3

>  <REMARK>
 VINA RESULT:      -5.5      2.481      5.048
  Name = 
  1 active torsions:
  status: ('A' for Active; 'I' for Inactive)
    1  A    between atoms: C_9  and  C_15
                            x       y       z     vdW  Elec       q    Type
                         _______ _______ _______ _____ _____    ______ ____

>  <TORSDO>
F 1

$$$$
=
 OpenBabel11052423063D

 27 31  0  0  1  0  0  0  0  0999 V2000
  162.3650  209.2050  150.2270 C   0  0  0  0  0  2  0  0  0  0  0  0
  160.9120  208.7040  152.2620 C   0  0  0  0  0  0  0  0  0  0  0  0
  160.3730  211.1370  151.8980 N   0  0  0  0  0  2  0  0  0  0  0  0
  160.1300  209.4140  156.3300 N   0  0  0  0  0  2  0  0  0  0  0  0
  159.4680  211.4720  157.2570 O   0  0  0  0  0  0  0  0  0  0  0  0
  161.0980  207.6480  153.1860 C   0  0  0  0  0  3  0  0  0  0  0  0
  159.7690  211.3330  154.8450 C   0  0  2  0  0  3  0  0  0  0  0  0
  160.8970  212.8170  148.5010 C   0  0  0  0  0  2  0  0  0  0  0  0
  158.3570  211.7110  154.4320 C   0  0  0  0  0  1  0  0  0  0  0  0
  161.2390  211.5870  147.9120 O   0  0  0  0  0  0  0  0  0  0  0  0
  160.2100  210.1110  154.1070 C   0  0  0  0  0  0  0  0  0  0  0  0
  161.1440  208.4660  150.7850 C   0  0  2  0  0  3  0  0  0  0  0  0
  159.7590  210.7880  156.2420 C   0  0  0  0  0  0  0  0  0  0  0  0
  160.3970  209.0630  154.9840 C   0  0  0  0  0  0  0  0  0  0  0  0
  162.2950  210.7220  150.4280 C   0  0  1  0  0  3  0  0  0  0  0  0
  160.4830  209.9750  152.7400 C   0  0  0  0  0  0  0  0  0  0  0  0
  160.6340  212.6670  150.0100 C   0  0  0  0  0  2  0  0  0  0  0  0
  160.8480  207.8220  154.5520 C   0  0  0  0  0  3  0  0  0  0  0  0
  162.6400  211.4560  147.9760 C   0  0  0  0  0  2  0  0  0  0  0  0
  163.1910  211.4460  149.4140 C   0  0  0  0  0  2  0  0  0  0  0  0
  160.8400  211.2350  150.5200 C   0  0  2  0  0  3  0  0  0  0  0  0
  161.0880  204.3330  149.5900 C   0  0  0  0  0  3  0  0  0  0  0  0
  161.1070  207.0270  150.3540 C   0  0  0  0  0  0  0  0  0  0  0  0
  160.8530  206.6740  149.0190 C   0  0  0  0  0  3  0  0  0  0  0  0
  160.8420  205.3280  148.6400 C   0  0  0  0  0  3  0  0  0  0  0  0
  161.3460  204.6810  150.9180 C   0  0  0  0  0  3  0  0  0  0  0  0
  161.3570  206.0260  151.2990 C   0  0  0  0  0  3  0  0  0  0  0  0
  1 15  1  0  0  0  0
  1 12  1  0  0  0  0
  2 16  2  0  0  0  0
  2  6  1  0  0  0  0
  3 16  1  0  0  0  0
  6 18  2  0  0  0  0
  7  9  1  6  0  0  0
  7 13  1  0  0  0  0
  8 17  1  0  0  0  0
 10 19  1  0  0  0  0
 10  8  1  0  0  0  0
 11  7  1  0  0  0  0
 11 14  2  0  0  0  0
 12 23  1  1  0  0  0
 12  2  1  0  0  0  0
 13  4  1  0  0  0  0
 13  5  2  0  0  0  0
 14  4  1  0  0  0  0
 15 20  1  6  0  0  0
 15 21  1  0  0  0  0
 16 11  1  0  0  0  0
 18 14  1  0  0  0  0
 19 20  1  0  0  0  0
 21 17  1  1  0  0  0
 21  3  1  0  0  0  0
 22 26  1  0  0  0  0
 23 27  1  0  0  0  0
 24 23  2  0  0  0  0
 25 24  1  0  0  0  0
 25 22  2  0  0  0  0
 26 27  2  0  0  0  0
M  END
>  <MODEL>
4

>  <REMARK>
 VINA RESULT:      -5.3      2.243      7.258
  Name = 
  1 active torsions:
  status: ('A' for Active; 'I' for Inactive)
    1  A    between atoms: C_9  and  C_15
                            x       y       z     vdW  Elec       q    Type
                         _______ _______ _______ _____ _____    ______ ____

>  <TORSDO>
F 1

$$$$
=
 OpenBabel11052423063D

 27 31  0  0  1  0  0  0  0  0999 V2000
  160.8040  212.0820  151.3710 C   0  0  0  0  0  2  0  0  0  0  0  0
  159.3740  211.3300  153.3450 C   0  0  0  0  0  0  0  0  0  0  0  0
  157.8380  213.0180  152.2780 N   0  0  0  0  0  2  0  0  0  0  0  0
  157.5240  212.3410  156.9810 N   0  0  0  0  0  2  0  0  0  0  0  0
  155.7930  213.9110  157.2450 O   0  0  0  0  0  0  0  0  0  0  0  0
  159.8400  210.7270  154.5370 C   0  0  0  0  0  3  0  0  0  0  0  0
  156.6170  213.4650  154.9980 C   0  0  2  0  0  3  0  0  0  0  0  0
  158.1990  214.0090  148.6010 C   0  0  0  0  0  2  0  0  0  0  0  0
  155.3140  212.9780  154.3870 C   0  0  0  0  0  1  0  0  0  0  0  0
  159.1940  213.0360  148.4060 O   0  0  0  0  0  0  0  0  0  0  0  0
  157.7250  212.5190  154.6660 C   0  0  0  0  0  0  0  0  0  0  0  0
  159.9910  210.9530  152.0150 C   0  0  2  0  0  3  0  0  0  0  0  0
  156.5760  213.2830  156.4860 C   0  0  0  0  0  0  0  0  0  0  0  0
  158.1980  211.9140  155.8110 C   0  0  0  0  0  0  0  0  0  0  0  0
  159.9860  213.3560  151.1380 C   0  0  1  0  0  3  0  0  0  0  0  0
  158.3060  212.2700  153.4160 C   0  0  0  0  0  0  0  0  0  0  0  0
  157.7310  214.0520  150.0660 C   0  0  0  0  0  2  0  0  0  0  0  0
  159.2610  211.0190  155.7770 C   0  0  0  0  0  3  0  0  0  0  0  0
  160.4430  213.6540  148.6140 C   0  0  0  0  0  2  0  0  0  0  0  0
  160.6220  214.2150  150.0370 C   0  0  0  0  0  2  0  0  0  0  0  0
  158.4770  213.0620  150.9680 C   0  0  2  0  0  3  0  0  0  0  0  0
  162.0960  207.2020  151.9030 C   0  0  0  0  0  3  0  0  0  0  0  0
  160.7280  209.6440  151.9990 C   0  0  0  0  0  0  0  0  0  0  0  0
  160.4680  208.6510  152.9570 C   0  0  0  0  0  3  0  0  0  0  0  0
  161.1540  207.4340  152.9090 C   0  0  0  0  0  3  0  0  0  0  0  0
  162.3530  208.1850  150.9440 C   0  0  0  0  0  3  0  0  0  0  0  0
  161.6690  209.4030  150.9910 C   0  0  0  0  0  3  0  0  0  0  0  0
  1 12  1  0  0  0  0
  2 16  2  0  0  0  0
  2  6  1  0  0  0  0
  3 16  1  0  0  0  0
  6 18  2  0  0  0  0
  7  9  1  6  0  0  0
  7 13  1  0  0  0  0
  8 17  1  0  0  0  0
 10  8  1  0  0  0  0
 10 19  1  0  0  0  0
 11  7  1  0  0  0  0
 11 14  2  0  0  0  0
 12 23  1  1  0  0  0
 12  2  1  0  0  0  0
 13  4  1  0  0  0  0
 13  5  2  0  0  0  0
 14  4  1  0  0  0  0
 15 20  1  6  0  0  0
 15  1  1  0  0  0  0
 16 11  1  0  0  0  0
 18 14  1  0  0  0  0
 19 20  1  0  0  0  0
 21 17  1  6  0  0  0
 21 15  1  0  0  0  0
 21  3  1  0  0  0  0
 22 25  1  0  0  0  0
 23 24  1  0  0  0  0
 25 24  2  0  0  0  0
 26 27  1  0  0  0  0
 26 22  2  0  0  0  0
 27 23  2  0  0  0  0
M  END
>  <MODEL>
5

>  <REMARK>
 VINA RESULT:      -4.8      3.273      7.747
  Name = 
  1 active torsions:
  status: ('A' for Active; 'I' for Inactive)
    1  A    between atoms: C_9  and  C_15
                            x       y       z     vdW  Elec       q    Type
                         _______ _______ _______ _____ _____    ______ ____

>  <TORSDO>
F 1

$$$$
=
 OpenBabel11052423063D

 27 31  0  0  1  0  0  0  0  0999 V2000
  161.5470  210.2870  153.8290 C   0  0  0  0  0  2  0  0  0  0  0  0
  160.9080  208.8990  151.7860 C   0  0  0  0  0  0  0  0  0  0  0  0
  160.6470  207.1830  153.6120 N   0  0  0  0  0  2  0  0  0  0  0  0
  161.8300  205.6750  149.2530 N   0  0  0  0  0  2  0  0  0  0  0  0
  161.8860  203.4100  149.8860 O   0  0  0  0  0  0  0  0  0  0  0  0
  161.2660  209.1680  150.4440 C   0  0  0  0  0  3  0  0  0  0  0  0
  161.2330  205.0610  151.5520 C   0  0  2  0  0  3  0  0  0  0  0  0
  160.1040  208.2050  157.2580 C   0  0  0  0  0  2  0  0  0  0  0  0
  159.8440  204.5230  151.8510 C   0  0  0  0  0  1  0  0  0  0  0  0
  160.0080  209.5600  156.8950 O   0  0  0  0  0  0  0  0  0  0  0  0
  161.1740  206.5350  151.3170 C   0  0  0  0  0  0  0  0  0  0  0  0
  160.5290  210.0360  152.7110 C   0  0  2  0  0  3  0  0  0  0  0  0
  161.6670  204.6120  150.1880 C   0  0  0  0  0  0  0  0  0  0  0  0
  161.5160  206.8270  150.0140 C   0  0  0  0  0  0  0  0  0  0  0  0
  161.7890  209.0580  154.7100 C   0  0  1  0  0  3  0  0  0  0  0  0
  160.8880  207.5490  152.2410 C   0  0  0  0  0  0  0  0  0  0  0  0
  160.4080  207.3150  156.0410 C   0  0  0  0  0  2  0  0  0  0  0  0
  161.5770  208.1360  149.5520 C   0  0  0  0  0  3  0  0  0  0  0  0
  161.2930  210.1250  157.0090 C   0  0  0  0  0  2  0  0  0  0  0  0
  162.3360  209.4740  156.0820 C   0  0  0  0  0  2  0  0  0  0  0  0
  160.5700  208.1070  154.7380 C   0  0  2  0  0  3  0  0  0  0  0  0
  159.2790  213.6580  150.7510 C   0  0  0  0  0  3  0  0  0  0  0  0
  160.1140  211.3070  152.0260 C   0  0  0  0  0  0  0  0  0  0  0  0
  160.8600  211.8360  150.9600 C   0  0  0  0  0  3  0  0  0  0  0  0
  160.4430  213.0100  150.3270 C   0  0  0  0  0  3  0  0  0  0  0  0
  158.5310  213.1320  151.8080 C   0  0  0  0  0  3  0  0  0  0  0  0
  158.9470  211.9580  152.4430 C   0  0  0  0  0  3  0  0  0  0  0  0
  2 16  1  0  0  0  0
  2 12  1  0  0  0  0
  3 21  1  0  0  0  0
  4 14  1  0  0  0  0
  4 13  1  0  0  0  0
  5 13  2  0  0  0  0
  6  2  2  0  0  0  0
  7  9  1  6  0  0  0
 10 19  1  0  0  0  0
 10  8  1  0  0  0  0
 11  7  1  0  0  0  0
 11 16  2  0  0  0  0
 12 23  1  6  0  0  0
 12  1  1  0  0  0  0
 13  7  1  0  0  0  0
 14 11  1  0  0  0  0
 15  1  1  1  0  0  0
 15 21  1  0  0  0  0
 15 20  1  0  0  0  0
 16  3  1  0  0  0  0
 17  8  1  0  0  0  0
 18 14  2  0  0  0  0
 18  6  1  0  0  0  0
 20 19  1  0  0  0  0
 21 17  1  1  0  0  0
 22 26  1  0  0  0  0
 23 27  1  0  0  0  0
 24 23  2  0  0  0  0
 25 22  2  0  0  0  0
 25 24  1  0  0  0  0
 26 27  2  0  0  0  0
M  END
>  <MODEL>
6

>  <REMARK>
 VINA RESULT:      -4.6      1.548      2.150
  Name = 
  1 active torsions:
  status: ('A' for Active; 'I' for Inactive)
    1  A    between atoms: C_9  and  C_15
                            x       y       z     vdW  Elec       q    Type
                         _______ _______ _______ _____ _____    ______ ____

>  <TORSDO>
F 1

$$$$
=
 OpenBabel11052423063D

 27 31  0  0  1  0  0  0  0  0999 V2000
  162.3410  212.2230  141.1420 C   0  0  0  0  0  2  0  0  0  0  0  0
  161.0630  211.6440  139.0120 C   0  0  0  0  0  0  0  0  0  0  0  0
  159.1530  212.0040  140.6150 N   0  0  0  0  0  2  0  0  0  0  0  0
  158.5270  208.9550  137.0110 N   0  0  0  0  0  2  0  0  0  0  0  0
  156.3140  208.4470  137.6250 O   0  0  0  0  0  0  0  0  0  0  0  0
  161.5680  210.9320  137.8990 C   0  0  0  0  0  3  0  0  0  0  0  0
  157.5210  210.1140  138.9250 C   0  0  2  0  0  3  0  0  0  0  0  0
  159.5740  214.0880  143.7940 C   0  0  0  0  0  2  0  0  0  0  0  0
  156.5850  211.2870  138.6880 C   0  0  0  0  0  1  0  0  0  0  0  0
  160.8780  214.4530  143.4180 O   0  0  0  0  0  0  0  0  0  0  0  0
  158.9360  210.5290  138.6810 C   0  0  0  0  0  0  0  0  0  0  0  0
  161.9390  212.6510  139.7270 C   0  0  2  0  0  3  0  0  0  0  0  0
  157.3640  209.1110  137.8210 C   0  0  0  0  0  0  0  0  0  0  0  0
  159.4530  209.8510  137.5980 C   0  0  0  0  0  0  0  0  0  0  0  0
  161.1410  211.9510  142.0540 C   0  0  1  0  0  3  0  0  0  0  0  0
  159.7200  211.4160  139.4300 C   0  0  0  0  0  0  0  0  0  0  0  0
  158.9440  213.1190  142.7800 C   0  0  0  0  0  2  0  0  0  0  0  0
  160.7700  210.0280  137.1880 C   0  0  0  0  0  3  0  0  0  0  0  0
  161.7660  213.5280  144.0010 C   0  0  0  0  0  2  0  0  0  0  0  0
  161.5400  212.0790  143.5300 C   0  0  0  0  0  2  0  0  0  0  0  0
  159.8880  212.7510  141.6290 C   0  0  2  0  0  3  0  0  0  0  0  0
  165.3250  214.1150  137.5110 C   0  0  0  0  0  3  0  0  0  0  0  0
  163.1100  213.1580  138.9340 C   0  0  0  0  0  0  0  0  0  0  0  0
  162.9260  213.9750  137.8070 C   0  0  0  0  0  3  0  0  0  0  0  0
  164.0320  214.4500  137.0960 C   0  0  0  0  0  3  0  0  0  0  0  0
  165.5120  213.3060  138.6350 C   0  0  0  0  0  3  0  0  0  0  0  0
  164.4060  212.8310  139.3460 C   0  0  0  0  0  3  0  0  0  0  0  0
  2 16  1  0  0  0  0
  2 12  1  0  0  0  0
  3 21  1  0  0  0  0
  4 14  1  0  0  0  0
  4 13  1  0  0  0  0
  5 13  2  0  0  0  0
  6  2  2  0  0  0  0
  7  9  1  6  0  0  0
 10  8  1  0  0  0  0
 10 19  1  0  0  0  0
 11  7  1  0  0  0  0
 11 16  2  0  0  0  0
 12 23  1  6  0  0  0
 12  1  1  0  0  0  0
 13  7  1  0  0  0  0
 14 11  1  0  0  0  0
 15  1  1  6  0  0  0
 15 20  1  0  0  0  0
 16  3  1  0  0  0  0
 17  8  1  0  0  0  0
 18 14  2  0  0  0  0
 18  6  1  0  0  0  0
 20 19  1  0  0  0  0
 21 15  1  0  0  0  0
 21 17  1  1  0  0  0
 22 26  1  0  0  0  0
 23 27  1  0  0  0  0
 24 23  2  0  0  0  0
 25 22  2  0  0  0  0
 25 24  1  0  0  0  0
 26 27  2  0  0  0  0
M  END
>  <MODEL>
7

>  <REMARK>
 VINA RESULT:      -4.5     10.681     13.850
  Name = 
  1 active torsions:
  status: ('A' for Active; 'I' for Inactive)
    1  A    between atoms: C_9  and  C_15
                            x       y       z     vdW  Elec       q    Type
                         _______ _______ _______ _____ _____    ______ ____

>  <TORSDO>
F 1

$$$$
=
 OpenBabel11052423063D

 27 31  0  0  1  0  0  0  0  0999 V2000
  160.0650  211.7670  154.3160 C   0  0  0  0  0  2  0  0  0  0  0  0
  159.7570  212.5860  151.9190 C   0  0  0  0  0  0  0  0  0  0  0  0
  161.0680  210.4720  151.5210 N   0  0  0  0  0  2  0  0  0  0  0  0
  161.5450  214.0430  148.4060 N   0  0  0  0  0  2  0  0  0  0  0  0
  163.0580  212.8590  147.0490 O   0  0  0  0  0  0  0  0  0  0  0  0
  159.4830  213.9140  151.5160 C   0  0  0  0  0  3  0  0  0  0  0  0
  162.1130  211.7280  148.9860 C   0  0  2  0  0  3  0  0  0  0  0  0
  161.1480  207.6490  154.1000 C   0  0  0  0  0  2  0  0  0  0  0  0
  161.4380  210.5800  148.2540 C   0  0  0  0  0  1  0  0  0  0  0  0
  160.1990  208.3110  154.8990 O   0  0  0  0  0  0  0  0  0  0  0  0
  161.1620  212.3460  149.9580 C   0  0  0  0  0  0  0  0  0  0  0  0
  159.0940  212.0190  153.1570 C   0  0  2  0  0  3  0  0  0  0  0  0
  162.2980  212.8850  148.0510 C   0  0  0  0  0  0  0  0  0  0  0  0
  160.8750  213.6430  149.5880 C   0  0  0  0  0  0  0  0  0  0  0  0
  161.2080  210.8160  153.9470 C   0  0  1  0  0  3  0  0  0  0  0  0
  160.6410  211.7910  151.1340 C   0  0  0  0  0  0  0  0  0  0  0  0
  161.5270  208.4830  152.8640 C   0  0  0  0  0  2  0  0  0  0  0  0
  160.0440  214.4530  150.3530 C   0  0  0  0  0  3  0  0  0  0  0  0
  160.9010  209.0870  155.8410 C   0  0  0  0  0  2  0  0  0  0  0  0
  161.7990  210.1650  155.2050 C   0  0  0  0  0  2  0  0  0  0  0  0
  160.8180  209.8420  152.8110 C   0  0  2  0  0  3  0  0  0  0  0  0
  155.5230  214.0250  154.4760 C   0  0  0  0  0  3  0  0  0  0  0  0
  157.8520  212.7370  153.6040 C   0  0  0  0  0  0  0  0  0  0  0  0
  157.0620  213.4590  152.6960 C   0  0  0  0  0  3  0  0  0  0  0  0
  155.9010  214.1030  153.1330 C   0  0  0  0  0  3  0  0  0  0  0  0
  156.3030  213.3020  155.3830 C   0  0  0  0  0  3  0  0  0  0  0  0
  157.4650  212.6580  154.9470 C   0  0  0  0  0  3  0  0  0  0  0  0
  2 12  1  0  0  0  0
  3 21  1  0  0  0  0
  4 14  1  0  0  0  0
  5 13  2  0  0  0  0
  6  2  1  0  0  0  0
  7  9  1  6  0  0  0
  7 11  1  0  0  0  0
  8 10  1  0  0  0  0
 10 19  1  0  0  0  0
 11 16  1  0  0  0  0
 12 23  1  1  0  0  0
 12  1  1  0  0  0  0
 13  4  1  0  0  0  0
 13  7  1  0  0  0  0
 14 11  2  0  0  0  0
 14 18  1  0  0  0  0
 15  1  1  1  0  0  0
 15 20  1  0  0  0  0
 16  3  1  0  0  0  0
 16  2  2  0  0  0  0
 17  8  1  0  0  0  0
 18  6  2  0  0  0  0
 20 19  1  0  0  0  0
 21 17  1  6  0  0  0
 21 15  1  0  0  0  0
 22 26  1  0  0  0  0
 23 27  1  0  0  0  0
 24 25  1  0  0  0  0
 24 23  2  0  0  0  0
 25 22  2  0  0  0  0
 27 26  2  0  0  0  0
M  END
>  <MODEL>
8

>  <REMARK>
 VINA RESULT:      -4.5      2.397      3.342
  Name = 
  1 active torsions:
  status: ('A' for Active; 'I' for Inactive)
    1  A    between atoms: C_9  and  C_15
                            x       y       z     vdW  Elec       q    Type
                         _______ _______ _______ _____ _____    ______ ____

>  <TORSDO>
F 1

$$$$
=
 OpenBabel11052423063D

 27 31  0  0  1  0  0  0  0  0999 V2000
  161.1570  212.0680  141.9880 C   0  0  0  0  0  2  0  0  0  0  0  0
  159.8880  212.4680  139.8110 C   0  0  0  0  0  0  0  0  0  0  0  0
  158.2160  213.3310  141.4870 N   0  0  0  0  0  2  0  0  0  0  0  0
  156.5800  211.5130  137.4010 N   0  0  0  0  0  2  0  0  0  0  0  0
  154.3270  211.9040  137.9530 O   0  0  0  0  0  0  0  0  0  0  0  0
  160.1110  211.8120  138.5780 C   0  0  0  0  0  3  0  0  0  0  0  0
  156.0450  212.6430  139.5120 C   0  0  2  0  0  3  0  0  0  0  0  0
  159.2850  214.4530  144.9840 C   0  0  0  0  0  2  0  0  0  0  0  0
  155.7120  214.1250  139.5090 C   0  0  0  0  0  1  0  0  0  0  0  0
  160.6420  214.2830  144.6570 O   0  0  0  0  0  0  0  0  0  0  0  0
  157.5130  212.4470  139.3220 C   0  0  0  0  0  0  0  0  0  0  0  0
  161.0630  212.8640  140.6810 C   0  0  2  0  0  3  0  0  0  0  0  0
  155.5460  212.0100  138.2480 C   0  0  0  0  0  0  0  0  0  0  0  0
  157.7610  211.8100  138.1240 C   0  0  0  0  0  0  0  0  0  0  0  0
  159.9010  212.1840  142.8560 C   0  0  1  0  0  3  0  0  0  0  0  0
  158.5520  212.7690  140.2050 C   0  0  0  0  0  0  0  0  0  0  0  0
  158.3670  214.0370  143.8220 C   0  0  0  0  0  2  0  0  0  0  0  0
  159.0500  211.4730  137.7300 C   0  0  0  0  0  3  0  0  0  0  0  0
  161.0150  212.9810  145.0450 C   0  0  0  0  0  2  0  0  0  0  0  0
  160.2250  211.8730  144.3230 C   0  0  0  0  0  2  0  0  0  0  0  0
  159.1350  213.5040  142.6060 C   0  0  2  0  0  3  0  0  0  0  0  0
  164.8230  213.1520  138.6100 C   0  0  0  0  0  3  0  0  0  0  0  0
  162.3840  212.9480  139.9720 C   0  0  0  0  0  0  0  0  0  0  0  0
  163.1340  211.7950  139.6880 C   0  0  0  0  0  3  0  0  0  0  0  0
  164.3520  211.8990  139.0100 C   0  0  0  0  0  3  0  0  0  0  0  0
  164.0780  214.3020  138.8850 C   0  0  0  0  0  3  0  0  0  0  0  0
  162.8600  214.1990  139.5630 C   0  0  0  0  0  3  0  0  0  0  0  0
  2 16  1  0  0  0  0
  2 12  1  0  0  0  0
  3 21  1  0  0  0  0
  4 14  1  0  0  0  0
  4 13  1  0  0  0  0
  5 13  2  0  0  0  0
  6  2  2  0  0  0  0
  7  9  1  6  0  0  0
 10  8  1  0  0  0  0
 10 19  1  0  0  0  0
 11  7  1  0  0  0  0
 11 16  2  0  0  0  0
 12 23  1  6  0  0  0
 12  1  1  0  0  0  0
 13  7  1  0  0  0  0
 14 11  1  0  0  0  0
 15  1  1  6  0  0  0
 15 20  1  0  0  0  0
 16  3  1  0  0  0  0
 17  8  1  0  0  0  0
 18 14  2  0  0  0  0
 18  6  1  0  0  0  0
 20 19  1  0  0  0  0
 21 15  1  0  0  0  0
 21 17  1  1  0  0  0
 22 26  2  0  0  0  0
 22 25  1  0  0  0  0
 24 23  1  0  0  0  0
 25 24  2  0  0  0  0
 26 27  1  0  0  0  0
 27 23  2  0  0  0  0
M  END
>  <MODEL>
9

>  <REMARK>
 VINA RESULT:      -4.3     10.371     13.438
  Name = 
  1 active torsions:
  status: ('A' for Active; 'I' for Inactive)
    1  A    between atoms: C_9  and  C_15
                            x       y       z     vdW  Elec       q    Type
                         _______ _______ _______ _____ _____    ______ ____

>  <TORSDO>
F 1

$$$$
