=
 OpenBabel11052422593D

 28 32  0  0  1  0  0  0  0  0999 V2000
  160.7530  211.5990  154.0240 N   0  0  0  0  0  0  0  0  0  0  0  0
  160.3760  209.4820  153.0640 C   0  0  1  0  0  3  0  0  0  0  0  0
  160.9490  209.3530  154.3970 C   0  0  0  0  0  0  0  0  0  0  0  0
  161.1990  208.2750  154.9970 O   0  0  0  0  0  0  0  0  0  0  0  0
  161.1180  210.6180  154.9580 N   0  0  0  0  0  2  0  0  0  0  0  0
  160.2570  210.9350  152.8650 N   0  0  0  0  0  2  0  0  0  0  0  0
  162.3280  209.4000  151.7240 O   0  0  0  0  0  0  0  0  0  0  0  0
  161.2600  208.8790  152.0090 C   0  0  0  0  0  0  0  0  0  0  0  0
  161.2080  203.8010  151.9350 C   0  0  0  0  0  3  0  0  0  0  0  0
  161.5390  205.1720  149.7310 C   0  0  1  0  0  3  0  0  0  0  0  0
  162.5710  205.8710  151.9210 C   0  0  0  0  0  2  0  0  0  0  0  0
  160.7200  202.8110  149.7470 C   0  0  0  0  0  0  0  0  0  0  0  0
  161.4200  205.1250  151.2700 C   0  0  2  0  0  0  0  0  0  0  0  0
  161.3380  207.6460  149.8430 C   0  0  0  0  0  2  0  0  0  0  0  0
  160.9950  203.9330  149.0740 C   0  0  0  0  0  3  0  0  0  0  0  0
  161.1470  206.3720  152.1120 C   0  0  2  0  0  3  0  0  0  0  0  0
  160.8590  206.3950  149.1340 C   0  0  0  0  0  2  0  0  0  0  0  0
  160.2210  201.6230  149.0080 C   0  0  0  0  0  1  0  0  0  0  0  0
  160.8760  202.7320  151.2110 C   0  0  0  0  0  3  0  0  0  0  0  0
  160.8310  207.6390  151.2850 C   0  0  1  0  0  3  0  0  0  0  0  0
  159.7090  212.4590  154.6070 C   0  0  0  0  0  2  0  0  0  0  0  0
  158.3700  212.5130  153.8480 C   0  0  2  0  0  3  0  0  0  0  0  0
  155.8100  213.7670  153.6760 C   0  0  0  0  0  0  0  0  0  0  0  0
  158.1390  213.7830  153.2260 O   0  0  0  0  0  0  0  0  0  0  0  0
  157.2060  212.0370  154.6770 C   0  0  0  0  0  3  0  0  0  0  0  0
  156.0090  212.6130  154.5660 C   0  0  0  0  0  3  0  0  0  0  0  0
  154.4550  214.3560  153.5130 C   0  0  0  0  0  1  0  0  0  0  0  0
  156.8550  214.3200  153.0620 C   0  0  0  0  0  3  0  0  0  0  0  0
  1 21  1  0  0  0  0
  1  5  1  0  0  0  0
  2  8  1  6  0  0  0
  2  3  1  0  0  0  0
  3  5  1  0  0  0  0
  3  4  2  0  0  0  0
  6  2  1  0  0  0  0
  6  1  1  0  0  0  0
  7  8  2  0  0  0  0
 10 15  1  6  0  0  0
 10 13  1  0  0  0  0
 12 19  1  0  0  0  0
 13 11  1  1  0  0  0
 13  9  1  0  0  0  0
 13 16  1  0  0  0  0
 14 20  1  0  0  0  0
 15 12  2  0  0  0  0
 16 11  1  6  0  0  0
 17 10  1  0  0  0  0
 17 14  1  0  0  0  0
 18 12  1  0  0  0  0
 19  9  2  0  0  0  0
 20  8  1  1  0  0  0
 20 16  1  0  0  0  0
 22 21  1  1  0  0  0
 22 25  1  0  0  0  0
 23 26  1  0  0  0  0
 24 22  1  0  0  0  0
 26 25  2  0  0  0  0
 27 23  1  0  0  0  0
 28 24  1  0  0  0  0
 28 23  2  0  0  0  0
M  END
>  <MODEL>
1

>  <REMARK>
 VINA RESULT:      -9.3      0.000      0.000
  Name = 
  4 active torsions:
  status: ('A' for Active; 'I' for Inactive)
    1  A    between atoms: N_1  and  C_2
    2  A    between atoms: C_2  and  C_3
    3  A    between atoms: C_16  and  C_20
    4  A    between atoms: C_20  and  C_25
                            x       y       z     vdW  Elec       q    Type
                         _______ _______ _______ _____ _____    ______ ____

>  <TORSDO>
F 4

$$$$
=
 OpenBabel11052422593D

 28 32  0  0  1  0  0  0  0  0999 V2000
  160.4560  211.8190  153.2420 N   0  0  0  0  0  0  0  0  0  0  0  0
  160.3030  209.5190  152.7620 C   0  0  1  0  0  3  0  0  0  0  0  0
  160.9020  209.7360  154.0720 C   0  0  0  0  0  0  0  0  0  0  0  0
  161.2760  208.8430  154.8760 O   0  0  0  0  0  0  0  0  0  0  0  0
  160.9380  211.1030  154.3480 N   0  0  0  0  0  2  0  0  0  0  0  0
  160.0230  210.8750  152.2670 N   0  0  0  0  0  2  0  0  0  0  0  0
  162.3460  209.2510  151.5960 O   0  0  0  0  0  0  0  0  0  0  0  0
  161.2350  208.8000  151.8280 C   0  0  0  0  0  0  0  0  0  0  0  0
  161.2520  203.7230  151.9230 C   0  0  0  0  0  3  0  0  0  0  0  0
  161.4970  205.0240  149.6660 C   0  0  1  0  0  3  0  0  0  0  0  0
  162.5840  205.8090  151.7990 C   0  0  0  0  0  2  0  0  0  0  0  0
  160.7120  202.6540  149.7860 C   0  0  0  0  0  0  0  0  0  0  0  0
  161.4250  205.0260  151.2090 C   0  0  2  0  0  0  0  0  0  0  0  0
  161.2640  207.4970  149.7020 C   0  0  0  0  0  2  0  0  0  0  0  0
  160.9500  203.7560  149.0670 C   0  0  0  0  0  3  0  0  0  0  0  0
  161.1600  206.2970  152.0170 C   0  0  2  0  0  3  0  0  0  0  0  0
  160.7820  206.2170  149.0500 C   0  0  0  0  0  2  0  0  0  0  0  0
  160.2070  201.4350  149.1020 C   0  0  0  0  0  1  0  0  0  0  0  0
  160.9130  202.6260  151.2460 C   0  0  0  0  0  3  0  0  0  0  0  0
  160.8020  207.5320  151.1590 C   0  0  1  0  0  3  0  0  0  0  0  0
  159.3310  212.6690  153.6670 C   0  0  0  0  0  2  0  0  0  0  0  0
  158.6460  212.2790  154.9900 C   0  0  2  0  0  3  0  0  0  0  0  0
  156.1810  212.2070  156.4320 C   0  0  0  0  0  0  0  0  0  0  0  0
  157.6430  211.2700  154.8140 O   0  0  0  0  0  0  0  0  0  0  0  0
  158.1590  213.4710  155.7720 C   0  0  0  0  0  3  0  0  0  0  0  0
  157.0210  213.4140  156.4640 C   0  0  0  0  0  3  0  0  0  0  0  0
  154.9500  212.1350  157.2600 C   0  0  0  0  0  1  0  0  0  0  0  0
  156.4940  211.2020  155.6150 C   0  0  0  0  0  3  0  0  0  0  0  0
  1 21  1  0  0  0  0
  1  5  1  0  0  0  0
  2  8  1  6  0  0  0
  2  3  1  0  0  0  0
  3  5  1  0  0  0  0
  3  4  2  0  0  0  0
  6  2  1  0  0  0  0
  6  1  1  0  0  0  0
  7  8  2  0  0  0  0
 10 17  1  6  0  0  0
 10 13  1  0  0  0  0
 12 19  1  0  0  0  0
 13 11  1  1  0  0  0
 13  9  1  0  0  0  0
 13 16  1  0  0  0  0
 14 20  1  0  0  0  0
 15 10  1  0  0  0  0
 15 12  2  0  0  0  0
 16 11  1  6  0  0  0
 17 14  1  0  0  0  0
 18 12  1  0  0  0  0
 19  9  2  0  0  0  0
 20  8  1  1  0  0  0
 20 16  1  0  0  0  0
 22 21  1  6  0  0  0
 22 25  1  0  0  0  0
 23 26  1  0  0  0  0
 23 27  1  0  0  0  0
 24 22  1  0  0  0  0
 24 28  1  0  0  0  0
 25 26  2  0  0  0  0
 28 23  2  0  0  0  0
M  END
>  <MODEL>
2

>  <REMARK>
 VINA RESULT:      -9.0      1.386      1.578
  Name = 
  4 active torsions:
  status: ('A' for Active; 'I' for Inactive)
    1  A    between atoms: N_1  and  C_2
    2  A    between atoms: C_2  and  C_3
    3  A    between atoms: C_16  and  C_20
    4  A    between atoms: C_20  and  C_25
                            x       y       z     vdW  Elec       q    Type
                         _______ _______ _______ _____ _____    ______ ____

>  <TORSDO>
F 4

$$$$
=
 OpenBabel11052422593D

 28 32  0  0  1  0  0  0  0  0999 V2000
  160.3780  211.8900  153.3870 N   0  0  0  0  0  0  0  0  0  0  0  0
  160.3500  209.5830  152.9160 C   0  0  1  0  0  3  0  0  0  0  0  0
  161.0230  209.8460  154.1820 C   0  0  0  0  0  0  0  0  0  0  0  0
  161.5120  208.9840  154.9560 O   0  0  0  0  0  0  0  0  0  0  0  0
  160.9830  211.2130  154.4560 N   0  0  0  0  0  2  0  0  0  0  0  0
  159.9430  210.9150  152.4430 N   0  0  0  0  0  2  0  0  0  0  0  0
  162.3530  209.4150  151.6630 O   0  0  0  0  0  0  0  0  0  0  0  0
  161.2620  208.9270  151.9190 C   0  0  0  0  0  0  0  0  0  0  0  0
  161.2810  203.8490  151.8880 C   0  0  0  0  0  3  0  0  0  0  0  0
  161.5420  205.2050  149.6660 C   0  0  1  0  0  3  0  0  0  0  0  0
  162.6130  205.9380  151.8250 C   0  0  0  0  0  2  0  0  0  0  0  0
  160.7570  202.8330  149.7210 C   0  0  0  0  0  0  0  0  0  0  0  0
  161.4590  205.1690  151.2080 C   0  0  2  0  0  0  0  0  0  0  0  0
  161.3080  207.6770  149.7620 C   0  0  0  0  0  2  0  0  0  0  0  0
  161.0000  203.9520  149.0320 C   0  0  0  0  0  3  0  0  0  0  0  0
  161.1870  206.4200  152.0450 C   0  0  2  0  0  3  0  0  0  0  0  0
  160.8300  206.4130  149.0750 C   0  0  0  0  0  2  0  0  0  0  0  0
  160.2570  201.6320  149.0040 C   0  0  0  0  0  1  0  0  0  0  0  0
  160.9470  202.7690  151.1820 C   0  0  0  0  0  3  0  0  0  0  0  0
  160.8350  207.6750  151.2150 C   0  0  1  0  0  3  0  0  0  0  0  0
  159.2290  212.6620  153.8910 C   0  0  0  0  0  2  0  0  0  0  0  0
  158.6420  213.7120  152.9290 C   0  0  2  0  0  3  0  0  0  0  0  0
  157.0610  214.1360  150.5880 C   0  0  0  0  0  0  0  0  0  0  0  0
  157.2090  213.7090  152.9180 O   0  0  0  0  0  0  0  0  0  0  0  0
  159.2470  213.6470  151.5510 C   0  0  0  0  0  3  0  0  0  0  0  0
  158.5030  213.8760  150.4680 C   0  0  0  0  0  3  0  0  0  0  0  0
  156.2590  214.4530  149.3780 C   0  0  0  0  0  1  0  0  0  0  0  0
  156.4630  214.0290  151.7740 C   0  0  0  0  0  3  0  0  0  0  0  0
  1 21  1  0  0  0  0
  1  5  1  0  0  0  0
  2  8  1  6  0  0  0
  2  3  1  0  0  0  0
  3  5  1  0  0  0  0
  3  4  2  0  0  0  0
  6  2  1  0  0  0  0
  6  1  1  0  0  0  0
  7  8  2  0  0  0  0
 10 15  1  6  0  0  0
 10 13  1  0  0  0  0
 12 19  1  0  0  0  0
 13 11  1  1  0  0  0
 13  9  1  0  0  0  0
 13 16  1  0  0  0  0
 14 20  1  0  0  0  0
 15 12  2  0  0  0  0
 16 11  1  6  0  0  0
 17 10  1  0  0  0  0
 17 14  1  0  0  0  0
 18 12  1  0  0  0  0
 19  9  2  0  0  0  0
 20  8  1  1  0  0  0
 20 16  1  0  0  0  0
 22 21  1  1  0  0  0
 23 28  2  0  0  0  0
 24 22  1  0  0  0  0
 25 22  1  0  0  0  0
 26 23  1  0  0  0  0
 26 25  2  0  0  0  0
 27 23  1  0  0  0  0
 28 24  1  0  0  0  0
M  END
>  <MODEL>
3

>  <REMARK>
 VINA RESULT:      -8.8      1.273      1.704
  Name = 
  4 active torsions:
  status: ('A' for Active; 'I' for Inactive)
    1  A    between atoms: N_1  and  C_2
    2  A    between atoms: C_2  and  C_3
    3  A    between atoms: C_16  and  C_20
    4  A    between atoms: C_20  and  C_25
                            x       y       z     vdW  Elec       q    Type
                         _______ _______ _______ _____ _____    ______ ____

>  <TORSDO>
F 4

$$$$
=
 OpenBabel11052422593D

 28 32  0  0  1  0  0  0  0  0999 V2000
  160.7680  211.1890  153.2380 N   0  0  0  0  0  0  0  0  0  0  0  0
  160.8100  208.9420  152.5370 C   0  0  1  0  0  3  0  0  0  0  0  0
  161.2430  209.0610  153.9230 C   0  0  0  0  0  0  0  0  0  0  0  0
  161.5780  208.1140  154.6810 O   0  0  0  0  0  0  0  0  0  0  0  0
  161.1640  210.3940  154.3240 N   0  0  0  0  0  2  0  0  0  0  0  0
  160.5060  210.3230  152.1370 N   0  0  0  0  0  2  0  0  0  0  0  0
  162.7350  209.0900  151.1650 O   0  0  0  0  0  0  0  0  0  0  0  0
  161.8840  208.3650  151.6580 C   0  0  0  0  0  0  0  0  0  0  0  0
  161.5670  204.7230  148.1340 C   0  0  0  0  0  3  0  0  0  0  0  0
  160.4890  204.4020  150.4960 C   0  0  1  0  0  3  0  0  0  0  0  0
  160.4480  206.6100  149.2860 C   0  0  0  0  0  2  0  0  0  0  0  0
  161.0910  202.4840  149.0100 C   0  0  0  0  0  0  0  0  0  0  0  0
  161.1990  205.3030  149.4620 C   0  0  2  0  0  0  0  0  0  0  0  0
  160.8810  206.1510  152.2160 C   0  0  0  0  0  2  0  0  0  0  0  0
  160.6490  202.9370  150.1870 C   0  0  0  0  0  3  0  0  0  0  0  0
  161.8620  206.6270  149.8450 C   0  0  2  0  0  3  0  0  0  0  0  0
  160.9600  204.6670  151.9180 C   0  0  0  0  0  2  0  0  0  0  0  0
  161.1810  201.0190  148.7810 C   0  0  0  0  0  1  0  0  0  0  0  0
  161.5170  203.4050  147.9400 C   0  0  0  0  0  3  0  0  0  0  0  0
  161.9110  206.8960  151.3670 C   0  0  1  0  0  3  0  0  0  0  0  0
  159.5520  211.9360  153.6020 C   0  0  0  0  0  2  0  0  0  0  0  0
  158.6260  211.2670  154.6350 C   0  0  2  0  0  3  0  0  0  0  0  0
  156.3260  211.5960  156.2970 C   0  0  0  0  0  0  0  0  0  0  0  0
  157.2760  211.1470  154.1690 O   0  0  0  0  0  0  0  0  0  0  0  0
  158.7300  211.8880  156.0040 C   0  0  0  0  0  3  0  0  0  0  0  0
  157.6520  212.0090  156.7800 C   0  0  0  0  0  3  0  0  0  0  0  0
  155.1480  211.6770  157.1970 C   0  0  0  0  0  1  0  0  0  0  0  0
  156.1730  211.2060  155.0320 C   0  0  0  0  0  3  0  0  0  0  0  0
  1 21  1  0  0  0  0
  1  5  1  0  0  0  0
  2  8  1  6  0  0  0
  2  3  1  0  0  0  0
  3  5  1  0  0  0  0
  3  4  2  0  0  0  0
  6  2  1  0  0  0  0
  6  1  1  0  0  0  0
  7  8  2  0  0  0  0
 10 15  1  6  0  0  0
 10 17  1  0  0  0  0
 11 13  1  0  0  0  0
 12 15  2  0  0  0  0
 13  9  1  6  0  0  0
 13 16  1  0  0  0  0
 13 10  1  0  0  0  0
 16 11  1  6  0  0  0
 16 20  1  0  0  0  0
 17 14  1  0  0  0  0
 18 12  1  0  0  0  0
 19  9  2  0  0  0  0
 19 12  1  0  0  0  0
 20  8  1  6  0  0  0
 20 14  1  0  0  0  0
 22 21  1  6  0  0  0
 22 25  1  0  0  0  0
 23 26  1  0  0  0  0
 23 27  1  0  0  0  0
 24 22  1  0  0  0  0
 24 28  1  0  0  0  0
 25 26  2  0  0  0  0
 28 23  2  0  0  0  0
M  END
>  <MODEL>
4

>  <REMARK>
 VINA RESULT:      -8.8      1.564      2.327
  Name = 
  4 active torsions:
  status: ('A' for Active; 'I' for Inactive)
    1  A    between atoms: N_1  and  C_2
    2  A    between atoms: C_2  and  C_3
    3  A    between atoms: C_16  and  C_20
    4  A    between atoms: C_20  and  C_25
                            x       y       z     vdW  Elec       q    Type
                         _______ _______ _______ _____ _____    ______ ____

>  <TORSDO>
F 4

$$$$
=
 OpenBabel11052422593D

 28 32  0  0  1  0  0  0  0  0999 V2000
  161.0060  210.3050  153.9970 N   0  0  0  0  0  0  0  0  0  0  0  0
  160.7940  208.2740  152.8250 C   0  0  1  0  0  3  0  0  0  0  0  0
  161.4140  208.0600  154.1260 C   0  0  0  0  0  0  0  0  0  0  0  0
  161.7770  206.9540  154.6030 O   0  0  0  0  0  0  0  0  0  0  0  0
  161.4840  209.2700  154.8150 N   0  0  0  0  0  2  0  0  0  0  0  0
  160.5390  209.7220  152.7840 N   0  0  0  0  0  2  0  0  0  0  0  0
  162.3590  208.7050  151.1010 O   0  0  0  0  0  0  0  0  0  0  0  0
  161.6990  207.8680  151.6960 C   0  0  0  0  0  0  0  0  0  0  0  0
  161.4680  204.5260  147.8800 C   0  0  0  0  0  3  0  0  0  0  0  0
  160.4590  203.9560  150.2250 C   0  0  1  0  0  3  0  0  0  0  0  0
  160.2910  206.2540  149.2090 C   0  0  0  0  0  2  0  0  0  0  0  0
  161.1140  202.2010  148.5690 C   0  0  0  0  0  0  0  0  0  0  0  0
  161.1040  204.9740  149.2590 C   0  0  2  0  0  0  0  0  0  0  0  0
  160.8100  205.5700  152.0810 C   0  0  0  0  0  2  0  0  0  0  0  0
  160.6790  202.5320  149.7890 C   0  0  0  0  0  3  0  0  0  0  0  0
  161.7150  206.2900  149.7420 C   0  0  2  0  0  3  0  0  0  0  0  0
  160.9490  204.1220  151.6550 C   0  0  0  0  0  2  0  0  0  0  0  0
  161.2650  200.7670  148.2150 C   0  0  0  0  0  1  0  0  0  0  0  0
  161.4740  203.2280  147.5740 C   0  0  0  0  0  3  0  0  0  0  0  0
  161.7860  206.4310  151.2800 C   0  0  1  0  0  3  0  0  0  0  0  0
  159.9050  210.9990  154.6870 C   0  0  0  0  0  2  0  0  0  0  0  0
  158.7130  211.4240  153.8100 C   0  0  2  0  0  3  0  0  0  0  0  0
  156.7670  213.4530  153.3050 C   0  0  0  0  0  0  0  0  0  0  0  0
  158.9760  212.6210  153.0650 O   0  0  0  0  0  0  0  0  0  0  0  0
  157.4130  211.4700  154.5690 C   0  0  0  0  0  3  0  0  0  0  0  0
  156.5010  212.4060  154.3030 C   0  0  0  0  0  3  0  0  0  0  0  0
  155.7150  214.4480  152.9730 C   0  0  0  0  0  1  0  0  0  0  0  0
  157.9710  213.5430  152.7420 C   0  0  0  0  0  3  0  0  0  0  0  0
  1 21  1  0  0  0  0
  1  5  1  0  0  0  0
  2  8  1  6  0  0  0
  2  3  1  0  0  0  0
  3  4  2  0  0  0  0
  3  5  1  0  0  0  0
  6  2  1  0  0  0  0
  6  1  1  0  0  0  0
  7  8  2  0  0  0  0
 10 15  1  6  0  0  0
 10 17  1  0  0  0  0
 11 13  1  0  0  0  0
 12 15  2  0  0  0  0
 13  9  1  6  0  0  0
 13 16  1  0  0  0  0
 13 10  1  0  0  0  0
 16 11  1  1  0  0  0
 16 20  1  0  0  0  0
 17 14  1  0  0  0  0
 18 12  1  0  0  0  0
 19  9  2  0  0  0  0
 19 12  1  0  0  0  0
 20  8  1  6  0  0  0
 20 14  1  0  0  0  0
 22 25  1  0  0  0  0
 22 21  1  1  0  0  0
 23 26  1  0  0  0  0
 24 22  1  0  0  0  0
 26 25  2  0  0  0  0
 27 23  1  0  0  0  0
 28 24  1  0  0  0  0
 28 23  2  0  0  0  0
M  END
>  <MODEL>
5

>  <REMARK>
 VINA RESULT:      -8.8      1.139      1.997
  Name = 
  4 active torsions:
  status: ('A' for Active; 'I' for Inactive)
    1  A    between atoms: N_1  and  C_2
    2  A    between atoms: C_2  and  C_3
    3  A    between atoms: C_16  and  C_20
    4  A    between atoms: C_20  and  C_25
                            x       y       z     vdW  Elec       q    Type
                         _______ _______ _______ _____ _____    ______ ____

>  <TORSDO>
F 4

$$$$
=
 OpenBabel11052422593D

 28 32  0  0  1  0  0  0  0  0999 V2000
  161.9590  206.4380  148.0030 N   0  0  0  0  0  0  0  0  0  0  0  0
  161.0780  207.5110  149.9050 C   0  0  1  0  0  3  0  0  0  0  0  0
  161.9790  208.3970  149.1800 C   0  0  0  0  0  0  0  0  0  0  0  0
  162.2540  209.5870  149.4830 O   0  0  0  0  0  0  0  0  0  0  0  0
  162.4480  207.7520  148.0360 N   0  0  0  0  0  2  0  0  0  0  0  0
  161.0840  206.2700  149.1160 N   0  0  0  0  0  2  0  0  0  0  0  0
  162.5640  206.5850  151.5000 O   0  0  0  0  0  0  0  0  0  0  0  0
  161.5550  207.2450  151.3050 C   0  0  0  0  0  0  0  0  0  0  0  0
  159.8800  211.3450  153.7900 C   0  0  0  0  0  3  0  0  0  0  0  0
  160.7380  209.2440  155.0920 C   0  0  1  0  0  3  0  0  0  0  0  0
  161.8340  210.0570  152.9740 C   0  0  0  0  0  2  0  0  0  0  0  0
  159.2050  210.9360  156.1090 C   0  0  0  0  0  0  0  0  0  0  0  0
  160.5370  210.0010  153.7610 C   0  0  2  0  0  0  0  0  0  0  0  0
  161.3360  207.2150  153.7890 C   0  0  0  0  0  2  0  0  0  0  0  0
  159.8560  209.7720  156.1920 C   0  0  0  0  0  3  0  0  0  0  0  0
  160.6390  209.3110  152.4000 C   0  0  2  0  0  3  0  0  0  0  0  0
  160.5150  207.7470  154.9470 C   0  0  0  0  0  2  0  0  0  0  0  0
  158.3860  211.3950  157.2610 C   0  0  0  0  0  1  0  0  0  0  0  0
  159.2570  211.7650  154.8910 C   0  0  0  0  0  3  0  0  0  0  0  0
  160.7860  207.7740  152.4770 C   0  0  1  0  0  3  0  0  0  0  0  0
  161.2290  206.2230  146.7420 C   0  0  0  0  0  2  0  0  0  0  0  0
  161.5020  204.8920  146.0170 C   0  0  2  0  0  3  0  0  0  0  0  0
  160.4720  202.3050  145.3790 C   0  0  0  0  0  0  0  0  0  0  0  0
  160.5680  204.6390  144.9590 O   0  0  0  0  0  0  0  0  0  0  0  0
  161.6570  203.7310  146.9640 C   0  0  0  0  0  3  0  0  0  0  0  0
  161.1970  202.5210  146.6400 C   0  0  0  0  0  3  0  0  0  0  0  0
  160.0230  200.9400  145.0030 C   0  0  0  0  0  1  0  0  0  0  0  0
  160.1670  203.3440  144.6020 C   0  0  0  0  0  3  0  0  0  0  0  0
  1  5  1  0  0  0  0
  1  6  1  0  0  0  0
  2  8  1  1  0  0  0
  3  4  2  0  0  0  0
  3  2  1  0  0  0  0
  5  3  1  0  0  0  0
  6  2  1  0  0  0  0
  8  7  2  0  0  0  0
  9 19  2  0  0  0  0
 10 17  1  6  0  0  0
 10 15  1  0  0  0  0
 12 15  2  0  0  0  0
 12 18  1  0  0  0  0
 13 11  1  6  0  0  0
 13  9  1  0  0  0  0
 13 10  1  0  0  0  0
 14 17  1  0  0  0  0
 16 20  1  0  0  0  0
 16 11  1  1  0  0  0
 16 13  1  0  0  0  0
 19 12  1  0  0  0  0
 20  8  1  6  0  0  0
 20 14  1  0  0  0  0
 21  1  1  0  0  0  0
 22 21  1  1  0  0  0
 22 25  1  0  0  0  0
 23 26  1  0  0  0  0
 24 22  1  0  0  0  0
 26 25  2  0  0  0  0
 27 23  1  0  0  0  0
 28 24  1  0  0  0  0
 28 23  2  0  0  0  0
M  END
>  <MODEL>
6

>  <REMARK>
 VINA RESULT:      -8.6      3.633      9.190
  Name = 
  4 active torsions:
  status: ('A' for Active; 'I' for Inactive)
    1  A    between atoms: N_1  and  C_2
    2  A    between atoms: C_2  and  C_3
    3  A    between atoms: C_16  and  C_20
    4  A    between atoms: C_20  and  C_25
                            x       y       z     vdW  Elec       q    Type
                         _______ _______ _______ _____ _____    ______ ____

>  <TORSDO>
F 4

$$$$
=
 OpenBabel11052422593D

 28 32  0  0  1  0  0  0  0  0999 V2000
  159.9060  210.5630  152.9540 N   0  0  0  0  0  0  0  0  0  0  0  0
  161.5050  208.8710  152.6010 C   0  0  1  0  0  3  0  0  0  0  0  0
  162.1520  210.1430  152.8980 C   0  0  0  0  0  0  0  0  0  0  0  0
  163.3910  210.3440  152.9860 O   0  0  0  0  0  0  0  0  0  0  0  0
  161.1820  211.1130  153.1470 N   0  0  0  0  0  2  0  0  0  0  0  0
  160.0680  209.1790  152.6560 N   0  0  0  0  0  2  0  0  0  0  0  0
  162.1090  209.1270  150.3250 O   0  0  0  0  0  0  0  0  0  0  0  0
  161.8790  208.3520  151.2420 C   0  0  0  0  0  0  0  0  0  0  0  0
  161.3550  204.5670  147.8970 C   0  0  0  0  0  3  0  0  0  0  0  0
  160.5950  204.2760  150.3830 C   0  0  1  0  0  3  0  0  0  0  0  0
  160.2730  206.4310  149.1200 C   0  0  0  0  0  2  0  0  0  0  0  0
  161.1250  202.3400  148.8930 C   0  0  0  0  0  0  0  0  0  0  0  0
  161.1170  205.1760  149.2430 C   0  0  2  0  0  0  0  0  0  0  0  0
  161.0870  206.1080  151.9870 C   0  0  0  0  0  2  0  0  0  0  0  0
  160.8040  202.8120  150.1020 C   0  0  0  0  0  3  0  0  0  0  0  0
  161.7420  206.5480  149.5000 C   0  0  2  0  0  3  0  0  0  0  0  0
  161.2190  204.6210  151.7270 C   0  0  0  0  0  2  0  0  0  0  0  0
  161.2750  200.8750  148.7000 C   0  0  0  0  0  1  0  0  0  0  0  0
  161.3620  203.2420  147.7510 C   0  0  0  0  0  3  0  0  0  0  0  0
  161.9600  206.8770  150.9940 C   0  0  1  0  0  3  0  0  0  0  0  0
  159.1140  210.7320  154.1850 C   0  0  0  0  0  2  0  0  0  0  0  0
  158.3600  212.0670  154.3310 C   0  0  2  0  0  3  0  0  0  0  0  0
  156.0140  213.5350  153.6230 C   0  0  0  0  0  0  0  0  0  0  0  0
  157.0930  211.9160  154.9820 O   0  0  0  0  0  0  0  0  0  0  0  0
  158.2760  212.8360  153.0380 C   0  0  0  0  0  3  0  0  0  0  0  0
  157.1860  213.5410  152.7330 C   0  0  0  0  0  3  0  0  0  0  0  0
  154.8330  214.3760  153.3020 C   0  0  0  0  0  1  0  0  0  0  0  0
  155.9910  212.7290  154.6840 C   0  0  0  0  0  3  0  0  0  0  0  0
  1  5  1  0  0  0  0
  1 21  1  0  0  0  0
  2  8  1  6  0  0  0
  2  6  1  0  0  0  0
  2  3  1  0  0  0  0
  3  4  2  0  0  0  0
  3  5  1  0  0  0  0
  6  1  1  0  0  0  0
  7  8  2  0  0  0  0
 10 15  1  6  0  0  0
 10 17  1  0  0  0  0
 11 13  1  0  0  0  0
 12 15  2  0  0  0  0
 13  9  1  6  0  0  0
 13 16  1  0  0  0  0
 13 10  1  0  0  0  0
 16 11  1  1  0  0  0
 16 20  1  0  0  0  0
 17 14  1  0  0  0  0
 18 12  1  0  0  0  0
 19  9  2  0  0  0  0
 19 12  1  0  0  0  0
 20  8  1  6  0  0  0
 20 14  1  0  0  0  0
 22 21  1  6  0  0  0
 22 24  1  0  0  0  0
 23 28  2  0  0  0  0
 25 22  1  0  0  0  0
 26 25  2  0  0  0  0
 26 23  1  0  0  0  0
 27 23  1  0  0  0  0
 28 24  1  0  0  0  0
M  END
>  <MODEL>
7

>  <REMARK>
 VINA RESULT:      -8.2      1.345      2.242
  Name = 
  4 active torsions:
  status: ('A' for Active; 'I' for Inactive)
    1  A    between atoms: N_1  and  C_2
    2  A    between atoms: C_2  and  C_3
    3  A    between atoms: C_16  and  C_20
    4  A    between atoms: C_20  and  C_25
                            x       y       z     vdW  Elec       q    Type
                         _______ _______ _______ _____ _____    ______ ____

>  <TORSDO>
F 4

$$$$
=
 OpenBabel11052422593D

 28 32  0  0  1  0  0  0  0  0999 V2000
  160.3830  209.2680  153.8410 N   0  0  0  0  0  0  0  0  0  0  0  0
  161.9660  208.2450  152.4300 C   0  0  1  0  0  3  0  0  0  0  0  0
  162.1750  209.6860  152.4850 C   0  0  0  0  0  0  0  0  0  0  0  0
  163.0800  210.3290  151.8940 O   0  0  0  0  0  0  0  0  0  0  0  0
  161.2540  210.2580  153.3620 N   0  0  0  0  0  2  0  0  0  0  0  0
  160.8170  208.0150  153.3180 N   0  0  0  0  0  2  0  0  0  0  0  0
  161.2880  208.5640  150.1840 O   0  0  0  0  0  0  0  0  0  0  0  0
  161.6570  207.7720  151.0380 C   0  0  0  0  0  0  0  0  0  0  0  0
  161.5130  204.2510  147.3820 C   0  0  0  0  0  3  0  0  0  0  0  0
  160.5220  203.7640  149.7540 C   0  0  1  0  0  3  0  0  0  0  0  0
  160.2910  206.0070  148.6320 C   0  0  0  0  0  2  0  0  0  0  0  0
  161.2220  201.9530  148.1810 C   0  0  0  0  0  0  0  0  0  0  0  0
  161.1380  204.7530  148.7410 C   0  0  2  0  0  0  0  0  0  0  0  0
  160.8310  205.4720  151.5320 C   0  0  0  0  0  2  0  0  0  0  0  0
  160.7790  202.3280  149.3850 C   0  0  0  0  0  3  0  0  0  0  0  0
  161.7140  206.1060  149.1600 C   0  0  2  0  0  3  0  0  0  0  0  0
  161.0090  204.0100  151.1740 C   0  0  0  0  0  2  0  0  0  0  0  0
  161.4120  200.5070  147.8930 C   0  0  0  0  0  1  0  0  0  0  0  0
  161.5540  202.9410  147.1380 C   0  0  0  0  0  3  0  0  0  0  0  0
  161.7820  206.3210  150.6890 C   0  0  1  0  0  3  0  0  0  0  0  0
  160.4300  209.2520  155.3140 C   0  0  0  0  0  2  0  0  0  0  0  0
  159.5850  210.3200  156.0320 C   0  0  2  0  0  3  0  0  0  0  0  0
  158.3160  212.8680  155.7970 C   0  0  0  0  0  0  0  0  0  0  0  0
  158.3110  210.5270  155.4080 O   0  0  0  0  0  0  0  0  0  0  0  0
  160.3420  211.5990  156.2770 C   0  0  0  0  0  3  0  0  0  0  0  0
  159.7290  212.7810  156.1920 C   0  0  0  0  0  3  0  0  0  0  0  0
  157.6310  214.1860  155.7700 C   0  0  0  0  0  1  0  0  0  0  0  0
  157.6670  211.7720  155.4060 C   0  0  0  0  0  3  0  0  0  0  0  0
  1 21  1  0  0  0  0
  2  8  1  6  0  0  0
  2  3  1  0  0  0  0
  2  6  1  0  0  0  0
  3  5  1  0  0  0  0
  4  3  2  0  0  0  0
  5  1  1  0  0  0  0
  6  1  1  0  0  0  0
  7  8  2  0  0  0  0
 10 15  1  6  0  0  0
 10 17  1  0  0  0  0
 11 13  1  0  0  0  0
 12 15  2  0  0  0  0
 13  9  1  6  0  0  0
 13 16  1  0  0  0  0
 13 10  1  0  0  0  0
 16 11  1  6  0  0  0
 16 20  1  0  0  0  0
 17 14  1  0  0  0  0
 18 12  1  0  0  0  0
 19  9  2  0  0  0  0
 19 12  1  0  0  0  0
 20  8  1  6  0  0  0
 20 14  1  0  0  0  0
 22 21  1  6  0  0  0
 22 25  1  0  0  0  0
 23 26  1  0  0  0  0
 24 22  1  0  0  0  0
 26 25  2  0  0  0  0
 27 23  1  0  0  0  0
 28 24  1  0  0  0  0
 28 23  2  0  0  0  0
M  END
>  <MODEL>
8

>  <REMARK>
 VINA RESULT:      -7.9      1.870      3.053
  Name = 
  4 active torsions:
  status: ('A' for Active; 'I' for Inactive)
    1  A    between atoms: N_1  and  C_2
    2  A    between atoms: C_2  and  C_3
    3  A    between atoms: C_16  and  C_20
    4  A    between atoms: C_20  and  C_25
                            x       y       z     vdW  Elec       q    Type
                         _______ _______ _______ _____ _____    ______ ____

>  <TORSDO>
F 4

$$$$
=
 OpenBabel11052422593D

 28 32  0  0  1  0  0  0  0  0999 V2000
  161.0880  210.3580  152.4800 N   0  0  0  0  0  0  0  0  0  0  0  0
  162.3470  209.9140  150.5410 C   0  0  1  0  0  3  0  0  0  0  0  0
  161.5900  211.1500  150.3960 C   0  0  0  0  0  0  0  0  0  0  0  0
  161.6000  211.9150  149.3970 O   0  0  0  0  0  0  0  0  0  0  0  0
  160.8910  211.4100  151.5740 N   0  0  0  0  0  2  0  0  0  0  0  0
  162.0070  209.4420  151.8910 N   0  0  0  0  0  2  0  0  0  0  0  0
  161.6060  209.2370  148.3960 O   0  0  0  0  0  0  0  0  0  0  0  0
  161.9580  208.8890  149.5130 C   0  0  0  0  0  0  0  0  0  0  0  0
  161.4940  204.1200  147.8320 C   0  0  0  0  0  3  0  0  0  0  0  0
  160.5370  204.8200  150.1640 C   0  0  1  0  0  3  0  0  0  0  0  0
  160.4190  206.3300  148.1510 C   0  0  0  0  0  2  0  0  0  0  0  0
  161.0800  202.4510  149.5770 C   0  0  0  0  0  0  0  0  0  0  0  0
  161.1880  205.2030  148.8170 C   0  0  2  0  0  0  0  0  0  0  0  0
  161.0010  207.1190  150.9850 C   0  0  0  0  0  2  0  0  0  0  0  0
  160.6930  203.3570  150.4820 C   0  0  0  0  0  3  0  0  0  0  0  0
  161.8590  206.5570  148.5850 C   0  0  2  0  0  3  0  0  0  0  0  0
  161.0760  205.6430  151.3240 C   0  0  0  0  0  2  0  0  0  0  0  0
  161.1700  201.0220  149.9720 C   0  0  0  0  0  1  0  0  0  0  0  0
  161.4460  202.8410  148.2030 C   0  0  0  0  0  3  0  0  0  0  0  0
  161.9820  207.4310  149.8550 C   0  0  1  0  0  3  0  0  0  0  0  0
  161.6360  210.8960  153.7370 C   0  0  0  0  0  2  0  0  0  0  0  0
  161.0670  210.2980  155.0370 C   0  0  2  0  0  3  0  0  0  0  0  0
  160.4570  207.8930  156.4530 C   0  0  0  0  0  0  0  0  0  0  0  0
  162.0350  209.5240  155.7580 O   0  0  0  0  0  0  0  0  0  0  0  0
  159.7630  209.5740  154.8280 C   0  0  0  0  0  3  0  0  0  0  0  0
  159.4790  208.4670  155.5170 C   0  0  0  0  0  3  0  0  0  0  0  0
  160.1010  206.6990  157.2610 C   0  0  0  0  0  1  0  0  0  0  0  0
  161.6830  208.4100  156.5320 C   0  0  0  0  0  3  0  0  0  0  0  0
  1 21  1  0  0  0  0
  2  8  1  6  0  0  0
  2  6  1  0  0  0  0
  3  2  1  0  0  0  0
  3  5  1  0  0  0  0
  4  3  2  0  0  0  0
  5  1  1  0  0  0  0
  6  1  1  0  0  0  0
  7  8  2  0  0  0  0
  9 19  2  0  0  0  0
 10 15  1  1  0  0  0
 10 17  1  0  0  0  0
 11 13  1  0  0  0  0
 12 18  1  0  0  0  0
 12 15  2  0  0  0  0
 13  9  1  6  0  0  0
 13 10  1  0  0  0  0
 14 17  1  0  0  0  0
 16 11  1  6  0  0  0
 16 13  1  0  0  0  0
 16 20  1  0  0  0  0
 19 12  1  0  0  0  0
 20  8  1  6  0  0  0
 20 14  1  0  0  0  0
 22 21  1  6  0  0  0
 22 24  1  0  0  0  0
 23 28  2  0  0  0  0
 23 27  1  0  0  0  0
 24 28  1  0  0  0  0
 25 22  1  0  0  0  0
 25 26  2  0  0  0  0
 26 23  1  0  0  0  0
M  END
>  <MODEL>
9

>  <REMARK>
 VINA RESULT:      -7.7      3.019      4.385
  Name = 
  4 active torsions:
  status: ('A' for Active; 'I' for Inactive)
    1  A    between atoms: N_1  and  C_2
    2  A    between atoms: C_2  and  C_3
    3  A    between atoms: C_16  and  C_20
    4  A    between atoms: C_20  and  C_25
                            x       y       z     vdW  Elec       q    Type
                         _______ _______ _______ _____ _____    ______ ____

>  <TORSDO>
F 4

$$$$
