=
 OpenBabel11062408043D

 34 41  0  0  1  0  0  0  0  0999 V2000
  160.8750  206.5570  153.8840 C   0  0  0  0  0  0  0  0  0  0  0  0
  161.2500  208.9090  153.2680 C   0  0  0  0  0  0  0  0  0  0  0  0
  161.8130  207.0900  151.7390 C   0  0  0  0  0  0  0  0  0  0  0  0
  161.8970  207.6180  149.4370 C   0  0  1  0  0  3  0  0  0  0  0  0
  160.3600  208.3260  155.4560 C   0  0  0  0  0  3  0  0  0  0  0  0
  160.7690  209.2920  154.5250 C   0  0  0  0  0  3  0  0  0  0  0  0
  161.9490  209.3960  150.9010 C   0  0  0  0  0  0  0  0  0  0  0  0
  161.3310  207.5250  152.9680 C   0  0  0  0  0  0  0  0  0  0  0  0
  162.1440  208.8740  148.6160 C   0  0  0  0  0  2  0  0  0  0  0  0
  160.4040  206.9640  155.1340 C   0  0  0  0  0  3  0  0  0  0  0  0
  161.7290  205.7490  151.3510 C   0  0  0  0  0  0  0  0  0  0  0  0
  160.8700  205.2030  153.5050 C   0  0  0  0  0  3  0  0  0  0  0  0
  161.6190  209.9870  152.2510 C   0  0  0  0  0  2  0  0  0  0  0  0
  162.5370  206.4060  149.1140 O   0  0  0  0  0  0  0  0  0  0  0  0
  161.9530  205.4500  149.9290 N   0  0  0  0  0  0  0  0  0  0  0  0
  161.8690  209.9190  149.6740 C   0  0  0  0  0  0  0  0  0  0  0  0
  162.4090  208.0190  150.7790 C   0  0  1  0  0  3  0  0  0  0  0  0
  161.2700  204.8320  152.2500 N   0  0  0  0  0  0  0  0  0  0  0  0
  161.0500  202.8870  147.3200 C   0  0  0  0  0  0  0  0  0  0  0  0
  160.3930  201.9360  148.1030 C   0  0  0  0  0  3  0  0  0  0  0  0
  161.4170  204.2720  149.2900 C   0  0  0  0  0  0  0  0  0  0  0  0
  160.2450  202.1440  149.4760 C   0  0  0  0  0  3  0  0  0  0  0  0
  161.5620  204.0450  147.9110 C   0  0  0  0  0  3  0  0  0  0  0  0
  160.7570  203.3040  150.0640 C   0  0  0  0  0  3  0  0  0  0  0  0
  161.1980  202.6850  145.9880 F   0  0  0  0  0  0  0  0  0  0  0  0
  161.4680  211.2570  149.3540 N   0  0  0  0  0  2  0  0  0  0  0  0
  162.0590  212.0480  148.2870 C   0  0  0  0  0  2  0  0  0  0  0  0
  160.4930  214.3550  148.5530 F   0  0  0  0  0  0  0  0  0  0  0  0
  161.0320  212.2750  147.1930 C   0  0  1  0  0  3  0  0  0  0  0  0
  160.2370  213.5410  147.4620 C   0  0  2  0  0  0  0  0  0  0  0  0
  159.4210  214.0800  145.4850 C   0  0  0  0  0  2  0  0  0  0  0  0
  160.7090  213.5900  145.2120 O   0  0  0  0  0  0  0  0  0  0  0  0
  161.3410  213.5760  146.4550 C   0  0  2  0  0  3  0  0  0  0  0  0
  159.0330  213.7060  146.7810 O   0  0  0  0  0  0  0  0  0  0  0  0
  1 10  2  0  0  0  0
  2  6  1  0  0  0  0
  3  8  1  0  0  0  0
  4  9  1  6  0  0  0
  4 17  1  0  0  0  0
  6  5  2  0  0  0  0
  7 13  1  0  0  0  0
  8  2  2  0  0  0  0
  8  1  1  0  0  0  0
  9 16  1  0  0  0  0
 10  5  1  0  0  0  0
 11  3  2  0  0  0  0
 11 18  1  0  0  0  0
 12  1  1  0  0  0  0
 13  2  1  0  0  0  0
 14  4  1  0  0  0  0
 14 15  1  0  0  0  0
 15 11  1  0  0  0  0
 16  7  2  0  0  0  0
 17  7  1  1  0  0  0
 17  3  1  0  0  0  0
 18 12  2  0  0  0  0
 19 23  2  0  0  0  0
 19 20  1  0  0  0  0
 20 22  2  0  0  0  0
 21 15  1  0  0  0  0
 21 24  2  0  0  0  0
 22 24  1  0  0  0  0
 23 21  1  0  0  0  0
 25 19  1  0  0  0  0
 26 16  1  0  0  0  0
 27 26  1  0  0  0  0
 29 30  1  0  0  0  0
 29 27  1  1  0  0  0
 30 28  1  1  0  0  0
 31 34  1  0  0  0  0
 32 31  1  0  0  0  0
 33 32  1  6  0  0  0
 33 29  1  0  0  0  0
 33 30  1  0  0  0  0
 34 30  1  0  0  0  0
M  END
>  <MODEL>
1

>  <REMARK>
 VINA RESULT:      -9.8      0.000      0.000
  Name = 
  4 active torsions:
  status: ('A' for Active; 'I' for Inactive)
    1  A    between atoms: C_3  and  C_13
    2  A    between atoms: C_3  and  N_17
    3  A    between atoms: C_12  and  N_28
    4  A    between atoms: N_17  and  C_29
                            x       y       z     vdW  Elec       q    Type
                         _______ _______ _______ _____ _____    ______ ____

>  <TORSDO>
F 4

$$$$
=
 OpenBabel11062408043D

 34 41  0  0  1  0  0  0  0  0999 V2000
  161.4840  206.1450  148.9030 C   0  0  0  0  0  0  0  0  0  0  0  0
  161.1510  205.9440  151.3330 C   0  0  0  0  0  0  0  0  0  0  0  0
  161.9640  208.0170  150.3280 C   0  0  0  0  0  0  0  0  0  0  0  0
  161.6090  210.0070  151.5510 C   0  0  1  0  0  3  0  0  0  0  0  0
  160.7340  204.0510  149.8630 C   0  0  0  0  0  3  0  0  0  0  0  0
  160.7540  204.6150  151.1470 C   0  0  0  0  0  3  0  0  0  0  0  0
  161.3860  208.0320  152.7160 C   0  0  0  0  0  0  0  0  0  0  0  0
  161.5490  206.6960  150.1970 C   0  0  0  0  0  0  0  0  0  0  0  0
  161.4130  210.3640  153.0160 C   0  0  0  0  0  2  0  0  0  0  0  0
  161.0890  204.8140  148.7430 C   0  0  0  0  0  3  0  0  0  0  0  0
  162.1820  208.8310  149.2120 C   0  0  0  0  0  0  0  0  0  0  0  0
  161.7810  206.9580  147.7960 C   0  0  0  0  0  3  0  0  0  0  0  0
  161.0920  206.5510  152.7330 C   0  0  0  0  0  2  0  0  0  0  0  0
  162.4950  210.7420  150.7410 O   0  0  0  0  0  0  0  0  0  0  0  0
  162.2900  210.2780  149.4510 N   0  0  0  0  0  0  0  0  0  0  0  0
  161.0150  209.0070  153.5510 C   0  0  0  0  0  0  0  0  0  0  0  0
  162.1690  208.6270  151.6410 C   0  0  1  0  0  3  0  0  0  0  0  0
  162.0980  208.2780  147.9680 N   0  0  0  0  0  0  0  0  0  0  0  0
  160.4770  212.3070  146.8460 C   0  0  0  0  0  0  0  0  0  0  0  0
  161.4730  213.2150  146.4820 C   0  0  0  0  0  3  0  0  0  0  0  0
  162.0000  211.2560  148.4320 C   0  0  0  0  0  0  0  0  0  0  0  0
  162.7300  213.1520  147.0870 C   0  0  0  0  0  3  0  0  0  0  0  0
  160.7390  211.3370  147.8180 C   0  0  0  0  0  3  0  0  0  0  0  0
  162.9890  212.1800  148.0570 C   0  0  0  0  0  3  0  0  0  0  0  0
  159.2560  212.3680  146.2630 F   0  0  0  0  0  0  0  0  0  0  0  0
  160.2420  208.8430  154.7470 N   0  0  0  0  0  2  0  0  0  0  0  0
  159.9200  209.9260  155.6600 C   0  0  0  0  0  2  0  0  0  0  0  0
  159.0490  212.0550  157.2590 F   0  0  0  0  0  0  0  0  0  0  0  0
  158.5220  210.4390  155.3670 C   0  0  1  0  0  3  0  0  0  0  0  0
  158.1610  211.5740  156.3100 C   0  0  2  0  0  0  0  0  0  0  0  0
  156.5360  212.6350  155.2620 C   0  0  0  0  0  2  0  0  0  0  0  0
  157.4210  212.2510  154.2400 O   0  0  0  0  0  0  0  0  0  0  0  0
  158.5900  211.8970  154.9150 C   0  0  2  0  0  3  0  0  0  0  0  0
  156.8150  211.9110  156.4320 O   0  0  0  0  0  0  0  0  0  0  0  0
  1  8  1  0  0  0  0
  2 13  1  0  0  0  0
  4 17  1  0  0  0  0
  4  9  1  1  0  0  0
  5  6  2  0  0  0  0
  6  2  1  0  0  0  0
  7 13  1  0  0  0  0
  7 16  2  0  0  0  0
  8  3  1  0  0  0  0
  8  2  2  0  0  0  0
  9 16  1  0  0  0  0
 10  1  2  0  0  0  0
 10  5  1  0  0  0  0
 11 15  1  0  0  0  0
 11  3  2  0  0  0  0
 12 18  2  0  0  0  0
 12  1  1  0  0  0  0
 14  4  1  0  0  0  0
 15 14  1  0  0  0  0
 16 26  1  0  0  0  0
 17  3  1  6  0  0  0
 17  7  1  0  0  0  0
 18 11  1  0  0  0  0
 19 23  1  0  0  0  0
 20 19  2  0  0  0  0
 20 22  1  0  0  0  0
 21 15  1  0  0  0  0
 22 24  2  0  0  0  0
 23 21  2  0  0  0  0
 24 21  1  0  0  0  0
 25 19  1  0  0  0  0
 26 27  1  0  0  0  0
 29 27  1  1  0  0  0
 29 30  1  0  0  0  0
 30 34  1  0  0  0  0
 30 28  1  1  0  0  0
 31 34  1  0  0  0  0
 32 31  1  0  0  0  0
 33 32  1  6  0  0  0
 33 29  1  0  0  0  0
 33 30  1  0  0  0  0
M  END
>  <MODEL>
2

>  <REMARK>
 VINA RESULT:      -9.5      3.435      7.163
  Name = 
  4 active torsions:
  status: ('A' for Active; 'I' for Inactive)
    1  A    between atoms: C_3  and  C_13
    2  A    between atoms: C_3  and  N_17
    3  A    between atoms: C_12  and  N_28
    4  A    between atoms: N_17  and  C_29
                            x       y       z     vdW  Elec       q    Type
                         _______ _______ _______ _____ _____    ______ ____

>  <TORSDO>
F 4

$$$$
=
 OpenBabel11062408043D

 34 41  0  0  1  0  0  0  0  0999 V2000
  161.1740  206.0110  152.3410 C   0  0  0  0  0  0  0  0  0  0  0  0
  161.4070  208.4100  152.8350 C   0  0  0  0  0  0  0  0  0  0  0  0
  161.9840  207.5010  150.6420 C   0  0  0  0  0  0  0  0  0  0  0  0
  161.9340  209.0030  148.8180 C   0  0  1  0  0  3  0  0  0  0  0  0
  160.6480  206.8590  154.5490 C   0  0  0  0  0  3  0  0  0  0  0  0
  160.9680  208.1620  154.1400 C   0  0  0  0  0  3  0  0  0  0  0  0
  161.9700  209.9420  150.9220 C   0  0  0  0  0  0  0  0  0  0  0  0
  161.5390  207.3120  151.9460 C   0  0  0  0  0  0  0  0  0  0  0  0
  162.0840  210.5060  148.6410 C   0  0  0  0  0  2  0  0  0  0  0  0
  160.7420  205.7870  153.6510 C   0  0  0  0  0  3  0  0  0  0  0  0
  161.9460  206.4710  149.6970 C   0  0  0  0  0  0  0  0  0  0  0  0
  161.2150  204.9700  151.3970 C   0  0  0  0  0  3  0  0  0  0  0  0
  161.6760  209.8490  152.4000 C   0  0  0  0  0  2  0  0  0  0  0  0
  162.6160  208.1060  147.9740 O   0  0  0  0  0  0  0  0  0  0  0  0
  162.1170  206.8510  148.2870 N   0  0  0  0  0  0  0  0  0  0  0  0
  161.8090  210.9510  150.0600 C   0  0  0  0  0  0  0  0  0  0  0  0
  162.4900  208.7960  150.1870 C   0  0  1  0  0  3  0  0  0  0  0  0
  161.5730  205.2230  150.1000 N   0  0  0  0  0  0  0  0  0  0  0  0
  161.4350  203.9380  145.9980 C   0  0  0  0  0  0  0  0  0  0  0  0
  160.5490  204.5200  145.0900 C   0  0  0  0  0  3  0  0  0  0  0  0
  161.6080  206.0500  147.2000 C   0  0  0  0  0  0  0  0  0  0  0  0
  160.1870  205.8610  145.2300 C   0  0  0  0  0  3  0  0  0  0  0  0
  161.9570  204.6970  147.0490 C   0  0  0  0  0  3  0  0  0  0  0  0
  160.7120  206.6190  146.2810 C   0  0  0  0  0  3  0  0  0  0  0  0
  161.7850  202.6360  145.8660 F   0  0  0  0  0  0  0  0  0  0  0  0
  161.3310  212.2630  150.3800 N   0  0  0  0  0  2  0  0  0  0  0  0
  159.9340  212.5800  150.6270 C   0  0  0  0  0  2  0  0  0  0  0  0
  157.3840  213.4680  151.3740 F   0  0  0  0  0  0  0  0  0  0  0  0
  159.7030  212.7340  152.1190 C   0  0  1  0  0  3  0  0  0  0  0  0
  158.2960  213.2390  152.3920 C   0  0  2  0  0  0  0  0  0  0  0  0
  157.9250  212.6600  154.4870 C   0  0  0  0  0  2  0  0  0  0  0  0
  158.6580  211.5870  153.9510 O   0  0  0  0  0  0  0  0  0  0  0  0
  158.5940  211.7850  152.5720 C   0  0  2  0  0  3  0  0  0  0  0  0
  158.0350  213.7800  153.6490 O   0  0  0  0  0  0  0  0  0  0  0  0
  1 10  2  0  0  0  0
  2  6  1  0  0  0  0
  3  8  1  0  0  0  0
  4  9  1  6  0  0  0
  4 17  1  0  0  0  0
  6  5  2  0  0  0  0
  7 13  1  0  0  0  0
  8  1  1  0  0  0  0
  8  2  2  0  0  0  0
  9 16  1  0  0  0  0
 10  5  1  0  0  0  0
 11 18  1  0  0  0  0
 11  3  2  0  0  0  0
 12  1  1  0  0  0  0
 13  2  1  0  0  0  0
 14 15  1  0  0  0  0
 14  4  1  0  0  0  0
 15 11  1  0  0  0  0
 16 26  1  0  0  0  0
 16  7  2  0  0  0  0
 17  3  1  1  0  0  0
 17  7  1  0  0  0  0
 18 12  2  0  0  0  0
 19 23  1  0  0  0  0
 20 22  1  0  0  0  0
 20 19  2  0  0  0  0
 21 15  1  0  0  0  0
 22 24  2  0  0  0  0
 23 21  2  0  0  0  0
 24 21  1  0  0  0  0
 25 19  1  0  0  0  0
 26 27  1  0  0  0  0
 29 27  1  6  0  0  0
 29 30  1  0  0  0  0
 29 33  1  0  0  0  0
 30 28  1  6  0  0  0
 30 33  1  0  0  0  0
 30 34  1  0  0  0  0
 32 31  1  0  0  0  0
 33 32  1  1  0  0  0
 34 31  1  0  0  0  0
M  END
>  <MODEL>
3

>  <REMARK>
 VINA RESULT:      -9.4      2.762      3.756
  Name = 
  4 active torsions:
  status: ('A' for Active; 'I' for Inactive)
    1  A    between atoms: C_3  and  C_13
    2  A    between atoms: C_3  and  N_17
    3  A    between atoms: C_12  and  N_28
    4  A    between atoms: N_17  and  C_29
                            x       y       z     vdW  Elec       q    Type
                         _______ _______ _______ _____ _____    ______ ____

>  <TORSDO>
F 4

$$$$
=
 OpenBabel11062408043D

 34 41  0  0  1  0  0  0  0  0999 V2000
  161.9500  208.9150  150.0020 C   0  0  0  0  0  0  0  0  0  0  0  0
  161.7920  206.6540  149.0430 C   0  0  0  0  0  0  0  0  0  0  0  0
  161.9200  207.0050  151.4570 C   0  0  0  0  0  0  0  0  0  0  0  0
  161.0480  205.2920  152.8320 C   0  0  1  0  0  3  0  0  0  0  0  0
  161.8880  208.6100  147.5990 C   0  0  0  0  0  3  0  0  0  0  0  0
  161.7950  207.2200  147.7630 C   0  0  0  0  0  3  0  0  0  0  0  0
  161.4630  204.7350  150.6360 C   0  0  0  0  0  0  0  0  0  0  0  0
  161.9050  207.5170  150.1640 C   0  0  0  0  0  0  0  0  0  0  0  0
  160.8170  203.7960  152.6930 C   0  0  0  0  0  2  0  0  0  0  0  0
  161.9560  209.4560  148.7140 C   0  0  0  0  0  3  0  0  0  0  0  0
  161.8430  207.8390  152.5770 C   0  0  0  0  0  0  0  0  0  0  0  0
  161.9500  209.7370  151.1410 C   0  0  0  0  0  3  0  0  0  0  0  0
  161.6160  205.1440  149.1900 C   0  0  0  0  0  2  0  0  0  0  0  0
  161.6450  205.8260  153.9900 O   0  0  0  0  0  0  0  0  0  0  0  0
  161.5320  207.2020  153.8650 N   0  0  0  0  0  0  0  0  0  0  0  0
  160.8570  203.6780  151.1860 C   0  0  0  0  0  0  0  0  0  0  0  0
  161.9910  205.5660  151.7090 C   0  0  1  0  0  3  0  0  0  0  0  0
  161.8730  209.1900  152.3930 N   0  0  0  0  0  0  0  0  0  0  0  0
  159.9090  209.9240  155.9000 C   0  0  0  0  0  0  0  0  0  0  0  0
  159.7060  209.2600  157.1120 C   0  0  0  0  0  3  0  0  0  0  0  0
  160.9260  207.9200  154.9600 C   0  0  0  0  0  0  0  0  0  0  0  0
  160.1080  207.9300  157.2540 C   0  0  0  0  0  3  0  0  0  0  0  0
  160.5100  209.2560  154.8310 C   0  0  0  0  0  3  0  0  0  0  0  0
  160.7110  207.2650  156.1830 C   0  0  0  0  0  3  0  0  0  0  0  0
  159.5170  211.2130  155.7590 F   0  0  0  0  0  0  0  0  0  0  0  0
  160.2170  202.6110  150.4760 N   0  0  0  0  0  2  0  0  0  0  0  0
  160.9020  201.4130  150.0210 C   0  0  0  0  0  2  0  0  0  0  0  0
  161.9560  202.9240  147.9110 F   0  0  0  0  0  0  0  0  0  0  0  0
  160.4090  201.0400  148.6350 C   0  0  1  0  0  3  0  0  0  0  0  0
  161.0350  201.9420  147.5850 C   0  0  2  0  0  0  0  0  0  0  0  0
  160.8310  200.7930  145.7130 C   0  0  0  0  0  2  0  0  0  0  0  0
  161.1180  199.8250  146.6900 O   0  0  0  0  0  0  0  0  0  0  0  0
  161.5810  200.5640  147.7780 C   0  0  2  0  0  3  0  0  0  0  0  0
  160.4330  201.9900  146.3300 O   0  0  0  0  0  0  0  0  0  0  0  0
  1  8  2  0  0  0  0
  1 12  1  0  0  0  0
  2 13  1  0  0  0  0
  2  8  1  0  0  0  0
  3 17  1  0  0  0  0
  3 11  2  0  0  0  0
  4  9  1  1  0  0  0
  4 14  1  0  0  0  0
  5  6  1  0  0  0  0
  5 10  2  0  0  0  0
  6  2  2  0  0  0  0
  7 16  2  0  0  0  0
  8  3  1  0  0  0  0
 10  1  1  0  0  0  0
 11 15  1  0  0  0  0
 12 18  2  0  0  0  0
 13  7  1  0  0  0  0
 15 14  1  0  0  0  0
 15 21  1  0  0  0  0
 16  9  1  0  0  0  0
 17  7  1  6  0  0  0
 17  4  1  0  0  0  0
 18 11  1  0  0  0  0
 19 20  1  0  0  0  0
 20 22  2  0  0  0  0
 21 24  2  0  0  0  0
 23 21  1  0  0  0  0
 23 19  2  0  0  0  0
 24 22  1  0  0  0  0
 25 19  1  0  0  0  0
 26 16  1  0  0  0  0
 27 26  1  0  0  0  0
 29 27  1  1  0  0  0
 30 33  1  0  0  0  0
 30 28  1  1  0  0  0
 30 29  1  0  0  0  0
 31 34  1  0  0  0  0
 31 32  1  0  0  0  0
 33 32  1  6  0  0  0
 33 29  1  0  0  0  0
 34 30  1  0  0  0  0
M  END
>  <MODEL>
4

>  <REMARK>
 VINA RESULT:      -8.7      3.845      8.495
  Name = 
  4 active torsions:
  status: ('A' for Active; 'I' for Inactive)
    1  A    between atoms: C_3  and  C_13
    2  A    between atoms: C_3  and  N_17
    3  A    between atoms: C_12  and  N_28
    4  A    between atoms: N_17  and  C_29
                            x       y       z     vdW  Elec       q    Type
                         _______ _______ _______ _____ _____    ______ ____

>  <TORSDO>
F 4

$$$$
=
 OpenBabel11062408043D

 34 41  0  0  1  0  0  0  0  0999 V2000
  160.8890  206.8540  154.3070 C   0  0  0  0  0  0  0  0  0  0  0  0
  160.6120  209.2810  154.6070 C   0  0  0  0  0  0  0  0  0  0  0  0
  161.5870  208.3550  152.5670 C   0  0  0  0  0  0  0  0  0  0  0  0
  161.4580  209.6900  150.6220 C   0  0  1  0  0  3  0  0  0  0  0  0
  159.9740  207.7310  156.3710 C   0  0  0  0  0  3  0  0  0  0  0  0
  160.0860  209.0410  155.8820 C   0  0  0  0  0  3  0  0  0  0  0  0
  161.0850  210.7600  152.6290 C   0  0  0  0  0  0  0  0  0  0  0  0
  161.0450  208.1720  153.8350 C   0  0  0  0  0  0  0  0  0  0  0  0
  161.3410  211.1780  150.3280 C   0  0  0  0  0  2  0  0  0  0  0  0
  160.3650  206.6400  155.5840 C   0  0  0  0  0  3  0  0  0  0  0  0
  161.8470  207.2760  151.7180 C   0  0  0  0  0  0  0  0  0  0  0  0
  161.2290  205.7800  153.4660 C   0  0  0  0  0  3  0  0  0  0  0  0
  160.6520  210.7110  154.0750 C   0  0  0  0  0  2  0  0  0  0  0  0
  162.3840  208.8880  149.9290 O   0  0  0  0  0  0  0  0  0  0  0  0
  162.0980  207.5850  150.3020 N   0  0  0  0  0  0  0  0  0  0  0  0
  160.8330  211.6560  151.6700 C   0  0  0  0  0  0  0  0  0  0  0  0
  161.8880  209.6900  152.0510 C   0  0  1  0  0  3  0  0  0  0  0  0
  161.6740  206.0090  152.1930 N   0  0  0  0  0  0  0  0  0  0  0  0
  161.0930  204.4580  148.4590 C   0  0  0  0  0  0  0  0  0  0  0  0
  161.4060  204.8150  147.1460 C   0  0  0  0  0  3  0  0  0  0  0  0
  161.8720  206.6270  149.2470 C   0  0  0  0  0  0  0  0  0  0  0  0
  161.9490  206.0730  146.8760 C   0  0  0  0  0  3  0  0  0  0  0  0
  161.3210  205.3600  149.5010 C   0  0  0  0  0  3  0  0  0  0  0  0
  162.1770  206.9730  147.9210 C   0  0  0  0  0  3  0  0  0  0  0  0
  160.5640  203.2390  148.7230 F   0  0  0  0  0  0  0  0  0  0  0  0
  160.0840  212.8680  151.8270 N   0  0  0  0  0  2  0  0  0  0  0  0
  158.6460  212.9620  151.6440 C   0  0  0  0  0  2  0  0  0  0  0  0
  158.9080  214.4470  154.0050 F   0  0  0  0  0  0  0  0  0  0  0  0
  157.9400  212.3920  152.8610 C   0  0  1  0  0  3  0  0  0  0  0  0
  158.1750  213.2730  154.0760 C   0  0  2  0  0  0  0  0  0  0  0  0
  156.5220  212.7460  155.4370 C   0  0  0  0  0  2  0  0  0  0  0  0
  155.9450  212.7150  154.1560 O   0  0  0  0  0  0  0  0  0  0  0  0
  156.8730  213.3710  153.3470 C   0  0  2  0  0  3  0  0  0  0  0  0
  157.9210  212.7260  155.3320 O   0  0  0  0  0  0  0  0  0  0  0  0
  1 10  2  0  0  0  0
  2  6  1  0  0  0  0
  3  8  1  0  0  0  0
  4  9  1  6  0  0  0
  4 17  1  0  0  0  0
  6  5  2  0  0  0  0
  7 13  1  0  0  0  0
  8  1  1  0  0  0  0
  8  2  2  0  0  0  0
  9 16  1  0  0  0  0
 10  5  1  0  0  0  0
 11 18  1  0  0  0  0
 11  3  2  0  0  0  0
 12  1  1  0  0  0  0
 13  2  1  0  0  0  0
 14 15  1  0  0  0  0
 14  4  1  0  0  0  0
 15 11  1  0  0  0  0
 16 26  1  0  0  0  0
 16  7  2  0  0  0  0
 17  3  1  1  0  0  0
 17  7  1  0  0  0  0
 18 12  2  0  0  0  0
 19 25  1  0  0  0  0
 19 23  1  0  0  0  0
 20 19  2  0  0  0  0
 21 23  2  0  0  0  0
 21 15  1  0  0  0  0
 22 20  1  0  0  0  0
 22 24  2  0  0  0  0
 24 21  1  0  0  0  0
 27 26  1  0  0  0  0
 29 27  1  6  0  0  0
 29 33  1  0  0  0  0
 29 30  1  0  0  0  0
 30 28  1  6  0  0  0
 30 34  1  0  0  0  0
 32 31  1  0  0  0  0
 33 30  1  0  0  0  0
 33 32  1  1  0  0  0
 34 31  1  0  0  0  0
M  END
>  <MODEL>
5

>  <REMARK>
 VINA RESULT:      -8.7      3.236      4.384
  Name = 
  4 active torsions:
  status: ('A' for Active; 'I' for Inactive)
    1  A    between atoms: C_3  and  C_13
    2  A    between atoms: C_3  and  N_17
    3  A    between atoms: C_12  and  N_28
    4  A    between atoms: N_17  and  C_29
                            x       y       z     vdW  Elec       q    Type
                         _______ _______ _______ _____ _____    ______ ____

>  <TORSDO>
F 4

$$$$
=
 OpenBabel11062408043D

 34 41  0  0  1  0  0  0  0  0999 V2000
  161.5940  208.3000  148.7390 C   0  0  0  0  0  0  0  0  0  0  0  0
  161.7010  209.1720  151.0380 C   0  0  0  0  0  0  0  0  0  0  0  0
  160.8430  206.9340  150.5660 C   0  0  0  0  0  0  0  0  0  0  0  0
  160.9340  205.3630  152.3280 C   0  0  1  0  0  3  0  0  0  0  0  0
  162.3940  210.5490  149.1550 C   0  0  0  0  0  3  0  0  0  0  0  0
  162.2070  210.3760  150.5340 C   0  0  0  0  0  3  0  0  0  0  0  0
  161.1820  207.5770  152.9130 C   0  0  0  0  0  0  0  0  0  0  0  0
  161.3630  208.1440  150.1200 C   0  0  0  0  0  0  0  0  0  0  0  0
  160.9600  205.4310  153.8470 C   0  0  0  0  0  2  0  0  0  0  0  0
  162.0970  209.5130  148.2610 C   0  0  0  0  0  3  0  0  0  0  0  0
  160.6780  205.8450  149.7050 C   0  0  0  0  0  0  0  0  0  0  0  0
  161.3490  207.2180  147.8770 C   0  0  0  0  0  3  0  0  0  0  0  0
  161.5790  208.9880  152.5490 C   0  0  0  0  0  2  0  0  0  0  0  0
  160.0820  204.4640  151.6600 O   0  0  0  0  0  0  0  0  0  0  0  0
  160.4440  204.5320  150.3240 N   0  0  0  0  0  0  0  0  0  0  0  0
  161.3990  206.8670  154.0240 C   0  0  0  0  0  0  0  0  0  0  0  0
  160.4680  206.7320  151.9650 C   0  0  1  0  0  3  0  0  0  0  0  0
  160.9230  206.0160  148.3740 N   0  0  0  0  0  0  0  0  0  0  0  0
  161.2060  202.0000  147.6410 C   0  0  0  0  0  0  0  0  0  0  0  0
  161.4300  200.8590  148.4140 C   0  0  0  0  0  3  0  0  0  0  0  0
  160.7620  203.2920  149.6590 C   0  0  0  0  0  0  0  0  0  0  0  0
  161.3240  200.9260  149.8050 C   0  0  0  0  0  3  0  0  0  0  0  0
  160.8790  203.2090  148.2610 C   0  0  0  0  0  3  0  0  0  0  0  0
  160.9940  202.1370  150.4220 C   0  0  0  0  0  3  0  0  0  0  0  0
  161.3120  201.9390  146.2920 F   0  0  0  0  0  0  0  0  0  0  0  0
  162.0610  207.3340  155.2060 N   0  0  0  0  0  2  0  0  0  0  0  0
  161.3880  208.0210  156.2950 C   0  0  0  0  0  2  0  0  0  0  0  0
  159.1230  209.4000  155.3910 F   0  0  0  0  0  0  0  0  0  0  0  0
  161.5530  209.5200  156.1310 C   0  0  1  0  0  3  0  0  0  0  0  0
  160.2680  210.1470  155.6180 C   0  0  2  0  0  0  0  0  0  0  0  0
  160.4550  212.2710  156.1820 C   0  0  0  0  0  2  0  0  0  0  0  0
  161.0200  211.5700  157.2610 O   0  0  0  0  0  0  0  0  0  0  0  0
  160.5990  210.2540  157.0720 C   0  0  2  0  0  3  0  0  0  0  0  0
  160.3450  211.4240  155.0680 O   0  0  0  0  0  0  0  0  0  0  0  0
  1  8  1  0  0  0  0
  2 13  1  0  0  0  0
  4  9  1  1  0  0  0
  5  6  2  0  0  0  0
  6  2  1  0  0  0  0
  7 16  2  0  0  0  0
  8  3  1  0  0  0  0
  8  2  2  0  0  0  0
  9 16  1  0  0  0  0
 10  1  2  0  0  0  0
 10  5  1  0  0  0  0
 11 15  1  0  0  0  0
 11  3  2  0  0  0  0
 12 18  2  0  0  0  0
 12  1  1  0  0  0  0
 13  7  1  0  0  0  0
 14  4  1  0  0  0  0
 15 14  1  0  0  0  0
 16 26  1  0  0  0  0
 17  3  1  6  0  0  0
 17  4  1  0  0  0  0
 17  7  1  0  0  0  0
 18 11  1  0  0  0  0
 19 23  2  0  0  0  0
 19 20  1  0  0  0  0
 20 22  2  0  0  0  0
 21 15  1  0  0  0  0
 21 24  2  0  0  0  0
 22 24  1  0  0  0  0
 23 21  1  0  0  0  0
 25 19  1  0  0  0  0
 26 27  1  0  0  0  0
 29 27  1  1  0  0  0
 29 33  1  0  0  0  0
 30 28  1  6  0  0  0
 30 29  1  0  0  0  0
 30 33  1  0  0  0  0
 31 32  1  0  0  0  0
 33 32  1  6  0  0  0
 34 30  1  0  0  0  0
 34 31  1  0  0  0  0
M  END
>  <MODEL>
6

>  <REMARK>
 VINA RESULT:      -8.5      3.462      5.928
  Name = 
  4 active torsions:
  status: ('A' for Active; 'I' for Inactive)
    1  A    between atoms: C_3  and  C_13
    2  A    between atoms: C_3  and  N_17
    3  A    between atoms: C_12  and  N_28
    4  A    between atoms: N_17  and  C_29
                            x       y       z     vdW  Elec       q    Type
                         _______ _______ _______ _____ _____    ______ ____

>  <TORSDO>
F 4

$$$$
=
 OpenBabel11062408043D

 34 41  0  0  1  0  0  0  0  0999 V2000
  160.5500  212.6910  150.3940 C   0  0  0  0  0  0  0  0  0  0  0  0
  161.8320  210.6360  149.9600 C   0  0  0  0  0  0  0  0  0  0  0  0
  160.8520  211.0840  152.1520 C   0  0  0  0  0  0  0  0  0  0  0  0
  160.4190  209.2130  153.5300 C   0  0  1  0  0  3  0  0  0  0  0  0
  161.5570  212.3170  148.2230 C   0  0  0  0  0  3  0  0  0  0  0  0
  162.0610  211.0810  148.6530 C   0  0  0  0  0  3  0  0  0  0  0  0
  161.8460  208.8730  151.7530 C   0  0  0  0  0  0  0  0  0  0  0  0
  161.0970  211.4730  150.8400 C   0  0  0  0  0  0  0  0  0  0  0  0
  160.9780  207.8050  153.6600 C   0  0  0  0  0  2  0  0  0  0  0  0
  160.7960  213.1160  149.0860 C   0  0  0  0  0  3  0  0  0  0  0  0
  159.9790  211.7990  152.9780 C   0  0  0  0  0  0  0  0  0  0  0  0
  159.7360  213.4360  151.2650 C   0  0  0  0  0  3  0  0  0  0  0  0
  162.3310  209.2540  150.3750 C   0  0  0  0  0  2  0  0  0  0  0  0
  160.2100  210.0150  154.6670 O   0  0  0  0  0  0  0  0  0  0  0  0
  159.5330  211.1350  154.2120 N   0  0  0  0  0  0  0  0  0  0  0  0
  161.6390  207.6740  152.3070 C   0  0  0  0  0  0  0  0  0  0  0  0
  161.4770  209.8920  152.7260 C   0  0  1  0  0  3  0  0  0  0  0  0
  159.4500  212.9680  152.5180 N   0  0  0  0  0  0  0  0  0  0  0  0
  155.9560  211.0520  155.3900 C   0  0  0  0  0  0  0  0  0  0  0  0
  155.9300  212.1680  156.2280 C   0  0  0  0  0  3  0  0  0  0  0  0
  158.2980  211.4790  154.8750 C   0  0  0  0  0  0  0  0  0  0  0  0
  157.0810  212.9420  156.3960 C   0  0  0  0  0  3  0  0  0  0  0  0
  157.1330  210.7080  154.7220 C   0  0  0  0  0  3  0  0  0  0  0  0
  158.2570  212.5960  155.7250 C   0  0  0  0  0  3  0  0  0  0  0  0
  154.8420  210.2990  155.2280 F   0  0  0  0  0  0  0  0  0  0  0  0
  161.8890  206.4060  151.6870 N   0  0  0  0  0  2  0  0  0  0  0  0
  160.9930  205.7800  150.7290 C   0  0  0  0  0  2  0  0  0  0  0  0
  160.4560  203.6340  149.0110 F   0  0  0  0  0  0  0  0  0  0  0  0
  161.5800  205.8920  149.3350 C   0  0  1  0  0  3  0  0  0  0  0  0
  161.2380  204.6630  148.5110 C   0  0  2  0  0  0  0  0  0  0  0  0
  161.4740  205.3420  146.4260 C   0  0  0  0  0  2  0  0  0  0  0  0
  160.9200  206.4460  147.0940 O   0  0  0  0  0  0  0  0  0  0  0  0
  160.4570  205.9200  148.3000 C   0  0  2  0  0  3  0  0  0  0  0  0
  161.9850  204.4260  147.3590 O   0  0  0  0  0  0  0  0  0  0  0  0
  1  8  2  0  0  0  0
  1 12  1  0  0  0  0
  2 13  1  0  0  0  0
  2  8  1  0  0  0  0
  3 17  1  0  0  0  0
  3 11  2  0  0  0  0
  4  9  1  1  0  0  0
  4 14  1  0  0  0  0
  5  6  1  0  0  0  0
  5 10  2  0  0  0  0
  6  2  2  0  0  0  0
  7 16  2  0  0  0  0
  8  3  1  0  0  0  0
 10  1  1  0  0  0  0
 11 15  1  0  0  0  0
 12 18  2  0  0  0  0
 13  7  1  0  0  0  0
 15 14  1  0  0  0  0
 15 21  1  0  0  0  0
 16  9  1  0  0  0  0
 17  7  1  6  0  0  0
 17  4  1  0  0  0  0
 18 11  1  0  0  0  0
 19 20  1  0  0  0  0
 20 22  2  0  0  0  0
 21 24  2  0  0  0  0
 23 21  1  0  0  0  0
 23 19  2  0  0  0  0
 24 22  1  0  0  0  0
 25 19  1  0  0  0  0
 26 16  1  0  0  0  0
 27 26  1  0  0  0  0
 29 27  1  1  0  0  0
 30 28  1  1  0  0  0
 30 29  1  0  0  0  0
 31 32  1  0  0  0  0
 31 34  1  0  0  0  0
 33 32  1  6  0  0  0
 33 30  1  0  0  0  0
 33 29  1  0  0  0  0
 34 30  1  0  0  0  0
M  END
>  <MODEL>
7

>  <REMARK>
 VINA RESULT:      -8.5      3.462      8.221
  Name = 
  4 active torsions:
  status: ('A' for Active; 'I' for Inactive)
    1  A    between atoms: C_3  and  C_13
    2  A    between atoms: C_3  and  N_17
    3  A    between atoms: C_12  and  N_28
    4  A    between atoms: N_17  and  C_29
                            x       y       z     vdW  Elec       q    Type
                         _______ _______ _______ _____ _____    ______ ____

>  <TORSDO>
F 4

$$$$
=
 OpenBabel11062408043D

 34 41  0  0  1  0  0  0  0  0999 V2000
  161.2880  205.1680  152.1120 C   0  0  0  0  0  0  0  0  0  0  0  0
  161.3690  207.5360  152.7780 C   0  0  0  0  0  0  0  0  0  0  0  0
  161.9380  206.8330  150.5090 C   0  0  0  0  0  0  0  0  0  0  0  0
  161.7260  208.4570  148.8050 C   0  0  1  0  0  3  0  0  0  0  0  0
  160.7750  205.8130  154.3910 C   0  0  0  0  0  3  0  0  0  0  0  0
  160.9900  207.1620  154.0730 C   0  0  0  0  0  3  0  0  0  0  0  0
  161.7640  209.2400  150.9710 C   0  0  0  0  0  0  0  0  0  0  0  0
  161.5490  206.5170  151.8060 C   0  0  0  0  0  0  0  0  0  0  0  0
  161.7650  209.9750  148.7370 C   0  0  0  0  0  2  0  0  0  0  0  0
  160.9140  204.8200  153.4130 C   0  0  0  0  0  3  0  0  0  0  0  0
  161.9410  205.8750  149.4910 C   0  0  0  0  0  0  0  0  0  0  0  0
  161.3700  204.2050  151.0920 C   0  0  0  0  0  3  0  0  0  0  0  0
  161.5240  209.0170  152.4460 C   0  0  0  0  0  2  0  0  0  0  0  0
  162.4410  207.6740  147.8780 O   0  0  0  0  0  0  0  0  0  0  0  0
  162.0410  206.3680  148.1090 N   0  0  0  0  0  0  0  0  0  0  0  0
  161.5060  210.2950  150.1920 C   0  0  0  0  0  0  0  0  0  0  0  0
  162.3380  208.1900  150.1390 C   0  0  1  0  0  3  0  0  0  0  0  0
  161.6690  204.5770  149.8090 N   0  0  0  0  0  0  0  0  0  0  0  0
  161.0410  203.5020  145.8780 C   0  0  0  0  0  0  0  0  0  0  0  0
  160.5510  204.1920  144.7680 C   0  0  0  0  0  3  0  0  0  0  0  0
  161.5540  205.6140  146.9790 C   0  0  0  0  0  0  0  0  0  0  0  0
  160.5570  205.5890  144.7570 C   0  0  0  0  0  3  0  0  0  0  0  0
  161.5350  204.2080  146.9780 C   0  0  0  0  0  3  0  0  0  0  0  0
  161.0530  206.2930  145.8580 C   0  0  0  0  0  3  0  0  0  0  0  0
  161.0330  202.1470  145.8930 F   0  0  0  0  0  0  0  0  0  0  0  0
  160.9480  211.5420  150.6230 N   0  0  0  0  0  2  0  0  0  0  0  0
  160.5160  211.8110  151.9840 C   0  0  0  0  0  2  0  0  0  0  0  0
  159.4430  212.4660  154.4880 F   0  0  0  0  0  0  0  0  0  0  0  0
  159.0990  212.3560  151.9700 C   0  0  1  0  0  3  0  0  0  0  0  0
  158.6270  212.6520  153.3830 C   0  0  2  0  0  0  0  0  0  0  0  0
  156.9770  214.0880  153.0980 C   0  0  0  0  0  2  0  0  0  0  0  0
  157.9250  214.4440  152.1240 O   0  0  0  0  0  0  0  0  0  0  0  0
  159.0870  213.7820  152.5190 C   0  0  2  0  0  3  0  0  0  0  0  0
  157.2580  212.8030  153.5900 O   0  0  0  0  0  0  0  0  0  0  0  0
  1 10  2  0  0  0  0
  2  6  1  0  0  0  0
  3  8  1  0  0  0  0
  4  9  1  6  0  0  0
  4 17  1  0  0  0  0
  6  5  2  0  0  0  0
  7 13  1  0  0  0  0
  8  1  1  0  0  0  0
  8  2  2  0  0  0  0
  9 16  1  0  0  0  0
 10  5  1  0  0  0  0
 11 18  1  0  0  0  0
 11  3  2  0  0  0  0
 12  1  1  0  0  0  0
 13  2  1  0  0  0  0
 14 15  1  0  0  0  0
 14  4  1  0  0  0  0
 15 11  1  0  0  0  0
 16 26  1  0  0  0  0
 16  7  2  0  0  0  0
 17  3  1  1  0  0  0
 17  7  1  0  0  0  0
 18 12  2  0  0  0  0
 19 25  1  0  0  0  0
 19 23  1  0  0  0  0
 20 19  2  0  0  0  0
 21 15  1  0  0  0  0
 22 20  1  0  0  0  0
 22 24  2  0  0  0  0
 23 21  2  0  0  0  0
 24 21  1  0  0  0  0
 26 27  1  0  0  0  0
 29 27  1  1  0  0  0
 29 33  1  0  0  0  0
 29 30  1  0  0  0  0
 30 34  1  0  0  0  0
 30 28  1  1  0  0  0
 31 34  1  0  0  0  0
 32 31  1  0  0  0  0
 33 32  1  6  0  0  0
 33 30  1  0  0  0  0
M  END
>  <MODEL>
8

>  <REMARK>
 VINA RESULT:      -8.1      2.847      3.772
  Name = 
  4 active torsions:
  status: ('A' for Active; 'I' for Inactive)
    1  A    between atoms: C_3  and  C_13
    2  A    between atoms: C_3  and  N_17
    3  A    between atoms: C_12  and  N_28
    4  A    between atoms: N_17  and  C_29
                            x       y       z     vdW  Elec       q    Type
                         _______ _______ _______ _____ _____    ______ ____

>  <TORSDO>
F 4

$$$$
=
 OpenBabel11062408043D

 34 41  0  0  1  0  0  0  0  0999 V2000
  161.8060  209.8800  150.3130 C   0  0  0  0  0  0  0  0  0  0  0  0
  162.1400  207.4620  150.0020 C   0  0  0  0  0  0  0  0  0  0  0  0
  161.7420  208.4160  152.2150 C   0  0  0  0  0  0  0  0  0  0  0  0
  160.8510  206.9680  153.8560 C   0  0  1  0  0  3  0  0  0  0  0  0
  162.2590  208.9850  148.1080 C   0  0  0  0  0  3  0  0  0  0  0  0
  162.3210  207.6850  148.6320 C   0  0  0  0  0  3  0  0  0  0  0  0
  161.7610  205.9690  151.9900 C   0  0  0  0  0  0  0  0  0  0  0  0
  161.9150  208.5810  150.8450 C   0  0  0  0  0  0  0  0  0  0  0  0
  160.8520  205.4670  154.1010 C   0  0  0  0  0  2  0  0  0  0  0  0
  161.9940  210.0780  148.9430 C   0  0  0  0  0  3  0  0  0  0  0  0
  161.3370  209.4730  153.0350 C   0  0  0  0  0  0  0  0  0  0  0  0
  161.4720  210.9450  151.1670 C   0  0  0  0  0  3  0  0  0  0  0  0
  162.1410  206.0290  150.5300 C   0  0  0  0  0  2  0  0  0  0  0  0
  161.1320  207.8700  154.9000 O   0  0  0  0  0  0  0  0  0  0  0  0
  160.8650  209.1280  154.3850 N   0  0  0  0  0  0  0  0  0  0  0  0
  161.2040  204.9900  152.7100 C   0  0  0  0  0  0  0  0  0  0  0  0
  161.9520  207.1210  152.8620 C   0  0  1  0  0  3  0  0  0  0  0  0
  161.2230  210.7190  152.4940 N   0  0  0  0  0  0  0  0  0  0  0  0
  157.9860  211.3870  155.2800 C   0  0  0  0  0  0  0  0  0  0  0  0
  158.2140  211.5750  156.6440 C   0  0  0  0  0  3  0  0  0  0  0  0
  159.9650  209.9730  155.1320 C   0  0  0  0  0  0  0  0  0  0  0  0
  159.3110  210.9660  157.2580 C   0  0  0  0  0  3  0  0  0  0  0  0
  158.8530  210.5880  154.5300 C   0  0  0  0  0  3  0  0  0  0  0  0
  160.1780  210.1680  156.5060 C   0  0  0  0  0  3  0  0  0  0  0  0
  156.9210  211.9730  154.6830 F   0  0  0  0  0  0  0  0  0  0  0  0
  160.8640  203.6830  152.2310 N   0  0  0  0  0  2  0  0  0  0  0  0
  160.1560  203.4340  150.9860 C   0  0  0  0  0  2  0  0  0  0  0  0
  158.9690  201.3320  149.5640 F   0  0  0  0  0  0  0  0  0  0  0  0
  161.0660  202.6970  150.0220 C   0  0  1  0  0  3  0  0  0  0  0  0
  160.3140  201.5720  149.3310 C   0  0  2  0  0  0  0  0  0  0  0  0
  161.5010  201.1800  147.5150 C   0  0  0  0  0  2  0  0  0  0  0  0
  161.5540  202.5750  147.6740 O   0  0  0  0  0  0  0  0  0  0  0  0
  160.5440  202.8520  148.5950 C   0  0  2  0  0  3  0  0  0  0  0  0
  161.0640  200.5790  148.7060 O   0  0  0  0  0  0  0  0  0  0  0  0
  1  8  2  0  0  0  0
  1 12  1  0  0  0  0
  2 13  1  0  0  0  0
  2  8  1  0  0  0  0
  3 17  1  0  0  0  0
  3 11  2  0  0  0  0
  4  9  1  1  0  0  0
  4 14  1  0  0  0  0
  5  6  1  0  0  0  0
  5 10  2  0  0  0  0
  6  2  2  0  0  0  0
  7 16  2  0  0  0  0
  8  3  1  0  0  0  0
 10  1  1  0  0  0  0
 11 15  1  0  0  0  0
 12 18  2  0  0  0  0
 13  7  1  0  0  0  0
 15 14  1  0  0  0  0
 15 21  1  0  0  0  0
 16  9  1  0  0  0  0
 17  7  1  6  0  0  0
 17  4  1  0  0  0  0
 18 11  1  0  0  0  0
 19 20  1  0  0  0  0
 20 22  2  0  0  0  0
 21 24  2  0  0  0  0
 23 21  1  0  0  0  0
 23 19  2  0  0  0  0
 24 22  1  0  0  0  0
 25 19  1  0  0  0  0
 26 16  1  0  0  0  0
 27 26  1  0  0  0  0
 29 27  1  1  0  0  0
 30 28  1  1  0  0  0
 30 29  1  0  0  0  0
 31 32  1  0  0  0  0
 31 34  1  0  0  0  0
 33 32  1  6  0  0  0
 33 30  1  0  0  0  0
 33 29  1  0  0  0  0
 34 30  1  0  0  0  0
M  END
>  <MODEL>
9

>  <REMARK>
 VINA RESULT:      -8.1      3.647      8.666
  Name = 
  4 active torsions:
  status: ('A' for Active; 'I' for Inactive)
    1  A    between atoms: C_3  and  C_13
    2  A    between atoms: C_3  and  N_17
    3  A    between atoms: C_12  and  N_28
    4  A    between atoms: N_17  and  C_29
                            x       y       z     vdW  Elec       q    Type
                         _______ _______ _______ _____ _____    ______ ____

>  <TORSDO>
F 4

$$$$
