=
 OpenBabel11052421433D

 30 35  0  0  1  0  0  0  0  0999 V2000
  160.7400  209.7030  152.2250 C   0  0  1  0  0  3  0  0  0  0  0  0
  161.0890  207.6100  153.5810 C   0  0  0  0  0  0  0  0  0  0  0  0
  160.1550  211.6280  155.6860 O   0  0  0  0  0  0  0  0  0  0  0  0
  159.8800  210.9720  152.3910 C   0  0  1  0  0  3  0  0  0  0  0  0
  162.0470  209.9940  151.4630 C   0  0  0  0  0  2  0  0  0  0  0  0
  161.3000  212.8600  149.3140 C   0  0  0  0  0  2  0  0  0  0  0  0
  157.4470  212.9570  151.0240 C   0  0  0  0  0  2  0  0  0  0  0  0
  161.0830  212.0920  150.5780 C   0  0  2  0  0  3  0  0  0  0  0  0
  162.6660  211.0490  149.2800 O   0  0  0  0  0  0  0  0  0  0  0  0
  158.8040  213.2770  153.1340 C   0  0  1  0  0  3  0  0  0  0  0  0
  158.8330  211.8500  155.2670 C   0  0  0  0  0  0  0  0  0  0  0  0
  161.6500  210.7400  150.2080 C   0  0  1  0  0  3  0  0  0  0  0  0
  159.6800  211.8790  151.1570 C   0  0  2  0  0  3  0  0  0  0  0  0
  161.3840  206.9770  154.7450 N   0  0  0  0  0  0  0  0  0  0  0  0
  157.8860  214.4190  153.5860 C   0  0  0  0  0  2  0  0  0  0  0  0
  156.4010  213.8360  151.6630 C   0  0  0  0  0  3  0  0  0  0  0  0
  162.8760  212.7260  147.4770 N   0  0  0  0  0  1  0  0  0  0  0  0
  160.8360  206.7840  152.3630 C   0  0  0  0  0  1  0  0  0  0  0  0
  161.2290  211.2210  154.8420 C   0  0  0  0  0  2  0  0  0  0  0  0
  161.6220  207.6510  155.8690 N   0  0  0  0  0  0  0  0  0  0  0  0
  162.2900  212.2430  148.6810 C   0  0  1  0  0  3  0  0  0  0  0  0
  161.0270  209.0160  153.5450 C   0  0  0  0  0  0  0  0  0  0  0  0
  158.6850  210.7600  153.0900 O   0  0  0  0  0  0  0  0  0  0  0  0
  157.9530  212.0320  156.1460 O   0  0  0  0  0  0  0  0  0  0  0  0
  158.4090  211.9400  153.8230 C   0  0  2  0  0  3  0  0  0  0  0  0
  156.5810  214.4530  152.8370 C   0  0  0  0  0  3  0  0  0  0  0  0
  159.4350  214.4400  151.0000 C   0  0  0  0  0  1  0  0  0  0  0  0
  161.5800  209.0060  155.9030 C   0  0  0  0  0  3  0  0  0  0  0  0
  161.2810  209.7230  154.7450 C   0  0  0  0  0  0  0  0  0  0  0  0
  158.8650  213.1470  151.5820 C   0  0  1  0  0  0  0  0  0  0  0  0
  1  5  1  1  0  0  0
  1  4  1  0  0  0  0
  1 22  1  0  0  0  0
  2 14  1  0  0  0  0
  4 23  1  6  0  0  0
  7 30  1  0  0  0  0
  7 16  1  0  0  0  0
  8  6  1  6  0  0  0
  8 13  1  0  0  0  0
  9 12  1  0  0  0  0
 10 15  1  6  0  0  0
 10 25  1  0  0  0  0
 11  3  1  0  0  0  0
 11 24  2  0  0  0  0
 12  8  1  0  0  0  0
 12  5  1  1  0  0  0
 13 30  1  0  0  0  0
 13  4  1  0  0  0  0
 14 20  2  0  0  0  0
 16 26  2  0  0  0  0
 17 21  1  0  0  0  0
 18  2  1  0  0  0  0
 19  3  1  0  0  0  0
 20 28  1  0  0  0  0
 21  9  1  0  0  0  0
 21  6  1  0  0  0  0
 22  2  2  0  0  0  0
 22 29  1  0  0  0  0
 23 25  1  0  0  0  0
 25 11  1  0  0  0  0
 26 15  1  0  0  0  0
 27 30  1  0  0  0  0
 29 19  1  0  0  0  0
 29 28  2  0  0  0  0
 30 10  1  0  0  0  0
M  END
>  <MODEL>
1

>  <REMARK>
 VINA RESULT:      -4.8      0.000      0.000
  Name = 
  0 active torsions:
  status: ('A' for Active; 'I' for Inactive)
                            x       y       z     vdW  Elec       q    Type
                         _______ _______ _______ _____ _____    ______ ____

>  <TORSDO>
F 0

$$$$
=
 OpenBabel11052421433D

 30 35  0  0  1  0  0  0  0  0999 V2000
  161.5790  210.2590  150.9740 C   0  0  1  0  0  3  0  0  0  0  0  0
  161.8170  212.2760  149.4850 C   0  0  0  0  0  0  0  0  0  0  0  0
  158.8400  212.3290  153.0320 O   0  0  0  0  0  0  0  0  0  0  0  0
  161.2530  210.0440  152.4660 C   0  0  1  0  0  3  0  0  0  0  0  0
  161.0790  209.0890  150.1050 C   0  0  0  0  0  2  0  0  0  0  0  0
  161.0770  206.1710  152.3150 C   0  0  0  0  0  2  0  0  0  0  0  0
  162.3020  208.7190  155.4440 C   0  0  0  0  0  2  0  0  0  0  0  0
  160.9300  207.6450  152.1070 C   0  0  2  0  0  3  0  0  0  0  0  0
  161.3460  206.6000  150.1030 O   0  0  0  0  0  0  0  0  0  0  0  0
  160.1240  209.8640  154.8570 C   0  0  1  0  0  3  0  0  0  0  0  0
  159.7220  212.2900  154.1250 C   0  0  0  0  0  0  0  0  0  0  0  0
  161.5920  207.8250  150.7600 C   0  0  1  0  0  3  0  0  0  0  0  0
  161.5450  208.6570  153.0800 C   0  0  2  0  0  3  0  0  0  0  0  0
  161.3500  213.4420  148.9720 N   0  0  0  0  0  0  0  0  0  0  0  0
  159.7430  209.9620  156.3390 C   0  0  0  0  0  2  0  0  0  0  0  0
  162.0410  209.1380  156.8690 C   0  0  0  0  0  3  0  0  0  0  0  0
  161.2770  204.2480  150.8550 N   0  0  0  0  0  1  0  0  0  0  0  0
  163.1350  211.7620  149.0070 C   0  0  0  0  0  1  0  0  0  0  0  0
  158.9270  211.5040  151.8730 C   0  0  0  0  0  2  0  0  0  0  0  0
  160.1810  213.9580  149.3510 N   0  0  0  0  0  0  0  0  0  0  0  0
  161.2150  205.6470  151.1030 C   0  0  1  0  0  3  0  0  0  0  0  0
  161.0590  211.5810  150.4470 C   0  0  0  0  0  0  0  0  0  0  0  0
  161.6770  211.0900  153.2950 O   0  0  0  0  0  0  0  0  0  0  0  0
  159.6310  213.1930  154.9950 O   0  0  0  0  0  0  0  0  0  0  0  0
  160.7380  211.1990  154.3500 C   0  0  2  0  0  3  0  0  0  0  0  0
  160.9120  209.7400  157.2610 C   0  0  0  0  0  3  0  0  0  0  0  0
  160.2940  207.3590  154.9210 C   0  0  0  0  0  1  0  0  0  0  0  0
  159.4020  213.3390  150.2730 C   0  0  0  0  0  3  0  0  0  0  0  0
  159.8190  212.1380  150.8450 C   0  0  0  0  0  0  0  0  0  0  0  0
  161.0460  208.6410  154.5640 C   0  0  1  0  0  0  0  0  0  0  0  0
  1  5  1  6  0  0  0
  1  4  1  0  0  0  0
  2 22  1  0  0  0  0
  3 11  1  0  0  0  0
  4 13  1  0  0  0  0
  4 23  1  1  0  0  0
  7 16  1  0  0  0  0
  8  6  1  1  0  0  0
  8 13  1  0  0  0  0
  9 12  1  0  0  0  0
  9 21  1  0  0  0  0
 10 15  1  1  0  0  0
 11 25  1  0  0  0  0
 11 24  2  0  0  0  0
 12  5  1  6  0  0  0
 12  8  1  0  0  0  0
 13 30  1  0  0  0  0
 14 20  1  0  0  0  0
 14  2  2  0  0  0  0
 15 26  1  0  0  0  0
 16 26  2  0  0  0  0
 17 21  1  0  0  0  0
 18  2  1  0  0  0  0
 19  3  1  0  0  0  0
 20 28  2  0  0  0  0
 21  6  1  0  0  0  0
 22 29  2  0  0  0  0
 22  1  1  0  0  0  0
 23 25  1  0  0  0  0
 25 10  1  0  0  0  0
 28 29  1  0  0  0  0
 29 19  1  0  0  0  0
 30 10  1  0  0  0  0
 30 27  1  0  0  0  0
 30  7  1  0  0  0  0
M  END
>  <MODEL>
2

>  <REMARK>
 VINA RESULT:      -2.8      2.259      5.776
  Name = 
  0 active torsions:
  status: ('A' for Active; 'I' for Inactive)
                            x       y       z     vdW  Elec       q    Type
                         _______ _______ _______ _____ _____    ______ ____

>  <TORSDO>
F 0

$$$$
=
 OpenBabel11052421433D

 30 35  0  0  1  0  0  0  0  0999 V2000
  161.7650  211.2020  149.8540 C   0  0  1  0  0  3  0  0  0  0  0  0
  162.1770  212.9840  148.1240 C   0  0  0  0  0  0  0  0  0  0  0  0
  158.4560  213.2130  150.8720 O   0  0  0  0  0  0  0  0  0  0  0  0
  161.1160  211.1770  151.2530 C   0  0  1  0  0  3  0  0  0  0  0  0
  161.5810  209.8620  149.1160 C   0  0  0  0  0  2  0  0  0  0  0  0
  161.3030  207.3340  151.7470 C   0  0  0  0  0  2  0  0  0  0  0  0
  161.5420  210.4550  154.5730 C   0  0  0  0  0  2  0  0  0  0  0  0
  161.0870  208.7300  151.2580 C   0  0  2  0  0  3  0  0  0  0  0  0
  162.0470  207.4530  149.6070 O   0  0  0  0  0  0  0  0  0  0  0  0
  159.4760  211.2260  153.3340 C   0  0  1  0  0  3  0  0  0  0  0  0
  159.0570  213.4460  152.1200 C   0  0  0  0  0  0  0  0  0  0  0  0
  162.0290  208.7830  150.0770 C   0  0  1  0  0  3  0  0  0  0  0  0
  161.3690  209.9450  152.1490 C   0  0  2  0  0  3  0  0  0  0  0  0
  161.7480  213.9940  147.3250 N   0  0  0  0  0  0  0  0  0  0  0  0
  158.7500  211.5010  154.6570 C   0  0  0  0  0  2  0  0  0  0  0  0
  160.9200  211.0500  155.8110 C   0  0  0  0  0  3  0  0  0  0  0  0
  161.9990  205.2500  150.7250 N   0  0  0  0  0  1  0  0  0  0  0  0
  163.6080  212.5670  148.0420 C   0  0  0  0  0  1  0  0  0  0  0  0
  158.8810  212.2390  149.9220 C   0  0  0  0  0  2  0  0  0  0  0  0
  160.4840  214.4170  147.3440 N   0  0  0  0  0  0  0  0  0  0  0  0
  161.7650  206.6530  150.7060 C   0  0  1  0  0  3  0  0  0  0  0  0
  161.2750  212.3570  149.0030 C   0  0  0  0  0  0  0  0  0  0  0  0
  161.2440  212.3800  151.9590 O   0  0  0  0  0  0  0  0  0  0  0  0
  158.6900  214.4530  152.7780 O   0  0  0  0  0  0  0  0  0  0  0  0
  160.0780  212.5330  152.7480 C   0  0  2  0  0  3  0  0  0  0  0  0
  159.6840  211.5630  155.8360 C   0  0  0  0  0  3  0  0  0  0  0  0
  159.8330  208.7990  153.8710 C   0  0  0  0  0  1  0  0  0  0  0  0
  159.5640  213.8550  148.1680 C   0  0  0  0  0  3  0  0  0  0  0  0
  159.9340  212.8130  149.0180 C   0  0  0  0  0  0  0  0  0  0  0  0
  160.5390  210.0930  153.4680 C   0  0  1  0  0  0  0  0  0  0  0  0
  1  5  1  6  0  0  0
  1  4  1  0  0  0  0
  2 22  1  0  0  0  0
  3 11  1  0  0  0  0
  4 23  1  1  0  0  0
  4 13  1  0  0  0  0
  7 16  1  0  0  0  0
  8  6  1  1  0  0  0
  8 13  1  0  0  0  0
  9 12  1  0  0  0  0
  9 21  1  0  0  0  0
 10 30  1  0  0  0  0
 10 15  1  1  0  0  0
 11 25  1  0  0  0  0
 11 24  2  0  0  0  0
 12  5  1  6  0  0  0
 12  8  1  0  0  0  0
 13 30  1  0  0  0  0
 14 20  1  0  0  0  0
 14  2  2  0  0  0  0
 15 26  1  0  0  0  0
 16 26  2  0  0  0  0
 18  2  1  0  0  0  0
 19  3  1  0  0  0  0
 20 28  2  0  0  0  0
 21 17  1  0  0  0  0
 21  6  1  0  0  0  0
 22 29  2  0  0  0  0
 22  1  1  0  0  0  0
 23 25  1  0  0  0  0
 25 10  1  0  0  0  0
 28 29  1  0  0  0  0
 29 19  1  0  0  0  0
 30 27  1  0  0  0  0
 30  7  1  0  0  0  0
M  END
>  <MODEL>
3

>  <REMARK>
 VINA RESULT:      -1.9      2.285      5.728
  Name = 
  0 active torsions:
  status: ('A' for Active; 'I' for Inactive)
                            x       y       z     vdW  Elec       q    Type
                         _______ _______ _______ _____ _____    ______ ____

>  <TORSDO>
F 0

$$$$
