=
 OpenBabel11052422083D

 25 27  0  0  1  0  0  0  0  0999 V2000
  161.4320  206.4610  148.4940 C   0  0  0  0  0  0  0  0  0  0  0  0
  161.3550  205.6070  149.6120 C   0  0  0  0  0  0  0  0  0  0  0  0
  161.5950  208.3300  149.9520 C   0  0  0  0  0  3  0  0  0  0  0  0
  161.5210  207.5200  151.0380 N   0  0  0  0  0  0  0  0  0  0  0  0
  161.3020  205.3090  152.0310 N   0  0  0  0  0  0  0  0  0  0  0  0
  161.3470  205.8340  153.3860 C   0  0  0  0  0  1  0  0  0  0  0  0
  161.1920  204.1850  149.4740 N   0  0  0  0  0  0  0  0  0  0  0  0
  161.5480  207.8010  148.7020 N   0  0  0  0  0  0  0  0  0  0  0  0
  161.1480  203.9290  151.8310 N   0  0  0  0  0  2  0  0  0  0  0  0
  161.1020  203.3940  150.5020 C   0  0  0  0  0  0  0  0  0  0  0  0
  161.4020  206.1740  150.8930 C   0  0  0  0  0  0  0  0  0  0  0  0
  161.3960  205.9460  147.0980 C   0  0  1  0  0  3  0  0  0  0  0  0
  161.2920  204.9380  144.5010 C   0  0  0  0  0  3  0  0  0  0  0  0
  162.4780  205.2280  146.5410 C   0  0  0  0  0  0  0  0  0  0  0  0
  162.3950  204.7510  145.2700 N   0  0  0  0  0  0  0  0  0  0  0  0
  160.1970  205.6360  145.0070 C   0  0  0  0  0  3  0  0  0  0  0  0
  163.5330  205.0340  147.2010 O   0  0  0  0  0  0  0  0  0  0  0  0
  160.2540  206.1350  146.3070 C   0  0  0  0  0  3  0  0  0  0  0  0
  160.9070  201.9320  150.2980 C   0  0  0  0  0  2  0  0  0  0  0  0
  160.1840  201.6790  149.0110 C   0  0  0  0  0  0  0  0  0  0  0  0
  158.9640  201.7220  148.9960 O   0  0  0  0  0  0  0  0  0  0  0  0
  160.0780  201.5530  146.6610 F   0  0  0  0  0  0  0  0  0  0  0  0
  161.9890  202.2930  147.5920 F   0  0  0  0  0  0  0  0  0  0  0  0
  161.4280  200.1200  147.7570 F   0  0  0  0  0  0  0  0  0  0  0  0
  160.9340  201.4110  147.7380 C   0  0  0  0  0  0  0  0  0  0  0  0
  1  8  2  0  0  0  0
  1  2  1  0  0  0  0
  2 11  2  0  0  0  0
  3  4  2  0  0  0  0
  5  6  1  0  0  0  0
  7  2  1  0  0  0  0
  7 10  2  0  0  0  0
  8  3  1  0  0  0  0
  9  5  1  0  0  0  0
 10  9  1  0  0  0  0
 11  4  1  0  0  0  0
 11  5  1  0  0  0  0
 12  1  1  1  0  0  0
 13 16  1  0  0  0  0
 13 15  2  0  0  0  0
 14 12  1  0  0  0  0
 14 17  2  0  0  0  0
 15 14  1  0  0  0  0
 16 18  2  0  0  0  0
 18 12  1  0  0  0  0
 19 10  1  0  0  0  0
 20 19  1  0  0  0  0
 21 20  2  0  0  0  0
 22 25  1  0  0  0  0
 23 25  1  0  0  0  0
 25 24  1  0  0  0  0
 25 20  1  0  0  0  0
M  END
>  <MODEL>
1

>  <REMARK>
 VINA RESULT:      -8.4      0.000      0.000
  Name = 
  4 active torsions:
  status: ('A' for Active; 'I' for Inactive)
    1  A    between atoms: C_1  and  C_5
    2  A    between atoms: C_6  and  C_15
    3  A    between atoms: C_6  and  C_23
    4  A    between atoms: C_15  and  C_21
                            x       y       z     vdW  Elec       q    Type
                         _______ _______ _______ _____ _____    ______ ____

>  <TORSDO>
F 4

$$$$
=
 OpenBabel11052422083D

 25 27  0  0  1  0  0  0  0  0999 V2000
  161.2650  205.7320  151.7460 C   0  0  0  0  0  0  0  0  0  0  0  0
  161.2690  205.1830  150.4480 C   0  0  0  0  0  0  0  0  0  0  0  0
  160.9130  203.5610  152.6460 C   0  0  0  0  0  3  0  0  0  0  0  0
  160.9140  203.0190  151.4020 N   0  0  0  0  0  0  0  0  0  0  0  0
  161.0700  203.2440  148.9840 N   0  0  0  0  0  0  0  0  0  0  0  0
  160.8880  201.8180  148.7660 C   0  0  0  0  0  1  0  0  0  0  0  0
  161.4140  206.0030  149.2760 N   0  0  0  0  0  0  0  0  0  0  0  0
  161.0850  204.8980  152.8080 N   0  0  0  0  0  0  0  0  0  0  0  0
  161.2210  204.0970  147.8790 N   0  0  0  0  0  2  0  0  0  0  0  0
  161.4010  205.5050  148.0750 C   0  0  0  0  0  0  0  0  0  0  0  0
  161.0870  203.8010  150.3040 C   0  0  0  0  0  0  0  0  0  0  0  0
  161.4570  207.1860  151.9940 C   0  0  1  0  0  3  0  0  0  0  0  0
  161.8770  209.9020  152.4680 C   0  0  0  0  0  3  0  0  0  0  0  0
  161.0630  207.7930  153.2070 C   0  0  0  0  0  0  0  0  0  0  0  0
  161.2800  209.1210  153.4060 N   0  0  0  0  0  0  0  0  0  0  0  0
  162.2880  209.3480  151.2570 C   0  0  0  0  0  3  0  0  0  0  0  0
  160.4930  207.1240  154.1090 O   0  0  0  0  0  0  0  0  0  0  0  0
  162.0780  207.9890  151.0270 C   0  0  0  0  0  3  0  0  0  0  0  0
  161.5300  206.4070  146.8970 C   0  0  0  0  0  2  0  0  0  0  0  0
  161.9430  205.6270  145.6870 C   0  0  0  0  0  0  0  0  0  0  0  0
  163.0880  205.2100  145.6110 O   0  0  0  0  0  0  0  0  0  0  0  0
  159.7500  205.9120  144.8760 F   0  0  0  0  0  0  0  0  0  0  0  0
  161.4230  205.7970  143.3740 F   0  0  0  0  0  0  0  0  0  0  0  0
  160.7930  203.9500  144.4970 F   0  0  0  0  0  0  0  0  0  0  0  0
  160.9660  205.3200  144.5890 C   0  0  0  0  0  0  0  0  0  0  0  0
  1  8  1  0  0  0  0
  2  1  2  0  0  0  0
  3  8  2  0  0  0  0
  4  3  1  0  0  0  0
  5 11  1  0  0  0  0
  6  5  1  0  0  0  0
  7  2  1  0  0  0  0
  9 10  1  0  0  0  0
  9  5  1  0  0  0  0
 10  7  2  0  0  0  0
 11  2  1  0  0  0  0
 11  4  2  0  0  0  0
 12  1  1  1  0  0  0
 12 14  1  0  0  0  0
 13 15  2  0  0  0  0
 14 15  1  0  0  0  0
 14 17  2  0  0  0  0
 16 13  1  0  0  0  0
 18 16  2  0  0  0  0
 18 12  1  0  0  0  0
 19 10  1  0  0  0  0
 20 19  1  0  0  0  0
 21 20  2  0  0  0  0
 23 25  1  0  0  0  0
 24 25  1  0  0  0  0
 25 22  1  0  0  0  0
 25 20  1  0  0  0  0
M  END
>  <MODEL>
2

>  <REMARK>
 VINA RESULT:      -8.2      2.616      5.595
  Name = 
  4 active torsions:
  status: ('A' for Active; 'I' for Inactive)
    1  A    between atoms: C_1  and  C_5
    2  A    between atoms: C_6  and  C_15
    3  A    between atoms: C_6  and  C_23
    4  A    between atoms: C_15  and  C_21
                            x       y       z     vdW  Elec       q    Type
                         _______ _______ _______ _____ _____    ______ ____

>  <TORSDO>
F 4

$$$$
=
 OpenBabel11052422083D

 25 27  0  0  1  0  0  0  0  0999 V2000
  161.9030  206.9050  148.2600 C   0  0  0  0  0  0  0  0  0  0  0  0
  161.5050  206.5230  149.5570 C   0  0  0  0  0  0  0  0  0  0  0  0
  162.2970  209.1130  149.0470 C   0  0  0  0  0  3  0  0  0  0  0  0
  161.9160  208.7590  150.3010 N   0  0  0  0  0  0  0  0  0  0  0  0
  161.0970  207.1070  151.8890 N   0  0  0  0  0  0  0  0  0  0  0  0
  161.0930  208.0580  152.9880 C   0  0  0  0  0  1  0  0  0  0  0  0
  161.0500  205.1920  149.8520 N   0  0  0  0  0  0  0  0  0  0  0  0
  162.2860  208.1940  148.0470 N   0  0  0  0  0  0  0  0  0  0  0  0
  160.6680  205.7900  152.1140 N   0  0  0  0  0  2  0  0  0  0  0  0
  160.6660  204.8390  151.0430 C   0  0  0  0  0  0  0  0  0  0  0  0
  161.5210  207.4880  150.5730 C   0  0  0  0  0  0  0  0  0  0  0  0
  161.9230  205.9480  147.1220 C   0  0  1  0  0  3  0  0  0  0  0  0
  161.9990  204.1900  144.9580 C   0  0  0  0  0  3  0  0  0  0  0  0
  160.8410  205.8400  146.2190 C   0  0  0  0  0  0  0  0  0  0  0  0
  160.9090  204.9720  145.1750 N   0  0  0  0  0  0  0  0  0  0  0  0
  163.0930  204.2630  145.8170 C   0  0  0  0  0  3  0  0  0  0  0  0
  159.7980  206.5300  146.3760 O   0  0  0  0  0  0  0  0  0  0  0  0
  163.0510  205.1460  146.8960 C   0  0  0  0  0  3  0  0  0  0  0  0
  160.1790  203.4510  151.2830 C   0  0  0  0  0  2  0  0  0  0  0  0
  161.1180  202.4580  150.6720 C   0  0  0  0  0  0  0  0  0  0  0  0
  162.1210  202.1320  151.2860 O   0  0  0  0  0  0  0  0  0  0  0  0
  159.4600  201.6920  149.1830 F   0  0  0  0  0  0  0  0  0  0  0  0
  161.3170  202.6170  148.3080 F   0  0  0  0  0  0  0  0  0  0  0  0
  161.4230  200.5860  149.2730 F   0  0  0  0  0  0  0  0  0  0  0  0
  160.8270  201.8330  149.3370 C   0  0  0  0  0  0  0  0  0  0  0  0
  1  2  1  0  0  0  0
  2  7  1  0  0  0  0
  2 11  2  0  0  0  0
  3  4  2  0  0  0  0
  4 11  1  0  0  0  0
  5  9  1  0  0  0  0
  5  6  1  0  0  0  0
  7 10  2  0  0  0  0
  8  1  2  0  0  0  0
  8  3  1  0  0  0  0
 10 19  1  0  0  0  0
 10  9  1  0  0  0  0
 11  5  1  0  0  0  0
 12  1  1  6  0  0  0
 13 15  2  0  0  0  0
 13 16  1  0  0  0  0
 14 17  2  0  0  0  0
 14 12  1  0  0  0  0
 15 14  1  0  0  0  0
 16 18  2  0  0  0  0
 18 12  1  0  0  0  0
 20 19  1  0  0  0  0
 20 21  2  0  0  0  0
 22 25  1  0  0  0  0
 23 25  1  0  0  0  0
 24 25  1  0  0  0  0
 25 20  1  0  0  0  0
M  END
>  <MODEL>
3

>  <REMARK>
 VINA RESULT:      -7.9      1.670      2.048
  Name = 
  4 active torsions:
  status: ('A' for Active; 'I' for Inactive)
    1  A    between atoms: C_1  and  C_5
    2  A    between atoms: C_6  and  C_15
    3  A    between atoms: C_6  and  C_23
    4  A    between atoms: C_15  and  C_21
                            x       y       z     vdW  Elec       q    Type
                         _______ _______ _______ _____ _____    ______ ____

>  <TORSDO>
F 4

$$$$
=
 OpenBabel11052422083D

 25 27  0  0  1  0  0  0  0  0999 V2000
  161.1780  206.0870  151.7330 C   0  0  0  0  0  0  0  0  0  0  0  0
  161.0970  205.4150  150.4970 C   0  0  0  0  0  0  0  0  0  0  0  0
  161.0280  204.0000  152.8600 C   0  0  0  0  0  3  0  0  0  0  0  0
  160.9500  203.3390  151.6760 N   0  0  0  0  0  0  0  0  0  0  0  0
  160.8780  203.3350  149.2440 N   0  0  0  0  0  0  0  0  0  0  0  0
  160.7580  201.8880  149.1780 C   0  0  0  0  0  1  0  0  0  0  0  0
  161.0930  206.1220  149.2450 N   0  0  0  0  0  0  0  0  0  0  0  0
  161.1390  205.3530  152.8790 N   0  0  0  0  0  0  0  0  0  0  0  0
  160.8840  204.0820  148.0560 N   0  0  0  0  0  2  0  0  0  0  0  0
  161.0010  205.5090  148.1030 C   0  0  0  0  0  0  0  0  0  0  0  0
  160.9810  204.0180  150.5000 C   0  0  0  0  0  0  0  0  0  0  0  0
  161.3090  207.5660  151.8260 C   0  0  1  0  0  3  0  0  0  0  0  0
  161.5040  210.3440  151.9660 C   0  0  0  0  0  3  0  0  0  0  0  0
  162.2630  208.2780  151.0650 C   0  0  0  0  0  0  0  0  0  0  0  0
  162.3340  209.6330  151.1580 N   0  0  0  0  0  0  0  0  0  0  0  0
  160.5440  209.6870  152.7320 C   0  0  0  0  0  3  0  0  0  0  0  0
  163.0680  207.6730  150.3080 O   0  0  0  0  0  0  0  0  0  0  0  0
  160.4490  208.2980  152.6560 C   0  0  0  0  0  3  0  0  0  0  0  0
  160.9750  206.2970  146.8380 C   0  0  0  0  0  2  0  0  0  0  0  0
  161.6870  205.5560  145.7490 C   0  0  0  0  0  0  0  0  0  0  0  0
  162.9050  205.4850  145.7760 O   0  0  0  0  0  0  0  0  0  0  0  0
  161.4530  205.2430  143.4260 F   0  0  0  0  0  0  0  0  0  0  0  0
  161.0080  203.4970  144.7760 F   0  0  0  0  0  0  0  0  0  0  0  0
  159.5970  205.2490  144.7050 F   0  0  0  0  0  0  0  0  0  0  0  0
  160.9260  204.8720  144.6500 C   0  0  0  0  0  0  0  0  0  0  0  0
  1  8  1  0  0  0  0
  2 11  1  0  0  0  0
  2  1  2  0  0  0  0
  3  8  2  0  0  0  0
  4  3  1  0  0  0  0
  5 11  1  0  0  0  0
  6  5  1  0  0  0  0
  7  2  1  0  0  0  0
  9 10  1  0  0  0  0
  9  5  1  0  0  0  0
 10  7  2  0  0  0  0
 11  4  2  0  0  0  0
 12  1  1  6  0  0  0
 12 18  1  0  0  0  0
 13 16  1  0  0  0  0
 14 15  1  0  0  0  0
 14 12  1  0  0  0  0
 15 13  2  0  0  0  0
 17 14  2  0  0  0  0
 18 16  2  0  0  0  0
 19 10  1  0  0  0  0
 20 21  2  0  0  0  0
 20 19  1  0  0  0  0
 22 25  1  0  0  0  0
 25 24  1  0  0  0  0
 25 23  1  0  0  0  0
 25 20  1  0  0  0  0
M  END
>  <MODEL>
4

>  <REMARK>
 VINA RESULT:      -7.8      2.227      5.261
  Name = 
  4 active torsions:
  status: ('A' for Active; 'I' for Inactive)
    1  A    between atoms: C_1  and  C_5
    2  A    between atoms: C_6  and  C_15
    3  A    between atoms: C_6  and  C_23
    4  A    between atoms: C_15  and  C_21
                            x       y       z     vdW  Elec       q    Type
                         _______ _______ _______ _____ _____    ______ ____

>  <TORSDO>
F 4

$$$$
=
 OpenBabel11052422083D

 25 27  0  0  1  0  0  0  0  0999 V2000
  161.2410  204.8330  151.3220 C   0  0  0  0  0  0  0  0  0  0  0  0
  161.4690  206.1060  150.7640 C   0  0  0  0  0  0  0  0  0  0  0  0
  161.2320  205.8040  153.4920 C   0  0  0  0  0  3  0  0  0  0  0  0
  161.4520  207.0360  152.9670 N   0  0  0  0  0  0  0  0  0  0  0  0
  161.8270  208.5000  151.0590 N   0  0  0  0  0  0  0  0  0  0  0  0
  161.9430  209.6820  151.8970 C   0  0  0  0  0  1  0  0  0  0  0  0
  161.6360  206.2970  149.3490 N   0  0  0  0  0  0  0  0  0  0  0  0
  161.1300  204.7240  152.6750 N   0  0  0  0  0  0  0  0  0  0  0  0
  161.9760  208.6220  149.6690 N   0  0  0  0  0  2  0  0  0  0  0  0
  161.8640  207.4670  148.8290 C   0  0  0  0  0  0  0  0  0  0  0  0
  161.5730  207.2070  151.6250 C   0  0  0  0  0  0  0  0  0  0  0  0
  161.1110  203.6100  150.4850 C   0  0  1  0  0  3  0  0  0  0  0  0
  160.8070  201.3310  148.9070 C   0  0  0  0  0  3  0  0  0  0  0  0
  161.0490  202.3190  151.0570 C   0  0  0  0  0  0  0  0  0  0  0  0
  160.9020  201.2280  150.2580 N   0  0  0  0  0  0  0  0  0  0  0  0
  160.8590  202.5830  148.2970 C   0  0  0  0  0  3  0  0  0  0  0  0
  161.1440  202.1590  152.3020 O   0  0  0  0  0  0  0  0  0  0  0  0
  161.0070  203.7190  149.0910 C   0  0  0  0  0  3  0  0  0  0  0  0
  162.0550  207.5990  147.3570 C   0  0  0  0  0  2  0  0  0  0  0  0
  161.4250  206.4420  146.6450 C   0  0  0  0  0  0  0  0  0  0  0  0
  160.2080  206.3580  146.6070 O   0  0  0  0  0  0  0  0  0  0  0  0
  163.2210  204.9280  146.8240 F   0  0  0  0  0  0  0  0  0  0  0  0
  161.4830  204.3530  145.5140 F   0  0  0  0  0  0  0  0  0  0  0  0
  162.8910  205.9820  144.8590 F   0  0  0  0  0  0  0  0  0  0  0  0
  162.2630  205.4080  145.9500 C   0  0  0  0  0  0  0  0  0  0  0  0
  1  8  1  0  0  0  0
  2  1  2  0  0  0  0
  2 11  1  0  0  0  0
  4  3  1  0  0  0  0
  5 11  1  0  0  0  0
  5  6  1  0  0  0  0
  7  2  1  0  0  0  0
  8  3  2  0  0  0  0
  9  5  1  0  0  0  0
 10  7  2  0  0  0  0
 10  9  1  0  0  0  0
 11  4  2  0  0  0  0
 12 14  1  0  0  0  0
 12  1  1  1  0  0  0
 13 15  2  0  0  0  0
 14 17  2  0  0  0  0
 15 14  1  0  0  0  0
 16 13  1  0  0  0  0
 16 18  2  0  0  0  0
 18 12  1  0  0  0  0
 19 10  1  0  0  0  0
 20 19  1  0  0  0  0
 21 20  2  0  0  0  0
 23 25  1  0  0  0  0
 24 25  1  0  0  0  0
 25 20  1  0  0  0  0
 25 22  1  0  0  0  0
M  END
>  <MODEL>
5

>  <REMARK>
 VINA RESULT:      -7.8      2.186      4.624
  Name = 
  4 active torsions:
  status: ('A' for Active; 'I' for Inactive)
    1  A    between atoms: C_1  and  C_5
    2  A    between atoms: C_6  and  C_15
    3  A    between atoms: C_6  and  C_23
    4  A    between atoms: C_15  and  C_21
                            x       y       z     vdW  Elec       q    Type
                         _______ _______ _______ _____ _____    ______ ____

>  <TORSDO>
F 4

$$$$
=
 OpenBabel11052422083D

 25 27  0  0  1  0  0  0  0  0999 V2000
  161.4080  208.5440  151.2650 C   0  0  0  0  0  0  0  0  0  0  0  0
  161.2280  207.3830  150.4870 C   0  0  0  0  0  0  0  0  0  0  0  0
  162.2460  209.6770  149.3510 C   0  0  0  0  0  3  0  0  0  0  0  0
  162.0780  208.5660  148.5900 N   0  0  0  0  0  0  0  0  0  0  0  0
  161.4150  206.2370  148.3440 N   0  0  0  0  0  0  0  0  0  0  0  0
  161.7570  206.2140  146.9310 C   0  0  0  0  0  1  0  0  0  0  0  0
  160.7340  206.1580  151.0540 N   0  0  0  0  0  0  0  0  0  0  0  0
  161.9150  209.6580  150.6680 N   0  0  0  0  0  0  0  0  0  0  0  0
  160.9240  205.0730  148.9540 N   0  0  0  0  0  2  0  0  0  0  0  0
  160.5820  205.0780  150.3450 C   0  0  0  0  0  0  0  0  0  0  0  0
  161.5780  207.4240  149.1310 C   0  0  0  0  0  0  0  0  0  0  0  0
  161.0580  208.5950  152.7100 C   0  0  1  0  0  3  0  0  0  0  0  0
  160.3540  208.6520  155.4080 C   0  0  0  0  0  3  0  0  0  0  0  0
  160.4220  209.7190  153.2840 C   0  0  0  0  0  0  0  0  0  0  0  0
  160.0930  209.7150  154.6030 N   0  0  0  0  0  0  0  0  0  0  0  0
  160.9760  207.5190  154.8880 C   0  0  0  0  0  3  0  0  0  0  0  0
  160.1660  210.7390  152.5910 O   0  0  0  0  0  0  0  0  0  0  0  0
  161.3220  207.4950  153.5380 C   0  0  0  0  0  3  0  0  0  0  0  0
  160.0910  203.8290  150.9930 C   0  0  0  0  0  2  0  0  0  0  0  0
  161.0490  202.7050  150.7450 C   0  0  0  0  0  0  0  0  0  0  0  0
  162.0250  202.5840  151.4690 O   0  0  0  0  0  0  0  0  0  0  0  0
  159.4560  201.6540  149.3630 F   0  0  0  0  0  0  0  0  0  0  0  0
  161.4970  202.0590  148.5020 F   0  0  0  0  0  0  0  0  0  0  0  0
  161.2340  200.4570  150.0620 F   0  0  0  0  0  0  0  0  0  0  0  0
  160.8080  201.7070  149.6490 C   0  0  0  0  0  0  0  0  0  0  0  0
  2  7  1  0  0  0  0
  2  1  2  0  0  0  0
  3  8  2  0  0  0  0
  4 11  2  0  0  0  0
  4  3  1  0  0  0  0
  5  9  1  0  0  0  0
  5 11  1  0  0  0  0
  6  5  1  0  0  0  0
  8  1  1  0  0  0  0
  9 10  1  0  0  0  0
 10 19  1  0  0  0  0
 10  7  2  0  0  0  0
 11  2  1  0  0  0  0
 12  1  1  6  0  0  0
 12 14  1  0  0  0  0
 12 18  1  0  0  0  0
 14 15  1  0  0  0  0
 15 13  2  0  0  0  0
 16 13  1  0  0  0  0
 17 14  2  0  0  0  0
 18 16  2  0  0  0  0
 20 19  1  0  0  0  0
 20 21  2  0  0  0  0
 22 25  1  0  0  0  0
 23 25  1  0  0  0  0
 25 24  1  0  0  0  0
 25 20  1  0  0  0  0
M  END
>  <MODEL>
6

>  <REMARK>
 VINA RESULT:      -7.5      2.750      5.466
  Name = 
  4 active torsions:
  status: ('A' for Active; 'I' for Inactive)
    1  A    between atoms: C_1  and  C_5
    2  A    between atoms: C_6  and  C_15
    3  A    between atoms: C_6  and  C_23
    4  A    between atoms: C_15  and  C_21
                            x       y       z     vdW  Elec       q    Type
                         _______ _______ _______ _____ _____    ______ ____

>  <TORSDO>
F 4

$$$$
=
 OpenBabel11052422083D

 25 27  0  0  1  0  0  0  0  0999 V2000
  161.2430  205.4710  150.4990 C   0  0  0  0  0  0  0  0  0  0  0  0
  161.2460  204.3130  149.6960 C   0  0  0  0  0  0  0  0  0  0  0  0
  160.8210  204.1250  152.4120 C   0  0  0  0  0  3  0  0  0  0  0  0
  160.8210  203.0010  151.6510 N   0  0  0  0  0  0  0  0  0  0  0  0
  161.0100  201.8950  149.4910 N   0  0  0  0  0  0  0  0  0  0  0  0
  160.7910  200.5780  150.0660 C   0  0  0  0  0  1  0  0  0  0  0  0
  161.4280  204.3750  148.2720 N   0  0  0  0  0  0  0  0  0  0  0  0
  161.0280  205.3380  151.8370 N   0  0  0  0  0  0  0  0  0  0  0  0
  161.1970  202.0220  148.1060 N   0  0  0  0  0  2  0  0  0  0  0  0
  161.4140  203.3120  147.5230 C   0  0  0  0  0  0  0  0  0  0  0  0
  161.0280  203.0720  150.3090 C   0  0  0  0  0  0  0  0  0  0  0  0
  161.4720  206.8280  149.9360 C   0  0  1  0  0  3  0  0  0  0  0  0
  161.9560  209.3540  148.8570 C   0  0  0  0  0  3  0  0  0  0  0  0
  161.8590  207.9170  150.7490 C   0  0  0  0  0  0  0  0  0  0  0  0
  162.0850  209.1370  150.1910 N   0  0  0  0  0  0  0  0  0  0  0  0
  161.5810  208.3110  148.0130 C   0  0  0  0  0  3  0  0  0  0  0  0
  161.9830  207.7800  151.9950 O   0  0  0  0  0  0  0  0  0  0  0  0
  161.3440  207.0500  148.5570 C   0  0  0  0  0  3  0  0  0  0  0  0
  161.5810  203.4420  146.0490 C   0  0  0  0  0  2  0  0  0  0  0  0
  161.7370  204.8810  145.6680 C   0  0  0  0  0  0  0  0  0  0  0  0
  162.7630  205.4700  145.9730 O   0  0  0  0  0  0  0  0  0  0  0  0
  160.1040  206.5780  145.6800 F   0  0  0  0  0  0  0  0  0  0  0  0
  161.2050  206.1890  143.7560 F   0  0  0  0  0  0  0  0  0  0  0  0
  159.6950  204.6980  144.5060 F   0  0  0  0  0  0  0  0  0  0  0  0
  160.6730  205.5990  144.8880 C   0  0  0  0  0  0  0  0  0  0  0  0
  1  8  1  0  0  0  0
  2 11  1  0  0  0  0
  2  1  2  0  0  0  0
  4  3  1  0  0  0  0
  5  6  1  0  0  0  0
  5 11  1  0  0  0  0
  7  2  1  0  0  0  0
  8  3  2  0  0  0  0
  9  5  1  0  0  0  0
 10  9  1  0  0  0  0
 10  7  2  0  0  0  0
 11  4  2  0  0  0  0
 12  1  1  6  0  0  0
 12 14  1  0  0  0  0
 13 15  2  0  0  0  0
 14 17  2  0  0  0  0
 15 14  1  0  0  0  0
 16 18  2  0  0  0  0
 16 13  1  0  0  0  0
 18 12  1  0  0  0  0
 19 10  1  0  0  0  0
 20 21  2  0  0  0  0
 20 19  1  0  0  0  0
 23 25  1  0  0  0  0
 24 25  1  0  0  0  0
 25 20  1  0  0  0  0
 25 22  1  0  0  0  0
M  END
>  <MODEL>
7

>  <REMARK>
 VINA RESULT:      -7.4      2.480      4.638
  Name = 
  4 active torsions:
  status: ('A' for Active; 'I' for Inactive)
    1  A    between atoms: C_1  and  C_5
    2  A    between atoms: C_6  and  C_15
    3  A    between atoms: C_6  and  C_23
    4  A    between atoms: C_15  and  C_21
                            x       y       z     vdW  Elec       q    Type
                         _______ _______ _______ _____ _____    ______ ____

>  <TORSDO>
F 4

$$$$
=
 OpenBabel11052422083D

 25 27  0  0  1  0  0  0  0  0999 V2000
  161.0790  204.9220  148.3000 C   0  0  0  0  0  0  0  0  0  0  0  0
  161.5240  205.9800  149.1160 C   0  0  0  0  0  0  0  0  0  0  0  0
  160.7400  206.4580  146.5190 C   0  0  0  0  0  3  0  0  0  0  0  0
  161.1660  207.4870  147.2940 N   0  0  0  0  0  0  0  0  0  0  0  0
  161.9890  208.3550  149.4130 N   0  0  0  0  0  0  0  0  0  0  0  0
  162.0490  209.7190  148.9140 C   0  0  0  0  0  1  0  0  0  0  0  0
  161.9050  205.7760  150.4870 N   0  0  0  0  0  0  0  0  0  0  0  0
  160.6980  205.1970  147.0220 N   0  0  0  0  0  0  0  0  0  0  0  0
  162.3530  208.0900  150.7420 N   0  0  0  0  0  2  0  0  0  0  0  0
  162.3000  206.7520  151.2500 C   0  0  0  0  0  0  0  0  0  0  0  0
  161.5560  207.2740  148.5780 C   0  0  0  0  0  0  0  0  0  0  0  0
  161.0170  203.5170  148.7860 C   0  0  1  0  0  3  0  0  0  0  0  0
  160.9570  200.8890  149.7190 C   0  0  0  0  0  3  0  0  0  0  0  0
  161.1640  202.4180  147.9090 C   0  0  0  0  0  0  0  0  0  0  0  0
  161.1280  201.1490  148.3960 N   0  0  0  0  0  0  0  0  0  0  0  0
  160.8120  201.9390  150.6230 C   0  0  0  0  0  3  0  0  0  0  0  0
  161.3120  202.5960  146.6710 O   0  0  0  0  0  0  0  0  0  0  0  0
  160.8460  203.2510  150.1520 C   0  0  0  0  0  3  0  0  0  0  0  0
  162.6580  206.4830  152.6710 C   0  0  0  0  0  2  0  0  0  0  0  0
  161.4220  206.2320  153.4790 C   0  0  0  0  0  0  0  0  0  0  0  0
  160.9240  205.1170  153.4730 O   0  0  0  0  0  0  0  0  0  0  0  0
  159.7090  206.8120  154.9880 F   0  0  0  0  0  0  0  0  0  0  0  0
  161.7200  207.7890  155.2510 F   0  0  0  0  0  0  0  0  0  0  0  0
  160.4130  208.3610  153.5090 F   0  0  0  0  0  0  0  0  0  0  0  0
  160.8110  207.3140  154.3220 C   0  0  0  0  0  0  0  0  0  0  0  0
  1  2  1  0  0  0  0
  2  7  1  0  0  0  0
  3  8  1  0  0  0  0
  3  4  2  0  0  0  0
  4 11  1  0  0  0  0
  5  9  1  0  0  0  0
  6  5  1  0  0  0  0
  7 10  2  0  0  0  0
  8  1  2  0  0  0  0
  9 10  1  0  0  0  0
 10 19  1  0  0  0  0
 11  2  2  0  0  0  0
 11  5  1  0  0  0  0
 12  1  1  1  0  0  0
 12 18  1  0  0  0  0
 13 16  1  0  0  0  0
 14 15  1  0  0  0  0
 14 12  1  0  0  0  0
 15 13  2  0  0  0  0
 17 14  2  0  0  0  0
 18 16  2  0  0  0  0
 19 20  1  0  0  0  0
 20 25  1  0  0  0  0
 21 20  2  0  0  0  0
 24 25  1  0  0  0  0
 25 22  1  0  0  0  0
 25 23  1  0  0  0  0
M  END
>  <MODEL>
8

>  <REMARK>
 VINA RESULT:      -7.2      3.667      5.591
  Name = 
  4 active torsions:
  status: ('A' for Active; 'I' for Inactive)
    1  A    between atoms: C_1  and  C_5
    2  A    between atoms: C_6  and  C_15
    3  A    between atoms: C_6  and  C_23
    4  A    between atoms: C_15  and  C_21
                            x       y       z     vdW  Elec       q    Type
                         _______ _______ _______ _____ _____    ______ ____

>  <TORSDO>
F 4

$$$$
=
 OpenBabel11052422083D

 25 27  0  0  1  0  0  0  0  0999 V2000
  161.2730  203.2660  147.4490 C   0  0  0  0  0  0  0  0  0  0  0  0
  161.0670  203.8730  148.7040 C   0  0  0  0  0  0  0  0  0  0  0  0
  161.2100  201.1300  148.4890 C   0  0  0  0  0  3  0  0  0  0  0  0
  161.0110  201.7010  149.7040 N   0  0  0  0  0  0  0  0  0  0  0  0
  160.7490  203.6680  151.1120 N   0  0  0  0  0  0  0  0  0  0  0  0
  160.6060  202.8730  152.3210 C   0  0  0  0  0  1  0  0  0  0  0  0
  161.0230  205.3010  148.8600 N   0  0  0  0  0  0  0  0  0  0  0  0
  161.3400  201.9070  147.3830 N   0  0  0  0  0  0  0  0  0  0  0  0
  160.7110  205.0680  151.1990 N   0  0  0  0  0  2  0  0  0  0  0  0
  160.8500  205.8670  150.0180 C   0  0  0  0  0  0  0  0  0  0  0  0
  160.9380  203.0510  149.8320 C   0  0  0  0  0  0  0  0  0  0  0  0
  161.4140  204.0580  146.1980 C   0  0  1  0  0  3  0  0  0  0  0  0
  161.6850  205.4900  143.8200 C   0  0  0  0  0  3  0  0  0  0  0  0
  162.6000  204.7620  145.8910 C   0  0  0  0  0  0  0  0  0  0  0  0
  162.7000  205.4520  144.7230 N   0  0  0  0  0  0  0  0  0  0  0  0
  160.4970  204.8090  144.0750 C   0  0  0  0  0  3  0  0  0  0  0  0
  163.5700  204.7740  146.6940 O   0  0  0  0  0  0  0  0  0  0  0  0
  160.3680  204.0920  145.2640 C   0  0  0  0  0  3  0  0  0  0  0  0
  160.8410  207.3530  150.1220 C   0  0  0  0  0  2  0  0  0  0  0  0
  161.7100  207.8000  151.2570 C   0  0  0  0  0  0  0  0  0  0  0  0
  162.9110  207.5870  151.2060 O   0  0  0  0  0  0  0  0  0  0  0  0
  160.7020  207.6220  153.3790 F   0  0  0  0  0  0  0  0  0  0  0  0
  162.0820  209.3630  153.0090 F   0  0  0  0  0  0  0  0  0  0  0  0
  160.0620  209.3010  152.0190 F   0  0  0  0  0  0  0  0  0  0  0  0
  161.1350  208.5340  152.4340 C   0  0  0  0  0  0  0  0  0  0  0  0
  1  2  1  0  0  0  0
  2  7  1  0  0  0  0
  2 11  2  0  0  0  0
  3  4  2  0  0  0  0
  4 11  1  0  0  0  0
  5  9  1  0  0  0  0
  5  6  1  0  0  0  0
  7 10  2  0  0  0  0
  8  1  2  0  0  0  0
  8  3  1  0  0  0  0
 10 19  1  0  0  0  0
 10  9  1  0  0  0  0
 11  5  1  0  0  0  0
 12  1  1  6  0  0  0
 13 16  1  0  0  0  0
 13 15  2  0  0  0  0
 14 12  1  0  0  0  0
 14 17  2  0  0  0  0
 15 14  1  0  0  0  0
 16 18  2  0  0  0  0
 18 12  1  0  0  0  0
 19 20  1  0  0  0  0
 20 25  1  0  0  0  0
 21 20  2  0  0  0  0
 24 25  1  0  0  0  0
 25 23  1  0  0  0  0
 25 22  1  0  0  0  0
M  END
>  <MODEL>
9

>  <REMARK>
 VINA RESULT:      -7.2      3.576      5.135
  Name = 
  4 active torsions:
  status: ('A' for Active; 'I' for Inactive)
    1  A    between atoms: C_1  and  C_5
    2  A    between atoms: C_6  and  C_15
    3  A    between atoms: C_6  and  C_23
    4  A    between atoms: C_15  and  C_21
                            x       y       z     vdW  Elec       q    Type
                         _______ _______ _______ _____ _____    ______ ____

>  <TORSDO>
F 4

$$$$
