=
 OpenBabel11052421573D

 30 33  0  0  1  0  0  0  0  0999 V2000
  161.0620  205.2960  150.1400 N   0  0  0  0  0  2  0  0  0  0  0  0
  160.9590  202.9940  151.0130 C   0  0  0  0  0  0  0  0  0  0  0  0
  161.7040  203.7620  146.2570 N   0  0  0  0  0  2  0  0  0  0  0  0
  161.1120  206.2590  149.0380 C   0  0  2  0  0  3  0  0  0  0  0  0
  161.3630  204.6150  145.1130 C   0  0  0  0  0  2  0  0  0  0  0  0
  160.9250  201.6140  150.7920 C   0  0  0  0  0  3  0  0  0  0  0  0
  160.9370  203.5010  152.4140 C   0  0  0  0  0  1  0  0  0  0  0  0
  161.0590  204.3220  147.4430 C   0  0  2  0  0  3  0  0  0  0  0  0
  160.9450  201.1080  149.4900 C   0  0  0  0  0  3  0  0  0  0  0  0
  161.0140  203.8770  149.9220 C   0  0  0  0  0  0  0  0  0  0  0  0
  161.7700  205.6270  147.8080 C   0  0  1  0  0  3  0  0  0  0  0  0
  161.6780  206.0730  145.3720 C   0  0  0  0  0  3  0  0  0  0  0  0
  161.8080  206.5510  146.6200 C   0  0  0  0  0  3  0  0  0  0  0  0
  161.0070  201.9810  148.4010 C   0  0  0  0  0  3  0  0  0  0  0  0
  161.0660  203.3660  148.6080 C   0  0  0  0  0  0  0  0  0  0  0  0
  162.6570  208.8450  151.1640 O   0  0  0  0  0  0  0  0  0  0  0  0
  161.9780  207.8280  150.8530 C   0  0  0  0  0  0  0  0  0  0  0  0
  161.8120  207.4710  149.4650 N   0  0  0  0  0  0  0  0  0  0  0  0
  162.3700  206.3100  152.7850 C   0  0  0  0  0  2  0  0  0  0  0  0
  160.5360  207.8760  152.8740 C   0  0  0  0  0  2  0  0  0  0  0  0
  161.3410  207.0120  151.9380 C   0  0  1  0  0  3  0  0  0  0  0  0
  161.7030  205.8160  153.9760 N   0  0  0  0  0  2  0  0  0  0  0  0
  160.5480  207.0590  154.4960 S   0  0  0  0  0  0  0  0  0  0  0  0
  162.3980  208.2970  148.4180 C   0  0  0  0  0  2  0  0  0  0  0  0
  161.6200  209.5940  148.2750 C   0  0  0  0  0  2  0  0  0  0  0  0
  162.5150  210.7810  148.5770 C   0  0  0  0  0  2  0  0  0  0  0  0
  161.7190  211.9940  148.6630 N   0  0  0  0  0  2  0  0  0  0  0  0
  162.7270  212.9120  146.6330 O   0  0  0  0  0  0  0  0  0  0  0  0
  161.8390  213.0340  147.6950 C   0  0  0  0  0  0  0  0  0  0  0  0
  161.1330  214.0700  147.8020 O   0  0  0  0  0  1  0  0  0  0  0  0
  2  7  1  0  0  0  0
  4 18  1  1  0  0  0
  4  1  1  0  0  0  0
  5 12  1  0  0  0  0
  5  3  1  0  0  0  0
  6  2  1  0  0  0  0
  8  3  1  6  0  0  0
  8 11  1  0  0  0  0
  8 15  1  0  0  0  0
  9  6  2  0  0  0  0
 10  1  1  0  0  0  0
 10  2  2  0  0  0  0
 11 13  1  6  0  0  0
 11  4  1  0  0  0  0
 12 13  2  0  0  0  0
 14 15  2  0  0  0  0
 14  9  1  0  0  0  0
 15 10  1  0  0  0  0
 17 16  2  0  0  0  0
 18 17  1  0  0  0  0
 19 22  1  0  0  0  0
 20 23  1  0  0  0  0
 21 17  1  6  0  0  0
 21 19  1  0  0  0  0
 21 20  1  0  0  0  0
 22 23  1  0  0  0  0
 24 18  1  0  0  0  0
 25 24  1  0  0  0  0
 25 26  1  0  0  0  0
 26 27  1  0  0  0  0
 28 29  2  0  0  0  0
 29 30  1  0  0  0  0
 29 27  1  0  0  0  0
M  END
>  <MODEL>
1

>  <REMARK>
 VINA RESULT:      -8.5      0.000      0.000
  Name = 
  6 active torsions:
  status: ('A' for Active; 'I' for Inactive)
    1  A    between atoms: C_4  and  N_13
    2  A    between atoms: N_7  and  C_16
    3  A    between atoms: C_8  and  C_12
    4  A    between atoms: N_13  and  C_27
    5  A    between atoms: C_16  and  C_30
    6  A    between atoms: C_27  and  C_30
                            x       y       z     vdW  Elec       q    Type
                         _______ _______ _______ _____ _____    ______ ____

>  <TORSDO>
F 6

$$$$
=
 OpenBabel11052421573D

 30 33  0  0  1  0  0  0  0  0999 V2000
  159.7420  210.4410  152.3970 N   0  0  0  0  0  2  0  0  0  0  0  0
  158.3370  212.4060  152.8860 C   0  0  0  0  0  0  0  0  0  0  0  0
  160.1180  209.7160  156.5410 N   0  0  0  0  0  2  0  0  0  0  0  0
  160.4530  209.2280  152.8030 C   0  0  2  0  0  3  0  0  0  0  0  0
  160.4490  208.3550  156.9750 C   0  0  0  0  0  2  0  0  0  0  0  0
  157.6370  213.1980  153.8010 C   0  0  0  0  0  3  0  0  0  0  0  0
  158.3540  212.8050  151.4500 C   0  0  0  0  0  1  0  0  0  0  0  0
  159.6710  209.6470  155.1500 C   0  0  2  0  0  3  0  0  0  0  0  0
  157.6020  212.8490  155.1530 C   0  0  0  0  0  3  0  0  0  0  0  0
  159.0090  211.2550  153.3270 C   0  0  0  0  0  0  0  0  0  0  0  0
  160.8810  209.3280  154.2700 C   0  0  1  0  0  3  0  0  0  0  0  0
  161.4200  207.6730  156.0350 C   0  0  0  0  0  3  0  0  0  0  0  0
  161.5760  208.0890  154.7680 C   0  0  0  0  0  3  0  0  0  0  0  0
  158.2760  211.7100  155.5990 C   0  0  0  0  0  3  0  0  0  0  0  0
  159.0020  210.9190  154.6970 C   0  0  0  0  0  0  0  0  0  0  0  0
  162.8080  207.6100  150.4730 O   0  0  0  0  0  0  0  0  0  0  0  0
  161.8500  207.7270  151.2850 C   0  0  0  0  0  0  0  0  0  0  0  0
  161.5970  208.9990  151.9190 N   0  0  0  0  0  0  0  0  0  0  0  0
  160.7270  205.7120  150.3540 C   0  0  0  0  0  2  0  0  0  0  0  0
  161.6650  205.6140  152.5750 C   0  0  0  0  0  2  0  0  0  0  0  0
  160.9940  206.5340  151.5880 C   0  0  1  0  0  3  0  0  0  0  0  0
  160.1780  204.4360  150.7800 N   0  0  0  0  0  2  0  0  0  0  0  0
  161.0590  203.9360  152.2370 S   0  0  0  0  0  0  0  0  0  0  0  0
  162.4620  210.1400  151.6510 C   0  0  0  0  0  2  0  0  0  0  0  0
  161.8020  211.0770  150.6540 C   0  0  0  0  0  2  0  0  0  0  0  0
  162.2430  210.7380  149.2430 C   0  0  0  0  0  2  0  0  0  0  0  0
  162.6430  211.9480  148.5430 N   0  0  0  0  0  2  0  0  0  0  0  0
  160.6270  211.9250  147.1580 O   0  0  0  0  0  1  0  0  0  0  0  0
  161.8320  212.5180  147.5170 C   0  0  0  0  0  0  0  0  0  0  0  0
  162.2100  213.5660  146.9340 O   0  0  0  0  0  0  0  0  0  0  0  0
  1  4  1  0  0  0  0
  1 10  1  0  0  0  0
  2 10  2  0  0  0  0
  2  6  1  0  0  0  0
  3  5  1  0  0  0  0
  4 18  1  6  0  0  0
  4 11  1  0  0  0  0
  6  9  2  0  0  0  0
  7  2  1  0  0  0  0
  8 15  1  6  0  0  0
  8  3  1  0  0  0  0
  9 14  1  0  0  0  0
 10 15  1  0  0  0  0
 11 13  1  1  0  0  0
 11  8  1  0  0  0  0
 12  5  1  0  0  0  0
 13 12  2  0  0  0  0
 15 14  2  0  0  0  0
 16 17  2  0  0  0  0
 17 18  1  0  0  0  0
 19 22  1  0  0  0  0
 19 21  1  0  0  0  0
 21 17  1  6  0  0  0
 21 20  1  0  0  0  0
 22 23  1  0  0  0  0
 23 20  1  0  0  0  0
 24 18  1  0  0  0  0
 25 24  1  0  0  0  0
 26 25  1  0  0  0  0
 27 26  1  0  0  0  0
 28 29  1  0  0  0  0
 29 27  1  0  0  0  0
 30 29  2  0  0  0  0
M  END
>  <MODEL>
2

>  <REMARK>
 VINA RESULT:      -8.2      3.298      7.360
  Name = 
  6 active torsions:
  status: ('A' for Active; 'I' for Inactive)
    1  A    between atoms: C_4  and  N_13
    2  A    between atoms: N_7  and  C_16
    3  A    between atoms: C_8  and  C_12
    4  A    between atoms: N_13  and  C_27
    5  A    between atoms: C_16  and  C_30
    6  A    between atoms: C_27  and  C_30
                            x       y       z     vdW  Elec       q    Type
                         _______ _______ _______ _____ _____    ______ ____

>  <TORSDO>
F 6

$$$$
=
 OpenBabel11052421573D

 30 33  0  0  1  0  0  0  0  0999 V2000
  160.8480  208.1540  152.9490 N   0  0  0  0  0  2  0  0  0  0  0  0
  161.1080  205.7390  152.5310 C   0  0  0  0  0  0  0  0  0  0  0  0
  162.2700  208.9490  149.0510 N   0  0  0  0  0  2  0  0  0  0  0  0
  160.8370  209.5480  152.5030 C   0  0  2  0  0  3  0  0  0  0  0  0
  161.9080  210.2290  148.4330 C   0  0  0  0  0  2  0  0  0  0  0  0
  161.3840  204.6820  151.6580 C   0  0  0  0  0  3  0  0  0  0  0  0
  160.8070  205.4360  153.9590 C   0  0  0  0  0  1  0  0  0  0  0  0
  161.3800  208.7340  150.1920 C   0  0  2  0  0  3  0  0  0  0  0  0
  161.6690  204.9350  150.3150 C   0  0  0  0  0  3  0  0  0  0  0  0
  161.1180  207.0610  152.0560 C   0  0  0  0  0  0  0  0  0  0  0  0
  161.7590  209.7270  151.2930 C   0  0  1  0  0  3  0  0  0  0  0  0
  161.8840  211.3640  149.4360 C   0  0  0  0  0  3  0  0  0  0  0  0
  161.7570  211.1320  150.7520 C   0  0  0  0  0  3  0  0  0  0  0  0
  161.6880  206.2480  149.8380 C   0  0  0  0  0  3  0  0  0  0  0  0
  161.4370  207.3190  150.7070 C   0  0  0  0  0  0  0  0  0  0  0  0
  160.7070  212.1610  155.1020 O   0  0  0  0  0  0  0  0  0  0  0  0
  160.3590  211.4820  154.0960 C   0  0  0  0  0  0  0  0  0  0  0  0
  161.2170  210.4290  153.6080 N   0  0  0  0  0  0  0  0  0  0  0  0
  157.9710  212.1040  154.4080 C   0  0  0  0  0  2  0  0  0  0  0  0
  159.1820  213.0010  152.5240 C   0  0  0  0  0  2  0  0  0  0  0  0
  159.0600  211.7930  153.4150 C   0  0  1  0  0  3  0  0  0  0  0  0
  156.8600  212.6930  153.6790 N   0  0  0  0  0  2  0  0  0  0  0  0
  157.5430  213.7800  152.4540 S   0  0  0  0  0  0  0  0  0  0  0  0
  162.4980  210.1670  154.2510 C   0  0  0  0  0  2  0  0  0  0  0  0
  162.5040  210.7330  155.6610 C   0  0  0  0  0  2  0  0  0  0  0  0
  162.5740  209.6100  156.6780 C   0  0  0  0  0  2  0  0  0  0  0  0
  161.6800  208.5310  156.2900 N   0  0  0  0  0  2  0  0  0  0  0  0
  159.7410  209.6630  157.2610 O   0  0  0  0  0  1  0  0  0  0  0  0
  160.2860  208.5760  156.5870 C   0  0  0  0  0  0  0  0  0  0  0  0
  159.5430  207.6240  156.2350 O   0  0  0  0  0  0  0  0  0  0  0  0
  2  7  1  0  0  0  0
  4  1  1  0  0  0  0
  4 18  1  1  0  0  0
  5  3  1  0  0  0  0
  5 12  1  0  0  0  0
  6  2  2  0  0  0  0
  8  3  1  6  0  0  0
  8 15  1  0  0  0  0
  8 11  1  0  0  0  0
  9  6  1  0  0  0  0
 10  2  1  0  0  0  0
 10  1  1  0  0  0  0
 11 13  1  6  0  0  0
 11  4  1  0  0  0  0
 12 13  2  0  0  0  0
 14  9  2  0  0  0  0
 14 15  1  0  0  0  0
 15 10  2  0  0  0  0
 17 16  2  0  0  0  0
 18 17  1  0  0  0  0
 18 24  1  0  0  0  0
 20 21  1  0  0  0  0
 21 17  1  1  0  0  0
 21 19  1  0  0  0  0
 22 19  1  0  0  0  0
 23 20  1  0  0  0  0
 23 22  1  0  0  0  0
 24 25  1  0  0  0  0
 25 26  1  0  0  0  0
 27 29  1  0  0  0  0
 27 26  1  0  0  0  0
 29 28  1  0  0  0  0
 30 29  2  0  0  0  0
M  END
>  <MODEL>
3

>  <REMARK>
 VINA RESULT:      -7.9      3.862      6.481
  Name = 
  6 active torsions:
  status: ('A' for Active; 'I' for Inactive)
    1  A    between atoms: C_4  and  N_13
    2  A    between atoms: N_7  and  C_16
    3  A    between atoms: C_8  and  C_12
    4  A    between atoms: N_13  and  C_27
    5  A    between atoms: C_16  and  C_30
    6  A    between atoms: C_27  and  C_30
                            x       y       z     vdW  Elec       q    Type
                         _______ _______ _______ _____ _____    ______ ____

>  <TORSDO>
F 6

$$$$
=
 OpenBabel11052421573D

 30 33  0  0  1  0  0  0  0  0999 V2000
  160.7810  211.5900  141.7790 N   0  0  0  0  0  2  0  0  0  0  0  0
  161.1060  212.7560  143.9260 C   0  0  0  0  0  0  0  0  0  0  0  0
  163.5670  214.2010  139.9750 N   0  0  0  0  0  2  0  0  0  0  0  0
  161.1390  211.3270  140.3840 C   0  0  2  0  0  3  0  0  0  0  0  0
  164.2440  213.7510  138.7530 C   0  0  0  0  0  2  0  0  0  0  0  0
  161.7870  213.6970  144.7030 C   0  0  0  0  0  3  0  0  0  0  0  0
  159.9850  211.9890  144.5390 C   0  0  0  0  0  1  0  0  0  0  0  0
  162.9680  213.0300  140.6130 C   0  0  2  0  0  3  0  0  0  0  0  0
  162.8430  214.4300  144.1570 C   0  0  0  0  0  3  0  0  0  0  0  0
  161.4830  212.5460  142.5900 C   0  0  0  0  0  0  0  0  0  0  0  0
  161.7870  212.5670  139.7590 C   0  0  1  0  0  3  0  0  0  0  0  0
  163.3290  212.9430  137.8560 C   0  0  0  0  0  3  0  0  0  0  0  0
  162.2250  212.3480  138.3360 C   0  0  0  0  0  3  0  0  0  0  0  0
  163.2170  214.2320  142.8260 C   0  0  0  0  0  3  0  0  0  0  0  0
  162.5280  213.3090  142.0280 C   0  0  0  0  0  0  0  0  0  0  0  0
  158.8870  209.3740  138.2140 O   0  0  0  0  0  0  0  0  0  0  0  0
  159.9570  209.7420  138.7740 C   0  0  0  0  0  0  0  0  0  0  0  0
  159.9570  210.8980  139.6370 N   0  0  0  0  0  0  0  0  0  0  0  0
  161.2610  207.6930  139.3160 C   0  0  0  0  0  2  0  0  0  0  0  0
  161.3400  208.5770  137.0720 C   0  0  0  0  0  2  0  0  0  0  0  0
  161.2190  208.9720  138.5200 C   0  0  1  0  0  3  0  0  0  0  0  0
  162.3360  206.8740  138.7830 N   0  0  0  0  0  2  0  0  0  0  0  0
  162.3100  207.0430  137.0170 S   0  0  0  0  0  0  0  0  0  0  0  0
  158.7340  211.6640  139.8390 C   0  0  0  0  0  2  0  0  0  0  0  0
  158.4010  212.4620  138.5900 C   0  0  0  0  0  2  0  0  0  0  0  0
  156.9220  212.3490  138.2730 C   0  0  0  0  0  2  0  0  0  0  0  0
  156.2810  211.4420  139.2110 N   0  0  0  0  0  2  0  0  0  0  0  0
  155.3970  210.0480  137.4060 O   0  0  0  0  0  0  0  0  0  0  0  0
  155.5330  210.3140  138.7640 C   0  0  0  0  0  0  0  0  0  0  0  0
  154.9930  209.5500  139.6050 O   0  0  0  0  0  1  0  0  0  0  0  0
  1 10  1  0  0  0  0
  2  7  1  0  0  0  0
  2  6  1  0  0  0  0
  4 18  1  6  0  0  0
  4  1  1  0  0  0  0
  5  3  1  0  0  0  0
  8  3  1  6  0  0  0
  8 15  1  0  0  0  0
  9  6  2  0  0  0  0
 10  2  2  0  0  0  0
 11 13  1  6  0  0  0
 11  4  1  0  0  0  0
 11  8  1  0  0  0  0
 12 13  2  0  0  0  0
 12  5  1  0  0  0  0
 14  9  1  0  0  0  0
 15 10  1  0  0  0  0
 15 14  2  0  0  0  0
 16 17  2  0  0  0  0
 17 18  1  0  0  0  0
 18 24  1  0  0  0  0
 20 21  1  0  0  0  0
 21 17  1  6  0  0  0
 21 19  1  0  0  0  0
 22 19  1  0  0  0  0
 23 20  1  0  0  0  0
 23 22  1  0  0  0  0
 25 24  1  0  0  0  0
 26 25  1  0  0  0  0
 26 27  1  0  0  0  0
 28 29  2  0  0  0  0
 29 27  1  0  0  0  0
 29 30  1  0  0  0  0
M  END
>  <MODEL>
4

>  <REMARK>
 VINA RESULT:      -7.7      9.603     12.319
  Name = 
  6 active torsions:
  status: ('A' for Active; 'I' for Inactive)
    1  A    between atoms: C_4  and  N_13
    2  A    between atoms: N_7  and  C_16
    3  A    between atoms: C_8  and  C_12
    4  A    between atoms: N_13  and  C_27
    5  A    between atoms: C_16  and  C_30
    6  A    between atoms: C_27  and  C_30
                            x       y       z     vdW  Elec       q    Type
                         _______ _______ _______ _____ _____    ______ ____

>  <TORSDO>
F 6

$$$$
=
 OpenBabel11052421573D

 30 33  0  0  1  0  0  0  0  0999 V2000
  161.0980  206.9770  151.1640 N   0  0  0  0  0  2  0  0  0  0  0  0
  161.1130  204.9660  152.5900 C   0  0  0  0  0  0  0  0  0  0  0  0
  161.4310  204.5170  147.7460 N   0  0  0  0  0  2  0  0  0  0  0  0
  161.0350  207.6330  149.8580 C   0  0  2  0  0  3  0  0  0  0  0  0
  160.9770  205.0580  146.4610 C   0  0  0  0  0  2  0  0  0  0  0  0
  161.0860  203.5750  152.7240 C   0  0  0  0  0  3  0  0  0  0  0  0
  161.2020  205.8080  153.8170 C   0  0  0  0  0  1  0  0  0  0  0  0
  160.8800  205.3590  148.8070 C   0  0  2  0  0  3  0  0  0  0  0  0
  161.0030  202.7600  151.5930 C   0  0  0  0  0  3  0  0  0  0  0  0
  161.0580  205.5480  151.3130 C   0  0  0  0  0  0  0  0  0  0  0  0
  161.5960  206.7110  148.7710 C   0  0  1  0  0  3  0  0  0  0  0  0
  161.2850  206.5340  146.3180 C   0  0  0  0  0  3  0  0  0  0  0  0
  161.5140  207.3080  147.3910 C   0  0  0  0  0  3  0  0  0  0  0  0
  160.9550  203.3330  150.3200 C   0  0  0  0  0  3  0  0  0  0  0  0
  161.0060  204.7250  150.1690 C   0  0  0  0  0  0  0  0  0  0  0  0
  162.4850  210.7890  151.0950 O   0  0  0  0  0  0  0  0  0  0  0  0
  161.7920  209.7350  151.0890 C   0  0  0  0  0  0  0  0  0  0  0  0
  161.7470  208.9110  149.9050 N   0  0  0  0  0  0  0  0  0  0  0  0
  161.8790  209.3690  153.5480 C   0  0  0  0  0  2  0  0  0  0  0  0
  159.8960  210.3390  152.5740 C   0  0  0  0  0  2  0  0  0  0  0  0
  161.0130  209.3620  152.3150 C   0  0  1  0  0  3  0  0  0  0  0  0
  161.0040  209.3140  154.7060 N   0  0  0  0  0  2  0  0  0  0  0  0
  159.6060  210.3540  154.3670 S   0  0  0  0  0  0  0  0  0  0  0  0
  162.4710  209.3070  148.7050 C   0  0  0  0  0  2  0  0  0  0  0  0
  162.4410  210.8180  148.5480 C   0  0  0  0  0  2  0  0  0  0  0  0
  161.1940  211.2430  147.7940 C   0  0  0  0  0  2  0  0  0  0  0  0
  160.8460  212.6110  148.1420 N   0  0  0  0  0  2  0  0  0  0  0  0
  158.9360  212.6130  146.6150 O   0  0  0  0  0  0  0  0  0  0  0  0
  159.7290  213.2690  147.5490 C   0  0  0  0  0  0  0  0  0  0  0  0
  159.4570  214.4530  147.8750 O   0  0  0  0  0  1  0  0  0  0  0  0
  1 10  1  0  0  0  0
  2  6  1  0  0  0  0
  2  7  1  0  0  0  0
  4 18  1  1  0  0  0
  4  1  1  0  0  0  0
  5  3  1  0  0  0  0
  8  3  1  6  0  0  0
  8 15  1  0  0  0  0
  9  6  2  0  0  0  0
 10  2  2  0  0  0  0
 11 13  1  6  0  0  0
 11  8  1  0  0  0  0
 11  4  1  0  0  0  0
 12  5  1  0  0  0  0
 12 13  2  0  0  0  0
 14  9  1  0  0  0  0
 15 14  2  0  0  0  0
 15 10  1  0  0  0  0
 17 16  2  0  0  0  0
 18 17  1  0  0  0  0
 19 22  1  0  0  0  0
 20 23  1  0  0  0  0
 21 17  1  6  0  0  0
 21 20  1  0  0  0  0
 21 19  1  0  0  0  0
 23 22  1  0  0  0  0
 24 18  1  0  0  0  0
 25 24  1  0  0  0  0
 26 27  1  0  0  0  0
 26 25  1  0  0  0  0
 28 29  2  0  0  0  0
 29 30  1  0  0  0  0
 29 27  1  0  0  0  0
M  END
>  <MODEL>
5

>  <REMARK>
 VINA RESULT:      -7.5      1.765      2.227
  Name = 
  6 active torsions:
  status: ('A' for Active; 'I' for Inactive)
    1  A    between atoms: C_4  and  N_13
    2  A    between atoms: N_7  and  C_16
    3  A    between atoms: C_8  and  C_12
    4  A    between atoms: N_13  and  C_27
    5  A    between atoms: C_16  and  C_30
    6  A    between atoms: C_27  and  C_30
                            x       y       z     vdW  Elec       q    Type
                         _______ _______ _______ _____ _____    ______ ____

>  <TORSDO>
F 6

$$$$
=
 OpenBabel11052421573D

 30 33  0  0  1  0  0  0  0  0999 V2000
  160.2380  209.1540  153.4780 N   0  0  0  0  0  2  0  0  0  0  0  0
  160.7470  206.7950  153.9800 C   0  0  0  0  0  0  0  0  0  0  0  0
  162.4890  208.8480  149.9160 N   0  0  0  0  0  2  0  0  0  0  0  0
  160.2430  210.3150  152.5860 C   0  0  2  0  0  3  0  0  0  0  0  0
  162.2010  209.7970  148.8350 C   0  0  0  0  0  2  0  0  0  0  0  0
  161.2900  205.5650  153.6000 C   0  0  0  0  0  3  0  0  0  0  0  0
  160.1370  206.9280  155.3330 C   0  0  0  0  0  1  0  0  0  0  0  0
  161.3700  208.8880  150.8570 C   0  0  2  0  0  3  0  0  0  0  0  0
  161.8690  205.4100  152.3380 C   0  0  0  0  0  3  0  0  0  0  0  0
  160.7830  207.8820  153.0910 C   0  0  0  0  0  0  0  0  0  0  0  0
  161.4120  210.2240  151.6000 C   0  0  1  0  0  3  0  0  0  0  0  0
  161.8660  211.1780  149.3580 C   0  0  0  0  0  3  0  0  0  0  0  0
  161.4460  211.3660  150.6190 C   0  0  0  0  0  3  0  0  0  0  0  0
  161.9140  206.4890  151.4520 C   0  0  0  0  0  3  0  0  0  0  0  0
  161.3950  207.7360  151.8280 C   0  0  0  0  0  0  0  0  0  0  0  0
  159.6020  213.7570  153.7440 O   0  0  0  0  0  0  0  0  0  0  0  0
  159.5860  212.7470  152.9870 C   0  0  0  0  0  0  0  0  0  0  0  0
  160.2920  211.5490  153.3720 N   0  0  0  0  0  0  0  0  0  0  0  0
  157.4110  213.2540  151.8900 C   0  0  0  0  0  2  0  0  0  0  0  0
  159.4620  213.8120  150.7480 C   0  0  0  0  0  2  0  0  0  0  0  0
  158.8380  212.8150  151.6890 C   0  0  1  0  0  3  0  0  0  0  0  0
  156.8640  213.5960  150.5890 N   0  0  0  0  0  2  0  0  0  0  0  0
  158.1330  214.4430  149.6830 S   0  0  0  0  0  0  0  0  0  0  0  0
  161.0520  211.5100  154.6140 C   0  0  0  0  0  2  0  0  0  0  0  0
  160.2960  210.7190  155.6680 C   0  0  0  0  0  2  0  0  0  0  0  0
  159.0690  211.4870  156.1220 C   0  0  0  0  0  2  0  0  0  0  0  0
  157.8670  210.8600  155.5940 N   0  0  0  0  0  2  0  0  0  0  0  0
  156.7280  213.0130  155.3730 O   0  0  0  0  0  1  0  0  0  0  0  0
  156.7230  211.6300  155.2310 C   0  0  0  0  0  0  0  0  0  0  0  0
  155.7020  211.0540  154.7780 O   0  0  0  0  0  0  0  0  0  0  0  0
  2  7  1  0  0  0  0
  4 18  1  1  0  0  0
  4  1  1  0  0  0  0
  5 12  1  0  0  0  0
  5  3  1  0  0  0  0
  6  2  1  0  0  0  0
  8  3  1  6  0  0  0
  8 11  1  0  0  0  0
  8 15  1  0  0  0  0
  9  6  2  0  0  0  0
 10  1  1  0  0  0  0
 10  2  2  0  0  0  0
 11 13  1  6  0  0  0
 11  4  1  0  0  0  0
 12 13  2  0  0  0  0
 14 15  2  0  0  0  0
 14  9  1  0  0  0  0
 15 10  1  0  0  0  0
 17 18  1  0  0  0  0
 17 16  2  0  0  0  0
 18 24  1  0  0  0  0
 20 21  1  0  0  0  0
 21 19  1  0  0  0  0
 21 17  1  1  0  0  0
 22 19  1  0  0  0  0
 23 22  1  0  0  0  0
 23 20  1  0  0  0  0
 24 25  1  0  0  0  0
 25 26  1  0  0  0  0
 27 26  1  0  0  0  0
 29 28  1  0  0  0  0
 29 27  1  0  0  0  0
 30 29  2  0  0  0  0
M  END
>  <MODEL>
6

>  <REMARK>
 VINA RESULT:      -7.1      4.481      6.922
  Name = 
  6 active torsions:
  status: ('A' for Active; 'I' for Inactive)
    1  A    between atoms: C_4  and  N_13
    2  A    between atoms: N_7  and  C_16
    3  A    between atoms: C_8  and  C_12
    4  A    between atoms: N_13  and  C_27
    5  A    between atoms: C_16  and  C_30
    6  A    between atoms: C_27  and  C_30
                            x       y       z     vdW  Elec       q    Type
                         _______ _______ _______ _____ _____    ______ ____

>  <TORSDO>
F 6

$$$$
=
 OpenBabel11052421573D

 30 33  0  0  1  0  0  0  0  0999 V2000
  160.5910  210.0000  151.6380 N   0  0  0  0  0  2  0  0  0  0  0  0
  161.0490  207.5820  151.5060 C   0  0  0  0  0  0  0  0  0  0  0  0
  160.6550  209.7520  155.8540 N   0  0  0  0  0  2  0  0  0  0  0  0
  160.4680  211.2530  152.3850 C   0  0  2  0  0  3  0  0  0  0  0  0
  160.9390  210.9750  156.6120 C   0  0  0  0  0  2  0  0  0  0  0  0
  161.3720  206.3740  152.1310 C   0  0  0  0  0  3  0  0  0  0  0  0
  160.8310  207.5970  150.0320 C   0  0  0  0  0  1  0  0  0  0  0  0
  161.0560  209.9810  154.4660 C   0  0  2  0  0  3  0  0  0  0  0  0
  161.5820  206.3280  153.5110 C   0  0  0  0  0  3  0  0  0  0  0  0
  160.9350  208.7560  152.2690 C   0  0  0  0  0  0  0  0  0  0  0  0
  160.0730  210.9700  153.8370 C   0  0  1  0  0  3  0  0  0  0  0  0
  160.3230  212.2020  155.9730 C   0  0  0  0  0  3  0  0  0  0  0  0
  159.9770  212.2160  154.6760 C   0  0  0  0  0  3  0  0  0  0  0  0
  161.4620  207.4910  154.2750 C   0  0  0  0  0  3  0  0  0  0  0  0
  161.1160  208.7050  153.6670 C   0  0  0  0  0  0  0  0  0  0  0  0
  158.9310  213.5640  149.9580 O   0  0  0  0  0  0  0  0  0  0  0  0
  159.8230  212.8770  150.5270 C   0  0  0  0  0  0  0  0  0  0  0  0
  159.5070  212.1370  151.7240 N   0  0  0  0  0  0  0  0  0  0  0  0
  161.3960  211.7030  148.9980 C   0  0  0  0  0  2  0  0  0  0  0  0
  161.5000  214.1070  149.1690 C   0  0  0  0  0  2  0  0  0  0  0  0
  161.2080  212.8540  149.9520 C   0  0  1  0  0  3  0  0  0  0  0  0
  162.6260  211.9340  148.2600 N   0  0  0  0  0  2  0  0  0  0  0  0
  162.7060  213.6660  147.8850 S   0  0  0  0  0  0  0  0  0  0  0  0
  158.1700  212.2030  152.2980 C   0  0  0  0  0  2  0  0  0  0  0  0
  157.8440  213.6310  152.7050 C   0  0  0  0  0  2  0  0  0  0  0  0
  156.5070  213.6800  153.4210 C   0  0  0  0  0  2  0  0  0  0  0  0
  156.6990  213.4690  154.8470 N   0  0  0  0  0  2  0  0  0  0  0  0
  155.7530  211.2160  154.7370 O   0  0  0  0  0  0  0  0  0  0  0  0
  156.3210  212.2480  155.4770 C   0  0  0  0  0  0  0  0  0  0  0  0
  156.5020  212.1010  156.7130 O   0  0  0  0  0  1  0  0  0  0  0  0
  1 10  1  0  0  0  0
  1  4  1  0  0  0  0
  2  6  2  0  0  0  0
  2 10  1  0  0  0  0
  3  5  1  0  0  0  0
  4 18  1  6  0  0  0
  4 11  1  0  0  0  0
  6  9  1  0  0  0  0
  7  2  1  0  0  0  0
  8 15  1  6  0  0  0
  8  3  1  0  0  0  0
  9 14  2  0  0  0  0
 10 15  2  0  0  0  0
 11  8  1  0  0  0  0
 11 13  1  1  0  0  0
 12  5  1  0  0  0  0
 13 12  2  0  0  0  0
 15 14  1  0  0  0  0
 16 17  2  0  0  0  0
 17 18  1  0  0  0  0
 18 24  1  0  0  0  0
 19 21  1  0  0  0  0
 20 21  1  0  0  0  0
 21 17  1  6  0  0  0
 22 19  1  0  0  0  0
 23 22  1  0  0  0  0
 23 20  1  0  0  0  0
 24 25  1  0  0  0  0
 25 26  1  0  0  0  0
 26 27  1  0  0  0  0
 27 29  1  0  0  0  0
 28 29  2  0  0  0  0
 29 30  1  0  0  0  0
M  END
>  <MODEL>
7

>  <REMARK>
 VINA RESULT:      -6.8      4.681      8.103
  Name = 
  6 active torsions:
  status: ('A' for Active; 'I' for Inactive)
    1  A    between atoms: C_4  and  N_13
    2  A    between atoms: N_7  and  C_16
    3  A    between atoms: C_8  and  C_12
    4  A    between atoms: N_13  and  C_27
    5  A    between atoms: C_16  and  C_30
    6  A    between atoms: C_27  and  C_30
                            x       y       z     vdW  Elec       q    Type
                         _______ _______ _______ _____ _____    ______ ____

>  <TORSDO>
F 6

$$$$
=
 OpenBabel11052421573D

 30 33  0  0  1  0  0  0  0  0999 V2000
  160.4500  210.4030  153.7690 N   0  0  0  0  0  2  0  0  0  0  0  0
  160.7070  210.0180  156.1900 C   0  0  0  0  0  0  0  0  0  0  0  0
  161.6400  206.4170  153.0390 N   0  0  0  0  0  2  0  0  0  0  0  0
  160.4020  209.9330  152.3840 C   0  0  2  0  0  3  0  0  0  0  0  0
  161.2320  205.7960  151.7740 C   0  0  0  0  0  2  0  0  0  0  0  0
  160.9420  209.1510  157.2610 C   0  0  0  0  0  3  0  0  0  0  0  0
  160.4910  211.4660  156.4670 C   0  0  0  0  0  1  0  0  0  0  0  0
  160.8190  207.6100  153.2390 C   0  0  2  0  0  3  0  0  0  0  0  0
  161.1480  207.7880  157.0320 C   0  0  0  0  0  3  0  0  0  0  0  0
  160.6780  209.5180  154.8780 C   0  0  0  0  0  0  0  0  0  0  0  0
  161.2510  208.6680  152.2210 C   0  0  1  0  0  3  0  0  0  0  0  0
  161.2550  206.7760  150.6200 C   0  0  0  0  0  3  0  0  0  0  0  0
  161.2050  208.1020  150.8270 C   0  0  0  0  0  3  0  0  0  0  0  0
  161.1280  207.2870  155.7290 C   0  0  0  0  0  3  0  0  0  0  0  0
  160.9170  208.1480  154.6430 C   0  0  0  0  0  0  0  0  0  0  0  0
  160.5690  213.1460  150.5830 O   0  0  0  0  0  0  0  0  0  0  0  0
  160.1060  212.2320  151.3200 C   0  0  0  0  0  0  0  0  0  0  0  0
  160.8360  210.9970  151.4790 N   0  0  0  0  0  0  0  0  0  0  0  0
  158.9530  213.2370  153.2820 C   0  0  0  0  0  2  0  0  0  0  0  0
  157.8330  213.2150  151.1450 C   0  0  0  0  0  2  0  0  0  0  0  0
  158.7920  212.4430  152.0120 C   0  0  1  0  0  3  0  0  0  0  0  0
  157.6310  213.6620  153.7100 N   0  0  0  0  0  2  0  0  0  0  0  0
  156.7230  214.1260  152.2580 S   0  0  0  0  0  0  0  0  0  0  0  0
  162.0880  210.7860  150.7660 C   0  0  0  0  0  2  0  0  0  0  0  0
  161.8220  210.5880  149.2830 C   0  0  0  0  0  2  0  0  0  0  0  0
  162.6760  211.5370  148.4640 C   0  0  0  0  0  2  0  0  0  0  0  0
  161.8470  212.2510  147.5070 N   0  0  0  0  0  2  0  0  0  0  0  0
  162.6990  214.4210  148.2460 O   0  0  0  0  0  1  0  0  0  0  0  0
  161.8710  213.6740  147.4150 C   0  0  0  0  0  0  0  0  0  0  0  0
  161.1400  214.2580  146.5750 O   0  0  0  0  0  0  0  0  0  0  0  0
  1 10  1  0  0  0  0
  2  7  1  0  0  0  0
  2  6  1  0  0  0  0
  4 18  1  6  0  0  0
  4  1  1  0  0  0  0
  5  3  1  0  0  0  0
  8  3  1  1  0  0  0
  8 15  1  0  0  0  0
  9  6  2  0  0  0  0
 10  2  2  0  0  0  0
 11 13  1  6  0  0  0
 11  4  1  0  0  0  0
 11  8  1  0  0  0  0
 12 13  2  0  0  0  0
 12  5  1  0  0  0  0
 14  9  1  0  0  0  0
 15 10  1  0  0  0  0
 15 14  2  0  0  0  0
 16 17  2  0  0  0  0
 17 18  1  0  0  0  0
 19 22  1  0  0  0  0
 20 21  1  0  0  0  0
 20 23  1  0  0  0  0
 21 17  1  6  0  0  0
 21 19  1  0  0  0  0
 23 22  1  0  0  0  0
 24 18  1  0  0  0  0
 25 24  1  0  0  0  0
 26 25  1  0  0  0  0
 27 26  1  0  0  0  0
 29 27  1  0  0  0  0
 29 28  1  0  0  0  0
 30 29  2  0  0  0  0
M  END
>  <MODEL>
8

>  <REMARK>
 VINA RESULT:      -6.8      3.696      6.348
  Name = 
  6 active torsions:
  status: ('A' for Active; 'I' for Inactive)
    1  A    between atoms: C_4  and  N_13
    2  A    between atoms: N_7  and  C_16
    3  A    between atoms: C_8  and  C_12
    4  A    between atoms: N_13  and  C_27
    5  A    between atoms: C_16  and  C_30
    6  A    between atoms: C_27  and  C_30
                            x       y       z     vdW  Elec       q    Type
                         _______ _______ _______ _____ _____    ______ ____

>  <TORSDO>
F 6

$$$$
=
 OpenBabel11052421573D

 30 33  0  0  1  0  0  0  0  0999 V2000
  159.9680  210.6690  153.1890 N   0  0  0  0  0  2  0  0  0  0  0  0
  158.0070  211.9890  153.8880 C   0  0  0  0  0  0  0  0  0  0  0  0
  160.2050  212.9580  149.6460 N   0  0  0  0  0  2  0  0  0  0  0  0
  161.1030  210.4140  152.3010 C   0  0  2  0  0  3  0  0  0  0  0  0
  161.4970  213.0260  148.9540 C   0  0  0  0  0  2  0  0  0  0  0  0
  157.1390  213.0670  153.6930 C   0  0  0  0  0  3  0  0  0  0  0  0
  157.7730  211.0730  155.0410 C   0  0  0  0  0  1  0  0  0  0  0  0
  160.4460  212.4560  150.9990 C   0  0  2  0  0  3  0  0  0  0  0  0
  157.3340  213.9420  152.6220 C   0  0  0  0  0  3  0  0  0  0  0  0
  159.0780  211.7820  153.0040 C   0  0  0  0  0  0  0  0  0  0  0  0
  160.8230  210.9770  150.9040 C   0  0  1  0  0  3  0  0  0  0  0  0
  162.2490  211.7130  149.0140 C   0  0  0  0  0  3  0  0  0  0  0  0
  161.9750  210.7920  149.9520 C   0  0  0  0  0  3  0  0  0  0  0  0
  158.3920  213.7380  151.7350 C   0  0  0  0  0  3  0  0  0  0  0  0
  159.2560  212.6470  151.9030 C   0  0  0  0  0  0  0  0  0  0  0  0
  161.3960  206.8720  153.2800 O   0  0  0  0  0  0  0  0  0  0  0  0
  161.2020  208.1130  153.3970 C   0  0  0  0  0  0  0  0  0  0  0  0
  161.3940  208.9810  152.2600 N   0  0  0  0  0  0  0  0  0  0  0  0
  160.1450  207.6160  155.5940 C   0  0  0  0  0  2  0  0  0  0  0  0
  161.9660  209.1960  155.4960 C   0  0  0  0  0  2  0  0  0  0  0  0
  160.7840  208.6690  154.7250 C   0  0  1  0  0  3  0  0  0  0  0  0
  160.0650  208.1430  156.9450 N   0  0  0  0  0  2  0  0  0  0  0  0
  161.5690  209.0310  157.2610 S   0  0  0  0  0  0  0  0  0  0  0  0
  161.8430  208.4350  150.9860 C   0  0  0  0  0  2  0  0  0  0  0  0
  160.8600  207.3910  150.4860 C   0  0  0  0  0  2  0  0  0  0  0  0
  161.5760  206.3650  149.6270 C   0  0  0  0  0  2  0  0  0  0  0  0
  161.1190  205.0270  149.9670 N   0  0  0  0  0  2  0  0  0  0  0  0
  161.5930  204.1900  147.7190 O   0  0  0  0  0  0  0  0  0  0  0  0
  161.1350  203.9680  149.0120 C   0  0  0  0  0  0  0  0  0  0  0  0
  160.7320  202.8240  149.3430 O   0  0  0  0  0  1  0  0  0  0  0  0
  2  7  1  0  0  0  0
  4 18  1  6  0  0  0
  4  1  1  0  0  0  0
  5 12  1  0  0  0  0
  5  3  1  0  0  0  0
  6  2  1  0  0  0  0
  8  3  1  6  0  0  0
  8 15  1  0  0  0  0
  9  6  2  0  0  0  0
 10  1  1  0  0  0  0
 10  2  2  0  0  0  0
 11 13  1  6  0  0  0
 11  8  1  0  0  0  0
 11  4  1  0  0  0  0
 12 13  2  0  0  0  0
 14 15  2  0  0  0  0
 14  9  1  0  0  0  0
 15 10  1  0  0  0  0
 16 17  2  0  0  0  0
 18 17  1  0  0  0  0
 19 22  1  0  0  0  0
 20 23  1  0  0  0  0
 21 17  1  6  0  0  0
 21 20  1  0  0  0  0
 21 19  1  0  0  0  0
 22 23  1  0  0  0  0
 24 18  1  0  0  0  0
 25 24  1  0  0  0  0
 26 27  1  0  0  0  0
 26 25  1  0  0  0  0
 28 29  2  0  0  0  0
 29 30  1  0  0  0  0
 29 27  1  0  0  0  0
M  END
>  <MODEL>
9

>  <REMARK>
 VINA RESULT:      -6.4      3.737      7.668
  Name = 
  6 active torsions:
  status: ('A' for Active; 'I' for Inactive)
    1  A    between atoms: C_4  and  N_13
    2  A    between atoms: N_7  and  C_16
    3  A    between atoms: C_8  and  C_12
    4  A    between atoms: N_13  and  C_27
    5  A    between atoms: C_16  and  C_30
    6  A    between atoms: C_27  and  C_30
                            x       y       z     vdW  Elec       q    Type
                         _______ _______ _______ _____ _____    ______ ____

>  <TORSDO>
F 6

$$$$
