=
 OpenBabel11062407493D

 34 39  0  0  1  0  0  0  0  0999 V2000
  161.9830  209.1440  150.8990 C   0  0  2  0  0  3  0  0  0  0  0  0
  162.9220  206.7870  151.7380 C   0  0  1  0  0  3  0  0  0  0  0  0
  161.1360  208.1800  153.0820 C   0  0  2  0  0  3  0  0  0  0  0  0
  160.5450  207.0980  155.4440 C   0  0  2  0  0  3  0  0  0  0  0  0
  163.3760  206.6840  150.4200 O   0  0  0  0  0  1  0  0  0  0  0  0
  161.7430  205.6530  153.6310 C   0  0  0  0  0  2  0  0  0  0  0  0
  162.2580  208.1480  152.0440 C   0  0  2  0  0  3  0  0  0  0  0  0
  159.5820  206.6760  154.3520 C   0  0  0  0  0  2  0  0  0  0  0  0
  161.2640  209.4990  153.8370 C   0  0  2  0  0  3  0  0  0  0  0  0
  161.1710  210.3640  151.3940 C   0  0  0  0  0  2  0  0  0  0  0  0
  162.0820  205.5760  152.1390 C   0  0  1  0  0  3  0  0  0  0  0  0
  160.2580  208.5380  155.9190 C   0  0  0  0  0  2  0  0  0  0  0  0
  160.1120  209.6150  154.8340 C   0  0  1  0  0  3  0  0  0  0  0  0
  161.0330  206.9560  154.0010 C   0  0  2  0  0  0  0  0  0  0  0  0
  161.3990  210.7080  152.8770 C   0  0  0  0  0  2  0  0  0  0  0  0
  159.0180  213.1660  155.6830 C   0  0  0  0  0  0  0  0  0  0  0  0
  159.9070  213.4790  156.7150 C   0  0  0  0  0  3  0  0  0  0  0  0
  160.0280  210.9680  155.4780 C   0  0  0  0  0  0  0  0  0  0  0  0
  160.8560  212.5390  157.1290 C   0  0  0  0  0  3  0  0  0  0  0  0
  159.0770  211.9150  155.0650 C   0  0  0  0  0  3  0  0  0  0  0  0
  160.9160  211.2870  156.5120 C   0  0  0  0  0  3  0  0  0  0  0  0
  158.0980  214.0760  155.2820 F   0  0  0  0  0  0  0  0  0  0  0  0
  161.8160  208.8470  148.4250 C   0  0  0  0  0  1  0  0  0  0  0  0
  161.2080  208.4830  149.7660 C   0  0  0  0  0  2  0  0  0  0  0  0
  160.8390  205.4240  151.2580 C   0  0  0  0  0  2  0  0  0  0  0  0
  160.9140  204.1350  149.0950 C   0  0  0  0  0  0  0  0  0  0  0  0
  160.8450  204.1340  150.4990 C   0  0  0  0  0  0  0  0  0  0  0  0
  160.8400  201.7070  150.5000 C   0  0  0  0  0  3  0  0  0  0  0  0
  160.8920  201.7030  149.1060 C   0  0  0  0  0  3  0  0  0  0  0  0
  160.9310  202.9110  148.4050 C   0  0  0  0  0  3  0  0  0  0  0  0
  160.8200  202.9180  151.1950 C   0  0  0  0  0  3  0  0  0  0  0  0
  160.9720  205.3530  148.4070 O   0  0  0  0  0  0  0  0  0  0  0  0
  161.6520  205.5080  147.1690 C   0  0  0  0  0  2  0  0  0  0  0  0
  160.7280  206.1630  146.1650 C   0  0  0  0  0  1  0  0  0  0  0  0
  1 24  1  6  0  0  0
  1 10  1  0  0  0  0
  1  7  1  0  0  0  0
  2  5  1  6  0  0  0
  2  7  1  0  0  0  0
  2 11  1  0  0  0  0
  3  9  1  0  0  0  0
  3 14  1  0  0  0  0
  4 12  1  0  0  0  0
  6 14  1  0  0  0  0
  7  3  1  0  0  0  0
  8  4  1  0  0  0  0
  9 13  1  0  0  0  0
 10 15  1  0  0  0  0
 11  6  1  0  0  0  0
 13 18  1  0  0  0  0
 13 12  1  0  0  0  0
 14  8  1  0  0  0  0
 14  4  1  0  0  0  0
 15  9  1  0  0  0  0
 16 17  1  0  0  0  0
 17 19  2  0  0  0  0
 18 21  2  0  0  0  0
 20 18  1  0  0  0  0
 20 16  2  0  0  0  0
 21 19  1  0  0  0  0
 22 16  1  0  0  0  0
 23 24  1  0  0  0  0
 25 11  1  0  0  0  0
 26 27  1  0  0  0  0
 27 31  2  0  0  0  0
 27 25  1  0  0  0  0
 28 31  1  0  0  0  0
 29 28  2  0  0  0  0
 30 26  2  0  0  0  0
 30 29  1  0  0  0  0
 32 26  1  0  0  0  0
 33 32  1  0  0  0  0
 34 33  1  0  0  0  0
M  END
>  <MODEL>
1

>  <REMARK>
 VINA RESULT:      -6.8      0.000      0.000
  Name = 
  6 active torsions:
  status: ('A' for Active; 'I' for Inactive)
    1  A    between atoms: C_1  and  C_19
    2  A    between atoms: O_3  and  C_13
    3  A    between atoms: O_3  and  C_17
    4  A    between atoms: C_11  and  C_14
    5  A    between atoms: C_11  and  C_25
    6  A    between atoms: C_12  and  C_28
                            x       y       z     vdW  Elec       q    Type
                         _______ _______ _______ _____ _____    ______ ____

>  <TORSDO>
F 6

$$$$
=
 OpenBabel11062407493D

 34 39  0  0  1  0  0  0  0  0999 V2000
  160.9820  206.7250  154.9510 C   0  0  2  0  0  3  0  0  0  0  0  0
  162.1350  209.0710  155.5120 C   0  0  1  0  0  3  0  0  0  0  0  0
  161.1800  208.4750  153.1300 C   0  0  2  0  0  3  0  0  0  0  0  0
  161.6830  210.3580  151.3140 C   0  0  2  0  0  3  0  0  0  0  0  0
  161.9460  208.6610  156.8340 O   0  0  0  0  0  1  0  0  0  0  0  0
  161.9000  210.9270  153.8510 C   0  0  0  0  0  2  0  0  0  0  0  0
  161.7160  207.9990  154.4810 C   0  0  2  0  0  3  0  0  0  0  0  0
  160.3210  210.5200  151.9610 C   0  0  0  0  0  2  0  0  0  0  0  0
  161.6680  207.4820  152.0810 C   0  0  2  0  0  3  0  0  0  0  0  0
  160.5120  205.8700  153.7520 C   0  0  0  0  0  2  0  0  0  0  0  0
  161.5320  210.4510  155.2600 C   0  0  1  0  0  3  0  0  0  0  0  0
  161.6780  209.2170  150.2750 C   0  0  0  0  0  2  0  0  0  0  0  0
  161.0900  207.8700  150.7210 C   0  0  1  0  0  3  0  0  0  0  0  0
  161.4680  209.9380  152.7690 C   0  0  2  0  0  0  0  0  0  0  0  0
  161.3910  206.0150  152.4960 C   0  0  0  0  0  2  0  0  0  0  0  0
  161.0830  204.5900  148.7800 C   0  0  0  0  0  0  0  0  0  0  0  0
  161.8290  204.9460  147.6520 C   0  0  0  0  0  3  0  0  0  0  0  0
  161.3400  206.8370  149.6620 C   0  0  0  0  0  0  0  0  0  0  0  0
  162.3300  206.2450  147.5280 C   0  0  0  0  0  3  0  0  0  0  0  0
  160.8390  205.5310  149.7830 C   0  0  0  0  0  3  0  0  0  0  0  0
  162.0860  207.1890  148.5300 C   0  0  0  0  0  3  0  0  0  0  0  0
  160.5970  203.3310  148.9010 F   0  0  0  0  0  0  0  0  0  0  0  0
  160.0320  206.7640  157.2600 C   0  0  0  0  0  1  0  0  0  0  0  0
  159.7650  207.0700  155.7980 C   0  0  0  0  0  2  0  0  0  0  0  0
  160.0230  210.4720  155.5140 C   0  0  0  0  0  2  0  0  0  0  0  0
  158.2420  212.2510  155.4100 C   0  0  0  0  0  0  0  0  0  0  0  0
  159.5250  211.8500  155.8220 C   0  0  0  0  0  0  0  0  0  0  0  0
  159.8700  214.0140  156.8660 C   0  0  0  0  0  3  0  0  0  0  0  0
  158.6040  214.4220  156.4450 C   0  0  0  0  0  3  0  0  0  0  0  0
  157.7920  213.5440  155.7210 C   0  0  0  0  0  3  0  0  0  0  0  0
  160.3280  212.7310  156.5580 C   0  0  0  0  0  3  0  0  0  0  0  0
  157.4310  211.3550  154.7030 O   0  0  0  0  0  0  0  0  0  0  0  0
  156.0250  211.5170  154.5800 C   0  0  0  0  0  2  0  0  0  0  0  0
  155.3230  210.4540  155.3970 C   0  0  0  0  0  1  0  0  0  0  0  0
  1 24  1  6  0  0  0
  2  5  1  1  0  0  0
  3  7  1  0  0  0  0
  4  8  1  0  0  0  0
  4 14  1  0  0  0  0
  6 11  1  0  0  0  0
  7  1  1  0  0  0  0
  7  2  1  0  0  0  0
  8 14  1  0  0  0  0
  9 15  1  0  0  0  0
  9  3  1  0  0  0  0
 10  1  1  0  0  0  0
 11  2  1  0  0  0  0
 11 25  1  0  0  0  0
 12 13  1  0  0  0  0
 12  4  1  0  0  0  0
 13  9  1  0  0  0  0
 14  3  1  0  0  0  0
 14  6  1  0  0  0  0
 15 10  1  0  0  0  0
 16 22  1  0  0  0  0
 16 20  1  0  0  0  0
 17 16  2  0  0  0  0
 18 20  2  0  0  0  0
 18 13  1  0  0  0  0
 19 17  1  0  0  0  0
 19 21  2  0  0  0  0
 21 18  1  0  0  0  0
 24 23  1  0  0  0  0
 25 27  1  0  0  0  0
 26 30  2  0  0  0  0
 26 27  1  0  0  0  0
 27 31  2  0  0  0  0
 29 28  2  0  0  0  0
 30 29  1  0  0  0  0
 31 28  1  0  0  0  0
 32 26  1  0  0  0  0
 33 32  1  0  0  0  0
 33 34  1  0  0  0  0
M  END
>  <MODEL>
2

>  <REMARK>
 VINA RESULT:      -6.3      3.249      8.658
  Name = 
  6 active torsions:
  status: ('A' for Active; 'I' for Inactive)
    1  A    between atoms: C_1  and  C_19
    2  A    between atoms: O_3  and  C_13
    3  A    between atoms: O_3  and  C_17
    4  A    between atoms: C_11  and  C_14
    5  A    between atoms: C_11  and  C_25
    6  A    between atoms: C_12  and  C_28
                            x       y       z     vdW  Elec       q    Type
                         _______ _______ _______ _____ _____    ______ ____

>  <TORSDO>
F 6

$$$$
=
 OpenBabel11062407493D

 34 39  0  0  1  0  0  0  0  0999 V2000
  161.9200  209.0540  151.0240 C   0  0  2  0  0  3  0  0  0  0  0  0
  162.8870  206.6910  151.8160 C   0  0  1  0  0  3  0  0  0  0  0  0
  161.0390  208.0070  153.1550 C   0  0  2  0  0  3  0  0  0  0  0  0
  160.4100  206.8410  155.4660 C   0  0  2  0  0  3  0  0  0  0  0  0
  163.3760  206.6380  150.5080 O   0  0  0  0  0  1  0  0  0  0  0  0
  161.6830  205.4770  153.6430 C   0  0  0  0  0  2  0  0  0  0  0  0
  162.1870  208.0290  152.1460 C   0  0  2  0  0  3  0  0  0  0  0  0
  159.4840  206.4340  154.3380 C   0  0  0  0  0  2  0  0  0  0  0  0
  161.1200  209.3040  153.9520 C   0  0  2  0  0  3  0  0  0  0  0  0
  161.0710  210.2410  151.5340 C   0  0  0  0  0  2  0  0  0  0  0  0
  162.0620  205.4530  152.1590 C   0  0  1  0  0  3  0  0  0  0  0  0
  160.0810  208.2600  155.9770 C   0  0  0  0  0  2  0  0  0  0  0  0
  159.9410  209.3670  154.9220 C   0  0  1  0  0  3  0  0  0  0  0  0
  160.9380  206.7530  154.0330 C   0  0  2  0  0  0  0  0  0  0  0  0
  161.2550  210.5440  153.0330 C   0  0  0  0  0  2  0  0  0  0  0  0
  160.7870  212.6000  156.7550 C   0  0  0  0  0  0  0  0  0  0  0  0
  159.5220  213.1840  156.8620 C   0  0  0  0  0  3  0  0  0  0  0  0
  159.8120  210.6970  155.6030 C   0  0  0  0  0  0  0  0  0  0  0  0
  158.4030  212.5270  156.3420 C   0  0  0  0  0  3  0  0  0  0  0  0
  160.9340  211.3600  156.1290 C   0  0  0  0  0  3  0  0  0  0  0  0
  158.5480  211.2870  155.7140 C   0  0  0  0  0  3  0  0  0  0  0  0
  161.8720  213.2360  157.2600 F   0  0  0  0  0  0  0  0  0  0  0  0
  161.8570  208.7840  148.5420 C   0  0  0  0  0  1  0  0  0  0  0  0
  161.1890  208.4130  149.8520 C   0  0  0  0  0  2  0  0  0  0  0  0
  160.8460  205.3030  151.2410 C   0  0  0  0  0  2  0  0  0  0  0  0
  160.9410  204.0240  149.0730 C   0  0  0  0  0  0  0  0  0  0  0  0
  160.8750  204.0160  150.4770 C   0  0  0  0  0  0  0  0  0  0  0  0
  160.9170  201.5890  150.4690 C   0  0  0  0  0  3  0  0  0  0  0  0
  160.9670  201.5920  149.0740 C   0  0  0  0  0  3  0  0  0  0  0  0
  160.9800  202.8030  148.3790 C   0  0  0  0  0  3  0  0  0  0  0  0
  160.8750  202.7970  151.1680 C   0  0  0  0  0  3  0  0  0  0  0  0
  160.9740  205.2450  148.3890 O   0  0  0  0  0  0  0  0  0  0  0  0
  161.6170  205.4090  147.1330 C   0  0  0  0  0  2  0  0  0  0  0  0
  160.6970  206.1550  146.1900 C   0  0  0  0  0  1  0  0  0  0  0  0
  1 24  1  6  0  0  0
  1 10  1  0  0  0  0
  1  7  1  0  0  0  0
  2  5  1  6  0  0  0
  2  7  1  0  0  0  0
  2 11  1  0  0  0  0
  3  9  1  0  0  0  0
  3 14  1  0  0  0  0
  4 12  1  0  0  0  0
  6 14  1  0  0  0  0
  7  3  1  0  0  0  0
  8  4  1  0  0  0  0
  9 13  1  0  0  0  0
 10 15  1  0  0  0  0
 11  6  1  0  0  0  0
 13 18  1  0  0  0  0
 13 12  1  0  0  0  0
 14  8  1  0  0  0  0
 14  4  1  0  0  0  0
 15  9  1  0  0  0  0
 16 17  1  0  0  0  0
 16 22  1  0  0  0  0
 18 21  2  0  0  0  0
 18 20  1  0  0  0  0
 19 17  2  0  0  0  0
 20 16  2  0  0  0  0
 21 19  1  0  0  0  0
 23 24  1  0  0  0  0
 25 11  1  0  0  0  0
 26 27  1  0  0  0  0
 27 31  2  0  0  0  0
 27 25  1  0  0  0  0
 28 31  1  0  0  0  0
 29 28  2  0  0  0  0
 30 26  2  0  0  0  0
 30 29  1  0  0  0  0
 32 26  1  0  0  0  0
 33 32  1  0  0  0  0
 34 33  1  0  0  0  0
M  END
>  <MODEL>
3

>  <REMARK>
 VINA RESULT:      -6.2      0.819      1.119
  Name = 
  6 active torsions:
  status: ('A' for Active; 'I' for Inactive)
    1  A    between atoms: C_1  and  C_19
    2  A    between atoms: O_3  and  C_13
    3  A    between atoms: O_3  and  C_17
    4  A    between atoms: C_11  and  C_14
    5  A    between atoms: C_11  and  C_25
    6  A    between atoms: C_12  and  C_28
                            x       y       z     vdW  Elec       q    Type
                         _______ _______ _______ _____ _____    ______ ____

>  <TORSDO>
F 6

$$$$
=
 OpenBabel11062407493D

 34 39  0  0  1  0  0  0  0  0999 V2000
  161.3480  204.0080  151.3830 C   0  0  2  0  0  3  0  0  0  0  0  0
  162.8770  206.1430  150.8800 C   0  0  1  0  0  3  0  0  0  0  0  0
  161.4300  204.9460  149.0320 C   0  0  2  0  0  3  0  0  0  0  0  0
  161.8270  205.9510  146.5970 C   0  0  2  0  0  3  0  0  0  0  0  0
  162.8830  206.2610  152.2720 O   0  0  0  0  0  1  0  0  0  0  0  0
  162.5800  207.3150  148.6900 C   0  0  0  0  0  2  0  0  0  0  0  0
  162.1400  204.8780  150.3840 C   0  0  2  0  0  3  0  0  0  0  0  0
  160.6410  206.5790  147.3000 C   0  0  0  0  0  2  0  0  0  0  0  0
  161.5850  203.5770  148.3770 C   0  0  2  0  0  3  0  0  0  0  0  0
  160.5590  202.8930  150.6590 C   0  0  0  0  0  2  0  0  0  0  0  0
  162.4200  207.4360  150.2080 C   0  0  1  0  0  3  0  0  0  0  0  0
  161.4840  204.5420  146.0680 C   0  0  0  0  0  2  0  0  0  0  0  0
  160.8210  203.5690  147.0540 C   0  0  1  0  0  3  0  0  0  0  0  0
  161.8320  206.1110  148.1180 C   0  0  2  0  0  0  0  0  0  0  0  0
  161.2020  202.4250  149.3400 C   0  0  0  0  0  2  0  0  0  0  0  0
  161.2050  199.8240  146.4630 C   0  0  0  0  0  0  0  0  0  0  0  0
  160.5460  199.6790  145.2390 C   0  0  0  0  0  3  0  0  0  0  0  0
  160.7360  202.2060  146.4340 C   0  0  0  0  0  0  0  0  0  0  0  0
  159.9840  200.7940  144.6120 C   0  0  0  0  0  3  0  0  0  0  0  0
  161.3010  201.0830  147.0610 C   0  0  0  0  0  3  0  0  0  0  0  0
  160.0780  202.0550  145.2080 C   0  0  0  0  0  3  0  0  0  0  0  0
  161.7500  198.7430  147.0720 F   0  0  0  0  0  0  0  0  0  0  0  0
  160.8310  204.9890  153.6210 C   0  0  0  0  0  1  0  0  0  0  0  0
  160.3620  204.8470  152.1860 C   0  0  0  0  0  2  0  0  0  0  0  0
  160.9990  207.8260  150.6230 C   0  0  0  0  0  2  0  0  0  0  0  0
  161.4660  210.1430  151.4940 C   0  0  0  0  0  0  0  0  0  0  0  0
  160.9940  208.8390  151.7250 C   0  0  0  0  0  0  0  0  0  0  0  0
  160.4540  209.4360  154.0150 C   0  0  0  0  0  3  0  0  0  0  0  0
  160.9370  210.7270  153.7950 C   0  0  0  0  0  3  0  0  0  0  0  0
  161.4400  211.0800  152.5400 C   0  0  0  0  0  3  0  0  0  0  0  0
  160.4790  208.4960  152.9820 C   0  0  0  0  0  3  0  0  0  0  0  0
  161.9490  210.4890  150.2260 O   0  0  0  0  0  0  0  0  0  0  0  0
  161.5820  211.6900  149.5620 C   0  0  0  0  0  2  0  0  0  0  0  0
  162.3980  211.8340  148.2950 C   0  0  0  0  0  1  0  0  0  0  0  0
  1 24  1  6  0  0  0
  2  5  1  1  0  0  0
  3  7  1  0  0  0  0
  4  8  1  0  0  0  0
  4 14  1  0  0  0  0
  6 11  1  0  0  0  0
  7  2  1  0  0  0  0
  7  1  1  0  0  0  0
  8 14  1  0  0  0  0
  9  3  1  0  0  0  0
  9 15  1  0  0  0  0
 10  1  1  0  0  0  0
 11 25  1  0  0  0  0
 11  2  1  0  0  0  0
 12  4  1  0  0  0  0
 12 13  1  0  0  0  0
 13  9  1  0  0  0  0
 14  6  1  0  0  0  0
 14  3  1  0  0  0  0
 15 10  1  0  0  0  0
 16 20  1  0  0  0  0
 16 22  1  0  0  0  0
 17 16  2  0  0  0  0
 18 13  1  0  0  0  0
 18 20  2  0  0  0  0
 19 21  2  0  0  0  0
 19 17  1  0  0  0  0
 21 18  1  0  0  0  0
 24 23  1  0  0  0  0
 25 27  1  0  0  0  0
 26 27  2  0  0  0  0
 26 30  1  0  0  0  0
 27 31  1  0  0  0  0
 29 28  1  0  0  0  0
 30 29  2  0  0  0  0
 31 28  2  0  0  0  0
 32 26  1  0  0  0  0
 33 32  1  0  0  0  0
 34 33  1  0  0  0  0
M  END
>  <MODEL>
4

>  <REMARK>
 VINA RESULT:      -5.7      3.640      9.384
  Name = 
  6 active torsions:
  status: ('A' for Active; 'I' for Inactive)
    1  A    between atoms: C_1  and  C_19
    2  A    between atoms: O_3  and  C_13
    3  A    between atoms: O_3  and  C_17
    4  A    between atoms: C_11  and  C_14
    5  A    between atoms: C_11  and  C_25
    6  A    between atoms: C_12  and  C_28
                            x       y       z     vdW  Elec       q    Type
                         _______ _______ _______ _____ _____    ______ ____

>  <TORSDO>
F 6

$$$$
=
 OpenBabel11062407493D

 34 39  0  0  1  0  0  0  0  0999 V2000
  161.2530  204.2860  152.1010 C   0  0  2  0  0  3  0  0  0  0  0  0
  162.7410  206.4590  151.6440 C   0  0  1  0  0  3  0  0  0  0  0  0
  161.3890  205.2200  149.7520 C   0  0  2  0  0  3  0  0  0  0  0  0
  161.8410  206.2310  147.3290 C   0  0  2  0  0  3  0  0  0  0  0  0
  162.6980  206.5790  153.0350 O   0  0  0  0  0  1  0  0  0  0  0  0
  162.4870  207.6190  149.4420 C   0  0  0  0  0  2  0  0  0  0  0  0
  162.0550  205.1740  151.1270 C   0  0  2  0  0  3  0  0  0  0  0  0
  160.6150  206.8290  147.9900 C   0  0  0  0  0  2  0  0  0  0  0  0
  161.6010  203.8550  149.1060 C   0  0  2  0  0  3  0  0  0  0  0  0
  160.5180  203.1490  151.3540 C   0  0  0  0  0  2  0  0  0  0  0  0
  162.2730  207.7380  150.9540 C   0  0  1  0  0  3  0  0  0  0  0  0
  161.5530  204.8130  146.7930 C   0  0  0  0  0  2  0  0  0  0  0  0
  160.8820  203.8250  147.7590 C   0  0  1  0  0  3  0  0  0  0  0  0
  161.7910  206.3940  148.8490 C   0  0  2  0  0  0  0  0  0  0  0  0
  161.2170  202.6950  150.0600 C   0  0  0  0  0  2  0  0  0  0  0  0
  160.2790  200.9600  145.3180 C   0  0  0  0  0  0  0  0  0  0  0  0
  160.8310  199.8880  146.0240 C   0  0  0  0  0  3  0  0  0  0  0  0
  160.8540  202.4580  147.1400 C   0  0  0  0  0  0  0  0  0  0  0  0
  161.3940  200.0990  147.2860 C   0  0  0  0  0  3  0  0  0  0  0  0
  160.2890  202.2420  145.8730 C   0  0  0  0  0  3  0  0  0  0  0  0
  161.4050  201.3800  147.8430 C   0  0  0  0  0  3  0  0  0  0  0  0
  159.7330  200.7570  144.0940 F   0  0  0  0  0  0  0  0  0  0  0  0
  160.7350  205.4450  154.2520 C   0  0  0  0  0  1  0  0  0  0  0  0
  160.2190  205.1000  152.8680 C   0  0  0  0  0  2  0  0  0  0  0  0
  160.8290  208.0910  151.3190 C   0  0  0  0  0  2  0  0  0  0  0  0
  160.7900  210.5090  152.0290 C   0  0  0  0  0  0  0  0  0  0  0  0
  160.7610  209.1470  152.3780 C   0  0  0  0  0  0  0  0  0  0  0  0
  160.5470  209.7500  154.7200 C   0  0  0  0  0  3  0  0  0  0  0  0
  160.5930  211.1020  154.3790 C   0  0  0  0  0  3  0  0  0  0  0  0
  160.7120  211.4810  153.0390 C   0  0  0  0  0  3  0  0  0  0  0  0
  160.6270  208.7750  153.7230 C   0  0  0  0  0  3  0  0  0  0  0  0
  160.8910  210.8740  150.6810 O   0  0  0  0  0  0  0  0  0  0  0  0
  162.1160  211.2650  150.0770 C   0  0  0  0  0  2  0  0  0  0  0  0
  161.9620  211.2500  148.5710 C   0  0  0  0  0  1  0  0  0  0  0  0
  1 24  1  6  0  0  0
  2  5  1  1  0  0  0
  3  7  1  0  0  0  0
  4  8  1  0  0  0  0
  4 14  1  0  0  0  0
  6 11  1  0  0  0  0
  7  2  1  0  0  0  0
  7  1  1  0  0  0  0
  8 14  1  0  0  0  0
  9  3  1  0  0  0  0
  9 15  1  0  0  0  0
 10  1  1  0  0  0  0
 11 25  1  0  0  0  0
 11  2  1  0  0  0  0
 12  4  1  0  0  0  0
 12 13  1  0  0  0  0
 13  9  1  0  0  0  0
 14  6  1  0  0  0  0
 14  3  1  0  0  0  0
 15 10  1  0  0  0  0
 16 20  2  0  0  0  0
 16 17  1  0  0  0  0
 17 19  2  0  0  0  0
 18 13  1  0  0  0  0
 18 21  2  0  0  0  0
 19 21  1  0  0  0  0
 20 18  1  0  0  0  0
 22 16  1  0  0  0  0
 24 23  1  0  0  0  0
 25 27  1  0  0  0  0
 26 27  2  0  0  0  0
 26 30  1  0  0  0  0
 27 31  1  0  0  0  0
 29 28  1  0  0  0  0
 30 29  2  0  0  0  0
 31 28  2  0  0  0  0
 32 26  1  0  0  0  0
 33 32  1  0  0  0  0
 34 33  1  0  0  0  0
M  END
>  <MODEL>
5

>  <REMARK>
 VINA RESULT:      -5.4      3.528      9.075
  Name = 
  6 active torsions:
  status: ('A' for Active; 'I' for Inactive)
    1  A    between atoms: C_1  and  C_19
    2  A    between atoms: O_3  and  C_13
    3  A    between atoms: O_3  and  C_17
    4  A    between atoms: C_11  and  C_14
    5  A    between atoms: C_11  and  C_25
    6  A    between atoms: C_12  and  C_28
                            x       y       z     vdW  Elec       q    Type
                         _______ _______ _______ _____ _____    ______ ____

>  <TORSDO>
F 6

$$$$
=
 OpenBabel11062407493D

 34 39  0  0  1  0  0  0  0  0999 V2000
  162.0300  209.3670  150.8180 C   0  0  2  0  0  3  0  0  0  0  0  0
  162.9180  206.8940  151.3100 C   0  0  1  0  0  3  0  0  0  0  0  0
  161.2090  208.1440  152.8780 C   0  0  2  0  0  3  0  0  0  0  0  0
  160.6430  206.7730  155.0910 C   0  0  2  0  0  3  0  0  0  0  0  0
  163.3350  206.9560  149.9790 O   0  0  0  0  0  1  0  0  0  0  0  0
  161.7510  205.5510  153.0690 C   0  0  0  0  0  2  0  0  0  0  0  0
  162.3030  208.2200  151.8130 C   0  0  2  0  0  3  0  0  0  0  0  0
  159.6410  206.5270  153.9810 C   0  0  0  0  0  2  0  0  0  0  0  0
  161.3950  209.3470  153.7970 C   0  0  2  0  0  3  0  0  0  0  0  0
  161.2680  210.5310  151.4930 C   0  0  0  0  0  2  0  0  0  0  0  0
  162.0510  205.6640  151.5720 C   0  0  1  0  0  3  0  0  0  0  0  0
  160.4110  208.1440  155.7610 C   0  0  0  0  0  2  0  0  0  0  0  0
  160.2720  209.3600  154.8330 C   0  0  1  0  0  3  0  0  0  0  0  0
  161.0910  206.8120  153.6290 C   0  0  2  0  0  0  0  0  0  0  0  0
  161.5440  210.6680  153.0020 C   0  0  0  0  0  2  0  0  0  0  0  0
  159.1530  212.6610  156.3740 C   0  0  0  0  0  0  0  0  0  0  0  0
  160.2390  212.9490  157.2050 C   0  0  0  0  0  3  0  0  0  0  0  0
  160.2450  210.6170  155.6520 C   0  0  0  0  0  0  0  0  0  0  0  0
  161.3280  212.0730  157.2600 C   0  0  0  0  0  3  0  0  0  0  0  0
  159.1540  211.4990  155.5990 C   0  0  0  0  0  3  0  0  0  0  0  0
  161.3310  210.9100  156.4850 C   0  0  0  0  0  3  0  0  0  0  0  0
  158.0970  213.5090  156.3210 F   0  0  0  0  0  0  0  0  0  0  0  0
  161.7920  209.4090  148.3320 C   0  0  0  0  0  1  0  0  0  0  0  0
  161.2080  208.8840  149.6300 C   0  0  0  0  0  2  0  0  0  0  0  0
  160.7830  205.6640  150.7140 C   0  0  0  0  0  2  0  0  0  0  0  0
  161.1500  203.6890  149.1940 C   0  0  0  0  0  0  0  0  0  0  0  0
  161.0240  205.0790  149.3570 C   0  0  0  0  0  0  0  0  0  0  0  0
  161.2930  205.3870  146.9640 C   0  0  0  0  0  3  0  0  0  0  0  0
  161.4350  204.0090  146.8000 C   0  0  0  0  0  3  0  0  0  0  0  0
  161.3620  203.1620  147.9100 C   0  0  0  0  0  3  0  0  0  0  0  0
  161.0840  205.9210  148.2380 C   0  0  0  0  0  3  0  0  0  0  0  0
  161.0550  202.8510  150.3120 O   0  0  0  0  0  0  0  0  0  0  0  0
  160.8390  201.4500  150.2100 C   0  0  0  0  0  2  0  0  0  0  0  0
  159.4010  201.1900  149.8170 C   0  0  0  0  0  1  0  0  0  0  0  0
  1 24  1  6  0  0  0
  1 10  1  0  0  0  0
  1  7  1  0  0  0  0
  2  5  1  6  0  0  0
  2 11  1  0  0  0  0
  2  7  1  0  0  0  0
  3 14  1  0  0  0  0
  3  9  1  0  0  0  0
  4 12  1  0  0  0  0
  6 14  1  0  0  0  0
  7  3  1  0  0  0  0
  8  4  1  0  0  0  0
  9 13  1  0  0  0  0
 10 15  1  0  0  0  0
 11  6  1  0  0  0  0
 13 18  1  0  0  0  0
 13 12  1  0  0  0  0
 14  8  1  0  0  0  0
 14  4  1  0  0  0  0
 15  9  1  0  0  0  0
 16 17  1  0  0  0  0
 17 19  2  0  0  0  0
 18 21  2  0  0  0  0
 20 18  1  0  0  0  0
 20 16  2  0  0  0  0
 21 19  1  0  0  0  0
 22 16  1  0  0  0  0
 23 24  1  0  0  0  0
 25 11  1  0  0  0  0
 26 27  1  0  0  0  0
 26 32  1  0  0  0  0
 27 25  1  0  0  0  0
 28 31  1  0  0  0  0
 29 28  2  0  0  0  0
 29 30  1  0  0  0  0
 30 26  2  0  0  0  0
 31 27  2  0  0  0  0
 33 32  1  0  0  0  0
 34 33  1  0  0  0  0
M  END
>  <MODEL>
6

>  <REMARK>
 VINA RESULT:      -5.1      0.880      2.040
  Name = 
  6 active torsions:
  status: ('A' for Active; 'I' for Inactive)
    1  A    between atoms: C_1  and  C_19
    2  A    between atoms: O_3  and  C_13
    3  A    between atoms: O_3  and  C_17
    4  A    between atoms: C_11  and  C_14
    5  A    between atoms: C_11  and  C_25
    6  A    between atoms: C_12  and  C_28
                            x       y       z     vdW  Elec       q    Type
                         _______ _______ _______ _____ _____    ______ ____

>  <TORSDO>
F 6

$$$$
=
 OpenBabel11062407493D

 34 39  0  0  1  0  0  0  0  0999 V2000
  161.2030  206.1300  153.6700 C   0  0  2  0  0  3  0  0  0  0  0  0
  162.3740  208.3280  152.6980 C   0  0  1  0  0  3  0  0  0  0  0  0
  161.1790  206.5440  151.1710 C   0  0  2  0  0  3  0  0  0  0  0  0
  161.4560  207.0570  148.5720 C   0  0  2  0  0  3  0  0  0  0  0  0
  162.3330  208.7400  154.0320 O   0  0  0  0  0  1  0  0  0  0  0  0
  161.9350  208.9410  150.3120 C   0  0  0  0  0  2  0  0  0  0  0  0
  161.8630  206.8840  152.4960 C   0  0  2  0  0  3  0  0  0  0  0  0
  160.1690  207.6190  149.1430 C   0  0  0  0  0  2  0  0  0  0  0  0
  161.5670  205.1110  150.8220 C   0  0  2  0  0  3  0  0  0  0  0  0
  160.6210  204.7730  153.2130 C   0  0  0  0  0  2  0  0  0  0  0  0
  161.7260  209.3550  151.7720 C   0  0  1  0  0  3  0  0  0  0  0  0
  161.3570  205.5310  148.3620 C   0  0  0  0  0  2  0  0  0  0  0  0
  160.8410  204.6960  149.5440 C   0  0  1  0  0  3  0  0  0  0  0  0
  161.4040  207.5370  150.0230 C   0  0  2  0  0  0  0  0  0  0  0  0
  161.3580  204.1450  152.0160 C   0  0  0  0  0  2  0  0  0  0  0  0
  161.2140  201.4140  147.6430 C   0  0  0  0  0  0  0  0  0  0  0  0
  161.2790  200.5000  148.6990 C   0  0  0  0  0  3  0  0  0  0  0  0
  160.9920  203.2370  149.2310 C   0  0  0  0  0  0  0  0  0  0  0  0
  161.2010  200.9530  150.0200 C   0  0  0  0  0  3  0  0  0  0  0  0
  161.0700  202.7780  147.9060 C   0  0  0  0  0  3  0  0  0  0  0  0
  161.0580  202.3170  150.2850 C   0  0  0  0  0  3  0  0  0  0  0  0
  161.2890  200.9760  146.3630 F   0  0  0  0  0  0  0  0  0  0  0  0
  160.1940  206.9510  155.8010 C   0  0  0  0  0  1  0  0  0  0  0  0
  160.0780  206.9490  154.2890 C   0  0  0  0  0  2  0  0  0  0  0  0
  160.2530  209.5880  152.1150 C   0  0  0  0  0  2  0  0  0  0  0  0
  159.5900  211.4590  153.6670 C   0  0  0  0  0  0  0  0  0  0  0  0
  159.9590  211.0320  152.3790 C   0  0  0  0  0  0  0  0  0  0  0  0
  159.8350  213.3210  151.5800 C   0  0  0  0  0  3  0  0  0  0  0  0
  159.4520  213.7470  152.8530 C   0  0  0  0  0  3  0  0  0  0  0  0
  159.3320  212.8210  153.8930 C   0  0  0  0  0  3  0  0  0  0  0  0
  160.0910  211.9680  151.3450 C   0  0  0  0  0  3  0  0  0  0  0  0
  159.4920  210.5230  154.7030 O   0  0  0  0  0  0  0  0  0  0  0  0
  159.6900  210.8610  156.0690 C   0  0  0  0  0  2  0  0  0  0  0  0
  161.1710  211.0130  156.3410 C   0  0  0  0  0  1  0  0  0  0  0  0
  1 24  1  6  0  0  0
  2  5  1  1  0  0  0
  3  7  1  0  0  0  0
  4  8  1  0  0  0  0
  4 14  1  0  0  0  0
  6 11  1  0  0  0  0
  7  2  1  0  0  0  0
  7  1  1  0  0  0  0
  8 14  1  0  0  0  0
  9  3  1  0  0  0  0
  9 15  1  0  0  0  0
 10  1  1  0  0  0  0
 11 25  1  0  0  0  0
 11  2  1  0  0  0  0
 12  4  1  0  0  0  0
 12 13  1  0  0  0  0
 13  9  1  0  0  0  0
 14  6  1  0  0  0  0
 14  3  1  0  0  0  0
 15 10  1  0  0  0  0
 16 20  2  0  0  0  0
 16 17  1  0  0  0  0
 17 19  2  0  0  0  0
 18 13  1  0  0  0  0
 18 21  2  0  0  0  0
 19 21  1  0  0  0  0
 20 18  1  0  0  0  0
 22 16  1  0  0  0  0
 24 23  1  0  0  0  0
 25 27  1  0  0  0  0
 26 30  1  0  0  0  0
 26 32  1  0  0  0  0
 27 26  2  0  0  0  0
 28 29  1  0  0  0  0
 29 30  2  0  0  0  0
 31 28  2  0  0  0  0
 31 27  1  0  0  0  0
 32 33  1  0  0  0  0
 33 34  1  0  0  0  0
M  END
>  <MODEL>
7

>  <REMARK>
 VINA RESULT:      -5.1      3.373      8.912
  Name = 
  6 active torsions:
  status: ('A' for Active; 'I' for Inactive)
    1  A    between atoms: C_1  and  C_19
    2  A    between atoms: O_3  and  C_13
    3  A    between atoms: O_3  and  C_17
    4  A    between atoms: C_11  and  C_14
    5  A    between atoms: C_11  and  C_25
    6  A    between atoms: C_12  and  C_28
                            x       y       z     vdW  Elec       q    Type
                         _______ _______ _______ _____ _____    ______ ____

>  <TORSDO>
F 6

$$$$
=
 OpenBabel11062407493D

 34 39  0  0  1  0  0  0  0  0999 V2000
  162.2520  209.4370  150.0600 C   0  0  2  0  0  3  0  0  0  0  0  0
  163.1740  206.9380  149.8350 C   0  0  1  0  0  3  0  0  0  0  0  0
  161.5680  207.7050  151.7770 C   0  0  2  0  0  3  0  0  0  0  0  0
  161.1500  205.7960  153.5870 C   0  0  2  0  0  3  0  0  0  0  0  0
  163.5040  207.3520  148.5420 O   0  0  0  0  0  1  0  0  0  0  0  0
  162.1260  205.1620  151.2520 C   0  0  0  0  0  2  0  0  0  0  0  0
  162.5910  208.0760  150.7030 C   0  0  2  0  0  3  0  0  0  0  0  0
  160.0780  205.8280  152.5160 C   0  0  0  0  0  2  0  0  0  0  0  0
  161.8110  208.6310  152.9650 C   0  0  2  0  0  3  0  0  0  0  0  0
  161.5340  210.3710  151.0620 C   0  0  0  0  0  2  0  0  0  0  0  0
  162.3280  205.6670  149.8200 C   0  0  1  0  0  3  0  0  0  0  0  0
  160.9590  206.9410  154.6050 C   0  0  0  0  0  2  0  0  0  0  0  0
  160.7580  208.3540  154.0360 C   0  0  1  0  0  3  0  0  0  0  0  0
  161.5020  206.2210  152.1610 C   0  0  2  0  0  0  0  0  0  0  0  0
  161.9060  210.1160  152.5340 C   0  0  0  0  0  2  0  0  0  0  0  0
  159.7030  211.0530  156.5110 C   0  0  0  0  0  0  0  0  0  0  0  0
  160.8760  211.2030  157.2570 C   0  0  0  0  0  3  0  0  0  0  0  0
  160.7830  209.3530  155.1550 C   0  0  0  0  0  0  0  0  0  0  0  0
  162.0000  210.4310  156.9530 C   0  0  0  0  0  3  0  0  0  0  0  0
  159.6550  210.1320  155.4620 C   0  0  0  0  0  3  0  0  0  0  0  0
  161.9540  209.5080  155.9050 C   0  0  0  0  0  3  0  0  0  0  0  0
  158.6120  211.8010  156.8050 F   0  0  0  0  0  0  0  0  0  0  0  0
  161.4780  210.4620  147.9190 C   0  0  0  0  0  1  0  0  0  0  0  0
  161.3550  209.2640  148.8410 C   0  0  0  0  0  2  0  0  0  0  0  0
  161.0070  205.8660  149.0730 C   0  0  0  0  0  2  0  0  0  0  0  0
  161.3360  204.0270  147.3830 C   0  0  0  0  0  0  0  0  0  0  0  0
  161.0840  205.3820  147.6580 C   0  0  0  0  0  0  0  0  0  0  0  0
  160.9180  205.8370  145.2800 C   0  0  0  0  0  3  0  0  0  0  0  0
  161.1850  204.4960  145.0020 C   0  0  0  0  0  3  0  0  0  0  0  0
  161.3910  203.5940  146.0480 C   0  0  0  0  0  3  0  0  0  0  0  0
  160.8640  206.2780  146.6040 C   0  0  0  0  0  3  0  0  0  0  0  0
  161.5220  203.1300  148.4420 O   0  0  0  0  0  0  0  0  0  0  0  0
  160.4940  202.2710  148.9150 C   0  0  0  0  0  2  0  0  0  0  0  0
  160.8440  201.7870  150.3060 C   0  0  0  0  0  1  0  0  0  0  0  0
  1 24  1  6  0  0  0
  1  7  1  0  0  0  0
  1 10  1  0  0  0  0
  2  5  1  6  0  0  0
  2  7  1  0  0  0  0
  3 14  1  0  0  0  0
  3  9  1  0  0  0  0
  4 12  1  0  0  0  0
  6 14  1  0  0  0  0
  7  3  1  0  0  0  0
  8  4  1  0  0  0  0
  9 13  1  0  0  0  0
 10 15  1  0  0  0  0
 11  2  1  0  0  0  0
 11  6  1  0  0  0  0
 13 12  1  0  0  0  0
 13 18  1  0  0  0  0
 14  8  1  0  0  0  0
 14  4  1  0  0  0  0
 15  9  1  0  0  0  0
 16 22  1  0  0  0  0
 16 17  1  0  0  0  0
 18 20  1  0  0  0  0
 18 21  2  0  0  0  0
 19 17  2  0  0  0  0
 20 16  2  0  0  0  0
 21 19  1  0  0  0  0
 23 24  1  0  0  0  0
 25 11  1  0  0  0  0
 26 27  1  0  0  0  0
 26 32  1  0  0  0  0
 27 25  1  0  0  0  0
 28 31  1  0  0  0  0
 29 28  2  0  0  0  0
 29 30  1  0  0  0  0
 30 26  2  0  0  0  0
 31 27  2  0  0  0  0
 32 33  1  0  0  0  0
 33 34  1  0  0  0  0
M  END
>  <MODEL>
8

>  <REMARK>
 VINA RESULT:      -5.1      1.386      2.827
  Name = 
  6 active torsions:
  status: ('A' for Active; 'I' for Inactive)
    1  A    between atoms: C_1  and  C_19
    2  A    between atoms: O_3  and  C_13
    3  A    between atoms: O_3  and  C_17
    4  A    between atoms: C_11  and  C_14
    5  A    between atoms: C_11  and  C_25
    6  A    between atoms: C_12  and  C_28
                            x       y       z     vdW  Elec       q    Type
                         _______ _______ _______ _____ _____    ______ ____

>  <TORSDO>
F 6

$$$$
=
 OpenBabel11062407493D

 34 39  0  0  1  0  0  0  0  0999 V2000
  161.0920  206.0140  153.7150 C   0  0  2  0  0  3  0  0  0  0  0  0
  162.3690  208.2050  152.8700 C   0  0  1  0  0  3  0  0  0  0  0  0
  161.2030  206.5020  151.2330 C   0  0  2  0  0  3  0  0  0  0  0  0
  161.6240  207.0830  148.6670 C   0  0  2  0  0  3  0  0  0  0  0  0
  162.2730  208.5790  154.2130 O   0  0  0  0  0  1  0  0  0  0  0  0
  162.0660  208.9000  150.4860 C   0  0  0  0  0  2  0  0  0  0  0  0
  161.8300  206.7820  152.5990 C   0  0  2  0  0  3  0  0  0  0  0  0
  160.3260  207.6640  149.1910 C   0  0  0  0  0  2  0  0  0  0  0  0
  161.5690  205.0690  150.8590 C   0  0  2  0  0  3  0  0  0  0  0  0
  160.4960  204.6880  153.1890 C   0  0  0  0  0  2  0  0  0  0  0  0
  161.7960  209.2770  151.9460 C   0  0  1  0  0  3  0  0  0  0  0  0
  161.4940  205.5670  148.4060 C   0  0  0  0  0  2  0  0  0  0  0  0
  160.8970  204.7130  149.5340 C   0  0  1  0  0  3  0  0  0  0  0  0
  161.5120  207.5210  150.1280 C   0  0  2  0  0  0  0  0  0  0  0  0
  161.2750  204.0750  152.0110 C   0  0  0  0  0  2  0  0  0  0  0  0
  161.2060  201.4730  147.5500 C   0  0  0  0  0  0  0  0  0  0  0  0
  161.2660  200.5330  148.5830 C   0  0  0  0  0  3  0  0  0  0  0  0
  161.0230  203.2590  149.1850 C   0  0  0  0  0  0  0  0  0  0  0  0
  161.2040  200.9540  149.9150 C   0  0  0  0  0  3  0  0  0  0  0  0
  161.0850  202.8330  147.8480 C   0  0  0  0  0  3  0  0  0  0  0  0
  161.0830  202.3140  150.2150 C   0  0  0  0  0  3  0  0  0  0  0  0
  161.2660  201.0660  146.2590 F   0  0  0  0  0  0  0  0  0  0  0  0
  160.1070  206.9530  155.8090 C   0  0  0  0  0  1  0  0  0  0  0  0
  159.9590  206.8460  154.3040 C   0  0  0  0  0  2  0  0  0  0  0  0
  160.3140  209.5420  152.2230 C   0  0  0  0  0  2  0  0  0  0  0  0
  159.9020  211.9870  152.6700 C   0  0  0  0  0  0  0  0  0  0  0  0
  160.1160  210.6880  153.1650 C   0  0  0  0  0  0  0  0  0  0  0  0
  159.9040  211.5160  155.4370 C   0  0  0  0  0  3  0  0  0  0  0  0
  159.7080  212.8100  154.9500 C   0  0  0  0  0  3  0  0  0  0  0  0
  159.7060  213.0440  153.5730 C   0  0  0  0  0  3  0  0  0  0  0  0
  160.1040  210.4590  154.5470 C   0  0  0  0  0  3  0  0  0  0  0  0
  159.8830  212.2040  151.2870 O   0  0  0  0  0  0  0  0  0  0  0  0
  160.0800  213.4850  150.7040 C   0  0  0  0  0  2  0  0  0  0  0  0
  160.4680  213.3230  149.2500 C   0  0  0  0  0  1  0  0  0  0  0  0
  1 24  1  6  0  0  0
  2  5  1  1  0  0  0
  3  7  1  0  0  0  0
  4  8  1  0  0  0  0
  4 14  1  0  0  0  0
  6 11  1  0  0  0  0
  7  2  1  0  0  0  0
  7  1  1  0  0  0  0
  8 14  1  0  0  0  0
  9  3  1  0  0  0  0
  9 15  1  0  0  0  0
 10  1  1  0  0  0  0
 11 25  1  0  0  0  0
 11  2  1  0  0  0  0
 12  4  1  0  0  0  0
 12 13  1  0  0  0  0
 13  9  1  0  0  0  0
 14  6  1  0  0  0  0
 14  3  1  0  0  0  0
 15 10  1  0  0  0  0
 16 20  2  0  0  0  0
 16 17  1  0  0  0  0
 17 19  2  0  0  0  0
 18 13  1  0  0  0  0
 18 21  2  0  0  0  0
 19 21  1  0  0  0  0
 20 18  1  0  0  0  0
 22 16  1  0  0  0  0
 24 23  1  0  0  0  0
 25 27  1  0  0  0  0
 26 27  2  0  0  0  0
 26 30  1  0  0  0  0
 27 31  1  0  0  0  0
 29 28  1  0  0  0  0
 30 29  2  0  0  0  0
 31 28  2  0  0  0  0
 32 26  1  0  0  0  0
 33 32  1  0  0  0  0
 34 33  1  0  0  0  0
M  END
>  <MODEL>
9

>  <REMARK>
 VINA RESULT:      -5.0      3.385      8.675
  Name = 
  6 active torsions:
  status: ('A' for Active; 'I' for Inactive)
    1  A    between atoms: C_1  and  C_19
    2  A    between atoms: O_3  and  C_13
    3  A    between atoms: O_3  and  C_17
    4  A    between atoms: C_11  and  C_14
    5  A    between atoms: C_11  and  C_25
    6  A    between atoms: C_12  and  C_28
                            x       y       z     vdW  Elec       q    Type
                         _______ _______ _______ _____ _____    ______ ____

>  <TORSDO>
F 6

$$$$
