=
 OpenBabel11052422193D

 25 27  0  0  1  0  0  0  0  0999 V2000
  161.0590  208.7690  152.6510 C   0  0  1  0  0  0  0  0  0  0  0  0
  161.0080  207.5480  151.7550 C   0  0  0  0  0  0  0  0  0  0  0  0
  161.3030  207.4110  154.6270 C   0  0  0  0  0  2  0  0  0  0  0  0
  160.1880  209.9460  152.2000 C   0  0  0  0  0  2  0  0  0  0  0  0
  161.3050  210.1660  155.4490 C   0  0  0  0  0  1  0  0  0  0  0  0
  161.2990  206.0910  153.8410 C   0  0  0  0  0  2  0  0  0  0  0  0
  159.6700  210.5630  153.4970 C   0  0  2  0  0  3  0  0  0  0  0  0
  160.1200  212.0120  153.6280 C   0  0  0  0  0  1  0  0  0  0  0  0
  161.2320  205.1460  151.4830 C   0  0  0  0  0  0  0  0  0  0  0  0
  161.4100  203.7700  152.0270 C   0  0  0  0  0  1  0  0  0  0  0  0
  160.8760  207.6690  150.3680 C   0  0  0  0  0  3  0  0  0  0  0  0
  160.4610  208.3800  153.9260 N   0  0  1  0  0  0  0  0  0  0  0  0
  160.1300  209.6210  154.6240 C   0  0  1  0  0  3  0  0  0  0  0  0
  161.0870  205.3040  150.1410 N   0  0  0  0  0  0  0  0  0  0  0  0
  160.9160  206.5270  149.5700 C   0  0  0  0  0  0  0  0  0  0  0  0
  161.2050  206.2690  152.3310 C   0  0  0  0  0  0  0  0  0  0  0  0
  162.4060  209.1860  152.8610 O   0  0  0  0  0  0  0  0  0  0  0  0
  162.7860  210.1210  151.8820 C   0  0  0  0  0  1  0  0  0  0  0  0
  160.7460  206.6420  148.0980 C   0  0  0  0  0  2  0  0  0  0  0  0
  162.1040  206.6460  147.4170 C   0  0  0  0  0  2  0  0  0  0  0  0
  162.0340  205.9190  146.0820 C   0  0  0  0  0  2  0  0  0  0  0  0
  162.6000  204.5050  146.1650 C   0  0  0  0  0  0  0  0  0  0  0  0
  161.9480  203.7070  145.2470 F   0  0  0  0  0  0  0  0  0  0  0  0
  163.9530  204.5090  145.8760 F   0  0  0  0  0  0  0  0  0  0  0  0
  162.4020  203.9880  147.4330 F   0  0  0  0  0  0  0  0  0  0  0  0
  1 17  1  1  0  0  0
  1 12  1  0  0  0  0
  2 16  1  0  0  0  0
  2  1  1  0  0  0  0
  4  1  1  0  0  0  0
  4  7  1  0  0  0  0
  6  3  1  0  0  0  0
  7  8  1  1  0  0  0
  7 13  1  0  0  0  0
  9 10  1  0  0  0  0
  9 16  2  0  0  0  0
 11  2  2  0  0  0  0
 12 13  1  0  0  0  0
 12  3  1  1  0  0  0
 13  5  1  6  0  0  0
 14  9  1  0  0  0  0
 15 14  2  0  0  0  0
 15 11  1  0  0  0  0
 16  6  1  0  0  0  0
 18 17  1  0  0  0  0
 19 15  1  0  0  0  0
 20 19  1  0  0  0  0
 21 22  1  0  0  0  0
 21 20  1  0  0  0  0
 22 25  1  0  0  0  0
 23 22  1  0  0  0  0
 24 22  1  0  0  0  0
M  END
>  <MODEL>
1

>  <REMARK>
 VINA RESULT:      -7.6      0.000      0.000
  Name = 
  5 active torsions:
  status: ('A' for Active; 'I' for Inactive)
    1  A    between atoms: C_1  and  O_17
    2  A    between atoms: C_2  and  C_21
    3  A    between atoms: C_6  and  C_15
    4  A    between atoms: C_6  and  C_23
    5  A    between atoms: C_15  and  C_21
                            x       y       z     vdW  Elec       q    Type
                         _______ _______ _______ _____ _____    ______ ____

>  <TORSDO>
F 5

$$$$
=
 OpenBabel11052422193D

 25 27  0  0  1  0  0  0  0  0999 V2000
  161.4830  205.7920  148.0510 C   0  0  1  0  0  0  0  0  0  0  0  0
  161.5740  206.6980  149.2620 C   0  0  0  0  0  0  0  0  0  0  0  0
  160.8310  203.9080  149.4060 C   0  0  0  0  0  2  0  0  0  0  0  0
  162.5030  206.0770  146.9440 C   0  0  0  0  0  2  0  0  0  0  0  0
  160.9200  203.0330  146.6690 C   0  0  0  0  0  1  0  0  0  0  0  0
  160.8520  204.7150  150.7130 C   0  0  0  0  0  2  0  0  0  0  0  0
  162.8620  204.7030  146.3850 C   0  0  2  0  0  3  0  0  0  0  0  0
  162.5130  204.6080  144.9060 C   0  0  0  0  0  1  0  0  0  0  0  0
  161.2060  207.0560  151.6350 C   0  0  0  0  0  0  0  0  0  0  0  0
  160.8390  206.5780  152.9980 C   0  0  0  0  0  1  0  0  0  0  0  0
  161.9280  208.0460  149.1380 C   0  0  0  0  0  3  0  0  0  0  0  0
  161.8450  204.4500  148.5020 N   0  0  1  0  0  0  0  0  0  0  0  0
  162.1620  203.6820  147.2980 C   0  0  1  0  0  3  0  0  0  0  0  0
  161.5680  208.3570  151.4750 N   0  0  0  0  0  0  0  0  0  0  0  0
  161.9210  208.8660  150.2640 C   0  0  0  0  0  0  0  0  0  0  0  0
  161.1910  206.1890  150.5270 C   0  0  0  0  0  0  0  0  0  0  0  0
  160.1560  205.7810  147.5280 O   0  0  0  0  0  0  0  0  0  0  0  0
  160.0810  206.5760  146.3710 C   0  0  0  0  0  1  0  0  0  0  0  0
  162.3230  210.2930  150.1470 C   0  0  0  0  0  2  0  0  0  0  0  0
  161.9830  210.8160  148.7620 C   0  0  0  0  0  2  0  0  0  0  0  0
  161.9560  212.3380  148.7590 C   0  0  0  0  0  2  0  0  0  0  0  0
  162.7910  212.9270  147.6270 C   0  0  0  0  0  0  0  0  0  0  0  0
  163.9620  212.2040  147.5110 F   0  0  0  0  0  0  0  0  0  0  0  0
  162.1010  212.8570  146.4310 F   0  0  0  0  0  0  0  0  0  0  0  0
  163.1030  214.2460  147.9030 F   0  0  0  0  0  0  0  0  0  0  0  0
  1 17  1  6  0  0  0
  1 12  1  0  0  0  0
  1  2  1  0  0  0  0
  2 16  1  0  0  0  0
  3  6  1  0  0  0  0
  4  1  1  0  0  0  0
  7  8  1  6  0  0  0
  7  4  1  0  0  0  0
  7 13  1  0  0  0  0
  9 10  1  0  0  0  0
 11  2  2  0  0  0  0
 11 15  1  0  0  0  0
 12  3  1  6  0  0  0
 13  5  1  6  0  0  0
 13 12  1  0  0  0  0
 14  9  1  0  0  0  0
 15 14  2  0  0  0  0
 16  6  1  0  0  0  0
 16  9  2  0  0  0  0
 18 17  1  0  0  0  0
 19 15  1  0  0  0  0
 20 19  1  0  0  0  0
 21 20  1  0  0  0  0
 22 25  1  0  0  0  0
 22 21  1  0  0  0  0
 23 22  1  0  0  0  0
 24 22  1  0  0  0  0
M  END
>  <MODEL>
2

>  <REMARK>
 VINA RESULT:      -6.9      3.879      6.901
  Name = 
  5 active torsions:
  status: ('A' for Active; 'I' for Inactive)
    1  A    between atoms: C_1  and  O_17
    2  A    between atoms: C_2  and  C_21
    3  A    between atoms: C_6  and  C_15
    4  A    between atoms: C_6  and  C_23
    5  A    between atoms: C_15  and  C_21
                            x       y       z     vdW  Elec       q    Type
                         _______ _______ _______ _____ _____    ______ ____

>  <TORSDO>
F 5

$$$$
=
 OpenBabel11052422193D

 25 27  0  0  1  0  0  0  0  0999 V2000
  161.5240  205.4190  147.8520 C   0  0  1  0  0  0  0  0  0  0  0  0
  161.5850  205.9200  149.2810 C   0  0  0  0  0  0  0  0  0  0  0  0
  160.9880  203.1820  148.5720 C   0  0  0  0  0  2  0  0  0  0  0  0
  162.5130  206.0790  146.8860 C   0  0  0  0  0  2  0  0  0  0  0  0
  161.0850  203.1800  145.6990 C   0  0  0  0  0  1  0  0  0  0  0  0
  160.9860  203.5560  150.0620 C   0  0  0  0  0  2  0  0  0  0  0  0
  162.9340  204.9590  145.9390 C   0  0  2  0  0  3  0  0  0  0  0  0
  162.5700  205.2970  144.4990 C   0  0  0  0  0  1  0  0  0  0  0  0
  161.2320  205.5240  151.6500 C   0  0  0  0  0  0  0  0  0  0  0  0
  160.9080  204.6380  152.8040 C   0  0  0  0  0  1  0  0  0  0  0  0
  161.8680  207.2590  149.5710 C   0  0  0  0  0  3  0  0  0  0  0  0
  161.9610  204.0250  147.8770 N   0  0  1  0  0  0  0  0  0  0  0  0
  162.3000  203.6730  146.4980 C   0  0  1  0  0  3  0  0  0  0  0  0
  161.5240  206.8300  151.8920 N   0  0  0  0  0  0  0  0  0  0  0  0
  161.8340  207.6990  150.8920 C   0  0  0  0  0  0  0  0  0  0  0  0
  161.2460  205.0320  150.3320 C   0  0  0  0  0  0  0  0  0  0  0  0
  160.1930  205.4960  147.3470 O   0  0  0  0  0  0  0  0  0  0  0  0
  160.0730  206.5700  146.4480 C   0  0  0  0  0  1  0  0  0  0  0  0
  162.1610  209.1140  151.2130 C   0  0  0  0  0  2  0  0  0  0  0  0
  161.0860  209.7050  152.1090 C   0  0  0  0  0  2  0  0  0  0  0  0
  161.6970  210.2300  153.4010 C   0  0  0  0  0  2  0  0  0  0  0  0
  161.0430  209.6200  154.6360 C   0  0  0  0  0  0  0  0  0  0  0  0
  160.0700  210.4830  155.1000 F   0  0  0  0  0  0  0  0  0  0  0  0
  160.4560  208.4080  154.3230 F   0  0  0  0  0  0  0  0  0  0  0  0
  161.9880  209.4320  155.6290 F   0  0  0  0  0  0  0  0  0  0  0  0
  1 17  1  6  0  0  0
  1 12  1  0  0  0  0
  1  2  1  0  0  0  0
  2 11  2  0  0  0  0
  2 16  1  0  0  0  0
  3  6  1  0  0  0  0
  4  1  1  0  0  0  0
  6 16  1  0  0  0  0
  7  8  1  6  0  0  0
  7 13  1  0  0  0  0
  7  4  1  0  0  0  0
  9 14  1  0  0  0  0
  9 10  1  0  0  0  0
 11 15  1  0  0  0  0
 12  3  1  6  0  0  0
 13  5  1  6  0  0  0
 13 12  1  0  0  0  0
 15 19  1  0  0  0  0
 15 14  2  0  0  0  0
 16  9  2  0  0  0  0
 18 17  1  0  0  0  0
 19 20  1  0  0  0  0
 20 21  1  0  0  0  0
 21 22  1  0  0  0  0
 22 23  1  0  0  0  0
 22 25  1  0  0  0  0
 24 22  1  0  0  0  0
M  END
>  <MODEL>
3

>  <REMARK>
 VINA RESULT:      -6.6      3.891      7.460
  Name = 
  5 active torsions:
  status: ('A' for Active; 'I' for Inactive)
    1  A    between atoms: C_1  and  O_17
    2  A    between atoms: C_2  and  C_21
    3  A    between atoms: C_6  and  C_15
    4  A    between atoms: C_6  and  C_23
    5  A    between atoms: C_15  and  C_21
                            x       y       z     vdW  Elec       q    Type
                         _______ _______ _______ _____ _____    ______ ____

>  <TORSDO>
F 5

$$$$
=
 OpenBabel11052422193D

 25 27  0  0  1  0  0  0  0  0999 V2000
  161.4820  205.5030  148.1010 C   0  0  1  0  0  0  0  0  0  0  0  0
  161.5780  206.1510  149.4670 C   0  0  0  0  0  0  0  0  0  0  0  0
  160.8360  203.3870  149.0580 C   0  0  0  0  0  2  0  0  0  0  0  0
  162.4990  206.0030  147.0680 C   0  0  0  0  0  2  0  0  0  0  0  0
  160.9150  203.0720  146.2010 C   0  0  0  0  0  1  0  0  0  0  0  0
  160.8610  203.9200  150.4990 C   0  0  0  0  0  2  0  0  0  0  0  0
  162.8550  204.7660  146.2470 C   0  0  2  0  0  3  0  0  0  0  0  0
  162.5010  204.9660  144.7800 C   0  0  0  0  0  1  0  0  0  0  0  0
  161.2190  206.0320  151.8650 C   0  0  0  0  0  0  0  0  0  0  0  0
  160.8560  205.2930  153.1080 C   0  0  0  0  0  1  0  0  0  0  0  0
  161.9310  207.4970  149.6110 C   0  0  0  0  0  3  0  0  0  0  0  0
  161.8460  204.0990  148.2750 N   0  0  1  0  0  0  0  0  0  0  0  0
  162.1590  203.5840  146.9430 C   0  0  1  0  0  3  0  0  0  0  0  0
  161.5800  207.3390  151.9640 N   0  0  0  0  0  0  0  0  0  0  0  0
  161.9290  208.0780  150.8770 C   0  0  0  0  0  0  0  0  0  0  0  0
  161.2000  205.4010  150.6070 C   0  0  0  0  0  0  0  0  0  0  0  0
  160.1540  205.5940  147.5910 O   0  0  0  0  0  0  0  0  0  0  0  0
  160.0830  206.5780  146.5880 C   0  0  0  0  0  1  0  0  0  0  0  0
  162.3310  209.5000  151.0430 C   0  0  0  0  0  2  0  0  0  0  0  0
  161.9640  209.9840  152.4350 C   0  0  0  0  0  2  0  0  0  0  0  0
  160.7220  210.8630  152.3850 C   0  0  0  0  0  2  0  0  0  0  0  0
  159.9390  210.8300  153.6930 C   0  0  0  0  0  0  0  0  0  0  0  0
  160.4340  211.8050  154.5360 F   0  0  0  0  0  0  0  0  0  0  0  0
  158.5980  211.0780  153.4580 F   0  0  0  0  0  0  0  0  0  0  0  0
  160.0800  209.5960  154.3000 F   0  0  0  0  0  0  0  0  0  0  0  0
  1 17  1  6  0  0  0
  1 12  1  0  0  0  0
  1  2  1  0  0  0  0
  2 11  2  0  0  0  0
  2 16  1  0  0  0  0
  3  6  1  0  0  0  0
  4  1  1  0  0  0  0
  6 16  1  0  0  0  0
  7  8  1  6  0  0  0
  7 13  1  0  0  0  0
  7  4  1  0  0  0  0
  9 14  1  0  0  0  0
  9 10  1  0  0  0  0
 11 15  1  0  0  0  0
 12  3  1  6  0  0  0
 13  5  1  6  0  0  0
 13 12  1  0  0  0  0
 15 19  1  0  0  0  0
 15 14  2  0  0  0  0
 16  9  2  0  0  0  0
 18 17  1  0  0  0  0
 19 20  1  0  0  0  0
 21 20  1  0  0  0  0
 21 22  1  0  0  0  0
 22 25  1  0  0  0  0
 22 23  1  0  0  0  0
 24 22  1  0  0  0  0
M  END
>  <MODEL>
4

>  <REMARK>
 VINA RESULT:      -6.6      4.036      7.421
  Name = 
  5 active torsions:
  status: ('A' for Active; 'I' for Inactive)
    1  A    between atoms: C_1  and  O_17
    2  A    between atoms: C_2  and  C_21
    3  A    between atoms: C_6  and  C_15
    4  A    between atoms: C_6  and  C_23
    5  A    between atoms: C_15  and  C_21
                            x       y       z     vdW  Elec       q    Type
                         _______ _______ _______ _____ _____    ______ ____

>  <TORSDO>
F 5

$$$$
=
 OpenBabel11052422193D

 25 27  0  0  1  0  0  0  0  0999 V2000
  161.0420  208.8150  153.9180 C   0  0  1  0  0  0  0  0  0  0  0  0
  161.2310  207.8770  152.7430 C   0  0  0  0  0  0  0  0  0  0  0  0
  161.2300  210.7580  152.5020 C   0  0  0  0  0  2  0  0  0  0  0  0
  161.6400  208.3320  155.2430 C   0  0  0  0  0  2  0  0  0  0  0  0
  160.8030  211.6710  155.1950 C   0  0  0  0  0  1  0  0  0  0  0  0
  161.4020  209.9290  151.2200 C   0  0  0  0  0  2  0  0  0  0  0  0
  162.1530  209.6000  155.9210 C   0  0  2  0  0  3  0  0  0  0  0  0
  161.4610  209.8190  157.2600 C   0  0  0  0  0  1  0  0  0  0  0  0
  161.4240  207.5430  150.3460 C   0  0  0  0  0  0  0  0  0  0  0  0
  161.5500  208.0530  148.9510 C   0  0  0  0  0  1  0  0  0  0  0  0
  161.2130  206.4880  152.9110 C   0  0  0  0  0  3  0  0  0  0  0  0
  161.8150  210.0200  153.6220 N   0  0  1  0  0  0  0  0  0  0  0  0
  161.9770  210.7290  154.8910 C   0  0  1  0  0  3  0  0  0  0  0  0
  161.4140  206.1990  150.5520 N   0  0  0  0  0  0  0  0  0  0  0  0
  161.3080  205.6590  151.7960 C   0  0  0  0  0  0  0  0  0  0  0  0
  161.3240  208.4230  151.4390 C   0  0  0  0  0  0  0  0  0  0  0  0
  159.6660  209.1550  154.0750 O   0  0  0  0  0  0  0  0  0  0  0  0
  159.1040  208.4330  155.1430 C   0  0  0  0  0  1  0  0  0  0  0  0
  161.3190  204.1820  151.9670 C   0  0  0  0  0  2  0  0  0  0  0  0
  160.5520  203.5220  150.8340 C   0  0  0  0  0  2  0  0  0  0  0  0
  161.1600  202.1690  150.4940 C   0  0  0  0  0  2  0  0  0  0  0  0
  160.7570  201.6880  149.1040 C   0  0  0  0  0  0  0  0  0  0  0  0
  161.2980  200.4360  148.8890 F   0  0  0  0  0  0  0  0  0  0  0  0
  159.3800  201.6050  149.0030 F   0  0  0  0  0  0  0  0  0  0  0  0
  161.2380  202.5580  148.1420 F   0  0  0  0  0  0  0  0  0  0  0  0
  1 17  1  1  0  0  0
  1  4  1  0  0  0  0
  2 11  1  0  0  0  0
  2  1  1  0  0  0  0
  4  7  1  0  0  0  0
  6 16  1  0  0  0  0
  6  3  1  0  0  0  0
  7  8  1  1  0  0  0
  9 14  2  0  0  0  0
  9 16  1  0  0  0  0
 10  9  1  0  0  0  0
 12  3  1  6  0  0  0
 12  1  1  0  0  0  0
 12 13  1  0  0  0  0
 13  5  1  1  0  0  0
 13  7  1  0  0  0  0
 14 15  1  0  0  0  0
 15 19  1  0  0  0  0
 15 11  2  0  0  0  0
 16  2  2  0  0  0  0
 17 18  1  0  0  0  0
 20 19  1  0  0  0  0
 21 20  1  0  0  0  0
 22 21  1  0  0  0  0
 23 22  1  0  0  0  0
 24 22  1  0  0  0  0
 25 22  1  0  0  0  0
M  END
>  <MODEL>
5

>  <REMARK>
 VINA RESULT:      -6.5      2.071      3.778
  Name = 
  5 active torsions:
  status: ('A' for Active; 'I' for Inactive)
    1  A    between atoms: C_1  and  O_17
    2  A    between atoms: C_2  and  C_21
    3  A    between atoms: C_6  and  C_15
    4  A    between atoms: C_6  and  C_23
    5  A    between atoms: C_15  and  C_21
                            x       y       z     vdW  Elec       q    Type
                         _______ _______ _______ _____ _____    ______ ____

>  <TORSDO>
F 5

$$$$
=
 OpenBabel11052422193D

 25 27  0  0  1  0  0  0  0  0999 V2000
  161.4940  206.6140  150.5190 C   0  0  1  0  0  0  0  0  0  0  0  0
  161.3630  208.0540  150.9710 C   0  0  0  0  0  0  0  0  0  0  0  0
  162.1260  207.2840  148.2910 C   0  0  0  0  0  2  0  0  0  0  0  0
  160.5010  205.6360  151.1560 C   0  0  0  0  0  2  0  0  0  0  0  0
  162.1170  204.4100  148.3740 C   0  0  0  0  0  1  0  0  0  0  0  0
  162.0630  208.7840  148.6180 C   0  0  0  0  0  2  0  0  0  0  0  0
  160.1690  204.6430  150.0450 C   0  0  2  0  0  3  0  0  0  0  0  0
  160.5580  203.2260  150.4470 C   0  0  0  0  0  1  0  0  0  0  0  0
  161.6640  210.4200  150.5200 C   0  0  0  0  0  0  0  0  0  0  0  0
  161.9990  211.5570  149.6160 C   0  0  0  0  0  1  0  0  0  0  0  0
  161.0010  208.3740  152.2840 C   0  0  0  0  0  3  0  0  0  0  0  0
  161.1310  206.5830  149.1030 N   0  0  1  0  0  0  0  0  0  0  0  0
  160.8540  205.1840  148.7780 C   0  0  1  0  0  3  0  0  0  0  0  0
  161.2960  210.6910  151.8010 N   0  0  0  0  0  0  0  0  0  0  0  0
  160.9710  209.7080  152.6830 C   0  0  0  0  0  0  0  0  0  0  0  0
  161.7160  209.0880  150.0700 C   0  0  0  0  0  0  0  0  0  0  0  0
  162.8340  206.1540  150.6800 O   0  0  0  0  0  0  0  0  0  0  0  0
  163.0340  205.6830  151.9900 C   0  0  0  0  0  1  0  0  0  0  0  0
  160.5590  210.0600  154.0680 C   0  0  0  0  0  2  0  0  0  0  0  0
  161.2000  209.1040  155.0590 C   0  0  0  0  0  2  0  0  0  0  0  0
  160.1850  208.6580  156.1030 C   0  0  0  0  0  2  0  0  0  0  0  0
  159.9570  207.1500  156.0770 C   0  0  0  0  0  0  0  0  0  0  0  0
  160.6730  206.6060  155.0300 F   0  0  0  0  0  0  0  0  0  0  0  0
  160.3860  206.5770  157.2600 F   0  0  0  0  0  0  0  0  0  0  0  0
  158.6130  206.8770  155.8940 F   0  0  0  0  0  0  0  0  0  0  0  0
  1 17  1  1  0  0  0
  1  2  1  0  0  0  0
  1  4  1  0  0  0  0
  2 11  1  0  0  0  0
  3  6  1  0  0  0  0
  6 16  1  0  0  0  0
  7  8  1  1  0  0  0
  7  4  1  0  0  0  0
  9 14  2  0  0  0  0
 10  9  1  0  0  0  0
 11 15  2  0  0  0  0
 12  3  1  6  0  0  0
 12  1  1  0  0  0  0
 13  5  1  1  0  0  0
 13 12  1  0  0  0  0
 13  7  1  0  0  0  0
 14 15  1  0  0  0  0
 15 19  1  0  0  0  0
 16  9  1  0  0  0  0
 16  2  2  0  0  0  0
 17 18  1  0  0  0  0
 19 20  1  0  0  0  0
 20 21  1  0  0  0  0
 22 21  1  0  0  0  0
 22 24  1  0  0  0  0
 23 22  1  0  0  0  0
 25 22  1  0  0  0  0
M  END
>  <MODEL>
6

>  <REMARK>
 VINA RESULT:      -6.2      3.735      7.177
  Name = 
  5 active torsions:
  status: ('A' for Active; 'I' for Inactive)
    1  A    between atoms: C_1  and  O_17
    2  A    between atoms: C_2  and  C_21
    3  A    between atoms: C_6  and  C_15
    4  A    between atoms: C_6  and  C_23
    5  A    between atoms: C_15  and  C_21
                            x       y       z     vdW  Elec       q    Type
                         _______ _______ _______ _____ _____    ______ ____

>  <TORSDO>
F 5

$$$$
=
 OpenBabel11052422193D

 25 27  0  0  1  0  0  0  0  0999 V2000
  161.4370  205.2140  147.8920 C   0  0  1  0  0  0  0  0  0  0  0  0
  161.3830  205.4870  149.3820 C   0  0  0  0  0  0  0  0  0  0  0  0
  160.9520  202.8760  148.2190 C   0  0  0  0  0  2  0  0  0  0  0  0
  162.4580  206.0490  147.1120 C   0  0  0  0  0  2  0  0  0  0  0  0
  161.2370  203.3270  145.3940 C   0  0  0  0  0  1  0  0  0  0  0  0
  160.8350  203.0120  149.7450 C   0  0  0  0  0  2  0  0  0  0  0  0
  162.9880  205.1050  146.0360 C   0  0  2  0  0  3  0  0  0  0  0  0
  162.7060  205.6520  144.6440 C   0  0  0  0  0  1  0  0  0  0  0  0
  160.8920  204.7140  151.6300 C   0  0  0  0  0  0  0  0  0  0  0  0
  160.5310  203.6480  152.6080 C   0  0  0  0  0  1  0  0  0  0  0  0
  161.5880  206.7730  149.8940 C   0  0  0  0  0  3  0  0  0  0  0  0
  161.9310  203.8480  147.7330 N   0  0  1  0  0  0  0  0  0  0  0  0
  162.3740  203.7280  146.3450 C   0  0  1  0  0  3  0  0  0  0  0  0
  161.1110  205.9750  152.0900 N   0  0  0  0  0  0  0  0  0  0  0  0
  161.4480  206.9990  151.2610 C   0  0  0  0  0  0  0  0  0  0  0  0
  161.0140  204.4360  150.2560 C   0  0  0  0  0  0  0  0  0  0  0  0
  160.1400  205.3260  147.3110 O   0  0  0  0  0  0  0  0  0  0  0  0
  160.0160  206.5470  146.6250 C   0  0  0  0  0  1  0  0  0  0  0  0
  161.6930  208.3560  151.8190 C   0  0  0  0  0  2  0  0  0  0  0  0
  162.5080  209.1810  150.8380 C   0  0  0  0  0  2  0  0  0  0  0  0
  161.6910  210.3580  150.3220 C   0  0  0  0  0  2  0  0  0  0  0  0
  162.1130  210.7820  148.9200 C   0  0  0  0  0  0  0  0  0  0  0  0
  162.6400  209.6890  148.2610 F   0  0  0  0  0  0  0  0  0  0  0  0
  161.0230  211.2510  148.2100 F   0  0  0  0  0  0  0  0  0  0  0  0
  163.0770  211.7710  148.9920 F   0  0  0  0  0  0  0  0  0  0  0  0
  1 17  1  6  0  0  0
  1  2  1  0  0  0  0
  2 11  2  0  0  0  0
  2 16  1  0  0  0  0
  3  6  1  0  0  0  0
  4  1  1  0  0  0  0
  6 16  1  0  0  0  0
  7  8  1  6  0  0  0
  7 13  1  0  0  0  0
  7  4  1  0  0  0  0
  9 14  1  0  0  0  0
  9 10  1  0  0  0  0
 11 15  1  0  0  0  0
 12  1  1  0  0  0  0
 12  3  1  6  0  0  0
 13  5  1  6  0  0  0
 13 12  1  0  0  0  0
 15 19  1  0  0  0  0
 15 14  2  0  0  0  0
 16  9  2  0  0  0  0
 18 17  1  0  0  0  0
 20 19  1  0  0  0  0
 21 20  1  0  0  0  0
 22 25  1  0  0  0  0
 22 21  1  0  0  0  0
 23 22  1  0  0  0  0
 24 22  1  0  0  0  0
M  END
>  <MODEL>
7

>  <REMARK>
 VINA RESULT:      -6.2      3.281      6.717
  Name = 
  5 active torsions:
  status: ('A' for Active; 'I' for Inactive)
    1  A    between atoms: C_1  and  O_17
    2  A    between atoms: C_2  and  C_21
    3  A    between atoms: C_6  and  C_15
    4  A    between atoms: C_6  and  C_23
    5  A    between atoms: C_15  and  C_21
                            x       y       z     vdW  Elec       q    Type
                         _______ _______ _______ _____ _____    ______ ____

>  <TORSDO>
F 5

$$$$
=
 OpenBabel11052422193D

 25 27  0  0  1  0  0  0  0  0999 V2000
  160.8570  209.2960  154.1050 C   0  0  1  0  0  0  0  0  0  0  0  0
  161.1110  208.5230  152.8260 C   0  0  0  0  0  0  0  0  0  0  0  0
  160.5620  207.2650  155.3700 C   0  0  0  0  0  2  0  0  0  0  0  0
  160.1140  210.6240  153.9280 C   0  0  0  0  0  2  0  0  0  0  0  0
  160.2290  209.4800  157.1730 C   0  0  0  0  0  1  0  0  0  0  0  0
  160.8330  206.3560  154.1620 C   0  0  0  0  0  2  0  0  0  0  0  0
  159.2210  210.7350  155.1610 C   0  0  2  0  0  3  0  0  0  0  0  0
  159.5620  211.9780  155.9720 C   0  0  0  0  0  1  0  0  0  0  0  0
  161.4880  206.4020  151.7070 C   0  0  0  0  0  0  0  0  0  0  0  0
  161.5470  204.9130  151.6930 C   0  0  0  0  0  1  0  0  0  0  0  0
  161.3840  209.1800  151.6220 C   0  0  0  0  0  3  0  0  0  0  0  0
  159.9270  208.4970  154.9000 N   0  0  1  0  0  0  0  0  0  0  0  0
  159.3650  209.3970  155.9060 C   0  0  1  0  0  3  0  0  0  0  0  0
  161.7340  207.0770  150.5530 N   0  0  0  0  0  0  0  0  0  0  0  0
  161.6940  208.4350  150.4860 C   0  0  0  0  0  0  0  0  0  0  0  0
  161.1760  207.1100  152.8830 C   0  0  0  0  0  0  0  0  0  0  0  0
  162.0690  209.4840  154.8300 O   0  0  0  0  0  0  0  0  0  0  0  0
  162.6710  210.7020  154.4660 C   0  0  0  0  0  1  0  0  0  0  0  0
  161.9560  209.1230  149.1940 C   0  0  0  0  0  2  0  0  0  0  0  0
  162.2900  210.5840  149.4420 C   0  0  0  0  0  2  0  0  0  0  0  0
  161.6850  211.4610  148.3550 C   0  0  0  0  0  2  0  0  0  0  0  0
  162.6210  212.5900  147.9380 C   0  0  0  0  0  0  0  0  0  0  0  0
  163.9200  212.2300  148.2410 F   0  0  0  0  0  0  0  0  0  0  0  0
  162.5250  212.8190  146.5770 F   0  0  0  0  0  0  0  0  0  0  0  0
  162.3040  213.7490  148.6240 F   0  0  0  0  0  0  0  0  0  0  0  0
  1 17  1  1  0  0  0
  1 12  1  0  0  0  0
  2 16  1  0  0  0  0
  2  1  1  0  0  0  0
  4  1  1  0  0  0  0
  4  7  1  0  0  0  0
  6  3  1  0  0  0  0
  7 13  1  0  0  0  0
  7  8  1  1  0  0  0
  9 16  2  0  0  0  0
 10  9  1  0  0  0  0
 11  2  2  0  0  0  0
 12  3  1  1  0  0  0
 12 13  1  0  0  0  0
 13  5  1  1  0  0  0
 14  9  1  0  0  0  0
 15 14  2  0  0  0  0
 15 11  1  0  0  0  0
 16  6  1  0  0  0  0
 18 17  1  0  0  0  0
 19 20  1  0  0  0  0
 19 15  1  0  0  0  0
 21 20  1  0  0  0  0
 22 23  1  0  0  0  0
 22 21  1  0  0  0  0
 22 25  1  0  0  0  0
 24 22  1  0  0  0  0
M  END
>  <MODEL>
8

>  <REMARK>
 VINA RESULT:      -6.0      3.589      4.202
  Name = 
  5 active torsions:
  status: ('A' for Active; 'I' for Inactive)
    1  A    between atoms: C_1  and  O_17
    2  A    between atoms: C_2  and  C_21
    3  A    between atoms: C_6  and  C_15
    4  A    between atoms: C_6  and  C_23
    5  A    between atoms: C_15  and  C_21
                            x       y       z     vdW  Elec       q    Type
                         _______ _______ _______ _____ _____    ______ ____

>  <TORSDO>
F 5

$$$$
=
 OpenBabel11052422193D

 25 27  0  0  1  0  0  0  0  0999 V2000
  160.0930  210.7100  153.7710 C   0  0  1  0  0  0  0  0  0  0  0  0
  160.3370  209.2450  154.0730 C   0  0  0  0  0  0  0  0  0  0  0  0
  159.1790  211.0960  155.9680 C   0  0  0  0  0  2  0  0  0  0  0  0
  159.7010  211.0230  152.3230 C   0  0  0  0  0  2  0  0  0  0  0  0
  159.1150  213.5900  154.5410 C   0  0  0  0  0  1  0  0  0  0  0  0
  159.3980  209.6440  156.4210 C   0  0  0  0  0  2  0  0  0  0  0  0
  158.6980  212.1680  152.4330 C   0  0  2  0  0  3  0  0  0  0  0  0
  159.1990  213.4040  151.6970 C   0  0  0  0  0  1  0  0  0  0  0  0
  160.3710  207.4200  155.6720 C   0  0  0  0  0  0  0  0  0  0  0  0
  160.0940  206.8420  157.0180 C   0  0  0  0  0  1  0  0  0  0  0  0
  160.9110  208.3930  153.1230 C   0  0  0  0  0  3  0  0  0  0  0  0
  158.9080  211.1040  154.5310 N   0  0  1  0  0  0  0  0  0  0  0  0
  158.4340  212.3540  153.9370 C   0  0  1  0  0  3  0  0  0  0  0  0
  160.9180  206.6200  154.7180 N   0  0  0  0  0  0  0  0  0  0  0  0
  161.1950  207.0730  153.4660 C   0  0  0  0  0  0  0  0  0  0  0  0
  160.0720  208.7630  155.3770 C   0  0  0  0  0  0  0  0  0  0  0  0
  161.2080  211.5010  154.1770 O   0  0  0  0  0  0  0  0  0  0  0  0
  162.3370  210.6870  154.3770 C   0  0  0  0  0  1  0  0  0  0  0  0
  161.7780  206.1520  152.4550 C   0  0  0  0  0  2  0  0  0  0  0  0
  161.2040  204.7560  152.6320 C   0  0  0  0  0  2  0  0  0  0  0  0
  161.6960  203.8330  151.5260 C   0  0  0  0  0  2  0  0  0  0  0  0
  160.8320  203.9220  150.2730 C   0  0  0  0  0  0  0  0  0  0  0  0
  159.9890  205.0100  150.3870 F   0  0  0  0  0  0  0  0  0  0  0  0
  161.6250  204.0850  149.1510 F   0  0  0  0  0  0  0  0  0  0  0  0
  160.0710  202.7750  150.1380 F   0  0  0  0  0  0  0  0  0  0  0  0
  1  2  1  0  0  0  0
  1 17  1  1  0  0  0
  1 12  1  0  0  0  0
  2 16  1  0  0  0  0
  3  6  1  0  0  0  0
  4  7  1  0  0  0  0
  4  1  1  0  0  0  0
  7  8  1  1  0  0  0
  7 13  1  0  0  0  0
  9 10  1  0  0  0  0
 11 15  1  0  0  0  0
 11  2  2  0  0  0  0
 12  3  1  1  0  0  0
 13 12  1  0  0  0  0
 13  5  1  1  0  0  0
 14  9  1  0  0  0  0
 15 14  2  0  0  0  0
 16  9  2  0  0  0  0
 16  6  1  0  0  0  0
 17 18  1  0  0  0  0
 19 20  1  0  0  0  0
 19 15  1  0  0  0  0
 21 20  1  0  0  0  0
 22 23  1  0  0  0  0
 22 21  1  0  0  0  0
 24 22  1  0  0  0  0
 25 22  1  0  0  0  0
M  END
>  <MODEL>
9

>  <REMARK>
 VINA RESULT:      -5.9      2.675      4.075
  Name = 
  5 active torsions:
  status: ('A' for Active; 'I' for Inactive)
    1  A    between atoms: C_1  and  O_17
    2  A    between atoms: C_2  and  C_21
    3  A    between atoms: C_6  and  C_15
    4  A    between atoms: C_6  and  C_23
    5  A    between atoms: C_15  and  C_21
                            x       y       z     vdW  Elec       q    Type
                         _______ _______ _______ _____ _____    ______ ____

>  <TORSDO>
F 5

$$$$
