=
 OpenBabel11062408333D

 32 36  0  0  1  0  0  0  0  0999 V2000
  161.3280  206.3190  153.7280 C   0  0  0  0  0  2  0  0  0  0  0  0
  161.0110  206.4320  152.2360 C   0  0  2  0  0  3  0  0  0  0  0  0
  160.9430  205.0800  151.5800 C   0  0  0  0  0  0  0  0  0  0  0  0
  160.8290  203.9410  152.3860 C   0  0  0  0  0  3  0  0  0  0  0  0
  161.2080  202.2470  147.6540 C   0  0  0  0  0  3  0  0  0  0  0  0
  161.0710  204.9370  150.1880 C   0  0  0  0  0  3  0  0  0  0  0  0
  160.9600  201.2480  149.8500 C   0  0  0  0  0  3  0  0  0  0  0  0
  160.9500  202.5210  150.4290 C   0  0  0  0  0  0  0  0  0  0  0  0
  160.8290  202.6650  151.8130 C   0  0  0  0  0  3  0  0  0  0  0  0
  161.0700  203.6660  149.6110 C   0  0  0  0  0  0  0  0  0  0  0  0
  161.0890  201.1130  148.4650 C   0  0  0  0  0  3  0  0  0  0  0  0
  161.1990  203.5230  148.2260 C   0  0  0  0  0  3  0  0  0  0  0  0
  161.2060  208.0700  150.3800 C   0  0  1  0  0  3  0  0  0  0  0  0
  161.9510  207.3960  151.5170 C   0  0  1  0  0  3  0  0  0  0  0  0
  161.4490  208.8170  151.6740 C   0  0  0  0  0  2  0  0  0  0  0  0
  162.4030  207.7810  148.2690 C   0  0  0  0  0  2  0  0  0  0  0  0
  162.1900  208.5180  149.3550 C   0  0  0  0  0  3  0  0  0  0  0  0
  161.2230  207.6650  154.4420 C   0  0  0  0  0  2  0  0  0  0  0  0
  160.0790  207.7040  155.4560 C   0  0  1  0  0  3  0  0  0  0  0  0
  160.3390  206.8550  156.5340 O   0  0  0  0  0  1  0  0  0  0  0  0
  159.7140  209.1130  155.9460 C   0  0  1  0  0  3  0  0  0  0  0  0
  160.1710  209.3180  157.2500 O   0  0  0  0  0  1  0  0  0  0  0  0
  160.2600  210.2150  155.0350 C   0  0  0  0  0  2  0  0  0  0  0  0
  159.2020  211.2140  154.5570 C   0  0  1  0  0  3  0  0  0  0  0  0
  159.0660  211.2290  153.0380 C   0  0  2  0  0  3  0  0  0  0  0  0
  159.8590  212.3820  152.4470 C   0  0  2  0  0  3  0  0  0  0  0  0
  158.3650  212.5000  152.5930 C   0  0  1  0  0  3  0  0  0  0  0  0
  159.0410  213.0030  151.3320 C   0  0  0  0  0  2  0  0  0  0  0  0
  157.8600  210.9520  155.2350 C   0  0  0  0  0  2  0  0  0  0  0  0
  158.2110  213.3480  156.1300 C   0  0  0  0  0  1  0  0  0  0  0  0
  156.6830  211.8360  157.0770 O   0  0  0  0  0  0  0  0  0  0  0  0
  157.5260  212.0280  156.2170 C   0  0  0  0  0  0  0  0  0  0  0  0
  1 18  1  0  0  0  0
  2  1  1  1  0  0  0
  3  2  1  0  0  0  0
  3  4  1  0  0  0  0
  5 12  2  0  0  0  0
  5 11  1  0  0  0  0
  6  3  2  0  0  0  0
  7  8  1  0  0  0  0
  8  9  1  0  0  0  0
  9  4  2  0  0  0  0
 10  6  1  0  0  0  0
 10  8  2  0  0  0  0
 11  7  2  0  0  0  0
 12 10  1  0  0  0  0
 13 17  1  6  0  0  0
 13 14  1  0  0  0  0
 13 15  1  0  0  0  0
 14 15  1  0  0  0  0
 14  2  1  1  0  0  0
 16 17  2  0  0  0  0
 18 19  1  0  0  0  0
 19 21  1  0  0  0  0
 19 20  1  1  0  0  0
 21 22  1  1  0  0  0
 23 21  1  0  0  0  0
 24 23  1  6  0  0  0
 24 29  1  0  0  0  0
 25 24  1  1  0  0  0
 26 28  1  6  0  0  0
 26 27  1  0  0  0  0
 26 25  1  0  0  0  0
 27 28  1  6  0  0  0
 27 25  1  0  0  0  0
 29 32  1  0  0  0  0
 30 32  1  0  0  0  0
 32 31  2  0  0  0  0
M  END
>  <MODEL>
1

>  <REMARK>
 VINA RESULT:      -8.4      0.000      0.000
  Name = 
  12 active torsions:
  status: ('A' for Active; 'I' for Inactive)
    1  A    between atoms: C_1  and  C_5
    2  A    between atoms: C_1  and  C_30
    3  A    between atoms: C_2  and  C_5
    4  A    between atoms: C_3  and  C_20
    5  A    between atoms: C_4  and  C_24
    6  A    between atoms: C_4  and  C_30
    7  A    between atoms: C_5  and  C_14
    8  A    between atoms: C_13  and  C_29
    9  A    between atoms: C_15  and  C_20
   10  A    between atoms: C_15  and  C_26
   11  A    between atoms: C_16  and  C_20
   12  A    between atoms: C_16  and  C_24
                            x       y       z     vdW  Elec       q    Type
                         _______ _______ _______ _____ _____    ______ ____

>  <TORSDO>
F 12

$$$$
=
 OpenBabel11062408333D

 32 36  0  0  1  0  0  0  0  0999 V2000
  161.5610  207.2390  153.3190 C   0  0  0  0  0  2  0  0  0  0  0  0
  161.2300  207.1160  151.8310 C   0  0  2  0  0  3  0  0  0  0  0  0
  161.1020  205.6780  151.4080 C   0  0  0  0  0  0  0  0  0  0  0  0
  161.0470  204.6850  152.3930 C   0  0  0  0  0  3  0  0  0  0  0  0
  161.0330  202.2500  147.9810 C   0  0  0  0  0  3  0  0  0  0  0  0
  161.1160  205.3120  150.0520 C   0  0  0  0  0  3  0  0  0  0  0  0
  160.9590  201.6200  150.3210 C   0  0  0  0  0  3  0  0  0  0  0  0
  161.0020  202.9680  150.6860 C   0  0  0  0  0  0  0  0  0  0  0  0
  160.9940  203.3340  152.0350 C   0  0  0  0  0  3  0  0  0  0  0  0
  161.0620  203.9660  149.6880 C   0  0  0  0  0  0  0  0  0  0  0  0
  160.9740  201.2620  148.9700 C   0  0  0  0  0  3  0  0  0  0  0  0
  161.0770  203.6010  148.3380 C   0  0  0  0  0  3  0  0  0  0  0  0
  161.4610  209.0830  150.3330 C   0  0  1  0  0  3  0  0  0  0  0  0
  162.1960  207.9100  150.9560 C   0  0  1  0  0  3  0  0  0  0  0  0
  162.3740  209.3060  151.5210 C   0  0  0  0  0  2  0  0  0  0  0  0
  162.1190  210.7490  148.6710 C   0  0  0  0  0  2  0  0  0  0  0  0
  162.1660  209.4860  149.0830 C   0  0  0  0  0  3  0  0  0  0  0  0
  160.3290  207.5720  154.1580 C   0  0  0  0  0  2  0  0  0  0  0  0
  160.6480  208.5180  155.3170 C   0  0  1  0  0  3  0  0  0  0  0  0
  161.8590  208.1750  155.9220 O   0  0  0  0  0  1  0  0  0  0  0  0
  160.6280  210.0080  154.9430 C   0  0  1  0  0  3  0  0  0  0  0  0
  161.9260  210.5000  154.7980 O   0  0  0  0  0  1  0  0  0  0  0  0
  159.8320  210.2850  153.6660 C   0  0  0  0  0  2  0  0  0  0  0  0
  158.8050  211.4130  153.8010 C   0  0  1  0  0  3  0  0  0  0  0  0
  158.2270  211.5050  155.2100 C   0  0  2  0  0  3  0  0  0  0  0  0
  156.7500  211.1510  155.2000 C   0  0  2  0  0  3  0  0  0  0  0  0
  157.1720  212.5950  155.2670 C   0  0  1  0  0  3  0  0  0  0  0  0
  156.0240  212.1040  156.1280 C   0  0  0  0  0  2  0  0  0  0  0  0
  159.3980  212.7460  153.3530 C   0  0  0  0  0  2  0  0  0  0  0  0
  157.9000  213.4390  151.3680 C   0  0  0  0  0  1  0  0  0  0  0  0
  160.1340  212.7630  151.1120 O   0  0  0  0  0  0  0  0  0  0  0  0
  159.2110  212.9600  151.8860 C   0  0  0  0  0  0  0  0  0  0  0  0
  1 18  1  0  0  0  0
  2  1  1  1  0  0  0
  3  2  1  0  0  0  0
  3  4  1  0  0  0  0
  5 12  2  0  0  0  0
  5 11  1  0  0  0  0
  6  3  2  0  0  0  0
  7  8  1  0  0  0  0
  8  9  1  0  0  0  0
  9  4  2  0  0  0  0
 10  6  1  0  0  0  0
 10  8  2  0  0  0  0
 11  7  2  0  0  0  0
 12 10  1  0  0  0  0
 13 17  1  6  0  0  0
 13 14  1  0  0  0  0
 13 15  1  0  0  0  0
 14 15  1  0  0  0  0
 14  2  1  1  0  0  0
 16 17  2  0  0  0  0
 18 19  1  0  0  0  0
 19 20  1  6  0  0  0
 21 22  1  6  0  0  0
 21 19  1  0  0  0  0
 23 24  1  0  0  0  0
 23 21  1  0  0  0  0
 24 29  1  1  0  0  0
 25 24  1  6  0  0  0
 25 27  1  0  0  0  0
 26 25  1  0  0  0  0
 26 27  1  0  0  0  0
 26 28  1  1  0  0  0
 27 28  1  1  0  0  0
 30 32  1  0  0  0  0
 31 32  2  0  0  0  0
 32 29  1  0  0  0  0
M  END
>  <MODEL>
2

>  <REMARK>
 VINA RESULT:      -8.4      1.679      2.551
  Name = 
  12 active torsions:
  status: ('A' for Active; 'I' for Inactive)
    1  A    between atoms: C_1  and  C_5
    2  A    between atoms: C_1  and  C_30
    3  A    between atoms: C_2  and  C_5
    4  A    between atoms: C_3  and  C_20
    5  A    between atoms: C_4  and  C_24
    6  A    between atoms: C_4  and  C_30
    7  A    between atoms: C_5  and  C_14
    8  A    between atoms: C_13  and  C_29
    9  A    between atoms: C_15  and  C_20
   10  A    between atoms: C_15  and  C_26
   11  A    between atoms: C_16  and  C_20
   12  A    between atoms: C_16  and  C_24
                            x       y       z     vdW  Elec       q    Type
                         _______ _______ _______ _____ _____    ______ ____

>  <TORSDO>
F 12

$$$$
=
 OpenBabel11062408333D

 32 36  0  0  1  0  0  0  0  0999 V2000
  160.8450  207.7100  151.1710 C   0  0  0  0  0  2  0  0  0  0  0  0
  161.3910  206.3440  150.7530 C   0  0  2  0  0  3  0  0  0  0  0  0
  161.3520  206.1630  149.2600 C   0  0  0  0  0  0  0  0  0  0  0  0
  161.1810  207.2890  148.4460 C   0  0  0  0  0  3  0  0  0  0  0  0
  161.2390  203.3320  145.3260 C   0  0  0  0  0  3  0  0  0  0  0  0
  161.4060  204.8870  148.6770 C   0  0  0  0  0  3  0  0  0  0  0  0
  161.0190  205.7360  145.0910 C   0  0  0  0  0  3  0  0  0  0  0  0
  161.1330  205.8820  146.4770 C   0  0  0  0  0  0  0  0  0  0  0  0
  161.0740  207.1510  147.0580 C   0  0  0  0  0  3  0  0  0  0  0  0
  161.3020  204.7420  147.2930 C   0  0  0  0  0  0  0  0  0  0  0  0
  161.0720  204.4620  144.5180 C   0  0  0  0  0  3  0  0  0  0  0  0
  161.3540  203.4710  146.7130 C   0  0  0  0  0  3  0  0  0  0  0  0
  161.7350  204.0950  151.7490 C   0  0  1  0  0  3  0  0  0  0  0  0
  160.7220  205.1990  151.5090 C   0  0  1  0  0  3  0  0  0  0  0  0
  161.3610  205.0380  152.8730 C   0  0  0  0  0  2  0  0  0  0  0  0
  161.0260  201.8960  150.9520 C   0  0  0  0  0  2  0  0  0  0  0  0
  161.0120  202.8040  151.9240 C   0  0  0  0  0  3  0  0  0  0  0  0
  161.6640  208.3370  152.2970 C   0  0  0  0  0  2  0  0  0  0  0  0
  161.9690  209.8150  152.0470 C   0  0  1  0  0  3  0  0  0  0  0  0
  161.9690  210.0990  150.6800 O   0  0  0  0  0  1  0  0  0  0  0  0
  161.0550  210.7880  152.8070 C   0  0  1  0  0  3  0  0  0  0  0  0
  159.7140  210.4300  152.6550 O   0  0  0  0  0  1  0  0  0  0  0  0
  161.3940  210.8750  154.2970 C   0  0  0  0  0  2  0  0  0  0  0  0
  160.4150  210.1280  155.2070 C   0  0  1  0  0  3  0  0  0  0  0  0
  161.0670  208.9390  155.9060 C   0  0  2  0  0  3  0  0  0  0  0  0
  160.2160  207.6930  155.7340 C   0  0  2  0  0  3  0  0  0  0  0  0
  160.1760  208.4500  157.0340 C   0  0  1  0  0  3  0  0  0  0  0  0
  160.2080  206.9330  157.0460 C   0  0  0  0  0  2  0  0  0  0  0  0
  159.7700  211.0800  156.2110 C   0  0  0  0  0  2  0  0  0  0  0  0
  158.1600  212.9850  155.5430 C   0  0  0  0  0  1  0  0  0  0  0  0
  157.5470  210.7180  155.5100 O   0  0  0  0  0  0  0  0  0  0  0  0
  158.4240  211.5330  155.7440 C   0  0  0  0  0  0  0  0  0  0  0  0
  1 18  1  0  0  0  0
  2  1  1  6  0  0  0
  3  2  1  0  0  0  0
  4  3  2  0  0  0  0
  5 12  2  0  0  0  0
  6  3  1  0  0  0  0
  7  8  1  0  0  0  0
  8  9  2  0  0  0  0
  8 10  1  0  0  0  0
  9  4  1  0  0  0  0
 10  6  2  0  0  0  0
 11  7  2  0  0  0  0
 11  5  1  0  0  0  0
 12 10  1  0  0  0  0
 13 17  1  1  0  0  0
 13 15  1  0  0  0  0
 14  2  1  6  0  0  0
 14 13  1  0  0  0  0
 14 15  1  0  0  0  0
 16 17  2  0  0  0  0
 19 20  1  6  0  0  0
 19 18  1  0  0  0  0
 19 21  1  0  0  0  0
 21 22  1  1  0  0  0
 21 23  1  0  0  0  0
 24 23  1  1  0  0  0
 24 29  1  0  0  0  0
 25 24  1  6  0  0  0
 25 27  1  0  0  0  0
 26 25  1  0  0  0  0
 26 27  1  0  0  0  0
 26 28  1  1  0  0  0
 27 28  1  1  0  0  0
 30 32  1  0  0  0  0
 31 32  2  0  0  0  0
 32 29  1  0  0  0  0
M  END
>  <MODEL>
3

>  <REMARK>
 VINA RESULT:      -8.2      2.229      4.375
  Name = 
  12 active torsions:
  status: ('A' for Active; 'I' for Inactive)
    1  A    between atoms: C_1  and  C_5
    2  A    between atoms: C_1  and  C_30
    3  A    between atoms: C_2  and  C_5
    4  A    between atoms: C_3  and  C_20
    5  A    between atoms: C_4  and  C_24
    6  A    between atoms: C_4  and  C_30
    7  A    between atoms: C_5  and  C_14
    8  A    between atoms: C_13  and  C_29
    9  A    between atoms: C_15  and  C_20
   10  A    between atoms: C_15  and  C_26
   11  A    between atoms: C_16  and  C_20
   12  A    between atoms: C_16  and  C_24
                            x       y       z     vdW  Elec       q    Type
                         _______ _______ _______ _____ _____    ______ ____

>  <TORSDO>
F 12

$$$$
=
 OpenBabel11062408333D

 32 36  0  0  1  0  0  0  0  0999 V2000
  160.8720  205.4510  151.7610 C   0  0  0  0  0  2  0  0  0  0  0  0
  161.4500  206.8670  151.7950 C   0  0  2  0  0  3  0  0  0  0  0  0
  161.1880  207.5420  153.1130 C   0  0  0  0  0  0  0  0  0  0  0  0
  160.8470  206.7560  154.2210 C   0  0  0  0  0  3  0  0  0  0  0  0
  160.5810  211.5380  155.7910 C   0  0  0  0  0  3  0  0  0  0  0  0
  161.2020  208.9410  153.2320 C   0  0  0  0  0  3  0  0  0  0  0  0
  160.2300  209.3530  156.7840 C   0  0  0  0  0  3  0  0  0  0  0  0
  160.5520  208.7470  155.5660 C   0  0  0  0  0  0  0  0  0  0  0  0
  160.5330  207.3560  155.4450 C   0  0  0  0  0  3  0  0  0  0  0  0
  160.8910  209.5450  154.4510 C   0  0  0  0  0  0  0  0  0  0  0  0
  160.2450  210.7470  156.8950 C   0  0  0  0  0  3  0  0  0  0  0  0
  160.9040  210.9390  154.5690 C   0  0  0  0  0  3  0  0  0  0  0  0
  162.0660  207.6410  149.5170 C   0  0  1  0  0  3  0  0  0  0  0  0
  161.0030  207.7020  150.5980 C   0  0  1  0  0  3  0  0  0  0  0  0
  160.8070  206.8080  149.3900 C   0  0  0  0  0  2  0  0  0  0  0  0
  162.1850  210.0560  149.1650 C   0  0  0  0  0  2  0  0  0  0  0  0
  161.9500  208.8510  148.6550 C   0  0  0  0  0  3  0  0  0  0  0  0
  161.9010  204.4190  151.3030 C   0  0  0  0  0  2  0  0  0  0  0  0
  161.4400  202.9820  151.5500 C   0  0  1  0  0  3  0  0  0  0  0  0
  160.3270  202.9540  152.3940 O   0  0  0  0  0  1  0  0  0  0  0  0
  161.1750  202.1740  150.2710 C   0  0  1  0  0  3  0  0  0  0  0  0
  160.4630  201.0080  150.5600 O   0  0  0  0  0  1  0  0  0  0  0  0
  160.4270  202.9790  149.2070 C   0  0  0  0  0  2  0  0  0  0  0  0
  161.0550  202.9100  147.8120 C   0  0  1  0  0  3  0  0  0  0  0  0
  162.0350  204.0520  147.5610 C   0  0  2  0  0  3  0  0  0  0  0  0
  161.4020  205.1050  146.6680 C   0  0  2  0  0  3  0  0  0  0  0  0
  162.3810  204.1220  146.0850 C   0  0  1  0  0  3  0  0  0  0  0  0
  162.4450  205.5810  145.6770 C   0  0  0  0  0  2  0  0  0  0  0  0
  161.7090  201.5510  147.5760 C   0  0  0  0  0  2  0  0  0  0  0  0
  160.1660  201.5630  145.5070 C   0  0  0  0  0  1  0  0  0  0  0  0
  161.2970  199.6440  146.2510 O   0  0  0  0  0  0  0  0  0  0  0  0
  161.0690  200.8280  146.4360 C   0  0  0  0  0  0  0  0  0  0  0  0
  2  1  1  1  0  0  0
  2  3  1  0  0  0  0
  3  6  2  0  0  0  0
  3  4  1  0  0  0  0
  4  9  2  0  0  0  0
  5 11  1  0  0  0  0
  6 10  1  0  0  0  0
  7 11  2  0  0  0  0
  8  7  1  0  0  0  0
  9  8  1  0  0  0  0
 10 12  1  0  0  0  0
 10  8  2  0  0  0  0
 12  5  2  0  0  0  0
 13 17  1  6  0  0  0
 13 14  1  0  0  0  0
 14  2  1  1  0  0  0
 15 13  1  0  0  0  0
 15 14  1  0  0  0  0
 17 16  2  0  0  0  0
 18 19  1  0  0  0  0
 18  1  1  0  0  0  0
 19 20  1  1  0  0  0
 21 22  1  1  0  0  0
 21 19  1  0  0  0  0
 23 21  1  0  0  0  0
 24 29  1  1  0  0  0
 24 23  1  0  0  0  0
 25 24  1  6  0  0  0
 26 28  1  1  0  0  0
 26 25  1  0  0  0  0
 27 28  1  1  0  0  0
 27 26  1  0  0  0  0
 27 25  1  0  0  0  0
 30 32  1  0  0  0  0
 31 32  2  0  0  0  0
 32 29  1  0  0  0  0
M  END
>  <MODEL>
4

>  <REMARK>
 VINA RESULT:      -7.9      3.176      9.003
  Name = 
  12 active torsions:
  status: ('A' for Active; 'I' for Inactive)
    1  A    between atoms: C_1  and  C_5
    2  A    between atoms: C_1  and  C_30
    3  A    between atoms: C_2  and  C_5
    4  A    between atoms: C_3  and  C_20
    5  A    between atoms: C_4  and  C_24
    6  A    between atoms: C_4  and  C_30
    7  A    between atoms: C_5  and  C_14
    8  A    between atoms: C_13  and  C_29
    9  A    between atoms: C_15  and  C_20
   10  A    between atoms: C_15  and  C_26
   11  A    between atoms: C_16  and  C_20
   12  A    between atoms: C_16  and  C_24
                            x       y       z     vdW  Elec       q    Type
                         _______ _______ _______ _____ _____    ______ ____

>  <TORSDO>
F 12

$$$$
=
 OpenBabel11062408333D

 32 36  0  0  1  0  0  0  0  0999 V2000
  162.3890  208.2780  149.9740 C   0  0  0  0  0  2  0  0  0  0  0  0
  162.1020  209.6830  150.5070 C   0  0  2  0  0  3  0  0  0  0  0  0
  161.4270  209.6400  151.8500 C   0  0  0  0  0  0  0  0  0  0  0  0
  160.8630  210.8140  152.3630 C   0  0  0  0  0  3  0  0  0  0  0  0
  160.2730  207.3240  155.9510 C   0  0  0  0  0  3  0  0  0  0  0  0
  161.4220  208.4700  152.6280 C   0  0  0  0  0  3  0  0  0  0  0  0
  159.7090  209.6670  155.6870 C   0  0  0  0  0  3  0  0  0  0  0  0
  160.2760  209.6610  154.4090 C   0  0  0  0  0  0  0  0  0  0  0  0
  160.2860  210.8250  153.6370 C   0  0  0  0  0  3  0  0  0  0  0  0
  160.8470  208.4740  153.8990 C   0  0  0  0  0  0  0  0  0  0  0  0
  159.7080  208.4990  156.4560 C   0  0  0  0  0  3  0  0  0  0  0  0
  160.8430  207.3100  154.6730 C   0  0  0  0  0  3  0  0  0  0  0  0
  162.0400  211.8950  149.3800 C   0  0  1  0  0  3  0  0  0  0  0  0
  161.3560  210.5450  149.4920 C   0  0  1  0  0  3  0  0  0  0  0  0
  162.2550  210.8450  148.3100 C   0  0  0  0  0  2  0  0  0  0  0  0
  161.3610  214.1930  148.9020 C   0  0  0  0  0  2  0  0  0  0  0  0
  161.0510  212.9000  148.8970 C   0  0  0  0  0  3  0  0  0  0  0  0
  161.2070  207.7060  149.1940 C   0  0  0  0  0  2  0  0  0  0  0  0
  161.6370  207.0220  147.8950 C   0  0  1  0  0  3  0  0  0  0  0  0
  163.0090  206.7570  147.9030 O   0  0  0  0  0  1  0  0  0  0  0  0
  160.8380  205.7560  147.5520 C   0  0  1  0  0  3  0  0  0  0  0  0
  160.2930  205.8470  146.2690 O   0  0  0  0  0  1  0  0  0  0  0  0
  161.6760  204.4800  147.6600 C   0  0  0  0  0  2  0  0  0  0  0  0
  161.3310  203.6050  148.8680 C   0  0  1  0  0  3  0  0  0  0  0  0
  160.7440  204.4140  150.0200 C   0  0  2  0  0  3  0  0  0  0  0  0
  161.8130  204.7090  151.0580 C   0  0  2  0  0  3  0  0  0  0  0  0
  160.8150  203.6100  151.3060 C   0  0  1  0  0  3  0  0  0  0  0  0
  161.2000  204.5470  152.4350 C   0  0  0  0  0  2  0  0  0  0  0  0
  160.4080  202.4580  148.4640 C   0  0  0  0  0  2  0  0  0  0  0  0
  161.5790  200.3750  147.4880 C   0  0  0  0  0  1  0  0  0  0  0  0
  161.2040  200.6760  149.7860 O   0  0  0  0  0  0  0  0  0  0  0  0
  161.0670  201.1320  148.6630 C   0  0  0  0  0  0  0  0  0  0  0  0
  2  1  1  6  0  0  0
  2  3  1  0  0  0  0
  3  4  2  0  0  0  0
  3  6  1  0  0  0  0
  4  9  1  0  0  0  0
  5 11  1  0  0  0  0
  6 10  2  0  0  0  0
  7 11  2  0  0  0  0
  8  7  1  0  0  0  0
  9  8  2  0  0  0  0
 10  8  1  0  0  0  0
 10 12  1  0  0  0  0
 12  5  2  0  0  0  0
 13 17  1  6  0  0  0
 13 14  1  0  0  0  0
 14  2  1  1  0  0  0
 15 13  1  0  0  0  0
 15 14  1  0  0  0  0
 17 16  2  0  0  0  0
 18  1  1  0  0  0  0
 19 20  1  1  0  0  0
 19 18  1  0  0  0  0
 21 22  1  6  0  0  0
 21 23  1  0  0  0  0
 21 19  1  0  0  0  0
 24 23  1  6  0  0  0
 25 24  1  6  0  0  0
 25 26  1  0  0  0  0
 25 27  1  0  0  0  0
 26 27  1  0  0  0  0
 26 28  1  1  0  0  0
 27 28  1  1  0  0  0
 29 32  1  0  0  0  0
 29 24  1  0  0  0  0
 30 32  1  0  0  0  0
 32 31  2  0  0  0  0
M  END
>  <MODEL>
5

>  <REMARK>
 VINA RESULT:      -7.8      3.593      8.677
  Name = 
  12 active torsions:
  status: ('A' for Active; 'I' for Inactive)
    1  A    between atoms: C_1  and  C_5
    2  A    between atoms: C_1  and  C_30
    3  A    between atoms: C_2  and  C_5
    4  A    between atoms: C_3  and  C_20
    5  A    between atoms: C_4  and  C_24
    6  A    between atoms: C_4  and  C_30
    7  A    between atoms: C_5  and  C_14
    8  A    between atoms: C_13  and  C_29
    9  A    between atoms: C_15  and  C_20
   10  A    between atoms: C_15  and  C_26
   11  A    between atoms: C_16  and  C_20
   12  A    between atoms: C_16  and  C_24
                            x       y       z     vdW  Elec       q    Type
                         _______ _______ _______ _____ _____    ______ ____

>  <TORSDO>
F 12

$$$$
=
 OpenBabel11062408333D

 32 36  0  0  1  0  0  0  0  0999 V2000
  161.8300  208.9170  151.7470 C   0  0  0  0  0  2  0  0  0  0  0  0
  160.8560  208.7770  152.9180 C   0  0  2  0  0  3  0  0  0  0  0  0
  160.3810  210.1170  153.4080 C   0  0  0  0  0  0  0  0  0  0  0  0
  160.9010  210.6250  154.6050 C   0  0  0  0  0  3  0  0  0  0  0  0
  157.4270  213.9500  153.0960 C   0  0  0  0  0  3  0  0  0  0  0  0
  159.3740  210.8270  152.7330 C   0  0  0  0  0  3  0  0  0  0  0  0
  158.9570  213.7530  154.9670 C   0  0  0  0  0  3  0  0  0  0  0  0
  159.4360  212.5460  154.4500 C   0  0  0  0  0  0  0  0  0  0  0  0
  160.4330  211.8370  155.1240 C   0  0  0  0  0  3  0  0  0  0  0  0
  158.9040  212.0370  153.2440 C   0  0  0  0  0  0  0  0  0  0  0  0
  157.9540  214.4530  154.2900 C   0  0  0  0  0  3  0  0  0  0  0  0
  157.9010  212.7430  152.5720 C   0  0  0  0  0  3  0  0  0  0  0  0
  160.2710  207.2300  154.7700 C   0  0  1  0  0  3  0  0  0  0  0  0
  161.4170  207.8990  154.0340 C   0  0  1  0  0  3  0  0  0  0  0  0
  161.0850  206.4460  153.7630 C   0  0  0  0  0  2  0  0  0  0  0  0
  160.0880  207.3910  157.2020 C   0  0  0  0  0  2  0  0  0  0  0  0
  160.7190  206.8820  156.1490 C   0  0  0  0  0  3  0  0  0  0  0  0
  161.6220  207.8330  150.6920 C   0  0  0  0  0  2  0  0  0  0  0  0
  161.4080  208.4110  149.2930 C   0  0  1  0  0  3  0  0  0  0  0  0
  162.0500  209.6440  149.1590 O   0  0  0  0  0  1  0  0  0  0  0  0
  161.8030  207.4630  148.1490 C   0  0  1  0  0  3  0  0  0  0  0  0
  163.0810  206.9400  148.3580 O   0  0  0  0  0  1  0  0  0  0  0  0
  160.8080  206.3170  147.9610 C   0  0  0  0  0  2  0  0  0  0  0  0
  161.3030  204.9650  148.4810 C   0  0  1  0  0  3  0  0  0  0  0  0
  160.5780  204.5330  149.7520 C   0  0  2  0  0  3  0  0  0  0  0  0
  161.5770  204.2670  150.8650 C   0  0  2  0  0  3  0  0  0  0  0  0
  160.9710  203.1120  150.1140 C   0  0  1  0  0  3  0  0  0  0  0  0
  161.1340  203.0300  151.6200 C   0  0  0  0  0  2  0  0  0  0  0  0
  161.2080  203.8960  147.3940 C   0  0  0  0  0  2  0  0  0  0  0  0
  163.2440  204.6940  146.0220 C   0  0  0  0  0  1  0  0  0  0  0  0
  161.0870  204.4950  145.1160 O   0  0  0  0  0  0  0  0  0  0  0  0
  161.7920  204.3770  146.1050 C   0  0  0  0  0  0  0  0  0  0  0  0
  2  1  1  6  0  0  0
  2  3  1  0  0  0  0
  3  4  1  0  0  0  0
  4  9  2  0  0  0  0
  5 11  1  0  0  0  0
  6 10  1  0  0  0  0
  6  3  2  0  0  0  0
  8  7  1  0  0  0  0
  8  9  1  0  0  0  0
 10  8  2  0  0  0  0
 11  7  2  0  0  0  0
 12  5  2  0  0  0  0
 12 10  1  0  0  0  0
 13 17  1  1  0  0  0
 14  2  1  6  0  0  0
 14 13  1  0  0  0  0
 15 14  1  0  0  0  0
 15 13  1  0  0  0  0
 17 16  2  0  0  0  0
 18  1  1  0  0  0  0
 19 20  1  1  0  0  0
 19 18  1  0  0  0  0
 21 22  1  1  0  0  0
 21 19  1  0  0  0  0
 23 21  1  0  0  0  0
 23 24  1  0  0  0  0
 24 29  1  6  0  0  0
 25 24  1  6  0  0  0
 25 27  1  0  0  0  0
 25 26  1  0  0  0  0
 26 28  1  1  0  0  0
 27 26  1  0  0  0  0
 27 28  1  1  0  0  0
 30 32  1  0  0  0  0
 31 32  2  0  0  0  0
 32 29  1  0  0  0  0
M  END
>  <MODEL>
6

>  <REMARK>
 VINA RESULT:      -7.8      3.213      9.356
  Name = 
  12 active torsions:
  status: ('A' for Active; 'I' for Inactive)
    1  A    between atoms: C_1  and  C_5
    2  A    between atoms: C_1  and  C_30
    3  A    between atoms: C_2  and  C_5
    4  A    between atoms: C_3  and  C_20
    5  A    between atoms: C_4  and  C_24
    6  A    between atoms: C_4  and  C_30
    7  A    between atoms: C_5  and  C_14
    8  A    between atoms: C_13  and  C_29
    9  A    between atoms: C_15  and  C_20
   10  A    between atoms: C_15  and  C_26
   11  A    between atoms: C_16  and  C_20
   12  A    between atoms: C_16  and  C_24
                            x       y       z     vdW  Elec       q    Type
                         _______ _______ _______ _____ _____    ______ ____

>  <TORSDO>
F 12

$$$$
=
 OpenBabel11062408333D

 32 36  0  0  1  0  0  0  0  0999 V2000
  162.3410  208.4310  150.9360 C   0  0  0  0  0  2  0  0  0  0  0  0
  162.1190  209.9310  151.1320 C   0  0  2  0  0  3  0  0  0  0  0  0
  161.3730  210.2200  152.4050 C   0  0  0  0  0  0  0  0  0  0  0  0
  161.9580  209.8700  153.6280 C   0  0  0  0  0  3  0  0  0  0  0  0
  157.3910  211.6770  154.7570 C   0  0  0  0  0  3  0  0  0  0  0  0
  160.0750  210.7590  152.3850 C   0  0  0  0  0  3  0  0  0  0  0  0
  159.2740  210.7930  156.0030 C   0  0  0  0  0  3  0  0  0  0  0  0
  159.9770  210.6050  154.8090 C   0  0  0  0  0  0  0  0  0  0  0  0
  161.2640  210.0640  154.8270 C   0  0  0  0  0  3  0  0  0  0  0  0
  159.3790  210.9560  153.5780 C   0  0  0  0  0  0  0  0  0  0  0  0
  157.9830  211.3280  155.9760 C   0  0  0  0  0  3  0  0  0  0  0  0
  158.0870  211.4910  153.5590 C   0  0  0  0  0  3  0  0  0  0  0  0
  162.5650  211.2590  149.0810 C   0  0  1  0  0  3  0  0  0  0  0  0
  161.4850  210.5870  149.9080 C   0  0  1  0  0  3  0  0  0  0  0  0
  161.9980  209.9240  148.6450 C   0  0  0  0  0  2  0  0  0  0  0  0
  162.7070  213.3240  147.7820 C   0  0  0  0  0  2  0  0  0  0  0  0
  161.9490  212.3480  148.2730 C   0  0  0  0  0  3  0  0  0  0  0  0
  161.2550  207.5950  151.6100 C   0  0  0  0  0  2  0  0  0  0  0  0
  161.8170  206.3530  152.3020 C   0  0  1  0  0  3  0  0  0  0  0  0
  161.3900  206.2860  153.6300 O   0  0  0  0  0  1  0  0  0  0  0  0
  161.5270  205.0340  151.5690 C   0  0  1  0  0  3  0  0  0  0  0  0
  160.8300  204.1500  152.3950 O   0  0  0  0  0  1  0  0  0  0  0  0
  160.7460  205.2400  150.2690 C   0  0  0  0  0  2  0  0  0  0  0  0
  161.1770  204.3160  149.1260 C   0  0  1  0  0  3  0  0  0  0  0  0
  160.5200  202.9420  149.2140 C   0  0  2  0  0  3  0  0  0  0  0  0
  161.5700  201.8670  149.4300 C   0  0  2  0  0  3  0  0  0  0  0  0
  160.9840  202.0720  148.0590 C   0  0  1  0  0  3  0  0  0  0  0  0
  161.2070  200.6650  148.5810 C   0  0  0  0  0  2  0  0  0  0  0  0
  160.9220  204.9710  147.7710 C   0  0  0  0  0  2  0  0  0  0  0  0
  162.9610  204.7050  146.2110 C   0  0  0  0  0  1  0  0  0  0  0  0
  162.5680  206.6360  147.4870 O   0  0  0  0  0  0  0  0  0  0  0  0
  162.1820  205.5190  147.1850 C   0  0  0  0  0  0  0  0  0  0  0  0
  1 18  1  0  0  0  0
  2  1  1  6  0  0  0
  2  3  1  0  0  0  0
  3  4  1  0  0  0  0
  4  9  2  0  0  0  0
  5 11  1  0  0  0  0
  6  3  2  0  0  0  0
  6 10  1  0  0  0  0
  8  9  1  0  0  0  0
  8  7  1  0  0  0  0
 10  8  2  0  0  0  0
 11  7  2  0  0  0  0
 12 10  1  0  0  0  0
 12  5  2  0  0  0  0
 13 17  1  6  0  0  0
 13 14  1  0  0  0  0
 14  2  1  1  0  0  0
 15 13  1  0  0  0  0
 15 14  1  0  0  0  0
 16 17  2  0  0  0  0
 18 19  1  0  0  0  0
 19 20  1  1  0  0  0
 21 19  1  0  0  0  0
 21 22  1  1  0  0  0
 23 21  1  0  0  0  0
 24 29  1  6  0  0  0
 24 23  1  0  0  0  0
 25 24  1  6  0  0  0
 25 26  1  0  0  0  0
 26 28  1  1  0  0  0
 27 28  1  1  0  0  0
 27 25  1  0  0  0  0
 27 26  1  0  0  0  0
 30 32  1  0  0  0  0
 32 31  2  0  0  0  0
 32 29  1  0  0  0  0
M  END
>  <MODEL>
7

>  <REMARK>
 VINA RESULT:      -7.6      2.622      8.573
  Name = 
  12 active torsions:
  status: ('A' for Active; 'I' for Inactive)
    1  A    between atoms: C_1  and  C_5
    2  A    between atoms: C_1  and  C_30
    3  A    between atoms: C_2  and  C_5
    4  A    between atoms: C_3  and  C_20
    5  A    between atoms: C_4  and  C_24
    6  A    between atoms: C_4  and  C_30
    7  A    between atoms: C_5  and  C_14
    8  A    between atoms: C_13  and  C_29
    9  A    between atoms: C_15  and  C_20
   10  A    between atoms: C_15  and  C_26
   11  A    between atoms: C_16  and  C_20
   12  A    between atoms: C_16  and  C_24
                            x       y       z     vdW  Elec       q    Type
                         _______ _______ _______ _____ _____    ______ ____

>  <TORSDO>
F 12

$$$$
=
 OpenBabel11062408333D

 32 36  0  0  1  0  0  0  0  0999 V2000
  162.4130  208.4200  150.9420 C   0  0  0  0  0  2  0  0  0  0  0  0
  162.1460  209.9170  151.1080 C   0  0  2  0  0  3  0  0  0  0  0  0
  161.4170  210.2120  152.3900 C   0  0  0  0  0  0  0  0  0  0  0  0
  162.0240  209.8760  153.6070 C   0  0  0  0  0  3  0  0  0  0  0  0
  157.4620  211.6620  154.7910 C   0  0  0  0  0  3  0  0  0  0  0  0
  160.1160  210.7420  152.3860 C   0  0  0  0  0  3  0  0  0  0  0  0
  159.3700  210.8010  156.0150 C   0  0  0  0  0  3  0  0  0  0  0  0
  160.0550  210.6080  154.8120 C   0  0  0  0  0  0  0  0  0  0  0  0
  161.3470  210.0760  154.8150 C   0  0  0  0  0  3  0  0  0  0  0  0
  159.4370  210.9450  153.5880 C   0  0  0  0  0  0  0  0  0  0  0  0
  158.0750  211.3280  156.0030 C   0  0  0  0  0  3  0  0  0  0  0  0
  158.1410  211.4710  153.5830 C   0  0  0  0  0  3  0  0  0  0  0  0
  162.5090  211.1840  149.0030 C   0  0  1  0  0  3  0  0  0  0  0  0
  161.4650  210.5220  149.8830 C   0  0  1  0  0  3  0  0  0  0  0  0
  161.9510  209.8270  148.6280 C   0  0  0  0  0  2  0  0  0  0  0  0
  162.5730  212.9760  147.3420 C   0  0  0  0  0  2  0  0  0  0  0  0
  161.8500  212.2360  148.1790 C   0  0  0  0  0  3  0  0  0  0  0  0
  161.2530  207.5680  151.4520 C   0  0  0  0  0  2  0  0  0  0  0  0
  161.7250  206.2760  152.1210 C   0  0  1  0  0  3  0  0  0  0  0  0
  161.2490  206.1910  153.4310 O   0  0  0  0  0  1  0  0  0  0  0  0
  161.3930  204.9990  151.3350 C   0  0  1  0  0  3  0  0  0  0  0  0
  160.8490  204.0260  152.1770 O   0  0  0  0  0  1  0  0  0  0  0  0
  160.4380  205.2540  150.1670 C   0  0  0  0  0  2  0  0  0  0  0  0
  160.8830  204.6250  148.8440 C   0  0  1  0  0  3  0  0  0  0  0  0
  161.7790  205.5560  148.0330 C   0  0  2  0  0  3  0  0  0  0  0  0
  161.1520  205.8460  146.6810 C   0  0  2  0  0  3  0  0  0  0  0  0
  162.2700  204.8440  146.7860 C   0  0  1  0  0  3  0  0  0  0  0  0
  162.2470  205.8280  145.6320 C   0  0  0  0  0  2  0  0  0  0  0  0
  161.5530  203.2740  149.0830 C   0  0  0  0  0  2  0  0  0  0  0  0
  160.9290  201.4100  147.4090 C   0  0  0  0  0  1  0  0  0  0  0  0
  159.7280  201.8110  149.3860 O   0  0  0  0  0  0  0  0  0  0  0  0
  160.6620  202.1450  148.6760 C   0  0  0  0  0  0  0  0  0  0  0  0
  1 18  1  0  0  0  0
  2  1  1  6  0  0  0
  2  3  1  0  0  0  0
  3  4  1  0  0  0  0
  4  9  2  0  0  0  0
  5 11  1  0  0  0  0
  6  3  2  0  0  0  0
  6 10  1  0  0  0  0
  8  9  1  0  0  0  0
  8  7  1  0  0  0  0
 10  8  2  0  0  0  0
 11  7  2  0  0  0  0
 12 10  1  0  0  0  0
 12  5  2  0  0  0  0
 13 17  1  6  0  0  0
 13 14  1  0  0  0  0
 14  2  1  1  0  0  0
 15 13  1  0  0  0  0
 15 14  1  0  0  0  0
 16 17  2  0  0  0  0
 18 19  1  0  0  0  0
 19 20  1  1  0  0  0
 21 19  1  0  0  0  0
 21 22  1  1  0  0  0
 23 21  1  0  0  0  0
 24 29  1  1  0  0  0
 24 23  1  0  0  0  0
 25 24  1  1  0  0  0
 26 28  1  6  0  0  0
 26 27  1  0  0  0  0
 26 25  1  0  0  0  0
 27 28  1  6  0  0  0
 27 25  1  0  0  0  0
 30 32  1  0  0  0  0
 32 29  1  0  0  0  0
 32 31  2  0  0  0  0
M  END
>  <MODEL>
8

>  <REMARK>
 VINA RESULT:      -7.6      2.640      8.408
  Name = 
  12 active torsions:
  status: ('A' for Active; 'I' for Inactive)
    1  A    between atoms: C_1  and  C_5
    2  A    between atoms: C_1  and  C_30
    3  A    between atoms: C_2  and  C_5
    4  A    between atoms: C_3  and  C_20
    5  A    between atoms: C_4  and  C_24
    6  A    between atoms: C_4  and  C_30
    7  A    between atoms: C_5  and  C_14
    8  A    between atoms: C_13  and  C_29
    9  A    between atoms: C_15  and  C_20
   10  A    between atoms: C_15  and  C_26
   11  A    between atoms: C_16  and  C_20
   12  A    between atoms: C_16  and  C_24
                            x       y       z     vdW  Elec       q    Type
                         _______ _______ _______ _____ _____    ______ ____

>  <TORSDO>
F 12

$$$$
=
 OpenBabel11062408333D

 32 36  0  0  1  0  0  0  0  0999 V2000
  161.9430  208.5510  152.2120 C   0  0  0  0  0  2  0  0  0  0  0  0
  160.9830  209.6530  152.6630 C   0  0  2  0  0  3  0  0  0  0  0  0
  160.9580  210.7990  151.6900 C   0  0  0  0  0  0  0  0  0  0  0  0
  160.1210  211.8910  151.9500 C   0  0  0  0  0  3  0  0  0  0  0  0
  162.2280  212.8120  147.4660 C   0  0  0  0  0  3  0  0  0  0  0  0
  161.6930  210.7580  150.4940 C   0  0  0  0  0  3  0  0  0  0  0  0
  160.6590  213.9500  148.9230 C   0  0  0  0  0  3  0  0  0  0  0  0
  160.7590  212.9060  149.8470 C   0  0  0  0  0  0  0  0  0  0  0  0
  160.0230  212.9440  151.0340 C   0  0  0  0  0  3  0  0  0  0  0  0
  161.6020  211.8050  149.5760 C   0  0  0  0  0  0  0  0  0  0  0  0
  161.3930  213.9020  147.7340 C   0  0  0  0  0  3  0  0  0  0  0  0
  162.3330  211.7640  148.3850 C   0  0  0  0  0  3  0  0  0  0  0  0
  160.0150  209.8230  154.9440 C   0  0  1  0  0  3  0  0  0  0  0  0
  161.2460  210.0970  154.1000 C   0  0  1  0  0  3  0  0  0  0  0  0
  161.2110  208.8970  155.0240 C   0  0  0  0  0  2  0  0  0  0  0  0
  158.8790  211.2670  156.5550 C   0  0  0  0  0  2  0  0  0  0  0  0
  160.0190  210.7420  156.1170 C   0  0  0  0  0  3  0  0  0  0  0  0
  161.2040  207.2960  151.7530 C   0  0  0  0  0  2  0  0  0  0  0  0
  161.8310  206.0130  152.3000 C   0  0  1  0  0  3  0  0  0  0  0  0
  161.4570  205.8020  153.6280 O   0  0  0  0  0  1  0  0  0  0  0  0
  161.5580  204.7620  151.4500 C   0  0  1  0  0  3  0  0  0  0  0  0
  160.8440  203.8120  152.1820 O   0  0  0  0  0  1  0  0  0  0  0  0
  160.8060  205.0800  150.1560 C   0  0  0  0  0  2  0  0  0  0  0  0
  161.2080  204.2040  148.9660 C   0  0  1  0  0  3  0  0  0  0  0  0
  160.5530  202.8280  149.0130 C   0  0  2  0  0  3  0  0  0  0  0  0
  161.6090  201.7430  149.1310 C   0  0  2  0  0  3  0  0  0  0  0  0
  160.9660  202.0160  147.7980 C   0  0  1  0  0  3  0  0  0  0  0  0
  161.2080  200.5850  148.2380 C   0  0  0  0  0  2  0  0  0  0  0  0
  160.9210  204.9150  147.6460 C   0  0  0  0  0  2  0  0  0  0  0  0
  163.0110  204.9750  146.1320 C   0  0  0  0  0  1  0  0  0  0  0  0
  162.3900  206.7560  147.5300 O   0  0  0  0  0  0  0  0  0  0  0  0
  162.1300  205.6300  147.1380 C   0  0  0  0  0  0  0  0  0  0  0  0
  2  1  1  6  0  0  0
  3  4  1  0  0  0  0
  3  2  1  0  0  0  0
  5 11  2  0  0  0  0
  5 12  1  0  0  0  0
  6  3  2  0  0  0  0
  7  8  2  0  0  0  0
  8  9  1  0  0  0  0
  9  4  2  0  0  0  0
 10  8  1  0  0  0  0
 10  6  1  0  0  0  0
 11  7  1  0  0  0  0
 12 10  2  0  0  0  0
 13 15  1  0  0  0  0
 13 17  1  1  0  0  0
 14  2  1  6  0  0  0
 14 13  1  0  0  0  0
 14 15  1  0  0  0  0
 17 16  2  0  0  0  0
 18  1  1  0  0  0  0
 18 19  1  0  0  0  0
 19 20  1  1  0  0  0
 21 22  1  1  0  0  0
 21 19  1  0  0  0  0
 23 21  1  0  0  0  0
 24 29  1  6  0  0  0
 24 23  1  0  0  0  0
 25 24  1  6  0  0  0
 25 26  1  0  0  0  0
 26 28  1  1  0  0  0
 27 28  1  1  0  0  0
 27 25  1  0  0  0  0
 27 26  1  0  0  0  0
 30 32  1  0  0  0  0
 32 31  2  0  0  0  0
 32 29  1  0  0  0  0
M  END
>  <MODEL>
9

>  <REMARK>
 VINA RESULT:      -7.5      2.785      8.877
  Name = 
  12 active torsions:
  status: ('A' for Active; 'I' for Inactive)
    1  A    between atoms: C_1  and  C_5
    2  A    between atoms: C_1  and  C_30
    3  A    between atoms: C_2  and  C_5
    4  A    between atoms: C_3  and  C_20
    5  A    between atoms: C_4  and  C_24
    6  A    between atoms: C_4  and  C_30
    7  A    between atoms: C_5  and  C_14
    8  A    between atoms: C_13  and  C_29
    9  A    between atoms: C_15  and  C_20
   10  A    between atoms: C_15  and  C_26
   11  A    between atoms: C_16  and  C_20
   12  A    between atoms: C_16  and  C_24
                            x       y       z     vdW  Elec       q    Type
                         _______ _______ _______ _____ _____    ______ ____

>  <TORSDO>
F 12

$$$$
