=
 OpenBabel11062410553D

 32 32  0  0  1  0  0  0  0  0999 V2000
  161.6790  206.0080  151.2500 C   0  0  2  0  0  3  0  0  0  0  0  0
  161.6100  204.5350  150.7800 C   0  0  2  0  0  3  0  0  0  0  0  0
  160.1910  201.8420  148.7520 C   0  0  0  0  0  3  0  0  0  0  0  0
  160.2890  202.9870  149.3680 C   0  0  0  0  0  0  0  0  0  0  0  0
  160.3890  204.1350  149.9850 C   0  0  0  0  0  3  0  0  0  0  0  0
  161.2970  200.8940  148.7930 C   0  0  0  0  0  3  0  0  0  0  0  0
  161.6730  200.2650  147.6900 C   0  0  0  0  0  2  0  0  0  0  0  0
  161.9270  203.5950  151.7880 O   0  0  0  0  0  0  0  0  0  0  0  0
  160.7320  203.0810  152.3190 C   0  0  0  0  0  1  0  0  0  0  0  0
  162.5610  206.8810  150.3440 C   0  0  0  0  0  2  0  0  0  0  0  0
  161.7720  207.8550  149.4680 C   0  0  1  0  0  3  0  0  0  0  0  0
  162.0210  209.1620  149.8920 O   0  0  0  0  0  0  0  0  0  0  0  0
  162.0140  209.9220  148.7230 C   0  0  0  0  0  1  0  0  0  0  0  0
  162.1430  207.7230  148.1280 O   0  0  0  0  0  0  0  0  0  0  0  0
  161.3010  206.7280  147.6260 C   0  0  0  0  0  2  0  0  0  0  0  0
  160.8120  205.9800  145.3150 C   0  0  0  0  0  2  0  0  0  0  0  0
  162.3500  204.6820  146.6540 C   0  0  1  0  0  3  0  0  0  0  0  0
  161.3900  203.8640  145.8700 C   0  0  0  0  0  3  0  0  0  0  0  0
  160.5880  204.5700  145.1730 N   0  0  0  0  0  0  0  0  0  0  0  0
  163.7490  204.4720  146.1110 C   0  0  0  0  0  1  0  0  0  0  0  0
  161.9030  206.1130  146.3730 C   0  0  2  0  0  3  0  0  0  0  0  0
  162.1250  206.1110  152.7030 C   0  0  0  0  0  2  0  0  0  0  0  0
  161.0220  206.3580  153.5240 O   0  0  0  0  0  0  0  0  0  0  0  0
  160.9170  207.7500  153.5710 C   0  0  0  0  0  2  0  0  0  0  0  0
  160.8930  208.2190  155.0140 C   0  0  2  0  0  3  0  0  0  0  0  0
  160.0840  207.2410  155.8430 C   0  0  0  0  0  1  0  0  0  0  0  0
  160.2960  209.5450  155.0900 N   0  0  0  0  0  2  0  0  0  0  0  0
  161.0520  210.7430  154.9000 C   0  0  0  0  0  0  0  0  0  0  0  0
  162.2810  210.6820  154.6200 O   0  0  0  0  0  0  0  0  0  0  0  0
  160.4110  211.9760  155.0230 O   0  0  0  0  0  0  0  0  0  0  0  0
  159.5610  212.4840  154.0060 C   0  0  0  0  0  2  0  0  0  0  0  0
  160.0640  212.0270  152.6530 C   0  0  0  0  0  1  0  0  0  0  0  0
  1 10  1  6  0  0  0
  1 22  1  0  0  0  0
  2  5  1  1  0  0  0
  2  1  1  0  0  0  0
  2  8  1  0  0  0  0
  3  6  1  0  0  0  0
  3  4  2  0  0  0  0
  4  5  2  0  0  0  0
  7  6  2  0  0  0  0
  8  9  1  0  0  0  0
 11 12  1  0  0  0  0
 11 10  1  1  0  0  0
 13 12  1  0  0  0  0
 14 11  1  0  0  0  0
 15 14  1  0  0  0  0
 16 21  1  0  0  0  0
 17 20  1  6  0  0  0
 18 17  1  0  0  0  0
 19 16  1  0  0  0  0
 19 18  2  0  0  0  0
 21 17  1  0  0  0  0
 21 15  1  1  0  0  0
 22 23  1  0  0  0  0
 23 24  1  0  0  0  0
 24 25  1  0  0  0  0
 25 27  1  0  0  0  0
 25 26  1  1  0  0  0
 28 30  1  0  0  0  0
 28 27  1  0  0  0  0
 29 28  2  0  0  0  0
 31 30  1  0  0  0  0
 32 31  1  0  0  0  0
M  END
>  <MODEL>
1

>  <REMARK>
 VINA RESULT:      -6.7      0.000      0.000
  Name = 
  17 active torsions:
  status: ('A' for Active; 'I' for Inactive)
    1  A    between atoms: C_1  and  O_20
    2  A    between atoms: C_2  and  C_9
    3  A    between atoms: C_2  and  O_23
    4  A    between atoms: O_3  and  C_14
    5  A    between atoms: C_4  and  C_5
    6  A    between atoms: O_6  and  C_31
    7  A    between atoms: C_8  and  O_23
    8  A    between atoms: C_8  and  C_28
    9  A    between atoms: C_9  and  N_10
   10  A    between atoms: C_13  and  C_28
   11  A    between atoms: C_13  and  C_31
   12  A    between atoms: C_14  and  C_26
   13  A    between atoms: C_14  and  C_28
   14  A    between atoms: O_16  and  C_27
   15  A    between atoms: O_16  and  C_31
   16  A    between atoms: C_19  and  O_20
   17  A    between atoms: C_27  and  C_32
                            x       y       z     vdW  Elec       q    Type
                         _______ _______ _______ _____ _____    ______ ____

>  <TORSDO>
F 17

$$$$
=
 OpenBabel11062410553D

 32 32  0  0  1  0  0  0  0  0999 V2000
  161.5780  206.7920  151.2370 C   0  0  2  0  0  3  0  0  0  0  0  0
  162.0600  208.0160  150.4220 C   0  0  2  0  0  3  0  0  0  0  0  0
  161.9010  211.6150  149.7900 C   0  0  0  0  0  3  0  0  0  0  0  0
  161.9350  210.4900  150.4470 C   0  0  0  0  0  0  0  0  0  0  0  0
  161.9700  209.3610  151.1040 C   0  0  0  0  0  3  0  0  0  0  0  0
  161.9750  211.6130  148.3340 C   0  0  0  0  0  3  0  0  0  0  0  0
  162.7790  212.4590  147.7090 C   0  0  0  0  0  2  0  0  0  0  0  0
  161.5720  208.0530  149.0960 O   0  0  0  0  0  0  0  0  0  0  0  0
  162.6570  207.9420  148.2110 C   0  0  0  0  0  1  0  0  0  0  0  0
  160.7040  205.8340  150.4120 C   0  0  0  0  0  2  0  0  0  0  0  0
  161.1890  204.3850  150.4310 C   0  0  1  0  0  3  0  0  0  0  0  0
  160.5460  203.6970  151.4620 O   0  0  0  0  0  0  0  0  0  0  0  0
  161.3740  202.6080  151.7330 C   0  0  0  0  0  1  0  0  0  0  0  0
  160.9140  203.7580  149.2130 O   0  0  0  0  0  0  0  0  0  0  0  0
  161.3080  204.6840  148.2440 C   0  0  0  0  0  2  0  0  0  0  0  0
  162.9210  204.8770  146.3730 C   0  0  0  0  0  2  0  0  0  0  0  0
  160.8150  203.7570  145.9790 C   0  0  1  0  0  3  0  0  0  0  0  0
  161.2300  204.6700  144.8840 C   0  0  0  0  0  3  0  0  0  0  0  0
  162.3420  205.2510  145.1150 N   0  0  0  0  0  0  0  0  0  0  0  0
  160.8640  202.3250  145.4840 C   0  0  0  0  0  1  0  0  0  0  0  0
  161.8930  203.9670  147.0380 C   0  0  2  0  0  3  0  0  0  0  0  0
  160.8630  207.2160  152.5130 C   0  0  0  0  0  2  0  0  0  0  0  0
  161.3840  206.5170  153.6060 O   0  0  0  0  0  0  0  0  0  0  0  0
  160.6420  206.9640  154.7010 C   0  0  0  0  0  2  0  0  0  0  0  0
  161.3140  208.1750  155.3220 C   0  0  2  0  0  3  0  0  0  0  0  0
  161.4130  207.9770  156.8210 C   0  0  0  0  0  1  0  0  0  0  0  0
  160.5360  209.3720  155.0310 N   0  0  0  0  0  2  0  0  0  0  0  0
  161.1370  210.5970  154.6040 C   0  0  0  0  0  0  0  0  0  0  0  0
  162.3850  210.6670  154.4300 O   0  0  0  0  0  0  0  0  0  0  0  0
  160.3240  211.7090  154.3790 O   0  0  0  0  0  0  0  0  0  0  0  0
  158.9620  211.5770  154.0030 C   0  0  0  0  0  2  0  0  0  0  0  0
  158.8350  211.7300  152.5020 C   0  0  0  0  0  1  0  0  0  0  0  0
  1 10  1  6  0  0  0
  1 22  1  0  0  0  0
  2  5  1  1  0  0  0
  2  1  1  0  0  0  0
  3  4  2  0  0  0  0
  4  5  2  0  0  0  0
  6  3  1  0  0  0  0
  7  6  2  0  0  0  0
  8  2  1  0  0  0  0
  9  8  1  0  0  0  0
 11 10  1  6  0  0  0
 11 12  1  0  0  0  0
 12 13  1  0  0  0  0
 14 11  1  0  0  0  0
 15 14  1  0  0  0  0
 16 21  1  0  0  0  0
 17 20  1  6  0  0  0
 17 21  1  0  0  0  0
 18 19  2  0  0  0  0
 18 17  1  0  0  0  0
 19 16  1  0  0  0  0
 21 15  1  1  0  0  0
 22 23  1  0  0  0  0
 23 24  1  0  0  0  0
 24 25  1  0  0  0  0
 25 26  1  1  0  0  0
 27 25  1  0  0  0  0
 28 27  1  0  0  0  0
 29 28  2  0  0  0  0
 30 28  1  0  0  0  0
 31 30  1  0  0  0  0
 32 31  1  0  0  0  0
M  END
>  <MODEL>
2

>  <REMARK>
 VINA RESULT:      -6.6      1.502      4.760
  Name = 
  17 active torsions:
  status: ('A' for Active; 'I' for Inactive)
    1  A    between atoms: C_1  and  O_20
    2  A    between atoms: C_2  and  C_9
    3  A    between atoms: C_2  and  O_23
    4  A    between atoms: O_3  and  C_14
    5  A    between atoms: C_4  and  C_5
    6  A    between atoms: O_6  and  C_31
    7  A    between atoms: C_8  and  O_23
    8  A    between atoms: C_8  and  C_28
    9  A    between atoms: C_9  and  N_10
   10  A    between atoms: C_13  and  C_28
   11  A    between atoms: C_13  and  C_31
   12  A    between atoms: C_14  and  C_26
   13  A    between atoms: C_14  and  C_28
   14  A    between atoms: O_16  and  C_27
   15  A    between atoms: O_16  and  C_31
   16  A    between atoms: C_19  and  O_20
   17  A    between atoms: C_27  and  C_32
                            x       y       z     vdW  Elec       q    Type
                         _______ _______ _______ _____ _____    ______ ____

>  <TORSDO>
F 17

$$$$
=
 OpenBabel11062410553D

 32 32  0  0  1  0  0  0  0  0999 V2000
  161.4870  207.9600  151.1110 C   0  0  2  0  0  3  0  0  0  0  0  0
  161.8440  208.5550  149.7280 C   0  0  2  0  0  3  0  0  0  0  0  0
  162.0050  206.2760  146.8720 C   0  0  0  0  0  3  0  0  0  0  0  0
  162.4010  207.0140  147.8700 C   0  0  0  0  0  0  0  0  0  0  0  0
  162.7970  207.7550  148.8720 C   0  0  0  0  0  3  0  0  0  0  0  0
  160.5850  206.1770  146.5560 C   0  0  0  0  0  3  0  0  0  0  0  0
  160.1890  206.1270  145.2940 C   0  0  0  0  0  2  0  0  0  0  0  0
  162.1770  209.9290  149.7620 O   0  0  0  0  0  0  0  0  0  0  0  0
  161.8870  210.4950  148.5090 C   0  0  0  0  0  1  0  0  0  0  0  0
  161.5660  208.9960  152.2430 C   0  0  0  0  0  2  0  0  0  0  0  0
  160.6280  208.7030  153.4150 C   0  0  1  0  0  3  0  0  0  0  0  0
  161.3660  208.1720  154.4740 O   0  0  0  0  0  0  0  0  0  0  0  0
  160.5490  207.1800  155.0160 C   0  0  0  0  0  1  0  0  0  0  0  0
  159.9860  209.8700  153.8350 O   0  0  0  0  0  0  0  0  0  0  0  0
  159.9880  210.6980  152.7100 C   0  0  0  0  0  2  0  0  0  0  0  0
  159.8400  212.2300  154.6510 C   0  0  0  0  0  2  0  0  0  0  0  0
  158.5500  212.7370  152.6710 C   0  0  1  0  0  3  0  0  0  0  0  0
  157.8130  212.9420  153.9440 C   0  0  0  0  0  3  0  0  0  0  0  0
  158.5120  212.6660  154.9740 N   0  0  0  0  0  0  0  0  0  0  0  0
  158.7850  214.0790  152.0060 C   0  0  0  0  0  1  0  0  0  0  0  0
  159.8840  212.1550  153.1290 C   0  0  2  0  0  3  0  0  0  0  0  0
  162.3410  206.7400  151.4320 C   0  0  0  0  0  2  0  0  0  0  0  0
  161.5260  205.6840  151.8500 O   0  0  0  0  0  0  0  0  0  0  0  0
  160.7530  205.3670  150.7320 C   0  0  0  0  0  2  0  0  0  0  0  0
  160.6220  203.8610  150.6030 C   0  0  2  0  0  3  0  0  0  0  0  0
  161.3290  203.1970  151.7680 C   0  0  0  0  0  1  0  0  0  0  0  0
  161.2140  203.4210  149.3480 N   0  0  0  0  0  2  0  0  0  0  0  0
  160.6980  202.3200  148.5950 C   0  0  0  0  0  0  0  0  0  0  0  0
  159.6690  201.7070  148.9900 O   0  0  0  0  0  0  0  0  0  0  0  0
  161.3460  201.9400  147.4190 O   0  0  0  0  0  0  0  0  0  0  0  0
  160.9940  202.4910  146.1590 C   0  0  0  0  0  2  0  0  0  0  0  0
  160.2250  201.4640  145.3560 C   0  0  0  0  0  1  0  0  0  0  0  0
  1 22  1  1  0  0  0
  1 10  1  0  0  0  0
  2  5  1  1  0  0  0
  2  8  1  0  0  0  0
  2  1  1  0  0  0  0
  3  4  2  0  0  0  0
  4  5  2  0  0  0  0
  6  3  1  0  0  0  0
  7  6  2  0  0  0  0
  9  8  1  0  0  0  0
 11 10  1  6  0  0  0
 11 14  1  0  0  0  0
 11 12  1  0  0  0  0
 12 13  1  0  0  0  0
 15 14  1  0  0  0  0
 16 19  1  0  0  0  0
 17 20  1  1  0  0  0
 17 21  1  0  0  0  0
 17 18  1  0  0  0  0
 18 19  2  0  0  0  0
 21 15  1  1  0  0  0
 21 16  1  0  0  0  0
 22 23  1  0  0  0  0
 24 23  1  0  0  0  0
 25 24  1  0  0  0  0
 25 26  1  1  0  0  0
 27 25  1  0  0  0  0
 28 29  2  0  0  0  0
 28 27  1  0  0  0  0
 30 28  1  0  0  0  0
 31 30  1  0  0  0  0
 32 31  1  0  0  0  0
M  END
>  <MODEL>
3

>  <REMARK>
 VINA RESULT:      -6.5      2.002      8.203
  Name = 
  17 active torsions:
  status: ('A' for Active; 'I' for Inactive)
    1  A    between atoms: C_1  and  O_20
    2  A    between atoms: C_2  and  C_9
    3  A    between atoms: C_2  and  O_23
    4  A    between atoms: O_3  and  C_14
    5  A    between atoms: C_4  and  C_5
    6  A    between atoms: O_6  and  C_31
    7  A    between atoms: C_8  and  O_23
    8  A    between atoms: C_8  and  C_28
    9  A    between atoms: C_9  and  N_10
   10  A    between atoms: C_13  and  C_28
   11  A    between atoms: C_13  and  C_31
   12  A    between atoms: C_14  and  C_26
   13  A    between atoms: C_14  and  C_28
   14  A    between atoms: O_16  and  C_27
   15  A    between atoms: O_16  and  C_31
   16  A    between atoms: C_19  and  O_20
   17  A    between atoms: C_27  and  C_32
                            x       y       z     vdW  Elec       q    Type
                         _______ _______ _______ _____ _____    ______ ____

>  <TORSDO>
F 17

$$$$
=
 OpenBabel11062410553D

 32 32  0  0  1  0  0  0  0  0999 V2000
  162.0870  207.7180  150.0780 C   0  0  2  0  0  3  0  0  0  0  0  0
  161.2670  206.6530  149.3120 C   0  0  2  0  0  3  0  0  0  0  0  0
  160.7770  203.0280  149.3040 C   0  0  0  0  0  3  0  0  0  0  0  0
  160.7470  204.2640  149.7150 C   0  0  0  0  0  0  0  0  0  0  0  0
  160.7180  205.5050  150.1260 C   0  0  0  0  0  3  0  0  0  0  0  0
  161.3360  202.7070  147.9960 C   0  0  0  0  0  3  0  0  0  0  0  0
  160.8460  201.6970  147.2950 C   0  0  0  0  0  2  0  0  0  0  0  0
  161.8710  206.2180  148.1090 O   0  0  0  0  0  0  0  0  0  0  0  0
  161.0190  206.5320  147.0370 C   0  0  0  0  0  1  0  0  0  0  0  0
  162.2230  207.4000  151.5750 C   0  0  0  0  0  2  0  0  0  0  0  0
  161.1880  208.1030  152.4530 C   0  0  1  0  0  3  0  0  0  0  0  0
  160.6920  207.1990  153.3940 O   0  0  0  0  0  0  0  0  0  0  0  0
  161.6600  206.1980  153.4720 C   0  0  0  0  0  1  0  0  0  0  0  0
  161.7600  209.1930  153.1120 O   0  0  0  0  0  0  0  0  0  0  0  0
  160.7290  209.7060  153.9040 C   0  0  0  0  0  2  0  0  0  0  0  0
  160.1540  211.8580  154.9880 C   0  0  0  0  0  2  0  0  0  0  0  0
  159.4530  211.4840  152.7050 C   0  0  1  0  0  3  0  0  0  0  0  0
  158.4200  212.1220  153.5600 C   0  0  0  0  0  3  0  0  0  0  0  0
  158.8110  212.3070  154.7600 N   0  0  0  0  0  0  0  0  0  0  0  0
  159.9190  212.4750  151.6570 C   0  0  0  0  0  1  0  0  0  0  0  0
  160.5900  211.2030  153.6820 C   0  0  2  0  0  3  0  0  0  0  0  0
  161.5200  209.1170  149.8700 C   0  0  0  0  0  2  0  0  0  0  0  0
  162.1380  209.7230  148.7730 O   0  0  0  0  0  0  0  0  0  0  0  0
  162.2020  211.0780  149.1040 C   0  0  0  0  0  2  0  0  0  0  0  0
  161.9500  211.9250  147.8700 C   0  0  2  0  0  3  0  0  0  0  0  0
  163.0230  212.9910  147.7690 C   0  0  0  0  0  1  0  0  0  0  0  0
  160.6380  212.5500  147.9620 N   0  0  0  0  0  2  0  0  0  0  0  0
  159.7670  212.6830  146.8360 C   0  0  0  0  0  0  0  0  0  0  0  0
  160.1050  212.2210  145.7120 O   0  0  0  0  0  0  0  0  0  0  0  0
  158.5400  213.3260  147.0010 O   0  0  0  0  0  0  0  0  0  0  0  0
  157.3970  212.6440  147.4950 C   0  0  0  0  0  2  0  0  0  0  0  0
  157.0810  213.1330  148.8920 C   0  0  0  0  0  1  0  0  0  0  0  0
  1 22  1  1  0  0  0
  1 10  1  0  0  0  0
  2  1  1  0  0  0  0
  2  5  1  1  0  0  0
  3  4  2  0  0  0  0
  4  5  2  0  0  0  0
  6  3  1  0  0  0  0
  7  6  2  0  0  0  0
  8  2  1  0  0  0  0
  9  8  1  0  0  0  0
 11 10  1  1  0  0  0
 11 14  1  0  0  0  0
 11 12  1  0  0  0  0
 12 13  1  0  0  0  0
 14 15  1  0  0  0  0
 17 20  1  6  0  0  0
 17 18  1  0  0  0  0
 17 21  1  0  0  0  0
 18 19  2  0  0  0  0
 19 16  1  0  0  0  0
 21 15  1  1  0  0  0
 21 16  1  0  0  0  0
 23 24  1  0  0  0  0
 23 22  1  0  0  0  0
 25 26  1  1  0  0  0
 25 27  1  0  0  0  0
 25 24  1  0  0  0  0
 28 30  1  0  0  0  0
 28 27  1  0  0  0  0
 29 28  2  0  0  0  0
 30 31  1  0  0  0  0
 31 32  1  0  0  0  0
M  END
>  <MODEL>
4

>  <REMARK>
 VINA RESULT:      -6.4      2.858      6.944
  Name = 
  17 active torsions:
  status: ('A' for Active; 'I' for Inactive)
    1  A    between atoms: C_1  and  O_20
    2  A    between atoms: C_2  and  C_9
    3  A    between atoms: C_2  and  O_23
    4  A    between atoms: O_3  and  C_14
    5  A    between atoms: C_4  and  C_5
    6  A    between atoms: O_6  and  C_31
    7  A    between atoms: C_8  and  O_23
    8  A    between atoms: C_8  and  C_28
    9  A    between atoms: C_9  and  N_10
   10  A    between atoms: C_13  and  C_28
   11  A    between atoms: C_13  and  C_31
   12  A    between atoms: C_14  and  C_26
   13  A    between atoms: C_14  and  C_28
   14  A    between atoms: O_16  and  C_27
   15  A    between atoms: O_16  and  C_31
   16  A    between atoms: C_19  and  O_20
   17  A    between atoms: C_27  and  C_32
                            x       y       z     vdW  Elec       q    Type
                         _______ _______ _______ _____ _____    ______ ____

>  <TORSDO>
F 17

$$$$
=
 OpenBabel11062410553D

 32 32  0  0  1  0  0  0  0  0999 V2000
  161.2760  206.8900  149.9910 C   0  0  2  0  0  3  0  0  0  0  0  0
  161.0730  205.8670  151.1340 C   0  0  2  0  0  3  0  0  0  0  0  0
  161.4260  206.7250  154.6720 C   0  0  0  0  0  3  0  0  0  0  0  0
  161.7450  206.3220  153.4750 C   0  0  0  0  0  0  0  0  0  0  0  0
  162.0640  205.9180  152.2730 C   0  0  0  0  0  3  0  0  0  0  0  0
  160.0670  207.1750  154.9530 C   0  0  0  0  0  3  0  0  0  0  0  0
  159.6280  207.2190  156.2010 C   0  0  0  0  0  2  0  0  0  0  0  0
  160.8340  204.5460  150.6880 O   0  0  0  0  0  0  0  0  0  0  0  0
  161.2840  203.6490  151.6720 C   0  0  0  0  0  1  0  0  0  0  0  0
  160.9630  208.3320  150.4190 C   0  0  0  0  0  2  0  0  0  0  0  0
  162.1990  209.1400  150.8130 C   0  0  1  0  0  3  0  0  0  0  0  0
  162.2030  210.3470  150.1110 O   0  0  0  0  0  0  0  0  0  0  0  0
  162.0250  209.9830  148.7760 C   0  0  0  0  0  1  0  0  0  0  0  0
  162.2000  209.4020  152.1850 O   0  0  0  0  0  0  0  0  0  0  0  0
  160.8910  209.8000  152.4680 C   0  0  0  0  0  2  0  0  0  0  0  0
  161.7150  210.6610  154.6400 C   0  0  0  0  0  2  0  0  0  0  0  0
  159.4880  211.2650  153.9220 C   0  0  1  0  0  3  0  0  0  0  0  0
  159.5850  210.9070  155.3590 C   0  0  0  0  0  3  0  0  0  0  0  0
  160.7670  210.5890  155.7150 N   0  0  0  0  0  0  0  0  0  0  0  0
  159.1690  212.7410  153.7930 C   0  0  0  0  0  1  0  0  0  0  0  0
  160.8960  211.0010  153.4000 C   0  0  2  0  0  3  0  0  0  0  0  0
  160.4780  206.5070  148.7500 C   0  0  0  0  0  2  0  0  0  0  0  0
  161.1460  206.9400  147.6020 O   0  0  0  0  0  0  0  0  0  0  0  0
  161.1220  205.8410  146.7400 C   0  0  0  0  0  2  0  0  0  0  0  0
  162.3300  204.9580  146.9940 C   0  0  2  0  0  3  0  0  0  0  0  0
  163.1240  204.8180  145.7110 C   0  0  0  0  0  1  0  0  0  0  0  0
  161.8920  203.6470  147.4510 N   0  0  0  0  0  2  0  0  0  0  0  0
  161.2160  202.7190  146.5990 C   0  0  0  0  0  0  0  0  0  0  0  0
  161.0070  203.0030  145.3880 O   0  0  0  0  0  0  0  0  0  0  0  0
  160.7990  201.4950  147.1240 O   0  0  0  0  0  0  0  0  0  0  0  0
  161.0740  201.1230  148.4660 C   0  0  0  0  0  2  0  0  0  0  0  0
  159.8630  201.4050  149.3280 C   0  0  0  0  0  1  0  0  0  0  0  0
  1 22  1  6  0  0  0
  1 10  1  0  0  0  0
  1  2  1  0  0  0  0
  2  5  1  1  0  0  0
  3  6  1  0  0  0  0
  4  3  2  0  0  0  0
  5  4  2  0  0  0  0
  6  7  2  0  0  0  0
  8  2  1  0  0  0  0
  8  9  1  0  0  0  0
 11 10  1  1  0  0  0
 11 14  1  0  0  0  0
 12 11  1  0  0  0  0
 13 12  1  0  0  0  0
 14 15  1  0  0  0  0
 16 19  1  0  0  0  0
 17 20  1  1  0  0  0
 17 18  1  0  0  0  0
 18 19  2  0  0  0  0
 21 15  1  6  0  0  0
 21 17  1  0  0  0  0
 21 16  1  0  0  0  0
 23 22  1  0  0  0  0
 24 25  1  0  0  0  0
 24 23  1  0  0  0  0
 25 26  1  6  0  0  0
 25 27  1  0  0  0  0
 28 30  1  0  0  0  0
 28 27  1  0  0  0  0
 29 28  2  0  0  0  0
 30 31  1  0  0  0  0
 31 32  1  0  0  0  0
M  END
>  <MODEL>
5

>  <REMARK>
 VINA RESULT:      -6.4      1.869      8.359
  Name = 
  17 active torsions:
  status: ('A' for Active; 'I' for Inactive)
    1  A    between atoms: C_1  and  O_20
    2  A    between atoms: C_2  and  C_9
    3  A    between atoms: C_2  and  O_23
    4  A    between atoms: O_3  and  C_14
    5  A    between atoms: C_4  and  C_5
    6  A    between atoms: O_6  and  C_31
    7  A    between atoms: C_8  and  O_23
    8  A    between atoms: C_8  and  C_28
    9  A    between atoms: C_9  and  N_10
   10  A    between atoms: C_13  and  C_28
   11  A    between atoms: C_13  and  C_31
   12  A    between atoms: C_14  and  C_26
   13  A    between atoms: C_14  and  C_28
   14  A    between atoms: O_16  and  C_27
   15  A    between atoms: O_16  and  C_31
   16  A    between atoms: C_19  and  O_20
   17  A    between atoms: C_27  and  C_32
                            x       y       z     vdW  Elec       q    Type
                         _______ _______ _______ _____ _____    ______ ____

>  <TORSDO>
F 17

$$$$
=
 OpenBabel11062410553D

 32 32  0  0  1  0  0  0  0  0999 V2000
  161.0250  209.3450  151.6960 C   0  0  2  0  0  3  0  0  0  0  0  0
  160.6330  210.4410  152.7160 C   0  0  2  0  0  3  0  0  0  0  0  0
  161.0480  209.1060  156.0960 C   0  0  0  0  0  3  0  0  0  0  0  0
  161.2660  209.8230  155.0300 C   0  0  0  0  0  0  0  0  0  0  0  0
  161.4840  210.5430  153.9610 C   0  0  0  0  0  3  0  0  0  0  0  0
  159.9290  208.1720  156.1300 C   0  0  0  0  0  3  0  0  0  0  0  0
  160.0400  207.0270  156.7840 C   0  0  0  0  0  2  0  0  0  0  0  0
  159.2500  210.4900  153.0040 O   0  0  0  0  0  0  0  0  0  0  0  0
  158.8020  211.8120  152.8460 C   0  0  0  0  0  1  0  0  0  0  0  0
  161.2120  207.9660  152.3460 C   0  0  0  0  0  2  0  0  0  0  0  0
  161.5980  206.8650  151.3590 C   0  0  1  0  0  3  0  0  0  0  0  0
  161.5650  205.6290  152.0090 O   0  0  0  0  0  0  0  0  0  0  0  0
  161.4450  205.9430  153.3630 C   0  0  0  0  0  1  0  0  0  0  0  0
  160.7150  206.8430  150.2760 O   0  0  0  0  0  0  0  0  0  0  0  0
  161.5370  206.7100  149.1550 C   0  0  0  0  0  2  0  0  0  0  0  0
  161.1600  204.3600  148.4680 C   0  0  0  0  0  2  0  0  0  0  0  0
  161.5220  206.0260  146.7540 C   0  0  1  0  0  3  0  0  0  0  0  0
  162.2400  204.7480  146.5190 C   0  0  0  0  0  3  0  0  0  0  0  0
  162.0370  203.8860  147.4360 N   0  0  0  0  0  0  0  0  0  0  0  0
  160.4440  206.1970  145.7030 C   0  0  0  0  0  1  0  0  0  0  0  0
  160.8740  205.8170  148.1190 C   0  0  2  0  0  3  0  0  0  0  0  0
  162.2600  209.7410  150.8960 C   0  0  0  0  0  2  0  0  0  0  0  0
  162.0210  210.9330  150.2080 O   0  0  0  0  0  0  0  0  0  0  0  0
  162.0950  210.5860  148.8580 C   0  0  0  0  0  2  0  0  0  0  0  0
  161.9120  211.8210  147.9950 C   0  0  2  0  0  3  0  0  0  0  0  0
  163.2510  212.5090  147.8180 C   0  0  0  0  0  1  0  0  0  0  0  0
  160.9690  212.7300  148.6310 N   0  0  0  0  0  2  0  0  0  0  0  0
  159.8830  213.3330  147.9240 C   0  0  0  0  0  0  0  0  0  0  0  0
  159.6850  213.0600  146.7080 O   0  0  0  0  0  0  0  0  0  0  0  0
  159.0430  214.2200  148.5990 O   0  0  0  0  0  0  0  0  0  0  0  0
  158.2150  213.7990  149.6720 C   0  0  0  0  0  2  0  0  0  0  0  0
  156.9660  213.1460  149.1200 C   0  0  0  0  0  1  0  0  0  0  0  0
  1 22  1  1  0  0  0
  1 10  1  0  0  0  0
  1  2  1  0  0  0  0
  2  8  1  0  0  0  0
  2  5  1  1  0  0  0
  3  6  1  0  0  0  0
  4  3  2  0  0  0  0
  5  4  2  0  0  0  0
  6  7  2  0  0  0  0
  9  8  1  0  0  0  0
 11 12  1  0  0  0  0
 11 10  1  1  0  0  0
 12 13  1  0  0  0  0
 14 11  1  0  0  0  0
 15 14  1  0  0  0  0
 17 20  1  6  0  0  0
 17 21  1  0  0  0  0
 18 17  1  0  0  0  0
 18 19  2  0  0  0  0
 19 16  1  0  0  0  0
 21 16  1  0  0  0  0
 21 15  1  1  0  0  0
 23 22  1  0  0  0  0
 24 23  1  0  0  0  0
 25 26  1  1  0  0  0
 25 27  1  0  0  0  0
 25 24  1  0  0  0  0
 28 30  1  0  0  0  0
 28 27  1  0  0  0  0
 29 28  2  0  0  0  0
 30 31  1  0  0  0  0
 32 31  1  0  0  0  0
M  END
>  <MODEL>
6

>  <REMARK>
 VINA RESULT:      -6.3      2.786      6.414
  Name = 
  17 active torsions:
  status: ('A' for Active; 'I' for Inactive)
    1  A    between atoms: C_1  and  O_20
    2  A    between atoms: C_2  and  C_9
    3  A    between atoms: C_2  and  O_23
    4  A    between atoms: O_3  and  C_14
    5  A    between atoms: C_4  and  C_5
    6  A    between atoms: O_6  and  C_31
    7  A    between atoms: C_8  and  O_23
    8  A    between atoms: C_8  and  C_28
    9  A    between atoms: C_9  and  N_10
   10  A    between atoms: C_13  and  C_28
   11  A    between atoms: C_13  and  C_31
   12  A    between atoms: C_14  and  C_26
   13  A    between atoms: C_14  and  C_28
   14  A    between atoms: O_16  and  C_27
   15  A    between atoms: O_16  and  C_31
   16  A    between atoms: C_19  and  O_20
   17  A    between atoms: C_27  and  C_32
                            x       y       z     vdW  Elec       q    Type
                         _______ _______ _______ _____ _____    ______ ____

>  <TORSDO>
F 17

$$$$
=
 OpenBabel11062410553D

 32 32  0  0  1  0  0  0  0  0999 V2000
  160.9740  209.4440  152.0180 C   0  0  2  0  0  3  0  0  0  0  0  0
  161.1300  209.7800  153.5210 C   0  0  2  0  0  3  0  0  0  0  0  0
  158.2060  211.9720  153.3840 C   0  0  0  0  0  3  0  0  0  0  0  0
  159.0370  211.0700  153.8230 C   0  0  0  0  0  0  0  0  0  0  0  0
  159.8720  210.1660  154.2630 C   0  0  0  0  0  3  0  0  0  0  0  0
  158.4840  212.6760  152.1380 C   0  0  0  0  0  3  0  0  0  0  0  0
  159.7070  213.1120  151.8810 C   0  0  0  0  0  2  0  0  0  0  0  0
  162.2100  210.6460  153.8070 O   0  0  0  0  0  0  0  0  0  0  0  0
  162.4770  210.5960  155.1860 C   0  0  0  0  0  1  0  0  0  0  0  0
  160.7590  207.9450  151.7620 C   0  0  0  0  0  2  0  0  0  0  0  0
  162.0560  207.1440  151.6540 C   0  0  1  0  0  3  0  0  0  0  0  0
  162.3320  206.5440  152.8850 O   0  0  0  0  0  0  0  0  0  0  0  0
  161.2450  205.7030  153.1210 C   0  0  0  0  0  1  0  0  0  0  0  0
  161.9460  206.1580  150.6710 O   0  0  0  0  0  0  0  0  0  0  0  0
  161.6780  206.8620  149.4950 C   0  0  0  0  0  2  0  0  0  0  0  0
  160.8290  204.5760  149.0620 C   0  0  0  0  0  2  0  0  0  0  0  0
  161.5100  205.9350  147.1840 C   0  0  1  0  0  3  0  0  0  0  0  0
  161.9540  204.5210  147.1010 C   0  0  0  0  0  3  0  0  0  0  0  0
  161.5850  203.8230  148.1030 N   0  0  0  0  0  0  0  0  0  0  0  0
  160.4830  206.2030  146.1020 C   0  0  0  0  0  1  0  0  0  0  0  0
  160.8410  206.0130  148.5520 C   0  0  2  0  0  3  0  0  0  0  0  0
  162.1480  209.9710  151.2030 C   0  0  0  0  0  2  0  0  0  0  0  0
  161.7130  210.9760  150.3350 O   0  0  0  0  0  0  0  0  0  0  0  0
  162.1170  210.5510  149.0680 C   0  0  0  0  0  2  0  0  0  0  0  0
  162.0890  211.7180  148.0970 C   0  0  2  0  0  3  0  0  0  0  0  0
  163.3920  212.4850  148.2020 C   0  0  0  0  0  1  0  0  0  0  0  0
  160.9710  212.5940  148.4140 N   0  0  0  0  0  2  0  0  0  0  0  0
  159.8820  212.8110  147.5140 C   0  0  0  0  0  0  0  0  0  0  0  0
  159.8410  212.2070  146.4070 O   0  0  0  0  0  0  0  0  0  0  0  0
  158.8650  213.6950  147.8800 O   0  0  0  0  0  0  0  0  0  0  0  0
  157.4950  213.3860  147.6720 C   0  0  0  0  0  2  0  0  0  0  0  0
  156.7780  213.3540  149.0050 C   0  0  0  0  0  1  0  0  0  0  0  0
  1 22  1  6  0  0  0
  1  2  1  0  0  0  0
  2  8  1  0  0  0  0
  2  5  1  6  0  0  0
  3  4  2  0  0  0  0
  4  5  2  0  0  0  0
  6  3  1  0  0  0  0
  7  6  2  0  0  0  0
  8  9  1  0  0  0  0
 10  1  1  0  0  0  0
 11 10  1  1  0  0  0
 11 12  1  0  0  0  0
 12 13  1  0  0  0  0
 14 11  1  0  0  0  0
 15 14  1  0  0  0  0
 17 20  1  6  0  0  0
 17 21  1  0  0  0  0
 18 17  1  0  0  0  0
 18 19  2  0  0  0  0
 19 16  1  0  0  0  0
 21 16  1  0  0  0  0
 21 15  1  1  0  0  0
 23 22  1  0  0  0  0
 24 23  1  0  0  0  0
 25 26  1  1  0  0  0
 25 27  1  0  0  0  0
 25 24  1  0  0  0  0
 28 30  1  0  0  0  0
 28 27  1  0  0  0  0
 29 28  2  0  0  0  0
 31 30  1  0  0  0  0
 31 32  1  0  0  0  0
M  END
>  <MODEL>
7

>  <REMARK>
 VINA RESULT:      -6.2      2.883      6.771
  Name = 
  17 active torsions:
  status: ('A' for Active; 'I' for Inactive)
    1  A    between atoms: C_1  and  O_20
    2  A    between atoms: C_2  and  C_9
    3  A    between atoms: C_2  and  O_23
    4  A    between atoms: O_3  and  C_14
    5  A    between atoms: C_4  and  C_5
    6  A    between atoms: O_6  and  C_31
    7  A    between atoms: C_8  and  O_23
    8  A    between atoms: C_8  and  C_28
    9  A    between atoms: C_9  and  N_10
   10  A    between atoms: C_13  and  C_28
   11  A    between atoms: C_13  and  C_31
   12  A    between atoms: C_14  and  C_26
   13  A    between atoms: C_14  and  C_28
   14  A    between atoms: O_16  and  C_27
   15  A    between atoms: O_16  and  C_31
   16  A    between atoms: C_19  and  O_20
   17  A    between atoms: C_27  and  C_32
                            x       y       z     vdW  Elec       q    Type
                         _______ _______ _______ _____ _____    ______ ____

>  <TORSDO>
F 17

$$$$
=
 OpenBabel11062410553D

 32 32  0  0  1  0  0  0  0  0999 V2000
  161.2110  206.9090  151.3160 C   0  0  2  0  0  3  0  0  0  0  0  0
  160.9050  205.6170  150.5210 C   0  0  2  0  0  3  0  0  0  0  0  0
  160.8420  201.9850  150.0940 C   0  0  0  0  0  3  0  0  0  0  0  0
  160.9750  203.1450  150.6720 C   0  0  0  0  0  0  0  0  0  0  0  0
  161.1080  204.3100  151.2510 C   0  0  0  0  0  3  0  0  0  0  0  0
  160.4590  201.9090  148.6890 C   0  0  0  0  0  3  0  0  0  0  0  0
  161.2270  202.4580  147.7610 C   0  0  0  0  0  2  0  0  0  0  0  0
  161.4590  205.5970  149.2200 O   0  0  0  0  0  0  0  0  0  0  0  0
  160.4950  206.0660  148.3120 C   0  0  0  0  0  1  0  0  0  0  0  0
  162.2590  207.7980  150.6270 C   0  0  0  0  0  2  0  0  0  0  0  0
  161.8550  209.2690  150.5330 C   0  0  1  0  0  3  0  0  0  0  0  0
  162.6880  210.0290  151.3570 O   0  0  0  0  0  0  0  0  0  0  0  0
  161.9540  210.2180  152.5280 C   0  0  0  0  0  1  0  0  0  0  0  0
  161.9610  209.7260  149.2170 O   0  0  0  0  0  0  0  0  0  0  0  0
  162.1300  211.1070  149.3370 C   0  0  0  0  0  2  0  0  0  0  0  0
  163.1660  212.8220  147.8800 C   0  0  0  0  0  2  0  0  0  0  0  0
  160.7660  212.5430  147.8180 C   0  0  1  0  0  3  0  0  0  0  0  0
  161.2120  213.9590  147.8160 C   0  0  0  0  0  3  0  0  0  0  0  0
  162.4800  214.0820  147.8510 N   0  0  0  0  0  0  0  0  0  0  0  0
  160.1320  212.2140  146.4810 C   0  0  0  0  0  1  0  0  0  0  0  0
  162.0690  211.7660  147.9690 C   0  0  2  0  0  3  0  0  0  0  0  0
  161.6200  206.6000  152.7500 C   0  0  0  0  0  2  0  0  0  0  0  0
  160.6960  207.1540  153.6400 O   0  0  0  0  0  0  0  0  0  0  0  0
  161.4340  207.4360  154.7910 C   0  0  0  0  0  2  0  0  0  0  0  0
  160.5200  207.9850  155.8710 C   0  0  2  0  0  3  0  0  0  0  0  0
  159.4320  206.9720  156.1660 C   0  0  0  0  0  1  0  0  0  0  0  0
  159.9250  209.2350  155.4230 N   0  0  0  0  0  2  0  0  0  0  0  0
  160.5010  210.5110  155.7110 C   0  0  0  0  0  0  0  0  0  0  0  0
  161.5880  210.5890  156.3480 O   0  0  0  0  0  0  0  0  0  0  0  0
  159.8490  211.6650  155.2750 O   0  0  0  0  0  0  0  0  0  0  0  0
  158.9570  211.6480  154.1700 C   0  0  0  0  0  2  0  0  0  0  0  0
  158.7600  213.0590  153.6590 C   0  0  0  0  0  1  0  0  0  0  0  0
  1 10  1  6  0  0  0
  1 22  1  0  0  0  0
  2  5  1  1  0  0  0
  2  1  1  0  0  0  0
  3  4  2  0  0  0  0
  4  5  2  0  0  0  0
  6  3  1  0  0  0  0
  7  6  2  0  0  0  0
  8  2  1  0  0  0  0
  9  8  1  0  0  0  0
 11 10  1  6  0  0  0
 11 12  1  0  0  0  0
 12 13  1  0  0  0  0
 14 15  1  0  0  0  0
 14 11  1  0  0  0  0
 16 21  1  0  0  0  0
 17 20  1  6  0  0  0
 17 21  1  0  0  0  0
 18 17  1  0  0  0  0
 18 19  2  0  0  0  0
 19 16  1  0  0  0  0
 21 15  1  1  0  0  0
 22 23  1  0  0  0  0
 23 24  1  0  0  0  0
 24 25  1  0  0  0  0
 25 26  1  6  0  0  0
 27 28  1  0  0  0  0
 27 25  1  0  0  0  0
 28 29  2  0  0  0  0
 30 28  1  0  0  0  0
 31 30  1  0  0  0  0
 32 31  1  0  0  0  0
M  END
>  <MODEL>
8

>  <REMARK>
 VINA RESULT:      -6.2      2.464      4.169
  Name = 
  17 active torsions:
  status: ('A' for Active; 'I' for Inactive)
    1  A    between atoms: C_1  and  O_20
    2  A    between atoms: C_2  and  C_9
    3  A    between atoms: C_2  and  O_23
    4  A    between atoms: O_3  and  C_14
    5  A    between atoms: C_4  and  C_5
    6  A    between atoms: O_6  and  C_31
    7  A    between atoms: C_8  and  O_23
    8  A    between atoms: C_8  and  C_28
    9  A    between atoms: C_9  and  N_10
   10  A    between atoms: C_13  and  C_28
   11  A    between atoms: C_13  and  C_31
   12  A    between atoms: C_14  and  C_26
   13  A    between atoms: C_14  and  C_28
   14  A    between atoms: O_16  and  C_27
   15  A    between atoms: O_16  and  C_31
   16  A    between atoms: C_19  and  O_20
   17  A    between atoms: C_27  and  C_32
                            x       y       z     vdW  Elec       q    Type
                         _______ _______ _______ _____ _____    ______ ____

>  <TORSDO>
F 17

$$$$
=
 OpenBabel11062410553D

 32 32  0  0  1  0  0  0  0  0999 V2000
  161.4200  208.0830  150.5550 C   0  0  2  0  0  3  0  0  0  0  0  0
  161.3110  208.2470  152.0900 C   0  0  2  0  0  3  0  0  0  0  0  0
  160.4500  206.9580  155.4030 C   0  0  0  0  0  3  0  0  0  0  0  0
  160.8200  206.9670  154.1530 C   0  0  0  0  0  0  0  0  0  0  0  0
  161.1930  206.9780  152.9000 C   0  0  0  0  0  3  0  0  0  0  0  0
  160.1520  208.2110  156.0850 C   0  0  0  0  0  3  0  0  0  0  0  0
  161.0940  209.1310  156.2240 C   0  0  0  0  0  2  0  0  0  0  0  0
  160.3830  209.2340  152.4980 O   0  0  0  0  0  0  0  0  0  0  0  0
  161.0850  210.4080  152.8190 C   0  0  0  0  0  1  0  0  0  0  0  0
  161.8610  206.6720  150.1370 C   0  0  0  0  0  2  0  0  0  0  0  0
  160.9820  206.0460  149.0540 C   0  0  1  0  0  3  0  0  0  0  0  0
  160.8360  206.9500  148.0000 O   0  0  0  0  0  0  0  0  0  0  0  0
  161.2410  206.2440  146.8670 C   0  0  0  0  0  1  0  0  0  0  0  0
  161.5550  204.8650  148.5770 O   0  0  0  0  0  0  0  0  0  0  0  0
  161.2010  203.8960  149.5190 C   0  0  0  0  0  2  0  0  0  0  0  0
  160.1070  201.7060  149.8970 C   0  0  0  0  0  2  0  0  0  0  0  0
  161.3600  202.0410  147.8570 C   0  0  1  0  0  3  0  0  0  0  0  0
  161.5830  200.7190  148.4940 C   0  0  0  0  0  3  0  0  0  0  0  0
  160.9140  200.5650  149.5690 N   0  0  0  0  0  0  0  0  0  0  0  0
  160.6280  201.8480  146.5440 C   0  0  0  0  0  1  0  0  0  0  0  0
  160.4490  202.7590  148.8480 C   0  0  2  0  0  3  0  0  0  0  0  0
  162.3320  209.1400  149.9430 C   0  0  0  0  0  2  0  0  0  0  0  0
  161.6390  209.8590  148.9660 O   0  0  0  0  0  0  0  0  0  0  0  0
  161.9390  211.1970  149.2300 C   0  0  0  0  0  2  0  0  0  0  0  0
  161.9100  211.9970  147.9400 C   0  0  2  0  0  3  0  0  0  0  0  0
  163.1530  212.8620  147.8620 C   0  0  0  0  0  1  0  0  0  0  0  0
  160.7200  212.8370  147.9090 N   0  0  0  0  0  2  0  0  0  0  0  0
  160.0430  213.1680  146.6950 C   0  0  0  0  0  0  0  0  0  0  0  0
  160.4460  212.7030  145.5940 O   0  0  0  0  0  0  0  0  0  0  0  0
  158.9290  214.0070  146.7480 O   0  0  0  0  0  0  0  0  0  0  0  0
  157.6750  213.5580  147.2380 C   0  0  0  0  0  2  0  0  0  0  0  0
  157.1460  212.4590  146.3410 C   0  0  0  0  0  1  0  0  0  0  0  0
  1 22  1  1  0  0  0
  1  2  1  0  0  0  0
  2  8  1  0  0  0  0
  2  5  1  1  0  0  0
  3  6  1  0  0  0  0
  4  3  2  0  0  0  0
  5  4  2  0  0  0  0
  6  7  2  0  0  0  0
  8  9  1  0  0  0  0
 10  1  1  0  0  0  0
 11 10  1  1  0  0  0
 12 11  1  0  0  0  0
 13 12  1  0  0  0  0
 14 11  1  0  0  0  0
 14 15  1  0  0  0  0
 17 20  1  6  0  0  0
 17 18  1  0  0  0  0
 17 21  1  0  0  0  0
 18 19  2  0  0  0  0
 19 16  1  0  0  0  0
 21 15  1  1  0  0  0
 21 16  1  0  0  0  0
 23 24  1  0  0  0  0
 23 22  1  0  0  0  0
 25 26  1  1  0  0  0
 25 24  1  0  0  0  0
 27 25  1  0  0  0  0
 28 30  1  0  0  0  0
 28 27  1  0  0  0  0
 29 28  2  0  0  0  0
 30 31  1  0  0  0  0
 32 31  1  0  0  0  0
M  END
>  <MODEL>
9

>  <REMARK>
 VINA RESULT:      -6.1      3.221      6.465
  Name = 
  17 active torsions:
  status: ('A' for Active; 'I' for Inactive)
    1  A    between atoms: C_1  and  O_20
    2  A    between atoms: C_2  and  C_9
    3  A    between atoms: C_2  and  O_23
    4  A    between atoms: O_3  and  C_14
    5  A    between atoms: C_4  and  C_5
    6  A    between atoms: O_6  and  C_31
    7  A    between atoms: C_8  and  O_23
    8  A    between atoms: C_8  and  C_28
    9  A    between atoms: C_9  and  N_10
   10  A    between atoms: C_13  and  C_28
   11  A    between atoms: C_13  and  C_31
   12  A    between atoms: C_14  and  C_26
   13  A    between atoms: C_14  and  C_28
   14  A    between atoms: O_16  and  C_27
   15  A    between atoms: O_16  and  C_31
   16  A    between atoms: C_19  and  O_20
   17  A    between atoms: C_27  and  C_32
                            x       y       z     vdW  Elec       q    Type
                         _______ _______ _______ _____ _____    ______ ____

>  <TORSDO>
F 17

$$$$
