=
 OpenBabel11062408123D

 34 38  0  0  1  0  0  0  0  0999 V2000
  161.0430  206.9380  153.9890 C   0  0  0  0  0  0  0  0  0  0  0  0
  160.9420  209.4710  154.0900 C   0  0  2  0  0  3  0  0  0  0  0  0
  161.3290  208.1980  151.9080 C   0  0  0  0  0  0  0  0  0  0  0  0
  162.4780  209.6700  150.2100 C   0  0  0  0  0  2  0  0  0  0  0  0
  161.6860  209.4600  155.2720 O   0  0  0  0  0  1  0  0  0  0  0  0
  160.8310  210.6410  151.8730 C   0  0  2  0  0  3  0  0  0  0  0  0
  161.1400  208.1760  153.3160 C   0  0  0  0  0  0  0  0  0  0  0  0
  161.1750  211.9410  151.1480 C   0  0  0  0  0  2  0  0  0  0  0  0
  161.9580  210.5820  149.0980 C   0  0  0  0  0  2  0  0  0  0  0  0
  161.3770  206.9730  151.1890 C   0  0  0  0  0  0  0  0  0  0  0  0
  161.1870  205.7460  153.2710 C   0  0  0  0  0  3  0  0  0  0  0  0
  161.3080  210.7320  153.3090 C   0  0  0  0  0  2  0  0  0  0  0  0
  161.0860  211.7350  149.6320 C   0  0  2  0  0  3  0  0  0  0  0  0
  161.4560  209.4720  151.2430 N   0  0  0  0  0  0  0  0  0  0  0  0
  161.3590  205.7650  151.8930 C   0  0  0  0  0  3  0  0  0  0  0  0
  160.8320  203.0370  149.1300 C   0  0  0  0  0  0  0  0  0  0  0  0
  161.2700  202.9460  147.8680 C   0  0  0  0  0  3  0  0  0  0  0  0
  161.3670  205.5030  149.0990 C   0  0  2  0  0  0  0  0  0  0  0  0
  161.9180  204.0810  147.1830 C   0  0  0  0  0  3  0  0  0  0  0  0
  161.0540  204.2730  149.9630 C   0  0  0  0  0  2  0  0  0  0  0  0
  160.1930  206.4430  149.0360 C   0  0  0  0  0  2  0  0  0  0  0  0
  161.9850  205.2830  147.7550 C   0  0  0  0  0  3  0  0  0  0  0  0
  161.4960  206.9130  149.6840 C   0  0  1  0  0  3  0  0  0  0  0  0
  160.2110  201.8460  149.7650 C   0  0  0  0  0  1  0  0  0  0  0  0
  160.8010  206.9100  155.3680 O   0  0  0  0  0  0  0  0  0  0  0  0
  159.4950  206.9540  155.9260 C   0  0  0  0  0  1  0  0  0  0  0  0
  161.2330  212.9300  148.8960 O   0  0  0  0  0  0  0  0  0  0  0  0
  160.5210  212.8100  147.6890 C   0  0  0  0  0  2  0  0  0  0  0  0
  162.6320  213.0760  146.5810 O   0  0  0  0  0  1  0  0  0  0  0  0
  161.2870  213.4590  146.5360 C   0  0  1  0  0  3  0  0  0  0  0  0
  159.8490  214.3590  144.6840 C   0  0  0  0  0  1  0  0  0  0  0  0
  160.6780  213.1760  145.1530 C   0  0  0  0  0  0  0  0  0  0  0  0
  159.8710  212.0370  145.1970 O   0  0  0  0  0  1  0  0  0  0  0  0
  161.7880  212.9530  144.1430 C   0  0  0  0  0  1  0  0  0  0  0  0
  1 25  1  0  0  0  0
  2  5  1  1  0  0  0
  3  7  2  0  0  0  0
  4 14  1  0  0  0  0
  6  8  1  6  0  0  0
  6 12  1  0  0  0  0
  7  1  1  0  0  0  0
  7  2  1  0  0  0  0
  9 13  1  0  0  0  0
  9  4  1  0  0  0  0
 10 15  2  0  0  0  0
 10  3  1  0  0  0  0
 11  1  2  0  0  0  0
 12  2  1  0  0  0  0
 13 27  1  6  0  0  0
 13  8  1  0  0  0  0
 14  6  1  0  0  0  0
 14  3  1  0  0  0  0
 15 11  1  0  0  0  0
 16 24  1  0  0  0  0
 16 20  1  0  0  0  0
 17 16  2  0  0  0  0
 18 22  1  6  0  0  0
 18 23  1  0  0  0  0
 18 20  1  0  0  0  0
 19 22  2  0  0  0  0
 19 17  1  0  0  0  0
 21 18  1  0  0  0  0
 21 23  1  0  0  0  0
 23 10  1  1  0  0  0
 25 26  1  0  0  0  0
 28 27  1  0  0  0  0
 30 29  1  6  0  0  0
 30 28  1  0  0  0  0
 31 32  1  0  0  0  0
 32 33  1  0  0  0  0
 32 30  1  0  0  0  0
 34 32  1  0  0  0  0
M  END
>  <MODEL>
1

>  <REMARK>
 VINA RESULT:      -8.8      0.000      0.000
  Name = 
  6 active torsions:
  status: ('A' for Active; 'I' for Inactive)
    1  A    between atoms: C_1  and  O_6
    2  A    between atoms: O_3  and  C_13
    3  A    between atoms: O_3  and  C_29
    4  A    between atoms: C_13  and  C_33
    5  A    between atoms: C_20  and  C_33
    6  A    between atoms: C_21  and  C_28
                            x       y       z     vdW  Elec       q    Type
                         _______ _______ _______ _____ _____    ______ ____

>  <TORSDO>
F 6

$$$$
=
 OpenBabel11062408123D

 34 38  0  0  1  0  0  0  0  0999 V2000
  161.0420  207.0630  154.1350 C   0  0  0  0  0  0  0  0  0  0  0  0
  160.8520  209.5910  154.2380 C   0  0  2  0  0  3  0  0  0  0  0  0
  161.2740  208.3330  152.0530 C   0  0  0  0  0  0  0  0  0  0  0  0
  162.3620  209.8460  150.3510 C   0  0  0  0  0  2  0  0  0  0  0  0
  161.6000  209.6060  155.4160 O   0  0  0  0  0  1  0  0  0  0  0  0
  160.6890  210.7570  152.0220 C   0  0  2  0  0  3  0  0  0  0  0  0
  161.0930  208.3040  153.4620 C   0  0  0  0  0  0  0  0  0  0  0  0
  160.9830  212.0690  151.2960 C   0  0  0  0  0  2  0  0  0  0  0  0
  161.8050  210.7400  149.2420 C   0  0  0  0  0  2  0  0  0  0  0  0
  161.3630  207.1120  151.3330 C   0  0  0  0  0  0  0  0  0  0  0  0
  161.2260  205.8780  153.4160 C   0  0  0  0  0  3  0  0  0  0  0  0
  161.1690  210.8650  153.4560 C   0  0  0  0  0  2  0  0  0  0  0  0
  160.8940  211.8600  149.7800 C   0  0  2  0  0  3  0  0  0  0  0  0
  161.3530  209.6120  151.3880 N   0  0  0  0  0  0  0  0  0  0  0  0
  161.3920  205.9040  152.0370 C   0  0  0  0  0  3  0  0  0  0  0  0
  160.8760  203.1710  149.2690 C   0  0  0  0  0  0  0  0  0  0  0  0
  161.3110  203.0890  148.0060 C   0  0  0  0  0  3  0  0  0  0  0  0
  161.3700  205.6450  149.2400 C   0  0  2  0  0  0  0  0  0  0  0  0
  161.9380  204.2360  147.3200 C   0  0  0  0  0  3  0  0  0  0  0  0
  161.0810  204.4090  150.1030 C   0  0  0  0  0  2  0  0  0  0  0  0
  160.1800  206.5660  149.1840 C   0  0  0  0  0  2  0  0  0  0  0  0
  161.9870  205.4380  147.8940 C   0  0  0  0  0  3  0  0  0  0  0  0
  161.4780  207.0560  149.8280 C   0  0  1  0  0  3  0  0  0  0  0  0
  160.2770  201.9680  149.9040 C   0  0  0  0  0  1  0  0  0  0  0  0
  160.8080  207.0260  155.5150 O   0  0  0  0  0  0  0  0  0  0  0  0
  159.5040  206.9670  156.0770 C   0  0  0  0  0  1  0  0  0  0  0  0
  160.9950  213.0600  149.0440 O   0  0  0  0  0  0  0  0  0  0  0  0
  159.8970  213.8800  149.3630 C   0  0  0  0  0  2  0  0  0  0  0  0
  159.4070  213.2210  147.1080 O   0  0  0  0  0  1  0  0  0  0  0  0
  158.9150  213.9550  148.1930 C   0  0  1  0  0  3  0  0  0  0  0  0
  157.2790  213.5710  150.0600 C   0  0  0  0  0  1  0  0  0  0  0  0
  157.4870  213.5150  148.5570 C   0  0  0  0  0  0  0  0  0  0  0  0
  157.2470  212.2150  148.1060 O   0  0  0  0  0  1  0  0  0  0  0  0
  156.4850  214.4520  147.9110 C   0  0  0  0  0  1  0  0  0  0  0  0
  1 25  1  0  0  0  0
  2  5  1  1  0  0  0
  3  7  2  0  0  0  0
  4 14  1  0  0  0  0
  6  8  1  6  0  0  0
  6 12  1  0  0  0  0
  7  1  1  0  0  0  0
  7  2  1  0  0  0  0
  9 13  1  0  0  0  0
  9  4  1  0  0  0  0
 10 15  2  0  0  0  0
 10  3  1  0  0  0  0
 11  1  2  0  0  0  0
 12  2  1  0  0  0  0
 13 27  1  6  0  0  0
 13  8  1  0  0  0  0
 14  6  1  0  0  0  0
 14  3  1  0  0  0  0
 15 11  1  0  0  0  0
 16 24  1  0  0  0  0
 16 20  1  0  0  0  0
 17 16  2  0  0  0  0
 18 22  1  6  0  0  0
 18 23  1  0  0  0  0
 18 20  1  0  0  0  0
 19 22  2  0  0  0  0
 19 17  1  0  0  0  0
 21 18  1  0  0  0  0
 21 23  1  0  0  0  0
 23 10  1  1  0  0  0
 25 26  1  0  0  0  0
 27 28  1  0  0  0  0
 30 29  1  6  0  0  0
 30 32  1  0  0  0  0
 30 28  1  0  0  0  0
 32 31  1  0  0  0  0
 33 32  1  0  0  0  0
 34 32  1  0  0  0  0
M  END
>  <MODEL>
2

>  <REMARK>
 VINA RESULT:      -8.5      1.534      2.050
  Name = 
  6 active torsions:
  status: ('A' for Active; 'I' for Inactive)
    1  A    between atoms: C_1  and  O_6
    2  A    between atoms: O_3  and  C_13
    3  A    between atoms: O_3  and  C_29
    4  A    between atoms: C_13  and  C_33
    5  A    between atoms: C_20  and  C_33
    6  A    between atoms: C_21  and  C_28
                            x       y       z     vdW  Elec       q    Type
                         _______ _______ _______ _____ _____    ______ ____

>  <TORSDO>
F 6

$$$$
=
 OpenBabel11062408123D

 34 38  0  0  1  0  0  0  0  0999 V2000
  160.8490  212.6580  150.5380 C   0  0  0  0  0  0  0  0  0  0  0  0
  161.7900  210.9770  148.8860 C   0  0  2  0  0  3  0  0  0  0  0  0
  160.9190  210.2990  151.1920 C   0  0  0  0  0  0  0  0  0  0  0  0
  161.9370  208.1080  151.9190 C   0  0  0  0  0  2  0  0  0  0  0  0
  162.8070  211.8710  148.5460 O   0  0  0  0  0  1  0  0  0  0  0  0
  161.4370  208.5640  149.4770 C   0  0  2  0  0  3  0  0  0  0  0  0
  161.2020  211.3220  150.2480 C   0  0  0  0  0  0  0  0  0  0  0  0
  162.0100  207.1580  149.3060 C   0  0  0  0  0  2  0  0  0  0  0  0
  161.4890  206.6510  151.7820 C   0  0  0  0  0  2  0  0  0  0  0  0
  160.2480  210.6280  152.4000 C   0  0  0  0  0  0  0  0  0  0  0  0
  160.2740  212.9700  151.7740 C   0  0  0  0  0  3  0  0  0  0  0  0
  162.3480  209.5580  148.7840 C   0  0  0  0  0  2  0  0  0  0  0  0
  161.3620  206.2020  150.3140 C   0  0  2  0  0  3  0  0  0  0  0  0
  161.3140  208.9440  150.8890 N   0  0  0  0  0  0  0  0  0  0  0  0
  159.9850  211.9700  152.6930 C   0  0  0  0  0  3  0  0  0  0  0  0
  162.6020  210.2710  156.1890 C   0  0  0  0  0  0  0  0  0  0  0  0
  162.4420  209.1480  156.9000 C   0  0  0  0  0  3  0  0  0  0  0  0
  160.7650  209.5070  154.6380 C   0  0  2  0  0  0  0  0  0  0  0  0
  161.5430  208.0650  156.4570 C   0  0  0  0  0  3  0  0  0  0  0  0
  161.9480  210.4620  154.8450 C   0  0  0  0  0  2  0  0  0  0  0  0
  159.4490  210.2310  154.7500 C   0  0  0  0  0  2  0  0  0  0  0  0
  160.7610  208.2130  155.3880 C   0  0  0  0  0  3  0  0  0  0  0  0
  159.8410  209.5890  153.4180 C   0  0  1  0  0  3  0  0  0  0  0  0
  163.5440  211.3090  156.6840 C   0  0  0  0  0  1  0  0  0  0  0  0
  161.0750  213.6630  149.5880 O   0  0  0  0  0  0  0  0  0  0  0  0
  160.0300  214.2690  148.8400 C   0  0  0  0  0  1  0  0  0  0  0  0
  161.7210  204.8520  150.1130 O   0  0  0  0  0  0  0  0  0  0  0  0
  160.8760  204.3000  149.1320 C   0  0  0  0  0  2  0  0  0  0  0  0
  161.2460  202.2640  147.9170 O   0  0  0  0  0  1  0  0  0  0  0  0
  161.6880  203.5850  148.0520 C   0  0  1  0  0  3  0  0  0  0  0  0
  163.0870  204.7780  146.3400 C   0  0  0  0  0  1  0  0  0  0  0  0
  161.6860  204.3100  146.6960 C   0  0  0  0  0  0  0  0  0  0  0  0
  160.8280  205.4120  146.7320 O   0  0  0  0  0  1  0  0  0  0  0  0
  161.2210  203.3590  145.6100 C   0  0  0  0  0  1  0  0  0  0  0  0
  1 11  1  0  0  0  0
  2  5  1  1  0  0  0
  2  7  1  0  0  0  0
  3 10  2  0  0  0  0
  6 12  1  6  0  0  0
  6 14  1  0  0  0  0
  7  1  2  0  0  0  0
  7  3  1  0  0  0  0
  8  6  1  0  0  0  0
  8 13  1  0  0  0  0
  9  4  1  0  0  0  0
 10 15  1  0  0  0  0
 11 15  2  0  0  0  0
 12  2  1  0  0  0  0
 13 27  1  1  0  0  0
 13  9  1  0  0  0  0
 14  3  1  0  0  0  0
 14  4  1  0  0  0  0
 16 24  1  0  0  0  0
 16 17  2  0  0  0  0
 18 21  1  1  0  0  0
 18 20  1  0  0  0  0
 18 22  1  0  0  0  0
 19 17  1  0  0  0  0
 20 16  1  0  0  0  0
 22 19  2  0  0  0  0
 23 10  1  6  0  0  0
 23 18  1  0  0  0  0
 23 21  1  0  0  0  0
 25  1  1  0  0  0  0
 26 25  1  0  0  0  0
 28 27  1  0  0  0  0
 30 29  1  6  0  0  0
 30 28  1  0  0  0  0
 31 32  1  0  0  0  0
 32 33  1  0  0  0  0
 32 30  1  0  0  0  0
 34 32  1  0  0  0  0
M  END
>  <MODEL>
3

>  <REMARK>
 VINA RESULT:      -7.8      2.657      7.641
  Name = 
  6 active torsions:
  status: ('A' for Active; 'I' for Inactive)
    1  A    between atoms: C_1  and  O_6
    2  A    between atoms: O_3  and  C_13
    3  A    between atoms: O_3  and  C_29
    4  A    between atoms: C_13  and  C_33
    5  A    between atoms: C_20  and  C_33
    6  A    between atoms: C_21  and  C_28
                            x       y       z     vdW  Elec       q    Type
                         _______ _______ _______ _____ _____    ______ ____

>  <TORSDO>
F 6

$$$$
=
 OpenBabel11062408123D

 34 38  0  0  1  0  0  0  0  0999 V2000
  160.6800  212.5660  150.7120 C   0  0  0  0  0  0  0  0  0  0  0  0
  161.7150  210.8300  149.1770 C   0  0  2  0  0  3  0  0  0  0  0  0
  160.8490  210.2580  151.5130 C   0  0  0  0  0  0  0  0  0  0  0  0
  161.9570  208.1650  152.3840 C   0  0  0  0  0  2  0  0  0  0  0  0
  162.6940  211.7470  148.7910 O   0  0  0  0  0  1  0  0  0  0  0  0
  161.4650  208.4450  149.9150 C   0  0  2  0  0  3  0  0  0  0  0  0
  161.0960  211.2320  150.5090 C   0  0  0  0  0  0  0  0  0  0  0  0
  162.1020  207.0590  149.8360 C   0  0  0  0  0  2  0  0  0  0  0  0
  161.5770  206.6840  152.3350 C   0  0  0  0  0  2  0  0  0  0  0  0
  160.1500  210.6300  152.6930 C   0  0  0  0  0  0  0  0  0  0  0  0
  160.0780  212.9270  151.9220 C   0  0  0  0  0  3  0  0  0  0  0  0
  162.3370  209.4350  149.1680 C   0  0  0  0  0  2  0  0  0  0  0  0
  161.4870  206.1380  150.8970 C   0  0  2  0  0  3  0  0  0  0  0  0
  161.3080  208.9060  151.2990 N   0  0  0  0  0  0  0  0  0  0  0  0
  159.8240  211.9740  152.8990 C   0  0  0  0  0  3  0  0  0  0  0  0
  162.6650  210.4050  156.3880 C   0  0  0  0  0  0  0  0  0  0  0  0
  162.5260  209.3160  157.1520 C   0  0  0  0  0  3  0  0  0  0  0  0
  160.7550  209.5980  154.9510 C   0  0  2  0  0  0  0  0  0  0  0  0
  161.5990  208.2240  156.7940 C   0  0  0  0  0  3  0  0  0  0  0  0
  161.9550  210.5480  155.0670 C   0  0  0  0  0  2  0  0  0  0  0  0
  159.4510  210.3400  155.0900 C   0  0  0  0  0  2  0  0  0  0  0  0
  160.7730  208.3360  155.7550 C   0  0  0  0  0  3  0  0  0  0  0  0
  159.7790  209.6380  153.7710 C   0  0  1  0  0  3  0  0  0  0  0  0
  163.6360  211.4530  156.7980 C   0  0  0  0  0  1  0  0  0  0  0  0
  160.8720  213.5190  149.7040 O   0  0  0  0  0  0  0  0  0  0  0  0
  159.8070  214.0400  148.9200 C   0  0  0  0  0  1  0  0  0  0  0  0
  161.9090  204.7970  150.7840 O   0  0  0  0  0  0  0  0  0  0  0  0
  160.7730  203.9660  150.7540 C   0  0  0  0  0  2  0  0  0  0  0  0
  161.5810  203.8100  148.5000 O   0  0  0  0  0  1  0  0  0  0  0  0
  160.5860  203.3470  149.3680 C   0  0  1  0  0  3  0  0  0  0  0  0
  159.0940  201.3270  149.3830 C   0  0  0  0  0  1  0  0  0  0  0  0
  160.5340  201.8100  149.3810 C   0  0  0  0  0  0  0  0  0  0  0  0
  161.1900  201.3080  150.5070 O   0  0  0  0  0  1  0  0  0  0  0  0
  161.2080  201.2670  148.1360 C   0  0  0  0  0  1  0  0  0  0  0  0
  1 11  1  0  0  0  0
  2  5  1  1  0  0  0
  2  7  1  0  0  0  0
  3 10  2  0  0  0  0
  6 12  1  6  0  0  0
  6 14  1  0  0  0  0
  7  1  2  0  0  0  0
  7  3  1  0  0  0  0
  8  6  1  0  0  0  0
  8 13  1  0  0  0  0
  9  4  1  0  0  0  0
 10 15  1  0  0  0  0
 11 15  2  0  0  0  0
 12  2  1  0  0  0  0
 13 27  1  1  0  0  0
 13  9  1  0  0  0  0
 14  3  1  0  0  0  0
 14  4  1  0  0  0  0
 16 24  1  0  0  0  0
 16 17  2  0  0  0  0
 18 20  1  6  0  0  0
 18 21  1  0  0  0  0
 18 22  1  0  0  0  0
 19 17  1  0  0  0  0
 20 16  1  0  0  0  0
 22 19  2  0  0  0  0
 23 10  1  6  0  0  0
 23 18  1  0  0  0  0
 23 21  1  0  0  0  0
 25  1  1  0  0  0  0
 26 25  1  0  0  0  0
 28 27  1  0  0  0  0
 30 29  1  6  0  0  0
 30 32  1  0  0  0  0
 30 28  1  0  0  0  0
 32 31  1  0  0  0  0
 32 33  1  0  0  0  0
 34 32  1  0  0  0  0
M  END
>  <MODEL>
4

>  <REMARK>
 VINA RESULT:      -7.4      2.595      8.261
  Name = 
  6 active torsions:
  status: ('A' for Active; 'I' for Inactive)
    1  A    between atoms: C_1  and  O_6
    2  A    between atoms: O_3  and  C_13
    3  A    between atoms: O_3  and  C_29
    4  A    between atoms: C_13  and  C_33
    5  A    between atoms: C_20  and  C_33
    6  A    between atoms: C_21  and  C_28
                            x       y       z     vdW  Elec       q    Type
                         _______ _______ _______ _____ _____    ______ ____

>  <TORSDO>
F 6

$$$$
=
 OpenBabel11062408123D

 34 38  0  0  1  0  0  0  0  0999 V2000
  161.9570  210.3620  148.9640 C   0  0  0  0  0  0  0  0  0  0  0  0
  161.1160  212.1020  150.6090 C   0  0  2  0  0  3  0  0  0  0  0  0
  161.4540  209.6520  151.2540 C   0  0  0  0  0  0  0  0  0  0  0  0
  160.0350  209.0540  153.2530 C   0  0  0  0  0  2  0  0  0  0  0  0
  160.3070  212.6580  149.6170 O   0  0  0  0  0  1  0  0  0  0  0  0
  161.0280  211.3720  153.0080 C   0  0  2  0  0  3  0  0  0  0  0  0
  161.4870  210.6670  150.2610 C   0  0  0  0  0  0  0  0  0  0  0  0
  160.3130  211.5990  154.3390 C   0  0  0  0  0  2  0  0  0  0  0  0
  160.3020  209.0530  154.7600 C   0  0  0  0  0  2  0  0  0  0  0  0
  161.9320  208.3510  150.9410 C   0  0  0  0  0  0  0  0  0  0  0  0
  162.3340  209.0510  148.6550 C   0  0  0  0  0  3  0  0  0  0  0  0
  160.4000  212.2580  151.9500 C   0  0  0  0  0  2  0  0  0  0  0  0
  160.6320  210.4550  155.3070 C   0  0  2  0  0  3  0  0  0  0  0  0
  160.9420  209.9760  152.5640 N   0  0  0  0  0  0  0  0  0  0  0  0
  162.3140  208.0600  149.6270 C   0  0  0  0  0  3  0  0  0  0  0  0
  161.1130  204.1520  149.6270 C   0  0  0  0  0  0  0  0  0  0  0  0
  160.8510  203.2560  150.5860 C   0  0  0  0  0  3  0  0  0  0  0  0
  161.6290  205.8570  151.4130 C   0  0  2  0  0  0  0  0  0  0  0  0
  160.8160  203.6280  152.0140 C   0  0  0  0  0  3  0  0  0  0  0  0
  161.2980  205.6150  149.9340 C   0  0  0  0  0  2  0  0  0  0  0  0
  163.0810  206.2150  151.5990 C   0  0  0  0  0  2  0  0  0  0  0  0
  161.1640  204.8500  152.4160 C   0  0  0  0  0  3  0  0  0  0  0  0
  162.0040  207.2390  151.9610 C   0  0  1  0  0  3  0  0  0  0  0  0
  161.1060  203.7110  148.2080 C   0  0  0  0  0  1  0  0  0  0  0  0
  162.0440  211.3720  147.9970 O   0  0  0  0  0  0  0  0  0  0  0  0
  163.2370  212.1030  147.7480 C   0  0  0  0  0  1  0  0  0  0  0  0
  160.1380  210.6730  156.6110 O   0  0  0  0  0  0  0  0  0  0  0  0
  158.7320  210.6300  156.5760 C   0  0  0  0  0  2  0  0  0  0  0  0
  159.0950  212.9010  157.2600 O   0  0  0  0  0  1  0  0  0  0  0  0
  158.1320  211.8880  157.2070 C   0  0  1  0  0  3  0  0  0  0  0  0
  156.7000  213.8800  156.6700 C   0  0  0  0  0  1  0  0  0  0  0  0
  156.8520  212.3770  156.5100 C   0  0  0  0  0  0  0  0  0  0  0  0
  155.7300  211.7410  157.0450 O   0  0  0  0  0  1  0  0  0  0  0  0
  156.9300  212.0710  155.0260 C   0  0  0  0  0  1  0  0  0  0  0  0
  1  7  1  0  0  0  0
  2  5  1  6  0  0  0
  2 12  1  0  0  0  0
  3 14  1  0  0  0  0
  4  9  1  0  0  0  0
  6 12  1  6  0  0  0
  6  8  1  0  0  0  0
  7  2  1  0  0  0  0
  7  3  2  0  0  0  0
  8 13  1  0  0  0  0
  9 13  1  0  0  0  0
 10  3  1  0  0  0  0
 11  1  2  0  0  0  0
 11 15  1  0  0  0  0
 13 27  1  1  0  0  0
 14  6  1  0  0  0  0
 14  4  1  0  0  0  0
 15 10  2  0  0  0  0
 16 20  1  0  0  0  0
 16 17  2  0  0  0  0
 17 19  1  0  0  0  0
 18 20  1  6  0  0  0
 18 21  1  0  0  0  0
 18 23  1  0  0  0  0
 18 22  1  0  0  0  0
 19 22  2  0  0  0  0
 21 23  1  0  0  0  0
 23 10  1  6  0  0  0
 24 16  1  0  0  0  0
 25  1  1  0  0  0  0
 26 25  1  0  0  0  0
 28 27  1  0  0  0  0
 28 30  1  0  0  0  0
 30 29  1  6  0  0  0
 32 31  1  0  0  0  0
 32 33  1  0  0  0  0
 32 30  1  0  0  0  0
 34 32  1  0  0  0  0
M  END
>  <MODEL>
5

>  <REMARK>
 VINA RESULT:      -7.2      2.721      6.756
  Name = 
  6 active torsions:
  status: ('A' for Active; 'I' for Inactive)
    1  A    between atoms: C_1  and  O_6
    2  A    between atoms: O_3  and  C_13
    3  A    between atoms: O_3  and  C_29
    4  A    between atoms: C_13  and  C_33
    5  A    between atoms: C_20  and  C_33
    6  A    between atoms: C_21  and  C_28
                            x       y       z     vdW  Elec       q    Type
                         _______ _______ _______ _____ _____    ______ ____

>  <TORSDO>
F 6

$$$$
=
 OpenBabel11062408123D

 34 38  0  0  1  0  0  0  0  0999 V2000
  161.4150  207.8370  152.7270 C   0  0  0  0  0  0  0  0  0  0  0  0
  161.9520  208.3750  150.3060 C   0  0  2  0  0  3  0  0  0  0  0  0
  161.1000  210.1390  151.9490 C   0  0  0  0  0  0  0  0  0  0  0  0
  160.0230  212.0580  150.7150 C   0  0  0  0  0  2  0  0  0  0  0  0
  161.3630  207.1760  149.9020 O   0  0  0  0  0  1  0  0  0  0  0  0
  161.9960  210.8160  149.7220 C   0  0  2  0  0  3  0  0  0  0  0  0
  161.4480  208.7870  151.6820 C   0  0  0  0  0  0  0  0  0  0  0  0
  161.7920  211.8130  148.5830 C   0  0  0  0  0  2  0  0  0  0  0  0
  160.5540  213.3980  150.2000 C   0  0  0  0  0  2  0  0  0  0  0  0
  160.7610  210.5260  153.2730 C   0  0  0  0  0  0  0  0  0  0  0  0
  160.9870  208.2240  154.0010 C   0  0  0  0  0  3  0  0  0  0  0  0
  161.7150  209.4150  149.2130 C   0  0  0  0  0  2  0  0  0  0  0  0
  161.6650  213.2330  149.1460 C   0  0  2  0  0  3  0  0  0  0  0  0
  161.1120  211.0880  150.8620 N   0  0  0  0  0  0  0  0  0  0  0  0
  160.6590  209.5470  154.2670 C   0  0  0  0  0  3  0  0  0  0  0  0
  156.6160  211.5780  154.5930 C   0  0  0  0  0  0  0  0  0  0  0  0
  156.2900  212.8760  154.5940 C   0  0  0  0  0  3  0  0  0  0  0  0
  158.9890  212.2110  154.0140 C   0  0  2  0  0  0  0  0  0  0  0  0
  157.2420  213.9200  154.1680 C   0  0  0  0  0  3  0  0  0  0  0  0
  157.9420  211.0900  154.0690 C   0  0  0  0  0  2  0  0  0  0  0  0
  160.0090  212.0640  155.1130 C   0  0  0  0  0  2  0  0  0  0  0  0
  158.5080  213.6210  153.8780 C   0  0  0  0  0  3  0  0  0  0  0  0
  160.4560  211.9550  153.6550 C   0  0  1  0  0  3  0  0  0  0  0  0
  155.5980  210.5790  155.0110 C   0  0  0  0  0  1  0  0  0  0  0  0
  161.8100  206.5160  152.4830 O   0  0  0  0  0  0  0  0  0  0  0  0
  161.2060  205.3980  153.1200 C   0  0  0  0  0  1  0  0  0  0  0  0
  161.6360  214.2290  148.1460 O   0  0  0  0  0  0  0  0  0  0  0  0
  160.2990  214.4450  147.7620 C   0  0  0  0  0  2  0  0  0  0  0  0
  161.3370  213.8420  145.6840 O   0  0  0  0  0  1  0  0  0  0  0  0
  160.1270  214.2510  146.2550 C   0  0  1  0  0  3  0  0  0  0  0  0
  158.2910  212.7790  147.1340 C   0  0  0  0  0  1  0  0  0  0  0  0
  158.9860  213.2880  145.8840 C   0  0  0  0  0  0  0  0  0  0  0  0
  159.4800  212.2030  145.1570 O   0  0  0  0  0  1  0  0  0  0  0  0
  157.9580  214.0180  145.0410 C   0  0  0  0  0  1  0  0  0  0  0  0
  1 11  1  0  0  0  0
  2  5  1  6  0  0  0
  2  7  1  0  0  0  0
  3 10  2  0  0  0  0
  4 14  1  0  0  0  0
  6  8  1  6  0  0  0
  6 14  1  0  0  0  0
  7  3  1  0  0  0  0
  7  1  2  0  0  0  0
  8 13  1  0  0  0  0
  9  4  1  0  0  0  0
 10 15  1  0  0  0  0
 11 15  2  0  0  0  0
 12  6  1  0  0  0  0
 12  2  1  0  0  0  0
 13 27  1  6  0  0  0
 13  9  1  0  0  0  0
 14  3  1  0  0  0  0
 16 17  2  0  0  0  0
 16 24  1  0  0  0  0
 18 22  1  6  0  0  0
 18 20  1  0  0  0  0
 18 21  1  0  0  0  0
 19 17  1  0  0  0  0
 20 16  1  0  0  0  0
 22 19  2  0  0  0  0
 23 10  1  1  0  0  0
 23 18  1  0  0  0  0
 23 21  1  0  0  0  0
 25  1  1  0  0  0  0
 25 26  1  0  0  0  0
 28 27  1  0  0  0  0
 30 29  1  1  0  0  0
 30 28  1  0  0  0  0
 32 30  1  0  0  0  0
 32 31  1  0  0  0  0
 33 32  1  0  0  0  0
 34 32  1  0  0  0  0
M  END
>  <MODEL>
6

>  <REMARK>
 VINA RESULT:      -7.0      2.644      5.913
  Name = 
  6 active torsions:
  status: ('A' for Active; 'I' for Inactive)
    1  A    between atoms: C_1  and  O_6
    2  A    between atoms: O_3  and  C_13
    3  A    between atoms: O_3  and  C_29
    4  A    between atoms: C_13  and  C_33
    5  A    between atoms: C_20  and  C_33
    6  A    between atoms: C_21  and  C_28
                            x       y       z     vdW  Elec       q    Type
                         _______ _______ _______ _____ _____    ______ ____

>  <TORSDO>
F 6

$$$$
=
 OpenBabel11062408123D

 34 38  0  0  1  0  0  0  0  0999 V2000
  161.8970  209.8920  150.0130 C   0  0  0  0  0  0  0  0  0  0  0  0
  161.4510  207.9710  148.4170 C   0  0  2  0  0  3  0  0  0  0  0  0
  161.7150  207.6310  150.9370 C   0  0  0  0  0  0  0  0  0  0  0  0
  162.4000  205.2570  151.4480 C   0  0  0  0  0  2  0  0  0  0  0  0
  162.3430  208.5220  147.4950 O   0  0  0  0  0  1  0  0  0  0  0  0
  160.8730  205.7790  149.4940 C   0  0  2  0  0  3  0  0  0  0  0  0
  161.7250  208.5050  149.8170 C   0  0  0  0  0  0  0  0  0  0  0  0
  160.9270  204.2640  149.3090 C   0  0  0  0  0  2  0  0  0  0  0  0
  161.6080  203.9910  151.7830 C   0  0  0  0  0  2  0  0  0  0  0  0
  161.8390  208.1700  152.2460 C   0  0  0  0  0  0  0  0  0  0  0  0
  162.1110  210.3880  151.3040 C   0  0  0  0  0  3  0  0  0  0  0  0
  161.5240  206.4490  148.3000 C   0  0  0  0  0  2  0  0  0  0  0  0
  160.6620  203.5620  150.6450 C   0  0  2  0  0  3  0  0  0  0  0  0
  161.5670  206.2130  150.7130 N   0  0  0  0  0  0  0  0  0  0  0  0
  162.0890  209.5370  152.4010 C   0  0  0  0  0  3  0  0  0  0  0  0
  159.7970  209.8220  155.8700 C   0  0  0  0  0  0  0  0  0  0  0  0
  160.0340  209.2060  157.0340 C   0  0  0  0  0  3  0  0  0  0  0  0
  161.1070  208.0180  154.6900 C   0  0  2  0  0  0  0  0  0  0  0  0
  160.9370  208.0440  157.1330 C   0  0  0  0  0  3  0  0  0  0  0  0
  160.5070  209.4280  154.6010 C   0  0  0  0  0  2  0  0  0  0  0  0
  160.3090  207.0290  153.8810 C   0  0  0  0  0  2  0  0  0  0  0  0
  161.4610  207.4850  156.0420 C   0  0  0  0  0  3  0  0  0  0  0  0
  161.7590  207.3200  153.4920 C   0  0  1  0  0  3  0  0  0  0  0  0
  158.8950  211.0030  155.8500 C   0  0  0  0  0  1  0  0  0  0  0  0
  161.8520  210.7640  148.9180 O   0  0  0  0  0  0  0  0  0  0  0  0
  162.7420  211.8620  148.7660 C   0  0  0  0  0  1  0  0  0  0  0  0
  160.5360  202.1620  150.5250 O   0  0  0  0  0  0  0  0  0  0  0  0
  160.0120  201.8620  149.2540 C   0  0  0  0  0  2  0  0  0  0  0  0
  161.6240  200.1930  148.6420 O   0  0  0  0  0  1  0  0  0  0  0  0
  161.1250  201.4510  148.2890 C   0  0  1  0  0  3  0  0  0  0  0  0
  161.3020  202.6920  146.1120 C   0  0  0  0  0  1  0  0  0  0  0  0
  160.7020  201.4840  146.8100 C   0  0  0  0  0  0  0  0  0  0  0  0
  159.3110  201.5300  146.7000 O   0  0  0  0  0  1  0  0  0  0  0  0
  161.2100  200.2380  146.1090 C   0  0  0  0  0  1  0  0  0  0  0  0
  1 11  1  0  0  0  0
  2  5  1  6  0  0  0
  2  7  1  0  0  0  0
  3 10  2  0  0  0  0
  4  9  1  0  0  0  0
  6 12  1  6  0  0  0
  6 14  1  0  0  0  0
  7  1  2  0  0  0  0
  7  3  1  0  0  0  0
  8  6  1  0  0  0  0
  8 13  1  0  0  0  0
 10 15  1  0  0  0  0
 11 15  2  0  0  0  0
 12  2  1  0  0  0  0
 13 27  1  6  0  0  0
 13  9  1  0  0  0  0
 14  3  1  0  0  0  0
 14  4  1  0  0  0  0
 16 17  2  0  0  0  0
 17 19  1  0  0  0  0
 18 21  1  6  0  0  0
 18 22  1  0  0  0  0
 20 18  1  0  0  0  0
 20 16  1  0  0  0  0
 22 19  2  0  0  0  0
 23 10  1  6  0  0  0
 23 21  1  0  0  0  0
 23 18  1  0  0  0  0
 24 16  1  0  0  0  0
 25  1  1  0  0  0  0
 26 25  1  0  0  0  0
 28 27  1  0  0  0  0
 30 29  1  1  0  0  0
 30 28  1  0  0  0  0
 31 32  1  0  0  0  0
 32 30  1  0  0  0  0
 33 32  1  0  0  0  0
 34 32  1  0  0  0  0
M  END
>  <MODEL>
7

>  <REMARK>
 VINA RESULT:      -7.0      3.234      8.370
  Name = 
  6 active torsions:
  status: ('A' for Active; 'I' for Inactive)
    1  A    between atoms: C_1  and  O_6
    2  A    between atoms: O_3  and  C_13
    3  A    between atoms: O_3  and  C_29
    4  A    between atoms: C_13  and  C_33
    5  A    between atoms: C_20  and  C_33
    6  A    between atoms: C_21  and  C_28
                            x       y       z     vdW  Elec       q    Type
                         _______ _______ _______ _____ _____    ______ ____

>  <TORSDO>
F 6

$$$$
=
 OpenBabel11062408123D

 34 38  0  0  1  0  0  0  0  0999 V2000
  160.9570  209.5790  155.1640 C   0  0  0  0  0  0  0  0  0  0  0  0
  160.4860  207.0860  155.1780 C   0  0  2  0  0  3  0  0  0  0  0  0
  161.2690  208.3250  153.0840 C   0  0  0  0  0  0  0  0  0  0  0  0
  160.6140  207.0560  151.0030 C   0  0  0  0  0  2  0  0  0  0  0  0
  159.3550  207.2970  155.9670 O   0  0  0  0  0  1  0  0  0  0  0  0
  161.2270  205.8310  153.1350 C   0  0  2  0  0  3  0  0  0  0  0  0
  160.8830  208.3630  154.4500 C   0  0  0  0  0  0  0  0  0  0  0  0
  160.9410  204.6030  152.2730 C   0  0  0  0  0  2  0  0  0  0  0  0
  161.3340  206.0120  150.1470 C   0  0  0  0  0  2  0  0  0  0  0  0
  161.7630  209.5030  152.4630 C   0  0  0  0  0  0  0  0  0  0  0  0
  161.3570  210.7460  154.5040 C   0  0  0  0  0  3  0  0  0  0  0  0
  160.2110  205.8980  154.2580 C   0  0  0  0  0  2  0  0  0  0  0  0
  161.6660  204.7260  150.9280 C   0  0  2  0  0  3  0  0  0  0  0  0
  161.1580  207.0780  152.3640 N   0  0  0  0  0  0  0  0  0  0  0  0
  161.7470  210.7080  153.1720 C   0  0  0  0  0  3  0  0  0  0  0  0
  160.6300  212.9350  149.8230 C   0  0  0  0  0  0  0  0  0  0  0  0
  160.7960  212.7680  148.5050 C   0  0  0  0  0  3  0  0  0  0  0  0
  161.7520  210.7090  150.2090 C   0  0  2  0  0  0  0  0  0  0  0  0
  161.3140  211.5090  147.9370 C   0  0  0  0  0  3  0  0  0  0  0  0
  160.8730  211.8180  150.8040 C   0  0  0  0  0  2  0  0  0  0  0  0
  163.1470  210.7500  150.7750 C   0  0  0  0  0  2  0  0  0  0  0  0
  161.7520  210.5270  148.7240 C   0  0  0  0  0  3  0  0  0  0  0  0
  162.2660  209.5280  151.0390 C   0  0  1  0  0  3  0  0  0  0  0  0
  160.0790  214.2220  150.3220 C   0  0  0  0  0  1  0  0  0  0  0  0
  160.6300  209.6120  156.5260 O   0  0  0  0  0  0  0  0  0  0  0  0
  159.7050  210.5390  157.0770 C   0  0  0  0  0  1  0  0  0  0  0  0
  161.5810  203.5590  150.1390 O   0  0  0  0  0  0  0  0  0  0  0  0
  160.8490  203.8520  148.9740 C   0  0  0  0  0  2  0  0  0  0  0  0
  160.8840  202.0970  147.3370 O   0  0  0  0  0  1  0  0  0  0  0  0
  161.5350  203.2690  147.7380 C   0  0  1  0  0  3  0  0  0  0  0  0
  163.0950  204.7030  146.3880 C   0  0  0  0  0  1  0  0  0  0  0  0
  161.6520  204.2640  146.5710 C   0  0  0  0  0  0  0  0  0  0  0  0
  160.8540  205.3860  146.8020 O   0  0  0  0  0  1  0  0  0  0  0  0
  161.2010  203.5960  145.2860 C   0  0  0  0  0  1  0  0  0  0  0  0
  1 25  1  0  0  0  0
  2  5  1  6  0  0  0
  3  7  1  0  0  0  0
  4 14  1  0  0  0  0
  6  8  1  6  0  0  0
  6 12  1  0  0  0  0
  7  1  2  0  0  0  0
  7  2  1  0  0  0  0
  9 13  1  0  0  0  0
  9  4  1  0  0  0  0
 10  3  2  0  0  0  0
 10 15  1  0  0  0  0
 11  1  1  0  0  0  0
 12  2  1  0  0  0  0
 13 27  1  6  0  0  0
 13  8  1  0  0  0  0
 14  3  1  0  0  0  0
 14  6  1  0  0  0  0
 15 11  2  0  0  0  0
 16 24  1  0  0  0  0
 16 20  1  0  0  0  0
 17 16  2  0  0  0  0
 18 22  1  6  0  0  0
 18 21  1  0  0  0  0
 18 20  1  0  0  0  0
 18 23  1  0  0  0  0
 19 17  1  0  0  0  0
 19 22  2  0  0  0  0
 21 23  1  0  0  0  0
 23 10  1  1  0  0  0
 25 26  1  0  0  0  0
 28 27  1  0  0  0  0
 30 29  1  6  0  0  0
 30 28  1  0  0  0  0
 31 32  1  0  0  0  0
 32 33  1  0  0  0  0
 32 30  1  0  0  0  0
 34 32  1  0  0  0  0
M  END
>  <MODEL>
8

>  <REMARK>
 VINA RESULT:      -6.8      2.785      6.852
  Name = 
  6 active torsions:
  status: ('A' for Active; 'I' for Inactive)
    1  A    between atoms: C_1  and  O_6
    2  A    between atoms: O_3  and  C_13
    3  A    between atoms: O_3  and  C_29
    4  A    between atoms: C_13  and  C_33
    5  A    between atoms: C_20  and  C_33
    6  A    between atoms: C_21  and  C_28
                            x       y       z     vdW  Elec       q    Type
                         _______ _______ _______ _____ _____    ______ ____

>  <TORSDO>
F 6

$$$$
=
 OpenBabel11062408123D

 34 38  0  0  1  0  0  0  0  0999 V2000
  161.4660  206.7340  148.8890 C   0  0  0  0  0  0  0  0  0  0  0  0
  160.8310  206.1850  151.2840 C   0  0  2  0  0  3  0  0  0  0  0  0
  161.6840  208.4900  150.5830 C   0  0  0  0  0  0  0  0  0  0  0  0
  162.6600  209.7170  152.5600 C   0  0  0  0  0  2  0  0  0  0  0  0
  161.4420  204.9350  151.1660 O   0  0  0  0  0  1  0  0  0  0  0  0
  160.6940  208.1440  152.8460 C   0  0  2  0  0  3  0  0  0  0  0  0
  161.3690  207.1490  150.2360 C   0  0  0  0  0  0  0  0  0  0  0  0
  160.8290  208.5650  154.3080 C   0  0  0  0  0  2  0  0  0  0  0  0
  162.0720  210.7030  153.5710 C   0  0  0  0  0  2  0  0  0  0  0  0
  162.0560  209.4080  149.5640 C   0  0  0  0  0  0  0  0  0  0  0  0
  161.9240  207.6310  147.9190 C   0  0  0  0  0  3  0  0  0  0  0  0
  161.0000  206.6640  152.7250 C   0  0  0  0  0  2  0  0  0  0  0  0
  160.9320  210.0920  154.4070 C   0  0  2  0  0  3  0  0  0  0  0  0
  161.6070  208.8870  151.9680 N   0  0  0  0  0  0  0  0  0  0  0  0
  162.2210  208.9460  148.2540 C   0  0  0  0  0  3  0  0  0  0  0  0
  160.6390  212.4690  146.6230 C   0  0  0  0  0  0  0  0  0  0  0  0
  161.1780  213.6910  146.7100 C   0  0  0  0  0  3  0  0  0  0  0  0
  161.8680  211.8160  148.7270 C   0  0  2  0  0  0  0  0  0  0  0  0
  162.2060  214.0210  147.7180 C   0  0  0  0  0  3  0  0  0  0  0  0
  161.1100  211.3270  147.4850 C   0  0  0  0  0  2  0  0  0  0  0  0
  161.0340  211.6670  149.9720 C   0  0  0  0  0  2  0  0  0  0  0  0
  162.5510  213.1450  148.6610 C   0  0  0  0  0  3  0  0  0  0  0  0
  162.3300  210.8680  149.8390 C   0  0  1  0  0  3  0  0  0  0  0  0
  159.6280  212.2030  145.5670 C   0  0  0  0  0  1  0  0  0  0  0  0
  161.1030  205.4290  148.5320 O   0  0  0  0  0  0  0  0  0  0  0  0
  161.6740  204.7430  147.4270 C   0  0  0  0  0  1  0  0  0  0  0  0
  160.8980  210.5680  155.7340 O   0  0  0  0  0  0  0  0  0  0  0  0
  160.0380  211.6810  155.7940 C   0  0  0  0  0  2  0  0  0  0  0  0
  157.7310  211.0340  155.9190 O   0  0  0  0  0  1  0  0  0  0  0  0
  158.7420  211.4100  155.0290 C   0  0  1  0  0  3  0  0  0  0  0  0
  158.5750  212.2900  152.6820 C   0  0  0  0  0  1  0  0  0  0  0  0
  158.2910  212.5850  154.1450 C   0  0  0  0  0  0  0  0  0  0  0  0
  158.9520  213.7580  154.5150 O   0  0  0  0  0  1  0  0  0  0  0  0
  156.7970  212.7930  154.2980 C   0  0  0  0  0  1  0  0  0  0  0  0
  1  7  1  0  0  0  0
  2  5  1  1  0  0  0
  2 12  1  0  0  0  0
  3 14  1  0  0  0  0
  4  9  1  0  0  0  0
  6 12  1  1  0  0  0
  6  8  1  0  0  0  0
  7  3  2  0  0  0  0
  7  2  1  0  0  0  0
  8 13  1  0  0  0  0
  9 13  1  0  0  0  0
 10  3  1  0  0  0  0
 11 15  1  0  0  0  0
 11  1  2  0  0  0  0
 13 27  1  1  0  0  0
 14  4  1  0  0  0  0
 14  6  1  0  0  0  0
 15 10  2  0  0  0  0
 16 17  2  0  0  0  0
 16 20  1  0  0  0  0
 17 19  1  0  0  0  0
 18 20  1  6  0  0  0
 18 23  1  0  0  0  0
 18 21  1  0  0  0  0
 19 22  2  0  0  0  0
 22 18  1  0  0  0  0
 23 10  1  6  0  0  0
 23 21  1  0  0  0  0
 24 16  1  0  0  0  0
 25  1  1  0  0  0  0
 26 25  1  0  0  0  0
 27 28  1  0  0  0  0
 30 28  1  0  0  0  0
 30 29  1  1  0  0  0
 31 32  1  0  0  0  0
 32 34  1  0  0  0  0
 32 33  1  0  0  0  0
 32 30  1  0  0  0  0
M  END
>  <MODEL>
9

>  <REMARK>
 VINA RESULT:      -6.6      2.708      7.120
  Name = 
  6 active torsions:
  status: ('A' for Active; 'I' for Inactive)
    1  A    between atoms: C_1  and  O_6
    2  A    between atoms: O_3  and  C_13
    3  A    between atoms: O_3  and  C_29
    4  A    between atoms: C_13  and  C_33
    5  A    between atoms: C_20  and  C_33
    6  A    between atoms: C_21  and  C_28
                            x       y       z     vdW  Elec       q    Type
                         _______ _______ _______ _____ _____    ______ ____

>  <TORSDO>
F 6

$$$$
