=
 OpenBabel11062409303D

 34 38  0  0  1  0  0  0  0  0999 V2000
  161.0910  206.0790  149.4200 C   0  0  0  0  0  0  0  0  0  0  0  0
  162.1210  203.6380  146.5640 C   0  0  0  0  0  2  0  0  0  0  0  0
  161.3770  203.1470  148.9350 C   0  0  0  0  0  2  0  0  0  0  0  0
  160.9840  207.2670  149.6870 O   0  0  0  0  0  0  0  0  0  0  0  0
  160.5050  203.9680  152.4810 N   0  0  0  0  0  2  0  0  0  0  0  0
  161.0020  203.0200  151.4760 C   0  0  1  0  0  3  0  0  0  0  0  0
  160.4600  205.2900  151.8430 C   0  0  2  0  0  3  0  0  0  0  0  0
  161.4620  203.8350  150.2950 C   0  0  2  0  0  3  0  0  0  0  0  0
  160.5600  205.0230  150.3510 C   0  0  2  0  0  3  0  0  0  0  0  0
  162.1630  202.2300  152.0470 C   0  0  0  0  0  1  0  0  0  0  0  0
  162.6210  204.7560  145.6360 C   0  0  0  0  0  2  0  0  0  0  0  0
  161.6600  205.9530  145.5730 C   0  0  2  0  0  3  0  0  0  0  0  0
  161.3430  204.1650  147.7720 C   0  0  1  0  0  3  0  0  0  0  0  0
  161.3730  206.5530  146.9600 C   0  0  0  0  0  2  0  0  0  0  0  0
  161.7340  205.6240  148.1270 C   0  0  1  0  0  3  0  0  0  0  0  0
  161.6150  206.1470  152.3680 C   0  0  0  0  0  2  0  0  0  0  0  0
  161.1390  208.8860  151.7680 F   0  0  0  0  0  0  0  0  0  0  0  0
  160.4940  207.6070  155.6740 C   0  0  0  0  0  3  0  0  0  0  0  0
  159.4170  211.5940  154.6200 C   0  0  1  0  0  3  0  0  0  0  0  0
  160.3270  210.8340  153.6440 C   0  0  0  0  0  2  0  0  0  0  0  0
  160.4790  209.3830  154.0130 C   0  0  0  0  0  0  0  0  0  0  0  0
  161.1350  207.1270  153.3870 C   0  0  0  0  0  0  0  0  0  0  0  0
  159.7520  209.8730  156.4020 C   0  0  0  0  0  2  0  0  0  0  0  0
  160.2840  208.9490  155.3440 C   0  0  0  0  0  0  0  0  0  0  0  0
  159.9430  211.3410  156.0360 C   0  0  0  0  0  2  0  0  0  0  0  0
  160.9230  206.7020  154.7020 C   0  0  0  0  0  3  0  0  0  0  0  0
  160.9190  208.4690  153.0420 C   0  0  0  0  0  0  0  0  0  0  0  0
  159.0730  213.2000  152.9040 C   0  0  0  0  0  1  0  0  0  0  0  0
  159.4040  213.0310  154.3130 N   0  0  0  0  0  0  0  0  0  0  0  0
  158.3010  213.6500  155.0350 C   0  0  0  0  0  1  0  0  0  0  0  0
  160.3470  205.5900  144.8880 C   0  0  0  0  0  2  0  0  0  0  0  0
  160.4580  204.2710  144.1310 C   0  0  0  0  0  2  0  0  0  0  0  0
  159.2840  203.3520  144.4300 C   0  0  0  0  0  2  0  0  0  0  0  0
  159.7740  201.9520  144.7470 C   0  0  0  0  0  1  0  0  0  0  0  0
  1  4  2  0  0  0  0
  6 10  1  1  0  0  0
  6  5  1  0  0  0  0
  7 16  1  1  0  0  0
  7  5  1  0  0  0  0
  8  3  1  6  0  0  0
  8  9  1  0  0  0  0
  8  6  1  0  0  0  0
  9  1  1  6  0  0  0
  9  7  1  0  0  0  0
 11  2  1  0  0  0  0
 12 31  1  1  0  0  0
 12 11  1  0  0  0  0
 12 14  1  0  0  0  0
 13  2  1  6  0  0  0
 13 15  1  0  0  0  0
 13  3  1  0  0  0  0
 15 14  1  6  0  0  0
 15  1  1  0  0  0  0
 16 22  1  0  0  0  0
 17 27  1  0  0  0  0
 19 29  1  6  0  0  0
 19 25  1  0  0  0  0
 20 21  1  0  0  0  0
 20 19  1  0  0  0  0
 21 24  2  0  0  0  0
 22 26  1  0  0  0  0
 24 18  1  0  0  0  0
 24 23  1  0  0  0  0
 25 23  1  0  0  0  0
 26 18  2  0  0  0  0
 27 22  2  0  0  0  0
 27 21  1  0  0  0  0
 28 29  1  0  0  0  0
 29 30  1  0  0  0  0
 32 33  1  0  0  0  0
 32 31  1  0  0  0  0
 33 34  1  0  0  0  0
M  END
>  <MODEL>
1

>  <REMARK>
 VINA RESULT:      -8.6      0.000      0.000
  Name = 
  6 active torsions:
  status: ('A' for Active; 'I' for Inactive)
    1  A    between atoms: C_3  and  C_24
    2  A    between atoms: C_7  and  N_15
    3  A    between atoms: C_8  and  C_17
    4  A    between atoms: C_8  and  C_18
    5  A    between atoms: C_24  and  C_25
    6  A    between atoms: C_25  and  C_27
                            x       y       z     vdW  Elec       q    Type
                         _______ _______ _______ _____ _____    ______ ____

>  <TORSDO>
F 6

$$$$
=
 OpenBabel11062409303D

 34 38  0  0  1  0  0  0  0  0999 V2000
  160.6610  209.7190  152.7920 C   0  0  0  0  0  0  0  0  0  0  0  0
  159.5280  209.4710  156.5120 C   0  0  0  0  0  2  0  0  0  0  0  0
  160.8860  207.8540  155.1130 C   0  0  0  0  0  2  0  0  0  0  0  0
  160.5770  210.4270  151.7990 O   0  0  0  0  0  0  0  0  0  0  0  0
  162.3650  206.4650  151.9670 N   0  0  0  0  0  2  0  0  0  0  0  0
  161.8580  206.2730  153.3320 C   0  0  1  0  0  3  0  0  0  0  0  0
  161.9850  207.8220  151.5520 C   0  0  2  0  0  3  0  0  0  0  0  0
  160.9770  207.4570  153.6420 C   0  0  2  0  0  3  0  0  0  0  0  0
  161.6000  208.5450  152.8320 C   0  0  2  0  0  3  0  0  0  0  0  0
  161.0500  204.9920  153.4020 C   0  0  0  0  0  1  0  0  0  0  0  0
  158.6060  210.6970  156.4290 C   0  0  0  0  0  2  0  0  0  0  0  0
  159.2560  211.8850  155.7030 C   0  0  2  0  0  3  0  0  0  0  0  0
  160.4380  209.3220  155.2900 C   0  0  1  0  0  3  0  0  0  0  0  0
  159.7240  211.5230  154.2840 C   0  0  0  0  0  2  0  0  0  0  0  0
  159.8440  210.0130  154.0340 C   0  0  1  0  0  3  0  0  0  0  0  0
  160.8310  207.7410  150.5490 C   0  0  0  0  0  2  0  0  0  0  0  0
  160.3040  204.9950  150.0290 F   0  0  0  0  0  0  0  0  0  0  0  0
  162.3960  207.1550  147.1550 C   0  0  0  0  0  3  0  0  0  0  0  0
  161.2280  203.1550  146.2620 C   0  0  1  0  0  3  0  0  0  0  0  0
  161.1580  203.5920  147.7320 C   0  0  0  0  0  2  0  0  0  0  0  0
  161.3990  205.0680  147.9030 C   0  0  0  0  0  0  0  0  0  0  0  0
  161.2600  207.0590  149.2920 C   0  0  0  0  0  0  0  0  0  0  0  0
  162.5450  205.1860  145.6340 C   0  0  0  0  0  2  0  0  0  0  0  0
  162.1310  205.7990  146.9410 C   0  0  0  0  0  0  0  0  0  0  0  0
  162.5560  203.6610  145.6900 C   0  0  0  0  0  2  0  0  0  0  0  0
  161.9690  207.7800  148.3270 C   0  0  0  0  0  3  0  0  0  0  0  0
  160.9790  205.7000  149.0850 C   0  0  0  0  0  0  0  0  0  0  0  0
  160.9120  201.1370  147.4730 C   0  0  0  0  0  1  0  0  0  0  0  0
  161.1280  201.6940  146.1450 N   0  0  0  0  0  0  0  0  0  0  0  0
  159.9200  201.3690  145.3990 C   0  0  0  0  0  1  0  0  0  0  0  0
  160.4200  212.4660  156.4980 C   0  0  0  0  0  2  0  0  0  0  0  0
  160.1120  213.8740  156.9920 C   0  0  0  0  0  2  0  0  0  0  0  0
  158.8820  214.4520  156.3090 C   0  0  0  0  0  2  0  0  0  0  0  0
  157.6990  214.4520  157.2580 C   0  0  0  0  0  1  0  0  0  0  0  0
  1 15  1  0  0  0  0
  4  1  2  0  0  0  0
  5  6  1  0  0  0  0
  6 10  1  6  0  0  0
  6  8  1  0  0  0  0
  7 16  1  6  0  0  0
  7  5  1  0  0  0  0
  7  9  1  0  0  0  0
  8  3  1  1  0  0  0
  9  1  1  6  0  0  0
  9  8  1  0  0  0  0
 11  2  1  0  0  0  0
 12 11  1  0  0  0  0
 12 31  1  1  0  0  0
 13  3  1  6  0  0  0
 13  2  1  0  0  0  0
 14 12  1  0  0  0  0
 15 14  1  1  0  0  0
 15 13  1  0  0  0  0
 18 26  1  0  0  0  0
 19 29  1  1  0  0  0
 19 20  1  0  0  0  0
 20 21  1  0  0  0  0
 21 27  2  0  0  0  0
 22 16  1  0  0  0  0
 23 25  1  0  0  0  0
 23 24  1  0  0  0  0
 24 18  2  0  0  0  0
 24 21  1  0  0  0  0
 25 19  1  0  0  0  0
 26 22  2  0  0  0  0
 27 22  1  0  0  0  0
 27 17  1  0  0  0  0
 29 28  1  0  0  0  0
 30 29  1  0  0  0  0
 31 32  1  0  0  0  0
 33 32  1  0  0  0  0
 33 34  1  0  0  0  0
M  END
>  <MODEL>
2

>  <REMARK>
 VINA RESULT:      -8.4      2.227      9.975
  Name = 
  6 active torsions:
  status: ('A' for Active; 'I' for Inactive)
    1  A    between atoms: C_3  and  C_24
    2  A    between atoms: C_7  and  N_15
    3  A    between atoms: C_8  and  C_17
    4  A    between atoms: C_8  and  C_18
    5  A    between atoms: C_24  and  C_25
    6  A    between atoms: C_25  and  C_27
                            x       y       z     vdW  Elec       q    Type
                         _______ _______ _______ _____ _____    ______ ____

>  <TORSDO>
F 6

$$$$
=
 OpenBabel11062409303D

 34 38  0  0  1  0  0  0  0  0999 V2000
  161.1220  204.4450  150.4120 C   0  0  0  0  0  0  0  0  0  0  0  0
  161.1790  203.5820  146.6130 C   0  0  0  0  0  2  0  0  0  0  0  0
  162.1270  205.5840  147.8420 C   0  0  0  0  0  2  0  0  0  0  0  0
  160.7080  204.0440  151.4900 O   0  0  0  0  0  0  0  0  0  0  0  0
  162.6500  207.8670  150.7610 N   0  0  0  0  0  2  0  0  0  0  0  0
  162.5890  207.6440  149.3110 C   0  0  1  0  0  3  0  0  0  0  0  0
  162.0980  206.6690  151.4070 C   0  0  2  0  0  3  0  0  0  0  0  0
  161.7870  206.3850  149.0960 C   0  0  2  0  0  3  0  0  0  0  0  0
  162.0840  205.5980  150.3290 C   0  0  2  0  0  3  0  0  0  0  0  0
  161.9020  208.8170  148.6410 C   0  0  0  0  0  1  0  0  0  0  0  0
  160.2170  202.3920  146.7540 C   0  0  0  0  0  2  0  0  0  0  0  0
  160.5600  201.4870  147.9480 C   0  0  2  0  0  3  0  0  0  0  0  0
  161.6830  204.1080  147.9590 C   0  0  1  0  0  3  0  0  0  0  0  0
  160.5950  202.2550  149.2790 C   0  0  0  0  0  2  0  0  0  0  0  0
  160.7060  203.7770  149.1180 C   0  0  1  0  0  3  0  0  0  0  0  0
  160.7000  206.9820  151.9470 C   0  0  0  0  0  2  0  0  0  0  0  0
  160.2080  209.7750  152.1560 F   0  0  0  0  0  0  0  0  0  0  0  0
  161.2280  207.7130  155.6220 C   0  0  0  0  0  3  0  0  0  0  0  0
  160.0890  211.8080  155.9360 C   0  0  1  0  0  3  0  0  0  0  0  0
  160.4290  211.2820  154.5340 C   0  0  0  0  0  2  0  0  0  0  0  0
  160.6220  209.7900  154.5120 C   0  0  0  0  0  0  0  0  0  0  0  0
  160.7800  207.7230  153.2410 C   0  0  0  0  0  0  0  0  0  0  0  0
  161.0380  209.7660  157.0230 C   0  0  0  0  0  2  0  0  0  0  0  0
  160.9920  209.0900  155.6820 C   0  0  0  0  0  0  0  0  0  0  0  0
  161.1560  211.2820  156.9000 C   0  0  0  0  0  2  0  0  0  0  0  0
  161.1290  207.0340  154.4070 C   0  0  0  0  0  3  0  0  0  0  0  0
  160.5320  209.1030  153.2910 C   0  0  0  0  0  0  0  0  0  0  0  0
  159.0280  213.7180  155.0030 C   0  0  0  0  0  1  0  0  0  0  0  0
  160.0460  213.2760  155.9480 N   0  0  0  0  0  0  0  0  0  0  0  0
  159.5650  213.7160  157.2510 C   0  0  0  0  0  1  0  0  0  0  0  0
  161.8820  200.7540  147.7410 C   0  0  0  0  0  2  0  0  0  0  0  0
  161.6610  199.3500  147.1900 C   0  0  0  0  0  2  0  0  0  0  0  0
  161.1320  199.3830  145.7650 C   0  0  0  0  0  2  0  0  0  0  0  0
  161.4250  198.0720  145.0600 C   0  0  0  0  0  1  0  0  0  0  0  0
  1  4  2  0  0  0  0
  2 11  1  0  0  0  0
  3 13  1  0  0  0  0
  5  7  1  0  0  0  0
  6 10  1  6  0  0  0
  6  5  1  0  0  0  0
  7 16  1  6  0  0  0
  8  3  1  6  0  0  0
  8  6  1  0  0  0  0
  8  9  1  0  0  0  0
  9  1  1  1  0  0  0
  9  7  1  0  0  0  0
 11 12  1  0  0  0  0
 12 31  1  6  0  0  0
 12 14  1  0  0  0  0
 13  2  1  6  0  0  0
 13 15  1  0  0  0  0
 15 14  1  1  0  0  0
 15  1  1  0  0  0  0
 16 22  1  0  0  0  0
 17 27  1  0  0  0  0
 18 24  1  0  0  0  0
 19 29  1  6  0  0  0
 19 25  1  0  0  0  0
 20 19  1  0  0  0  0
 21 20  1  0  0  0  0
 21 24  2  0  0  0  0
 22 27  2  0  0  0  0
 22 26  1  0  0  0  0
 24 23  1  0  0  0  0
 25 23  1  0  0  0  0
 26 18  2  0  0  0  0
 27 21  1  0  0  0  0
 28 29  1  0  0  0  0
 29 30  1  0  0  0  0
 32 31  1  0  0  0  0
 33 32  1  0  0  0  0
 34 33  1  0  0  0  0
M  END
>  <MODEL>
3

>  <REMARK>
 VINA RESULT:      -8.1      2.028      3.224
  Name = 
  6 active torsions:
  status: ('A' for Active; 'I' for Inactive)
    1  A    between atoms: C_3  and  C_24
    2  A    between atoms: C_7  and  N_15
    3  A    between atoms: C_8  and  C_17
    4  A    between atoms: C_8  and  C_18
    5  A    between atoms: C_24  and  C_25
    6  A    between atoms: C_25  and  C_27
                            x       y       z     vdW  Elec       q    Type
                         _______ _______ _______ _____ _____    ______ ____

>  <TORSDO>
F 6

$$$$
=
 OpenBabel11062409303D

 34 38  0  0  1  0  0  0  0  0999 V2000
  160.5950  208.2830  153.9800 C   0  0  0  0  0  0  0  0  0  0  0  0
  161.2280  211.8160  155.4960 C   0  0  0  0  0  2  0  0  0  0  0  0
  161.2420  211.0560  153.0800 C   0  0  0  0  0  2  0  0  0  0  0  0
  160.3610  207.1240  154.2900 O   0  0  0  0  0  0  0  0  0  0  0  0
  161.2250  208.5720  150.2800 N   0  0  0  0  0  2  0  0  0  0  0  0
  161.5900  209.8900  150.8140 C   0  0  1  0  0  3  0  0  0  0  0  0
  160.7830  207.7530  151.4160 C   0  0  2  0  0  3  0  0  0  0  0  0
  161.5690  209.7750  152.3170 C   0  0  2  0  0  3  0  0  0  0  0  0
  160.5240  208.7340  152.5470 C   0  0  2  0  0  3  0  0  0  0  0  0
  162.9800  210.2670  150.3410 C   0  0  0  0  0  1  0  0  0  0  0  0
  161.2600  211.3110  156.9460 C   0  0  0  0  0  2  0  0  0  0  0  0
  160.1260  210.3230  157.2600 C   0  0  2  0  0  3  0  0  0  0  0  0
  160.7230  210.7640  154.5060 C   0  0  1  0  0  3  0  0  0  0  0  0
  160.1220  209.1100  156.3140 C   0  0  0  0  0  2  0  0  0  0  0  0
  160.9370  209.3190  155.0310 C   0  0  1  0  0  3  0  0  0  0  0  0
  161.8710  206.7310  151.7590 C   0  0  0  0  0  2  0  0  0  0  0  0
  161.9360  206.1990  148.9660 F   0  0  0  0  0  0  0  0  0  0  0  0
  160.8530  203.0950  151.5150 C   0  0  0  0  0  3  0  0  0  0  0  0
  161.3590  202.2560  147.3670 C   0  0  1  0  0  3  0  0  0  0  0  0
  161.2490  203.7320  147.7730 C   0  0  0  0  0  2  0  0  0  0  0  0
  161.2740  203.9200  149.2670 C   0  0  0  0  0  0  0  0  0  0  0  0
  161.5480  205.3910  151.1820 C   0  0  0  0  0  0  0  0  0  0  0  0
  160.5980  201.4920  149.6230 C   0  0  0  0  0  2  0  0  0  0  0  0
  160.8830  202.8760  150.1340 C   0  0  0  0  0  0  0  0  0  0  0  0
  160.2800  201.4830  148.1310 C   0  0  0  0  0  2  0  0  0  0  0  0
  161.1780  204.3480  152.0360 C   0  0  0  0  0  3  0  0  0  0  0  0
  161.5910  205.1810  149.7960 C   0  0  0  0  0  0  0  0  0  0  0  0
  159.9460  201.3840  145.6680 C   0  0  0  0  0  1  0  0  0  0  0  0
  161.1910  202.0990  145.9160 N   0  0  0  0  0  0  0  0  0  0  0  0
  160.9940  203.4150  145.3260 C   0  0  0  0  0  1  0  0  0  0  0  0
  158.7600  211.0020  157.2320 C   0  0  0  0  0  2  0  0  0  0  0  0
  157.9100  210.5010  156.0700 C   0  0  0  0  0  2  0  0  0  0  0  0
  156.9350  211.5640  155.5890 C   0  0  0  0  0  2  0  0  0  0  0  0
  157.3000  212.0250  154.1910 C   0  0  0  0  0  1  0  0  0  0  0  0
  1  4  2  0  0  0  0
  1 15  1  0  0  0  0
  2 11  1  0  0  0  0
  5  6  1  0  0  0  0
  5  7  1  0  0  0  0
  6 10  1  6  0  0  0
  6  8  1  0  0  0  0
  7 16  1  1  0  0  0
  7  9  1  0  0  0  0
  8  9  1  0  0  0  0
  8  3  1  1  0  0  0
  9  1  1  1  0  0  0
 11 12  1  0  0  0  0
 12 31  1  6  0  0  0
 13  3  1  6  0  0  0
 13 15  1  0  0  0  0
 13  2  1  0  0  0  0
 14 12  1  0  0  0  0
 15 14  1  1  0  0  0
 17 27  1  0  0  0  0
 18 26  1  0  0  0  0
 19 29  1  6  0  0  0
 19 20  1  0  0  0  0
 19 25  1  0  0  0  0
 20 21  1  0  0  0  0
 21 27  2  0  0  0  0
 21 24  1  0  0  0  0
 22 16  1  0  0  0  0
 22 26  2  0  0  0  0
 23 24  1  0  0  0  0
 24 18  2  0  0  0  0
 25 23  1  0  0  0  0
 27 22  1  0  0  0  0
 28 29  1  0  0  0  0
 30 29  1  0  0  0  0
 32 31  1  0  0  0  0
 33 32  1  0  0  0  0
 34 33  1  0  0  0  0
M  END
>  <MODEL>
4

>  <REMARK>
 VINA RESULT:      -7.6      2.364      9.607
  Name = 
  6 active torsions:
  status: ('A' for Active; 'I' for Inactive)
    1  A    between atoms: C_3  and  C_24
    2  A    between atoms: C_7  and  N_15
    3  A    between atoms: C_8  and  C_17
    4  A    between atoms: C_8  and  C_18
    5  A    between atoms: C_24  and  C_25
    6  A    between atoms: C_25  and  C_27
                            x       y       z     vdW  Elec       q    Type
                         _______ _______ _______ _____ _____    ______ ____

>  <TORSDO>
F 6

$$$$
=
 OpenBabel11062409303D

 34 38  0  0  1  0  0  0  0  0999 V2000
  161.0070  207.3730  150.7450 C   0  0  0  0  0  0  0  0  0  0  0  0
  161.5330  203.9400  152.5090 C   0  0  0  0  0  2  0  0  0  0  0  0
  160.9560  206.2020  153.4910 C   0  0  0  0  0  2  0  0  0  0  0  0
  161.0430  207.9150  149.6500 O   0  0  0  0  0  0  0  0  0  0  0  0
  160.4870  209.9150  153.4730 N   0  0  0  0  0  2  0  0  0  0  0  0
  160.7960  208.6720  154.1900 C   0  0  1  0  0  3  0  0  0  0  0  0
  160.5170  209.6050  152.0370 C   0  0  2  0  0  3  0  0  0  0  0  0
  161.2290  207.6660  153.1550 C   0  0  2  0  0  3  0  0  0  0  0  0
  160.4580  208.0900  151.9490 C   0  0  2  0  0  3  0  0  0  0  0  0
  161.9190  208.9170  155.1780 C   0  0  0  0  0  1  0  0  0  0  0  0
  162.0580  203.2440  151.2440 C   0  0  0  0  0  2  0  0  0  0  0  0
  161.2190  203.5610  149.9970 C   0  0  2  0  0  3  0  0  0  0  0  0
  160.9210  205.3140  152.2270 C   0  0  1  0  0  3  0  0  0  0  0  0
  161.1170  205.0710  149.7240 C   0  0  0  0  0  2  0  0  0  0  0  0
  161.4850  205.9480  150.9280 C   0  0  1  0  0  3  0  0  0  0  0  0
  161.7930  210.1840  151.4200 C   0  0  0  0  0  2  0  0  0  0  0  0
  162.5890  210.0880  148.6920 F   0  0  0  0  0  0  0  0  0  0  0  0
  160.4780  213.4300  149.9880 C   0  0  0  0  0  3  0  0  0  0  0  0
  161.3460  213.0410  145.8330 C   0  0  1  0  0  3  0  0  0  0  0  0
  162.1180  212.1290  146.7970 C   0  0  0  0  0  2  0  0  0  0  0  0
  161.5950  212.2090  148.2060 C   0  0  0  0  0  0  0  0  0  0  0  0
  161.4730  211.2690  150.4450 C   0  0  0  0  0  0  0  0  0  0  0  0
  160.5000  214.4530  147.7150 C   0  0  0  0  0  2  0  0  0  0  0  0
  160.8990  213.3530  148.6570 C   0  0  0  0  0  0  0  0  0  0  0  0
  161.3330  214.4490  146.4370 C   0  0  0  0  0  2  0  0  0  0  0  0
  160.7690  212.3960  150.8790 C   0  0  0  0  0  3  0  0  0  0  0  0
  161.8920  211.1760  149.1100 C   0  0  0  0  0  0  0  0  0  0  0  0
  161.4140  214.1510  143.7350 C   0  0  0  0  0  1  0  0  0  0  0  0
  161.9700  213.0450  144.5030 N   0  0  0  0  0  0  0  0  0  0  0  0
  163.3830  213.3640  144.6540 C   0  0  0  0  0  1  0  0  0  0  0  0
  159.8210  202.9580  150.0870 C   0  0  0  0  0  2  0  0  0  0  0  0
  159.7490  201.6070  149.3840 C   0  0  0  0  0  2  0  0  0  0  0  0
  160.4950  201.6240  148.0590 C   0  0  0  0  0  2  0  0  0  0  0  0
  161.5380  200.5220  148.0240 C   0  0  0  0  0  1  0  0  0  0  0  0
  1 15  1  0  0  0  0
  4  1  2  0  0  0  0
  5  6  1  0  0  0  0
  6 10  1  1  0  0  0
  7 16  1  1  0  0  0
  7  5  1  0  0  0  0
  8  3  1  1  0  0  0
  8  6  1  0  0  0  0
  9  1  1  6  0  0  0
  9  7  1  0  0  0  0
  9  8  1  0  0  0  0
 11  2  1  0  0  0  0
 12 31  1  1  0  0  0
 12 11  1  0  0  0  0
 13  2  1  1  0  0  0
 13  3  1  0  0  0  0
 14 12  1  0  0  0  0
 15 14  1  6  0  0  0
 15 13  1  0  0  0  0
 17 27  1  0  0  0  0
 18 26  1  0  0  0  0
 19 29  1  6  0  0  0
 19 25  1  0  0  0  0
 19 20  1  0  0  0  0
 20 21  1  0  0  0  0
 21 24  1  0  0  0  0
 21 27  2  0  0  0  0
 22 26  2  0  0  0  0
 22 16  1  0  0  0  0
 23 24  1  0  0  0  0
 24 18  2  0  0  0  0
 25 23  1  0  0  0  0
 27 22  1  0  0  0  0
 28 29  1  0  0  0  0
 29 30  1  0  0  0  0
 32 31  1  0  0  0  0
 33 32  1  0  0  0  0
 34 33  1  0  0  0  0
M  END
>  <MODEL>
5

>  <REMARK>
 VINA RESULT:      -7.1      4.040      6.459
  Name = 
  6 active torsions:
  status: ('A' for Active; 'I' for Inactive)
    1  A    between atoms: C_3  and  C_24
    2  A    between atoms: C_7  and  N_15
    3  A    between atoms: C_8  and  C_17
    4  A    between atoms: C_8  and  C_18
    5  A    between atoms: C_24  and  C_25
    6  A    between atoms: C_25  and  C_27
                            x       y       z     vdW  Elec       q    Type
                         _______ _______ _______ _____ _____    ______ ____

>  <TORSDO>
F 6

$$$$
=
 OpenBabel11062409303D

 34 38  0  0  1  0  0  0  0  0999 V2000
  161.2680  206.3310  149.2710 C   0  0  0  0  0  0  0  0  0  0  0  0
  162.0400  203.5750  146.6260 C   0  0  0  0  0  2  0  0  0  0  0  0
  161.2370  203.3560  149.0190 C   0  0  0  0  0  2  0  0  0  0  0  0
  161.2900  207.5400  149.4430 O   0  0  0  0  0  0  0  0  0  0  0  0
  160.4440  204.5420  152.4790 N   0  0  0  0  0  2  0  0  0  0  0  0
  160.8390  203.4690  151.5570 C   0  0  1  0  0  3  0  0  0  0  0  0
  160.5460  205.8070  151.7390 C   0  0  2  0  0  3  0  0  0  0  0  0
  161.3910  204.1350  150.3220 C   0  0  2  0  0  3  0  0  0  0  0  0
  160.6220  205.4140  150.2730 C   0  0  2  0  0  3  0  0  0  0  0  0
  161.9060  202.6070  152.2020 C   0  0  0  0  0  1  0  0  0  0  0  0
  162.6630  204.5570  145.6210 C   0  0  0  0  0  2  0  0  0  0  0  0
  161.8370  205.8420  145.4530 C   0  0  2  0  0  3  0  0  0  0  0  0
  161.3190  204.2760  147.7800 C   0  0  1  0  0  3  0  0  0  0  0  0
  161.6120  206.5760  146.7850 C   0  0  0  0  0  2  0  0  0  0  0  0
  161.8650  205.7080  148.0250 C   0  0  1  0  0  3  0  0  0  0  0  0
  161.7840  206.5730  152.2110 C   0  0  0  0  0  2  0  0  0  0  0  0
  160.8330  207.2790  154.7960 F   0  0  0  0  0  0  0  0  0  0  0  0
  161.2160  210.3060  151.9680 C   0  0  0  0  0  3  0  0  0  0  0  0
  160.1830  211.3590  155.9670 C   0  0  1  0  0  3  0  0  0  0  0  0
  160.0550  209.8790  155.5780 C   0  0  0  0  0  2  0  0  0  0  0  0
  160.6300  209.5920  154.2170 C   0  0  0  0  0  0  0  0  0  0  0  0
  161.4350  207.9750  152.5900 C   0  0  0  0  0  0  0  0  0  0  0  0
  160.4540  212.0490  153.5790 C   0  0  0  0  0  2  0  0  0  0  0  0
  160.7390  210.6120  153.2460 C   0  0  0  0  0  0  0  0  0  0  0  0
  159.5890  212.1920  154.8270 C   0  0  0  0  0  2  0  0  0  0  0  0
  161.5570  208.9930  151.6400 C   0  0  0  0  0  3  0  0  0  0  0  0
  160.9660  208.2710  153.8780 C   0  0  0  0  0  0  0  0  0  0  0  0
  159.0630  213.0230  157.2390 C   0  0  0  0  0  1  0  0  0  0  0  0
  159.4900  211.6300  157.2330 N   0  0  0  0  0  0  0  0  0  0  0  0
  158.2550  210.8580  157.2610 C   0  0  0  0  0  1  0  0  0  0  0  0
  160.4960  205.5690  144.7810 C   0  0  0  0  0  2  0  0  0  0  0  0
  160.4710  204.1960  144.1200 C   0  0  0  0  0  2  0  0  0  0  0  0
  159.2870  203.3660  144.5920 C   0  0  0  0  0  2  0  0  0  0  0  0
  159.7130  201.9340  144.8540 C   0  0  0  0  0  1  0  0  0  0  0  0
  1  4  2  0  0  0  0
  6 10  1  1  0  0  0
  6  5  1  0  0  0  0
  7 16  1  1  0  0  0
  7  5  1  0  0  0  0
  8  3  1  6  0  0  0
  8  6  1  0  0  0  0
  9  1  1  6  0  0  0
  9  8  1  0  0  0  0
  9  7  1  0  0  0  0
 11  2  1  0  0  0  0
 12 31  1  1  0  0  0
 12 11  1  0  0  0  0
 12 14  1  0  0  0  0
 13  2  1  6  0  0  0
 13 15  1  0  0  0  0
 13  3  1  0  0  0  0
 15 14  1  6  0  0  0
 15  1  1  0  0  0  0
 16 22  1  0  0  0  0
 18 24  1  0  0  0  0
 19 29  1  1  0  0  0
 20 19  1  0  0  0  0
 21 20  1  0  0  0  0
 22 27  2  0  0  0  0
 23 25  1  0  0  0  0
 24 23  1  0  0  0  0
 24 21  2  0  0  0  0
 25 19  1  0  0  0  0
 26 18  2  0  0  0  0
 26 22  1  0  0  0  0
 27 21  1  0  0  0  0
 27 17  1  0  0  0  0
 29 28  1  0  0  0  0
 29 30  1  0  0  0  0
 32 33  1  0  0  0  0
 32 31  1  0  0  0  0
 33 34  1  0  0  0  0
M  END
>  <MODEL>
6

>  <REMARK>
 VINA RESULT:      -7.1      1.149      1.919
  Name = 
  6 active torsions:
  status: ('A' for Active; 'I' for Inactive)
    1  A    between atoms: C_3  and  C_24
    2  A    between atoms: C_7  and  N_15
    3  A    between atoms: C_8  and  C_17
    4  A    between atoms: C_8  and  C_18
    5  A    between atoms: C_24  and  C_25
    6  A    between atoms: C_25  and  C_27
                            x       y       z     vdW  Elec       q    Type
                         _______ _______ _______ _____ _____    ______ ____

>  <TORSDO>
F 6

$$$$
=
 OpenBabel11062409303D

 34 38  0  0  1  0  0  0  0  0999 V2000
  161.3440  206.3700  150.9650 C   0  0  0  0  0  0  0  0  0  0  0  0
  161.0810  206.9830  147.1270 C   0  0  0  0  0  2  0  0  0  0  0  0
  161.9540  208.4970  148.9600 C   0  0  0  0  0  2  0  0  0  0  0  0
  161.0880  205.5500  151.8350 O   0  0  0  0  0  0  0  0  0  0  0  0
  162.5610  209.5910  152.4880 N   0  0  0  0  0  2  0  0  0  0  0  0
  162.3670  209.9110  151.0680 C   0  0  1  0  0  3  0  0  0  0  0  0
  162.2000  208.1780  152.6650 C   0  0  2  0  0  3  0  0  0  0  0  0
  161.6740  208.7280  150.4430 C   0  0  2  0  0  3  0  0  0  0  0  0
  162.1750  207.5870  151.2650 C   0  0  2  0  0  3  0  0  0  0  0  0
  161.5020  211.1490  150.9350 C   0  0  0  0  0  1  0  0  0  0  0  0
  160.2590  205.7100  146.8670 C   0  0  0  0  0  2  0  0  0  0  0  0
  160.8140  204.4820  147.6050 C   0  0  2  0  0  3  0  0  0  0  0  0
  161.6710  207.0370  148.5380 C   0  0  1  0  0  3  0  0  0  0  0  0
  160.9150  204.7030  149.1230 C   0  0  0  0  0  2  0  0  0  0  0  0
  160.8590  206.1780  149.5430 C   0  0  1  0  0  3  0  0  0  0  0  0
  160.8440  208.0850  153.3690 C   0  0  0  0  0  2  0  0  0  0  0  0
  159.0010  210.2110  152.9540 F   0  0  0  0  0  0  0  0  0  0  0  0
  161.3110  210.2840  156.4130 C   0  0  0  0  0  3  0  0  0  0  0  0
  158.2560  213.2160  155.9290 C   0  0  1  0  0  3  0  0  0  0  0  0
  158.6650  212.4200  154.6810 C   0  0  0  0  0  2  0  0  0  0  0  0
  159.6000  211.2860  155.0050 C   0  0  0  0  0  0  0  0  0  0  0  0
  160.6670  209.2050  154.3420 C   0  0  0  0  0  0  0  0  0  0  0  0
  160.2380  212.3880  157.2090 C   0  0  0  0  0  2  0  0  0  0  0  0
  160.4040  211.3190  156.1670 C   0  0  0  0  0  0  0  0  0  0  0  0
  159.5390  213.6280  156.6580 C   0  0  0  0  0  2  0  0  0  0  0  0
  161.4470  209.2350  155.5020 C   0  0  0  0  0  3  0  0  0  0  0  0
  159.7470  210.2330  154.0880 C   0  0  0  0  0  0  0  0  0  0  0  0
  157.3170  214.4220  154.1100 C   0  0  0  0  0  1  0  0  0  0  0  0
  157.4600  214.3950  155.5600 N   0  0  0  0  0  0  0  0  0  0  0  0
  156.1070  214.2180  156.0680 C   0  0  0  0  0  1  0  0  0  0  0  0
  162.1710  204.0550  147.0540 C   0  0  0  0  0  2  0  0  0  0  0  0
  162.0580  203.5470  145.6220 C   0  0  0  0  0  2  0  0  0  0  0  0
  160.7010  202.9120  145.3570 C   0  0  0  0  0  2  0  0  0  0  0  0
  160.7110  201.4510  145.7660 C   0  0  0  0  0  1  0  0  0  0  0  0
  1  4  2  0  0  0  0
  5  7  1  0  0  0  0
  6 10  1  1  0  0  0
  6  5  1  0  0  0  0
  7 16  1  6  0  0  0
  8  3  1  6  0  0  0
  8  6  1  0  0  0  0
  8  9  1  0  0  0  0
  9  1  1  1  0  0  0
  9  7  1  0  0  0  0
 11  2  1  0  0  0  0
 11 12  1  0  0  0  0
 12 31  1  6  0  0  0
 12 14  1  0  0  0  0
 13  2  1  6  0  0  0
 13  3  1  0  0  0  0
 13 15  1  0  0  0  0
 15 14  1  6  0  0  0
 15  1  1  0  0  0  0
 16 22  1  0  0  0  0
 17 27  1  0  0  0  0
 19 29  1  6  0  0  0
 19 25  1  0  0  0  0
 20 21  1  0  0  0  0
 20 19  1  0  0  0  0
 21 24  2  0  0  0  0
 22 26  1  0  0  0  0
 24 18  1  0  0  0  0
 24 23  1  0  0  0  0
 25 23  1  0  0  0  0
 26 18  2  0  0  0  0
 27 22  2  0  0  0  0
 27 21  1  0  0  0  0
 28 29  1  0  0  0  0
 29 30  1  0  0  0  0
 32 31  1  0  0  0  0
 33 32  1  0  0  0  0
 33 34  1  0  0  0  0
M  END
>  <MODEL>
7

>  <REMARK>
 VINA RESULT:      -7.0      1.991      3.500
  Name = 
  6 active torsions:
  status: ('A' for Active; 'I' for Inactive)
    1  A    between atoms: C_3  and  C_24
    2  A    between atoms: C_7  and  N_15
    3  A    between atoms: C_8  and  C_17
    4  A    between atoms: C_8  and  C_18
    5  A    between atoms: C_24  and  C_25
    6  A    between atoms: C_25  and  C_27
                            x       y       z     vdW  Elec       q    Type
                         _______ _______ _______ _____ _____    ______ ____

>  <TORSDO>
F 6

$$$$
=
 OpenBabel11062409303D

 34 38  0  0  1  0  0  0  0  0999 V2000
  159.2100  211.3600  153.5880 C   0  0  0  0  0  0  0  0  0  0  0  0
  160.3380  210.2130  157.1360 C   0  0  0  0  0  2  0  0  0  0  0  0
  158.2920  211.5270  156.4250 C   0  0  0  0  0  2  0  0  0  0  0  0
  159.5490  211.3510  152.4140 O   0  0  0  0  0  0  0  0  0  0  0  0
  156.1320  213.4740  154.0690 N   0  0  0  0  0  2  0  0  0  0  0  0
  156.5790  213.1690  155.4340 C   0  0  1  0  0  3  0  0  0  0  0  0
  157.0730  212.8210  153.1490 C   0  0  2  0  0  3  0  0  0  0  0  0
  157.9300  212.5100  155.3140 C   0  0  2  0  0  3  0  0  0  0  0  0
  157.8350  211.8150  153.9960 C   0  0  2  0  0  3  0  0  0  0  0  0
  156.6970  214.4520  156.2320 C   0  0  0  0  0  1  0  0  0  0  0  0
  161.7190  209.7330  156.6650 C   0  0  0  0  0  2  0  0  0  0  0  0
  161.6530  208.9110  155.3680 C   0  0  2  0  0  3  0  0  0  0  0  0
  159.3860  210.5290  155.9800 C   0  0  1  0  0  3  0  0  0  0  0  0
  160.9770  209.6760  154.2180 C   0  0  0  0  0  2  0  0  0  0  0  0
  160.1490  210.8840  154.6770 C   0  0  1  0  0  3  0  0  0  0  0  0
  157.9870  213.8780  152.5230 C   0  0  0  0  0  2  0  0  0  0  0  0
  160.2790  213.9600  150.8430 F   0  0  0  0  0  0  0  0  0  0  0  0
  156.5400  213.7880  149.0280 C   0  0  0  0  0  3  0  0  0  0  0  0
  160.0170  213.5070  146.5810 C   0  0  1  0  0  3  0  0  0  0  0  0
  160.2130  214.0070  148.0190 C   0  0  0  0  0  2  0  0  0  0  0  0
  158.9630  213.8780  148.8470 C   0  0  0  0  0  0  0  0  0  0  0  0
  157.8990  213.8480  151.0330 C   0  0  0  0  0  0  0  0  0  0  0  0
  157.5350  213.7580  146.7440 C   0  0  0  0  0  2  0  0  0  0  0  0
  157.6890  213.8440  148.2350 C   0  0  0  0  0  0  0  0  0  0  0  0
  158.7890  214.2180  146.0060 C   0  0  0  0  0  2  0  0  0  0  0  0
  156.6430  213.7970  150.4210 C   0  0  0  0  0  3  0  0  0  0  0  0
  159.0600  213.8950  150.2480 C   0  0  0  0  0  0  0  0  0  0  0  0
  162.3830  213.3090  146.4930 C   0  0  0  0  0  1  0  0  0  0  0  0
  161.2100  213.7760  145.7660 N   0  0  0  0  0  0  0  0  0  0  0  0
  161.1530  212.9460  144.5710 C   0  0  0  0  0  1  0  0  0  0  0  0
  160.9510  207.5740  155.5800 C   0  0  0  0  0  2  0  0  0  0  0  0
  160.4520  206.9890  154.2640 C   0  0  0  0  0  2  0  0  0  0  0  0
  161.5380  206.1950  153.5550 C   0  0  0  0  0  2  0  0  0  0  0  0
  161.3390  206.2480  152.0530 C   0  0  0  0  0  1  0  0  0  0  0  0
  1 15  1  0  0  0  0
  4  1  2  0  0  0  0
  5  6  1  0  0  0  0
  6 10  1  1  0  0  0
  7 16  1  1  0  0  0
  7  9  1  0  0  0  0
  7  5  1  0  0  0  0
  8  6  1  0  0  0  0
  8  3  1  1  0  0  0
  9  1  1  6  0  0  0
  9  8  1  0  0  0  0
 11  2  1  0  0  0  0
 12 31  1  1  0  0  0
 12 11  1  0  0  0  0
 13  3  1  1  0  0  0
 13  2  1  0  0  0  0
 14 12  1  0  0  0  0
 15 14  1  6  0  0  0
 15 13  1  0  0  0  0
 18 26  1  0  0  0  0
 19 29  1  6  0  0  0
 19 20  1  0  0  0  0
 20 21  1  0  0  0  0
 21 27  2  0  0  0  0
 22 16  1  0  0  0  0
 23 24  1  0  0  0  0
 24 21  1  0  0  0  0
 24 18  2  0  0  0  0
 25 19  1  0  0  0  0
 25 23  1  0  0  0  0
 26 22  2  0  0  0  0
 27 17  1  0  0  0  0
 27 22  1  0  0  0  0
 29 28  1  0  0  0  0
 30 29  1  0  0  0  0
 32 31  1  0  0  0  0
 33 32  1  0  0  0  0
 34 33  1  0  0  0  0
M  END
>  <MODEL>
8

>  <REMARK>
 VINA RESULT:      -6.6      4.586      9.491
  Name = 
  6 active torsions:
  status: ('A' for Active; 'I' for Inactive)
    1  A    between atoms: C_3  and  C_24
    2  A    between atoms: C_7  and  N_15
    3  A    between atoms: C_8  and  C_17
    4  A    between atoms: C_8  and  C_18
    5  A    between atoms: C_24  and  C_25
    6  A    between atoms: C_25  and  C_27
                            x       y       z     vdW  Elec       q    Type
                         _______ _______ _______ _____ _____    ______ ____

>  <TORSDO>
F 6

$$$$
=
 OpenBabel11062409303D

 34 38  0  0  1  0  0  0  0  0999 V2000
  161.6550  207.9550  150.3070 C   0  0  0  0  0  0  0  0  0  0  0  0
  161.4530  211.7980  150.9170 C   0  0  0  0  0  2  0  0  0  0  0  0
  161.7500  209.9010  152.5700 C   0  0  0  0  0  2  0  0  0  0  0  0
  161.5930  207.1100  149.4270 O   0  0  0  0  0  0  0  0  0  0  0  0
  161.8120  206.3340  153.7010 N   0  0  0  0  0  2  0  0  0  0  0  0
  161.6190  207.7610  153.9890 C   0  0  1  0  0  3  0  0  0  0  0  0
  161.8590  206.1910  152.2400 C   0  0  2  0  0  3  0  0  0  0  0  0
  161.3290  208.4380  152.6740 C   0  0  2  0  0  3  0  0  0  0  0  0
  162.0860  207.5930  151.7030 C   0  0  2  0  0  3  0  0  0  0  0  0
  160.4470  207.9380  154.9340 C   0  0  0  0  0  1  0  0  0  0  0  0
  161.0450  212.1190  149.4710 C   0  0  0  0  0  2  0  0  0  0  0  0
  161.8830  211.3570  148.4320 C   0  0  2  0  0  3  0  0  0  0  0  0
  161.9200  210.3520  151.1010 C   0  0  1  0  0  3  0  0  0  0  0  0
  161.8270  209.8330  148.6340 C   0  0  0  0  0  2  0  0  0  0  0  0
  161.3290  209.4070  150.0220 C   0  0  1  0  0  3  0  0  0  0  0  0
  160.5460  205.5750  151.7480 C   0  0  0  0  0  2  0  0  0  0  0  0
  160.1950  205.4150  148.9300 F   0  0  0  0  0  0  0  0  0  0  0  0
  161.4300  201.9860  150.9360 C   0  0  0  0  0  3  0  0  0  0  0  0
  161.2740  201.9230  146.6780 C   0  0  1  0  0  3  0  0  0  0  0  0
  160.5520  203.0770  147.3860 C   0  0  0  0  0  2  0  0  0  0  0  0
  160.8370  203.1110  148.8640 C   0  0  0  0  0  0  0  0  0  0  0  0
  160.7990  204.3250  150.9700 C   0  0  0  0  0  0  0  0  0  0  0  0
  161.5540  200.6700  148.8230 C   0  0  0  0  0  2  0  0  0  0  0  0
  161.2330  201.9430  149.5530 C   0  0  0  0  0  0  0  0  0  0  0  0
  160.9350  200.6320  147.4290 C   0  0  0  0  0  2  0  0  0  0  0  0
  161.2080  203.1690  151.6430 C   0  0  0  0  0  3  0  0  0  0  0  0
  160.6070  204.2970  149.5810 C   0  0  0  0  0  0  0  0  0  0  0  0
  159.7060  200.9560  145.1780 C   0  0  0  0  0  1  0  0  0  0  0  0
  160.8650  201.8350  145.2700 N   0  0  0  0  0  0  0  0  0  0  0  0
  160.3810  203.1410  144.8440 C   0  0  0  0  0  1  0  0  0  0  0  0
  163.3350  211.8230  148.4220 C   0  0  0  0  0  2  0  0  0  0  0  0
  163.4710  213.2130  147.8120 C   0  0  0  0  0  2  0  0  0  0  0  0
  162.7060  213.3280  146.5030 C   0  0  0  0  0  2  0  0  0  0  0  0
  161.6910  214.4530  146.5780 C   0  0  0  0  0  1  0  0  0  0  0  0
  4  1  2  0  0  0  0
  5  6  1  0  0  0  0
  6 10  1  1  0  0  0
  7 16  1  6  0  0  0
  7  5  1  0  0  0  0
  8  3  1  1  0  0  0
  8  6  1  0  0  0  0
  9  1  1  6  0  0  0
  9  7  1  0  0  0  0
  9  8  1  0  0  0  0
 11  2  1  0  0  0  0
 12 31  1  1  0  0  0
 12 14  1  0  0  0  0
 12 11  1  0  0  0  0
 13  2  1  1  0  0  0
 13  3  1  0  0  0  0
 15 14  1  6  0  0  0
 15  1  1  0  0  0  0
 15 13  1  0  0  0  0
 17 27  1  0  0  0  0
 18 26  1  0  0  0  0
 19 29  1  6  0  0  0
 19 20  1  0  0  0  0
 19 25  1  0  0  0  0
 20 21  1  0  0  0  0
 21 24  1  0  0  0  0
 21 27  2  0  0  0  0
 22 26  2  0  0  0  0
 22 16  1  0  0  0  0
 23 24  1  0  0  0  0
 24 18  2  0  0  0  0
 25 23  1  0  0  0  0
 27 22  1  0  0  0  0
 28 29  1  0  0  0  0
 30 29  1  0  0  0  0
 32 31  1  0  0  0  0
 33 34  1  0  0  0  0
 33 32  1  0  0  0  0
M  END
>  <MODEL>
9

>  <REMARK>
 VINA RESULT:      -6.3      3.378      8.453
  Name = 
  6 active torsions:
  status: ('A' for Active; 'I' for Inactive)
    1  A    between atoms: C_3  and  C_24
    2  A    between atoms: C_7  and  N_15
    3  A    between atoms: C_8  and  C_17
    4  A    between atoms: C_8  and  C_18
    5  A    between atoms: C_24  and  C_25
    6  A    between atoms: C_25  and  C_27
                            x       y       z     vdW  Elec       q    Type
                         _______ _______ _______ _____ _____    ______ ____

>  <TORSDO>
F 6

$$$$
