=
 OpenBabel11052422573D

 28 31  0  0  1  0  0  0  0  0999 V2000
  161.7980  208.7130  149.4360 C   0  0  0  0  0  2  0  0  0  0  0  0
  160.6260  206.7990  154.8010 C   0  0  0  0  0  1  0  0  0  0  0  0
  161.4450  205.6630  150.2430 C   0  0  2  0  0  3  0  0  0  0  0  0
  161.4180  206.8410  151.1330 C   0  0  0  0  0  0  0  0  0  0  0  0
  161.4820  206.6940  147.9250 C   0  0  2  0  0  3  0  0  0  0  0  0
  161.6370  208.1950  150.8380 C   0  0  0  0  0  0  0  0  0  0  0  0
  160.8440  204.9730  152.3380 C   0  0  0  0  0  2  0  0  0  0  0  0
  160.6510  205.9410  148.9740 C   0  0  0  0  0  2  0  0  0  0  0  0
  161.5520  209.1130  151.8940 C   0  0  0  0  0  3  0  0  0  0  0  0
  160.8770  204.5850  150.9700 O   0  0  0  0  0  0  0  0  0  0  0  0
  161.0290  207.3110  153.4580 C   0  0  0  0  0  0  0  0  0  0  0  0
  162.3680  205.5270  146.9160 Cl  0  0  0  0  0  0  0  0  0  0  0  0
  162.4720  207.7140  148.5000 C   0  0  0  0  0  2  0  0  0  0  0  0
  161.1110  206.4240  152.3800 C   0  0  0  0  0  0  0  0  0  0  0  0
  161.2770  208.6890  153.2140 C   0  0  0  0  0  0  0  0  0  0  0  0
  160.5470  210.9630  154.1510 C   0  0  2  0  0  3  0  0  0  0  0  0
  161.2120  209.6720  154.2640 N   0  0  0  0  0  0  0  0  0  0  0  0
  161.9460  210.8290  156.0700 C   0  0  0  0  0  3  0  0  0  0  0  0
  162.0600  209.6970  155.4010 C   0  0  0  0  0  3  0  0  0  0  0  0
  160.9480  211.7260  155.4160 C   0  0  0  0  0  2  0  0  0  0  0  0
  159.0280  210.8140  153.9860 C   0  0  2  0  0  3  0  0  0  0  0  0
  158.6040  211.3200  152.7570 O   0  0  0  0  0  1  0  0  0  0  0  0
  158.1780  211.3470  155.1500 C   0  0  0  0  0  2  0  0  0  0  0  0
  155.9380  212.2880  154.4890 C   0  0  0  0  0  0  0  0  0  0  0  0
  157.8590  213.8160  154.9510 C   0  0  0  0  0  1  0  0  0  0  0  0
  157.3330  212.4720  154.7670 N   0  0  0  0  0  0  0  0  0  0  0  0
  155.3490  211.0370  154.6390 O   0  0  0  0  0  1  0  0  0  0  0  0
  155.2280  213.2610  154.1200 O   0  0  0  0  0  0  0  0  0  0  0  0
  1  6  1  0  0  0  0
  3  8  1  6  0  0  0
  3 10  1  0  0  0  0
  3  4  1  0  0  0  0
  4 14  1  0  0  0  0
  5 12  1  1  0  0  0
  5 13  1  0  0  0  0
  5  8  1  0  0  0  0
  6  4  2  0  0  0  0
  6  9  1  0  0  0  0
  7 14  1  0  0  0  0
  9 15  2  0  0  0  0
 10  7  1  0  0  0  0
 11  2  1  0  0  0  0
 13  1  1  0  0  0  0
 14 11  2  0  0  0  0
 15 11  1  0  0  0  0
 15 17  1  0  0  0  0
 16 21  1  1  0  0  0
 16 17  1  0  0  0  0
 16 20  1  0  0  0  0
 17 19  1  0  0  0  0
 19 18  2  0  0  0  0
 20 18  1  0  0  0  0
 21 22  1  6  0  0  0
 21 23  1  0  0  0  0
 24 27  1  0  0  0  0
 24 26  1  0  0  0  0
 26 25  1  0  0  0  0
 26 23  1  0  0  0  0
 28 24  2  0  0  0  0
M  END
>  <MODEL>
1

>  <REMARK>
 VINA RESULT:      -7.9      0.000      0.000
  Name = 
  4 active torsions:
  status: ('A' for Active; 'I' for Inactive)
    1  A    between atoms: C_1  and  C_2
    2  A    between atoms: C_2  and  C_3
    3  A    between atoms: C_3  and  N_11
    4  A    between atoms: N_16  and  C_27
                            x       y       z     vdW  Elec       q    Type
                         _______ _______ _______ _____ _____    ______ ____

>  <TORSDO>
F 4

$$$$
=
 OpenBabel11052422573D

 28 31  0  0  1  0  0  0  0  0999 V2000
  161.7310  209.0680  149.8790 C   0  0  0  0  0  2  0  0  0  0  0  0
  160.7020  206.9710  155.2050 C   0  0  0  0  0  1  0  0  0  0  0  0
  161.3990  205.9920  150.5910 C   0  0  2  0  0  3  0  0  0  0  0  0
  161.3950  207.1390  151.5210 C   0  0  0  0  0  0  0  0  0  0  0  0
  161.3740  207.1010  148.3090 C   0  0  2  0  0  3  0  0  0  0  0  0
  161.6080  208.5020  151.2660 C   0  0  0  0  0  0  0  0  0  0  0  0
  160.8530  205.2300  152.6760 C   0  0  0  0  0  2  0  0  0  0  0  0
  160.5710  206.3130  149.3540 C   0  0  0  0  0  2  0  0  0  0  0  0
  161.5510  209.3830  152.3550 C   0  0  0  0  0  3  0  0  0  0  0  0
  160.8500  204.8900  151.2950 O   0  0  0  0  0  0  0  0  0  0  0  0
  161.0700  207.5290  153.8700 C   0  0  0  0  0  0  0  0  0  0  0  0
  162.2320  205.9700  147.2370 Cl  0  0  0  0  0  0  0  0  0  0  0  0
  162.3790  208.1020  148.8920 C   0  0  0  0  0  2  0  0  0  0  0  0
  161.1220  206.6800  152.7600 C   0  0  0  0  0  0  0  0  0  0  0  0
  161.3110  208.9150  153.6670 C   0  0  0  0  0  0  0  0  0  0  0  0
  160.7020  211.1980  154.6660 C   0  0  2  0  0  3  0  0  0  0  0  0
  161.2750  209.8610  154.7510 N   0  0  0  0  0  0  0  0  0  0  0  0
  162.0200  210.8990  156.6230 C   0  0  0  0  0  3  0  0  0  0  0  0
  162.0830  209.7870  155.9150 C   0  0  0  0  0  3  0  0  0  0  0  0
  161.1070  211.8860  155.9710 C   0  0  0  0  0  2  0  0  0  0  0  0
  159.1830  211.1580  154.4460 C   0  0  2  0  0  3  0  0  0  0  0  0
  158.6130  210.0540  155.0810 O   0  0  0  0  0  1  0  0  0  0  0  0
  158.7180  211.2850  152.9880 C   0  0  0  0  0  2  0  0  0  0  0  0
  159.4350  213.2430  151.5750 C   0  0  0  0  0  0  0  0  0  0  0  0
  157.3400  213.3670  152.9310 C   0  0  0  0  0  1  0  0  0  0  0  0
  158.5620  212.6710  152.5600 N   0  0  0  0  0  0  0  0  0  0  0  0
  160.4120  212.4670  150.9640 O   0  0  0  0  0  0  0  0  0  0  0  0
  159.3150  214.4530  151.2450 O   0  0  0  0  0  1  0  0  0  0  0  0
  1  6  1  0  0  0  0
  3  8  1  6  0  0  0
  3 10  1  0  0  0  0
  3  4  1  0  0  0  0
  4 14  1  0  0  0  0
  5 12  1  1  0  0  0
  5 13  1  0  0  0  0
  5  8  1  0  0  0  0
  6  4  2  0  0  0  0
  6  9  1  0  0  0  0
  7 14  1  0  0  0  0
  9 15  2  0  0  0  0
 10  7  1  0  0  0  0
 11  2  1  0  0  0  0
 13  1  1  0  0  0  0
 14 11  2  0  0  0  0
 15 11  1  0  0  0  0
 15 17  1  0  0  0  0
 16 21  1  1  0  0  0
 16 17  1  0  0  0  0
 16 20  1  0  0  0  0
 17 19  1  0  0  0  0
 19 18  2  0  0  0  0
 20 18  1  0  0  0  0
 21 22  1  6  0  0  0
 23 21  1  0  0  0  0
 24 26  1  0  0  0  0
 26 25  1  0  0  0  0
 26 23  1  0  0  0  0
 27 24  2  0  0  0  0
 28 24  1  0  0  0  0
M  END
>  <MODEL>
2

>  <REMARK>
 VINA RESULT:      -7.2      1.528      2.052
  Name = 
  4 active torsions:
  status: ('A' for Active; 'I' for Inactive)
    1  A    between atoms: C_1  and  C_2
    2  A    between atoms: C_2  and  C_3
    3  A    between atoms: C_3  and  N_11
    4  A    between atoms: N_16  and  C_27
                            x       y       z     vdW  Elec       q    Type
                         _______ _______ _______ _____ _____    ______ ____

>  <TORSDO>
F 4

$$$$
=
 OpenBabel11052422573D

 28 31  0  0  1  0  0  0  0  0999 V2000
  159.9640  207.3350  155.3450 C   0  0  0  0  0  2  0  0  0  0  0  0
  162.4250  207.1490  150.0780 C   0  0  0  0  0  1  0  0  0  0  0  0
  161.4110  209.7790  153.9250 C   0  0  2  0  0  3  0  0  0  0  0  0
  161.2910  208.3910  153.4340 C   0  0  0  0  0  0  0  0  0  0  0  0
  159.8980  209.8000  155.9620 C   0  0  2  0  0  3  0  0  0  0  0  0
  160.7270  207.2650  154.0510 C   0  0  0  0  0  0  0  0  0  0  0  0
  162.2360  209.6930  151.7950 C   0  0  0  0  0  2  0  0  0  0  0  0
  160.0840  210.2490  154.5060 C   0  0  0  0  0  2  0  0  0  0  0  0
  160.7550  206.0540  153.3460 C   0  0  0  0  0  3  0  0  0  0  0  0
  161.7890  210.5770  152.8150 O   0  0  0  0  0  0  0  0  0  0  0  0
  161.8790  207.1380  151.4680 C   0  0  0  0  0  0  0  0  0  0  0  0
  160.6150  211.0070  157.0550 Cl  0  0  0  0  0  0  0  0  0  0  0  0
  160.4790  208.4190  156.2870 C   0  0  0  0  0  2  0  0  0  0  0  0
  161.8240  208.3320  152.1950 C   0  0  0  0  0  0  0  0  0  0  0  0
  161.3500  205.9630  152.0670 C   0  0  0  0  0  0  0  0  0  0  0  0
  160.5580  204.3690  150.2200 C   0  0  2  0  0  3  0  0  0  0  0  0
  161.3620  204.6920  151.3910 N   0  0  0  0  0  0  0  0  0  0  0  0
  161.5300  202.4390  151.2140 C   0  0  0  0  0  3  0  0  0  0  0  0
  161.8590  203.4860  151.9480 C   0  0  0  0  0  3  0  0  0  0  0  0
  160.7400  202.8620  150.0200 C   0  0  0  0  0  2  0  0  0  0  0  0
  160.9680  205.1980  148.9950 C   0  0  2  0  0  3  0  0  0  0  0  0
  159.9350  206.0460  148.5940 O   0  0  0  0  0  1  0  0  0  0  0  0
  161.5470  204.4020  147.8160 C   0  0  0  0  0  2  0  0  0  0  0  0
  161.3860  204.7060  145.3220 C   0  0  0  0  0  0  0  0  0  0  0  0
  161.9970  206.6330  146.7900 C   0  0  0  0  0  1  0  0  0  0  0  0
  161.7320  205.2130  146.6190 N   0  0  0  0  0  0  0  0  0  0  0  0
  160.8100  203.4490  145.1870 O   0  0  0  0  0  1  0  0  0  0  0  0
  161.5890  205.4030  144.2920 O   0  0  0  0  0  0  0  0  0  0  0  0
  1 13  1  0  0  0  0
  2 11  1  0  0  0  0
  3  8  1  6  0  0  0
  4  3  1  0  0  0  0
  4  6  1  0  0  0  0
  5 13  1  0  0  0  0
  5 12  1  1  0  0  0
  6  1  1  0  0  0  0
  7 14  1  0  0  0  0
  7 10  1  0  0  0  0
  8  5  1  0  0  0  0
  9  6  2  0  0  0  0
 10  3  1  0  0  0  0
 11 15  2  0  0  0  0
 11 14  1  0  0  0  0
 14  4  2  0  0  0  0
 15  9  1  0  0  0  0
 16 21  1  6  0  0  0
 16 17  1  0  0  0  0
 17 19  1  0  0  0  0
 17 15  1  0  0  0  0
 18 19  2  0  0  0  0
 20 16  1  0  0  0  0
 20 18  1  0  0  0  0
 21 22  1  6  0  0  0
 23 21  1  0  0  0  0
 24 26  1  0  0  0  0
 26 25  1  0  0  0  0
 26 23  1  0  0  0  0
 27 24  1  0  0  0  0
 28 24  2  0  0  0  0
M  END
>  <MODEL>
3

>  <REMARK>
 VINA RESULT:      -7.0      4.001      8.288
  Name = 
  4 active torsions:
  status: ('A' for Active; 'I' for Inactive)
    1  A    between atoms: C_1  and  C_2
    2  A    between atoms: C_2  and  C_3
    3  A    between atoms: C_3  and  N_11
    4  A    between atoms: N_16  and  C_27
                            x       y       z     vdW  Elec       q    Type
                         _______ _______ _______ _____ _____    ______ ____

>  <TORSDO>
F 4

$$$$
=
 OpenBabel11052422573D

 28 31  0  0  1  0  0  0  0  0999 V2000
  160.9460  205.0750  147.9420 C   0  0  0  0  0  2  0  0  0  0  0  0
  161.0800  206.8570  153.4770 C   0  0  0  0  0  1  0  0  0  0  0  0
  161.2350  203.1650  150.4620 C   0  0  2  0  0  3  0  0  0  0  0  0
  161.1810  204.6410  150.4490 C   0  0  0  0  0  0  0  0  0  0  0  0
  160.6890  202.5480  148.0620 C   0  0  2  0  0  3  0  0  0  0  0  0
  161.1250  205.5280  149.3640 C   0  0  0  0  0  0  0  0  0  0  0  0
  161.1390  203.9030  152.6230 C   0  0  0  0  0  2  0  0  0  0  0  0
  160.1920  202.5910  149.5140 C   0  0  0  0  0  2  0  0  0  0  0  0
  161.0870  206.9000  149.6480 C   0  0  0  0  0  3  0  0  0  0  0  0
  160.9860  202.7560  151.7970 O   0  0  0  0  0  0  0  0  0  0  0  0
  161.1480  206.4390  152.0450 C   0  0  0  0  0  0  0  0  0  0  0  0
  161.5530  201.0210  147.7710 Cl  0  0  0  0  0  0  0  0  0  0  0  0
  161.5910  203.7210  147.6580 C   0  0  0  0  0  2  0  0  0  0  0  0
  161.1750  205.0760  151.7270 C   0  0  0  0  0  0  0  0  0  0  0  0
  161.1250  207.3770  150.9780 C   0  0  0  0  0  0  0  0  0  0  0  0
  162.0350  209.7510  150.6410 C   0  0  2  0  0  3  0  0  0  0  0  0
  161.0950  208.7960  151.2130 N   0  0  0  0  0  0  0  0  0  0  0  0
  160.7410  210.6950  152.3990 C   0  0  0  0  0  3  0  0  0  0  0  0
  160.4050  209.4240  152.2820 C   0  0  0  0  0  3  0  0  0  0  0  0
  161.7420  211.0710  151.3570 C   0  0  0  0  0  2  0  0  0  0  0  0
  161.9000  209.8460  149.1140 C   0  0  2  0  0  3  0  0  0  0  0  0
  162.6040  208.8200  148.4840 O   0  0  0  0  0  1  0  0  0  0  0  0
  162.2150  211.2190  148.5020 C   0  0  0  0  0  2  0  0  0  0  0  0
  160.5530  213.1100  148.5170 C   0  0  0  0  0  0  0  0  0  0  0  0
  160.5370  211.4330  146.6650 C   0  0  0  0  0  1  0  0  0  0  0  0
  161.0360  211.8810  147.9560 N   0  0  0  0  0  0  0  0  0  0  0  0
  161.2360  213.7260  149.5590 O   0  0  0  0  0  1  0  0  0  0  0  0
  159.5100  213.6500  148.0620 O   0  0  0  0  0  0  0  0  0  0  0  0
  1  6  1  0  0  0  0
  3  8  1  6  0  0  0
  3 10  1  0  0  0  0
  4  3  1  0  0  0  0
  4 14  1  0  0  0  0
  5 12  1  1  0  0  0
  5  8  1  0  0  0  0
  6  9  1  0  0  0  0
  6  4  2  0  0  0  0
  9 15  2  0  0  0  0
 10  7  1  0  0  0  0
 11  2  1  0  0  0  0
 13  1  1  0  0  0  0
 13  5  1  0  0  0  0
 14 11  2  0  0  0  0
 14  7  1  0  0  0  0
 15 17  1  0  0  0  0
 15 11  1  0  0  0  0
 16 21  1  6  0  0  0
 16 17  1  0  0  0  0
 16 20  1  0  0  0  0
 17 19  1  0  0  0  0
 19 18  2  0  0  0  0
 20 18  1  0  0  0  0
 21 22  1  6  0  0  0
 23 21  1  0  0  0  0
 24 27  1  0  0  0  0
 25 26  1  0  0  0  0
 26 23  1  0  0  0  0
 26 24  1  0  0  0  0
 28 24  2  0  0  0  0
M  END
>  <MODEL>
4

>  <REMARK>
 VINA RESULT:      -6.8      3.555      4.866
  Name = 
  4 active torsions:
  status: ('A' for Active; 'I' for Inactive)
    1  A    between atoms: C_1  and  C_2
    2  A    between atoms: C_2  and  C_3
    3  A    between atoms: C_3  and  N_11
    4  A    between atoms: N_16  and  C_27
                            x       y       z     vdW  Elec       q    Type
                         _______ _______ _______ _____ _____    ______ ____

>  <TORSDO>
F 4

$$$$
=
 OpenBabel11052422573D

 28 31  0  0  1  0  0  0  0  0999 V2000
  160.9540  204.7220  152.7740 C   0  0  0  0  0  2  0  0  0  0  0  0
  161.5670  210.3560  151.4640 C   0  0  0  0  0  1  0  0  0  0  0  0
  161.0810  205.9030  149.8290 C   0  0  2  0  0  3  0  0  0  0  0  0
  161.0930  206.6500  151.1030 C   0  0  0  0  0  0  0  0  0  0  0  0
  161.2940  203.4870  150.5780 C   0  0  2  0  0  3  0  0  0  0  0  0
  160.9680  206.1830  152.4190 C   0  0  0  0  0  0  0  0  0  0  0  0
  161.4660  208.1080  149.3680 C   0  0  0  0  0  2  0  0  0  0  0  0
  161.9930  204.6870  149.9220 C   0  0  0  0  0  2  0  0  0  0  0  0
  161.0100  207.1300  153.4520 C   0  0  0  0  0  3  0  0  0  0  0  0
  161.5300  206.7970  148.8230 O   0  0  0  0  0  0  0  0  0  0  0  0
  161.3060  208.9320  151.8290 C   0  0  0  0  0  0  0  0  0  0  0  0
  160.4380  202.5430  149.3360 Cl  0  0  0  0  0  0  0  0  0  0  0  0
  160.3120  203.8500  151.6980 C   0  0  0  0  0  2  0  0  0  0  0  0
  161.2700  207.9590  150.8240 C   0  0  0  0  0  0  0  0  0  0  0  0
  161.1500  208.5100  153.1770 C   0  0  0  0  0  0  0  0  0  0  0  0
  160.5770  210.7690  154.2480 C   0  0  2  0  0  3  0  0  0  0  0  0
  161.1760  209.4420  154.2740 N   0  0  0  0  0  0  0  0  0  0  0  0
  162.0340  210.4680  156.1030 C   0  0  0  0  0  3  0  0  0  0  0  0
  162.0640  209.3660  155.3780 C   0  0  0  0  0  3  0  0  0  0  0  0
  161.0620  211.4470  155.5310 C   0  0  0  0  0  2  0  0  0  0  0  0
  159.0470  210.7070  154.1340 C   0  0  2  0  0  3  0  0  0  0  0  0
  158.6060  211.3180  152.9600 O   0  0  0  0  0  1  0  0  0  0  0  0
  158.2690  211.1990  155.3640 C   0  0  0  0  0  2  0  0  0  0  0  0
  156.0430  212.2020  154.7480 C   0  0  0  0  0  0  0  0  0  0  0  0
  157.9470  213.6750  155.4170 C   0  0  0  0  0  1  0  0  0  0  0  0
  157.4300  212.3570  155.0790 N   0  0  0  0  0  0  0  0  0  0  0  0
  155.4550  210.9430  154.7510 O   0  0  0  0  0  1  0  0  0  0  0  0
  155.3400  213.2090  154.4650 O   0  0  0  0  0  0  0  0  0  0  0  0
  2 11  1  0  0  0  0
  3  8  1  1  0  0  0
  3  4  1  0  0  0  0
  4  6  1  0  0  0  0
  5 12  1  6  0  0  0
  5 13  1  0  0  0  0
  6  1  1  0  0  0  0
  6  9  2  0  0  0  0
  7 14  1  0  0  0  0
  8  5  1  0  0  0  0
 10  7  1  0  0  0  0
 10  3  1  0  0  0  0
 11 15  2  0  0  0  0
 13  1  1  0  0  0  0
 14  4  2  0  0  0  0
 14 11  1  0  0  0  0
 15  9  1  0  0  0  0
 15 17  1  0  0  0  0
 16 21  1  1  0  0  0
 16 17  1  0  0  0  0
 16 20  1  0  0  0  0
 17 19  1  0  0  0  0
 19 18  2  0  0  0  0
 20 18  1  0  0  0  0
 21 22  1  6  0  0  0
 21 23  1  0  0  0  0
 24 27  1  0  0  0  0
 24 26  1  0  0  0  0
 26 23  1  0  0  0  0
 26 25  1  0  0  0  0
 28 24  2  0  0  0  0
M  END
>  <MODEL>
5

>  <REMARK>
 VINA RESULT:      -6.7      1.214      2.514
  Name = 
  4 active torsions:
  status: ('A' for Active; 'I' for Inactive)
    1  A    between atoms: C_1  and  C_2
    2  A    between atoms: C_2  and  C_3
    3  A    between atoms: C_3  and  N_11
    4  A    between atoms: N_16  and  C_27
                            x       y       z     vdW  Elec       q    Type
                         _______ _______ _______ _____ _____    ______ ____

>  <TORSDO>
F 4

$$$$
=
 OpenBabel11052422573D

 28 31  0  0  1  0  0  0  0  0999 V2000
  161.8240  208.1380  148.9150 C   0  0  0  0  0  2  0  0  0  0  0  0
  160.8420  205.9590  154.2170 C   0  0  0  0  0  1  0  0  0  0  0  0
  161.6340  205.0440  149.6050 C   0  0  2  0  0  3  0  0  0  0  0  0
  161.5650  206.1840  150.5420 C   0  0  0  0  0  0  0  0  0  0  0  0
  161.5800  206.1660  147.3290 C   0  0  2  0  0  3  0  0  0  0  0  0
  161.7130  207.5570  150.2970 C   0  0  0  0  0  0  0  0  0  0  0  0
  161.1050  204.2440  151.6790 C   0  0  0  0  0  2  0  0  0  0  0  0
  160.8050  205.3330  148.3610 C   0  0  0  0  0  2  0  0  0  0  0  0
  161.6020  208.4280  151.3910 C   0  0  0  0  0  3  0  0  0  0  0  0
  161.1320  203.9120  150.2970 O   0  0  0  0  0  0  0  0  0  0  0  0
  161.1960  206.5430  152.8900 C   0  0  0  0  0  0  0  0  0  0  0  0
  162.5030  205.0840  146.2600 Cl  0  0  0  0  0  0  0  0  0  0  0  0
  162.5280  207.2100  147.9290 C   0  0  0  0  0  2  0  0  0  0  0  0
  161.3020  205.7040  151.7750 C   0  0  0  0  0  0  0  0  0  0  0  0
  161.3710  207.9400  152.6970 C   0  0  0  0  0  0  0  0  0  0  0  0
  161.5780  210.2990  153.6840 C   0  0  2  0  0  3  0  0  0  0  0  0
  161.2780  208.8770  153.7860 N   0  0  0  0  0  0  0  0  0  0  0  0
  161.3930  209.5690  155.9410 C   0  0  0  0  0  3  0  0  0  0  0  0
  161.2360  208.5190  155.1580 C   0  0  0  0  0  3  0  0  0  0  0  0
  161.5590  210.8100  155.1270 C   0  0  0  0  0  2  0  0  0  0  0  0
  160.5870  211.0300  152.7670 C   0  0  2  0  0  3  0  0  0  0  0  0
  161.0810  211.1190  151.4650 O   0  0  0  0  0  1  0  0  0  0  0  0
  160.0810  212.3860  153.2820 C   0  0  0  0  0  2  0  0  0  0  0  0
  158.0500  213.4320  152.2220 C   0  0  0  0  0  0  0  0  0  0  0  0
  157.7960  211.5420  153.8360 C   0  0  0  0  0  1  0  0  0  0  0  0
  158.6340  212.5300  153.1730 N   0  0  0  0  0  0  0  0  0  0  0  0
  158.8560  214.1440  151.3410 O   0  0  0  0  0  0  0  0  0  0  0  0
  156.8000  213.5760  152.1660 O   0  0  0  0  0  1  0  0  0  0  0  0
  1  6  1  0  0  0  0
  3  8  1  6  0  0  0
  3 10  1  0  0  0  0
  3  4  1  0  0  0  0
  4 14  1  0  0  0  0
  5 12  1  1  0  0  0
  5 13  1  0  0  0  0
  5  8  1  0  0  0  0
  6  4  2  0  0  0  0
  6  9  1  0  0  0  0
  7 14  1  0  0  0  0
  9 15  2  0  0  0  0
 10  7  1  0  0  0  0
 11  2  1  0  0  0  0
 13  1  1  0  0  0  0
 14 11  2  0  0  0  0
 15 11  1  0  0  0  0
 15 17  1  0  0  0  0
 16 21  1  6  0  0  0
 16 17  1  0  0  0  0
 16 20  1  0  0  0  0
 17 19  1  0  0  0  0
 19 18  2  0  0  0  0
 20 18  1  0  0  0  0
 21 22  1  6  0  0  0
 21 23  1  0  0  0  0
 24 26  1  0  0  0  0
 26 23  1  0  0  0  0
 26 25  1  0  0  0  0
 27 24  2  0  0  0  0
 28 24  1  0  0  0  0
M  END
>  <MODEL>
6

>  <REMARK>
 VINA RESULT:      -6.6      1.515      1.897
  Name = 
  4 active torsions:
  status: ('A' for Active; 'I' for Inactive)
    1  A    between atoms: C_1  and  C_2
    2  A    between atoms: C_2  and  C_3
    3  A    between atoms: C_3  and  N_11
    4  A    between atoms: N_16  and  C_27
                            x       y       z     vdW  Elec       q    Type
                         _______ _______ _______ _____ _____    ______ ____

>  <TORSDO>
F 4

$$$$
=
 OpenBabel11052422573D

 28 31  0  0  1  0  0  0  0  0999 V2000
  160.5920  205.6200  152.3780 C   0  0  0  0  0  2  0  0  0  0  0  0
  161.9380  209.1630  147.9670 C   0  0  0  0  0  1  0  0  0  0  0  0
  161.7830  208.5470  152.6930 C   0  0  2  0  0  3  0  0  0  0  0  0
  161.5330  207.8040  151.4410 C   0  0  0  0  0  0  0  0  0  0  0  0
  160.7120  207.0750  154.4600 C   0  0  2  0  0  3  0  0  0  0  0  0
  161.0770  206.4910  151.2530 C   0  0  0  0  0  0  0  0  0  0  0  0
  162.1610  209.9520  150.9300 C   0  0  0  0  0  2  0  0  0  0  0  0
  160.6120  208.3760  153.6510 C   0  0  0  0  0  2  0  0  0  0  0  0
  160.9330  206.0360  149.9340 C   0  0  0  0  0  3  0  0  0  0  0  0
  161.9500  209.9090  152.3350 O   0  0  0  0  0  0  0  0  0  0  0  0
  161.6830  208.1950  149.0740 C   0  0  0  0  0  0  0  0  0  0  0  0
  161.6630  207.3600  155.9360 Cl  0  0  0  0  0  0  0  0  0  0  0  0
  161.3120  205.8880  153.6970 C   0  0  0  0  0  2  0  0  0  0  0  0
  161.8050  208.6200  150.4020 C   0  0  0  0  0  0  0  0  0  0  0  0
  161.2560  206.8610  148.8330 C   0  0  0  0  0  0  0  0  0  0  0  0
  162.1360  205.6260  146.7650 C   0  0  2  0  0  3  0  0  0  0  0  0
  161.1010  206.3400  147.5000 N   0  0  0  0  0  0  0  0  0  0  0  0
  160.3260  206.2890  145.3710 C   0  0  0  0  0  3  0  0  0  0  0  0
  160.0910  206.7410  146.5890 C   0  0  0  0  0  3  0  0  0  0  0  0
  161.5860  205.4880  145.3430 C   0  0  0  0  0  2  0  0  0  0  0  0
  162.4770  204.2780  147.4170 C   0  0  2  0  0  3  0  0  0  0  0  0
  163.4410  203.5930  146.6770 O   0  0  0  0  0  1  0  0  0  0  0  0
  161.2770  203.3840  147.7640 C   0  0  0  0  0  2  0  0  0  0  0  0
  161.3830  200.8710  147.6460 C   0  0  0  0  0  0  0  0  0  0  0  0
  160.8080  202.2050  145.6130 C   0  0  0  0  0  1  0  0  0  0  0  0
  161.2530  202.1440  146.9970 N   0  0  0  0  0  0  0  0  0  0  0  0
  161.4760  200.7930  149.0310 O   0  0  0  0  0  1  0  0  0  0  0  0
  161.4010  199.8100  146.9670 O   0  0  0  0  0  0  0  0  0  0  0  0
  1 13  1  0  0  0  0
  2 11  1  0  0  0  0
  3  8  1  1  0  0  0
  4  3  1  0  0  0  0
  5 12  1  1  0  0  0
  6  4  1  0  0  0  0
  6  1  1  0  0  0  0
  7 10  1  0  0  0  0
  8  5  1  0  0  0  0
  9  6  2  0  0  0  0
 10  3  1  0  0  0  0
 11 14  1  0  0  0  0
 13  5  1  0  0  0  0
 14  7  1  0  0  0  0
 14  4  2  0  0  0  0
 15 11  2  0  0  0  0
 15  9  1  0  0  0  0
 16 21  1  1  0  0  0
 16 17  1  0  0  0  0
 17 15  1  0  0  0  0
 18 19  2  0  0  0  0
 19 17  1  0  0  0  0
 20 18  1  0  0  0  0
 20 16  1  0  0  0  0
 21 22  1  6  0  0  0
 21 23  1  0  0  0  0
 24 27  1  0  0  0  0
 25 26  1  0  0  0  0
 26 24  1  0  0  0  0
 26 23  1  0  0  0  0
 28 24  2  0  0  0  0
M  END
>  <MODEL>
7

>  <REMARK>
 VINA RESULT:      -6.6      4.398      9.117
  Name = 
  4 active torsions:
  status: ('A' for Active; 'I' for Inactive)
    1  A    between atoms: C_1  and  C_2
    2  A    between atoms: C_2  and  C_3
    3  A    between atoms: C_3  and  N_11
    4  A    between atoms: N_16  and  C_27
                            x       y       z     vdW  Elec       q    Type
                         _______ _______ _______ _____ _____    ______ ____

>  <TORSDO>
F 4

$$$$
=
 OpenBabel11052422573D

 28 31  0  0  1  0  0  0  0  0999 V2000
  161.5390  206.3110  148.7960 C   0  0  0  0  0  2  0  0  0  0  0  0
  160.7370  200.7390  150.2560 C   0  0  0  0  0  1  0  0  0  0  0  0
  160.8940  205.2720  151.7270 C   0  0  2  0  0  3  0  0  0  0  0  0
  160.9780  204.4770  150.4850 C   0  0  0  0  0  0  0  0  0  0  0  0
  161.7290  207.5570  151.0040 C   0  0  2  0  0  3  0  0  0  0  0  0
  161.1890  204.8960  149.1630 C   0  0  0  0  0  0  0  0  0  0  0  0
  160.7290  203.0590  152.2730 C   0  0  0  0  0  2  0  0  0  0  0  0
  162.0380  206.2740  151.7900 C   0  0  0  0  0  2  0  0  0  0  0  0
  161.2180  203.9110  148.1650 C   0  0  0  0  0  3  0  0  0  0  0  0
  160.9630  204.3550  152.8070 O   0  0  0  0  0  0  0  0  0  0  0  0
  160.8430  202.1670  149.8330 C   0  0  0  0  0  0  0  0  0  0  0  0
  160.8800  208.7120  152.0570 Cl  0  0  0  0  0  0  0  0  0  0  0  0
  160.9090  207.3450  149.7260 C   0  0  0  0  0  2  0  0  0  0  0  0
  160.8310  203.1740  150.8050 C   0  0  0  0  0  0  0  0  0  0  0  0
  161.0200  202.5460  148.4750 C   0  0  0  0  0  0  0  0  0  0  0  0
  160.0520  201.4800  146.3520 C   0  0  2  0  0  3  0  0  0  0  0  0
  161.0480  201.5770  147.4120 N   0  0  0  0  0  0  0  0  0  0  0  0
  161.4660  199.5690  146.4460 C   0  0  0  0  0  3  0  0  0  0  0  0
  161.8100  200.3800  147.4280 C   0  0  0  0  0  3  0  0  0  0  0  0
  160.3810  200.1780  145.6190 C   0  0  0  0  0  2  0  0  0  0  0  0
  160.0670  202.7130  145.4370 C   0  0  2  0  0  3  0  0  0  0  0  0
  159.2520  202.5190  144.3210 O   0  0  0  0  0  1  0  0  0  0  0  0
  161.4570  203.2360  145.0480 C   0  0  0  0  0  2  0  0  0  0  0  0
  162.7930  205.2660  145.7050 C   0  0  0  0  0  0  0  0  0  0  0  0
  160.5830  205.5260  144.5700 C   0  0  0  0  0  1  0  0  0  0  0  0
  161.5840  204.6800  145.2020 N   0  0  0  0  0  0  0  0  0  0  0  0
  163.8930  204.4690  146.0010 O   0  0  0  0  0  1  0  0  0  0  0  0
  162.8750  206.5130  145.8710 O   0  0  0  0  0  0  0  0  0  0  0  0
  1  6  1  0  0  0  0
  1 13  1  0  0  0  0
  3  8  1  1  0  0  0
  3 10  1  0  0  0  0
  4 14  1  0  0  0  0
  4  3  1  0  0  0  0
  5  8  1  0  0  0  0
  5 12  1  1  0  0  0
  6  4  2  0  0  0  0
  7 10  1  0  0  0  0
  9 15  2  0  0  0  0
  9  6  1  0  0  0  0
 11  2  1  0  0  0  0
 11 14  2  0  0  0  0
 13  5  1  0  0  0  0
 14  7  1  0  0  0  0
 15 11  1  0  0  0  0
 16 21  1  6  0  0  0
 16 17  1  0  0  0  0
 17 19  1  0  0  0  0
 17 15  1  0  0  0  0
 18 19  2  0  0  0  0
 20 16  1  0  0  0  0
 20 18  1  0  0  0  0
 21 22  1  6  0  0  0
 23 26  1  0  0  0  0
 23 21  1  0  0  0  0
 24 28  2  0  0  0  0
 24 27  1  0  0  0  0
 25 26  1  0  0  0  0
 26 24  1  0  0  0  0
M  END
>  <MODEL>
8

>  <REMARK>
 VINA RESULT:      -6.4      5.777      9.509
  Name = 
  4 active torsions:
  status: ('A' for Active; 'I' for Inactive)
    1  A    between atoms: C_1  and  C_2
    2  A    between atoms: C_2  and  C_3
    3  A    between atoms: C_3  and  N_11
    4  A    between atoms: N_16  and  C_27
                            x       y       z     vdW  Elec       q    Type
                         _______ _______ _______ _____ _____    ______ ____

>  <TORSDO>
F 4

$$$$
=
 OpenBabel11052422573D

 28 31  0  0  1  0  0  0  0  0999 V2000
  162.0770  208.9580  148.6570 C   0  0  0  0  0  2  0  0  0  0  0  0
  160.9600  205.9030  153.4790 C   0  0  0  0  0  1  0  0  0  0  0  0
  161.2870  210.2130  151.4650 C   0  0  2  0  0  3  0  0  0  0  0  0
  161.3740  208.7820  151.1070 C   0  0  0  0  0  0  0  0  0  0  0  0
  162.2550  211.3740  149.4260 C   0  0  2  0  0  3  0  0  0  0  0  0
  161.6480  208.1810  149.8700 C   0  0  0  0  0  0  0  0  0  0  0  0
  160.9980  208.9750  153.3640 C   0  0  0  0  0  2  0  0  0  0  0  0
  162.4760  210.9720  150.8920 C   0  0  0  0  0  2  0  0  0  0  0  0
  161.6620  206.7800  149.8180 C   0  0  0  0  0  3  0  0  0  0  0  0
  161.2770  210.2830  152.8810 O   0  0  0  0  0  0  0  0  0  0  0  0
  161.1490  206.6540  152.2020 C   0  0  0  0  0  0  0  0  0  0  0  0
  161.4280  212.9480  149.3570 Cl  0  0  0  0  0  0  0  0  0  0  0  0
  161.4680  210.3550  148.5930 C   0  0  0  0  0  2  0  0  0  0  0  0
  161.1530  208.0530  152.2220 C   0  0  0  0  0  0  0  0  0  0  0  0
  161.3890  205.9990  150.9640 C   0  0  0  0  0  0  0  0  0  0  0  0
  160.7000  203.8050  149.8280 C   0  0  2  0  0  3  0  0  0  0  0  0
  161.4050  204.5640  150.8520 N   0  0  0  0  0  0  0  0  0  0  0  0
  161.4820  202.4270  151.6020 C   0  0  0  0  0  3  0  0  0  0  0  0
  161.7890  203.6770  151.8900 C   0  0  0  0  0  3  0  0  0  0  0  0
  160.8290  202.3430  150.2610 C   0  0  0  0  0  2  0  0  0  0  0  0
  161.2630  204.0740  148.4250 C   0  0  2  0  0  3  0  0  0  0  0  0
  160.5340  205.0700  147.7740 O   0  0  0  0  0  1  0  0  0  0  0  0
  161.4600  202.8360  147.5380 C   0  0  0  0  0  2  0  0  0  0  0  0
  162.0840  204.0770  145.4380 C   0  0  0  0  0  0  0  0  0  0  0  0
  160.4330  202.2040  145.3510 C   0  0  0  0  0  1  0  0  0  0  0  0
  161.2660  203.1160  146.1200 N   0  0  0  0  0  0  0  0  0  0  0  0
  163.1210  204.7190  146.1050 O   0  0  0  0  0  1  0  0  0  0  0  0
  161.8790  204.3390  144.2230 O   0  0  0  0  0  0  0  0  0  0  0  0
  1  6  1  0  0  0  0
  3  8  1  1  0  0  0
  3 10  1  0  0  0  0
  4  3  1  0  0  0  0
  4 14  1  0  0  0  0
  5 12  1  1  0  0  0
  5  8  1  0  0  0  0
  6  4  2  0  0  0  0
  9  6  1  0  0  0  0
  9 15  2  0  0  0  0
 10  7  1  0  0  0  0
 11 14  2  0  0  0  0
 11  2  1  0  0  0  0
 13  1  1  0  0  0  0
 13  5  1  0  0  0  0
 14  7  1  0  0  0  0
 15 11  1  0  0  0  0
 16 21  1  6  0  0  0
 16 20  1  0  0  0  0
 16 17  1  0  0  0  0
 17 15  1  0  0  0  0
 17 19  1  0  0  0  0
 18 19  2  0  0  0  0
 20 18  1  0  0  0  0
 21 22  1  6  0  0  0
 23 21  1  0  0  0  0
 24 27  1  0  0  0  0
 24 26  1  0  0  0  0
 25 26  1  0  0  0  0
 26 23  1  0  0  0  0
 28 24  2  0  0  0  0
M  END
>  <MODEL>
9

>  <REMARK>
 VINA RESULT:      -5.9      4.003      8.200
  Name = 
  4 active torsions:
  status: ('A' for Active; 'I' for Inactive)
    1  A    between atoms: C_1  and  C_2
    2  A    between atoms: C_2  and  C_3
    3  A    between atoms: C_3  and  N_11
    4  A    between atoms: N_16  and  C_27
                            x       y       z     vdW  Elec       q    Type
                         _______ _______ _______ _____ _____    ______ ____

>  <TORSDO>
F 4

$$$$
