=
 OpenBabel11062408073D

 34 37  0  0  1  0  0  0  0  0999 V2000
  161.2610  209.3800  151.6570 C   0  0  2  0  0  3  0  0  0  0  0  0
  158.8780  211.2610  152.6870 C   0  0  2  0  0  3  0  0  0  0  0  0
  160.6900  211.0480  154.6430 C   0  0  0  0  0  0  0  0  0  0  0  0
  161.5030  210.6530  152.4850 C   0  0  2  0  0  3  0  0  0  0  0  0
  159.4220  213.3420  153.8140 O   0  0  0  0  0  1  0  0  0  0  0  0
  159.9910  211.2540  155.6710 O   0  0  0  0  0  0  0  0  0  0  0  0
  162.5450  210.4210  153.4360 O   0  0  0  0  0  0  0  0  0  0  0  0
  160.2820  211.1350  153.2550 C   0  0  1  0  0  0  0  0  0  0  0  0
  159.7960  212.4930  152.7650 C   0  0  1  0  0  3  0  0  0  0  0  0
  157.9270  211.2530  153.7120 O   0  0  0  0  0  1  0  0  0  0  0  0
  161.9970  210.6330  154.6580 O   0  0  0  0  0  0  0  0  0  0  0  0
  161.1210  205.9710  153.1750 C   0  0  0  0  0  2  0  0  0  0  0  0
  162.2590  205.7990  152.2790 N   0  0  0  0  0  0  0  0  0  0  0  0
  161.8310  208.1290  152.3500 C   0  0  2  0  0  3  0  0  0  0  0  0
  162.2780  206.9970  151.4240 C   0  0  2  0  0  3  0  0  0  0  0  0
  160.8490  207.4650  153.2970 C   0  0  2  0  0  3  0  0  0  0  0  0
  161.1000  207.8790  154.6040 O   0  0  0  0  0  1  0  0  0  0  0  0
  161.8880  206.5720  149.0970 O   0  0  0  0  0  0  0  0  0  0  0  0
  161.4120  206.8760  150.1790 C   0  0  0  0  0  3  0  0  0  0  0  0
  162.1030  204.5440  151.5460 C   0  0  0  0  0  2  0  0  0  0  0  0
  160.8660  203.8050  152.0250 C   0  0  0  0  0  2  0  0  0  0  0  0
  160.9440  202.4570  151.6720 O   0  0  0  0  0  1  0  0  0  0  0  0
  161.8130  209.5120  150.3120 N   0  0  0  0  0  2  0  0  0  0  0  0
  161.9370  210.9310  150.0250 C   0  0  0  0  0  2  0  0  0  0  0  0
  162.0700  211.1390  148.5310 C   0  0  0  0  0  2  0  0  0  0  0  0
  162.1230  212.9150  148.1680 S   0  0  0  0  0  0  0  0  0  0  0  0
  160.9690  212.7470  146.7730 C   0  0  0  0  0  2  0  0  0  0  0  0
  163.1850  213.3010  144.0360 C   0  0  0  0  0  1  0  0  0  0  0  0
  161.3650  213.6900  145.6450 C   0  0  1  0  0  3  0  0  0  0  0  0
  161.7870  212.8910  144.4510 C   0  0  1  0  0  3  0  0  0  0  0  0
  160.3800  211.9880  142.8230 C   0  0  0  0  0  1  0  0  0  0  0  0
  159.7440  213.8280  144.0370 N   0  0  0  0  0  2  0  0  0  0  0  0
  160.2110  214.4530  145.2080 N   0  0  0  0  0  2  0  0  0  0  0  0
  160.8500  213.2350  143.4000 N   0  0  0  0  0  0  0  0  0  0  0  0
  1 23  1  6  0  0  0
  2  9  1  0  0  0  0
  2  8  1  0  0  0  0
  2 10  1  1  0  0  0
  3 11  1  0  0  0  0
  3  6  2  0  0  0  0
  4  1  1  1  0  0  0
  4  8  1  0  0  0  0
  4  7  1  0  0  0  0
  7 11  1  0  0  0  0
  8  3  1  1  0  0  0
  9  8  1  0  0  0  0
  9  5  1  1  0  0  0
 12 16  1  0  0  0  0
 13 12  1  0  0  0  0
 14  1  1  6  0  0  0
 14 16  1  0  0  0  0
 15 19  1  6  0  0  0
 15 13  1  0  0  0  0
 15 14  1  0  0  0  0
 16 17  1  1  0  0  0
 18 19  2  0  0  0  0
 20 21  1  0  0  0  0
 20 13  1  0  0  0  0
 22 21  1  0  0  0  0
 24 23  1  0  0  0  0
 25 24  1  0  0  0  0
 26 25  1  0  0  0  0
 27 26  1  0  0  0  0
 29 27  1  1  0  0  0
 30 28  1  6  0  0  0
 30 29  1  0  0  0  0
 31 34  1  0  0  0  0
 32 33  1  0  0  0  0
 33 29  1  0  0  0  0
 34 32  1  0  0  0  0
 34 30  1  0  0  0  0
M  END
>  <MODEL>
1

>  <REMARK>
 VINA RESULT:      -5.9      0.000      0.000
  Name = 
  11 active torsions:
  status: ('A' for Active; 'I' for Inactive)
    1  A    between atoms: C_3  and  C_13
    2  A    between atoms: C_3  and  S_17
    3  A    between atoms: C_4  and  C_31
    4  A    between atoms: N_5  and  C_18
    5  A    between atoms: N_5  and  C_31
    6  A    between atoms: N_8  and  C_27
    7  A    between atoms: C_12  and  C_27
    8  A    between atoms: S_17  and  C_29
    9  A    between atoms: C_18  and  C_29
   10  A    between atoms: C_21  and  C_31
   11  A    between atoms: C_26  and  C_28
                            x       y       z     vdW  Elec       q    Type
                         _______ _______ _______ _____ _____    ______ ____

>  <TORSDO>
F 11

$$$$
=
 OpenBabel11062408073D

 34 37  0  0  1  0  0  0  0  0999 V2000
  160.0460  211.1620  153.5000 C   0  0  2  0  0  3  0  0  0  0  0  0
  160.3910  208.2590  154.8190 C   0  0  2  0  0  3  0  0  0  0  0  0
  161.8150  210.0130  156.2520 C   0  0  0  0  0  0  0  0  0  0  0  0
  160.0520  210.9330  155.0210 C   0  0  2  0  0  3  0  0  0  0  0  0
  160.1820  208.0270  157.2270 O   0  0  0  0  0  1  0  0  0  0  0  0
  162.7040  209.2760  156.7590 O   0  0  0  0  0  0  0  0  0  0  0  0
  160.7800  211.9810  155.6650 O   0  0  0  0  0  0  0  0  0  0  0  0
  160.6770  209.6130  155.4480 C   0  0  1  0  0  0  0  0  0  0  0  0
  159.6630  208.6850  156.1060 C   0  0  1  0  0  3  0  0  0  0  0  0
  161.4310  207.3630  155.0800 O   0  0  0  0  0  1  0  0  0  0  0  0
  161.8010  211.3820  156.3260 O   0  0  0  0  0  0  0  0  0  0  0  0
  157.0980  213.4240  153.1410 C   0  0  0  0  0  2  0  0  0  0  0  0
  157.3430  213.1080  151.7380 N   0  0  0  0  0  0  0  0  0  0  0  0
  158.6580  211.5840  152.9890 C   0  0  2  0  0  3  0  0  0  0  0  0
  158.6410  212.4160  151.7070 C   0  0  2  0  0  3  0  0  0  0  0  0
  157.8800  212.4250  153.9840 C   0  0  2  0  0  3  0  0  0  0  0  0
  156.9920  211.6170  154.6930 O   0  0  0  0  0  1  0  0  0  0  0  0
  160.4650  213.4660  150.5570 O   0  0  0  0  0  0  0  0  0  0  0  0
  159.8340  213.3540  151.5960 C   0  0  0  0  0  3  0  0  0  0  0  0
  157.3050  214.3430  150.9580 C   0  0  0  0  0  2  0  0  0  0  0  0
  156.2660  214.2380  149.8550 C   0  0  0  0  0  2  0  0  0  0  0  0
  156.7080  213.3650  148.8600 O   0  0  0  0  0  1  0  0  0  0  0  0
  160.5120  209.9770  152.7860 N   0  0  0  0  0  2  0  0  0  0  0  0
  161.8120  210.2890  152.2150 C   0  0  0  0  0  2  0  0  0  0  0  0
  161.9380  209.6410  150.8520 C   0  0  0  0  0  2  0  0  0  0  0  0
  162.0390  207.8410  151.0440 S   0  0  0  0  0  0  0  0  0  0  0  0
  162.2090  207.5780  149.2530 C   0  0  0  0  0  2  0  0  0  0  0  0
  160.5090  206.4880  146.3150 C   0  0  0  0  0  1  0  0  0  0  0  0
  160.9610  206.9050  148.6970 C   0  0  1  0  0  3  0  0  0  0  0  0
  161.3310  206.0650  147.5150 C   0  0  1  0  0  3  0  0  0  0  0  0
  162.1430  203.8780  147.5700 C   0  0  0  0  0  1  0  0  0  0  0  0
  160.8500  204.6960  149.2800 N   0  0  0  0  0  2  0  0  0  0  0  0
  160.4220  205.9770  149.6730 N   0  0  0  0  0  2  0  0  0  0  0  0
  160.9900  204.7040  147.8800 N   0  0  0  0  0  0  0  0  0  0  0  0
  1 23  1  6  0  0  0
  2 10  1  1  0  0  0
  2  8  1  0  0  0  0
  2  9  1  0  0  0  0
  3 11  1  0  0  0  0
  3  6  2  0  0  0  0
  4  1  1  6  0  0  0
  4  8  1  0  0  0  0
  4  7  1  0  0  0  0
  7 11  1  0  0  0  0
  8  9  1  0  0  0  0
  8  3  1  1  0  0  0
  9  5  1  1  0  0  0
 12 16  1  0  0  0  0
 13 12  1  0  0  0  0
 14  1  1  1  0  0  0
 14 16  1  0  0  0  0
 15 19  1  1  0  0  0
 15 13  1  0  0  0  0
 15 14  1  0  0  0  0
 16 17  1  6  0  0  0
 18 19  2  0  0  0  0
 20 13  1  0  0  0  0
 21 20  1  0  0  0  0
 22 21  1  0  0  0  0
 24 23  1  0  0  0  0
 25 26  1  0  0  0  0
 25 24  1  0  0  0  0
 27 26  1  0  0  0  0
 29 27  1  1  0  0  0
 29 33  1  0  0  0  0
 30 28  1  6  0  0  0
 30 34  1  0  0  0  0
 30 29  1  0  0  0  0
 31 34  1  0  0  0  0
 32 33  1  0  0  0  0
 34 32  1  0  0  0  0
M  END
>  <MODEL>
2

>  <REMARK>
 VINA RESULT:      -5.9      4.311      6.841
  Name = 
  11 active torsions:
  status: ('A' for Active; 'I' for Inactive)
    1  A    between atoms: C_3  and  C_13
    2  A    between atoms: C_3  and  S_17
    3  A    between atoms: C_4  and  C_31
    4  A    between atoms: N_5  and  C_18
    5  A    between atoms: N_5  and  C_31
    6  A    between atoms: N_8  and  C_27
    7  A    between atoms: C_12  and  C_27
    8  A    between atoms: S_17  and  C_29
    9  A    between atoms: C_18  and  C_29
   10  A    between atoms: C_21  and  C_31
   11  A    between atoms: C_26  and  C_28
                            x       y       z     vdW  Elec       q    Type
                         _______ _______ _______ _____ _____    ______ ____

>  <TORSDO>
F 11

$$$$
=
 OpenBabel11062408073D

 34 37  0  0  1  0  0  0  0  0999 V2000
  160.9980  206.8800  150.9720 C   0  0  2  0  0  3  0  0  0  0  0  0
  160.1940  209.6370  152.3990 C   0  0  2  0  0  3  0  0  0  0  0  0
  160.9550  207.9000  154.2860 C   0  0  0  0  0  0  0  0  0  0  0  0
  161.7960  207.4750  152.1450 C   0  0  2  0  0  3  0  0  0  0  0  0
  161.6600  210.5510  154.1060 O   0  0  0  0  0  1  0  0  0  0  0  0
  160.3350  208.3240  155.2980 O   0  0  0  0  0  0  0  0  0  0  0  0
  162.2030  206.4310  153.0310 O   0  0  0  0  0  0  0  0  0  0  0  0
  161.0230  208.4970  152.9670 C   0  0  1  0  0  0  0  0  0  0  0  0
  161.6370  209.8890  152.8730 C   0  0  1  0  0  3  0  0  0  0  0  0
  159.2540  210.0780  153.3340 O   0  0  0  0  0  1  0  0  0  0  0  0
  161.6550  206.7210  154.2360 O   0  0  0  0  0  0  0  0  0  0  0  0
  160.6210  203.2700  150.0990 C   0  0  0  0  0  2  0  0  0  0  0  0
  161.5290  203.6900  149.0370 N   0  0  0  0  0  0  0  0  0  0  0  0
  161.4880  205.4690  150.6030 C   0  0  2  0  0  3  0  0  0  0  0  0
  161.5700  205.1600  149.1080 C   0  0  2  0  0  3  0  0  0  0  0  0
  160.6120  204.3620  151.1600 C   0  0  2  0  0  3  0  0  0  0  0  0
  161.1670  203.8700  152.3410 O   0  0  0  0  0  1  0  0  0  0  0  0
  160.6720  206.2340  147.1620 O   0  0  0  0  0  0  0  0  0  0  0  0
  160.4760  205.8440  148.3020 C   0  0  0  0  0  3  0  0  0  0  0  0
  161.0440  203.1660  147.7620 C   0  0  0  0  0  2  0  0  0  0  0  0
  160.5550  201.7380  147.9310 C   0  0  0  0  0  2  0  0  0  0  0  0
  160.9880  200.9520  146.8620 O   0  0  0  0  0  1  0  0  0  0  0  0
  161.0440  207.7560  149.8050 N   0  0  0  0  0  2  0  0  0  0  0  0
  162.3030  208.4800  149.8460 C   0  0  0  0  0  2  0  0  0  0  0  0
  162.3400  209.5020  148.7290 C   0  0  0  0  0  2  0  0  0  0  0  0
  161.9860  211.1480  149.4020 S   0  0  0  0  0  0  0  0  0  0  0  0
  162.7860  211.9830  147.9990 C   0  0  0  0  0  2  0  0  0  0  0  0
  162.1790  214.4530  145.5020 C   0  0  0  0  0  1  0  0  0  0  0  0
  162.0370  213.2620  147.6500 C   0  0  1  0  0  3  0  0  0  0  0  0
  161.6360  213.2280  146.2080 C   0  0  1  0  0  3  0  0  0  0  0  0
  159.7320  212.2070  145.3250 C   0  0  0  0  0  1  0  0  0  0  0  0
  159.7800  212.9200  147.5050 N   0  0  0  0  0  2  0  0  0  0  0  0
  160.7930  213.3270  148.3930 N   0  0  0  0  0  2  0  0  0  0  0  0
  160.1870  213.2690  146.2040 N   0  0  0  0  0  0  0  0  0  0  0  0
  1 23  1  6  0  0  0
  2  9  1  0  0  0  0
  2  8  1  0  0  0  0
  2 10  1  1  0  0  0
  3  6  2  0  0  0  0
  4  1  1  6  0  0  0
  4  8  1  0  0  0  0
  4  7  1  0  0  0  0
  7 11  1  0  0  0  0
  8  3  1  1  0  0  0
  9  8  1  0  0  0  0
  9  5  1  1  0  0  0
 11  3  1  0  0  0  0
 12 16  1  0  0  0  0
 13 15  1  0  0  0  0
 13 12  1  0  0  0  0
 14  1  1  6  0  0  0
 14 16  1  0  0  0  0
 15 19  1  6  0  0  0
 15 14  1  0  0  0  0
 16 17  1  1  0  0  0
 18 19  2  0  0  0  0
 20 21  1  0  0  0  0
 20 13  1  0  0  0  0
 22 21  1  0  0  0  0
 23 24  1  0  0  0  0
 25 26  1  0  0  0  0
 25 24  1  0  0  0  0
 27 26  1  0  0  0  0
 29 27  1  1  0  0  0
 29 33  1  0  0  0  0
 30 28  1  6  0  0  0
 30 29  1  0  0  0  0
 31 34  1  0  0  0  0
 32 33  1  0  0  0  0
 34 30  1  0  0  0  0
 34 32  1  0  0  0  0
M  END
>  <MODEL>
3

>  <REMARK>
 VINA RESULT:      -5.9      2.230      3.178
  Name = 
  11 active torsions:
  status: ('A' for Active; 'I' for Inactive)
    1  A    between atoms: C_3  and  C_13
    2  A    between atoms: C_3  and  S_17
    3  A    between atoms: C_4  and  C_31
    4  A    between atoms: N_5  and  C_18
    5  A    between atoms: N_5  and  C_31
    6  A    between atoms: N_8  and  C_27
    7  A    between atoms: C_12  and  C_27
    8  A    between atoms: S_17  and  C_29
    9  A    between atoms: C_18  and  C_29
   10  A    between atoms: C_21  and  C_31
   11  A    between atoms: C_26  and  C_28
                            x       y       z     vdW  Elec       q    Type
                         _______ _______ _______ _____ _____    ______ ____

>  <TORSDO>
F 11

$$$$
=
 OpenBabel11062408073D

 34 37  0  0  1  0  0  0  0  0999 V2000
  161.2970  206.8280  150.1050 C   0  0  2  0  0  3  0  0  0  0  0  0
  162.3410  206.1780  147.1430 C   0  0  2  0  0  3  0  0  0  0  0  0
  161.2710  203.9510  148.1690 C   0  0  0  0  0  0  0  0  0  0  0  0
  160.5100  205.9490  149.1180 C   0  0  2  0  0  3  0  0  0  0  0  0
  160.8990  204.9400  145.6310 O   0  0  0  0  0  1  0  0  0  0  0  0
  161.8790  203.0500  147.5300 O   0  0  0  0  0  0  0  0  0  0  0  0
  159.9310  204.8420  149.8120 O   0  0  0  0  0  0  0  0  0  0  0  0
  161.3500  205.3860  147.9810 C   0  0  1  0  0  0  0  0  0  0  0  0
  160.9140  205.9260  146.6250 C   0  0  1  0  0  3  0  0  0  0  0  0
  163.2720  205.3270  146.5420 O   0  0  0  0  0  1  0  0  0  0  0  0
  160.4400  203.7250  149.2360 O   0  0  0  0  0  0  0  0  0  0  0  0
  161.9750  206.1510  153.7130 C   0  0  0  0  0  2  0  0  0  0  0  0
  160.9550  207.1860  153.8410 N   0  0  0  0  0  0  0  0  0  0  0  0
  160.9280  206.5200  151.5670 C   0  0  2  0  0  3  0  0  0  0  0  0
  160.7700  207.7310  152.4860 C   0  0  2  0  0  3  0  0  0  0  0  0
  161.9490  205.6490  152.2760 C   0  0  2  0  0  3  0  0  0  0  0  0
  161.5330  204.3190  152.2530 O   0  0  0  0  0  1  0  0  0  0  0  0
  161.4460  210.0280  152.3670 O   0  0  0  0  0  0  0  0  0  0  0  0
  161.7280  208.8620  152.1420 C   0  0  0  0  0  3  0  0  0  0  0  0
  161.3980  208.1720  154.8250 C   0  0  0  0  0  2  0  0  0  0  0  0
  160.3170  208.3960  155.8690 C   0  0  0  0  0  2  0  0  0  0  0  0
  159.5380  207.2460  156.0070 O   0  0  0  0  0  1  0  0  0  0  0  0
  161.1020  208.2460  149.8190 N   0  0  0  0  0  2  0  0  0  0  0  0
  162.2660  208.7110  149.0830 C   0  0  0  0  0  2  0  0  0  0  0  0
  161.8920  209.9170  148.2480 C   0  0  0  0  0  2  0  0  0  0  0  0
  162.0900  211.4240  149.2380 S   0  0  0  0  0  0  0  0  0  0  0  0
  163.0120  212.2680  147.9180 C   0  0  0  0  0  2  0  0  0  0  0  0
  162.2960  214.4530  145.1930 C   0  0  0  0  0  1  0  0  0  0  0  0
  162.2650  213.5170  147.4690 C   0  0  1  0  0  3  0  0  0  0  0  0
  161.7770  213.3290  146.0660 C   0  0  1  0  0  3  0  0  0  0  0  0
  159.8060  212.2600  145.4190 C   0  0  0  0  0  1  0  0  0  0  0  0
  159.9980  213.2140  147.4970 N   0  0  0  0  0  2  0  0  0  0  0  0
  161.0700  213.6960  148.2710 N   0  0  0  0  0  2  0  0  0  0  0  0
  160.3310  213.4040  146.1430 N   0  0  0  0  0  0  0  0  0  0  0  0
  1 23  1  6  0  0  0
  2 10  1  6  0  0  0
  2  8  1  0  0  0  0
  3 11  1  0  0  0  0
  4  7  1  0  0  0  0
  4  1  1  1  0  0  0
  6  3  2  0  0  0  0
  8  3  1  1  0  0  0
  8  4  1  0  0  0  0
  9  5  1  6  0  0  0
  9  2  1  0  0  0  0
  9  8  1  0  0  0  0
 11  7  1  0  0  0  0
 12 13  1  0  0  0  0
 13 20  1  0  0  0  0
 14  1  1  6  0  0  0
 14 16  1  0  0  0  0
 14 15  1  0  0  0  0
 15 19  1  6  0  0  0
 15 13  1  0  0  0  0
 16 17  1  1  0  0  0
 16 12  1  0  0  0  0
 19 18  2  0  0  0  0
 20 21  1  0  0  0  0
 21 22  1  0  0  0  0
 24 23  1  0  0  0  0
 25 24  1  0  0  0  0
 25 26  1  0  0  0  0
 27 26  1  0  0  0  0
 29 27  1  1  0  0  0
 29 33  1  0  0  0  0
 30 28  1  6  0  0  0
 30 34  1  0  0  0  0
 30 29  1  0  0  0  0
 31 34  1  0  0  0  0
 32 33  1  0  0  0  0
 34 32  1  0  0  0  0
M  END
>  <MODEL>
4

>  <REMARK>
 VINA RESULT:      -5.8      2.323      5.721
  Name = 
  11 active torsions:
  status: ('A' for Active; 'I' for Inactive)
    1  A    between atoms: C_3  and  C_13
    2  A    between atoms: C_3  and  S_17
    3  A    between atoms: C_4  and  C_31
    4  A    between atoms: N_5  and  C_18
    5  A    between atoms: N_5  and  C_31
    6  A    between atoms: N_8  and  C_27
    7  A    between atoms: C_12  and  C_27
    8  A    between atoms: S_17  and  C_29
    9  A    between atoms: C_18  and  C_29
   10  A    between atoms: C_21  and  C_31
   11  A    between atoms: C_26  and  C_28
                            x       y       z     vdW  Elec       q    Type
                         _______ _______ _______ _____ _____    ______ ____

>  <TORSDO>
F 11

$$$$
=
 OpenBabel11062408073D

 34 37  0  0  1  0  0  0  0  0999 V2000
  161.1420  209.2340  151.7090 C   0  0  2  0  0  3  0  0  0  0  0  0
  158.8650  211.1940  152.8280 C   0  0  2  0  0  3  0  0  0  0  0  0
  160.7880  210.9930  154.6770 C   0  0  0  0  0  0  0  0  0  0  0  0
  161.4600  210.5230  152.4860 C   0  0  2  0  0  3  0  0  0  0  0  0
  159.5190  213.2920  153.8620 O   0  0  0  0  0  1  0  0  0  0  0  0
  160.1570  211.2410  155.7390 O   0  0  0  0  0  0  0  0  0  0  0  0
  162.5520  210.2930  153.3780 O   0  0  0  0  0  0  0  0  0  0  0  0
  160.2980  211.0520  153.3140 C   0  0  1  0  0  0  0  0  0  0  0  0
  159.8110  212.4080  152.8160 C   0  0  1  0  0  3  0  0  0  0  0  0
  157.9780  211.2350  153.9080 O   0  0  0  0  0  1  0  0  0  0  0  0
  162.0850  210.5490  154.6240 O   0  0  0  0  0  0  0  0  0  0  0  0
  161.1340  205.8040  153.1850 C   0  0  0  0  0  2  0  0  0  0  0  0
  162.2660  205.6810  152.2720 N   0  0  0  0  0  0  0  0  0  0  0  0
  161.7620  207.9940  152.3780 C   0  0  2  0  0  3  0  0  0  0  0  0
  162.2330  206.8890  151.4320 C   0  0  2  0  0  3  0  0  0  0  0  0
  160.8150  207.2860  153.3300 C   0  0  2  0  0  3  0  0  0  0  0  0
  161.0700  207.6920  154.6390 O   0  0  0  0  0  1  0  0  0  0  0  0
  161.7670  206.2300  149.1750 O   0  0  0  0  0  0  0  0  0  0  0  0
  161.3550  206.7550  150.1970 C   0  0  0  0  0  3  0  0  0  0  0  0
  162.1410  204.4310  151.5250 C   0  0  0  0  0  2  0  0  0  0  0  0
  160.9540  203.6300  152.0330 C   0  0  0  0  0  2  0  0  0  0  0  0
  160.1940  203.1650  150.9590 O   0  0  0  0  0  1  0  0  0  0  0  0
  161.5790  209.3330  150.3200 N   0  0  0  0  0  2  0  0  0  0  0  0
  161.9190  210.7230  150.0640 C   0  0  0  0  0  2  0  0  0  0  0  0
  162.2260  210.9090  148.5930 C   0  0  0  0  0  2  0  0  0  0  0  0
  161.9480  212.6400  148.1300 S   0  0  0  0  0  0  0  0  0  0  0  0
  160.4620  212.2280  147.1670 C   0  0  0  0  0  2  0  0  0  0  0  0
  157.3810  213.5100  145.9100 C   0  0  0  0  0  1  0  0  0  0  0  0
  159.6060  213.4710  146.9590 C   0  0  1  0  0  3  0  0  0  0  0  0
  158.1630  213.1210  147.1480 C   0  0  1  0  0  3  0  0  0  0  0  0
  157.0180  213.0170  149.1790 C   0  0  0  0  0  1  0  0  0  0  0  0
  158.8740  214.3460  148.9420 N   0  0  0  0  0  2  0  0  0  0  0  0
  159.9010  214.4530  147.9860 N   0  0  0  0  0  2  0  0  0  0  0  0
  157.7120  213.9160  148.2740 N   0  0  0  0  0  0  0  0  0  0  0  0
  1 23  1  6  0  0  0
  2  8  1  0  0  0  0
  2 10  1  1  0  0  0
  3  6  2  0  0  0  0
  4  1  1  1  0  0  0
  4  8  1  0  0  0  0
  4  7  1  0  0  0  0
  7 11  1  0  0  0  0
  8  3  1  1  0  0  0
  9  2  1  0  0  0  0
  9  8  1  0  0  0  0
  9  5  1  1  0  0  0
 11  3  1  0  0  0  0
 12 16  1  0  0  0  0
 13 12  1  0  0  0  0
 14  1  1  6  0  0  0
 14 16  1  0  0  0  0
 15 19  1  6  0  0  0
 15 13  1  0  0  0  0
 15 14  1  0  0  0  0
 16 17  1  1  0  0  0
 18 19  2  0  0  0  0
 20 21  1  0  0  0  0
 20 13  1  0  0  0  0
 22 21  1  0  0  0  0
 24 23  1  0  0  0  0
 25 24  1  0  0  0  0
 26 25  1  0  0  0  0
 27 26  1  0  0  0  0
 29 30  1  0  0  0  0
 29 27  1  1  0  0  0
 29 33  1  0  0  0  0
 30 28  1  6  0  0  0
 30 34  1  0  0  0  0
 33 32  1  0  0  0  0
 34 32  1  0  0  0  0
 34 31  1  0  0  0  0
M  END
>  <MODEL>
5

>  <REMARK>
 VINA RESULT:      -5.8      1.733      2.336
  Name = 
  11 active torsions:
  status: ('A' for Active; 'I' for Inactive)
    1  A    between atoms: C_3  and  C_13
    2  A    between atoms: C_3  and  S_17
    3  A    between atoms: C_4  and  C_31
    4  A    between atoms: N_5  and  C_18
    5  A    between atoms: N_5  and  C_31
    6  A    between atoms: N_8  and  C_27
    7  A    between atoms: C_12  and  C_27
    8  A    between atoms: S_17  and  C_29
    9  A    between atoms: C_18  and  C_29
   10  A    between atoms: C_21  and  C_31
   11  A    between atoms: C_26  and  C_28
                            x       y       z     vdW  Elec       q    Type
                         _______ _______ _______ _____ _____    ______ ____

>  <TORSDO>
F 11

$$$$
=
 OpenBabel11062408073D

 34 37  0  0  1  0  0  0  0  0999 V2000
  161.2090  208.9620  151.7780 C   0  0  2  0  0  3  0  0  0  0  0  0
  162.1850  209.6410  154.7560 C   0  0  2  0  0  3  0  0  0  0  0  0
  160.2180  211.3340  154.1050 C   0  0  0  0  0  0  0  0  0  0  0  0
  160.2350  209.3220  152.9120 C   0  0  2  0  0  3  0  0  0  0  0  0
  160.5200  209.9980  156.4880 O   0  0  0  0  0  1  0  0  0  0  0  0
  160.4720  212.3260  154.8410 O   0  0  0  0  0  0  0  0  0  0  0  0
  159.1970  210.1640  152.4080 O   0  0  0  0  0  0  0  0  0  0  0  0
  160.8840  210.0470  154.0820 C   0  0  1  0  0  0  0  0  0  0  0  0
  160.8340  209.2250  155.3640 C   0  0  1  0  0  3  0  0  0  0  0  0
  162.7490  210.7260  155.4340 O   0  0  0  0  0  1  0  0  0  0  0  0
  159.2680  211.3190  153.1160 O   0  0  0  0  0  0  0  0  0  0  0  0
  160.8820  205.2550  152.0740 C   0  0  0  0  0  2  0  0  0  0  0  0
  161.8430  205.3340  150.9790 N   0  0  0  0  0  0  0  0  0  0  0  0
  161.7190  207.5150  151.8980 C   0  0  2  0  0  3  0  0  0  0  0  0
  161.8790  206.7510  150.5830 C   0  0  2  0  0  3  0  0  0  0  0  0
  160.8170  206.6260  152.7340 C   0  0  2  0  0  3  0  0  0  0  0  0
  161.3100  206.5410  154.0350 O   0  0  0  0  0  1  0  0  0  0  0  0
  161.1320  207.4050  148.4010 O   0  0  0  0  0  0  0  0  0  0  0  0
  160.8270  207.1270  149.5500 C   0  0  0  0  0  3  0  0  0  0  0  0
  161.4250  204.4260  149.9130 C   0  0  0  0  0  2  0  0  0  0  0  0
  160.5030  203.3530  150.4650 C   0  0  0  0  0  2  0  0  0  0  0  0
  161.1820  202.1380  150.5610 O   0  0  0  0  0  1  0  0  0  0  0  0
  162.3310  209.8940  151.7300 N   0  0  0  0  0  2  0  0  0  0  0  0
  161.9600  210.9860  150.8460 C   0  0  0  0  0  2  0  0  0  0  0  0
  161.9620  210.5030  149.4110 C   0  0  0  0  0  2  0  0  0  0  0  0
  162.5040  211.8460  148.3200 S   0  0  0  0  0  0  0  0  0  0  0  0
  160.8340  212.0810  147.6430 C   0  0  0  0  0  2  0  0  0  0  0  0
  158.1940  214.4340  147.1840 C   0  0  0  0  0  1  0  0  0  0  0  0
  160.3920  213.5280  147.8190 C   0  0  1  0  0  3  0  0  0  0  0  0
  158.9390  213.5670  148.1780 C   0  0  1  0  0  3  0  0  0  0  0  0
  158.0340  213.3270  150.3160 C   0  0  0  0  0  1  0  0  0  0  0  0
  160.1770  214.0950  150.0250 N   0  0  0  0  0  2  0  0  0  0  0  0
  161.0820  214.1230  148.9480 N   0  0  0  0  0  2  0  0  0  0  0  0
  158.8770  214.1750  149.4920 N   0  0  0  0  0  0  0  0  0  0  0  0
  1 23  1  1  0  0  0
  2  9  1  0  0  0  0
  2 10  1  1  0  0  0
  3  6  2  0  0  0  0
  4  1  1  6  0  0  0
  4  8  1  0  0  0  0
  7  4  1  0  0  0  0
  7 11  1  0  0  0  0
  8  3  1  1  0  0  0
  8  2  1  0  0  0  0
  8  9  1  0  0  0  0
  9  5  1  1  0  0  0
 11  3  1  0  0  0  0
 12 16  1  0  0  0  0
 13 12  1  0  0  0  0
 14  1  1  6  0  0  0
 14 16  1  0  0  0  0
 15 19  1  6  0  0  0
 15 13  1  0  0  0  0
 15 14  1  0  0  0  0
 16 17  1  1  0  0  0
 18 19  2  0  0  0  0
 20 21  1  0  0  0  0
 20 13  1  0  0  0  0
 21 22  1  0  0  0  0
 24 23  1  0  0  0  0
 25 24  1  0  0  0  0
 26 25  1  0  0  0  0
 27 26  1  0  0  0  0
 29 27  1  1  0  0  0
 29 30  1  0  0  0  0
 29 33  1  0  0  0  0
 30 28  1  6  0  0  0
 30 34  1  0  0  0  0
 33 32  1  0  0  0  0
 34 32  1  0  0  0  0
 34 31  1  0  0  0  0
M  END
>  <MODEL>
6

>  <REMARK>
 VINA RESULT:      -5.5      2.300      3.252
  Name = 
  11 active torsions:
  status: ('A' for Active; 'I' for Inactive)
    1  A    between atoms: C_3  and  C_13
    2  A    between atoms: C_3  and  S_17
    3  A    between atoms: C_4  and  C_31
    4  A    between atoms: N_5  and  C_18
    5  A    between atoms: N_5  and  C_31
    6  A    between atoms: N_8  and  C_27
    7  A    between atoms: C_12  and  C_27
    8  A    between atoms: S_17  and  C_29
    9  A    between atoms: C_18  and  C_29
   10  A    between atoms: C_21  and  C_31
   11  A    between atoms: C_26  and  C_28
                            x       y       z     vdW  Elec       q    Type
                         _______ _______ _______ _____ _____    ______ ____

>  <TORSDO>
F 11

$$$$
=
 OpenBabel11062408073D

 34 37  0  0  1  0  0  0  0  0999 V2000
  161.0980  208.9890  152.0990 C   0  0  2  0  0  3  0  0  0  0  0  0
  162.2340  209.9140  154.9520 C   0  0  2  0  0  3  0  0  0  0  0  0
  160.1800  211.5010  154.3060 C   0  0  0  0  0  0  0  0  0  0  0  0
  160.1850  209.4070  153.2640 C   0  0  2  0  0  3  0  0  0  0  0  0
  160.6680  210.3540  156.7560 O   0  0  0  0  0  1  0  0  0  0  0  0
  160.4470  212.5510  154.9500 O   0  0  0  0  0  0  0  0  0  0  0  0
  159.0920  210.1820  152.7670 O   0  0  0  0  0  0  0  0  0  0  0  0
  160.8820  210.2340  154.3340 C   0  0  1  0  0  0  0  0  0  0  0  0
  160.9360  209.5080  155.6730 C   0  0  1  0  0  3  0  0  0  0  0  0
  162.8050  211.0600  155.5120 O   0  0  0  0  0  1  0  0  0  0  0  0
  159.1710  211.3870  153.3830 O   0  0  0  0  0  0  0  0  0  0  0  0
  160.9790  205.2950  152.6210 C   0  0  0  0  0  2  0  0  0  0  0  0
  161.9400  205.3610  151.5260 N   0  0  0  0  0  0  0  0  0  0  0  0
  161.6880  207.5840  152.3090 C   0  0  2  0  0  3  0  0  0  0  0  0
  161.8990  206.7510  151.0440 C   0  0  2  0  0  3  0  0  0  0  0  0
  160.8320  206.6980  153.1950 C   0  0  2  0  0  3  0  0  0  0  0  0
  161.3230  206.7210  154.5000 O   0  0  0  0  0  1  0  0  0  0  0  0
  161.1290  207.3240  148.8470 O   0  0  0  0  0  0  0  0  0  0  0  0
  160.8330  207.0030  149.9870 C   0  0  0  0  0  3  0  0  0  0  0  0
  161.5800  204.3680  150.5160 C   0  0  0  0  0  2  0  0  0  0  0  0
  160.9910  203.1340  151.1780 C   0  0  0  0  0  2  0  0  0  0  0  0
  160.4400  202.2890  150.2140 O   0  0  0  0  0  1  0  0  0  0  0  0
  162.1660  209.9630  151.8900 N   0  0  0  0  0  2  0  0  0  0  0  0
  161.7530  210.8450  150.8120 C   0  0  0  0  0  2  0  0  0  0  0  0
  162.3310  210.3540  149.5020 C   0  0  0  0  0  2  0  0  0  0  0  0
  162.6600  211.7680  148.4160 S   0  0  0  0  0  0  0  0  0  0  0  0
  161.2020  212.6730  149.0170 C   0  0  0  0  0  2  0  0  0  0  0  0
  162.1000  214.3820  146.0200 C   0  0  0  0  0  1  0  0  0  0  0  0
  160.8660  213.8190  148.0720 C   0  0  1  0  0  3  0  0  0  0  0  0
  161.1420  213.4010  146.6620 C   0  0  1  0  0  3  0  0  0  0  0  0
  159.7040  212.2020  145.2670 C   0  0  0  0  0  1  0  0  0  0  0  0
  158.8810  213.4780  146.9880 N   0  0  0  0  0  2  0  0  0  0  0  0
  159.4430  214.0980  148.1190 N   0  0  0  0  0  2  0  0  0  0  0  0
  159.8630  213.4570  145.9800 N   0  0  0  0  0  0  0  0  0  0  0  0
  1 23  1  1  0  0  0
  2 10  1  1  0  0  0
  2  9  1  0  0  0  0
  3  6  2  0  0  0  0
  4  1  1  6  0  0  0
  4  8  1  0  0  0  0
  7  4  1  0  0  0  0
  7 11  1  0  0  0  0
  8  3  1  1  0  0  0
  8  2  1  0  0  0  0
  8  9  1  0  0  0  0
  9  5  1  1  0  0  0
 11  3  1  0  0  0  0
 12 16  1  0  0  0  0
 13 12  1  0  0  0  0
 14  1  1  6  0  0  0
 14 16  1  0  0  0  0
 15 19  1  6  0  0  0
 15 13  1  0  0  0  0
 15 14  1  0  0  0  0
 16 17  1  1  0  0  0
 18 19  2  0  0  0  0
 20 21  1  0  0  0  0
 20 13  1  0  0  0  0
 22 21  1  0  0  0  0
 24 23  1  0  0  0  0
 25 24  1  0  0  0  0
 26 27  1  0  0  0  0
 26 25  1  0  0  0  0
 29 33  1  0  0  0  0
 29 27  1  1  0  0  0
 30 28  1  6  0  0  0
 30 29  1  0  0  0  0
 31 34  1  0  0  0  0
 32 33  1  0  0  0  0
 34 30  1  0  0  0  0
 34 32  1  0  0  0  0
M  END
>  <MODEL>
7

>  <REMARK>
 VINA RESULT:      -5.5      1.499      2.357
  Name = 
  11 active torsions:
  status: ('A' for Active; 'I' for Inactive)
    1  A    between atoms: C_3  and  C_13
    2  A    between atoms: C_3  and  S_17
    3  A    between atoms: C_4  and  C_31
    4  A    between atoms: N_5  and  C_18
    5  A    between atoms: N_5  and  C_31
    6  A    between atoms: N_8  and  C_27
    7  A    between atoms: C_12  and  C_27
    8  A    between atoms: S_17  and  C_29
    9  A    between atoms: C_18  and  C_29
   10  A    between atoms: C_21  and  C_31
   11  A    between atoms: C_26  and  C_28
                            x       y       z     vdW  Elec       q    Type
                         _______ _______ _______ _____ _____    ______ ____

>  <TORSDO>
F 11

$$$$
=
 OpenBabel11062408073D

 34 37  0  0  1  0  0  0  0  0999 V2000
  160.8250  211.3970  151.9610 C   0  0  2  0  0  3  0  0  0  0  0  0
  161.6570  210.7020  154.9790 C   0  0  2  0  0  3  0  0  0  0  0  0
  159.0880  211.4490  154.9620 C   0  0  0  0  0  0  0  0  0  0  0  0
  159.9010  210.6340  152.9260 C   0  0  2  0  0  3  0  0  0  0  0  0
  160.1760  209.3210  156.3210 O   0  0  0  0  0  1  0  0  0  0  0  0
  158.9330  211.8820  156.1350 O   0  0  0  0  0  0  0  0  0  0  0  0
  158.5540  211.0780  152.7560 O   0  0  0  0  0  0  0  0  0  0  0  0
  160.2570  210.8070  154.3950 C   0  0  1  0  0  0  0  0  0  0  0  0
  160.7000  209.4970  155.0350 C   0  0  1  0  0  3  0  0  0  0  0  0
  161.7310  211.3650  156.2070 O   0  0  0  0  0  1  0  0  0  0  0  0
  158.1610  211.5670  153.9580 O   0  0  0  0  0  0  0  0  0  0  0  0
  160.0960  214.4530  149.9450 C   0  0  0  0  0  2  0  0  0  0  0  0
  159.9610  213.4330  148.9110 N   0  0  0  0  0  0  0  0  0  0  0  0
  160.0300  212.2660  150.9720 C   0  0  2  0  0  3  0  0  0  0  0  0
  160.4700  212.1890  149.5100 C   0  0  2  0  0  3  0  0  0  0  0  0
  160.0830  213.7480  151.2950 C   0  0  2  0  0  3  0  0  0  0  0  0
  158.9410  214.1180  152.0040 O   0  0  0  0  0  1  0  0  0  0  0  0
  162.4390  211.2970  148.4730 O   0  0  0  0  0  0  0  0  0  0  0  0
  161.9710  212.0010  149.3540 C   0  0  0  0  0  3  0  0  0  0  0  0
  160.6910  213.8650  147.7200 C   0  0  0  0  0  2  0  0  0  0  0  0
  160.0540  213.2780  146.4710 C   0  0  0  0  0  2  0  0  0  0  0  0
  161.0400  212.9420  145.5420 O   0  0  0  0  0  1  0  0  0  0  0  0
  161.7060  210.4820  151.2400 N   0  0  0  0  0  2  0  0  0  0  0  0
  161.2520  209.1280  151.5110 C   0  0  0  0  0  2  0  0  0  0  0  0
  162.2130  208.1350  150.8920 C   0  0  0  0  0  2  0  0  0  0  0  0
  161.3020  206.6600  150.3620 S   0  0  0  0  0  0  0  0  0  0  0  0
  161.3800  207.1410  148.6110 C   0  0  0  0  0  2  0  0  0  0  0  0
  160.4560  206.2020  145.2980 C   0  0  0  0  0  1  0  0  0  0  0  0
  160.7070  206.0870  147.7430 C   0  0  1  0  0  3  0  0  0  0  0  0
  161.4300  205.9780  146.4360 C   0  0  1  0  0  3  0  0  0  0  0  0
  163.3380  204.7030  146.0120 C   0  0  0  0  0  1  0  0  0  0  0  0
  161.8920  204.1300  147.7000 N   0  0  0  0  0  2  0  0  0  0  0  0
  160.8340  204.7810  148.3610 N   0  0  0  0  0  2  0  0  0  0  0  0
  161.9360  204.6210  146.3810 N   0  0  0  0  0  0  0  0  0  0  0  0
  1 23  1  6  0  0  0
  2  9  1  0  0  0  0
  2 10  1  1  0  0  0
  3  6  2  0  0  0  0
  4  1  1  6  0  0  0
  4  8  1  0  0  0  0
  7  4  1  0  0  0  0
  7 11  1  0  0  0  0
  8  3  1  1  0  0  0
  8  2  1  0  0  0  0
  8  9  1  0  0  0  0
  9  5  1  1  0  0  0
 11  3  1  0  0  0  0
 12 16  1  0  0  0  0
 13 15  1  0  0  0  0
 13 12  1  0  0  0  0
 14 16  1  0  0  0  0
 14  1  1  1  0  0  0
 15 19  1  1  0  0  0
 15 14  1  0  0  0  0
 16 17  1  1  0  0  0
 18 19  2  0  0  0  0
 20 13  1  0  0  0  0
 21 20  1  0  0  0  0
 22 21  1  0  0  0  0
 23 24  1  0  0  0  0
 25 24  1  0  0  0  0
 26 25  1  0  0  0  0
 27 26  1  0  0  0  0
 29 33  1  0  0  0  0
 29 27  1  1  0  0  0
 30 28  1  6  0  0  0
 30 29  1  0  0  0  0
 31 34  1  0  0  0  0
 32 33  1  0  0  0  0
 34 30  1  0  0  0  0
 34 32  1  0  0  0  0
M  END
>  <MODEL>
8

>  <REMARK>
 VINA RESULT:      -5.2      3.260      6.637
  Name = 
  11 active torsions:
  status: ('A' for Active; 'I' for Inactive)
    1  A    between atoms: C_3  and  C_13
    2  A    between atoms: C_3  and  S_17
    3  A    between atoms: C_4  and  C_31
    4  A    between atoms: N_5  and  C_18
    5  A    between atoms: N_5  and  C_31
    6  A    between atoms: N_8  and  C_27
    7  A    between atoms: C_12  and  C_27
    8  A    between atoms: S_17  and  C_29
    9  A    between atoms: C_18  and  C_29
   10  A    between atoms: C_21  and  C_31
   11  A    between atoms: C_26  and  C_28
                            x       y       z     vdW  Elec       q    Type
                         _______ _______ _______ _____ _____    ______ ____

>  <TORSDO>
F 11

$$$$
=
 OpenBabel11062408073D

 34 37  0  0  1  0  0  0  0  0999 V2000
  161.2660  208.3180  152.5980 C   0  0  2  0  0  3  0  0  0  0  0  0
  161.0690  207.0310  149.6680 C   0  0  2  0  0  3  0  0  0  0  0  0
  161.9570  209.5440  149.4290 C   0  0  0  0  0  0  0  0  0  0  0  0
  162.3310  208.5500  151.5130 C   0  0  2  0  0  3  0  0  0  0  0  0
  162.9230  207.3240  148.1260 O   0  0  0  0  0  1  0  0  0  0  0  0
  161.5880  209.8410  148.2610 O   0  0  0  0  0  0  0  0  0  0  0  0
  162.7690  209.9090  151.5500 O   0  0  0  0  0  0  0  0  0  0  0  0
  161.8490  208.2620  150.0990 C   0  0  1  0  0  0  0  0  0  0  0  0
  162.5940  207.0920  149.4670 C   0  0  1  0  0  3  0  0  0  0  0  0
  160.3770  207.2760  148.4790 O   0  0  0  0  0  1  0  0  0  0  0  0
  162.4910  210.4300  150.3290 O   0  0  0  0  0  0  0  0  0  0  0  0
  159.0080  210.9390  154.0020 C   0  0  0  0  0  2  0  0  0  0  0  0
  159.8310  210.6640  155.1750 N   0  0  0  0  0  0  0  0  0  0  0  0
  160.9230  209.6150  153.3510 C   0  0  2  0  0  3  0  0  0  0  0  0
  160.6110  209.4610  154.8400 C   0  0  2  0  0  3  0  0  0  0  0  0
  159.7070  210.3320  152.7930 C   0  0  2  0  0  3  0  0  0  0  0  0
  160.1140  211.3490  151.9300 O   0  0  0  0  0  1  0  0  0  0  0  0
  160.0750  207.5770  156.2230 O   0  0  0  0  0  0  0  0  0  0  0  0
  159.8980  208.1570  155.1630 C   0  0  0  0  0  3  0  0  0  0  0  0
  158.9620  210.5070  156.3400 C   0  0  0  0  0  2  0  0  0  0  0  0
  157.6590  211.2580  156.1290 C   0  0  0  0  0  2  0  0  0  0  0  0
  157.6950  212.4820  156.7980 O   0  0  0  0  0  1  0  0  0  0  0  0
  161.6850  207.2810  153.5370 N   0  0  0  0  0  2  0  0  0  0  0  0
  161.9210  206.0660  152.7740 C   0  0  0  0  0  2  0  0  0  0  0  0
  160.6000  205.3960  152.4610 C   0  0  0  0  0  2  0  0  0  0  0  0
  160.8310  203.5990  152.4000 S   0  0  0  0  0  0  0  0  0  0  0  0
  161.7960  203.6930  150.8610 C   0  0  0  0  0  2  0  0  0  0  0  0
  161.5810  203.8280  147.3050 C   0  0  0  0  0  1  0  0  0  0  0  0
  160.8680  203.6610  149.6540 C   0  0  1  0  0  3  0  0  0  0  0  0
  161.5380  202.9360  148.5290 C   0  0  1  0  0  3  0  0  0  0  0  0
  161.5810  200.6250  148.2030 C   0  0  0  0  0  1  0  0  0  0  0  0
  159.8830  201.6140  149.3870 N   0  0  0  0  0  2  0  0  0  0  0  0
  159.6830  202.8830  149.9610 N   0  0  0  0  0  2  0  0  0  0  0  0
  160.7040  201.7810  148.2570 N   0  0  0  0  0  0  0  0  0  0  0  0
  1 23  1  1  0  0  0
  2 10  1  6  0  0  0
  2  8  1  0  0  0  0
  3 11  1  0  0  0  0
  4  7  1  0  0  0  0
  4  1  1  1  0  0  0
  6  3  2  0  0  0  0
  8  3  1  6  0  0  0
  8  4  1  0  0  0  0
  9  5  1  6  0  0  0
  9  2  1  0  0  0  0
  9  8  1  0  0  0  0
 11  7  1  0  0  0  0
 12 13  1  0  0  0  0
 13 20  1  0  0  0  0
 14  1  1  6  0  0  0
 14 15  1  0  0  0  0
 15 19  1  6  0  0  0
 15 13  1  0  0  0  0
 16 17  1  6  0  0  0
 16 14  1  0  0  0  0
 16 12  1  0  0  0  0
 19 18  2  0  0  0  0
 21 20  1  0  0  0  0
 21 22  1  0  0  0  0
 24 23  1  0  0  0  0
 25 24  1  0  0  0  0
 26 25  1  0  0  0  0
 27 26  1  0  0  0  0
 29 33  1  0  0  0  0
 29 27  1  1  0  0  0
 30 28  1  6  0  0  0
 30 29  1  0  0  0  0
 31 34  1  0  0  0  0
 32 33  1  0  0  0  0
 34 30  1  0  0  0  0
 34 32  1  0  0  0  0
M  END
>  <MODEL>
9

>  <REMARK>
 VINA RESULT:      -5.0      4.860      7.922
  Name = 
  11 active torsions:
  status: ('A' for Active; 'I' for Inactive)
    1  A    between atoms: C_3  and  C_13
    2  A    between atoms: C_3  and  S_17
    3  A    between atoms: C_4  and  C_31
    4  A    between atoms: N_5  and  C_18
    5  A    between atoms: N_5  and  C_31
    6  A    between atoms: N_8  and  C_27
    7  A    between atoms: C_12  and  C_27
    8  A    between atoms: S_17  and  C_29
    9  A    between atoms: C_18  and  C_29
   10  A    between atoms: C_21  and  C_31
   11  A    between atoms: C_26  and  C_28
                            x       y       z     vdW  Elec       q    Type
                         _______ _______ _______ _____ _____    ______ ____

>  <TORSDO>
F 11

$$$$
