=
 OpenBabel11052422593D

 28 30  0  0  1  0  0  0  0  0999 V2000
  158.5510  211.5800  152.7840 C   0  0  0  0  0  2  0  0  0  0  0  0
  162.3370  209.2890  157.1160 C   0  0  0  0  0  1  0  0  0  0  0  0
  159.1910  212.6900  154.9200 C   0  0  2  0  0  3  0  0  0  0  0  0
  160.3250  210.5490  154.2560 C   0  0  0  0  0  0  0  0  0  0  0  0
  157.6070  213.8670  153.3530 C   0  0  2  0  0  3  0  0  0  0  0  0
  159.7020  211.8320  153.7580 C   0  0  1  0  0  3  0  0  0  0  0  0
  160.7690  211.5860  156.3640 O   0  0  0  0  0  0  0  0  0  0  0  0
  158.7120  214.0430  154.3990 C   0  0  0  0  0  2  0  0  0  0  0  0
  161.2790  208.0100  155.2200 C   0  0  2  0  0  3  0  0  0  0  0  0
  160.5500  209.4240  153.3240 C   0  0  0  0  0  3  0  0  0  0  0  0
  160.3110  212.8670  155.9320 C   0  0  0  0  0  2  0  0  0  0  0  0
  161.4960  209.2760  155.9290 N   0  0  0  0  0  0  0  0  0  0  0  0
  156.3090  213.4060  153.9960 C   0  0  0  0  0  1  0  0  0  0  0  0
  158.0380  212.9120  152.2330 C   0  0  0  0  0  2  0  0  0  0  0  0
  160.8500  210.4850  155.4960 C   0  0  0  0  0  0  0  0  0  0  0  0
  161.0600  208.2630  153.7430 C   0  0  0  0  0  0  0  0  0  0  0  0
  160.0770  207.2670  155.8170 C   0  0  0  0  0  3  0  0  0  0  0  0
  159.0640  208.1670  156.1480 O   0  0  0  0  0  1  0  0  0  0  0  0
  160.4580  206.5720  156.9660 O   0  0  0  0  0  1  0  0  0  0  0  0
  161.2940  207.1790  152.7410 C   0  0  0  0  0  2  0  0  0  0  0  0
  162.0490  207.6880  151.5480 C   0  0  0  0  0  3  0  0  0  0  0  0
  161.7640  207.3520  150.2830 C   0  0  0  0  0  3  0  0  0  0  0  0
  160.6500  206.4260  149.8930 C   0  0  0  0  0  2  0  0  0  0  0  0
  161.1580  205.0140  149.6090 C   0  0  0  0  0  2  0  0  0  0  0  0
  160.8800  204.0320  150.7470 C   0  0  2  0  0  3  0  0  0  0  0  0
  161.8460  204.1320  151.7320 F   0  0  0  0  0  0  0  0  0  0  0  0
  160.2260  202.3700  149.2040 O   0  0  0  0  0  0  0  0  0  0  0  0
  160.7810  202.6220  150.2620 C   0  0  0  0  0  3  0  0  0  0  0  0
  3  8  1  6  0  0  0
  3 11  1  0  0  0  0
  4 15  2  0  0  0  0
  5 13  1  1  0  0  0
  5  8  1  0  0  0  0
  6  1  1  6  0  0  0
  6  4  1  0  0  0  0
  6  3  1  0  0  0  0
  9 17  1  1  0  0  0
  9 12  1  0  0  0  0
 10 16  2  0  0  0  0
 10  4  1  0  0  0  0
 11  7  1  0  0  0  0
 12  2  1  0  0  0  0
 14  1  1  0  0  0  0
 14  5  1  0  0  0  0
 15 12  1  0  0  0  0
 15  7  1  0  0  0  0
 16  9  1  0  0  0  0
 17 18  1  0  0  0  0
 17 19  1  0  0  0  0
 20 16  1  0  0  0  0
 21 20  1  0  0  0  0
 22 21  2  0  0  0  0
 23 22  1  0  0  0  0
 24 23  1  0  0  0  0
 24 25  1  0  0  0  0
 25 26  1  1  0  0  0
 27 28  2  0  0  0  0
 28 25  1  0  0  0  0
M  END
>  <MODEL>
1

>  <REMARK>
 VINA RESULT:      -6.6      0.000      0.000
  Name = 
  7 active torsions:
  status: ('A' for Active; 'I' for Inactive)
    1  A    between atoms: C_1  and  C_2
    2  A    between atoms: C_1  and  C_27
    3  A    between atoms: C_3  and  C_8
    4  A    between atoms: C_6  and  C_11
    5  A    between atoms: C_6  and  C_28
    6  A    between atoms: C_8  and  C_11
    7  A    between atoms: C_16  and  C_19
                            x       y       z     vdW  Elec       q    Type
                         _______ _______ _______ _____ _____    ______ ____

>  <TORSDO>
F 7

$$$$
=
 OpenBabel11052422593D

 28 30  0  0  1  0  0  0  0  0999 V2000
  157.8740  212.3000  153.2340 C   0  0  0  0  0  2  0  0  0  0  0  0
  162.5050  209.6620  156.3880 C   0  0  0  0  0  1  0  0  0  0  0  0
  158.8140  213.0820  155.4050 C   0  0  2  0  0  3  0  0  0  0  0  0
  159.9430  211.2010  154.1780 C   0  0  0  0  0  0  0  0  0  0  0  0
  156.9060  214.3580  154.3630 C   0  0  2  0  0  3  0  0  0  0  0  0
  159.1620  212.4870  154.0360 C   0  0  1  0  0  3  0  0  0  0  0  0
  160.6890  211.8980  156.3410 O   0  0  0  0  0  0  0  0  0  0  0  0
  158.1660  214.4530  155.2290 C   0  0  0  0  0  2  0  0  0  0  0  0
  161.2080  208.6350  154.4870 C   0  0  2  0  0  3  0  0  0  0  0  0
  160.0680  210.2790  153.0310 C   0  0  0  0  0  3  0  0  0  0  0  0
  160.0820  213.1860  156.2340 C   0  0  0  0  0  2  0  0  0  0  0  0
  161.4690  209.7750  155.3730 N   0  0  0  0  0  0  0  0  0  0  0  0
  155.7740  213.6740  155.1130 C   0  0  0  0  0  1  0  0  0  0  0  0
  157.1900  213.6530  153.0300 C   0  0  0  0  0  2  0  0  0  0  0  0
  160.6820  210.9750  155.2830 C   0  0  0  0  0  0  0  0  0  0  0  0
  160.7150  209.1160  153.1390 C   0  0  0  0  0  0  0  0  0  0  0  0
  160.1810  207.6920  155.1250 C   0  0  0  0  0  3  0  0  0  0  0  0
  159.4480  208.3610  156.1060 O   0  0  0  0  0  1  0  0  0  0  0  0
  160.8220  206.5970  155.7070 O   0  0  0  0  0  1  0  0  0  0  0  0
  160.8340  208.2470  151.9290 C   0  0  0  0  0  2  0  0  0  0  0  0
  162.1600  207.5450  151.8840 C   0  0  0  0  0  3  0  0  0  0  0  0
  162.3140  206.2250  152.0540 C   0  0  0  0  0  3  0  0  0  0  0  0
  161.1810  205.2760  152.3090 C   0  0  0  0  0  2  0  0  0  0  0  0
  161.0360  204.2500  151.1870 C   0  0  0  0  0  2  0  0  0  0  0  0
  161.1660  204.8600  149.7910 C   0  0  2  0  0  3  0  0  0  0  0  0
  160.1250  205.7360  149.5390 F   0  0  0  0  0  0  0  0  0  0  0  0
  161.7420  204.0670  147.6450 O   0  0  0  0  0  0  0  0  0  0  0  0
  161.2320  203.8150  148.7250 C   0  0  0  0  0  3  0  0  0  0  0  0
  3  8  1  6  0  0  0
  3 11  1  0  0  0  0
  4 15  2  0  0  0  0
  5 13  1  1  0  0  0
  5  8  1  0  0  0  0
  6  1  1  1  0  0  0
  6  4  1  0  0  0  0
  6  3  1  0  0  0  0
  9 17  1  1  0  0  0
  9 12  1  0  0  0  0
 10 16  2  0  0  0  0
 10  4  1  0  0  0  0
 11  7  1  0  0  0  0
 12  2  1  0  0  0  0
 14  1  1  0  0  0  0
 14  5  1  0  0  0  0
 15 12  1  0  0  0  0
 15  7  1  0  0  0  0
 16  9  1  0  0  0  0
 17 19  1  0  0  0  0
 17 18  1  0  0  0  0
 20 16  1  0  0  0  0
 21 20  1  0  0  0  0
 21 22  2  0  0  0  0
 22 23  1  0  0  0  0
 24 23  1  0  0  0  0
 25 26  1  6  0  0  0
 25 24  1  0  0  0  0
 27 28  2  0  0  0  0
 28 25  1  0  0  0  0
M  END
>  <MODEL>
2

>  <REMARK>
 VINA RESULT:      -6.5      1.237      1.442
  Name = 
  7 active torsions:
  status: ('A' for Active; 'I' for Inactive)
    1  A    between atoms: C_1  and  C_2
    2  A    between atoms: C_1  and  C_27
    3  A    between atoms: C_3  and  C_8
    4  A    between atoms: C_6  and  C_11
    5  A    between atoms: C_6  and  C_28
    6  A    between atoms: C_8  and  C_11
    7  A    between atoms: C_16  and  C_19
                            x       y       z     vdW  Elec       q    Type
                         _______ _______ _______ _____ _____    ______ ____

>  <TORSDO>
F 7

$$$$
=
 OpenBabel11052422593D

 28 30  0  0  1  0  0  0  0  0999 V2000
  161.9120  206.0400  147.1970 C   0  0  0  0  0  2  0  0  0  0  0  0
  160.2970  203.1950  152.4540 C   0  0  0  0  0  1  0  0  0  0  0  0
  161.6330  203.5860  147.5200 C   0  0  2  0  0  3  0  0  0  0  0  0
  160.9840  205.1550  149.3720 C   0  0  0  0  0  0  0  0  0  0  0  0
  162.3200  204.4550  145.2550 C   0  0  2  0  0  3  0  0  0  0  0  0
  161.0650  204.9650  147.8750 C   0  0  1  0  0  3  0  0  0  0  0  0
  160.8970  202.7840  149.6660 O   0  0  0  0  0  0  0  0  0  0  0  0
  161.5570  203.3630  146.0110 C   0  0  0  0  0  2  0  0  0  0  0  0
  161.0740  205.5800  152.2170 C   0  0  2  0  0  3  0  0  0  0  0  0
  160.8160  206.5100  149.9380 C   0  0  0  0  0  3  0  0  0  0  0  0
  160.8460  202.5210  148.2640 C   0  0  0  0  0  2  0  0  0  0  0  0
  160.7340  204.2910  151.6030 N   0  0  0  0  0  0  0  0  0  0  0  0
  163.8220  204.2940  145.4270 C   0  0  0  0  0  1  0  0  0  0  0  0
  161.8630  205.8570  145.6780 C   0  0  0  0  0  2  0  0  0  0  0  0
  160.8740  204.0880  150.1870 C   0  0  0  0  0  0  0  0  0  0  0  0
  160.7840  206.7150  151.2570 C   0  0  0  0  0  0  0  0  0  0  0  0
  162.5510  205.5970  152.6300 C   0  0  0  0  0  3  0  0  0  0  0  0
  162.7260  206.3660  153.7810 O   0  0  0  0  0  1  0  0  0  0  0  0
  163.3360  206.1280  151.6070 O   0  0  0  0  0  1  0  0  0  0  0  0
  160.5770  208.1060  151.7610 C   0  0  0  0  0  2  0  0  0  0  0  0
  161.7740  208.9720  151.4930 C   0  0  0  0  0  3  0  0  0  0  0  0
  162.0440  210.1020  152.1600 C   0  0  0  0  0  3  0  0  0  0  0  0
  161.1880  210.6490  153.2640 C   0  0  0  0  0  2  0  0  0  0  0  0
  161.7520  210.3060  154.6420 C   0  0  0  0  0  2  0  0  0  0  0  0
  161.1230  209.0560  155.2580 C   0  0  2  0  0  3  0  0  0  0  0  0
  159.7790  209.2580  155.5160 F   0  0  0  0  0  0  0  0  0  0  0  0
  162.6220  209.3740  157.0520 O   0  0  0  0  0  0  0  0  0  0  0  0
  161.8290  208.6270  156.5030 C   0  0  0  0  0  3  0  0  0  0  0  0
  3  8  1  6  0  0  0
  3  6  1  0  0  0  0
  3 11  1  0  0  0  0
  4 10  1  0  0  0  0
  4 15  2  0  0  0  0
  5 13  1  1  0  0  0
  5 14  1  0  0  0  0
  5  8  1  0  0  0  0
  6  1  1  1  0  0  0
  6  4  1  0  0  0  0
  7 15  1  0  0  0  0
  9 17  1  6  0  0  0
 10 16  2  0  0  0  0
 11  7  1  0  0  0  0
 12  9  1  0  0  0  0
 12  2  1  0  0  0  0
 14  1  1  0  0  0  0
 15 12  1  0  0  0  0
 16 20  1  0  0  0  0
 16  9  1  0  0  0  0
 17 18  1  0  0  0  0
 19 17  1  0  0  0  0
 21 20  1  0  0  0  0
 21 22  2  0  0  0  0
 22 23  1  0  0  0  0
 23 24  1  0  0  0  0
 24 25  1  0  0  0  0
 25 26  1  1  0  0  0
 25 28  1  0  0  0  0
 28 27  2  0  0  0  0
M  END
>  <MODEL>
3

>  <REMARK>
 VINA RESULT:      -6.5      3.121      8.476
  Name = 
  7 active torsions:
  status: ('A' for Active; 'I' for Inactive)
    1  A    between atoms: C_1  and  C_2
    2  A    between atoms: C_1  and  C_27
    3  A    between atoms: C_3  and  C_8
    4  A    between atoms: C_6  and  C_11
    5  A    between atoms: C_6  and  C_28
    6  A    between atoms: C_8  and  C_11
    7  A    between atoms: C_16  and  C_19
                            x       y       z     vdW  Elec       q    Type
                         _______ _______ _______ _____ _____    ______ ____

>  <TORSDO>
F 7

$$$$
=
 OpenBabel11052422593D

 28 30  0  0  1  0  0  0  0  0999 V2000
  161.8640  206.0430  147.1850 C   0  0  0  0  0  2  0  0  0  0  0  0
  160.3320  203.1920  152.4640 C   0  0  0  0  0  1  0  0  0  0  0  0
  161.6280  203.5860  147.5190 C   0  0  2  0  0  3  0  0  0  0  0  0
  160.9650  205.1510  149.3700 C   0  0  0  0  0  0  0  0  0  0  0  0
  162.2850  204.4570  145.2470 C   0  0  2  0  0  3  0  0  0  0  0  0
  161.0390  204.9560  147.8730 C   0  0  1  0  0  3  0  0  0  0  0  0
  160.9200  202.7800  149.6740 O   0  0  0  0  0  0  0  0  0  0  0  0
  161.5450  203.3550  146.0120 C   0  0  0  0  0  2  0  0  0  0  0  0
  161.0690  205.5880  152.2130 C   0  0  2  0  0  3  0  0  0  0  0  0
  160.7800  206.5050  149.9320 C   0  0  0  0  0  3  0  0  0  0  0  0
  160.8630  202.5110  148.2730 C   0  0  0  0  0  2  0  0  0  0  0  0
  160.7450  204.2920  151.6060 N   0  0  0  0  0  0  0  0  0  0  0  0
  163.7900  204.3210  145.4090 C   0  0  0  0  0  1  0  0  0  0  0  0
  161.8080  205.8530  145.6680 C   0  0  0  0  0  2  0  0  0  0  0  0
  160.8790  204.0850  150.1900 C   0  0  0  0  0  0  0  0  0  0  0  0
  160.7530  206.7140  151.2510 C   0  0  0  0  0  0  0  0  0  0  0  0
  162.5480  205.6300  152.6160 C   0  0  0  0  0  3  0  0  0  0  0  0
  162.7150  206.3900  153.7740 O   0  0  0  0  0  1  0  0  0  0  0  0
  163.3140  206.1900  151.5930 O   0  0  0  0  0  1  0  0  0  0  0  0
  160.5270  208.1040  151.7510 C   0  0  0  0  0  2  0  0  0  0  0  0
  161.6330  209.0280  151.3310 C   0  0  0  0  0  3  0  0  0  0  0  0
  162.1660  209.9670  152.1230 C   0  0  0  0  0  3  0  0  0  0  0  0
  161.7290  210.2170  153.5360 C   0  0  0  0  0  2  0  0  0  0  0  0
  160.7580  211.3930  153.6300 C   0  0  0  0  0  2  0  0  0  0  0  0
  159.2910  210.9640  153.6520 C   0  0  2  0  0  3  0  0  0  0  0  0
  158.7630  210.9530  152.3740 F   0  0  0  0  0  0  0  0  0  0  0  0
  157.2490  211.7250  154.5570 O   0  0  0  0  0  0  0  0  0  0  0  0
  158.4650  211.8310  154.5460 C   0  0  0  0  0  3  0  0  0  0  0  0
  3  8  1  6  0  0  0
  3  6  1  0  0  0  0
  3 11  1  0  0  0  0
  4 10  1  0  0  0  0
  4 15  2  0  0  0  0
  5 13  1  1  0  0  0
  5 14  1  0  0  0  0
  5  8  1  0  0  0  0
  6  1  1  6  0  0  0
  6  4  1  0  0  0  0
  7 15  1  0  0  0  0
  9 17  1  6  0  0  0
 10 16  2  0  0  0  0
 11  7  1  0  0  0  0
 12  9  1  0  0  0  0
 12  2  1  0  0  0  0
 14  1  1  0  0  0  0
 15 12  1  0  0  0  0
 16 20  1  0  0  0  0
 16  9  1  0  0  0  0
 17 18  1  0  0  0  0
 19 17  1  0  0  0  0
 21 20  1  0  0  0  0
 21 22  2  0  0  0  0
 22 23  1  0  0  0  0
 23 24  1  0  0  0  0
 24 25  1  0  0  0  0
 25 26  1  6  0  0  0
 25 28  1  0  0  0  0
 28 27  2  0  0  0  0
M  END
>  <MODEL>
4

>  <REMARK>
 VINA RESULT:      -6.4      3.213      8.615
  Name = 
  7 active torsions:
  status: ('A' for Active; 'I' for Inactive)
    1  A    between atoms: C_1  and  C_2
    2  A    between atoms: C_1  and  C_27
    3  A    between atoms: C_3  and  C_8
    4  A    between atoms: C_6  and  C_11
    5  A    between atoms: C_6  and  C_28
    6  A    between atoms: C_8  and  C_11
    7  A    between atoms: C_16  and  C_19
                            x       y       z     vdW  Elec       q    Type
                         _______ _______ _______ _____ _____    ______ ____

>  <TORSDO>
F 7

$$$$
=
 OpenBabel11052422593D

 28 30  0  0  1  0  0  0  0  0999 V2000
  157.2080  211.9950  154.3400 C   0  0  0  0  0  2  0  0  0  0  0  0
  163.0710  210.7000  155.8530 C   0  0  0  0  0  1  0  0  0  0  0  0
  158.5310  213.0610  156.1620 C   0  0  2  0  0  3  0  0  0  0  0  0
  159.6680  211.4770  154.5770 C   0  0  0  0  0  0  0  0  0  0  0  0
  156.1450  213.7860  155.7920 C   0  0  2  0  0  3  0  0  0  0  0  0
  158.5890  212.5230  154.7280 C   0  0  1  0  0  3  0  0  0  0  0  0
  160.8310  212.4120  156.4450 O   0  0  0  0  0  0  0  0  0  0  0  0
  157.5430  214.2220  156.2450 C   0  0  0  0  0  2  0  0  0  0  0  0
  161.5610  209.3170  154.3850 C   0  0  2  0  0  3  0  0  0  0  0  0
  159.6670  210.5750  153.4070 C   0  0  0  0  0  3  0  0  0  0  0  0
  159.9230  213.5050  156.5780 C   0  0  0  0  0  2  0  0  0  0  0  0
  161.7840  210.5170  155.2000 N   0  0  0  0  0  0  0  0  0  0  0  0
  155.4970  212.8700  156.8170 C   0  0  0  0  0  1  0  0  0  0  0  0
  156.1820  213.1280  154.4080 C   0  0  0  0  0  2  0  0  0  0  0  0
  160.7360  211.4800  155.3990 C   0  0  0  0  0  0  0  0  0  0  0  0
  160.5830  209.6130  153.2670 C   0  0  0  0  0  0  0  0  0  0  0  0
  161.0380  208.1710  155.2610 C   0  0  0  0  0  3  0  0  0  0  0  0
  161.7430  208.1170  156.4630 O   0  0  0  0  0  1  0  0  0  0  0  0
  161.1770  206.9510  154.5980 O   0  0  0  0  0  1  0  0  0  0  0  0
  160.5450  208.7590  152.0420 C   0  0  0  0  0  2  0  0  0  0  0  0
  161.9260  208.3840  151.5890 C   0  0  0  0  0  3  0  0  0  0  0  0
  162.2380  207.2040  151.0370 C   0  0  0  0  0  3  0  0  0  0  0  0
  161.2480  206.1040  150.7970 C   0  0  0  0  0  2  0  0  0  0  0  0
  160.9400  205.9310  149.3110 C   0  0  0  0  0  2  0  0  0  0  0  0
  161.7650  206.8530  148.4130 C   0  0  2  0  0  3  0  0  0  0  0  0
  161.2100  208.1190  148.3650 F   0  0  0  0  0  0  0  0  0  0  0  0
  162.7240  205.4140  146.8060 O   0  0  0  0  0  0  0  0  0  0  0  0
  161.9180  206.3030  147.0320 C   0  0  0  0  0  3  0  0  0  0  0  0
  1 14  1  0  0  0  0
  3  8  1  6  0  0  0
  3 11  1  0  0  0  0
  4  6  1  0  0  0  0
  4 15  2  0  0  0  0
  5  8  1  0  0  0  0
  5 13  1  1  0  0  0
  6  1  1  1  0  0  0
  6  3  1  0  0  0  0
  7 11  1  0  0  0  0
  9 12  1  0  0  0  0
  9 17  1  1  0  0  0
 10  4  1  0  0  0  0
 12 15  1  0  0  0  0
 12  2  1  0  0  0  0
 14  5  1  0  0  0  0
 15  7  1  0  0  0  0
 16 10  2  0  0  0  0
 16  9  1  0  0  0  0
 17 18  1  0  0  0  0
 19 17  1  0  0  0  0
 20 16  1  0  0  0  0
 21 20  1  0  0  0  0
 22 21  2  0  0  0  0
 23 22  1  0  0  0  0
 24 23  1  0  0  0  0
 25 26  1  6  0  0  0
 25 24  1  0  0  0  0
 27 28  2  0  0  0  0
 28 25  1  0  0  0  0
M  END
>  <MODEL>
5

>  <REMARK>
 VINA RESULT:      -6.0      2.011      2.446
  Name = 
  7 active torsions:
  status: ('A' for Active; 'I' for Inactive)
    1  A    between atoms: C_1  and  C_2
    2  A    between atoms: C_1  and  C_27
    3  A    between atoms: C_3  and  C_8
    4  A    between atoms: C_6  and  C_11
    5  A    between atoms: C_6  and  C_28
    6  A    between atoms: C_8  and  C_11
    7  A    between atoms: C_16  and  C_19
                            x       y       z     vdW  Elec       q    Type
                         _______ _______ _______ _____ _____    ______ ____

>  <TORSDO>
F 7

$$$$
=
 OpenBabel11052422593D

 28 30  0  0  1  0  0  0  0  0999 V2000
  158.7740  211.9630  152.3790 C   0  0  0  0  0  2  0  0  0  0  0  0
  162.2880  209.1230  156.6140 C   0  0  0  0  0  1  0  0  0  0  0  0
  159.0580  212.6460  154.7580 C   0  0  2  0  0  3  0  0  0  0  0  0
  160.4770  210.7910  153.8290 C   0  0  0  0  0  0  0  0  0  0  0  0
  157.5380  213.9950  153.2680 C   0  0  2  0  0  3  0  0  0  0  0  0
  159.7790  212.0960  153.5220 C   0  0  1  0  0  3  0  0  0  0  0  0
  160.5780  211.3930  156.1420 O   0  0  0  0  0  0  0  0  0  0  0  0
  158.4980  214.0350  154.4610 C   0  0  0  0  0  2  0  0  0  0  0  0
  161.5820  208.1920  154.3810 C   0  0  2  0  0  3  0  0  0  0  0  0
  160.9190  209.9110  152.7290 C   0  0  0  0  0  3  0  0  0  0  0  0
  160.0370  212.6950  155.9190 C   0  0  0  0  0  2  0  0  0  0  0  0
  161.5860  209.2930  155.3510 N   0  0  0  0  0  0  0  0  0  0  0  0
  156.2340  213.3050  153.6350 C   0  0  0  0  0  1  0  0  0  0  0  0
  158.1860  213.3360  152.0440 C   0  0  0  0  0  2  0  0  0  0  0  0
  160.8670  210.5100  155.0890 C   0  0  0  0  0  0  0  0  0  0  0  0
  161.4990  208.7320  152.9690 C   0  0  0  0  0  0  0  0  0  0  0  0
  160.4080  207.2450  154.6590 C   0  0  0  0  0  3  0  0  0  0  0  0
  160.1070  207.2310  156.0220 O   0  0  0  0  0  1  0  0  0  0  0  0
  160.7230  205.9480  154.2520 O   0  0  0  0  0  1  0  0  0  0  0  0
  161.9530  207.9070  151.8090 C   0  0  0  0  0  2  0  0  0  0  0  0
  161.6180  208.5640  150.5010 C   0  0  0  0  0  3  0  0  0  0  0  0
  161.5530  207.9140  149.3320 C   0  0  0  0  0  3  0  0  0  0  0  0
  161.8050  206.4430  149.1760 C   0  0  0  0  0  2  0  0  0  0  0  0
  160.7930  205.7910  148.2360 C   0  0  0  0  0  2  0  0  0  0  0  0
  161.4270  205.2280  146.9640 C   0  0  2  0  0  3  0  0  0  0  0  0
  162.7820  205.0150  147.1420 F   0  0  0  0  0  0  0  0  0  0  0  0
  160.0790  206.2050  145.2910 O   0  0  0  0  0  0  0  0  0  0  0  0
  161.1930  206.1100  145.7810 C   0  0  0  0  0  3  0  0  0  0  0  0
  3  8  1  6  0  0  0
  3 11  1  0  0  0  0
  4 15  2  0  0  0  0
  5 13  1  1  0  0  0
  5  8  1  0  0  0  0
  6  1  1  6  0  0  0
  6  4  1  0  0  0  0
  6  3  1  0  0  0  0
  9 17  1  1  0  0  0
  9 12  1  0  0  0  0
 10 16  2  0  0  0  0
 10  4  1  0  0  0  0
 11  7  1  0  0  0  0
 12  2  1  0  0  0  0
 14  1  1  0  0  0  0
 14  5  1  0  0  0  0
 15 12  1  0  0  0  0
 15  7  1  0  0  0  0
 16  9  1  0  0  0  0
 17 18  1  0  0  0  0
 19 17  1  0  0  0  0
 20 16  1  0  0  0  0
 21 20  1  0  0  0  0
 22 21  2  0  0  0  0
 23 22  1  0  0  0  0
 24 23  1  0  0  0  0
 25 26  1  1  0  0  0
 25 24  1  0  0  0  0
 27 28  2  0  0  0  0
 28 25  1  0  0  0  0
M  END
>  <MODEL>
6

>  <REMARK>
 VINA RESULT:      -6.0      1.876      2.129
  Name = 
  7 active torsions:
  status: ('A' for Active; 'I' for Inactive)
    1  A    between atoms: C_1  and  C_2
    2  A    between atoms: C_1  and  C_27
    3  A    between atoms: C_3  and  C_8
    4  A    between atoms: C_6  and  C_11
    5  A    between atoms: C_6  and  C_28
    6  A    between atoms: C_8  and  C_11
    7  A    between atoms: C_16  and  C_19
                            x       y       z     vdW  Elec       q    Type
                         _______ _______ _______ _____ _____    ______ ____

>  <TORSDO>
F 7

$$$$
=
 OpenBabel11052422593D

 28 30  0  0  1  0  0  0  0  0999 V2000
  161.9520  206.0510  147.1780 C   0  0  0  0  0  2  0  0  0  0  0  0
  160.2240  203.2700  152.4340 C   0  0  0  0  0  1  0  0  0  0  0  0
  161.6090  203.6060  147.5090 C   0  0  2  0  0  3  0  0  0  0  0  0
  160.9840  205.1990  149.3490 C   0  0  0  0  0  0  0  0  0  0  0  0
  162.3350  204.4470  145.2470 C   0  0  2  0  0  3  0  0  0  0  0  0
  161.0730  205.0000  147.8540 C   0  0  1  0  0  3  0  0  0  0  0  0
  160.8360  202.8320  149.6530 O   0  0  0  0  0  0  0  0  0  0  0  0
  161.5390  203.3780  146.0010 C   0  0  0  0  0  2  0  0  0  0  0  0
  161.0630  205.6340  152.1940 C   0  0  2  0  0  3  0  0  0  0  0  0
  160.8470  206.5590  149.9090 C   0  0  0  0  0  3  0  0  0  0  0  0
  160.7890  202.5650  148.2520 C   0  0  0  0  0  2  0  0  0  0  0  0
  160.6950  204.3510  151.5830 N   0  0  0  0  0  0  0  0  0  0  0  0
  163.8310  204.2490  145.4310 C   0  0  0  0  0  1  0  0  0  0  0  0
  161.9110  205.8620  145.6600 C   0  0  0  0  0  2  0  0  0  0  0  0
  160.8420  204.1380  150.1690 C   0  0  0  0  0  0  0  0  0  0  0  0
  160.8090  206.7710  151.2270 C   0  0  0  0  0  0  0  0  0  0  0  0
  162.5370  205.6150  152.6190 C   0  0  0  0  0  3  0  0  0  0  0  0
  162.7060  206.3100  153.8160 O   0  0  0  0  0  1  0  0  0  0  0  0
  163.3330  206.2040  151.6360 O   0  0  0  0  0  1  0  0  0  0  0  0
  160.6340  208.1690  151.7240 C   0  0  0  0  0  2  0  0  0  0  0  0
  161.9550  208.8580  151.9090 C   0  0  0  0  0  3  0  0  0  0  0  0
  162.3620  209.9050  151.1800 C   0  0  0  0  0  3  0  0  0  0  0  0
  161.5490  210.5300  150.0850 C   0  0  0  0  0  2  0  0  0  0  0  0
  162.3300  210.6140  148.7750 C   0  0  0  0  0  2  0  0  0  0  0  0
  162.3030  212.0060  148.1430 C   0  0  2  0  0  3  0  0  0  0  0  0
  163.5630  212.5770  148.1560 F   0  0  0  0  0  0  0  0  0  0  0  0
  160.2800  213.2150  148.2520 O   0  0  0  0  0  0  0  0  0  0  0  0
  161.3190  212.9080  148.8140 C   0  0  0  0  0  3  0  0  0  0  0  0
  3  8  1  6  0  0  0
  3  6  1  0  0  0  0
  3 11  1  0  0  0  0
  4 10  1  0  0  0  0
  4 15  2  0  0  0  0
  5 13  1  1  0  0  0
  5 14  1  0  0  0  0
  5  8  1  0  0  0  0
  6  1  1  1  0  0  0
  6  4  1  0  0  0  0
  7 15  1  0  0  0  0
  9 17  1  6  0  0  0
 10 16  2  0  0  0  0
 11  7  1  0  0  0  0
 12  9  1  0  0  0  0
 12  2  1  0  0  0  0
 14  1  1  0  0  0  0
 15 12  1  0  0  0  0
 16 20  1  0  0  0  0
 16  9  1  0  0  0  0
 17 18  1  0  0  0  0
 19 17  1  0  0  0  0
 20 21  1  0  0  0  0
 22 21  2  0  0  0  0
 23 22  1  0  0  0  0
 24 23  1  0  0  0  0
 25 26  1  1  0  0  0
 25 24  1  0  0  0  0
 25 28  1  0  0  0  0
 27 28  2  0  0  0  0
M  END
>  <MODEL>
7

>  <REMARK>
 VINA RESULT:      -6.0      4.458      8.612
  Name = 
  7 active torsions:
  status: ('A' for Active; 'I' for Inactive)
    1  A    between atoms: C_1  and  C_2
    2  A    between atoms: C_1  and  C_27
    3  A    between atoms: C_3  and  C_8
    4  A    between atoms: C_6  and  C_11
    5  A    between atoms: C_6  and  C_28
    6  A    between atoms: C_8  and  C_11
    7  A    between atoms: C_16  and  C_19
                            x       y       z     vdW  Elec       q    Type
                         _______ _______ _______ _____ _____    ______ ____

>  <TORSDO>
F 7

$$$$
=
 OpenBabel11052422593D

 28 30  0  0  1  0  0  0  0  0999 V2000
  160.0260  210.9160  151.9720 C   0  0  0  0  0  2  0  0  0  0  0  0
  162.6640  205.4080  152.9950 C   0  0  0  0  0  1  0  0  0  0  0  0
  160.2900  209.7950  154.1810 C   0  0  2  0  0  3  0  0  0  0  0  0
  161.3800  208.7930  152.1510 C   0  0  0  0  0  0  0  0  0  0  0  0
  159.1500  212.0410  154.0740 C   0  0  2  0  0  3  0  0  0  0  0  0
  160.9660  210.0750  152.8340 C   0  0  1  0  0  3  0  0  0  0  0  0
  161.4530  207.6900  154.2710 O   0  0  0  0  0  0  0  0  0  0  0  0
  160.0260  211.1070  154.9160 C   0  0  0  0  0  2  0  0  0  0  0  0
  161.9310  206.3300  150.7670 C   0  0  2  0  0  3  0  0  0  0  0  0
  161.7120  208.7940  150.7110 C   0  0  0  0  0  3  0  0  0  0  0  0
  161.1870  208.8850  155.0030 C   0  0  0  0  0  2  0  0  0  0  0  0
  162.0870  206.4940  152.2170 N   0  0  0  0  0  0  0  0  0  0  0  0
  157.7190  211.5350  154.0030 C   0  0  0  0  0  1  0  0  0  0  0  0
  159.7340  212.2460  152.6700 C   0  0  0  0  0  2  0  0  0  0  0  0
  161.6320  207.6860  152.8780 C   0  0  0  0  0  0  0  0  0  0  0  0
  162.0390  207.6690  150.0700 C   0  0  0  0  0  0  0  0  0  0  0  0
  160.5820  205.6720  150.4500 C   0  0  0  0  0  3  0  0  0  0  0  0
  160.0280  205.1170  151.6040 O   0  0  0  0  0  1  0  0  0  0  0  0
  160.7450  204.6660  149.4970 O   0  0  0  0  0  1  0  0  0  0  0  0
  162.3970  207.7480  148.6210 C   0  0  0  0  0  2  0  0  0  0  0  0
  161.1980  207.5270  147.7450 C   0  0  0  0  0  3  0  0  0  0  0  0
  161.1290  206.5850  146.7950 C   0  0  0  0  0  3  0  0  0  0  0  0
  162.2400  205.6270  146.4830 C   0  0  0  0  0  2  0  0  0  0  0  0
  161.7990  204.1740  146.6450 C   0  0  0  0  0  2  0  0  0  0  0  0
  161.3820  203.5190  145.3280 C   0  0  2  0  0  3  0  0  0  0  0  0
  160.5180  204.3380  144.6220 F   0  0  0  0  0  0  0  0  0  0  0  0
  160.8210  201.6330  146.6310 O   0  0  0  0  0  0  0  0  0  0  0  0
  160.7640  202.1750  145.5390 C   0  0  0  0  0  3  0  0  0  0  0  0
  1 14  1  0  0  0  0
  3  8  1  1  0  0  0
  3 11  1  0  0  0  0
  4  6  1  0  0  0  0
  4 15  2  0  0  0  0
  5 13  1  6  0  0  0
  5  8  1  0  0  0  0
  6  1  1  6  0  0  0
  6  3  1  0  0  0  0
  7 11  1  0  0  0  0
  9 17  1  1  0  0  0
  9 12  1  0  0  0  0
 10  4  1  0  0  0  0
 12 15  1  0  0  0  0
 12  2  1  0  0  0  0
 14  5  1  0  0  0  0
 15  7  1  0  0  0  0
 16 10  2  0  0  0  0
 16  9  1  0  0  0  0
 17 18  1  0  0  0  0
 19 17  1  0  0  0  0
 20 16  1  0  0  0  0
 21 20  1  0  0  0  0
 22 21  2  0  0  0  0
 23 24  1  0  0  0  0
 23 22  1  0  0  0  0
 25 26  1  1  0  0  0
 25 28  1  0  0  0  0
 25 24  1  0  0  0  0
 28 27  2  0  0  0  0
M  END
>  <MODEL>
8

>  <REMARK>
 VINA RESULT:      -5.7      2.778      4.278
  Name = 
  7 active torsions:
  status: ('A' for Active; 'I' for Inactive)
    1  A    between atoms: C_1  and  C_2
    2  A    between atoms: C_1  and  C_27
    3  A    between atoms: C_3  and  C_8
    4  A    between atoms: C_6  and  C_11
    5  A    between atoms: C_6  and  C_28
    6  A    between atoms: C_8  and  C_11
    7  A    between atoms: C_16  and  C_19
                            x       y       z     vdW  Elec       q    Type
                         _______ _______ _______ _____ _____    ______ ____

>  <TORSDO>
F 7

$$$$
=
 OpenBabel11052422593D

 28 30  0  0  1  0  0  0  0  0999 V2000
  159.5280  211.1190  153.0350 C   0  0  0  0  0  2  0  0  0  0  0  0
  162.7250  205.9040  152.0770 C   0  0  0  0  0  1  0  0  0  0  0  0
  159.9640  209.3280  154.7110 C   0  0  2  0  0  3  0  0  0  0  0  0
  161.0900  209.2190  152.4670 C   0  0  0  0  0  0  0  0  0  0  0  0
  158.6060  211.3400  155.3910 C   0  0  2  0  0  3  0  0  0  0  0  0
  160.5710  210.1300  153.5540 C   0  0  1  0  0  3  0  0  0  0  0  0
  161.3320  207.4560  154.0640 O   0  0  0  0  0  0  0  0  0  0  0  0
  159.5930  210.2650  155.8580 C   0  0  0  0  0  2  0  0  0  0  0  0
  161.8400  207.4670  150.3090 C   0  0  2  0  0  3  0  0  0  0  0  0
  161.3780  209.7590  151.1220 C   0  0  0  0  0  3  0  0  0  0  0  0
  160.9700  208.2850  155.1680 C   0  0  0  0  0  2  0  0  0  0  0  0
  162.0210  207.1270  151.7260 N   0  0  0  0  0  0  0  0  0  0  0  0
  157.2300  210.7480  155.1360 C   0  0  0  0  0  1  0  0  0  0  0  0
  159.1260  212.0830  154.1540 C   0  0  0  0  0  2  0  0  0  0  0  0
  161.4700  207.9590  152.7600 C   0  0  0  0  0  0  0  0  0  0  0  0
  161.7960  208.9700  150.1290 C   0  0  0  0  0  0  0  0  0  0  0  0
  160.5540  206.8280  149.7710 C   0  0  0  0  0  3  0  0  0  0  0  0
  160.4190  205.5260  150.2540 O   0  0  0  0  0  1  0  0  0  0  0  0
  160.5770  206.7930  148.3760 O   0  0  0  0  0  1  0  0  0  0  0  0
  162.1020  209.5880  148.8030 C   0  0  0  0  0  2  0  0  0  0  0  0
  162.6280  210.9860  148.9560 C   0  0  0  0  0  3  0  0  0  0  0  0
  162.0890  212.0570  148.3590 C   0  0  0  0  0  3  0  0  0  0  0  0
  160.8870  212.0010  147.4630 C   0  0  0  0  0  2  0  0  0  0  0  0
  160.8890  213.1340  146.4390 C   0  0  0  0  0  2  0  0  0  0  0  0
  162.2240  213.2870  145.7100 C   0  0  2  0  0  3  0  0  0  0  0  0
  162.8640  214.4520  146.0940 F   0  0  0  0  0  0  0  0  0  0  0  0
  163.0280  213.3980  143.4940 O   0  0  0  0  0  0  0  0  0  0  0  0
  162.0610  213.2520  144.2250 C   0  0  0  0  0  3  0  0  0  0  0  0
  1 14  1  0  0  0  0
  3 11  1  1  0  0  0
  3  8  1  0  0  0  0
  4 15  2  0  0  0  0
  4  6  1  0  0  0  0
  5 13  1  6  0  0  0
  5  8  1  0  0  0  0
  6  1  1  6  0  0  0
  6  3  1  0  0  0  0
  7 11  1  0  0  0  0
  9 17  1  1  0  0  0
  9 12  1  0  0  0  0
 10  4  1  0  0  0  0
 12  2  1  0  0  0  0
 12 15  1  0  0  0  0
 14  5  1  0  0  0  0
 15  7  1  0  0  0  0
 16  9  1  0  0  0  0
 16 10  2  0  0  0  0
 17 18  1  0  0  0  0
 19 17  1  0  0  0  0
 20 21  1  0  0  0  0
 20 16  1  0  0  0  0
 22 21  2  0  0  0  0
 23 22  1  0  0  0  0
 24 23  1  0  0  0  0
 25 26  1  6  0  0  0
 25 24  1  0  0  0  0
 27 28  2  0  0  0  0
 28 25  1  0  0  0  0
M  END
>  <MODEL>
9

>  <REMARK>
 VINA RESULT:      -5.4      4.795      6.346
  Name = 
  7 active torsions:
  status: ('A' for Active; 'I' for Inactive)
    1  A    between atoms: C_1  and  C_2
    2  A    between atoms: C_1  and  C_27
    3  A    between atoms: C_3  and  C_8
    4  A    between atoms: C_6  and  C_11
    5  A    between atoms: C_6  and  C_28
    6  A    between atoms: C_8  and  C_11
    7  A    between atoms: C_16  and  C_19
                            x       y       z     vdW  Elec       q    Type
                         _______ _______ _______ _____ _____    ______ ____

>  <TORSDO>
F 7

$$$$
