=
 OpenBabel11062409463D

 34 39  0  0  1  0  0  0  0  0999 V2000
  161.1190  205.2690  149.7950 C   0  0  0  0  0  0  0  0  0  0  0  0
  161.1540  203.9730  146.3210 C   0  0  0  0  0  3  0  0  0  0  0  0
  161.9100  205.9630  147.1870 N   0  0  0  0  0  0  0  0  0  0  0  0
  161.1570  206.1540  152.0900 C   0  0  0  0  0  0  0  0  0  0  0  0
  160.9070  205.0820  151.1820 C   0  0  0  0  0  3  0  0  0  0  0  0
  161.8270  207.5400  150.2470 C   0  0  0  0  0  0  0  0  0  0  0  0
  162.4490  208.5710  149.4690 N   0  0  0  0  0  0  0  0  0  0  0  0
  161.6550  207.4020  151.6230 C   0  0  0  0  0  3  0  0  0  0  0  0
  161.9630  206.8480  148.2110 C   0  0  0  0  0  0  0  0  0  0  0  0
  161.5400  206.5160  149.4260 C   0  0  0  0  0  0  0  0  0  0  0  0
  162.5300  208.1590  148.2540 N   0  0  0  0  0  0  0  0  0  0  0  0
  160.3350  202.7300  146.2700 C   0  0  0  0  0  2  0  0  0  0  0  0
  160.9110  201.6230  147.0810 C   0  0  0  0  0  0  0  0  0  0  0  0
  161.0650  201.7590  148.3950 C   0  0  0  0  0  3  0  0  0  0  0  0
  161.4030  204.7020  147.4130 C   0  0  0  0  0  0  0  0  0  0  0  0
  160.9200  203.0050  149.1690 C   0  0  0  0  0  3  0  0  0  0  0  0
  161.0720  204.2830  148.7710 C   0  0  0  0  0  0  0  0  0  0  0  0
  161.1430  200.3460  146.4690 N   0  0  0  0  0  0  0  0  0  0  0  0
  161.8120  199.4750  147.0620 O   0  0  0  0  0  0  0  0  0  0  0  0
  160.6120  200.0550  145.2320 O   0  0  0  0  0  0  0  0  0  0  0  0
  160.9110  205.9550  153.5480 C   0  0  0  0  0  2  0  0  0  0  0  0
  160.6840  209.6200  153.4670 C   0  0  0  0  0  3  0  0  0  0  0  0
  160.1480  207.3120  155.4190 C   0  0  0  0  0  3  0  0  0  0  0  0
  158.5520  211.8680  155.4940 C   0  0  2  0  0  3  0  0  0  0  0  0
  159.2510  211.4780  154.1870 C   0  0  0  0  0  2  0  0  0  0  0  0
  159.9930  210.2170  154.4370 C   0  0  0  0  0  0  0  0  0  0  0  0
  159.9290  208.5130  156.2490 C   0  0  0  0  0  3  0  0  0  0  0  0
  159.9450  209.7840  155.8310 C   0  0  0  0  0  0  0  0  0  0  0  0
  159.4070  211.0860  156.9120 S   0  0  0  0  0  0  0  0  0  0  0  0
  160.7950  207.2670  154.2510 C   0  0  0  0  0  0  0  0  0  0  0  0
  161.5580  208.4360  153.7100 C   0  0  0  0  0  2  0  0  0  0  0  0
  157.1080  211.4820  155.4680 C   0  0  0  0  0  0  0  0  0  0  0  0
  156.5600  211.1120  154.3950 O   0  0  0  0  0  0  0  0  0  0  0  0
  156.3460  211.5310  156.6680 N   0  0  0  0  0  1  0  0  0  0  0  0
  1  5  1  0  0  0  0
  2 15  2  0  0  0  0
  3 15  1  0  0  0  0
  3  9  2  0  0  0  0
  4 21  1  0  0  0  0
  5  4  2  0  0  0  0
  6  8  2  0  0  0  0
  7  6  1  0  0  0  0
  8  4  1  0  0  0  0
  9 11  1  0  0  0  0
  9 10  1  0  0  0  0
 10  1  2  0  0  0  0
 10  6  1  0  0  0  0
 11  7  2  0  0  0  0
 12  2  1  0  0  0  0
 12 13  1  0  0  0  0
 13 14  2  0  0  0  0
 14 16  1  0  0  0  0
 15 17  1  0  0  0  0
 17 16  2  0  0  0  0
 17  1  1  0  0  0  0
 18 19  2  0  0  0  0
 18 13  1  0  0  0  0
 20 18  2  0  0  0  0
 21 30  1  0  0  0  0
 22 31  1  0  0  0  0
 22 26  2  0  0  0  0
 23 27  1  0  0  0  0
 24 32  1  6  0  0  0
 24 29  1  0  0  0  0
 25 26  1  0  0  0  0
 25 24  1  0  0  0  0
 26 28  1  0  0  0  0
 28 27  2  0  0  0  0
 28 29  1  0  0  0  0
 30 23  2  0  0  0  0
 31 30  1  0  0  0  0
 32 34  1  0  0  0  0
 33 32  2  0  0  0  0
M  END
>  <MODEL>
1

>  <REMARK>
 VINA RESULT:     -10.5      0.000      0.000
  Name = 
  4 active torsions:
  status: ('A' for Active; 'I' for Inactive)
    1  A    between atoms: N_3  and  C_25
    2  A    between atoms: C_7  and  C_11
    3  A    between atoms: C_8  and  C_18
    4  A    between atoms: C_18  and  C_30
                            x       y       z     vdW  Elec       q    Type
                         _______ _______ _______ _____ _____    ______ ____

>  <TORSDO>
F 4

$$$$
=
 OpenBabel11062409463D

 34 39  0  0  1  0  0  0  0  0999 V2000
  161.0130  203.8750  148.6300 C   0  0  0  0  0  0  0  0  0  0  0  0
  160.8310  202.3370  145.2610 C   0  0  0  0  0  3  0  0  0  0  0  0
  161.4450  204.4530  145.9120 N   0  0  0  0  0  0  0  0  0  0  0  0
  161.1900  204.9260  150.8470 C   0  0  0  0  0  0  0  0  0  0  0  0
  160.9690  203.7690  150.0410 C   0  0  0  0  0  3  0  0  0  0  0  0
  161.5040  206.2340  148.8580 C   0  0  0  0  0  0  0  0  0  0  0  0
  161.9220  207.2650  147.9530 N   0  0  0  0  0  0  0  0  0  0  0  0
  161.4930  206.1810  150.2510 C   0  0  0  0  0  3  0  0  0  0  0  0
  161.5040  205.4120  146.8670 C   0  0  0  0  0  0  0  0  0  0  0  0
  161.2500  205.1290  148.1400 C   0  0  0  0  0  0  0  0  0  0  0  0
  161.9210  206.7750  146.7650 N   0  0  0  0  0  0  0  0  0  0  0  0
  160.1560  201.0140  145.3800 C   0  0  0  0  0  2  0  0  0  0  0  0
  160.9330  200.0360  146.1880 C   0  0  0  0  0  0  0  0  0  0  0  0
  161.2080  200.2840  147.4660 C   0  0  0  0  0  3  0  0  0  0  0  0
  161.1090  203.1660  146.2710 C   0  0  0  0  0  0  0  0  0  0  0  0
  161.0050  201.5620  148.1720 C   0  0  0  0  0  3  0  0  0  0  0  0
  160.9700  202.8160  147.6810 C   0  0  0  0  0  0  0  0  0  0  0  0
  161.2430  198.7490  145.6340 N   0  0  0  0  0  0  0  0  0  0  0  0
  162.4190  198.3280  145.6350 O   0  0  0  0  0  0  0  0  0  0  0  0
  160.2470  197.9510  145.1170 O   0  0  0  0  0  0  0  0  0  0  0  0
  161.1220  204.8100  152.3330 C   0  0  0  0  0  2  0  0  0  0  0  0
  161.7400  208.4230  152.0960 C   0  0  0  0  0  3  0  0  0  0  0  0
  160.8090  206.3670  154.1770 C   0  0  0  0  0  3  0  0  0  0  0  0
  160.3130  211.1700  154.1270 C   0  0  2  0  0  3  0  0  0  0  0  0
  160.8210  210.5850  152.8050 C   0  0  0  0  0  2  0  0  0  0  0  0
  161.2670  209.1960  153.0730 C   0  0  0  0  0  0  0  0  0  0  0  0
  160.9250  207.6130  154.9620 C   0  0  0  0  0  3  0  0  0  0  0  0
  161.2070  208.8310  154.4850 C   0  0  0  0  0  0  0  0  0  0  0  0
  161.0520  210.2570  155.5330 S   0  0  0  0  0  0  0  0  0  0  0  0
  161.3540  206.1350  152.9800 C   0  0  0  0  0  0  0  0  0  0  0  0
  162.3310  207.0760  152.3470 C   0  0  0  0  0  2  0  0  0  0  0  0
  158.8200  211.1300  154.1950 C   0  0  0  0  0  0  0  0  0  0  0  0
  158.1220  211.4680  153.2020 O   0  0  0  0  0  0  0  0  0  0  0  0
  158.1830  210.7030  155.3930 N   0  0  0  0  0  1  0  0  0  0  0  0
  1  5  1  0  0  0  0
  2 12  1  0  0  0  0
  2 15  2  0  0  0  0
  3 15  1  0  0  0  0
  3  9  2  0  0  0  0
  4 21  1  0  0  0  0
  5  4  2  0  0  0  0
  6  8  2  0  0  0  0
  7  6  1  0  0  0  0
  8  4  1  0  0  0  0
  9 10  1  0  0  0  0
 10  1  2  0  0  0  0
 10  6  1  0  0  0  0
 11  9  1  0  0  0  0
 11  7  2  0  0  0  0
 12 13  1  0  0  0  0
 13 14  2  0  0  0  0
 14 16  1  0  0  0  0
 15 17  1  0  0  0  0
 17 16  2  0  0  0  0
 17  1  1  0  0  0  0
 18 19  2  0  0  0  0
 18 13  1  0  0  0  0
 20 18  2  0  0  0  0
 21 30  1  0  0  0  0
 22 31  1  0  0  0  0
 22 26  2  0  0  0  0
 23 27  1  0  0  0  0
 24 32  1  6  0  0  0
 24 29  1  0  0  0  0
 25 26  1  0  0  0  0
 25 24  1  0  0  0  0
 26 28  1  0  0  0  0
 28 27  2  0  0  0  0
 28 29  1  0  0  0  0
 30 23  2  0  0  0  0
 31 30  1  0  0  0  0
 32 34  1  0  0  0  0
 33 32  2  0  0  0  0
M  END
>  <MODEL>
2

>  <REMARK>
 VINA RESULT:     -10.5      1.373      1.979
  Name = 
  4 active torsions:
  status: ('A' for Active; 'I' for Inactive)
    1  A    between atoms: N_3  and  C_25
    2  A    between atoms: C_7  and  C_11
    3  A    between atoms: C_8  and  C_18
    4  A    between atoms: C_18  and  C_30
                            x       y       z     vdW  Elec       q    Type
                         _______ _______ _______ _____ _____    ______ ____

>  <TORSDO>
F 4

$$$$
=
 OpenBabel11062409463D

 34 39  0  0  1  0  0  0  0  0999 V2000
  161.1830  204.6370  149.3670 C   0  0  0  0  0  0  0  0  0  0  0  0
  161.1130  203.3380  145.8950 C   0  0  0  0  0  3  0  0  0  0  0  0
  161.8470  205.3500  146.7290 N   0  0  0  0  0  0  0  0  0  0  0  0
  161.2890  205.5260  151.6580 C   0  0  0  0  0  0  0  0  0  0  0  0
  161.0330  204.4460  150.7610 C   0  0  0  0  0  3  0  0  0  0  0  0
  161.8440  206.9280  149.7890 C   0  0  0  0  0  0  0  0  0  0  0  0
  162.4040  207.9750  148.9860 N   0  0  0  0  0  0  0  0  0  0  0  0
  161.7320  206.7870  151.1720 C   0  0  0  0  0  3  0  0  0  0  0  0
  161.9160  206.2370  147.7490 C   0  0  0  0  0  0  0  0  0  0  0  0
  161.5530  205.8950  148.9810 C   0  0  0  0  0  0  0  0  0  0  0  0
  162.4470  207.5640  147.7690 N   0  0  0  0  0  0  0  0  0  0  0  0
  160.3290  202.0710  145.8780 C   0  0  0  0  0  2  0  0  0  0  0  0
  160.9680  200.9820  146.6650 C   0  0  0  0  0  0  0  0  0  0  0  0
  161.1720  201.1250  147.9720 C   0  0  0  0  0  3  0  0  0  0  0  0
  161.3860  204.0740  146.9760 C   0  0  0  0  0  0  0  0  0  0  0  0
  161.0220  202.3670  148.7510 C   0  0  0  0  0  3  0  0  0  0  0  0
  161.1220  203.6480  148.3460 C   0  0  0  0  0  0  0  0  0  0  0  0
  161.2110  199.7120  146.0440 N   0  0  0  0  0  0  0  0  0  0  0  0
  161.9560  198.8740  146.5940 O   0  0  0  0  0  0  0  0  0  0  0  0
  160.6090  199.3900  144.8480 O   0  0  0  0  0  0  0  0  0  0  0  0
  161.1080  205.3220  153.1250 C   0  0  0  0  0  2  0  0  0  0  0  0
  160.8910  207.3400  156.1870 C   0  0  0  0  0  3  0  0  0  0  0  0
  161.0700  207.7550  153.1500 C   0  0  0  0  0  3  0  0  0  0  0  0
  161.9800  210.8320  156.7590 C   0  0  2  0  0  3  0  0  0  0  0  0
  161.7820  209.3820  157.2150 C   0  0  0  0  0  2  0  0  0  0  0  0
  161.1620  208.6410  156.0890 C   0  0  0  0  0  0  0  0  0  0  0  0
  160.8660  209.1240  153.6660 C   0  0  0  0  0  3  0  0  0  0  0  0
  160.8240  209.4920  154.9520 C   0  0  0  0  0  0  0  0  0  0  0  0
  160.8280  211.2140  155.3870 S   0  0  0  0  0  0  0  0  0  0  0  0
  160.8340  206.6190  153.8120 C   0  0  0  0  0  0  0  0  0  0  0  0
  160.1390  206.5920  155.1370 C   0  0  0  0  0  2  0  0  0  0  0  0
  163.3960  211.0760  156.3440 C   0  0  0  0  0  0  0  0  0  0  0  0
  163.7920  210.7590  155.1900 O   0  0  0  0  0  0  0  0  0  0  0  0
  164.3030  211.6760  157.2610 N   0  0  0  0  0  1  0  0  0  0  0  0
  1  5  1  0  0  0  0
  2 15  2  0  0  0  0
  3 15  1  0  0  0  0
  3  9  2  0  0  0  0
  4 21  1  0  0  0  0
  5  4  2  0  0  0  0
  6  8  2  0  0  0  0
  7  6  1  0  0  0  0
  8  4  1  0  0  0  0
  9 11  1  0  0  0  0
  9 10  1  0  0  0  0
 10  1  2  0  0  0  0
 10  6  1  0  0  0  0
 11  7  2  0  0  0  0
 12  2  1  0  0  0  0
 12 13  1  0  0  0  0
 13 14  2  0  0  0  0
 14 16  1  0  0  0  0
 15 17  1  0  0  0  0
 17 16  2  0  0  0  0
 17  1  1  0  0  0  0
 18 19  2  0  0  0  0
 18 13  1  0  0  0  0
 20 18  2  0  0  0  0
 21 30  1  0  0  0  0
 23 27  1  0  0  0  0
 23 30  2  0  0  0  0
 24 32  1  6  0  0  0
 24 25  1  0  0  0  0
 26 22  2  0  0  0  0
 26 25  1  0  0  0  0
 27 28  2  0  0  0  0
 28 29  1  0  0  0  0
 28 26  1  0  0  0  0
 29 24  1  0  0  0  0
 30 31  1  0  0  0  0
 31 22  1  0  0  0  0
 32 34  1  0  0  0  0
 33 32  2  0  0  0  0
M  END
>  <MODEL>
3

>  <REMARK>
 VINA RESULT:     -10.4      2.276      2.719
  Name = 
  4 active torsions:
  status: ('A' for Active; 'I' for Inactive)
    1  A    between atoms: N_3  and  C_25
    2  A    between atoms: C_7  and  C_11
    3  A    between atoms: C_8  and  C_18
    4  A    between atoms: C_18  and  C_30
                            x       y       z     vdW  Elec       q    Type
                         _______ _______ _______ _____ _____    ______ ____

>  <TORSDO>
F 4

$$$$
=
 OpenBabel11062409463D

 34 39  0  0  1  0  0  0  0  0999 V2000
  161.0370  207.0940  151.8530 C   0  0  0  0  0  0  0  0  0  0  0  0
  161.0160  204.9580  148.8220 C   0  0  0  0  0  3  0  0  0  0  0  0
  161.6650  207.1440  149.1120 N   0  0  0  0  0  0  0  0  0  0  0  0
  161.1100  208.5360  153.8440 C   0  0  0  0  0  0  0  0  0  0  0  0
  160.8980  207.2550  153.2520 C   0  0  0  0  0  3  0  0  0  0  0  0
  161.6000  209.4420  151.6750 C   0  0  0  0  0  0  0  0  0  0  0  0
  162.1140  210.2740  150.6270 N   0  0  0  0  0  0  0  0  0  0  0  0
  161.4970  209.6500  153.0500 C   0  0  0  0  0  3  0  0  0  0  0  0
  161.6980  208.2620  149.8750 C   0  0  0  0  0  0  0  0  0  0  0  0
  161.3530  208.2280  151.1570 C   0  0  0  0  0  0  0  0  0  0  0  0
  162.1720  209.5710  149.5520 N   0  0  0  0  0  0  0  0  0  0  0  0
  160.2870  203.6970  149.1350 C   0  0  0  0  0  2  0  0  0  0  0  0
  160.9740  202.8690  150.1630 C   0  0  0  0  0  0  0  0  0  0  0  0
  161.1740  203.3450  151.3890 C   0  0  0  0  0  3  0  0  0  0  0  0
  161.2590  205.9540  149.6780 C   0  0  0  0  0  0  0  0  0  0  0  0
  160.9730  204.7370  151.8310 C   0  0  0  0  0  3  0  0  0  0  0  0
  161.0170  205.8780  151.1150 C   0  0  0  0  0  0  0  0  0  0  0  0
  161.2700  201.4940  149.8790 N   0  0  0  0  0  0  0  0  0  0  0  0
  161.2550  200.6450  150.7950 O   0  0  0  0  0  0  0  0  0  0  0  0
  161.5500  201.0890  148.5940 O   0  0  0  0  0  0  0  0  0  0  0  0
  160.9410  208.7020  155.3170 C   0  0  0  0  0  2  0  0  0  0  0  0
  160.3720  212.3250  155.5300 C   0  0  0  0  0  3  0  0  0  0  0  0
  158.7380  209.7280  155.4460 C   0  0  0  0  0  3  0  0  0  0  0  0
  157.3790  214.2750  154.5570 C   0  0  2  0  0  3  0  0  0  0  0  0
  158.8960  214.0950  154.6890 C   0  0  0  0  0  2  0  0  0  0  0  0
  159.1360  212.7690  155.3110 C   0  0  0  0  0  0  0  0  0  0  0  0
  157.7130  210.7630  155.6880 C   0  0  0  0  0  3  0  0  0  0  0  0
  157.9080  212.0860  155.7100 C   0  0  0  0  0  0  0  0  0  0  0  0
  156.5200  213.1930  155.7590 S   0  0  0  0  0  0  0  0  0  0  0  0
  160.0550  209.8640  155.6220 C   0  0  0  0  0  0  0  0  0  0  0  0
  160.6560  211.0670  156.2800 C   0  0  0  0  0  2  0  0  0  0  0  0
  156.9230  213.9860  153.1630 C   0  0  0  0  0  0  0  0  0  0  0  0
  155.6940  213.9170  152.8900 O   0  0  0  0  0  0  0  0  0  0  0  0
  157.8860  213.7880  152.1350 N   0  0  0  0  0  1  0  0  0  0  0  0
  1  5  1  0  0  0  0
  2 12  1  0  0  0  0
  2 15  2  0  0  0  0
  3 15  1  0  0  0  0
  3  9  2  0  0  0  0
  4 21  1  0  0  0  0
  5  4  2  0  0  0  0
  6  8  2  0  0  0  0
  7  6  1  0  0  0  0
  8  4  1  0  0  0  0
  9 10  1  0  0  0  0
 10  6  1  0  0  0  0
 10  1  2  0  0  0  0
 11  9  1  0  0  0  0
 11  7  2  0  0  0  0
 12 13  1  0  0  0  0
 13 14  2  0  0  0  0
 14 16  1  0  0  0  0
 15 17  1  0  0  0  0
 17 16  2  0  0  0  0
 17  1  1  0  0  0  0
 18 13  1  0  0  0  0
 18 19  2  0  0  0  0
 20 18  2  0  0  0  0
 21 30  1  0  0  0  0
 22 31  1  0  0  0  0
 23 30  2  0  0  0  0
 23 27  1  0  0  0  0
 24 32  1  6  0  0  0
 24 25  1  0  0  0  0
 24 29  1  0  0  0  0
 25 26  1  0  0  0  0
 26 22  2  0  0  0  0
 26 28  1  0  0  0  0
 27 28  2  0  0  0  0
 28 29  1  0  0  0  0
 30 31  1  0  0  0  0
 33 32  2  0  0  0  0
 34 32  1  0  0  0  0
M  END
>  <MODEL>
4

>  <REMARK>
 VINA RESULT:     -10.4      2.084      3.112
  Name = 
  4 active torsions:
  status: ('A' for Active; 'I' for Inactive)
    1  A    between atoms: N_3  and  C_25
    2  A    between atoms: C_7  and  C_11
    3  A    between atoms: C_8  and  C_18
    4  A    between atoms: C_18  and  C_30
                            x       y       z     vdW  Elec       q    Type
                         _______ _______ _______ _____ _____    ______ ____

>  <TORSDO>
F 4

$$$$
=
 OpenBabel11062409463D

 34 39  0  0  1  0  0  0  0  0999 V2000
  161.6110  206.2070  150.2250 C   0  0  0  0  0  0  0  0  0  0  0  0
  161.4130  203.4550  147.7480 C   0  0  0  0  0  3  0  0  0  0  0  0
  161.0140  203.4670  150.0110 N   0  0  0  0  0  0  0  0  0  0  0  0
  161.6870  208.0090  151.8980 C   0  0  0  0  0  0  0  0  0  0  0  0
  161.7570  207.5790  150.5390 C   0  0  0  0  0  3  0  0  0  0  0  0
  161.3200  205.7370  152.5820 C   0  0  0  0  0  0  0  0  0  0  0  0
  160.9110  204.5850  153.3330 N   0  0  0  0  0  0  0  0  0  0  0  0
  161.4350  207.0780  152.9440 C   0  0  0  0  0  3  0  0  0  0  0  0
  161.1020  204.0900  151.2100 C   0  0  0  0  0  0  0  0  0  0  0  0
  161.4320  205.3740  151.2940 C   0  0  0  0  0  0  0  0  0  0  0  0
  160.7820  203.6020  152.5150 N   0  0  0  0  0  0  0  0  0  0  0  0
  161.9920  203.9330  146.4610 C   0  0  0  0  0  2  0  0  0  0  0  0
  161.2090  205.0380  145.8460 C   0  0  0  0  0  0  0  0  0  0  0  0
  161.0540  206.1930  146.4870 C   0  0  0  0  0  3  0  0  0  0  0  0
  161.2780  204.1810  148.8610 C   0  0  0  0  0  0  0  0  0  0  0  0
  161.4080  206.4700  147.8910 C   0  0  0  0  0  3  0  0  0  0  0  0
  161.5000  205.6210  148.9340 C   0  0  0  0  0  0  0  0  0  0  0  0
  160.7600  204.9150  144.4880 N   0  0  0  0  0  0  0  0  0  0  0  0
  161.1990  205.6850  143.6080 O   0  0  0  0  0  0  0  0  0  0  0  0
  159.8620  203.9340  144.1340 O   0  0  0  0  0  0  0  0  0  0  0  0
  161.8630  209.4550  152.2220 C   0  0  0  0  0  2  0  0  0  0  0  0
  161.2210  211.4690  155.2260 C   0  0  0  0  0  3  0  0  0  0  0  0
  159.6530  209.8020  153.1800 C   0  0  0  0  0  3  0  0  0  0  0  0
  158.1060  213.1830  156.2600 C   0  0  2  0  0  3  0  0  0  0  0  0
  159.6320  213.0950  156.1510 C   0  0  0  0  0  2  0  0  0  0  0  0
  159.9590  211.8120  155.4810 C   0  0  0  0  0  0  0  0  0  0  0  0
  158.6260  210.1640  154.1770 C   0  0  0  0  0  3  0  0  0  0  0  0
  158.7880  210.9770  155.2270 C   0  0  0  0  0  0  0  0  0  0  0  0
  157.3800  211.5040  156.1730 S   0  0  0  0  0  0  0  0  0  0  0  0
  160.9760  209.8570  153.3540 C   0  0  0  0  0  0  0  0  0  0  0  0
  161.6000  210.1300  154.6860 C   0  0  0  0  0  2  0  0  0  0  0  0
  157.5410  214.0610  155.1890 C   0  0  0  0  0  0  0  0  0  0  0  0
  158.2610  214.4530  154.2320 O   0  0  0  0  0  0  0  0  0  0  0  0
  156.1750  214.4530  155.2510 N   0  0  0  0  0  1  0  0  0  0  0  0
  1  5  2  0  0  0  0
  1 10  1  0  0  0  0
  2 15  2  0  0  0  0
  3  9  2  0  0  0  0
  4 21  1  0  0  0  0
  4  8  2  0  0  0  0
  5  4  1  0  0  0  0
  6  8  1  0  0  0  0
  6  7  1  0  0  0  0
  9 10  1  0  0  0  0
  9 11  1  0  0  0  0
 10  6  2  0  0  0  0
 11  7  2  0  0  0  0
 12  2  1  0  0  0  0
 13 12  1  0  0  0  0
 13 14  2  0  0  0  0
 14 16  1  0  0  0  0
 15 17  1  0  0  0  0
 15  3  1  0  0  0  0
 16 17  2  0  0  0  0
 17  1  1  0  0  0  0
 18 13  1  0  0  0  0
 19 18  2  0  0  0  0
 20 18  2  0  0  0  0
 21 30  1  0  0  0  0
 22 26  2  0  0  0  0
 23 30  2  0  0  0  0
 23 27  1  0  0  0  0
 24 32  1  6  0  0  0
 25 24  1  0  0  0  0
 26 25  1  0  0  0  0
 27 28  2  0  0  0  0
 28 26  1  0  0  0  0
 28 29  1  0  0  0  0
 29 24  1  0  0  0  0
 30 31  1  0  0  0  0
 31 22  1  0  0  0  0
 32 34  1  0  0  0  0
 33 32  2  0  0  0  0
M  END
>  <MODEL>
5

>  <REMARK>
 VINA RESULT:     -10.4      2.530      3.410
  Name = 
  4 active torsions:
  status: ('A' for Active; 'I' for Inactive)
    1  A    between atoms: N_3  and  C_25
    2  A    between atoms: C_7  and  C_11
    3  A    between atoms: C_8  and  C_18
    4  A    between atoms: C_18  and  C_30
                            x       y       z     vdW  Elec       q    Type
                         _______ _______ _______ _____ _____    ______ ____

>  <TORSDO>
F 4

$$$$
=
 OpenBabel11062409463D

 34 39  0  0  1  0  0  0  0  0999 V2000
  161.4410  206.9790  150.2160 C   0  0  0  0  0  0  0  0  0  0  0  0
  161.6000  203.8500  148.2310 C   0  0  0  0  0  3  0  0  0  0  0  0
  161.1710  204.1900  150.4630 N   0  0  0  0  0  0  0  0  0  0  0  0
  161.2820  209.0290  151.5660 C   0  0  0  0  0  0  0  0  0  0  0  0
  161.4200  208.3920  150.2960 C   0  0  0  0  0  3  0  0  0  0  0  0
  161.1740  206.8740  152.6200 C   0  0  0  0  0  0  0  0  0  0  0  0
  160.8930  205.8240  153.5540 N   0  0  0  0  0  0  0  0  0  0  0  0
  161.1270  208.2610  152.7520 C   0  0  0  0  0  3  0  0  0  0  0  0
  161.1700  205.0090  151.5420 C   0  0  0  0  0  0  0  0  0  0  0  0
  161.3460  206.3190  151.4090 C   0  0  0  0  0  0  0  0  0  0  0  0
  160.8910  204.7100  152.9120 N   0  0  0  0  0  0  0  0  0  0  0  0
  162.1370  204.1730  146.8790 C   0  0  0  0  0  2  0  0  0  0  0  0
  161.2370  205.0610  146.0940 C   0  0  0  0  0  0  0  0  0  0  0  0
  160.9400  206.2800  146.5350 C   0  0  0  0  0  3  0  0  0  0  0  0
  161.3660  204.7290  149.2100 C   0  0  0  0  0  0  0  0  0  0  0  0
  161.2400  206.8250  147.8710 C   0  0  0  0  0  3  0  0  0  0  0  0
  161.4160  206.1780  149.0400 C   0  0  0  0  0  0  0  0  0  0  0  0
  160.8250  204.6630  144.7790 N   0  0  0  0  0  0  0  0  0  0  0  0
  160.1190  203.6450  144.6200 O   0  0  0  0  0  0  0  0  0  0  0  0
  161.1800  205.4100  143.6780 O   0  0  0  0  0  0  0  0  0  0  0  0
  161.2830  210.5190  151.6440 C   0  0  0  0  0  2  0  0  0  0  0  0
  158.6120  212.6010  153.0660 C   0  0  0  0  0  3  0  0  0  0  0  0
  160.2960  210.1530  153.8380 C   0  0  0  0  0  3  0  0  0  0  0  0
  156.1140  211.7360  155.6580 C   0  0  2  0  0  3  0  0  0  0  0  0
  156.5380  212.4480  154.3690 C   0  0  0  0  0  2  0  0  0  0  0  0
  157.9700  212.1350  154.1360 C   0  0  0  0  0  0  0  0  0  0  0  0
  159.5330  210.4390  155.0700 C   0  0  0  0  0  3  0  0  0  0  0  0
  158.5760  211.3620  155.2170 C   0  0  0  0  0  0  0  0  0  0  0  0
  157.5870  211.3950  156.6910 S   0  0  0  0  0  0  0  0  0  0  0  0
  160.4840  210.9900  152.8130 C   0  0  0  0  0  0  0  0  0  0  0  0
  160.0810  212.4300  152.8690 C   0  0  0  0  0  2  0  0  0  0  0  0
  155.3740  210.4730  155.3560 C   0  0  0  0  0  0  0  0  0  0  0  0
  155.5480  209.8710  154.2620 O   0  0  0  0  0  0  0  0  0  0  0  0
  154.4670  209.9430  156.3150 N   0  0  0  0  0  1  0  0  0  0  0  0
  1  5  2  0  0  0  0
  1 10  1  0  0  0  0
  2 15  2  0  0  0  0
  3  9  2  0  0  0  0
  4 21  1  0  0  0  0
  4  8  2  0  0  0  0
  5  4  1  0  0  0  0
  6  8  1  0  0  0  0
  6  7  1  0  0  0  0
  9 11  1  0  0  0  0
 10  9  1  0  0  0  0
 10  6  2  0  0  0  0
 11  7  2  0  0  0  0
 12  2  1  0  0  0  0
 13 14  2  0  0  0  0
 13 12  1  0  0  0  0
 14 16  1  0  0  0  0
 15  3  1  0  0  0  0
 16 17  2  0  0  0  0
 17 15  1  0  0  0  0
 17  1  1  0  0  0  0
 18 13  1  0  0  0  0
 19 18  2  0  0  0  0
 20 18  2  0  0  0  0
 21 30  1  0  0  0  0
 22 26  2  0  0  0  0
 23 27  1  0  0  0  0
 24 32  1  6  0  0  0
 24 29  1  0  0  0  0
 25 24  1  0  0  0  0
 26 25  1  0  0  0  0
 26 28  1  0  0  0  0
 27 28  2  0  0  0  0
 28 29  1  0  0  0  0
 30 31  1  0  0  0  0
 30 23  2  0  0  0  0
 31 22  1  0  0  0  0
 32 34  1  0  0  0  0
 33 32  2  0  0  0  0
M  END
>  <MODEL>
6

>  <REMARK>
 VINA RESULT:      -9.9      2.287      3.472
  Name = 
  4 active torsions:
  status: ('A' for Active; 'I' for Inactive)
    1  A    between atoms: N_3  and  C_25
    2  A    between atoms: C_7  and  C_11
    3  A    between atoms: C_8  and  C_18
    4  A    between atoms: C_18  and  C_30
                            x       y       z     vdW  Elec       q    Type
                         _______ _______ _______ _____ _____    ______ ____

>  <TORSDO>
F 4

$$$$
=
 OpenBabel11062409463D

 34 39  0  0  1  0  0  0  0  0999 V2000
  161.9240  208.0600  149.2180 C   0  0  0  0  0  0  0  0  0  0  0  0
  161.1760  204.4580  148.7520 C   0  0  0  0  0  3  0  0  0  0  0  0
  160.7800  205.8540  150.5340 N   0  0  0  0  0  0  0  0  0  0  0  0
  162.3600  210.4570  149.5590 C   0  0  0  0  0  0  0  0  0  0  0  0
  162.3460  209.3110  148.7080 C   0  0  0  0  0  3  0  0  0  0  0  0
  161.5330  209.1090  151.3650 C   0  0  0  0  0  0  0  0  0  0  0  0
  160.8960  208.6980  152.5820 N   0  0  0  0  0  0  0  0  0  0  0  0
  161.9190  210.3680  150.9080 C   0  0  0  0  0  3  0  0  0  0  0  0
  160.9890  207.0340  151.1640 C   0  0  0  0  0  0  0  0  0  0  0  0
  161.5740  208.0500  150.5400 C   0  0  0  0  0  0  0  0  0  0  0  0
  160.5710  207.4600  152.4630 N   0  0  0  0  0  0  0  0  0  0  0  0
  161.8460  203.9930  147.5050 C   0  0  0  0  0  2  0  0  0  0  0  0
  161.3070  204.6420  146.2790 C   0  0  0  0  0  0  0  0  0  0  0  0
  161.3900  205.9600  146.1220 C   0  0  0  0  0  3  0  0  0  0  0  0
  161.1890  205.7070  149.2260 C   0  0  0  0  0  0  0  0  0  0  0  0
  161.7870  206.9410  147.1480 C   0  0  0  0  0  3  0  0  0  0  0  0
  161.7000  206.8590  148.4900 C   0  0  0  0  0  0  0  0  0  0  0  0
  160.8480  203.8260  145.1920 N   0  0  0  0  0  0  0  0  0  0  0  0
  160.4750  204.3520  144.1230 O   0  0  0  0  0  0  0  0  0  0  0  0
  160.8380  202.4530  145.3020 O   0  0  0  0  0  0  0  0  0  0  0  0
  162.8270  211.7680  149.0180 C   0  0  0  0  0  2  0  0  0  0  0  0
  161.9430  214.1930  146.4050 C   0  0  0  0  0  3  0  0  0  0  0  0
  161.0280  211.4410  147.4120 C   0  0  0  0  0  3  0  0  0  0  0  0
  160.2210  213.6180  143.1780 C   0  0  2  0  0  3  0  0  0  0  0  0
  161.2630  214.3250  144.0510 C   0  0  0  0  0  2  0  0  0  0  0  0
  161.1410  213.7790  145.4250 C   0  0  0  0  0  0  0  0  0  0  0  0
  160.0190  211.7770  146.3870 C   0  0  0  0  0  3  0  0  0  0  0  0
  160.0310  212.8440  145.5790 C   0  0  0  0  0  0  0  0  0  0  0  0
  158.8770  212.9550  144.2330 S   0  0  0  0  0  0  0  0  0  0  0  0
  161.8660  212.2960  148.0050 C   0  0  0  0  0  0  0  0  0  0  0  0
  161.7610  213.7780  147.8260 C   0  0  0  0  0  2  0  0  0  0  0  0
  160.8460  212.5270  142.3700 C   0  0  0  0  0  0  0  0  0  0  0  0
  162.0570  212.2180  142.5340 O   0  0  0  0  0  0  0  0  0  0  0  0
  160.0640  211.8280  141.4080 N   0  0  0  0  0  1  0  0  0  0  0  0
  1 10  1  0  0  0  0
  2 15  2  0  0  0  0
  3  9  2  0  0  0  0
  4  8  2  0  0  0  0
  5  1  2  0  0  0  0
  5  4  1  0  0  0  0
  6  7  1  0  0  0  0
  8  6  1  0  0  0  0
  9 11  1  0  0  0  0
 10  9  1  0  0  0  0
 10  6  2  0  0  0  0
 11  7  2  0  0  0  0
 12  2  1  0  0  0  0
 13 12  1  0  0  0  0
 14 13  2  0  0  0  0
 14 16  1  0  0  0  0
 15  3  1  0  0  0  0
 16 17  2  0  0  0  0
 17  1  1  0  0  0  0
 17 15  1  0  0  0  0
 18 20  2  0  0  0  0
 18 13  1  0  0  0  0
 19 18  2  0  0  0  0
 21  4  1  0  0  0  0
 22 31  1  0  0  0  0
 23 30  2  0  0  0  0
 24 32  1  1  0  0  0
 24 25  1  0  0  0  0
 24 29  1  0  0  0  0
 25 26  1  0  0  0  0
 26 28  1  0  0  0  0
 26 22  2  0  0  0  0
 27 23  1  0  0  0  0
 28 27  2  0  0  0  0
 29 28  1  0  0  0  0
 30 21  1  0  0  0  0
 31 30  1  0  0  0  0
 32 33  2  0  0  0  0
 34 32  1  0  0  0  0
M  END
>  <MODEL>
7

>  <REMARK>
 VINA RESULT:      -9.7      5.473      7.603
  Name = 
  4 active torsions:
  status: ('A' for Active; 'I' for Inactive)
    1  A    between atoms: N_3  and  C_25
    2  A    between atoms: C_7  and  C_11
    3  A    between atoms: C_8  and  C_18
    4  A    between atoms: C_18  and  C_30
                            x       y       z     vdW  Elec       q    Type
                         _______ _______ _______ _____ _____    ______ ____

>  <TORSDO>
F 4

$$$$
=
 OpenBabel11062409463D

 34 39  0  0  1  0  0  0  0  0999 V2000
  161.2380  206.4000  150.5170 C   0  0  0  0  0  0  0  0  0  0  0  0
  161.7740  203.9010  147.8290 C   0  0  0  0  0  3  0  0  0  0  0  0
  161.3780  203.6260  150.0760 N   0  0  0  0  0  0  0  0  0  0  0  0
  160.8350  208.0170  152.3260 C   0  0  0  0  0  0  0  0  0  0  0  0
  161.0190  207.7330  150.9390 C   0  0  0  0  0  3  0  0  0  0  0  0
  161.0710  205.6800  152.8220 C   0  0  0  0  0  0  0  0  0  0  0  0
  160.9750  204.4050  153.4720 N   0  0  0  0  0  0  0  0  0  0  0  0
  160.8310  206.9720  153.2890 C   0  0  0  0  0  3  0  0  0  0  0  0
  161.2960  204.1500  151.3220 C   0  0  0  0  0  0  0  0  0  0  0  0
  161.2790  205.4650  151.5130 C   0  0  0  0  0  0  0  0  0  0  0  0
  161.1100  203.4920  152.5770 N   0  0  0  0  0  0  0  0  0  0  0  0
  162.2130  204.6160  146.5980 C   0  0  0  0  0  2  0  0  0  0  0  0
  161.1700  205.5260  146.0520 C   0  0  0  0  0  0  0  0  0  0  0  0
  160.7170  206.5450  146.7760 C   0  0  0  0  0  3  0  0  0  0  0  0
  161.4510  204.4740  148.9920 C   0  0  0  0  0  0  0  0  0  0  0  0
  160.9820  206.7890  148.2050 C   0  0  0  0  0  3  0  0  0  0  0  0
  161.2880  205.9120  149.1810 C   0  0  0  0  0  0  0  0  0  0  0  0
  160.7740  205.4010  144.6780 N   0  0  0  0  0  0  0  0  0  0  0  0
  161.2060  206.2020  143.8230 O   0  0  0  0  0  0  0  0  0  0  0  0
  159.9360  204.3840  144.2800 O   0  0  0  0  0  0  0  0  0  0  0  0
  160.6260  209.4280  152.7650 C   0  0  0  0  0  2  0  0  0  0  0  0
  162.0720  210.0940  149.4550 C   0  0  0  0  0  3  0  0  0  0  0  0
  160.4560  211.5650  151.6110 C   0  0  0  0  0  3  0  0  0  0  0  0
  161.0730  212.6230  146.9410 C   0  0  2  0  0  3  0  0  0  0  0  0
  161.5900  211.2350  147.3360 C   0  0  0  0  0  2  0  0  0  0  0  0
  161.6730  211.1940  148.8170 C   0  0  0  0  0  0  0  0  0  0  0  0
  160.7570  212.6280  150.6320 C   0  0  0  0  0  3  0  0  0  0  0  0
  161.3630  212.4730  149.4490 C   0  0  0  0  0  0  0  0  0  0  0  0
  161.4110  213.8160  148.2890 S   0  0  0  0  0  0  0  0  0  0  0  0
  161.0740  210.3840  151.7090 C   0  0  0  0  0  0  0  0  0  0  0  0
  162.3070  210.0570  150.9280 C   0  0  0  0  0  2  0  0  0  0  0  0
  159.6130  212.5830  146.6230 C   0  0  0  0  0  0  0  0  0  0  0  0
  158.7560  212.8840  147.4970 O   0  0  0  0  0  0  0  0  0  0  0  0
  159.1880  212.2040  145.3190 N   0  0  0  0  0  1  0  0  0  0  0  0
  1  5  2  0  0  0  0
  1 10  1  0  0  0  0
  2 15  2  0  0  0  0
  3  9  2  0  0  0  0
  4 21  1  0  0  0  0
  4  8  2  0  0  0  0
  5  4  1  0  0  0  0
  6  8  1  0  0  0  0
  6  7  1  0  0  0  0
  9 10  1  0  0  0  0
  9 11  1  0  0  0  0
 10  6  2  0  0  0  0
 11  7  2  0  0  0  0
 12  2  1  0  0  0  0
 13 12  1  0  0  0  0
 13 14  2  0  0  0  0
 14 16  1  0  0  0  0
 15 17  1  0  0  0  0
 15  3  1  0  0  0  0
 16 17  2  0  0  0  0
 17  1  1  0  0  0  0
 18 13  1  0  0  0  0
 19 18  2  0  0  0  0
 20 18  2  0  0  0  0
 22 31  1  0  0  0  0
 23 30  2  0  0  0  0
 24 32  1  1  0  0  0
 24 25  1  0  0  0  0
 24 29  1  0  0  0  0
 25 26  1  0  0  0  0
 26 28  1  0  0  0  0
 26 22  2  0  0  0  0
 27 23  1  0  0  0  0
 28 27  2  0  0  0  0
 29 28  1  0  0  0  0
 30 21  1  0  0  0  0
 31 30  1  0  0  0  0
 32 33  2  0  0  0  0
 34 32  1  0  0  0  0
M  END
>  <MODEL>
8

>  <REMARK>
 VINA RESULT:      -9.7      3.938      5.536
  Name = 
  4 active torsions:
  status: ('A' for Active; 'I' for Inactive)
    1  A    between atoms: N_3  and  C_25
    2  A    between atoms: C_7  and  C_11
    3  A    between atoms: C_8  and  C_18
    4  A    between atoms: C_18  and  C_30
                            x       y       z     vdW  Elec       q    Type
                         _______ _______ _______ _____ _____    ______ ____

>  <TORSDO>
F 4

$$$$
=
 OpenBabel11062409463D

 34 39  0  0  1  0  0  0  0  0999 V2000
  161.6250  207.5500  151.4740 C   0  0  0  0  0  0  0  0  0  0  0  0
  162.0030  209.3940  148.2800 C   0  0  0  0  0  3  0  0  0  0  0  0
  161.4310  207.2070  148.6900 N   0  0  0  0  0  0  0  0  0  0  0  0
  161.3200  206.2950  153.5680 C   0  0  0  0  0  0  0  0  0  0  0  0
  161.5540  207.5270  152.8880 C   0  0  0  0  0  3  0  0  0  0  0  0
  161.2180  205.1630  151.4530 C   0  0  0  0  0  0  0  0  0  0  0  0
  160.9160  204.2050  150.4300 N   0  0  0  0  0  0  0  0  0  0  0  0
  161.1180  205.0890  152.8420 C   0  0  0  0  0  3  0  0  0  0  0  0
  161.3380  206.1640  149.5490 C   0  0  0  0  0  0  0  0  0  0  0  0
  161.4790  206.3380  150.8580 C   0  0  0  0  0  0  0  0  0  0  0  0
  160.9880  204.8010  149.2930 N   0  0  0  0  0  0  0  0  0  0  0  0
  162.6090  210.7240  148.5700 C   0  0  0  0  0  2  0  0  0  0  0  0
  161.7300  211.5960  149.3950 C   0  0  0  0  0  0  0  0  0  0  0  0
  161.3680  211.2220  150.6190 C   0  0  0  0  0  3  0  0  0  0  0  0
  161.6830  208.4670  149.1870 C   0  0  0  0  0  0  0  0  0  0  0  0
  161.5700  209.8940  151.2250 C   0  0  0  0  0  3  0  0  0  0  0  0
  161.6960  208.6920  150.6290 C   0  0  0  0  0  0  0  0  0  0  0  0
  161.4110  212.9160  148.9330 N   0  0  0  0  0  0  0  0  0  0  0  0
  160.3530  213.4720  149.2960 O   0  0  0  0  0  0  0  0  0  0  0  0
  162.2760  213.5970  148.1060 O   0  0  0  0  0  0  0  0  0  0  0  0
  161.2680  206.2770  155.0600 C   0  0  0  0  0  2  0  0  0  0  0  0
  161.7330  209.8920  155.5170 C   0  0  0  0  0  3  0  0  0  0  0  0
  159.4870  207.8070  155.6990 C   0  0  0  0  0  3  0  0  0  0  0  0
  159.2310  212.6110  155.2850 C   0  0  2  0  0  3  0  0  0  0  0  0
  160.6400  212.0450  155.0790 C   0  0  0  0  0  2  0  0  0  0  0  0
  160.6400  210.6500  155.5870 C   0  0  0  0  0  0  0  0  0  0  0  0
  158.8420  209.0410  156.1940 C   0  0  0  0  0  3  0  0  0  0  0  0
  159.3820  210.2650  156.2190 C   0  0  0  0  0  0  0  0  0  0  0  0
  158.3740  211.6750  156.6070 S   0  0  0  0  0  0  0  0  0  0  0  0
  160.8000  207.5920  155.5900 C   0  0  0  0  0  0  0  0  0  0  0  0
  161.8180  208.5400  156.1430 C   0  0  0  0  0  2  0  0  0  0  0  0
  158.4440  212.5730  154.0140 C   0  0  0  0  0  0  0  0  0  0  0  0
  157.2460  212.1810  154.0110 O   0  0  0  0  0  0  0  0  0  0  0  0
  159.0550  212.9860  152.7980 N   0  0  0  0  0  1  0  0  0  0  0  0
  1  5  1  0  0  0  0
  2 12  1  0  0  0  0
  2 15  2  0  0  0  0
  3 15  1  0  0  0  0
  3  9  2  0  0  0  0
  4 21  1  0  0  0  0
  5  4  2  0  0  0  0
  6  8  2  0  0  0  0
  7  6  1  0  0  0  0
  8  4  1  0  0  0  0
  9 10  1  0  0  0  0
 10  6  1  0  0  0  0
 10  1  2  0  0  0  0
 11  9  1  0  0  0  0
 11  7  2  0  0  0  0
 12 13  1  0  0  0  0
 13 14  2  0  0  0  0
 14 16  1  0  0  0  0
 15 17  1  0  0  0  0
 17 16  2  0  0  0  0
 17  1  1  0  0  0  0
 18 19  2  0  0  0  0
 18 13  1  0  0  0  0
 20 18  2  0  0  0  0
 21 30  1  0  0  0  0
 22 26  2  0  0  0  0
 22 31  1  0  0  0  0
 23 27  1  0  0  0  0
 24 32  1  6  0  0  0
 24 29  1  0  0  0  0
 25 24  1  0  0  0  0
 25 26  1  0  0  0  0
 26 28  1  0  0  0  0
 27 28  2  0  0  0  0
 28 29  1  0  0  0  0
 30 23  2  0  0  0  0
 30 31  1  0  0  0  0
 33 32  2  0  0  0  0
 34 32  1  0  0  0  0
M  END
>  <MODEL>
9

>  <REMARK>
 VINA RESULT:      -9.1      4.186      5.690
  Name = 
  4 active torsions:
  status: ('A' for Active; 'I' for Inactive)
    1  A    between atoms: N_3  and  C_25
    2  A    between atoms: C_7  and  C_11
    3  A    between atoms: C_8  and  C_18
    4  A    between atoms: C_18  and  C_30
                            x       y       z     vdW  Elec       q    Type
                         _______ _______ _______ _____ _____    ______ ____

>  <TORSDO>
F 4

$$$$
