=
 OpenBabel11052421573D

 30 33  0  0  1  0  0  0  0  0999 V2000
  161.4490  205.7630  147.8430 N   0  0  0  0  0  0  0  0  0  0  0  0
  161.5720  204.9090  145.5970 C   0  0  0  0  0  0  0  0  0  0  0  0
  161.0260  201.9230  149.6010 C   0  0  0  0  0  2  0  0  0  0  0  0
  161.2920  205.6550  149.2630 C   0  0  0  0  0  0  0  0  0  0  0  0
  160.2930  201.9190  150.9330 C   0  0  0  0  0  2  0  0  0  0  0  0
  161.2250  203.8920  144.8030 C   0  0  0  0  0  3  0  0  0  0  0  0
  161.8990  206.1090  145.0560 F   0  0  0  0  0  0  0  0  0  0  0  0
  161.0540  203.2580  148.9890 N   0  0  0  0  0  0  0  0  0  0  0  0
  160.7900  202.5990  145.3740 C   0  0  0  0  0  3  0  0  0  0  0  0
  161.5170  204.7350  147.0580 C   0  0  0  0  0  0  0  0  0  0  0  0
  161.0680  204.4440  149.8250 C   0  0  0  0  0  0  0  0  0  0  0  0
  160.9390  202.9470  151.8400 C   0  0  0  0  0  2  0  0  0  0  0  0
  160.6880  204.3370  151.2810 C   0  0  0  0  0  2  0  0  0  0  0  0
  160.8960  202.3510  146.6860 C   0  0  0  0  0  3  0  0  0  0  0  0
  161.5680  203.3350  147.6150 C   0  0  2  0  0  3  0  0  0  0  0  0
  161.2870  206.9490  150.0340 C   0  0  1  0  0  3  0  0  0  0  0  0
  163.3330  206.5610  151.2260 O   0  0  0  0  0  0  0  0  0  0  0  0
  162.1190  206.8980  151.2850 C   0  0  0  0  0  0  0  0  0  0  0  0
  160.8970  208.7030  153.0400 S   0  0  0  0  0  0  0  0  0  0  0  0
  161.3660  206.3320  153.6490 C   0  0  0  0  0  3  0  0  0  0  0  0
  161.5170  207.2120  152.5870 C   0  0  0  0  0  0  0  0  0  0  0  0
  160.4230  208.2670  154.5940 C   0  0  0  0  0  3  0  0  0  0  0  0
  160.7570  206.9250  154.7650 C   0  0  0  0  0  3  0  0  0  0  0  0
  161.6070  208.4140  148.9940 S   0  0  0  0  0  0  0  0  0  0  0  0
  162.2000  209.3910  150.4060 C   0  0  0  0  0  2  0  0  0  0  0  0
  161.8750  210.8580  150.2020 C   0  0  0  0  0  2  0  0  0  0  0  0
  162.2420  211.2660  148.8540 N   0  0  0  0  0  2  0  0  0  0  0  0
  161.1960  213.3490  149.0090 O   0  0  0  0  0  0  0  0  0  0  0  0
  161.8670  212.5340  148.3200 C   0  0  0  0  0  0  0  0  0  0  0  0
  162.2700  212.8970  146.9370 C   0  0  0  0  0  1  0  0  0  0  0  0
  1  4  1  0  0  0  0
  2 10  1  0  0  0  0
  3  5  1  0  0  0  0
  4 11  2  0  0  0  0
  4 16  1  0  0  0  0
  5 12  1  0  0  0  0
  6  9  1  0  0  0  0
  6  2  2  0  0  0  0
  7  2  1  0  0  0  0
  8  3  1  0  0  0  0
  8 11  1  0  0  0  0
  9 14  2  0  0  0  0
 10 15  1  0  0  0  0
 10  1  2  0  0  0  0
 11 13  1  0  0  0  0
 13 12  1  0  0  0  0
 15 14  1  6  0  0  0
 15  8  1  0  0  0  0
 16 24  1  6  0  0  0
 16 18  1  0  0  0  0
 17 18  2  0  0  0  0
 18 21  1  0  0  0  0
 19 22  1  0  0  0  0
 20 23  1  0  0  0  0
 21 19  1  0  0  0  0
 21 20  2  0  0  0  0
 22 23  2  0  0  0  0
 24 25  1  0  0  0  0
 26 25  1  0  0  0  0
 27 26  1  0  0  0  0
 29 27  1  0  0  0  0
 29 28  2  0  0  0  0
 30 29  1  0  0  0  0
M  END
>  <MODEL>
1

>  <REMARK>
 VINA RESULT:      -8.3      0.000      0.000
  Name = 
  7 active torsions:
  status: ('A' for Active; 'I' for Inactive)
    1  A    between atoms: C_4  and  C_13
    2  A    between atoms: N_7  and  C_16
    3  A    between atoms: C_8  and  C_12
    4  A    between atoms: C_8  and  C_13
    5  A    between atoms: C_13  and  S_27
    6  A    between atoms: C_16  and  C_30
    7  A    between atoms: S_27  and  C_30
                            x       y       z     vdW  Elec       q    Type
                         _______ _______ _______ _____ _____    ______ ____

>  <TORSDO>
F 7

$$$$
=
 OpenBabel11052421573D

 30 33  0  0  1  0  0  0  0  0999 V2000
  161.0650  204.5960  150.2360 N   0  0  0  0  0  0  0  0  0  0  0  0
  160.8000  202.2950  150.8860 C   0  0  0  0  0  0  0  0  0  0  0  0
  161.1880  203.7210  146.0840 C   0  0  0  0  0  2  0  0  0  0  0  0
  161.2520  205.6630  149.3000 C   0  0  0  0  0  0  0  0  0  0  0  0
  161.9560  204.7350  145.2510 C   0  0  0  0  0  2  0  0  0  0  0  0
  161.0300  201.0310  150.5200 C   0  0  0  0  0  3  0  0  0  0  0  0
  160.5670  202.5900  152.1900 F   0  0  0  0  0  0  0  0  0  0  0  0
  161.2640  204.0150  147.5210 N   0  0  0  0  0  0  0  0  0  0  0  0
  161.3620  200.6960  149.1180 C   0  0  0  0  0  3  0  0  0  0  0  0
  160.8810  203.3640  149.8780 C   0  0  0  0  0  0  0  0  0  0  0  0
  161.3820  205.3870  147.9800 C   0  0  0  0  0  0  0  0  0  0  0  0
  161.4330  206.1190  145.5760 C   0  0  0  0  0  2  0  0  0  0  0  0
  161.7930  206.4670  147.0110 C   0  0  0  0  0  2  0  0  0  0  0  0
  161.2720  201.6150  148.1470 C   0  0  0  0  0  3  0  0  0  0  0  0
  160.7200  202.9940  148.4260 C   0  0  2  0  0  3  0  0  0  0  0  0
  161.3980  207.0450  149.8820 C   0  0  1  0  0  3  0  0  0  0  0  0
  163.4560  206.8770  151.1040 O   0  0  0  0  0  0  0  0  0  0  0  0
  162.2120  207.0730  151.1470 C   0  0  0  0  0  0  0  0  0  0  0  0
  161.0580  208.7860  153.0350 S   0  0  0  0  0  0  0  0  0  0  0  0
  161.2500  206.3260  153.3810 C   0  0  0  0  0  3  0  0  0  0  0  0
  161.5570  207.2990  152.4420 C   0  0  0  0  0  0  0  0  0  0  0  0
  160.4410  208.2300  154.4970 C   0  0  0  0  0  3  0  0  0  0  0  0
  160.6280  206.8490  154.5240 C   0  0  0  0  0  3  0  0  0  0  0  0
  161.8980  208.2990  148.6550 S   0  0  0  0  0  0  0  0  0  0  0  0
  161.9100  209.6290  149.8940 C   0  0  0  0  0  2  0  0  0  0  0  0
  162.2640  210.9500  149.2410 C   0  0  0  0  0  2  0  0  0  0  0  0
  161.5010  211.1190  148.0130 N   0  0  0  0  0  2  0  0  0  0  0  0
  161.4440  213.4500  148.1600 O   0  0  0  0  0  0  0  0  0  0  0  0
  161.1240  212.4070  147.5300 C   0  0  0  0  0  0  0  0  0  0  0  0
  160.3450  212.5190  146.2690 C   0  0  0  0  0  1  0  0  0  0  0  0
  2  7  1  0  0  0  0
  3  8  1  0  0  0  0
  4 16  1  0  0  0  0
  4  1  1  0  0  0  0
  5 12  1  0  0  0  0
  5  3  1  0  0  0  0
  6  2  2  0  0  0  0
  8 11  1  0  0  0  0
  8 15  1  0  0  0  0
  9  6  1  0  0  0  0
 10  1  2  0  0  0  0
 10  2  1  0  0  0  0
 11  4  2  0  0  0  0
 12 13  1  0  0  0  0
 13 11  1  0  0  0  0
 14  9  2  0  0  0  0
 15 14  1  1  0  0  0
 15 10  1  0  0  0  0
 16 24  1  6  0  0  0
 16 18  1  0  0  0  0
 17 18  2  0  0  0  0
 18 21  1  0  0  0  0
 19 22  1  0  0  0  0
 20 23  1  0  0  0  0
 21 19  1  0  0  0  0
 21 20  2  0  0  0  0
 22 23  2  0  0  0  0
 24 25  1  0  0  0  0
 26 25  1  0  0  0  0
 27 26  1  0  0  0  0
 29 27  1  0  0  0  0
 29 28  2  0  0  0  0
 30 29  1  0  0  0  0
M  END
>  <MODEL>
2

>  <REMARK>
 VINA RESULT:      -8.3      1.802      3.317
  Name = 
  7 active torsions:
  status: ('A' for Active; 'I' for Inactive)
    1  A    between atoms: C_4  and  C_13
    2  A    between atoms: N_7  and  C_16
    3  A    between atoms: C_8  and  C_12
    4  A    between atoms: C_8  and  C_13
    5  A    between atoms: C_13  and  S_27
    6  A    between atoms: C_16  and  C_30
    7  A    between atoms: S_27  and  C_30
                            x       y       z     vdW  Elec       q    Type
                         _______ _______ _______ _____ _____    ______ ____

>  <TORSDO>
F 7

$$$$
=
 OpenBabel11052421573D

 30 33  0  0  1  0  0  0  0  0999 V2000
  160.1500  209.9450  152.4250 N   0  0  0  0  0  0  0  0  0  0  0  0
  159.3650  212.2180  152.3900 C   0  0  0  0  0  0  0  0  0  0  0  0
  159.7460  209.5530  156.6320 C   0  0  0  0  0  2  0  0  0  0  0  0
  160.5300  208.7150  153.0540 C   0  0  0  0  0  0  0  0  0  0  0  0
  160.6800  208.5310  157.2600 C   0  0  0  0  0  2  0  0  0  0  0  0
  159.2430  213.3350  153.1130 C   0  0  0  0  0  3  0  0  0  0  0  0
  159.3090  212.2800  151.0360 F   0  0  0  0  0  0  0  0  0  0  0  0
  159.9980  209.7220  155.1950 N   0  0  0  0  0  0  0  0  0  0  0  0
  159.3780  213.3020  154.5860 C   0  0  0  0  0  3  0  0  0  0  0  0
  159.6380  210.9430  153.0720 C   0  0  0  0  0  0  0  0  0  0  0  0
  160.4890  208.6090  154.4040 C   0  0  0  0  0  0  0  0  0  0  0  0
  160.5460  207.2260  156.5020 C   0  0  0  0  0  2  0  0  0  0  0  0
  161.0860  207.4070  155.0930 C   0  0  0  0  0  2  0  0  0  0  0  0
  159.4490  212.1410  155.2490 C   0  0  0  0  0  3  0  0  0  0  0  0
  159.2820  210.8210  154.5320 C   0  0  2  0  0  3  0  0  0  0  0  0
  161.0600  207.6360  152.1460 C   0  0  1  0  0  3  0  0  0  0  0  0
  162.4490  209.2060  150.9790 O   0  0  0  0  0  0  0  0  0  0  0  0
  161.7270  208.1740  150.9110 C   0  0  0  0  0  0  0  0  0  0  0  0
  162.5360  207.6420  148.2850 S   0  0  0  0  0  0  0  0  0  0  0  0
  160.4540  206.6960  149.2770 C   0  0  0  0  0  3  0  0  0  0  0  0
  161.5200  207.5180  149.6140 C   0  0  0  0  0  0  0  0  0  0  0  0
  161.6470  206.6560  147.2520 C   0  0  0  0  0  3  0  0  0  0  0  0
  160.5300  206.2190  147.9600 C   0  0  0  0  0  3  0  0  0  0  0  0
  162.0380  206.3690  153.0230 S   0  0  0  0  0  0  0  0  0  0  0  0
  160.9700  205.0200  152.4390 C   0  0  0  0  0  2  0  0  0  0  0  0
  161.7430  204.1050  151.5090 C   0  0  0  0  0  2  0  0  0  0  0  0
  160.8890  203.0140  151.0630 N   0  0  0  0  0  2  0  0  0  0  0  0
  161.4230  203.2830  148.8050 O   0  0  0  0  0  0  0  0  0  0  0  0
  160.7770  202.6560  149.6870 C   0  0  0  0  0  0  0  0  0  0  0  0
  159.8900  201.5320  149.2890 C   0  0  0  0  0  1  0  0  0  0  0  0
  1  4  1  0  0  0  0
  1 10  2  0  0  0  0
  2 10  1  0  0  0  0
  2  6  2  0  0  0  0
  3  5  1  0  0  0  0
  4 11  2  0  0  0  0
  6  9  1  0  0  0  0
  7  2  1  0  0  0  0
  8  3  1  0  0  0  0
  9 14  2  0  0  0  0
 10 15  1  0  0  0  0
 11 13  1  0  0  0  0
 11  8  1  0  0  0  0
 12  5  1  0  0  0  0
 13 12  1  0  0  0  0
 15  8  1  0  0  0  0
 15 14  1  1  0  0  0
 16 18  1  6  0  0  0
 16 24  1  0  0  0  0
 16  4  1  0  0  0  0
 18 17  2  0  0  0  0
 19 21  1  0  0  0  0
 20 21  2  0  0  0  0
 21 18  1  0  0  0  0
 22 23  2  0  0  0  0
 22 19  1  0  0  0  0
 23 20  1  0  0  0  0
 25 24  1  0  0  0  0
 26 25  1  0  0  0  0
 27 26  1  0  0  0  0
 28 29  2  0  0  0  0
 29 27  1  0  0  0  0
 30 29  1  0  0  0  0
M  END
>  <MODEL>
3

>  <REMARK>
 VINA RESULT:      -7.4      3.262      8.234
  Name = 
  7 active torsions:
  status: ('A' for Active; 'I' for Inactive)
    1  A    between atoms: C_4  and  C_13
    2  A    between atoms: N_7  and  C_16
    3  A    between atoms: C_8  and  C_12
    4  A    between atoms: C_8  and  C_13
    5  A    between atoms: C_13  and  S_27
    6  A    between atoms: C_16  and  C_30
    7  A    between atoms: S_27  and  C_30
                            x       y       z     vdW  Elec       q    Type
                         _______ _______ _______ _____ _____    ______ ____

>  <TORSDO>
F 7

$$$$
=
 OpenBabel11052421573D

 30 33  0  0  1  0  0  0  0  0999 V2000
  161.5980  206.5990  151.5460 N   0  0  0  0  0  0  0  0  0  0  0  0
  161.1840  206.7420  153.9120 C   0  0  0  0  0  0  0  0  0  0  0  0
  161.9350  210.8010  151.0460 C   0  0  0  0  0  2  0  0  0  0  0  0
  161.8310  207.1340  150.2380 C   0  0  0  0  0  0  0  0  0  0  0  0
  161.5830  211.2980  149.6530 C   0  0  0  0  0  2  0  0  0  0  0  0
  160.7140  207.5280  154.8850 C   0  0  0  0  0  3  0  0  0  0  0  0
  161.2690  205.4030  154.1050 F   0  0  0  0  0  0  0  0  0  0  0  0
  161.7030  209.3580  151.1940 N   0  0  0  0  0  0  0  0  0  0  0  0
  160.5400  208.9810  154.6690 C   0  0  0  0  0  3  0  0  0  0  0  0
  161.5300  207.3360  152.6100 C   0  0  0  0  0  0  0  0  0  0  0  0
  161.8520  208.4750  150.0520 C   0  0  0  0  0  0  0  0  0  0  0  0
  162.3690  210.4900  148.6410 C   0  0  0  0  0  2  0  0  0  0  0  0
  161.8790  209.0520  148.6590 C   0  0  0  0  0  2  0  0  0  0  0  0
  161.0070  209.5770  153.5650 C   0  0  0  0  0  3  0  0  0  0  0  0
  161.8280  208.8130  152.5520 C   0  0  2  0  0  3  0  0  0  0  0  0
  161.9360  206.1330  149.1160 C   0  0  1  0  0  3  0  0  0  0  0  0
  159.6460  205.6750  148.5620 O   0  0  0  0  0  0  0  0  0  0  0  0
  160.7370  205.2310  149.0130 C   0  0  0  0  0  0  0  0  0  0  0  0
  160.9420  203.3300  151.0560 S   0  0  0  0  0  0  0  0  0  0  0  0
  160.8200  202.7140  148.6440 C   0  0  0  0  0  3  0  0  0  0  0  0
  160.8210  203.8350  149.4620 C   0  0  0  0  0  0  0  0  0  0  0  0
  160.9950  201.6770  150.7470 C   0  0  0  0  0  3  0  0  0  0  0  0
  160.9160  201.5150  149.3650 C   0  0  0  0  0  3  0  0  0  0  0  0
  162.4400  206.8760  147.5280 S   0  0  0  0  0  0  0  0  0  0  0  0
  162.9630  205.2730  146.8490 C   0  0  0  0  0  2  0  0  0  0  0  0
  162.1330  204.9250  145.6290 C   0  0  0  0  0  2  0  0  0  0  0  0
  161.7250  203.5290  145.6860 N   0  0  0  0  0  2  0  0  0  0  0  0
  159.8400  203.8400  144.3420 O   0  0  0  0  0  0  0  0  0  0  0  0
  160.5600  203.0540  145.0140 C   0  0  0  0  0  0  0  0  0  0  0  0
  160.1930  201.6170  145.1070 C   0  0  0  0  0  1  0  0  0  0  0  0
  1 10  2  0  0  0  0
  2  7  1  0  0  0  0
  2  6  2  0  0  0  0
  3  8  1  0  0  0  0
  4  1  1  0  0  0  0
  5  3  1  0  0  0  0
  8 15  1  0  0  0  0
  9  6  1  0  0  0  0
 10  2  1  0  0  0  0
 11  4  2  0  0  0  0
 11  8  1  0  0  0  0
 12 13  1  0  0  0  0
 12  5  1  0  0  0  0
 13 11  1  0  0  0  0
 14  9  2  0  0  0  0
 15 10  1  0  0  0  0
 15 14  1  1  0  0  0
 16 24  1  6  0  0  0
 16  4  1  0  0  0  0
 17 18  2  0  0  0  0
 18 16  1  0  0  0  0
 18 21  1  0  0  0  0
 20 23  1  0  0  0  0
 20 21  2  0  0  0  0
 21 19  1  0  0  0  0
 22 19  1  0  0  0  0
 23 22  2  0  0  0  0
 25 24  1  0  0  0  0
 26 27  1  0  0  0  0
 26 25  1  0  0  0  0
 28 29  2  0  0  0  0
 29 30  1  0  0  0  0
 29 27  1  0  0  0  0
M  END
>  <MODEL>
4

>  <REMARK>
 VINA RESULT:      -7.4      2.994      7.518
  Name = 
  7 active torsions:
  status: ('A' for Active; 'I' for Inactive)
    1  A    between atoms: C_4  and  C_13
    2  A    between atoms: N_7  and  C_16
    3  A    between atoms: C_8  and  C_12
    4  A    between atoms: C_8  and  C_13
    5  A    between atoms: C_13  and  S_27
    6  A    between atoms: C_16  and  C_30
    7  A    between atoms: S_27  and  C_30
                            x       y       z     vdW  Elec       q    Type
                         _______ _______ _______ _____ _____    ______ ____

>  <TORSDO>
F 7

$$$$
=
 OpenBabel11052421573D

 30 33  0  0  1  0  0  0  0  0999 V2000
  161.5970  207.3150  148.9390 N   0  0  0  0  0  0  0  0  0  0  0  0
  161.7810  205.5060  147.3640 C   0  0  0  0  0  0  0  0  0  0  0  0
  161.3620  204.7530  152.3140 C   0  0  0  0  0  2  0  0  0  0  0  0
  161.4370  207.8860  150.2430 C   0  0  0  0  0  0  0  0  0  0  0  0
  160.6210  205.3450  153.5020 C   0  0  0  0  0  2  0  0  0  0  0  0
  161.4930  204.2180  147.1530 C   0  0  0  0  0  3  0  0  0  0  0  0
  162.0490  206.3200  146.3140 F   0  0  0  0  0  0  0  0  0  0  0  0
  161.3250  205.6370  151.1430 N   0  0  0  0  0  0  0  0  0  0  0  0
  161.1210  203.3310  148.2770 C   0  0  0  0  0  3  0  0  0  0  0  0
  161.7240  206.0430  148.7340 C   0  0  0  0  0  0  0  0  0  0  0  0
  161.2720  207.0770  151.3160 C   0  0  0  0  0  0  0  0  0  0  0  0
  161.2060  206.7100  153.8020 C   0  0  0  0  0  2  0  0  0  0  0  0
  160.8870  207.6540  152.6560 C   0  0  0  0  0  2  0  0  0  0  0  0
  161.2310  203.7390  149.5470 C   0  0  0  0  0  3  0  0  0  0  0  0
  161.8440  205.0780  149.8870 C   0  0  2  0  0  3  0  0  0  0  0  0
  161.3580  209.3890  150.3090 C   0  0  1  0  0  3  0  0  0  0  0  0
  163.1760  209.9370  151.7760 O   0  0  0  0  0  0  0  0  0  0  0  0
  161.9310  209.9580  151.5780 C   0  0  0  0  0  0  0  0  0  0  0  0
  161.4240  210.7030  154.2280 S   0  0  0  0  0  0  0  0  0  0  0  0
  159.7460  210.9670  152.4040 C   0  0  0  0  0  3  0  0  0  0  0  0
  161.0420  210.5140  152.6060 C   0  0  0  0  0  0  0  0  0  0  0  0
  159.9550  211.3640  154.7110 C   0  0  0  0  0  3  0  0  0  0  0  0
  159.1460  211.4390  153.5800 C   0  0  0  0  0  3  0  0  0  0  0  0
  161.9570  210.2120  148.7950 S   0  0  0  0  0  0  0  0  0  0  0  0
  161.5130  211.8620  149.4160 C   0  0  0  0  0  2  0  0  0  0  0  0
  161.4930  212.8630  148.2780 C   0  0  0  0  0  2  0  0  0  0  0  0
  160.5120  212.4620  147.2810 N   0  0  0  0  0  2  0  0  0  0  0  0
  161.8170  213.1420  145.4670 O   0  0  0  0  0  0  0  0  0  0  0  0
  160.7430  212.6320  145.8830 C   0  0  0  0  0  0  0  0  0  0  0  0
  159.7060  212.2030  144.9100 C   0  0  0  0  0  1  0  0  0  0  0  0
  1  4  1  0  0  0  0
  2 10  1  0  0  0  0
  3  5  1  0  0  0  0
  4 16  1  0  0  0  0
  4 11  2  0  0  0  0
  5 12  1  0  0  0  0
  6  2  2  0  0  0  0
  6  9  1  0  0  0  0
  7  2  1  0  0  0  0
  8 11  1  0  0  0  0
  8  3  1  0  0  0  0
  9 14  2  0  0  0  0
 10  1  2  0  0  0  0
 10 15  1  0  0  0  0
 11 13  1  0  0  0  0
 13 12  1  0  0  0  0
 15 14  1  6  0  0  0
 15  8  1  0  0  0  0
 16 24  1  6  0  0  0
 16 18  1  0  0  0  0
 18 17  2  0  0  0  0
 18 21  1  0  0  0  0
 19 22  1  0  0  0  0
 20 21  2  0  0  0  0
 20 23  1  0  0  0  0
 21 19  1  0  0  0  0
 23 22  2  0  0  0  0
 24 25  1  0  0  0  0
 26 25  1  0  0  0  0
 27 26  1  0  0  0  0
 28 29  2  0  0  0  0
 29 27  1  0  0  0  0
 30 29  1  0  0  0  0
M  END
>  <MODEL>
5

>  <REMARK>
 VINA RESULT:      -7.0      2.030      3.152
  Name = 
  7 active torsions:
  status: ('A' for Active; 'I' for Inactive)
    1  A    between atoms: C_4  and  C_13
    2  A    between atoms: N_7  and  C_16
    3  A    between atoms: C_8  and  C_12
    4  A    between atoms: C_8  and  C_13
    5  A    between atoms: C_13  and  S_27
    6  A    between atoms: C_16  and  C_30
    7  A    between atoms: S_27  and  C_30
                            x       y       z     vdW  Elec       q    Type
                         _______ _______ _______ _____ _____    ______ ____

>  <TORSDO>
F 7

$$$$
=
 OpenBabel11052421573D

 30 33  0  0  1  0  0  0  0  0999 V2000
  161.0030  204.5290  150.3560 N   0  0  0  0  0  0  0  0  0  0  0  0
  160.7350  202.2000  150.8950 C   0  0  0  0  0  0  0  0  0  0  0  0
  161.1220  203.8550  146.1670 C   0  0  0  0  0  2  0  0  0  0  0  0
  161.1910  205.6400  149.4720 C   0  0  0  0  0  0  0  0  0  0  0  0
  161.8900  204.9060  145.3830 C   0  0  0  0  0  2  0  0  0  0  0  0
  160.9620  200.9540  150.4680 C   0  0  0  0  0  3  0  0  0  0  0  0
  160.5030  202.4320  152.2110 F   0  0  0  0  0  0  0  0  0  0  0  0
  161.1990  204.0790  147.6160 N   0  0  0  0  0  0  0  0  0  0  0  0
  161.2930  200.6870  149.0510 C   0  0  0  0  0  3  0  0  0  0  0  0
  160.8170  203.3160  149.9400 C   0  0  0  0  0  0  0  0  0  0  0  0
  161.3190  205.4270  148.1410 C   0  0  0  0  0  0  0  0  0  0  0  0
  161.3700  206.2740  145.7740 C   0  0  0  0  0  2  0  0  0  0  0  0
  161.7310  206.5520  147.2240 C   0  0  0  0  0  2  0  0  0  0  0  0
  161.2030  201.6510  148.1260 C   0  0  0  0  0  3  0  0  0  0  0  0
  160.6540  203.0160  148.4710 C   0  0  2  0  0  3  0  0  0  0  0  0
  161.3400  206.9920  150.1200 C   0  0  1  0  0  3  0  0  0  0  0  0
  163.3960  206.7500  151.3330 O   0  0  0  0  0  0  0  0  0  0  0  0
  162.1540  206.9570  151.3840 C   0  0  0  0  0  0  0  0  0  0  0  0
  161.1980  208.6070  153.4330 S   0  0  0  0  0  0  0  0  0  0  0  0
  161.0360  206.1220  153.5120 C   0  0  0  0  0  3  0  0  0  0  0  0
  161.5010  207.1360  152.6880 C   0  0  0  0  0  0  0  0  0  0  0  0
  160.4690  207.9920  154.8180 C   0  0  0  0  0  3  0  0  0  0  0  0
  160.4620  206.6040  154.6980 C   0  0  0  0  0  3  0  0  0  0  0  0
  161.8420  208.3020  148.9540 S   0  0  0  0  0  0  0  0  0  0  0  0
  162.3310  209.4250  150.2970 C   0  0  0  0  0  2  0  0  0  0  0  0
  161.6450  210.7670  150.1340 C   0  0  0  0  0  2  0  0  0  0  0  0
  161.1180  211.2150  151.4150 N   0  0  0  0  0  2  0  0  0  0  0  0
  159.7700  212.8770  150.4800 O   0  0  0  0  0  0  0  0  0  0  0  0
  160.1770  212.2830  151.5130 C   0  0  0  0  0  0  0  0  0  0  0  0
  159.6730  212.6970  152.8480 C   0  0  0  0  0  1  0  0  0  0  0  0
  2  7  1  0  0  0  0
  3  8  1  0  0  0  0
  4 16  1  0  0  0  0
  4  1  1  0  0  0  0
  5 12  1  0  0  0  0
  5  3  1  0  0  0  0
  6  2  2  0  0  0  0
  8 11  1  0  0  0  0
  8 15  1  0  0  0  0
  9  6  1  0  0  0  0
 10  1  2  0  0  0  0
 10  2  1  0  0  0  0
 11  4  2  0  0  0  0
 12 13  1  0  0  0  0
 13 11  1  0  0  0  0
 14  9  2  0  0  0  0
 15 14  1  6  0  0  0
 15 10  1  0  0  0  0
 16 24  1  6  0  0  0
 16 18  1  0  0  0  0
 17 18  2  0  0  0  0
 18 21  1  0  0  0  0
 19 22  1  0  0  0  0
 20 23  1  0  0  0  0
 21 19  1  0  0  0  0
 21 20  2  0  0  0  0
 23 22  2  0  0  0  0
 24 25  1  0  0  0  0
 26 25  1  0  0  0  0
 26 27  1  0  0  0  0
 27 29  1  0  0  0  0
 28 29  2  0  0  0  0
 29 30  1  0  0  0  0
M  END
>  <MODEL>
6

>  <REMARK>
 VINA RESULT:      -7.0      2.044      3.592
  Name = 
  7 active torsions:
  status: ('A' for Active; 'I' for Inactive)
    1  A    between atoms: C_4  and  C_13
    2  A    between atoms: N_7  and  C_16
    3  A    between atoms: C_8  and  C_12
    4  A    between atoms: C_8  and  C_13
    5  A    between atoms: C_13  and  S_27
    6  A    between atoms: C_16  and  C_30
    7  A    between atoms: S_27  and  C_30
                            x       y       z     vdW  Elec       q    Type
                         _______ _______ _______ _____ _____    ______ ____

>  <TORSDO>
F 7

$$$$
=
 OpenBabel11052421573D

 30 33  0  0  1  0  0  0  0  0999 V2000
  160.8910  204.9500  151.5670 N   0  0  0  0  0  0  0  0  0  0  0  0
  160.6960  202.5660  151.3060 C   0  0  0  0  0  0  0  0  0  0  0  0
  161.2010  205.6830  147.3980 C   0  0  0  0  0  2  0  0  0  0  0  0
  161.0680  206.2930  151.1030 C   0  0  0  0  0  0  0  0  0  0  0  0
  161.9560  206.9520  147.0380 C   0  0  0  0  0  2  0  0  0  0  0  0
  160.9900  201.5350  150.5100 C   0  0  0  0  0  3  0  0  0  0  0  0
  160.4040  202.3500  152.6130 F   0  0  0  0  0  0  0  0  0  0  0  0
  161.2120  205.4250  148.8440 N   0  0  0  0  0  0  0  0  0  0  0  0
  161.3870  201.7540  149.1020 C   0  0  0  0  0  3  0  0  0  0  0  0
  160.7700  203.9360  150.7710 C   0  0  0  0  0  0  0  0  0  0  0  0
  161.2570  206.5300  149.7830 C   0  0  0  0  0  0  0  0  0  0  0  0
  161.3660  208.1040  147.8260 C   0  0  0  0  0  2  0  0  0  0  0  0
  161.6590  207.9020  149.3030 C   0  0  0  0  0  2  0  0  0  0  0  0
  161.2950  202.9640  148.5370 C   0  0  0  0  0  3  0  0  0  0  0  0
  160.6770  204.1270  149.2780 C   0  0  2  0  0  3  0  0  0  0  0  0
  161.1360  207.3630  152.1620 C   0  0  1  0  0  3  0  0  0  0  0  0
  162.6660  206.0630  153.4770 O   0  0  0  0  0  0  0  0  0  0  0  0
  161.6970  206.8700  153.4670 C   0  0  0  0  0  0  0  0  0  0  0  0
  161.5810  208.6370  155.6350 S   0  0  0  0  0  0  0  0  0  0  0  0
  160.0530  206.6820  155.4010 C   0  0  0  0  0  3  0  0  0  0  0  0
  161.1010  207.3040  154.7380 C   0  0  0  0  0  0  0  0  0  0  0  0
  160.4700  208.4570  156.8850 C   0  0  0  0  0  3  0  0  0  0  0  0
  159.7060  207.3280  156.5960 C   0  0  0  0  0  3  0  0  0  0  0  0
  161.8910  208.9160  151.5740 S   0  0  0  0  0  0  0  0  0  0  0  0
  160.4560  209.9060  152.0880 C   0  0  0  0  0  2  0  0  0  0  0  0
  160.9050  211.0760  152.9420 C   0  0  0  0  0  2  0  0  0  0  0  0
  159.8280  212.0480  153.0570 N   0  0  0  0  0  2  0  0  0  0  0  0
  158.8970  211.0560  154.9560 O   0  0  0  0  0  0  0  0  0  0  0  0
  158.8540  211.9760  154.0970 C   0  0  0  0  0  0  0  0  0  0  0  0
  157.7770  212.9980  154.1660 C   0  0  0  0  0  1  0  0  0  0  0  0
  2  7  1  0  0  0  0
  3  8  1  0  0  0  0
  4  1  1  0  0  0  0
  4 16  1  0  0  0  0
  5  3  1  0  0  0  0
  5 12  1  0  0  0  0
  6  2  2  0  0  0  0
  8 15  1  0  0  0  0
  8 11  1  0  0  0  0
  9  6  1  0  0  0  0
 10  2  1  0  0  0  0
 10  1  2  0  0  0  0
 11  4  2  0  0  0  0
 12 13  1  0  0  0  0
 13 11  1  0  0  0  0
 14  9  2  0  0  0  0
 15 14  1  6  0  0  0
 15 10  1  0  0  0  0
 16 24  1  6  0  0  0
 16 18  1  0  0  0  0
 18 17  2  0  0  0  0
 18 21  1  0  0  0  0
 19 22  1  0  0  0  0
 20 23  1  0  0  0  0
 21 20  2  0  0  0  0
 21 19  1  0  0  0  0
 23 22  2  0  0  0  0
 24 25  1  0  0  0  0
 25 26  1  0  0  0  0
 26 27  1  0  0  0  0
 27 29  1  0  0  0  0
 29 30  1  0  0  0  0
 29 28  2  0  0  0  0
M  END
>  <MODEL>
7

>  <REMARK>
 VINA RESULT:      -6.9      2.958      4.428
  Name = 
  7 active torsions:
  status: ('A' for Active; 'I' for Inactive)
    1  A    between atoms: C_4  and  C_13
    2  A    between atoms: N_7  and  C_16
    3  A    between atoms: C_8  and  C_12
    4  A    between atoms: C_8  and  C_13
    5  A    between atoms: C_13  and  S_27
    6  A    between atoms: C_16  and  C_30
    7  A    between atoms: S_27  and  C_30
                            x       y       z     vdW  Elec       q    Type
                         _______ _______ _______ _____ _____    ______ ____

>  <TORSDO>
F 7

$$$$
=
 OpenBabel11052421573D

 30 33  0  0  1  0  0  0  0  0999 V2000
  158.9760  211.4440  154.2820 N   0  0  0  0  0  0  0  0  0  0  0  0
  157.0010  212.1700  155.4470 C   0  0  0  0  0  0  0  0  0  0  0  0
  158.4530  214.1760  151.0760 C   0  0  0  0  0  2  0  0  0  0  0  0
  159.9110  211.4390  153.1970 C   0  0  0  0  0  0  0  0  0  0  0  0
  159.0710  213.7270  149.7610 C   0  0  0  0  0  2  0  0  0  0  0  0
  155.8000  212.7380  155.2980 C   0  0  0  0  0  3  0  0  0  0  0  0
  157.2700  211.4400  156.5580 F   0  0  0  0  0  0  0  0  0  0  0  0
  158.5740  213.1510  152.1210 N   0  0  0  0  0  0  0  0  0  0  0  0
  155.4580  213.4730  154.0610 C   0  0  0  0  0  3  0  0  0  0  0  0
  157.9910  212.2810  154.3640 C   0  0  0  0  0  0  0  0  0  0  0  0
  159.7060  212.2440  152.1270 C   0  0  0  0  0  0  0  0  0  0  0  0
  160.5140  213.3400  150.0150 C   0  0  0  0  0  2  0  0  0  0  0  0
  160.5530  212.0980  150.8880 C   0  0  0  0  0  2  0  0  0  0  0  0
  156.3880  213.7420  153.1360 C   0  0  0  0  0  3  0  0  0  0  0  0
  157.8430  213.4050  153.3700 C   0  0  2  0  0  3  0  0  0  0  0  0
  161.0310  210.4350  153.2850 C   0  0  1  0  0  3  0  0  0  0  0  0
  162.4310  211.0670  155.1270 O   0  0  0  0  0  0  0  0  0  0  0  0
  161.5680  210.2650  154.6790 C   0  0  0  0  0  0  0  0  0  0  0  0
  161.9140  208.5450  156.8600 S   0  0  0  0  0  0  0  0  0  0  0  0
  159.9530  208.4090  155.3270 C   0  0  0  0  0  3  0  0  0  0  0  0
  161.1120  209.1470  155.5150 C   0  0  0  0  0  0  0  0  0  0  0  0
  160.8090  207.3340  157.2350 C   0  0  0  0  0  3  0  0  0  0  0  0
  159.7890  207.4000  156.2880 C   0  0  0  0  0  3  0  0  0  0  0  0
  160.6580  208.8600  152.4410 S   0  0  0  0  0  0  0  0  0  0  0  0
  162.2000  208.9130  151.4810 C   0  0  0  0  0  2  0  0  0  0  0  0
  162.3210  207.6750  150.6140 C   0  0  0  0  0  2  0  0  0  0  0  0
  161.9820  206.4910  151.3890 N   0  0  0  0  0  2  0  0  0  0  0  0
  161.1580  205.3070  149.5520 O   0  0  0  0  0  0  0  0  0  0  0  0
  161.4000  205.3350  150.7880 C   0  0  0  0  0  0  0  0  0  0  0  0
  161.0760  204.1540  151.6280 C   0  0  0  0  0  1  0  0  0  0  0  0
  1 10  2  0  0  0  0
  2  7  1  0  0  0  0
  3  8  1  0  0  0  0
  4 16  1  0  0  0  0
  4  1  1  0  0  0  0
  5 12  1  0  0  0  0
  5  3  1  0  0  0  0
  6  2  2  0  0  0  0
  8 11  1  0  0  0  0
  8 15  1  0  0  0  0
  9  6  1  0  0  0  0
 10  2  1  0  0  0  0
 11  4  2  0  0  0  0
 12 13  1  0  0  0  0
 13 11  1  0  0  0  0
 14  9  2  0  0  0  0
 15 14  1  6  0  0  0
 15 10  1  0  0  0  0
 16 24  1  1  0  0  0
 16 18  1  0  0  0  0
 18 17  2  0  0  0  0
 18 21  1  0  0  0  0
 19 22  1  0  0  0  0
 20 21  2  0  0  0  0
 20 23  1  0  0  0  0
 21 19  1  0  0  0  0
 23 22  2  0  0  0  0
 25 24  1  0  0  0  0
 26 27  1  0  0  0  0
 26 25  1  0  0  0  0
 28 29  2  0  0  0  0
 29 27  1  0  0  0  0
 29 30  1  0  0  0  0
M  END
>  <MODEL>
8

>  <REMARK>
 VINA RESULT:      -6.7      4.628      9.036
  Name = 
  7 active torsions:
  status: ('A' for Active; 'I' for Inactive)
    1  A    between atoms: C_4  and  C_13
    2  A    between atoms: N_7  and  C_16
    3  A    between atoms: C_8  and  C_12
    4  A    between atoms: C_8  and  C_13
    5  A    between atoms: C_13  and  S_27
    6  A    between atoms: C_16  and  C_30
    7  A    between atoms: S_27  and  C_30
                            x       y       z     vdW  Elec       q    Type
                         _______ _______ _______ _____ _____    ______ ____

>  <TORSDO>
F 7

$$$$
=
 OpenBabel11052421573D

 30 33  0  0  1  0  0  0  0  0999 V2000
  161.4990  204.2230  150.1570 N   0  0  0  0  0  0  0  0  0  0  0  0
  160.8360  201.9820  150.7240 C   0  0  0  0  0  0  0  0  0  0  0  0
  161.4710  203.4950  145.9760 C   0  0  0  0  0  2  0  0  0  0  0  0
  161.8700  205.2760  149.2590 C   0  0  0  0  0  0  0  0  0  0  0  0
  162.4050  204.3890  145.1760 C   0  0  0  0  0  2  0  0  0  0  0  0
  160.8420  200.7110  150.3110 C   0  0  0  0  0  3  0  0  0  0  0  0
  160.6570  202.2640  152.0390 F   0  0  0  0  0  0  0  0  0  0  0  0
  161.5950  203.7180  147.4220 N   0  0  0  0  0  0  0  0  0  0  0  0
  161.1120  200.3760  148.8950 C   0  0  0  0  0  3  0  0  0  0  0  0
  161.1030  203.0570  149.7550 C   0  0  0  0  0  0  0  0  0  0  0  0
  161.9500  205.0300  147.9300 C   0  0  0  0  0  0  0  0  0  0  0  0
  162.1310  205.8310  145.5540 C   0  0  0  0  0  2  0  0  0  0  0  0
  162.5440  206.0570  146.9980 C   0  0  0  0  0  2  0  0  0  0  0  0
  161.1840  201.3310  147.9600 C   0  0  0  0  0  3  0  0  0  0  0  0
  160.8810  202.7740  148.2910 C   0  0  2  0  0  3  0  0  0  0  0  0
  162.2540  206.5890  149.8910 C   0  0  1  0  0  3  0  0  0  0  0  0
  160.0270  207.3930  149.5010 O   0  0  0  0  0  0  0  0  0  0  0  0
  161.2460  207.6790  149.6540 C   0  0  0  0  0  0  0  0  0  0  0  0
  161.9270  210.1030  150.8760 S   0  0  0  0  0  0  0  0  0  0  0  0
  161.9470  209.7820  148.4050 C   0  0  0  0  0  3  0  0  0  0  0  0
  161.6780  209.0800  149.5710 C   0  0  0  0  0  0  0  0  0  0  0  0
  162.3810  211.4600  149.9930 C   0  0  0  0  0  3  0  0  0  0  0  0
  162.3380  211.1070  148.6460 C   0  0  0  0  0  3  0  0  0  0  0  0
  162.7720  206.4290  151.6340 S   0  0  0  0  0  0  0  0  0  0  0  0
  161.0640  206.5620  152.2410 C   0  0  0  0  0  2  0  0  0  0  0  0
  160.9770  207.6060  153.3360 C   0  0  0  0  0  2  0  0  0  0  0  0
  160.4580  207.0040  154.5560 N   0  0  0  0  0  2  0  0  0  0  0  0
  161.2550  208.7050  155.9440 O   0  0  0  0  0  0  0  0  0  0  0  0
  160.6350  207.6140  155.8330 C   0  0  0  0  0  0  0  0  0  0  0  0
  160.0830  206.9550  157.0450 C   0  0  0  0  0  1  0  0  0  0  0  0
  2  7  1  0  0  0  0
  3  8  1  0  0  0  0
  4 16  1  0  0  0  0
  4  1  1  0  0  0  0
  5 12  1  0  0  0  0
  5  3  1  0  0  0  0
  6  2  2  0  0  0  0
  8 11  1  0  0  0  0
  8 15  1  0  0  0  0
  9  6  1  0  0  0  0
 10  1  2  0  0  0  0
 10  2  1  0  0  0  0
 11  4  2  0  0  0  0
 12 13  1  0  0  0  0
 13 11  1  0  0  0  0
 14  9  2  0  0  0  0
 15 14  1  6  0  0  0
 15 10  1  0  0  0  0
 16 18  1  1  0  0  0
 16 24  1  0  0  0  0
 17 18  2  0  0  0  0
 20 23  1  0  0  0  0
 20 21  2  0  0  0  0
 21 18  1  0  0  0  0
 21 19  1  0  0  0  0
 22 19  1  0  0  0  0
 23 22  2  0  0  0  0
 24 25  1  0  0  0  0
 25 26  1  0  0  0  0
 26 27  1  0  0  0  0
 27 29  1  0  0  0  0
 29 28  2  0  0  0  0
 29 30  1  0  0  0  0
M  END
>  <MODEL>
9

>  <REMARK>
 VINA RESULT:      -6.5      2.755      5.443
  Name = 
  7 active torsions:
  status: ('A' for Active; 'I' for Inactive)
    1  A    between atoms: C_4  and  C_13
    2  A    between atoms: N_7  and  C_16
    3  A    between atoms: C_8  and  C_12
    4  A    between atoms: C_8  and  C_13
    5  A    between atoms: C_13  and  S_27
    6  A    between atoms: C_16  and  C_30
    7  A    between atoms: S_27  and  C_30
                            x       y       z     vdW  Elec       q    Type
                         _______ _______ _______ _____ _____    ______ ____

>  <TORSDO>
F 7

$$$$
