=
 OpenBabel11052422083D

 25 27  0  0  0  0  0  0  0  0999 V2000
  161.1280  205.6340  148.8020 C   0  0  0  0  0  0  0  0  0  0  0  0
  161.3590  206.8850  149.4200 C   0  0  0  0  0  0  0  0  0  0  0  0
  160.7910  204.6640  150.9970 C   0  0  0  0  0  3  0  0  0  0  0  0
  161.0100  205.8730  151.5720 N   0  0  0  0  0  0  0  0  0  0  0  0
  161.5270  208.2160  151.4610 C   0  0  0  0  0  0  0  0  0  0  0  0
  161.4590  208.3540  152.9450 C   0  0  0  0  0  1  0  0  0  0  0  0
  161.6800  208.0290  148.6740 C   0  0  0  0  0  3  0  0  0  0  0  0
  160.8460  204.5260  149.6110 C   0  0  0  0  0  3  0  0  0  0  0  0
  161.8350  209.3410  150.6940 C   0  0  0  0  0  3  0  0  0  0  0  0
  161.9160  209.2570  149.3030 C   0  0  0  0  0  0  0  0  0  0  0  0
  161.2930  206.9800  150.8320 C   0  0  0  0  0  0  0  0  0  0  0  0
  161.1540  205.4500  147.3280 C   0  0  0  0  0  0  0  0  0  0  0  0
  161.1410  205.0990  144.5390 C   0  0  0  0  0  3  0  0  0  0  0  0
  161.9360  204.4390  146.7310 C   0  0  0  0  0  0  0  0  0  0  0  0
  161.9290  204.2730  145.3430 C   0  0  0  0  0  3  0  0  0  0  0  0
  160.3580  206.0970  145.1200 C   0  0  0  0  0  3  0  0  0  0  0  0
  162.7260  203.6330  147.4840 F   0  0  0  0  0  0  0  0  0  0  0  0
  160.3620  206.2690  146.5070 C   0  0  0  0  0  3  0  0  0  0  0  0
  162.2350  210.4390  148.5560 N   0  0  0  0  0  2  0  0  0  0  0  0
  161.7850  211.7770  148.8260 C   0  0  0  0  0  0  0  0  0  0  0  0
  160.9730  211.9990  149.7660 O   0  0  0  0  0  0  0  0  0  0  0  0
  161.4850  212.8690  146.5980 C   0  0  0  0  0  1  0  0  0  0  0  0
  161.9500  214.2440  148.5830 C   0  0  0  0  0  1  0  0  0  0  0  0
  163.7100  212.7810  147.6610 C   0  0  0  0  0  1  0  0  0  0  0  0
  162.2230  212.9040  147.9270 C   0  0  0  0  0  0  0  0  0  0  0  0
  1  2  2  0  0  0  0
  1  8  1  0  0  0  0
  2 11  1  0  0  0  0
  3  4  1  0  0  0  0
  5  6  1  0  0  0  0
  7 10  2  0  0  0  0
  7  2  1  0  0  0  0
  8  3  2  0  0  0  0
  9  5  2  0  0  0  0
 10  9  1  0  0  0  0
 11  5  1  0  0  0  0
 11  4  2  0  0  0  0
 12  1  1  0  0  0  0
 13 16  2  0  0  0  0
 13 15  1  0  0  0  0
 14 12  1  0  0  0  0
 14 17  1  0  0  0  0
 15 14  2  0  0  0  0
 16 18  1  0  0  0  0
 18 12  2  0  0  0  0
 19 20  1  0  0  0  0
 19 10  1  0  0  0  0
 20 21  2  0  0  0  0
 22 25  1  0  0  0  0
 24 25  1  0  0  0  0
 25 23  1  0  0  0  0
 25 20  1  0  0  0  0
M  END
>  <MODEL>
1

>  <REMARK>
 VINA RESULT:      -9.1      0.000      0.000
  Name = 
  3 active torsions:
  status: ('A' for Active; 'I' for Inactive)
    1  A    between atoms: C_1  and  C_5
    2  A    between atoms: N_6  and  C_23
    3  A    between atoms: C_15  and  C_21
                            x       y       z     vdW  Elec       q    Type
                         _______ _______ _______ _____ _____    ______ ____

>  <TORSDO>
F 3

$$$$
=
 OpenBabel11052422083D

 25 27  0  0  0  0  0  0  0  0999 V2000
  161.3590  205.5730  148.8020 C   0  0  0  0  0  0  0  0  0  0  0  0
  161.4840  206.8390  149.4220 C   0  0  0  0  0  0  0  0  0  0  0  0
  160.8980  204.6070  150.9760 C   0  0  0  0  0  3  0  0  0  0  0  0
  161.0170  205.8300  151.5520 N   0  0  0  0  0  0  0  0  0  0  0  0
  161.4320  208.1930  151.4540 C   0  0  0  0  0  0  0  0  0  0  0  0
  161.2440  208.3400  152.9260 C   0  0  0  0  0  1  0  0  0  0  0  0
  161.8090  207.9900  148.6890 C   0  0  0  0  0  3  0  0  0  0  0  0
  161.0660  204.4600  149.6000 C   0  0  0  0  0  3  0  0  0  0  0  0
  161.7470  209.3250  150.6990 C   0  0  0  0  0  3  0  0  0  0  0  0
  161.9390  209.2330  149.3190 C   0  0  0  0  0  0  0  0  0  0  0  0
  161.3050  206.9430  150.8230 C   0  0  0  0  0  0  0  0  0  0  0  0
  161.5070  205.3780  147.3370 C   0  0  0  0  0  0  0  0  0  0  0  0
  161.8450  205.0320  144.5680 C   0  0  0  0  0  3  0  0  0  0  0  0
  160.5490  205.8800  146.4330 C   0  0  0  0  0  0  0  0  0  0  0  0
  160.7200  205.7010  145.0570 C   0  0  0  0  0  3  0  0  0  0  0  0
  162.8030  204.5390  145.4540 C   0  0  0  0  0  3  0  0  0  0  0  0
  159.4370  206.5170  146.8780 F   0  0  0  0  0  0  0  0  0  0  0  0
  162.6360  204.7130  146.8310 C   0  0  0  0  0  3  0  0  0  0  0  0
  162.2600  210.4230  148.5850 N   0  0  0  0  0  2  0  0  0  0  0  0
  161.7920  211.7550  148.8550 C   0  0  0  0  0  0  0  0  0  0  0  0
  160.9610  211.9630  149.7810 O   0  0  0  0  0  0  0  0  0  0  0  0
  161.5380  212.8450  146.6200 C   0  0  0  0  0  1  0  0  0  0  0  0
  161.9180  214.2250  148.6190 C   0  0  0  0  0  1  0  0  0  0  0  0
  163.7320  212.7960  147.7480 C   0  0  0  0  0  1  0  0  0  0  0  0
  162.2350  212.8910  147.9700 C   0  0  0  0  0  0  0  0  0  0  0  0
  1  2  2  0  0  0  0
  1  8  1  0  0  0  0
  2 11  1  0  0  0  0
  3  4  1  0  0  0  0
  5  6  1  0  0  0  0
  7 10  2  0  0  0  0
  7  2  1  0  0  0  0
  8  3  2  0  0  0  0
  9  5  2  0  0  0  0
 10  9  1  0  0  0  0
 11  5  1  0  0  0  0
 11  4  2  0  0  0  0
 12  1  1  0  0  0  0
 13 15  2  0  0  0  0
 13 16  1  0  0  0  0
 14 17  1  0  0  0  0
 14 12  2  0  0  0  0
 15 14  1  0  0  0  0
 16 18  2  0  0  0  0
 18 12  1  0  0  0  0
 19 20  1  0  0  0  0
 19 10  1  0  0  0  0
 20 21  2  0  0  0  0
 22 25  1  0  0  0  0
 24 25  1  0  0  0  0
 25 23  1  0  0  0  0
 25 20  1  0  0  0  0
M  END
>  <MODEL>
2

>  <REMARK>
 VINA RESULT:      -8.8      0.945      1.331
  Name = 
  3 active torsions:
  status: ('A' for Active; 'I' for Inactive)
    1  A    between atoms: C_1  and  C_5
    2  A    between atoms: N_6  and  C_23
    3  A    between atoms: C_15  and  C_21
                            x       y       z     vdW  Elec       q    Type
                         _______ _______ _______ _____ _____    ______ ____

>  <TORSDO>
F 3

$$$$
=
 OpenBabel11052422083D

 25 27  0  0  0  0  0  0  0  0999 V2000
  161.4630  205.2000  148.8850 C   0  0  0  0  0  0  0  0  0  0  0  0
  161.4670  206.3780  149.6680 C   0  0  0  0  0  0  0  0  0  0  0  0
  162.0450  206.5390  146.9510 C   0  0  0  0  0  3  0  0  0  0  0  0
  162.0480  207.6580  147.7200 N   0  0  0  0  0  0  0  0  0  0  0  0
  161.7690  208.7970  149.8150 C   0  0  0  0  0  0  0  0  0  0  0  0
  162.0890  210.1170  149.1990 C   0  0  0  0  0  1  0  0  0  0  0  0
  161.1520  206.3570  151.0350 C   0  0  0  0  0  3  0  0  0  0  0  0
  161.7540  205.3000  147.5190 C   0  0  0  0  0  3  0  0  0  0  0  0
  161.4620  208.7470  151.1760 C   0  0  0  0  0  3  0  0  0  0  0  0
  161.1500  207.5340  151.7930 C   0  0  0  0  0  0  0  0  0  0  0  0
  161.7680  207.6170  149.0510 C   0  0  0  0  0  0  0  0  0  0  0  0
  161.1810  203.8580  149.4550 C   0  0  0  0  0  0  0  0  0  0  0  0
  160.7000  201.3220  150.5700 C   0  0  0  0  0  3  0  0  0  0  0  0
  160.9340  202.7470  148.6230 C   0  0  0  0  0  0  0  0  0  0  0  0
  160.6910  201.4900  149.1830 C   0  0  0  0  0  3  0  0  0  0  0  0
  160.9520  202.4130  151.4020 C   0  0  0  0  0  3  0  0  0  0  0  0
  160.8990  202.8810  147.2730 F   0  0  0  0  0  0  0  0  0  0  0  0
  161.1940  203.6730  150.8480 C   0  0  0  0  0  3  0  0  0  0  0  0
  160.8400  207.5300  153.1940 N   0  0  0  0  0  2  0  0  0  0  0  0
  161.0270  208.6120  154.1200 C   0  0  0  0  0  0  0  0  0  0  0  0
  161.5720  209.6870  153.7450 O   0  0  0  0  0  0  0  0  0  0  0  0
  161.8620  208.5040  156.4740 C   0  0  0  0  0  1  0  0  0  0  0  0
  159.6660  209.5010  155.9990 C   0  0  0  0  0  1  0  0  0  0  0  0
  159.9930  207.0690  155.7390 C   0  0  0  0  0  1  0  0  0  0  0  0
  160.6450  208.4260  155.5660 C   0  0  0  0  0  0  0  0  0  0  0  0
  1 12  1  0  0  0  0
  1  2  1  0  0  0  0
  2  7  1  0  0  0  0
  3  8  1  0  0  0  0
  3  4  2  0  0  0  0
  4 11  1  0  0  0  0
  5  9  2  0  0  0  0
  6  5  1  0  0  0  0
  7 10  2  0  0  0  0
  8  1  2  0  0  0  0
  9 10  1  0  0  0  0
 10 19  1  0  0  0  0
 11  2  2  0  0  0  0
 11  5  1  0  0  0  0
 12 18  1  0  0  0  0
 13 16  1  0  0  0  0
 14 15  1  0  0  0  0
 14 12  2  0  0  0  0
 15 13  2  0  0  0  0
 17 14  1  0  0  0  0
 18 16  2  0  0  0  0
 19 20  1  0  0  0  0
 20 25  1  0  0  0  0
 21 20  2  0  0  0  0
 25 24  1  0  0  0  0
 25 23  1  0  0  0  0
 25 22  1  0  0  0  0
M  END
>  <MODEL>
3

>  <REMARK>
 VINA RESULT:      -8.7      2.264      5.469
  Name = 
  3 active torsions:
  status: ('A' for Active; 'I' for Inactive)
    1  A    between atoms: C_1  and  C_5
    2  A    between atoms: N_6  and  C_23
    3  A    between atoms: C_15  and  C_21
                            x       y       z     vdW  Elec       q    Type
                         _______ _______ _______ _____ _____    ______ ____

>  <TORSDO>
F 3

$$$$
=
 OpenBabel11052422083D

 25 27  0  0  0  0  0  0  0  0999 V2000
  161.3570  204.9630  149.2440 C   0  0  0  0  0  0  0  0  0  0  0  0
  161.3870  206.0650  150.1310 C   0  0  0  0  0  0  0  0  0  0  0  0
  161.0500  203.4970  151.1490 C   0  0  0  0  0  3  0  0  0  0  0  0
  161.0770  204.5670  151.9840 N   0  0  0  0  0  0  0  0  0  0  0  0
  161.2770  206.9200  152.4150 C   0  0  0  0  0  0  0  0  0  0  0  0
  161.1210  206.7170  153.8850 C   0  0  0  0  0  1  0  0  0  0  0  0
  161.5840  207.3750  149.6730 C   0  0  0  0  0  3  0  0  0  0  0  0
  161.1880  203.6770  149.7740 C   0  0  0  0  0  3  0  0  0  0  0  0
  161.4660  208.2170  151.9320 C   0  0  0  0  0  3  0  0  0  0  0  0
  161.6230  208.4530  150.5640 C   0  0  0  0  0  0  0  0  0  0  0  0
  161.2420  205.8360  151.5210 C   0  0  0  0  0  0  0  0  0  0  0  0
  161.4760  205.1140  147.7710 C   0  0  0  0  0  0  0  0  0  0  0  0
  161.7620  205.4170  144.9910 C   0  0  0  0  0  3  0  0  0  0  0  0
  160.5580  205.8940  147.0400 C   0  0  0  0  0  0  0  0  0  0  0  0
  160.7020  206.0380  145.6560 C   0  0  0  0  0  3  0  0  0  0  0  0
  162.6810  204.6490  145.7070 C   0  0  0  0  0  3  0  0  0  0  0  0
  159.5070  206.4940  147.6540 F   0  0  0  0  0  0  0  0  0  0  0  0
  162.5400  204.5010  147.0890 C   0  0  0  0  0  3  0  0  0  0  0  0
  161.8140  209.8020  150.1140 N   0  0  0  0  0  2  0  0  0  0  0  0
  161.7310  210.2780  148.7610 C   0  0  0  0  0  0  0  0  0  0  0  0
  161.5330  209.4710  147.8110 O   0  0  0  0  0  0  0  0  0  0  0  0
  163.4400  212.0250  148.2350 C   0  0  0  0  0  1  0  0  0  0  0  0
  161.1980  212.1650  147.2350 C   0  0  0  0  0  1  0  0  0  0  0  0
  161.4920  212.5620  149.6530 C   0  0  0  0  0  1  0  0  0  0  0  0
  161.9650  211.7380  148.4720 C   0  0  0  0  0  0  0  0  0  0  0  0
  1  8  2  0  0  0  0
  1  2  1  0  0  0  0
  2 11  1  0  0  0  0
  3  4  2  0  0  0  0
  5  6  1  0  0  0  0
  7  2  2  0  0  0  0
  7 10  1  0  0  0  0
  8  3  1  0  0  0  0
  9  5  1  0  0  0  0
 10  9  2  0  0  0  0
 11  4  1  0  0  0  0
 11  5  2  0  0  0  0
 12  1  1  0  0  0  0
 13 15  2  0  0  0  0
 13 16  1  0  0  0  0
 14 17  1  0  0  0  0
 14 12  2  0  0  0  0
 15 14  1  0  0  0  0
 16 18  2  0  0  0  0
 18 12  1  0  0  0  0
 19 10  1  0  0  0  0
 20 19  1  0  0  0  0
 21 20  2  0  0  0  0
 22 25  1  0  0  0  0
 23 25  1  0  0  0  0
 25 20  1  0  0  0  0
 25 24  1  0  0  0  0
M  END
>  <MODEL>
4

>  <REMARK>
 VINA RESULT:      -8.5      1.490      2.057
  Name = 
  3 active torsions:
  status: ('A' for Active; 'I' for Inactive)
    1  A    between atoms: C_1  and  C_5
    2  A    between atoms: N_6  and  C_23
    3  A    between atoms: C_15  and  C_21
                            x       y       z     vdW  Elec       q    Type
                         _______ _______ _______ _____ _____    ______ ____

>  <TORSDO>
F 3

$$$$
=
 OpenBabel11052422083D

 25 27  0  0  0  0  0  0  0  0999 V2000
  161.2450  203.6250  147.7850 C   0  0  0  0  0  0  0  0  0  0  0  0
  161.1750  204.2090  149.0720 C   0  0  0  0  0  0  0  0  0  0  0  0
  160.9520  201.4470  148.8080 C   0  0  0  0  0  3  0  0  0  0  0  0
  160.8820  202.0260  150.0340 N   0  0  0  0  0  0  0  0  0  0  0  0
  160.9250  203.9380  151.4860 C   0  0  0  0  0  0  0  0  0  0  0  0
  160.7240  203.0890  152.6950 C   0  0  0  0  0  1  0  0  0  0  0  0
  161.3130  205.5910  149.2630 C   0  0  0  0  0  3  0  0  0  0  0  0
  161.1330  202.2330  147.6710 C   0  0  0  0  0  3  0  0  0  0  0  0
  161.0560  205.3190  151.6480 C   0  0  0  0  0  3  0  0  0  0  0  0
  161.2520  206.1520  150.5440 C   0  0  0  0  0  0  0  0  0  0  0  0
  160.9900  203.3720  150.2000 C   0  0  0  0  0  0  0  0  0  0  0  0
  161.4140  204.4270  146.5470 C   0  0  0  0  0  0  0  0  0  0  0  0
  161.6960  205.9080  144.1730 C   0  0  0  0  0  3  0  0  0  0  0  0
  162.6940  204.7860  146.0760 C   0  0  0  0  0  0  0  0  0  0  0  0
  162.8270  205.5260  144.8980 C   0  0  0  0  0  3  0  0  0  0  0  0
  160.4250  205.5520  144.6260 C   0  0  0  0  0  3  0  0  0  0  0  0
  163.8110  204.4460  146.7670 F   0  0  0  0  0  0  0  0  0  0  0  0
  160.2850  204.8130  145.8050 C   0  0  0  0  0  3  0  0  0  0  0  0
  161.3810  207.5640  150.7590 N   0  0  0  0  0  2  0  0  0  0  0  0
  161.1550  208.2730  151.9880 C   0  0  0  0  0  0  0  0  0  0  0  0
  160.7400  207.6620  153.0100 O   0  0  0  0  0  0  0  0  0  0  0  0
  160.0180  210.4800  152.2830 C   0  0  0  0  0  1  0  0  0  0  0  0
  162.3050  210.1580  153.1290 C   0  0  0  0  0  1  0  0  0  0  0  0
  161.8940  210.2380  150.6970 C   0  0  0  0  0  1  0  0  0  0  0  0
  161.3370  209.7680  152.0260 C   0  0  0  0  0  0  0  0  0  0  0  0
  1  2  1  0  0  0  0
  2  7  2  0  0  0  0
  2 11  1  0  0  0  0
  3  4  2  0  0  0  0
  4 11  1  0  0  0  0
  5  9  1  0  0  0  0
  5  6  1  0  0  0  0
  7 10  1  0  0  0  0
  8  1  2  0  0  0  0
  8  3  1  0  0  0  0
 10 19  1  0  0  0  0
 10  9  2  0  0  0  0
 11  5  2  0  0  0  0
 12  1  1  0  0  0  0
 13 16  2  0  0  0  0
 13 15  1  0  0  0  0
 14 12  1  0  0  0  0
 14 17  1  0  0  0  0
 15 14  2  0  0  0  0
 16 18  1  0  0  0  0
 18 12  2  0  0  0  0
 19 20  1  0  0  0  0
 20 25  1  0  0  0  0
 20 21  2  0  0  0  0
 24 25  1  0  0  0  0
 25 22  1  0  0  0  0
 25 23  1  0  0  0  0
M  END
>  <MODEL>
5

>  <REMARK>
 VINA RESULT:      -8.5      2.500      3.753
  Name = 
  3 active torsions:
  status: ('A' for Active; 'I' for Inactive)
    1  A    between atoms: C_1  and  C_5
    2  A    between atoms: N_6  and  C_23
    3  A    between atoms: C_15  and  C_21
                            x       y       z     vdW  Elec       q    Type
                         _______ _______ _______ _____ _____    ______ ____

>  <TORSDO>
F 3

$$$$
=
 OpenBabel11052422083D

 25 27  0  0  0  0  0  0  0  0999 V2000
  161.0830  207.7000  152.4990 C   0  0  0  0  0  0  0  0  0  0  0  0
  161.0420  206.5740  151.6430 C   0  0  0  0  0  0  0  0  0  0  0  0
  161.1850  206.1960  154.3970 C   0  0  0  0  0  3  0  0  0  0  0  0
  161.1490  205.1280  153.5600 N   0  0  0  0  0  0  0  0  0  0  0  0
  161.0300  204.1470  151.3710 C   0  0  0  0  0  0  0  0  0  0  0  0
  161.0720  202.7650  151.9320 C   0  0  0  0  0  1  0  0  0  0  0  0
  160.9390  206.7080  150.2510 C   0  0  0  0  0  3  0  0  0  0  0  0
  161.1530  207.4910  153.8820 C   0  0  0  0  0  3  0  0  0  0  0  0
  160.9370  204.3090  149.9880 C   0  0  0  0  0  3  0  0  0  0  0  0
  160.8890  205.5840  149.4190 C   0  0  0  0  0  0  0  0  0  0  0  0
  161.0770  205.2750  152.2090 C   0  0  0  0  0  0  0  0  0  0  0  0
  161.0760  209.0950  151.9910 C   0  0  0  0  0  0  0  0  0  0  0  0
  161.0000  211.7320  151.0190 C   0  0  0  0  0  3  0  0  0  0  0  0
  161.9570  209.5060  150.9690 C   0  0  0  0  0  0  0  0  0  0  0  0
  161.9180  210.8200  150.4930 C   0  0  0  0  0  3  0  0  0  0  0  0
  160.1180  211.3340  152.0240 C   0  0  0  0  0  3  0  0  0  0  0  0
  162.8730  208.6480  150.4520 F   0  0  0  0  0  0  0  0  0  0  0  0
  160.1540  210.0220  152.5050 C   0  0  0  0  0  3  0  0  0  0  0  0
  160.7940  205.7010  147.9930 N   0  0  0  0  0  2  0  0  0  0  0  0
  161.4720  204.8970  147.0150 C   0  0  0  0  0  0  0  0  0  0  0  0
  162.2990  204.0150  147.3760 O   0  0  0  0  0  0  0  0  0  0  0  0
  162.5330  205.6280  144.8730 C   0  0  0  0  0  1  0  0  0  0  0  0
  160.7720  203.9130  144.8430 C   0  0  0  0  0  1  0  0  0  0  0  0
  160.2030  206.2510  145.3940 C   0  0  0  0  0  1  0  0  0  0  0  0
  161.2520  205.1680  145.5490 C   0  0  0  0  0  0  0  0  0  0  0  0
  1  8  1  0  0  0  0
  2 11  1  0  0  0  0
  2  1  2  0  0  0  0
  4  3  1  0  0  0  0
  5  6  1  0  0  0  0
  5 11  1  0  0  0  0
  7  2  1  0  0  0  0
  8  3  2  0  0  0  0
  9  5  2  0  0  0  0
 10  9  1  0  0  0  0
 10  7  2  0  0  0  0
 11  4  2  0  0  0  0
 12  1  1  0  0  0  0
 12 18  1  0  0  0  0
 13 16  1  0  0  0  0
 14 12  2  0  0  0  0
 15 14  1  0  0  0  0
 15 13  2  0  0  0  0
 16 18  2  0  0  0  0
 17 14  1  0  0  0  0
 19 10  1  0  0  0  0
 20 21  2  0  0  0  0
 20 19  1  0  0  0  0
 22 25  1  0  0  0  0
 23 25  1  0  0  0  0
 24 25  1  0  0  0  0
 25 20  1  0  0  0  0
M  END
>  <MODEL>
6

>  <REMARK>
 VINA RESULT:      -8.5      2.927      6.369
  Name = 
  3 active torsions:
  status: ('A' for Active; 'I' for Inactive)
    1  A    between atoms: C_1  and  C_5
    2  A    between atoms: N_6  and  C_23
    3  A    between atoms: C_15  and  C_21
                            x       y       z     vdW  Elec       q    Type
                         _______ _______ _______ _____ _____    ______ ____

>  <TORSDO>
F 3

$$$$
=
 OpenBabel11052422083D

 25 27  0  0  0  0  0  0  0  0999 V2000
  161.1510  207.9160  152.3690 C   0  0  0  0  0  0  0  0  0  0  0  0
  161.1200  206.7570  151.5570 C   0  0  0  0  0  0  0  0  0  0  0  0
  161.2330  206.4870  154.3240 C   0  0  0  0  0  3  0  0  0  0  0  0
  161.2060  205.3870  153.5290 N   0  0  0  0  0  0  0  0  0  0  0  0
  161.1110  204.3210  151.3800 C   0  0  0  0  0  0  0  0  0  0  0  0
  161.1470  202.9630  151.9940 C   0  0  0  0  0  1  0  0  0  0  0  0
  161.0320  206.8370  150.1600 C   0  0  0  0  0  3  0  0  0  0  0  0
  161.2060  207.7610  153.7600 C   0  0  0  0  0  3  0  0  0  0  0  0
  161.0330  204.4300  149.9900 C   0  0  0  0  0  3  0  0  0  0  0  0
  160.9910  205.6810  149.3720 C   0  0  0  0  0  0  0  0  0  0  0  0
  161.1490  205.4820  152.1730 C   0  0  0  0  0  0  0  0  0  0  0  0
  161.1490  209.2900  151.8060 C   0  0  0  0  0  0  0  0  0  0  0  0
  161.2060  211.8920  150.7430 C   0  0  0  0  0  3  0  0  0  0  0  0
  160.3750  210.3160  152.3860 C   0  0  0  0  0  0  0  0  0  0  0  0
  160.4040  211.6070  151.8510 C   0  0  0  0  0  3  0  0  0  0  0  0
  161.9820  210.8860  150.1670 C   0  0  0  0  0  3  0  0  0  0  0  0
  159.5710  210.0660  153.4510 F   0  0  0  0  0  0  0  0  0  0  0  0
  161.9560  209.5930  150.6970 C   0  0  0  0  0  3  0  0  0  0  0  0
  160.9110  205.7430  147.9410 N   0  0  0  0  0  2  0  0  0  0  0  0
  161.5510  204.8630  147.0030 C   0  0  0  0  0  0  0  0  0  0  0  0
  162.3290  203.9560  147.4080 O   0  0  0  0  0  0  0  0  0  0  0  0
  160.3620  206.2030  145.2600 C   0  0  0  0  0  1  0  0  0  0  0  0
  162.6700  205.4530  144.8640 C   0  0  0  0  0  1  0  0  0  0  0  0
  160.8310  203.8080  144.8970 C   0  0  0  0  0  1  0  0  0  0  0  0
  161.3560  205.0830  145.5260 C   0  0  0  0  0  0  0  0  0  0  0  0
  1  8  1  0  0  0  0
  2 11  1  0  0  0  0
  2  1  2  0  0  0  0
  4  3  1  0  0  0  0
  5  6  1  0  0  0  0
  5 11  1  0  0  0  0
  7  2  1  0  0  0  0
  8  3  2  0  0  0  0
  9  5  2  0  0  0  0
 10  9  1  0  0  0  0
 10  7  2  0  0  0  0
 11  4  2  0  0  0  0
 12  1  1  0  0  0  0
 12 14  1  0  0  0  0
 13 15  1  0  0  0  0
 14 17  1  0  0  0  0
 15 14  2  0  0  0  0
 16 18  1  0  0  0  0
 16 13  2  0  0  0  0
 18 12  2  0  0  0  0
 19 10  1  0  0  0  0
 20 21  2  0  0  0  0
 20 19  1  0  0  0  0
 22 25  1  0  0  0  0
 23 25  1  0  0  0  0
 24 25  1  0  0  0  0
 25 20  1  0  0  0  0
M  END
>  <MODEL>
7

>  <REMARK>
 VINA RESULT:      -8.4      3.189      6.537
  Name = 
  3 active torsions:
  status: ('A' for Active; 'I' for Inactive)
    1  A    between atoms: C_1  and  C_5
    2  A    between atoms: N_6  and  C_23
    3  A    between atoms: C_15  and  C_21
                            x       y       z     vdW  Elec       q    Type
                         _______ _______ _______ _____ _____    ______ ____

>  <TORSDO>
F 3

$$$$
=
 OpenBabel11052422083D

 25 27  0  0  0  0  0  0  0  0999 V2000
  161.4890  205.1890  148.9830 C   0  0  0  0  0  0  0  0  0  0  0  0
  161.4940  206.3720  149.7600 C   0  0  0  0  0  0  0  0  0  0  0  0
  162.1110  206.5120  147.0500 C   0  0  0  0  0  3  0  0  0  0  0  0
  162.1160  207.6350  147.8120 N   0  0  0  0  0  0  0  0  0  0  0  0
  161.8190  208.7890  149.8970 C   0  0  0  0  0  0  0  0  0  0  0  0
  162.1600  210.1020  149.2780 C   0  0  0  0  0  1  0  0  0  0  0  0
  161.1610  206.3620  151.1220 C   0  0  0  0  0  3  0  0  0  0  0  0
  161.8000  205.2790  147.6210 C   0  0  0  0  0  3  0  0  0  0  0  0
  161.4920  208.7490  151.2540 C   0  0  0  0  0  3  0  0  0  0  0  0
  161.1600  207.5430  151.8740 C   0  0  0  0  0  0  0  0  0  0  0  0
  161.8170  207.6050  149.1390 C   0  0  0  0  0  0  0  0  0  0  0  0
  161.1870  203.8540  149.5570 C   0  0  0  0  0  0  0  0  0  0  0  0
  160.5550  201.3320  150.6290 C   0  0  0  0  0  3  0  0  0  0  0  0
  161.5900  203.5120  150.8640 C   0  0  0  0  0  0  0  0  0  0  0  0
  161.2770  202.2550  151.3900 C   0  0  0  0  0  3  0  0  0  0  0  0
  160.1450  201.6640  149.3370 C   0  0  0  0  0  3  0  0  0  0  0  0
  162.3090  204.3780  151.6220 F   0  0  0  0  0  0  0  0  0  0  0  0
  160.4560  202.9180  148.8060 C   0  0  0  0  0  3  0  0  0  0  0  0
  160.8310  207.5510  153.2700 N   0  0  0  0  0  2  0  0  0  0  0  0
  161.0280  208.6320  154.1950 C   0  0  0  0  0  0  0  0  0  0  0  0
  161.6000  209.6940  153.8240 O   0  0  0  0  0  0  0  0  0  0  0  0
  161.8290  208.5030  156.5600 C   0  0  0  0  0  1  0  0  0  0  0  0
  159.6680  209.5620  156.0560 C   0  0  0  0  0  1  0  0  0  0  0  0
  159.9300  207.1210  155.8020 C   0  0  0  0  0  1  0  0  0  0  0  0
  160.6220  208.4590  155.6360 C   0  0  0  0  0  0  0  0  0  0  0  0
  1 12  1  0  0  0  0
  1  2  1  0  0  0  0
  2  7  1  0  0  0  0
  3  8  1  0  0  0  0
  3  4  2  0  0  0  0
  4 11  1  0  0  0  0
  5  9  2  0  0  0  0
  6  5  1  0  0  0  0
  7 10  2  0  0  0  0
  8  1  2  0  0  0  0
  9 10  1  0  0  0  0
 10 19  1  0  0  0  0
 11  2  2  0  0  0  0
 11  5  1  0  0  0  0
 12 14  1  0  0  0  0
 13 15  1  0  0  0  0
 14 15  2  0  0  0  0
 14 17  1  0  0  0  0
 16 13  2  0  0  0  0
 18 16  1  0  0  0  0
 18 12  2  0  0  0  0
 19 20  1  0  0  0  0
 20 25  1  0  0  0  0
 21 20  2  0  0  0  0
 25 24  1  0  0  0  0
 25 23  1  0  0  0  0
 25 22  1  0  0  0  0
M  END
>  <MODEL>
8

>  <REMARK>
 VINA RESULT:      -8.1      2.431      5.545
  Name = 
  3 active torsions:
  status: ('A' for Active; 'I' for Inactive)
    1  A    between atoms: C_1  and  C_5
    2  A    between atoms: N_6  and  C_23
    3  A    between atoms: C_15  and  C_21
                            x       y       z     vdW  Elec       q    Type
                         _______ _______ _______ _____ _____    ______ ____

>  <TORSDO>
F 3

$$$$
=
 OpenBabel11052422083D

 25 27  0  0  0  0  0  0  0  0999 V2000
  161.0430  205.9720  151.6750 C   0  0  0  0  0  0  0  0  0  0  0  0
  161.2420  206.3210  150.3190 C   0  0  0  0  0  0  0  0  0  0  0  0
  161.0090  203.6380  151.0200 C   0  0  0  0  0  3  0  0  0  0  0  0
  161.2050  203.9930  149.7250 N   0  0  0  0  0  0  0  0  0  0  0  0
  161.5120  205.6270  147.9930 C   0  0  0  0  0  0  0  0  0  0  0  0
  161.6060  204.5720  146.9420 C   0  0  0  0  0  1  0  0  0  0  0  0
  161.3350  207.6590  149.9070 C   0  0  0  0  0  3  0  0  0  0  0  0
  160.9260  204.6170  152.0100 C   0  0  0  0  0  3  0  0  0  0  0  0
  161.6100  206.9670  147.6110 C   0  0  0  0  0  3  0  0  0  0  0  0
  161.5210  207.9880  148.5600 C   0  0  0  0  0  0  0  0  0  0  0  0
  161.3210  205.2950  149.3450 C   0  0  0  0  0  0  0  0  0  0  0  0
  160.9730  206.9810  152.7620 C   0  0  0  0  0  0  0  0  0  0  0  0
  160.8840  208.9250  154.7910 C   0  0  0  0  0  3  0  0  0  0  0  0
  161.0810  206.6050  154.1170 C   0  0  0  0  0  0  0  0  0  0  0  0
  161.0320  207.5750  155.1220 C   0  0  0  0  0  3  0  0  0  0  0  0
  160.7840  209.3080  153.4540 C   0  0  0  0  0  3  0  0  0  0  0  0
  161.2060  205.3010  154.4710 F   0  0  0  0  0  0  0  0  0  0  0  0
  160.8310  208.3420  152.4450 C   0  0  0  0  0  3  0  0  0  0  0  0
  161.6280  209.3490  148.1210 N   0  0  0  0  0  2  0  0  0  0  0  0
  161.9570  210.4910  148.9290 C   0  0  0  0  0  0  0  0  0  0  0  0
  162.1200  210.3660  150.1740 O   0  0  0  0  0  0  0  0  0  0  0  0
  163.4430  212.2090  147.8860 C   0  0  0  0  0  1  0  0  0  0  0  0
  161.1490  211.9070  147.0530 C   0  0  0  0  0  1  0  0  0  0  0  0
  161.5280  212.8920  149.2850 C   0  0  0  0  0  1  0  0  0  0  0  0
  162.0220  211.8560  148.2940 C   0  0  0  0  0  0  0  0  0  0  0  0
  1  8  1  0  0  0  0
  1 12  1  0  0  0  0
  2  1  2  0  0  0  0
  3  8  2  0  0  0  0
  4  3  1  0  0  0  0
  5 11  1  0  0  0  0
  6  5  1  0  0  0  0
  7  2  1  0  0  0  0
  9  5  2  0  0  0  0
  9 10  1  0  0  0  0
 10  7  2  0  0  0  0
 11  4  2  0  0  0  0
 11  2  1  0  0  0  0
 12 14  1  0  0  0  0
 13 15  1  0  0  0  0
 14 17  1  0  0  0  0
 14 15  2  0  0  0  0
 16 13  2  0  0  0  0
 18 12  2  0  0  0  0
 18 16  1  0  0  0  0
 19 10  1  0  0  0  0
 19 20  1  0  0  0  0
 20 21  2  0  0  0  0
 22 25  1  0  0  0  0
 23 25  1  0  0  0  0
 25 20  1  0  0  0  0
 25 24  1  0  0  0  0
M  END
>  <MODEL>
9

>  <REMARK>
 VINA RESULT:      -7.9      2.043      5.060
  Name = 
  3 active torsions:
  status: ('A' for Active; 'I' for Inactive)
    1  A    between atoms: C_1  and  C_5
    2  A    between atoms: N_6  and  C_23
    3  A    between atoms: C_15  and  C_21
                            x       y       z     vdW  Elec       q    Type
                         _______ _______ _______ _____ _____    ______ ____

>  <TORSDO>
F 3

$$$$
