=
 OpenBabel11052421543D

 30 34  0  0  1  0  0  0  0  0999 V2000
  161.4440  207.9520  149.9880 C   0  0  0  0  0  2  0  0  0  0  0  0
  162.3900  208.7500  150.7570 N   0  0  0  0  0  2  0  0  0  0  0  0
  162.8930  210.2320  152.4720 O   0  0  0  0  0  0  0  0  0  0  0  0
  162.0090  209.5710  151.8650 C   0  0  0  0  0  0  0  0  0  0  0  0
  160.5710  209.6650  152.3010 C   0  0  1  0  0  3  0  0  0  0  0  0
  160.8180  206.4020  153.9320 O   0  0  0  0  0  1  0  0  0  0  0  0
  160.3060  208.6690  153.4320 C   0  0  2  0  0  3  0  0  0  0  0  0
  161.4430  208.7050  154.4440 C   0  0  2  0  0  3  0  0  0  0  0  0
  161.3610  207.5790  153.4090 C   0  0  1  0  0  3  0  0  0  0  0  0
  161.7720  207.9390  156.6850 O   0  0  0  0  0  0  0  0  0  0  0  0
  160.9540  208.3310  155.8120 C   0  0  0  0  0  0  0  0  0  0  0  0
  159.5790  208.4750  156.1500 N   0  0  0  0  0  1  0  0  0  0  0  0
  160.1700  212.2100  151.2750 S   0  0  0  0  0  1  0  0  0  0  0  0
  160.2200  211.1020  152.7190 C   0  0  1  0  0  3  0  0  0  0  0  0
  158.8670  211.1700  153.4070 C   0  0  0  0  0  1  0  0  0  0  0  0
  161.6090  208.2190  148.5000 C   0  0  0  0  0  2  0  0  0  0  0  0
  162.0710  206.9670  147.7740 C   0  0  0  0  0  2  0  0  0  0  0  0
  161.0720  206.5770  146.7840 N   0  0  0  0  0  0  0  0  0  0  0  0
  161.0430  205.1130  146.5210 C   0  0  1  0  0  0  0  0  0  0  0  0
  161.0280  204.8580  145.0340 C   0  0  0  0  0  2  0  0  0  0  0  0
  161.7990  206.0090  145.6390 C   0  0  1  0  0  3  0  0  0  0  0  0
  162.0740  204.2330  147.2420 C   0  0  0  0  0  2  0  0  0  0  0  0
  161.0860  202.4610  151.3480 C   0  0  1  0  0  3  0  0  0  0  0  0
  160.8250  201.1310  149.2430 C   0  0  0  0  0  2  0  0  0  0  0  0
  160.5030  203.6520  151.8220 O   0  0  0  0  0  0  0  0  0  0  0  0
  161.4570  203.4660  148.3680 C   0  0  0  0  0  0  0  0  0  0  0  0
  160.0980  201.7330  150.4390 C   0  0  0  0  0  2  0  0  0  0  0  0
  161.5100  203.8040  150.8480 C   0  0  2  0  0  3  0  0  0  0  0  0
  161.3780  202.1270  148.2460 C   0  0  0  0  0  3  0  0  0  0  0  0
  160.8680  204.2220  149.5270 C   0  0  0  0  0  2  0  0  0  0  0  0
  1  2  1  0  0  0  0
  2  4  1  0  0  0  0
  4  3  2  0  0  0  0
  5  4  1  1  0  0  0
  5 14  1  0  0  0  0
  7  5  1  6  0  0  0
  7  8  1  0  0  0  0
  8 11  1  1  0  0  0
  9  7  1  0  0  0  0
  9  6  1  1  0  0  0
  9  8  1  0  0  0  0
 11 12  1  0  0  0  0
 11 10  2  0  0  0  0
 13 14  1  0  0  0  0
 14 15  1  6  0  0  0
 16  1  1  0  0  0  0
 17 16  1  0  0  0  0
 18 17  1  0  0  0  0
 19 18  1  0  0  0  0
 19 22  1  1  0  0  0
 20 19  1  0  0  0  0
 21 20  1  6  0  0  0
 21 19  1  0  0  0  0
 21 18  1  0  0  0  0
 22 26  1  0  0  0  0
 23 27  1  6  0  0  0
 23 25  1  0  0  0  0
 24 27  1  0  0  0  0
 26 30  1  0  0  0  0
 28 30  1  6  0  0  0
 28 23  1  0  0  0  0
 28 25  1  0  0  0  0
 29 26  2  0  0  0  0
 29 24  1  0  0  0  0
M  END
>  <MODEL>
1

>  <REMARK>
 VINA RESULT:      -7.3      0.000      0.000
  Name = 
  10 active torsions:
  status: ('A' for Active; 'I' for Inactive)
    1  A    between atoms: C_3  and  C_11
    2  A    between atoms: C_3  and  C_19
    3  A    between atoms: C_4  and  C_13
    4  A    between atoms: N_7  and  C_16
    5  A    between atoms: C_8  and  C_13
    6  A    between atoms: C_9  and  C_17
    7  A    between atoms: N_10  and  C_15
    8  A    between atoms: C_13  and  C_30
    9  A    between atoms: C_15  and  C_26
   10  A    between atoms: C_16  and  C_26
                            x       y       z     vdW  Elec       q    Type
                         _______ _______ _______ _____ _____    ______ ____

>  <TORSDO>
F 10

$$$$
=
 OpenBabel11052421543D

 30 34  0  0  1  0  0  0  0  0999 V2000
  160.7970  207.3310  153.8660 C   0  0  0  0  0  2  0  0  0  0  0  0
  160.6840  207.6290  155.2880 N   0  0  0  0  0  2  0  0  0  0  0  0
  160.1160  209.0400  157.0420 O   0  0  0  0  0  0  0  0  0  0  0  0
  160.1750  208.8650  155.7950 C   0  0  0  0  0  0  0  0  0  0  0  0
  159.7260  209.9600  154.8630 C   0  0  1  0  0  3  0  0  0  0  0  0
  158.1590  212.8620  156.4410 O   0  0  0  0  0  1  0  0  0  0  0  0
  158.5540  210.7220  155.4840 C   0  0  2  0  0  3  0  0  0  0  0  0
  157.8280  211.5330  154.4200 C   0  0  2  0  0  3  0  0  0  0  0  0
  158.8050  212.2150  155.3830 C   0  0  1  0  0  3  0  0  0  0  0  0
  155.7460  212.7060  154.3460 O   0  0  0  0  0  0  0  0  0  0  0  0
  156.3810  211.7080  154.7740 C   0  0  0  0  0  0  0  0  0  0  0  0
  155.7020  210.7170  155.5400 N   0  0  0  0  0  1  0  0  0  0  0  0
  162.3030  210.6230  155.6430 S   0  0  0  0  0  1  0  0  0  0  0  0
  160.8950  210.9000  154.5220 C   0  0  1  0  0  3  0  0  0  0  0  0
  161.3820  210.6920  153.0990 C   0  0  0  0  0  1  0  0  0  0  0  0
  161.5640  206.0350  153.6530 C   0  0  0  0  0  2  0  0  0  0  0  0
  161.6710  205.7070  152.1740 C   0  0  0  0  0  2  0  0  0  0  0  0
  162.0250  204.3020  152.0070 N   0  0  0  0  0  0  0  0  0  0  0  0
  161.5600  203.7250  150.7180 C   0  0  1  0  0  0  0  0  0  0  0  0
  160.8850  202.3980  150.9610 C   0  0  0  0  0  2  0  0  0  0  0  0
  160.7660  203.5450  151.9380 C   0  0  1  0  0  3  0  0  0  0  0  0
  160.7350  204.6230  149.7850 C   0  0  0  0  0  2  0  0  0  0  0  0
  161.0740  204.9730  145.2310 C   0  0  1  0  0  3  0  0  0  0  0  0
  161.3560  202.7810  146.4080 C   0  0  0  0  0  2  0  0  0  0  0  0
  161.7630  206.1990  145.2860 O   0  0  0  0  0  0  0  0  0  0  0  0
  161.1310  204.4490  148.3530 C   0  0  0  0  0  0  0  0  0  0  0  0
  162.0390  203.8290  145.5370 C   0  0  0  0  0  2  0  0  0  0  0  0
  160.8850  205.9380  146.3570 C   0  0  2  0  0  3  0  0  0  0  0  0
  161.0410  203.2140  147.8240 C   0  0  0  0  0  3  0  0  0  0  0  0
  161.7020  205.6230  147.6080 C   0  0  0  0  0  2  0  0  0  0  0  0
  1  2  1  0  0  0  0
  2  4  1  0  0  0  0
  4  3  2  0  0  0  0
  5  4  1  1  0  0  0
  7  5  1  6  0  0  0
  8 11  1  1  0  0  0
  8  9  1  0  0  0  0
  8  7  1  0  0  0  0
  9  7  1  0  0  0  0
  9  6  1  1  0  0  0
 10 11  2  0  0  0  0
 11 12  1  0  0  0  0
 14 15  1  6  0  0  0
 14  5  1  0  0  0  0
 14 13  1  0  0  0  0
 16  1  1  0  0  0  0
 17 16  1  0  0  0  0
 18 17  1  0  0  0  0
 19 22  1  6  0  0  0
 19 20  1  0  0  0  0
 19 21  1  0  0  0  0
 19 18  1  0  0  0  0
 21 20  1  1  0  0  0
 21 18  1  0  0  0  0
 23 25  1  0  0  0  0
 23 27  1  1  0  0  0
 23 28  1  0  0  0  0
 24 29  1  0  0  0  0
 25 28  1  0  0  0  0
 26 22  1  0  0  0  0
 27 24  1  0  0  0  0
 28 30  1  1  0  0  0
 29 26  2  0  0  0  0
 30 26  1  0  0  0  0
M  END
>  <MODEL>
2

>  <REMARK>
 VINA RESULT:      -7.1      3.025      4.985
  Name = 
  10 active torsions:
  status: ('A' for Active; 'I' for Inactive)
    1  A    between atoms: C_3  and  C_11
    2  A    between atoms: C_3  and  C_19
    3  A    between atoms: C_4  and  C_13
    4  A    between atoms: N_7  and  C_16
    5  A    between atoms: C_8  and  C_13
    6  A    between atoms: C_9  and  C_17
    7  A    between atoms: N_10  and  C_15
    8  A    between atoms: C_13  and  C_30
    9  A    between atoms: C_15  and  C_26
   10  A    between atoms: C_16  and  C_26
                            x       y       z     vdW  Elec       q    Type
                         _______ _______ _______ _____ _____    ______ ____

>  <TORSDO>
F 10

$$$$
=
 OpenBabel11052421543D

 30 34  0  0  1  0  0  0  0  0999 V2000
  162.3790  207.6800  148.6410 C   0  0  0  0  0  2  0  0  0  0  0  0
  161.3790  207.5420  147.5900 N   0  0  0  0  0  2  0  0  0  0  0  0
  160.1640  206.2620  146.0800 O   0  0  0  0  0  0  0  0  0  0  0  0
  161.0390  206.2900  146.9870 C   0  0  0  0  0  0  0  0  0  0  0  0
  161.7210  205.0150  147.4100 C   0  0  1  0  0  3  0  0  0  0  0  0
  160.0620  202.0190  148.6930 O   0  0  0  0  0  1  0  0  0  0  0  0
  160.8270  204.2500  148.3890 C   0  0  2  0  0  3  0  0  0  0  0  0
  161.6620  203.6670  149.5210 C   0  0  2  0  0  3  0  0  0  0  0  0
  161.1910  202.7770  148.3660 C   0  0  1  0  0  3  0  0  0  0  0  0
  159.8500  204.2850  150.9520 O   0  0  0  0  0  0  0  0  0  0  0  0
  160.8500  203.5410  150.7750 C   0  0  0  0  0  0  0  0  0  0  0  0
  161.1640  202.5420  151.7400 N   0  0  0  0  0  1  0  0  0  0  0  0
  160.8330  204.3320  144.8730 S   0  0  0  0  0  1  0  0  0  0  0  0
  162.0830  204.1580  146.1860 C   0  0  1  0  0  3  0  0  0  0  0  0
  163.4290  204.5540  145.6040 C   0  0  0  0  0  1  0  0  0  0  0  0
  161.9950  208.7990  149.5960 C   0  0  0  0  0  2  0  0  0  0  0  0
  162.2960  208.4100  151.0340 C   0  0  0  0  0  2  0  0  0  0  0  0
  161.3920  207.3440  151.4530 N   0  0  0  0  0  0  0  0  0  0  0  0
  160.9170  207.4900  152.8540 C   0  0  1  0  0  0  0  0  0  0  0  0
  161.0510  206.1760  153.5830 C   0  0  0  0  0  2  0  0  0  0  0  0
  162.0580  206.6200  152.5460 C   0  0  1  0  0  3  0  0  0  0  0  0
  161.4690  208.6600  153.6810 C   0  0  0  0  0  2  0  0  0  0  0  0
  159.1450  212.5910  154.0400 C   0  0  1  0  0  3  0  0  0  0  0  0
  158.8980  210.7560  155.7260 C   0  0  0  0  0  2  0  0  0  0  0  0
  158.9000  212.6770  152.6560 O   0  0  0  0  0  0  0  0  0  0  0  0
  160.4200  209.6940  153.9460 C   0  0  0  0  0  0  0  0  0  0  0  0
  158.1800  211.5900  154.6700 C   0  0  0  0  0  2  0  0  0  0  0  0
  160.0770  211.9990  153.0320 C   0  0  2  0  0  3  0  0  0  0  0  0
  159.9340  209.7890  155.1990 C   0  0  0  0  0  3  0  0  0  0  0  0
  159.8880  210.5020  152.7940 C   0  0  0  0  0  2  0  0  0  0  0  0
  1 16  1  0  0  0  0
  2  1  1  0  0  0  0
  3  4  2  0  0  0  0
  4  2  1  0  0  0  0
  5  4  1  6  0  0  0
  7  5  1  6  0  0  0
  7  8  1  0  0  0  0
  8 11  1  1  0  0  0
  9  7  1  0  0  0  0
  9  6  1  1  0  0  0
  9  8  1  0  0  0  0
 11 10  2  0  0  0  0
 11 12  1  0  0  0  0
 13 14  1  0  0  0  0
 14 15  1  6  0  0  0
 14  5  1  0  0  0  0
 16 17  1  0  0  0  0
 17 18  1  0  0  0  0
 18 21  1  0  0  0  0
 18 19  1  0  0  0  0
 19 20  1  0  0  0  0
 19 22  1  1  0  0  0
 21 19  1  0  0  0  0
 21 20  1  6  0  0  0
 22 26  1  0  0  0  0
 23 27  1  1  0  0  0
 25 28  1  0  0  0  0
 25 23  1  0  0  0  0
 26 29  2  0  0  0  0
 27 24  1  0  0  0  0
 28 30  1  1  0  0  0
 28 23  1  0  0  0  0
 29 24  1  0  0  0  0
 30 26  1  0  0  0  0
M  END
>  <MODEL>
3

>  <REMARK>
 VINA RESULT:      -7.0      2.958      7.871
  Name = 
  10 active torsions:
  status: ('A' for Active; 'I' for Inactive)
    1  A    between atoms: C_3  and  C_11
    2  A    between atoms: C_3  and  C_19
    3  A    between atoms: C_4  and  C_13
    4  A    between atoms: N_7  and  C_16
    5  A    between atoms: C_8  and  C_13
    6  A    between atoms: C_9  and  C_17
    7  A    between atoms: N_10  and  C_15
    8  A    between atoms: C_13  and  C_30
    9  A    between atoms: C_15  and  C_26
   10  A    between atoms: C_16  and  C_26
                            x       y       z     vdW  Elec       q    Type
                         _______ _______ _______ _____ _____    ______ ____

>  <TORSDO>
F 10

$$$$
=
 OpenBabel11052421543D

 30 34  0  0  1  0  0  0  0  0999 V2000
  161.7550  210.0190  152.7780 C   0  0  0  0  0  2  0  0  0  0  0  0
  160.8570  209.2650  153.6430 N   0  0  0  0  0  2  0  0  0  0  0  0
  159.5130  209.0780  155.5280 O   0  0  0  0  0  0  0  0  0  0  0  0
  160.2770  209.8030  154.8350 C   0  0  0  0  0  0  0  0  0  0  0  0
  160.5800  211.2100  155.2770 C   0  0  1  0  0  3  0  0  0  0  0  0
  158.2450  213.7850  154.1410 O   0  0  0  0  0  1  0  0  0  0  0  0
  159.2830  212.0200  155.3500 C   0  0  2  0  0  3  0  0  0  0  0  0
  158.2050  211.3700  154.4930 C   0  0  2  0  0  3  0  0  0  0  0  0
  158.9660  212.5980  153.9830 C   0  0  1  0  0  3  0  0  0  0  0  0
  155.8550  211.7380  154.2550 O   0  0  0  0  0  0  0  0  0  0  0  0
  156.8390  211.6650  155.0360 C   0  0  0  0  0  0  0  0  0  0  0  0
  156.6350  211.8010  156.4400 N   0  0  0  0  0  1  0  0  0  0  0  0
  163.0560  210.6930  156.4130 S   0  0  0  0  0  1  0  0  0  0  0  0
  161.3230  211.2120  156.6230 C   0  0  1  0  0  3  0  0  0  0  0  0
  161.3220  212.5910  157.2610 C   0  0  0  0  0  1  0  0  0  0  0  0
  162.2170  209.1580  151.6120 C   0  0  0  0  0  2  0  0  0  0  0  0
  161.3500  207.9180  151.4780 C   0  0  0  0  0  2  0  0  0  0  0  0
  162.1050  206.7430  151.8950 N   0  0  0  0  0  0  0  0  0  0  0  0
  161.7350  205.5090  151.1510 C   0  0  1  0  0  0  0  0  0  0  0  0
  161.5260  204.3690  152.1170 C   0  0  0  0  0  2  0  0  0  0  0  0
  161.1400  205.7890  152.4630 C   0  0  1  0  0  3  0  0  0  0  0  0
  160.5970  205.6030  150.1240 C   0  0  0  0  0  2  0  0  0  0  0  0
  160.9870  204.9110  145.6140 C   0  0  1  0  0  3  0  0  0  0  0  0
  161.4250  203.0840  147.2690 C   0  0  0  0  0  2  0  0  0  0  0  0
  161.5720  206.1700  145.3800 O   0  0  0  0  0  0  0  0  0  0  0  0
  161.0320  205.1340  148.7720 C   0  0  0  0  0  0  0  0  0  0  0  0
  162.0360  203.9540  146.1760 C   0  0  0  0  0  2  0  0  0  0  0  0
  160.7000  206.0920  146.4840 C   0  0  2  0  0  3  0  0  0  0  0  0
  161.0520  203.8060  148.5450 C   0  0  0  0  0  3  0  0  0  0  0  0
  161.5180  206.1460  147.7720 C   0  0  0  0  0  2  0  0  0  0  0  0
  1  2  1  0  0  0  0
  2  4  1  0  0  0  0
  4  3  2  0  0  0  0
  5  4  1  1  0  0  0
  5 14  1  0  0  0  0
  7  5  1  6  0  0  0
  8 11  1  1  0  0  0
  8  7  1  0  0  0  0
  9  6  1  1  0  0  0
  9  8  1  0  0  0  0
  9  7  1  0  0  0  0
 10 11  2  0  0  0  0
 11 12  1  0  0  0  0
 13 14  1  0  0  0  0
 14 15  1  6  0  0  0
 16  1  1  0  0  0  0
 17 16  1  0  0  0  0
 17 18  1  0  0  0  0
 18 21  1  0  0  0  0
 19 22  1  6  0  0  0
 19 18  1  0  0  0  0
 19 20  1  0  0  0  0
 19 21  1  0  0  0  0
 21 20  1  1  0  0  0
 23 27  1  1  0  0  0
 23 28  1  0  0  0  0
 24 29  1  0  0  0  0
 25 23  1  0  0  0  0
 25 28  1  0  0  0  0
 26 22  1  0  0  0  0
 27 24  1  0  0  0  0
 28 30  1  1  0  0  0
 29 26  2  0  0  0  0
 30 26  1  0  0  0  0
M  END
>  <MODEL>
4

>  <REMARK>
 VINA RESULT:      -6.9      3.130      4.903
  Name = 
  10 active torsions:
  status: ('A' for Active; 'I' for Inactive)
    1  A    between atoms: C_3  and  C_11
    2  A    between atoms: C_3  and  C_19
    3  A    between atoms: C_4  and  C_13
    4  A    between atoms: N_7  and  C_16
    5  A    between atoms: C_8  and  C_13
    6  A    between atoms: C_9  and  C_17
    7  A    between atoms: N_10  and  C_15
    8  A    between atoms: C_13  and  C_30
    9  A    between atoms: C_15  and  C_26
   10  A    between atoms: C_16  and  C_26
                            x       y       z     vdW  Elec       q    Type
                         _______ _______ _______ _____ _____    ______ ____

>  <TORSDO>
F 10

$$$$
=
 OpenBabel11052421543D

 30 34  0  0  1  0  0  0  0  0999 V2000
  162.4210  207.7120  148.5890 C   0  0  0  0  0  2  0  0  0  0  0  0
  161.3950  207.5490  147.5670 N   0  0  0  0  0  2  0  0  0  0  0  0
  160.1370  206.2330  146.1250 O   0  0  0  0  0  0  0  0  0  0  0  0
  161.0340  206.2820  147.0090 C   0  0  0  0  0  0  0  0  0  0  0  0
  161.7200  205.0160  147.4520 C   0  0  1  0  0  3  0  0  0  0  0  0
  160.0550  202.0350  148.7590 O   0  0  0  0  0  1  0  0  0  0  0  0
  160.8270  204.2610  148.4380 C   0  0  2  0  0  3  0  0  0  0  0  0
  161.6620  203.6830  149.5720 C   0  0  2  0  0  3  0  0  0  0  0  0
  161.1860  202.7860  148.4250 C   0  0  1  0  0  3  0  0  0  0  0  0
  159.8630  204.3250  151.0100 O   0  0  0  0  0  0  0  0  0  0  0  0
  160.8530  203.5680  150.8290 C   0  0  0  0  0  0  0  0  0  0  0  0
  161.1570  202.5650  151.7930 N   0  0  0  0  0  1  0  0  0  0  0  0
  160.8570  204.3130  144.9130 S   0  0  0  0  0  1  0  0  0  0  0  0
  162.0900  204.1440  146.2410 C   0  0  1  0  0  3  0  0  0  0  0  0
  163.4460  204.5250  145.6710 C   0  0  0  0  0  1  0  0  0  0  0  0
  161.9860  208.7420  149.6200 C   0  0  0  0  0  2  0  0  0  0  0  0
  162.3570  208.2940  151.0230 C   0  0  0  0  0  2  0  0  0  0  0  0
  161.3780  207.3260  151.5040 N   0  0  0  0  0  0  0  0  0  0  0  0
  160.8840  207.6180  152.8760 C   0  0  1  0  0  0  0  0  0  0  0  0
  160.9180  206.3630  153.7130 C   0  0  0  0  0  2  0  0  0  0  0  0
  161.9720  206.6550  152.6700 C   0  0  1  0  0  3  0  0  0  0  0  0
  161.4930  208.8160  153.6190 C   0  0  0  0  0  2  0  0  0  0  0  0
  157.9030  211.2630  155.0680 C   0  0  1  0  0  3  0  0  0  0  0  0
  158.7780  211.4670  152.7320 C   0  0  0  0  0  2  0  0  0  0  0  0
  158.4620  211.4990  156.3380 O   0  0  0  0  0  0  0  0  0  0  0  0
  160.4850  209.8980  153.8450 C   0  0  0  0  0  0  0  0  0  0  0  0
  158.5380  212.2020  154.0450 C   0  0  0  0  0  2  0  0  0  0  0  0
  158.8590  210.3050  155.7040 C   0  0  2  0  0  3  0  0  0  0  0  0
  159.8470  210.3970  152.7690 C   0  0  0  0  0  3  0  0  0  0  0  0
  160.3050  210.4460  155.2340 C   0  0  0  0  0  2  0  0  0  0  0  0
  1 16  1  0  0  0  0
  2  1  1  0  0  0  0
  3  4  2  0  0  0  0
  4  2  1  0  0  0  0
  5  4  1  6  0  0  0
  7  5  1  6  0  0  0
  7  8  1  0  0  0  0
  8 11  1  1  0  0  0
  9  7  1  0  0  0  0
  9  6  1  1  0  0  0
  9  8  1  0  0  0  0
 11 10  2  0  0  0  0
 11 12  1  0  0  0  0
 13 14  1  0  0  0  0
 14 15  1  6  0  0  0
 14  5  1  0  0  0  0
 16 17  1  0  0  0  0
 17 18  1  0  0  0  0
 18 21  1  0  0  0  0
 18 19  1  0  0  0  0
 19 22  1  1  0  0  0
 19 20  1  0  0  0  0
 21 19  1  0  0  0  0
 21 20  1  6  0  0  0
 22 26  1  0  0  0  0
 23 27  1  6  0  0  0
 23 28  1  0  0  0  0
 23 25  1  0  0  0  0
 24 29  1  0  0  0  0
 24 27  1  0  0  0  0
 26 30  1  0  0  0  0
 28 30  1  6  0  0  0
 28 25  1  0  0  0  0
 29 26  2  0  0  0  0
M  END
>  <MODEL>
5

>  <REMARK>
 VINA RESULT:      -6.9      2.971      7.834
  Name = 
  10 active torsions:
  status: ('A' for Active; 'I' for Inactive)
    1  A    between atoms: C_3  and  C_11
    2  A    between atoms: C_3  and  C_19
    3  A    between atoms: C_4  and  C_13
    4  A    between atoms: N_7  and  C_16
    5  A    between atoms: C_8  and  C_13
    6  A    between atoms: C_9  and  C_17
    7  A    between atoms: N_10  and  C_15
    8  A    between atoms: C_13  and  C_30
    9  A    between atoms: C_15  and  C_26
   10  A    between atoms: C_16  and  C_26
                            x       y       z     vdW  Elec       q    Type
                         _______ _______ _______ _____ _____    ______ ____

>  <TORSDO>
F 10

$$$$
=
 OpenBabel11052421543D

 30 34  0  0  1  0  0  0  0  0999 V2000
  160.5480  208.9940  152.2180 C   0  0  0  0  0  2  0  0  0  0  0  0
  160.7220  210.4410  152.2130 N   0  0  0  0  0  2  0  0  0  0  0  0
  160.2250  212.5620  153.0170 O   0  0  0  0  0  0  0  0  0  0  0  0
  160.0160  211.3210  153.0920 C   0  0  0  0  0  0  0  0  0  0  0  0
  159.0210  210.7870  154.0890 C   0  0  1  0  0  3  0  0  0  0  0  0
  160.2320  209.0110  157.0470 O   0  0  0  0  0  1  0  0  0  0  0  0
  159.6690  210.7020  155.4730 C   0  0  2  0  0  3  0  0  0  0  0  0
  161.1700  210.4830  155.3400 C   0  0  2  0  0  3  0  0  0  0  0  0
  160.2430  209.3130  155.6820 C   0  0  1  0  0  3  0  0  0  0  0  0
  163.0320  210.6100  156.8340 O   0  0  0  0  0  0  0  0  0  0  0  0
  161.9010  211.0610  156.5150 C   0  0  0  0  0  0  0  0  0  0  0  0
  161.3540  212.1620  157.2330 N   0  0  0  0  0  1  0  0  0  0  0  0
  156.4120  210.8280  155.0270 S   0  0  0  0  0  1  0  0  0  0  0  0
  157.7520  211.6550  154.1120 C   0  0  1  0  0  3  0  0  0  0  0  0
  158.0060  213.0000  154.7710 C   0  0  0  0  0  1  0  0  0  0  0  0
  161.8890  208.2980  152.3970 C   0  0  0  0  0  2  0  0  0  0  0  0
  162.1720  207.3630  151.2350 C   0  0  0  0  0  2  0  0  0  0  0  0
  162.4710  206.0270  151.7410 N   0  0  0  0  0  0  0  0  0  0  0  0
  161.7270  204.9490  151.0350 C   0  0  1  0  0  0  0  0  0  0  0  0
  161.1140  204.0050  152.0400 C   0  0  0  0  0  2  0  0  0  0  0  0
  161.2220  205.4900  152.3020 C   0  0  1  0  0  3  0  0  0  0  0  0
  160.7220  205.3620  149.9500 C   0  0  0  0  0  2  0  0  0  0  0  0
  161.1080  204.6840  145.4370 C   0  0  1  0  0  3  0  0  0  0  0  0
  161.4010  202.8160  147.0790 C   0  0  0  0  0  2  0  0  0  0  0  0
  161.7820  205.9000  145.2210 O   0  0  0  0  0  0  0  0  0  0  0  0
  161.1360  204.8750  148.5980 C   0  0  0  0  0  0  0  0  0  0  0  0
  162.0820  203.6510  146.0000 C   0  0  0  0  0  2  0  0  0  0  0  0
  160.8950  205.8740  146.3150 C   0  0  2  0  0  3  0  0  0  0  0  0
  161.0660  203.5510  148.3580 C   0  0  0  0  0  3  0  0  0  0  0  0
  161.7020  205.8600  147.6120 C   0  0  0  0  0  2  0  0  0  0  0  0
  1 16  1  0  0  0  0
  2  1  1  0  0  0  0
  2  4  1  0  0  0  0
  3  4  2  0  0  0  0
  5  4  1  6  0  0  0
  5 14  1  0  0  0  0
  7  5  1  6  0  0  0
  7  9  1  0  0  0  0
  8  7  1  0  0  0  0
  8  9  1  0  0  0  0
  8 11  1  1  0  0  0
  9  6  1  1  0  0  0
 11 10  2  0  0  0  0
 11 12  1  0  0  0  0
 14 15  1  1  0  0  0
 14 13  1  0  0  0  0
 17 18  1  0  0  0  0
 17 16  1  0  0  0  0
 18 21  1  0  0  0  0
 19 22  1  6  0  0  0
 19 18  1  0  0  0  0
 19 20  1  0  0  0  0
 19 21  1  0  0  0  0
 21 20  1  1  0  0  0
 23 27  1  1  0  0  0
 23 28  1  0  0  0  0
 24 29  1  0  0  0  0
 25 23  1  0  0  0  0
 25 28  1  0  0  0  0
 26 22  1  0  0  0  0
 27 24  1  0  0  0  0
 28 30  1  1  0  0  0
 29 26  2  0  0  0  0
 30 26  1  0  0  0  0
M  END
>  <MODEL>
6

>  <REMARK>
 VINA RESULT:      -6.9      2.676      4.099
  Name = 
  10 active torsions:
  status: ('A' for Active; 'I' for Inactive)
    1  A    between atoms: C_3  and  C_11
    2  A    between atoms: C_3  and  C_19
    3  A    between atoms: C_4  and  C_13
    4  A    between atoms: N_7  and  C_16
    5  A    between atoms: C_8  and  C_13
    6  A    between atoms: C_9  and  C_17
    7  A    between atoms: N_10  and  C_15
    8  A    between atoms: C_13  and  C_30
    9  A    between atoms: C_15  and  C_26
   10  A    between atoms: C_16  and  C_26
                            x       y       z     vdW  Elec       q    Type
                         _______ _______ _______ _____ _____    ______ ____

>  <TORSDO>
F 10

$$$$
=
 OpenBabel11052421543D

 30 34  0  0  1  0  0  0  0  0999 V2000
  161.3170  209.9360  152.9130 C   0  0  0  0  0  2  0  0  0  0  0  0
  161.9560  210.7030  153.9740 N   0  0  0  0  0  2  0  0  0  0  0  0
  162.0830  211.4390  156.1730 O   0  0  0  0  0  0  0  0  0  0  0  0
  161.4690  210.7440  155.3190 C   0  0  0  0  0  0  0  0  0  0  0  0
  160.2310  209.9860  155.7180 C   0  0  1  0  0  3  0  0  0  0  0  0
  156.7310  210.8910  155.1680 O   0  0  0  0  0  1  0  0  0  0  0  0
  159.0460  210.4420  154.8640 C   0  0  2  0  0  3  0  0  0  0  0  0
  158.9120  211.9580  154.9130 C   0  0  2  0  0  3  0  0  0  0  0  0
  157.9890  211.0700  155.7530 C   0  0  1  0  0  3  0  0  0  0  0  0
  158.3990  211.8280  152.5820 O   0  0  0  0  0  0  0  0  0  0  0  0
  158.2940  212.4820  153.6520 C   0  0  0  0  0  0  0  0  0  0  0  0
  157.5330  213.6860  153.6690 N   0  0  0  0  0  1  0  0  0  0  0  0
  161.6150  207.8850  156.8840 S   0  0  0  0  0  1  0  0  0  0  0  0
  160.4590  208.4690  155.6050 C   0  0  1  0  0  3  0  0  0  0  0  0
  159.1610  207.6960  155.7610 C   0  0  0  0  0  1  0  0  0  0  0  0
  162.3020  209.6590  151.7890 C   0  0  0  0  0  2  0  0  0  0  0  0
  161.8700  208.4510  150.9760 C   0  0  0  0  0  2  0  0  0  0  0  0
  162.3310  207.2300  151.6280 N   0  0  0  0  0  0  0  0  0  0  0  0
  161.7560  205.9920  151.0380 C   0  0  1  0  0  0  0  0  0  0  0  0
  161.2480  205.0870  152.1330 C   0  0  0  0  0  2  0  0  0  0  0  0
  161.1510  206.5930  152.2320 C   0  0  1  0  0  3  0  0  0  0  0  0
  160.7330  206.1460  149.9030 C   0  0  0  0  0  2  0  0  0  0  0  0
  161.2060  204.7540  145.5650 C   0  0  1  0  0  3  0  0  0  0  0  0
  161.5810  203.2030  147.4940 C   0  0  0  0  0  2  0  0  0  0  0  0
  161.8170  205.9530  145.1520 O   0  0  0  0  0  0  0  0  0  0  0  0
  161.1880  205.4660  148.6510 C   0  0  0  0  0  0  0  0  0  0  0  0
  162.2280  203.8840  146.2940 C   0  0  0  0  0  2  0  0  0  0  0  0
  160.9200  206.0600  146.2340 C   0  0  2  0  0  3  0  0  0  0  0  0
  161.1920  204.1190  148.6340 C   0  0  0  0  0  3  0  0  0  0  0  0
  161.7120  206.3040  147.5170 C   0  0  0  0  0  2  0  0  0  0  0  0
  1  2  1  0  0  0  0
  2  4  1  0  0  0  0
  4  3  2  0  0  0  0
  5  4  1  6  0  0  0
  7  8  1  0  0  0  0
  7  5  1  1  0  0  0
  7  9  1  0  0  0  0
  8 11  1  6  0  0  0
  8  9  1  0  0  0  0
  9  6  1  6  0  0  0
 10 11  2  0  0  0  0
 11 12  1  0  0  0  0
 14  5  1  0  0  0  0
 14 15  1  1  0  0  0
 14 13  1  0  0  0  0
 16  1  1  0  0  0  0
 17 18  1  0  0  0  0
 17 16  1  0  0  0  0
 18 21  1  0  0  0  0
 19 22  1  6  0  0  0
 19 18  1  0  0  0  0
 19 20  1  0  0  0  0
 19 21  1  0  0  0  0
 21 20  1  1  0  0  0
 23 28  1  0  0  0  0
 23 27  1  1  0  0  0
 24 29  1  0  0  0  0
 25 23  1  0  0  0  0
 25 28  1  0  0  0  0
 26 22  1  0  0  0  0
 27 24  1  0  0  0  0
 28 30  1  1  0  0  0
 29 26  2  0  0  0  0
 30 26  1  0  0  0  0
M  END
>  <MODEL>
7

>  <REMARK>
 VINA RESULT:      -6.7      3.057      4.843
  Name = 
  10 active torsions:
  status: ('A' for Active; 'I' for Inactive)
    1  A    between atoms: C_3  and  C_11
    2  A    between atoms: C_3  and  C_19
    3  A    between atoms: C_4  and  C_13
    4  A    between atoms: N_7  and  C_16
    5  A    between atoms: C_8  and  C_13
    6  A    between atoms: C_9  and  C_17
    7  A    between atoms: N_10  and  C_15
    8  A    between atoms: C_13  and  C_30
    9  A    between atoms: C_15  and  C_26
   10  A    between atoms: C_16  and  C_26
                            x       y       z     vdW  Elec       q    Type
                         _______ _______ _______ _____ _____    ______ ____

>  <TORSDO>
F 10

$$$$
=
 OpenBabel11052421543D

 30 34  0  0  1  0  0  0  0  0999 V2000
  160.4720  205.9370  152.7790 C   0  0  0  0  0  2  0  0  0  0  0  0
  160.9580  206.5620  154.0030 N   0  0  0  0  0  2  0  0  0  0  0  0
  161.6080  208.4240  155.2280 O   0  0  0  0  0  0  0  0  0  0  0  0
  161.1820  207.9690  154.1330 C   0  0  0  0  0  0  0  0  0  0  0  0
  160.9320  208.9040  152.9790 C   0  0  1  0  0  3  0  0  0  0  0  0
  159.6830  212.3310  152.7250 O   0  0  0  0  0  1  0  0  0  0  0  0
  160.6840  210.3190  153.5030 C   0  0  2  0  0  3  0  0  0  0  0  0
  159.3210  210.4020  154.1770 C   0  0  2  0  0  3  0  0  0  0  0  0
  159.5190  210.9430  152.7570 C   0  0  1  0  0  3  0  0  0  0  0  0
  160.3960  211.7970  155.7940 O   0  0  0  0  0  0  0  0  0  0  0  0
  159.3160  211.4510  155.2480 C   0  0  0  0  0  0  0  0  0  0  0  0
  158.1040  212.1070  155.6080 N   0  0  0  0  0  1  0  0  0  0  0  0
  161.5630  208.2360  150.3620 S   0  0  0  0  0  1  0  0  0  0  0  0
  162.1030  208.8670  151.9830 C   0  0  1  0  0  3  0  0  0  0  0  0
  162.7000  210.2480  151.7710 C   0  0  0  0  0  1  0  0  0  0  0  0
  161.3550  204.7600  152.3960 C   0  0  0  0  0  2  0  0  0  0  0  0
  160.5470  203.6850  151.6910 C   0  0  0  0  0  2  0  0  0  0  0  0
  161.4140  202.5620  151.3530 N   0  0  0  0  0  0  0  0  0  0  0  0
  161.3690  202.1960  149.9120 C   0  0  1  0  0  0  0  0  0  0  0  0
  161.2070  200.7030  149.7650 C   0  0  0  0  0  2  0  0  0  0  0  0
  160.5440  201.4710  150.8850 C   0  0  1  0  0  3  0  0  0  0  0  0
  160.4010  202.9680  149.0040 C   0  0  0  0  0  2  0  0  0  0  0  0
  161.7280  206.0990  145.9360 C   0  0  1  0  0  3  0  0  0  0  0  0
  161.9370  203.6450  145.4870 C   0  0  0  0  0  2  0  0  0  0  0  0
  162.2710  206.9560  146.9120 O   0  0  0  0  0  0  0  0  0  0  0  0
  161.1250  203.7110  147.9270 C   0  0  0  0  0  0  0  0  0  0  0  0
  162.7000  204.9520  145.6640 C   0  0  0  0  0  2  0  0  0  0  0  0
  161.2010  206.1420  147.3340 C   0  0  2  0  0  3  0  0  0  0  0  0
  161.2720  203.1030  146.7340 C   0  0  0  0  0  3  0  0  0  0  0  0
  161.7400  205.0450  148.2510 C   0  0  0  0  0  2  0  0  0  0  0  0
  1  2  1  0  0  0  0
  2  4  1  0  0  0  0
  4  3  2  0  0  0  0
  5  4  1  1  0  0  0
  7  5  1  6  0  0  0
  7  8  1  0  0  0  0
  8 11  1  1  0  0  0
  9  6  1  1  0  0  0
  9  7  1  0  0  0  0
  9  8  1  0  0  0  0
 11 12  1  0  0  0  0
 11 10  2  0  0  0  0
 13 14  1  0  0  0  0
 14 15  1  6  0  0  0
 14  5  1  0  0  0  0
 16  1  1  0  0  0  0
 17 16  1  0  0  0  0
 18 17  1  0  0  0  0
 19 22  1  6  0  0  0
 19 21  1  0  0  0  0
 19 18  1  0  0  0  0
 20 19  1  0  0  0  0
 21 20  1  1  0  0  0
 21 18  1  0  0  0  0
 23 27  1  1  0  0  0
 23 25  1  0  0  0  0
 23 28  1  0  0  0  0
 24 27  1  0  0  0  0
 24 29  1  0  0  0  0
 25 28  1  0  0  0  0
 26 30  1  0  0  0  0
 26 22  1  0  0  0  0
 28 30  1  1  0  0  0
 29 26  2  0  0  0  0
M  END
>  <MODEL>
8

>  <REMARK>
 VINA RESULT:      -6.3      2.505      4.414
  Name = 
  10 active torsions:
  status: ('A' for Active; 'I' for Inactive)
    1  A    between atoms: C_3  and  C_11
    2  A    between atoms: C_3  and  C_19
    3  A    between atoms: C_4  and  C_13
    4  A    between atoms: N_7  and  C_16
    5  A    between atoms: C_8  and  C_13
    6  A    between atoms: C_9  and  C_17
    7  A    between atoms: N_10  and  C_15
    8  A    between atoms: C_13  and  C_30
    9  A    between atoms: C_15  and  C_26
   10  A    between atoms: C_16  and  C_26
                            x       y       z     vdW  Elec       q    Type
                         _______ _______ _______ _____ _____    ______ ____

>  <TORSDO>
F 10

$$$$
=
 OpenBabel11052421543D

 30 34  0  0  1  0  0  0  0  0999 V2000
  160.8090  207.8420  154.3000 C   0  0  0  0  0  2  0  0  0  0  0  0
  161.0440  208.7280  153.1660 N   0  0  0  0  0  2  0  0  0  0  0  0
  161.4220  210.8320  152.2610 O   0  0  0  0  0  0  0  0  0  0  0  0
  161.2280  210.1400  153.2960 C   0  0  0  0  0  0  0  0  0  0  0  0
  161.1770  210.8080  154.6460 C   0  0  1  0  0  3  0  0  0  0  0  0
  158.5850  212.4600  156.6260 O   0  0  0  0  0  1  0  0  0  0  0  0
  159.7310  211.1760  154.9860 C   0  0  2  0  0  3  0  0  0  0  0  0
  159.3440  212.4820  154.3060 C   0  0  2  0  0  3  0  0  0  0  0  0
  159.7080  212.4600  155.7940 C   0  0  1  0  0  3  0  0  0  0  0  0
  157.2120  211.4540  153.9670 O   0  0  0  0  0  0  0  0  0  0  0  0
  157.8720  212.5240  154.0260 C   0  0  0  0  0  0  0  0  0  0  0  0
  157.2000  213.7730  153.8900 N   0  0  0  0  0  1  0  0  0  0  0  0
  163.2010  210.7380  156.5390 S   0  0  0  0  0  1  0  0  0  0  0  0
  161.8000  209.9070  155.7250 C   0  0  1  0  0  3  0  0  0  0  0  0
  160.7890  209.5380  156.7970 C   0  0  0  0  0  1  0  0  0  0  0  0
  160.8140  206.3890  153.8500 C   0  0  0  0  0  2  0  0  0  0  0  0
  161.4370  206.2530  152.4710 C   0  0  0  0  0  2  0  0  0  0  0  0
  162.0480  204.9350  152.3370 N   0  0  0  0  0  0  0  0  0  0  0  0
  161.5720  204.1830  151.1450 C   0  0  1  0  0  0  0  0  0  0  0  0
  161.2090  202.7720  151.5380 C   0  0  0  0  0  2  0  0  0  0  0  0
  160.9670  203.9440  152.4610 C   0  0  1  0  0  3  0  0  0  0  0  0
  160.4860  204.8300  150.2740 C   0  0  0  0  0  2  0  0  0  0  0  0
  162.7420  204.8740  146.2880 C   0  0  1  0  0  3  0  0  0  0  0  0
  162.1770  206.9880  147.5050 C   0  0  0  0  0  2  0  0  0  0  0  0
  161.9690  203.8360  145.7350 O   0  0  0  0  0  0  0  0  0  0  0  0
  161.0040  205.1860  148.9160 C   0  0  0  0  0  0  0  0  0  0  0  0
  161.9600  206.1840  146.2280 C   0  0  0  0  0  2  0  0  0  0  0  0
  162.1120  203.8180  147.1370 C   0  0  2  0  0  3  0  0  0  0  0  0
  161.5630  206.4010  148.7570 C   0  0  0  0  0  3  0  0  0  0  0  0
  160.7870  204.2260  147.7800 C   0  0  0  0  0  2  0  0  0  0  0  0
  2  4  1  0  0  0  0
  2  1  1  0  0  0  0
  3  4  2  0  0  0  0
  5  4  1  6  0  0  0
  5 14  1  0  0  0  0
  7  5  1  6  0  0  0
  7  9  1  0  0  0  0
  8 11  1  1  0  0  0
  8  7  1  0  0  0  0
  8  9  1  0  0  0  0
  9  6  1  1  0  0  0
 10 11  2  0  0  0  0
 12 11  1  0  0  0  0
 14 13  1  0  0  0  0
 14 15  1  1  0  0  0
 16  1  1  0  0  0  0
 17 16  1  0  0  0  0
 18 21  1  0  0  0  0
 18 17  1  0  0  0  0
 19 22  1  6  0  0  0
 19 20  1  0  0  0  0
 19 18  1  0  0  0  0
 19 21  1  0  0  0  0
 21 20  1  1  0  0  0
 23 27  1  1  0  0  0
 23 28  1  0  0  0  0
 24 29  1  0  0  0  0
 25 23  1  0  0  0  0
 25 28  1  0  0  0  0
 26 22  1  0  0  0  0
 27 24  1  0  0  0  0
 28 30  1  1  0  0  0
 29 26  2  0  0  0  0
 30 26  1  0  0  0  0
M  END
>  <MODEL>
9

>  <REMARK>
 VINA RESULT:      -6.1      2.927      4.978
  Name = 
  10 active torsions:
  status: ('A' for Active; 'I' for Inactive)
    1  A    between atoms: C_3  and  C_11
    2  A    between atoms: C_3  and  C_19
    3  A    between atoms: C_4  and  C_13
    4  A    between atoms: N_7  and  C_16
    5  A    between atoms: C_8  and  C_13
    6  A    between atoms: C_9  and  C_17
    7  A    between atoms: N_10  and  C_15
    8  A    between atoms: C_13  and  C_30
    9  A    between atoms: C_15  and  C_26
   10  A    between atoms: C_16  and  C_26
                            x       y       z     vdW  Elec       q    Type
                         _______ _______ _______ _____ _____    ______ ____

>  <TORSDO>
F 10

$$$$
