=
 OpenBabel11052422143D

 25 29  0  0  1  0  0  0  0  0999 V2000
  161.4160  205.2850  148.9100 C   0  0  0  0  0  0  0  0  0  0  0  0
  161.4810  206.5200  149.5730 C   0  0  0  0  0  0  0  0  0  0  0  0
  161.9110  206.3840  146.8030 C   0  0  0  0  0  3  0  0  0  0  0  0
  161.1510  204.0160  149.4510 C   0  0  0  0  0  0  0  0  0  0  0  0
  160.6660  201.3570  150.1520 C   0  0  0  0  0  3  0  0  0  0  0  0
  161.9710  207.5770  147.4580 N   0  0  0  0  0  0  0  0  0  0  0  0
  161.1670  203.0090  148.4880 C   0  0  0  0  0  0  0  0  0  0  0  0
  160.9280  201.6760  148.8110 C   0  0  0  0  0  3  0  0  0  0  0  0
  161.8310  208.9050  149.4710 C   0  0  0  0  0  0  0  0  0  0  0  0
  162.1260  210.1660  148.7320 C   0  0  0  0  0  1  0  0  0  0  0  0
  161.2790  206.6290  150.9110 N   0  0  0  0  0  0  0  0  0  0  0  0
  160.6470  202.3640  151.1340 C   0  0  0  0  0  3  0  0  0  0  0  0
  161.6310  205.2350  147.5360 C   0  0  0  0  0  0  0  0  0  0  0  0
  161.5030  203.6520  146.9660 S   0  0  0  0  0  0  0  0  0  0  0  0
  161.6200  208.9570  150.8130 N   0  0  0  0  0  0  0  0  0  0  0  0
  160.8900  203.7030  150.7890 C   0  0  0  0  0  3  0  0  0  0  0  0
  161.3470  207.8360  151.5360 C   0  0  0  0  0  0  0  0  0  0  0  0
  161.7660  207.6740  148.8080 C   0  0  0  0  0  0  0  0  0  0  0  0
  160.1550  207.5190  155.2500 C   0  0  1  0  0  3  0  0  0  0  0  0
  161.1240  207.9340  152.9870 C   0  0  2  0  0  3  0  0  0  0  0  0
  161.0550  206.4940  154.0450 S   0  0  0  0  0  0  0  0  0  0  0  0
  160.3730  207.0160  156.6660 C   0  0  0  0  0  1  0  0  0  0  0  0
  160.8710  209.0850  153.5920 C   0  0  0  0  0  2  0  0  0  0  0  0
  160.6010  208.9670  155.0480 C   0  0  2  0  0  3  0  0  0  0  0  0
  161.7850  209.2290  155.7460 O   0  0  0  0  0  1  0  0  0  0  0  0
  1  4  1  0  0  0  0
  1  2  1  0  0  0  0
  2 11  1  0  0  0  0
  3  6  2  0  0  0  0
  3 13  1  0  0  0  0
  4 16  1  0  0  0  0
  5 12  1  0  0  0  0
  6 18  1  0  0  0  0
  7  8  1  0  0  0  0
  7  4  2  0  0  0  0
  8  5  2  0  0  0  0
  9 15  2  0  0  0  0
 10  9  1  0  0  0  0
 11 17  2  0  0  0  0
 13  1  2  0  0  0  0
 14 13  1  0  0  0  0
 14  7  1  0  0  0  0
 15 17  1  0  0  0  0
 16 12  2  0  0  0  0
 18  9  1  0  0  0  0
 18  2  2  0  0  0  0
 19 22  1  1  0  0  0
 20 17  1  6  0  0  0
 20 23  1  0  0  0  0
 20 21  1  0  0  0  0
 21 19  1  0  0  0  0
 23 24  1  0  0  0  0
 24 19  1  0  0  0  0
 24 25  1  1  0  0  0
M  END
>  <MODEL>
1

>  <REMARK>
 VINA RESULT:     -10.3      0.000      0.000
  Name = 
  1 active torsions:
  status: ('A' for Active; 'I' for Inactive)
    1  A    between atoms: C_6  and  C_23
                            x       y       z     vdW  Elec       q    Type
                         _______ _______ _______ _____ _____    ______ ____

>  <TORSDO>
F 1

$$$$
=
 OpenBabel11052422143D

 25 29  0  0  1  0  0  0  0  0999 V2000
  161.3940  205.3040  148.9610 C   0  0  0  0  0  0  0  0  0  0  0  0
  161.4510  206.5340  149.6350 C   0  0  0  0  0  0  0  0  0  0  0  0
  161.9090  206.4200  146.8690 C   0  0  0  0  0  3  0  0  0  0  0  0
  161.1250  204.0310  149.4900 C   0  0  0  0  0  0  0  0  0  0  0  0
  160.6360  201.3660  150.1640 C   0  0  0  0  0  3  0  0  0  0  0  0
  161.9620  207.6090  147.5340 N   0  0  0  0  0  0  0  0  0  0  0  0
  161.1520  203.0320  148.5180 C   0  0  0  0  0  0  0  0  0  0  0  0
  160.9110  201.6960  148.8280 C   0  0  0  0  0  3  0  0  0  0  0  0
  161.7990  208.9210  149.5560 C   0  0  0  0  0  0  0  0  0  0  0  0
  162.1010  210.1870  148.8300 C   0  0  0  0  0  1  0  0  0  0  0  0
  161.2360  206.6320  150.9710 N   0  0  0  0  0  0  0  0  0  0  0  0
  160.6060  202.3650  151.1540 C   0  0  0  0  0  3  0  0  0  0  0  0
  161.6240  205.2650  147.5890 C   0  0  0  0  0  0  0  0  0  0  0  0
  161.5030  203.6870  147.0060 S   0  0  0  0  0  0  0  0  0  0  0  0
  161.5750  208.9610  150.8960 N   0  0  0  0  0  0  0  0  0  0  0  0
  160.8510  203.7070  150.8220 C   0  0  0  0  0  3  0  0  0  0  0  0
  161.2960  207.8340  151.6070 C   0  0  0  0  0  0  0  0  0  0  0  0
  161.7430  207.6940  148.8830 C   0  0  0  0  0  0  0  0  0  0  0  0
  161.3180  208.5960  155.4450 C   0  0  1  0  0  3  0  0  0  0  0  0
  161.0570  207.9210  153.0560 C   0  0  2  0  0  3  0  0  0  0  0  0
  160.9130  209.4850  153.9100 S   0  0  0  0  0  0  0  0  0  0  0  0
  160.7190  209.2910  156.6550 C   0  0  0  0  0  1  0  0  0  0  0  0
  161.0220  206.8520  153.8380 C   0  0  0  0  0  2  0  0  0  0  0  0
  160.8430  207.1520  155.2810 C   0  0  2  0  0  3  0  0  0  0  0  0
  159.4860  207.0320  155.5990 O   0  0  0  0  0  1  0  0  0  0  0  0
  1  4  1  0  0  0  0
  1  2  1  0  0  0  0
  2 11  1  0  0  0  0
  3  6  2  0  0  0  0
  3 13  1  0  0  0  0
  4 16  1  0  0  0  0
  5 12  1  0  0  0  0
  6 18  1  0  0  0  0
  7  8  1  0  0  0  0
  7  4  2  0  0  0  0
  8  5  2  0  0  0  0
  9 15  2  0  0  0  0
 10  9  1  0  0  0  0
 11 17  2  0  0  0  0
 13  1  2  0  0  0  0
 14 13  1  0  0  0  0
 14  7  1  0  0  0  0
 15 17  1  0  0  0  0
 16 12  2  0  0  0  0
 18  9  1  0  0  0  0
 18  2  2  0  0  0  0
 19 22  1  1  0  0  0
 20 17  1  1  0  0  0
 20 23  1  0  0  0  0
 20 21  1  0  0  0  0
 21 19  1  0  0  0  0
 23 24  1  0  0  0  0
 24 19  1  0  0  0  0
 24 25  1  6  0  0  0
M  END
>  <MODEL>
2

>  <REMARK>
 VINA RESULT:     -10.3      1.005      1.192
  Name = 
  1 active torsions:
  status: ('A' for Active; 'I' for Inactive)
    1  A    between atoms: C_6  and  C_23
                            x       y       z     vdW  Elec       q    Type
                         _______ _______ _______ _____ _____    ______ ____

>  <TORSDO>
F 1

$$$$
=
 OpenBabel11052422143D

 25 29  0  0  1  0  0  0  0  0999 V2000
  161.1850  204.3000  149.6520 C   0  0  0  0  0  0  0  0  0  0  0  0
  161.2580  205.4240  150.4880 C   0  0  0  0  0  0  0  0  0  0  0  0
  160.9220  202.8670  151.5930 C   0  0  0  0  0  3  0  0  0  0  0  0
  161.2600  204.2480  148.2500 C   0  0  0  0  0  0  0  0  0  0  0  0
  161.3630  203.7480  145.5050 C   0  0  0  0  0  3  0  0  0  0  0  0
  160.9930  203.9660  152.3950 N   0  0  0  0  0  0  0  0  0  0  0  0
  161.1490  202.9490  147.7560 C   0  0  0  0  0  0  0  0  0  0  0  0
  161.1980  202.6730  146.3920 C   0  0  0  0  0  3  0  0  0  0  0  0
  161.2290  206.3490  152.7170 C   0  0  0  0  0  0  0  0  0  0  0  0
  161.1310  206.2180  154.1980 C   0  0  0  0  0  1  0  0  0  0  0  0
  161.4190  206.6780  149.9940 N   0  0  0  0  0  0  0  0  0  0  0  0
  161.4760  205.0630  145.9910 C   0  0  0  0  0  3  0  0  0  0  0  0
  161.0190  203.0390  150.2160 C   0  0  0  0  0  0  0  0  0  0  0  0
  160.9600  201.8500  149.0200 S   0  0  0  0  0  0  0  0  0  0  0  0
  161.3920  207.5810  152.1690 N   0  0  0  0  0  0  0  0  0  0  0  0
  161.4240  205.3220  147.3700 C   0  0  0  0  0  3  0  0  0  0  0  0
  161.4860  207.7570  150.8220 C   0  0  0  0  0  0  0  0  0  0  0  0
  161.1570  205.2260  151.8840 C   0  0  0  0  0  0  0  0  0  0  0  0
  162.6220  211.0040  148.9570 C   0  0  1  0  0  3  0  0  0  0  0  0
  161.6640  209.1080  150.2680 C   0  0  2  0  0  3  0  0  0  0  0  0
  161.8740  209.4050  148.5170 S   0  0  0  0  0  0  0  0  0  0  0  0
  162.4320  212.0220  147.8450 C   0  0  0  0  0  1  0  0  0  0  0  0
  161.7690  210.1840  151.0330 C   0  0  0  0  0  2  0  0  0  0  0  0
  162.0180  211.4450  150.2900 C   0  0  2  0  0  3  0  0  0  0  0  0
  160.7970  212.0990  150.0940 O   0  0  0  0  0  1  0  0  0  0  0  0
  1 13  1  0  0  0  0
  1  2  2  0  0  0  0
  2 18  1  0  0  0  0
  3  6  1  0  0  0  0
  4  1  1  0  0  0  0
  5 12  2  0  0  0  0
  5  8  1  0  0  0  0
  7  4  1  0  0  0  0
  7 14  1  0  0  0  0
  8  7  2  0  0  0  0
  9 10  1  0  0  0  0
 11  2  1  0  0  0  0
 11 17  2  0  0  0  0
 12 16  1  0  0  0  0
 13  3  2  0  0  0  0
 14 13  1  0  0  0  0
 15  9  2  0  0  0  0
 16  4  2  0  0  0  0
 17 15  1  0  0  0  0
 18  6  2  0  0  0  0
 18  9  1  0  0  0  0
 19 22  1  6  0  0  0
 19 24  1  0  0  0  0
 20 17  1  1  0  0  0
 20 23  1  0  0  0  0
 21 19  1  0  0  0  0
 21 20  1  0  0  0  0
 24 25  1  6  0  0  0
 24 23  1  0  0  0  0
M  END
>  <MODEL>
3

>  <REMARK>
 VINA RESULT:      -8.7      2.457      4.747
  Name = 
  1 active torsions:
  status: ('A' for Active; 'I' for Inactive)
    1  A    between atoms: C_6  and  C_23
                            x       y       z     vdW  Elec       q    Type
                         _______ _______ _______ _____ _____    ______ ____

>  <TORSDO>
F 1

$$$$
=
 OpenBabel11052422143D

 25 29  0  0  1  0  0  0  0  0999 V2000
  161.2960  206.3900  151.2440 C   0  0  0  0  0  0  0  0  0  0  0  0
  161.3680  207.7490  151.5810 C   0  0  0  0  0  0  0  0  0  0  0  0
  161.1660  205.8080  153.5970 C   0  0  0  0  0  3  0  0  0  0  0  0
  161.3100  205.8040  149.9680 C   0  0  0  0  0  0  0  0  0  0  0  0
  161.3080  204.2900  147.6210 C   0  0  0  0  0  3  0  0  0  0  0  0
  161.2360  207.1320  153.9120 N   0  0  0  0  0  0  0  0  0  0  0  0
  161.2210  204.4140  150.0140 C   0  0  0  0  0  0  0  0  0  0  0  0
  161.2180  203.6360  148.8590 C   0  0  0  0  0  3  0  0  0  0  0  0
  161.4070  209.4580  153.2850 C   0  0  0  0  0  0  0  0  0  0  0  0
  161.3790  209.9060  154.7060 C   0  0  0  0  0  1  0  0  0  0  0  0
  161.4660  208.7200  150.6370 N   0  0  0  0  0  0  0  0  0  0  0  0
  161.3980  205.6930  147.5600 C   0  0  0  0  0  3  0  0  0  0  0  0
  161.1970  205.4390  152.2560 C   0  0  0  0  0  0  0  0  0  0  0  0
  161.1240  203.8820  151.6110 S   0  0  0  0  0  0  0  0  0  0  0  0
  161.5040  210.3880  152.2980 N   0  0  0  0  0  0  0  0  0  0  0  0
  161.4000  206.4600  148.7360 C   0  0  0  0  0  3  0  0  0  0  0  0
  161.5330  210.0340  150.9840 C   0  0  0  0  0  0  0  0  0  0  0  0
  161.3350  208.1010  152.9500 C   0  0  0  0  0  0  0  0  0  0  0  0
  160.9800  212.8220  148.2950 C   0  0  1  0  0  3  0  0  0  0  0  0
  161.6410  211.0710  149.9460 C   0  0  2  0  0  3  0  0  0  0  0  0
  160.8510  212.6680  150.1030 S   0  0  0  0  0  0  0  0  0  0  0  0
  161.0470  214.2800  147.8730 C   0  0  0  0  0  1  0  0  0  0  0  0
  162.2550  210.8630  148.7910 C   0  0  0  0  0  2  0  0  0  0  0  0
  162.1940  212.0070  147.8470 C   0  0  2  0  0  3  0  0  0  0  0  0
  163.3700  212.7530  147.9690 O   0  0  0  0  0  1  0  0  0  0  0  0
  1  2  2  0  0  0  0
  1 13  1  0  0  0  0
  2 18  1  0  0  0  0
  3  6  1  0  0  0  0
  4  7  1  0  0  0  0
  4  1  1  0  0  0  0
  5  8  1  0  0  0  0
  7 14  1  0  0  0  0
  8  7  2  0  0  0  0
  9 10  1  0  0  0  0
 11 17  2  0  0  0  0
 11  2  1  0  0  0  0
 12  5  2  0  0  0  0
 12 16  1  0  0  0  0
 13  3  2  0  0  0  0
 14 13  1  0  0  0  0
 15  9  2  0  0  0  0
 16  4  2  0  0  0  0
 17 15  1  0  0  0  0
 18  9  1  0  0  0  0
 18  6  2  0  0  0  0
 19 22  1  1  0  0  0
 19 21  1  0  0  0  0
 20 21  1  0  0  0  0
 20 17  1  6  0  0  0
 23 20  1  0  0  0  0
 24 25  1  1  0  0  0
 24 19  1  0  0  0  0
 24 23  1  0  0  0  0
M  END
>  <MODEL>
4

>  <REMARK>
 VINA RESULT:      -8.6      2.912      5.442
  Name = 
  1 active torsions:
  status: ('A' for Active; 'I' for Inactive)
    1  A    between atoms: C_6  and  C_23
                            x       y       z     vdW  Elec       q    Type
                         _______ _______ _______ _____ _____    ______ ____

>  <TORSDO>
F 1

$$$$
=
 OpenBabel11052422143D

 25 29  0  0  1  0  0  0  0  0999 V2000
  161.0180  208.9210  153.3410 C   0  0  0  0  0  0  0  0  0  0  0  0
  161.2110  208.2320  152.1340 C   0  0  0  0  0  0  0  0  0  0  0  0
  161.3990  211.0310  152.2030 C   0  0  0  0  0  3  0  0  0  0  0  0
  160.7250  208.3950  154.6100 C   0  0  0  0  0  0  0  0  0  0  0  0
  160.1450  207.7310  157.2590 C   0  0  0  0  0  3  0  0  0  0  0  0
  161.5840  210.3500  151.0370 N   0  0  0  0  0  0  0  0  0  0  0  0
  160.6000  209.3850  155.5840 C   0  0  0  0  0  0  0  0  0  0  0  0
  160.3120  209.0800  156.9120 C   0  0  0  0  0  3  0  0  0  0  0  0
  161.6910  208.2960  149.7700 C   0  0  0  0  0  0  0  0  0  0  0  0
  161.9980  209.0220  148.5050 C   0  0  0  0  0  1  0  0  0  0  0  0
  161.1290  206.8790  152.0580 N   0  0  0  0  0  0  0  0  0  0  0  0
  160.2680  206.7220  156.2850 C   0  0  0  0  0  3  0  0  0  0  0  0
  161.1150  210.3090  153.3580 C   0  0  0  0  0  0  0  0  0  0  0  0
  160.8460  210.9110  154.9110 S   0  0  0  0  0  0  0  0  0  0  0  0
  161.5970  206.9400  149.7510 N   0  0  0  0  0  0  0  0  0  0  0  0
  160.5600  207.0490  154.9510 C   0  0  0  0  0  3  0  0  0  0  0  0
  161.3190  206.2280  150.8780 C   0  0  0  0  0  0  0  0  0  0  0  0
  161.4990  208.9850  150.9730 C   0  0  0  0  0  0  0  0  0  0  0  0
  160.4380  202.4800  150.1820 C   0  0  1  0  0  3  0  0  0  0  0  0
  161.2280  204.7620  150.8160 C   0  0  2  0  0  3  0  0  0  0  0  0
  161.1710  203.8710  149.2660 S   0  0  0  0  0  0  0  0  0  0  0  0
  160.7490  201.1550  149.5070 C   0  0  0  0  0  1  0  0  0  0  0  0
  161.0940  204.0090  151.8970 C   0  0  0  0  0  2  0  0  0  0  0  0
  160.9450  202.5580  151.6220 C   0  0  2  0  0  3  0  0  0  0  0  0
  162.1970  201.9470  151.7460 O   0  0  0  0  0  1  0  0  0  0  0  0
  1 13  2  0  0  0  0
  1  4  1  0  0  0  0
  2  1  1  0  0  0  0
  3 13  1  0  0  0  0
  4 16  2  0  0  0  0
  4  7  1  0  0  0  0
  6  3  2  0  0  0  0
  7  8  2  0  0  0  0
  8  5  1  0  0  0  0
  9 18  1  0  0  0  0
 10  9  1  0  0  0  0
 11  2  1  0  0  0  0
 12  5  2  0  0  0  0
 13 14  1  0  0  0  0
 14  7  1  0  0  0  0
 15  9  2  0  0  0  0
 15 17  1  0  0  0  0
 16 12  1  0  0  0  0
 17 11  2  0  0  0  0
 18  6  1  0  0  0  0
 18  2  2  0  0  0  0
 19 22  1  6  0  0  0
 19 24  1  0  0  0  0
 20 17  1  6  0  0  0
 20 23  1  0  0  0  0
 21 19  1  0  0  0  0
 21 20  1  0  0  0  0
 24 25  1  6  0  0  0
 24 23  1  0  0  0  0
M  END
>  <MODEL>
5

>  <REMARK>
 VINA RESULT:      -8.6      2.414      6.525
  Name = 
  1 active torsions:
  status: ('A' for Active; 'I' for Inactive)
    1  A    between atoms: C_6  and  C_23
                            x       y       z     vdW  Elec       q    Type
                         _______ _______ _______ _____ _____    ______ ____

>  <TORSDO>
F 1

$$$$
=
 OpenBabel11052422143D

 25 29  0  0  1  0  0  0  0  0999 V2000
  161.4880  206.8160  149.9510 C   0  0  0  0  0  0  0  0  0  0  0  0
  161.5920  208.1730  150.2940 C   0  0  0  0  0  0  0  0  0  0  0  0
  161.3190  206.2310  152.3010 C   0  0  0  0  0  3  0  0  0  0  0  0
  161.5000  206.2350  148.6730 C   0  0  0  0  0  0  0  0  0  0  0  0
  161.4830  204.7280  146.3220 C   0  0  0  0  0  3  0  0  0  0  0  0
  161.4210  207.5520  152.6210 N   0  0  0  0  0  0  0  0  0  0  0  0
  161.3750  204.8470  148.7140 C   0  0  0  0  0  0  0  0  0  0  0  0
  161.3640  204.0730  147.5570 C   0  0  0  0  0  3  0  0  0  0  0  0
  161.6580  209.8750  152.0030 C   0  0  0  0  0  0  0  0  0  0  0  0
  161.6280  210.3190  153.4260 C   0  0  0  0  0  1  0  0  0  0  0  0
  161.7250  209.1430  149.3540 N   0  0  0  0  0  0  0  0  0  0  0  0
  161.6110  206.1280  146.2660 C   0  0  0  0  0  3  0  0  0  0  0  0
  161.3540  205.8660  150.9590 C   0  0  0  0  0  0  0  0  0  0  0  0
  161.2480  204.3130  150.3080 S   0  0  0  0  0  0  0  0  0  0  0  0
  161.7900  210.8050  151.0210 N   0  0  0  0  0  0  0  0  0  0  0  0
  161.6200  206.8920  147.4440 C   0  0  0  0  0  3  0  0  0  0  0  0
  161.8230  210.4550  149.7060 C   0  0  0  0  0  0  0  0  0  0  0  0
  161.5550  208.5210  151.6630 C   0  0  0  0  0  0  0  0  0  0  0  0
  161.7750  212.6700  146.4810 C   0  0  1  0  0  3  0  0  0  0  0  0
  161.9690  211.4920  148.6730 C   0  0  2  0  0  3  0  0  0  0  0  0
  160.5790  212.1070  147.7310 S   0  0  0  0  0  0  0  0  0  0  0  0
  161.2380  213.8620  145.7070 C   0  0  0  0  0  1  0  0  0  0  0  0
  163.1480  211.9760  148.3100 C   0  0  0  0  0  2  0  0  0  0  0  0
  163.0920  212.9610  147.2010 C   0  0  2  0  0  3  0  0  0  0  0  0
  163.0920  214.2500  147.7450 O   0  0  0  0  0  1  0  0  0  0  0  0
  1  2  2  0  0  0  0
  1 13  1  0  0  0  0
  2 18  1  0  0  0  0
  3  6  1  0  0  0  0
  4  7  1  0  0  0  0
  4  1  1  0  0  0  0
  5  8  1  0  0  0  0
  7 14  1  0  0  0  0
  8  7  2  0  0  0  0
  9 10  1  0  0  0  0
 11 17  2  0  0  0  0
 11  2  1  0  0  0  0
 12  5  2  0  0  0  0
 12 16  1  0  0  0  0
 13  3  2  0  0  0  0
 14 13  1  0  0  0  0
 15  9  2  0  0  0  0
 16  4  2  0  0  0  0
 17 15  1  0  0  0  0
 18  9  1  0  0  0  0
 18  6  2  0  0  0  0
 19 22  1  1  0  0  0
 19 24  1  0  0  0  0
 19 21  1  0  0  0  0
 20 17  1  6  0  0  0
 21 20  1  0  0  0  0
 23 20  1  0  0  0  0
 24 25  1  1  0  0  0
 24 23  1  0  0  0  0
M  END
>  <MODEL>
6

>  <REMARK>
 VINA RESULT:      -8.1      3.201      5.821
  Name = 
  1 active torsions:
  status: ('A' for Active; 'I' for Inactive)
    1  A    between atoms: C_6  and  C_23
                            x       y       z     vdW  Elec       q    Type
                         _______ _______ _______ _____ _____    ______ ____

>  <TORSDO>
F 1

$$$$
=
 OpenBabel11052422143D

 25 29  0  0  1  0  0  0  0  0999 V2000
  161.3580  207.3930  151.5560 C   0  0  0  0  0  0  0  0  0  0  0  0
  161.3110  206.1500  150.9070 C   0  0  0  0  0  0  0  0  0  0  0  0
  161.0880  206.2880  153.7000 C   0  0  0  0  0  3  0  0  0  0  0  0
  161.5090  208.6690  150.9900 C   0  0  0  0  0  0  0  0  0  0  0  0
  161.7890  211.3440  150.2410 C   0  0  0  0  0  3  0  0  0  0  0  0
  161.0440  205.0870  153.0580 N   0  0  0  0  0  0  0  0  0  0  0  0
  161.5120  209.6830  151.9470 C   0  0  0  0  0  0  0  0  0  0  0  0
  161.6490  211.0240  151.6000 C   0  0  0  0  0  3  0  0  0  0  0  0
  161.1040  203.7500  151.0470 C   0  0  0  0  0  0  0  0  0  0  0  0
  160.9360  202.4820  151.8130 C   0  0  0  0  0  1  0  0  0  0  0  0
  161.4150  206.0400  149.5580 N   0  0  0  0  0  0  0  0  0  0  0  0
  161.7880  210.3310  149.2650 C   0  0  0  0  0  3  0  0  0  0  0  0
  161.2450  207.4440  152.9420 C   0  0  0  0  0  0  0  0  0  0  0  0
  161.3290  209.0360  153.4930 S   0  0  0  0  0  0  0  0  0  0  0  0
  161.2130  203.6980  149.6930 N   0  0  0  0  0  0  0  0  0  0  0  0
  161.6480  208.9840  149.6350 C   0  0  0  0  0  3  0  0  0  0  0  0
  161.3680  204.8250  148.9460 C   0  0  0  0  0  0  0  0  0  0  0  0
  161.1500  204.9890  151.6970 C   0  0  0  0  0  0  0  0  0  0  0  0
  160.9010  204.9170  145.0620 C   0  0  1  0  0  3  0  0  0  0  0  0
  161.4800  204.7260  147.4820 C   0  0  2  0  0  3  0  0  0  0  0  0
  161.1720  206.1180  146.4020 S   0  0  0  0  0  0  0  0  0  0  0  0
  161.2250  205.5250  143.7080 C   0  0  0  0  0  1  0  0  0  0  0  0
  161.7300  203.5830  146.8630 C   0  0  0  0  0  2  0  0  0  0  0  0
  161.7320  203.6740  145.3810 C   0  0  2  0  0  3  0  0  0  0  0  0
  163.0520  203.8280  144.9420 O   0  0  0  0  0  1  0  0  0  0  0  0
  1 13  1  0  0  0  0
  2  1  2  0  0  0  0
  2 18  1  0  0  0  0
  4  1  1  0  0  0  0
  4  7  1  0  0  0  0
  5  8  1  0  0  0  0
  6  3  1  0  0  0  0
  7 14  1  0  0  0  0
  8  7  2  0  0  0  0
  9 18  1  0  0  0  0
  9 10  1  0  0  0  0
 11  2  1  0  0  0  0
 12 16  1  0  0  0  0
 12  5  2  0  0  0  0
 13 14  1  0  0  0  0
 13  3  2  0  0  0  0
 15  9  2  0  0  0  0
 16  4  2  0  0  0  0
 17 11  2  0  0  0  0
 17 15  1  0  0  0  0
 18  6  2  0  0  0  0
 19 22  1  6  0  0  0
 19 24  1  0  0  0  0
 19 21  1  0  0  0  0
 20 17  1  1  0  0  0
 21 20  1  0  0  0  0
 23 20  1  0  0  0  0
 24 25  1  1  0  0  0
 24 23  1  0  0  0  0
M  END
>  <MODEL>
7

>  <REMARK>
 VINA RESULT:      -7.8      3.059      7.673
  Name = 
  1 active torsions:
  status: ('A' for Active; 'I' for Inactive)
    1  A    between atoms: C_6  and  C_23
                            x       y       z     vdW  Elec       q    Type
                         _______ _______ _______ _____ _____    ______ ____

>  <TORSDO>
F 1

$$$$
=
 OpenBabel11052422143D

 25 29  0  0  1  0  0  0  0  0999 V2000
  161.0720  203.8510  148.5010 C   0  0  0  0  0  0  0  0  0  0  0  0
  161.1510  204.6760  149.6320 C   0  0  0  0  0  0  0  0  0  0  0  0
  160.8370  201.9040  149.9310 C   0  0  0  0  0  3  0  0  0  0  0  0
  161.1300  204.2170  147.1460 C   0  0  0  0  0  0  0  0  0  0  0  0
  161.2010  204.5560  144.3750 C   0  0  0  0  0  3  0  0  0  0  0  0
  160.9150  202.7170  151.0230 N   0  0  0  0  0  0  0  0  0  0  0  0
  161.0170  203.1230  146.2900 C   0  0  0  0  0  0  0  0  0  0  0  0
  161.0500  203.2650  144.9050 C   0  0  0  0  0  3  0  0  0  0  0  0
  161.1470  204.8970  152.0350 C   0  0  0  0  0  0  0  0  0  0  0  0
  161.0680  204.3330  153.4120 C   0  0  0  0  0  1  0  0  0  0  0  0
  161.3030  206.0220  149.5310 N   0  0  0  0  0  0  0  0  0  0  0  0
  161.3160  205.6680  145.2290 C   0  0  0  0  0  3  0  0  0  0  0  0
  160.9170  202.4780  148.6660 C   0  0  0  0  0  0  0  0  0  0  0  0
  160.8470  201.6970  147.1720 S   0  0  0  0  0  0  0  0  0  0  0  0
  161.2990  206.2380  151.8760 N   0  0  0  0  0  0  0  0  0  0  0  0
  161.2800  205.5060  146.6230 C   0  0  0  0  0  3  0  0  0  0  0  0
  161.3770  206.8060  150.6410 C   0  0  0  0  0  0  0  0  0  0  0  0
  161.0680  204.0720  150.9070 C   0  0  0  0  0  0  0  0  0  0  0  0
  162.4270  210.4680  149.7470 C   0  0  1  0  0  3  0  0  0  0  0  0
  161.5440  208.2620  150.5110 C   0  0  2  0  0  3  0  0  0  0  0  0
  161.5820  209.0840  148.9230 S   0  0  0  0  0  0  0  0  0  0  0  0
  162.1590  211.7790  149.0290 C   0  0  0  0  0  1  0  0  0  0  0  0
  161.7650  209.0500  151.5530 C   0  0  0  0  0  2  0  0  0  0  0  0
  161.9790  210.4780  151.2090 C   0  0  2  0  0  3  0  0  0  0  0  0
  160.7680  211.1620  151.3570 O   0  0  0  0  0  1  0  0  0  0  0  0
  1 13  1  0  0  0  0
  1  2  2  0  0  0  0
  2 18  1  0  0  0  0
  3  6  1  0  0  0  0
  4  1  1  0  0  0  0
  5  8  2  0  0  0  0
  5 12  1  0  0  0  0
  7  4  2  0  0  0  0
  7 14  1  0  0  0  0
  8  7  1  0  0  0  0
  9 10  1  0  0  0  0
 11  2  1  0  0  0  0
 11 17  2  0  0  0  0
 12 16  2  0  0  0  0
 13  3  2  0  0  0  0
 14 13  1  0  0  0  0
 15  9  2  0  0  0  0
 16  4  1  0  0  0  0
 17 15  1  0  0  0  0
 18  6  2  0  0  0  0
 18  9  1  0  0  0  0
 19 22  1  6  0  0  0
 19 24  1  0  0  0  0
 20 17  1  6  0  0  0
 20 23  1  0  0  0  0
 21 19  1  0  0  0  0
 21 20  1  0  0  0  0
 24 25  1  6  0  0  0
 24 23  1  0  0  0  0
M  END
>  <MODEL>
8

>  <REMARK>
 VINA RESULT:      -7.7      2.440      4.706
  Name = 
  1 active torsions:
  status: ('A' for Active; 'I' for Inactive)
    1  A    between atoms: C_6  and  C_23
                            x       y       z     vdW  Elec       q    Type
                         _______ _______ _______ _____ _____    ______ ____

>  <TORSDO>
F 1

$$$$
