=
 OpenBabel11052423213D

 27 30  0  0  1  0  0  0  0  0999 V2000
  160.3000  205.9180  152.6220 C   0  0  0  0  0  2  0  0  0  0  0  0
  161.6530  208.0780  152.2400 C   0  0  1  0  0  3  0  0  0  0  0  0
  163.2550  206.8910  150.8590 O   0  0  0  0  0  1  0  0  0  0  0  0
  161.1670  203.2590  149.2130 C   0  0  0  0  0  2  0  0  0  0  0  0
  161.0670  202.7530  150.6230 C   0  0  0  0  0  0  0  0  0  0  0  0
  160.9880  207.0820  149.9830 C   0  0  2  0  0  3  0  0  0  0  0  0
  161.3670  206.8710  153.1560 C   0  0  1  0  0  3  0  0  0  0  0  0
  160.9350  205.0290  151.5690 C   0  0  1  0  0  3  0  0  0  0  0  0
  162.1140  207.6980  150.8270 C   0  0  1  0  0  3  0  0  0  0  0  0
  161.6280  204.7180  149.1960 C   0  0  0  0  0  2  0  0  0  0  0  0
  161.4560  201.6310  150.9000 O   0  0  0  0  0  0  0  0  0  0  0  0
  160.4070  203.6020  151.6700 C   0  0  0  0  0  2  0  0  0  0  0  0
  160.7600  205.5620  150.1370 C   0  0  2  0  0  3  0  0  0  0  0  0
  161.7480  208.4730  156.5960 C   0  0  0  0  0  3  0  0  0  0  0  0
  161.1150  207.2770  154.5780 C   0  0  0  0  0  0  0  0  0  0  0  0
  160.0120  206.7420  155.2500 C   0  0  0  0  0  3  0  0  0  0  0  0
  159.7710  207.0750  156.5870 C   0  0  0  0  0  3  0  0  0  0  0  0
  160.6400  207.9400  157.2590 C   0  0  0  0  0  3  0  0  0  0  0  0
  161.9870  208.1410  155.2590 C   0  0  0  0  0  3  0  0  0  0  0  0
  160.5540  210.3020  152.7340 C   0  0  0  0  0  0  0  0  0  0  0  0
  160.5140  208.9880  152.1740 N   0  0  0  0  0  2  0  0  0  0  0  0
  161.6170  210.7430  153.2500 O   0  0  0  0  0  0  0  0  0  0  0  0
  159.6280  212.3540  151.8440 N   0  0  0  0  0  2  0  0  0  0  0  0
  159.6120  212.4600  153.3080 C   0  0  0  0  0  2  0  0  0  0  0  0
  159.3420  211.1720  152.6740 C   0  0  2  0  0  3  0  0  0  0  0  0
  161.7760  208.7220  148.4290 O   0  0  0  0  0  1  0  0  0  0  0  0
  161.0580  207.5300  148.5280 C   0  0  0  0  0  2  0  0  0  0  0  0
  1  7  1  0  0  0  0
  2 21  1  6  0  0  0
  2  7  1  0  0  0  0
  4  5  1  0  0  0  0
  5 11  2  0  0  0  0
  5 12  1  0  0  0  0
  6 27  1  6  0  0  0
  6 13  1  0  0  0  0
  6  9  1  0  0  0  0
  7 15  1  1  0  0  0
  8 12  1  6  0  0  0
  8  1  1  0  0  0  0
  9  3  1  1  0  0  0
  9  2  1  0  0  0  0
 10  4  1  0  0  0  0
 13 10  1  6  0  0  0
 13  8  1  0  0  0  0
 14 18  1  0  0  0  0
 15 16  2  0  0  0  0
 15 19  1  0  0  0  0
 16 17  1  0  0  0  0
 17 18  2  0  0  0  0
 19 14  2  0  0  0  0
 20 22  2  0  0  0  0
 21 20  1  0  0  0  0
 23 25  1  0  0  0  0
 23 24  1  0  0  0  0
 25 20  1  1  0  0  0
 25 24  1  0  0  0  0
 26 27  1  0  0  0  0
M  END
>  <MODEL>
1

>  <REMARK>
 VINA RESULT:      -7.2      0.000      0.000
  Name = 
  4 active torsions:
  status: ('A' for Active; 'I' for Inactive)
    1  A    between atoms: C_2  and  N_6
    2  A    between atoms: C_5  and  C_17
    3  A    between atoms: C_9  and  C_15
    4  A    between atoms: C_12  and  C_14
                            x       y       z     vdW  Elec       q    Type
                         _______ _______ _______ _____ _____    ______ ____

>  <TORSDO>
F 4

$$$$
=
 OpenBabel11052423213D

 27 30  0  0  1  0  0  0  0  0999 V2000
  160.6210  206.6330  150.3340 C   0  0  0  0  0  2  0  0  0  0  0  0
  162.3130  208.2070  149.1930 C   0  0  1  0  0  3  0  0  0  0  0  0
  163.6420  206.3200  148.4470 O   0  0  0  0  0  1  0  0  0  0  0  0
  160.9100  202.7480  148.2690 C   0  0  0  0  0  2  0  0  0  0  0  0
  160.7690  202.8580  149.7600 C   0  0  0  0  0  0  0  0  0  0  0  0
  161.4150  206.5370  147.4790 C   0  0  2  0  0  3  0  0  0  0  0  0
  161.8520  207.5220  150.4950 C   0  0  1  0  0  3  0  0  0  0  0  0
  161.0600  205.3090  149.7370 C   0  0  1  0  0  3  0  0  0  0  0  0
  162.6570  207.2320  148.0590 C   0  0  1  0  0  3  0  0  0  0  0  0
  161.6150  203.9830  147.7020 C   0  0  0  0  0  2  0  0  0  0  0  0
  160.9680  201.8850  150.4670 O   0  0  0  0  0  0  0  0  0  0  0  0
  160.2990  204.1470  150.3660 C   0  0  0  0  0  2  0  0  0  0  0  0
  160.9340  205.2610  148.2050 C   0  0  2  0  0  3  0  0  0  0  0  0
  162.3370  210.5470  152.7660 C   0  0  0  0  0  3  0  0  0  0  0  0
  161.7190  208.4870  151.6350 C   0  0  0  0  0  0  0  0  0  0  0  0
  160.8790  208.1610  152.7060 C   0  0  0  0  0  3  0  0  0  0  0  0
  160.7610  209.0260  153.7980 C   0  0  0  0  0  3  0  0  0  0  0  0
  161.4900  210.2180  153.8280 C   0  0  0  0  0  3  0  0  0  0  0  0
  162.4530  209.6830  151.6730 C   0  0  0  0  0  3  0  0  0  0  0  0
  161.7220  210.5370  148.4050 C   0  0  0  0  0  0  0  0  0  0  0  0
  161.3450  209.1980  148.7330 N   0  0  0  0  0  2  0  0  0  0  0  0
  162.9340  210.8840  148.4380 O   0  0  0  0  0  0  0  0  0  0  0  0
  161.1860  212.3110  146.8480 N   0  0  0  0  0  2  0  0  0  0  0  0
  161.1530  212.8840  148.1990 C   0  0  0  0  0  2  0  0  0  0  0  0
  160.6810  211.5190  147.9820 C   0  0  2  0  0  3  0  0  0  0  0  0
  160.2400  206.3470  145.4040 O   0  0  0  0  0  1  0  0  0  0  0  0
  161.5150  206.3620  145.9690 C   0  0  0  0  0  2  0  0  0  0  0  0
  1  7  1  0  0  0  0
  2 21  1  6  0  0  0
  2  7  1  0  0  0  0
  4  5  1  0  0  0  0
  5 12  1  0  0  0  0
  5 11  2  0  0  0  0
  6 27  1  6  0  0  0
  6  9  1  0  0  0  0
  6 13  1  0  0  0  0
  7 15  1  1  0  0  0
  8  1  1  1  0  0  0
  8 12  1  0  0  0  0
  9  3  1  1  0  0  0
  9  2  1  0  0  0  0
 10  4  1  0  0  0  0
 13 10  1  6  0  0  0
 13  8  1  0  0  0  0
 14 18  1  0  0  0  0
 15 19  1  0  0  0  0
 15 16  2  0  0  0  0
 16 17  1  0  0  0  0
 17 18  2  0  0  0  0
 19 14  2  0  0  0  0
 20 22  2  0  0  0  0
 20 21  1  0  0  0  0
 23 25  1  0  0  0  0
 23 24  1  0  0  0  0
 25 24  1  0  0  0  0
 25 20  1  1  0  0  0
 26 27  1  0  0  0  0
M  END
>  <MODEL>
2

>  <REMARK>
 VINA RESULT:      -5.9      2.435      3.371
  Name = 
  4 active torsions:
  status: ('A' for Active; 'I' for Inactive)
    1  A    between atoms: C_2  and  N_6
    2  A    between atoms: C_5  and  C_17
    3  A    between atoms: C_9  and  C_15
    4  A    between atoms: C_12  and  C_14
                            x       y       z     vdW  Elec       q    Type
                         _______ _______ _______ _____ _____    ______ ____

>  <TORSDO>
F 4

$$$$
=
 OpenBabel11052423213D

 27 30  0  0  1  0  0  0  0  0999 V2000
  161.8550  204.7940  150.9000 C   0  0  0  0  0  2  0  0  0  0  0  0
  160.7310  205.3730  148.6540 C   0  0  1  0  0  3  0  0  0  0  0  0
  159.2570  206.9610  149.7440 O   0  0  0  0  0  1  0  0  0  0  0  0
  161.2840  208.2800  153.5400 C   0  0  0  0  0  2  0  0  0  0  0  0
  161.1470  206.8670  154.0310 C   0  0  0  0  0  0  0  0  0  0  0  0
  161.6320  207.5090  149.7290 C   0  0  2  0  0  3  0  0  0  0  0  0
  160.7960  204.4200  149.8660 C   0  0  1  0  0  3  0  0  0  0  0  0
  161.3110  205.9220  151.7570 C   0  0  1  0  0  3  0  0  0  0  0  0
  160.4470  206.8350  149.0210 C   0  0  1  0  0  3  0  0  0  0  0  0
  160.9370  208.3680  152.0520 C   0  0  0  0  0  2  0  0  0  0  0  0
  160.6420  206.6440  155.1180 O   0  0  0  0  0  0  0  0  0  0  0  0
  161.7130  205.7410  153.2170 C   0  0  0  0  0  2  0  0  0  0  0  0
  161.7250  207.3170  151.2600 C   0  0  2  0  0  3  0  0  0  0  0  0
  161.0130  200.6160  150.0040 C   0  0  0  0  0  3  0  0  0  0  0  0
  160.8750  202.9790  149.4580 C   0  0  0  0  0  0  0  0  0  0  0  0
  160.9730  202.6630  148.0990 C   0  0  0  0  0  3  0  0  0  0  0  0
  161.0830  201.3290  147.6920 C   0  0  0  0  0  3  0  0  0  0  0  0
  161.1030  200.3070  148.6440 C   0  0  0  0  0  3  0  0  0  0  0  0
  160.9010  201.9490  150.4110 C   0  0  0  0  0  3  0  0  0  0  0  0
  161.9090  205.5180  146.4210 C   0  0  0  0  0  0  0  0  0  0  0  0
  161.9320  205.2810  147.8300 N   0  0  0  0  0  2  0  0  0  0  0  0
  160.8450  205.8860  145.8530 O   0  0  0  0  0  0  0  0  0  0  0  0
  163.1910  204.0310  145.0050 N   0  0  0  0  0  2  0  0  0  0  0  0
  164.0020  204.3180  146.1940 C   0  0  0  0  0  2  0  0  0  0  0  0
  163.1610  205.3670  145.6230 C   0  0  2  0  0  3  0  0  0  0  0  0
  162.6660  209.0390  148.2080 O   0  0  0  0  0  1  0  0  0  0  0  0
  161.8000  208.9610  149.2990 C   0  0  0  0  0  2  0  0  0  0  0  0
  2 21  1  1  0  0  0
  2  9  1  0  0  0  0
  2  7  1  0  0  0  0
  4  5  1  0  0  0  0
  5 11  2  0  0  0  0
  6 27  1  1  0  0  0
  6 13  1  0  0  0  0
  7 15  1  6  0  0  0
  7  1  1  0  0  0  0
  8  1  1  6  0  0  0
  8 12  1  0  0  0  0
  9  6  1  0  0  0  0
  9  3  1  1  0  0  0
 10  4  1  0  0  0  0
 12  5  1  0  0  0  0
 13  8  1  0  0  0  0
 13 10  1  1  0  0  0
 14 19  1  0  0  0  0
 15 19  2  0  0  0  0
 16 15  1  0  0  0  0
 17 16  2  0  0  0  0
 17 18  1  0  0  0  0
 18 14  2  0  0  0  0
 20 21  1  0  0  0  0
 22 20  2  0  0  0  0
 23 25  1  0  0  0  0
 23 24  1  0  0  0  0
 25 24  1  0  0  0  0
 25 20  1  1  0  0  0
 26 27  1  0  0  0  0
M  END
>  <MODEL>
3

>  <REMARK>
 VINA RESULT:      -5.3      3.107      6.929
  Name = 
  4 active torsions:
  status: ('A' for Active; 'I' for Inactive)
    1  A    between atoms: C_2  and  N_6
    2  A    between atoms: C_5  and  C_17
    3  A    between atoms: C_9  and  C_15
    4  A    between atoms: C_12  and  C_14
                            x       y       z     vdW  Elec       q    Type
                         _______ _______ _______ _____ _____    ______ ____

>  <TORSDO>
F 4

$$$$
=
 OpenBabel11052423213D

 27 30  0  0  1  0  0  0  0  0999 V2000
  157.7030  212.1490  153.0540 C   0  0  0  0  0  2  0  0  0  0  0  0
  160.2220  211.6060  153.0800 C   0  0  1  0  0  3  0  0  0  0  0  0
  160.4420  212.4990  155.3240 O   0  0  0  0  0  1  0  0  0  0  0  0
  156.3850  212.2660  157.2600 C   0  0  0  0  0  2  0  0  0  0  0  0
  155.9090  213.2590  156.2390 C   0  0  0  0  0  0  0  0  0  0  0  0
  159.0900  210.4860  155.0790 C   0  0  2  0  0  3  0  0  0  0  0  0
  159.1120  212.5930  152.6670 C   0  0  1  0  0  3  0  0  0  0  0  0
  157.4910  212.4530  154.5250 C   0  0  1  0  0  3  0  0  0  0  0  0
  160.2810  211.3230  154.5870 C   0  0  1  0  0  3  0  0  0  0  0  0
  157.7790  211.7480  156.8970 C   0  0  0  0  0  2  0  0  0  0  0  0
  155.3290  214.2710  156.5950 O   0  0  0  0  0  0  0  0  0  0  0  0
  156.0750  212.9590  154.7790 C   0  0  0  0  0  2  0  0  0  0  0  0
  157.8030  211.2600  155.4430 C   0  0  2  0  0  3  0  0  0  0  0  0
  160.5160  213.4710  149.2320 C   0  0  0  0  0  3  0  0  0  0  0  0
  159.2110  212.9980  151.2260 C   0  0  0  0  0  0  0  0  0  0  0  0
  158.0490  213.3740  150.5450 C   0  0  0  0  0  3  0  0  0  0  0  0
  158.1160  213.7890  149.2110 C   0  0  0  0  0  3  0  0  0  0  0  0
  159.3500  213.8380  148.5560 C   0  0  0  0  0  3  0  0  0  0  0  0
  160.4480  213.0540  150.5650 C   0  0  0  0  0  3  0  0  0  0  0  0
  161.3000  209.6140  151.9540 C   0  0  0  0  0  0  0  0  0  0  0  0
  160.1390  210.3550  152.3330 N   0  0  0  0  0  2  0  0  0  0  0  0
  162.4460  209.9920  152.3220 O   0  0  0  0  0  0  0  0  0  0  0  0
  161.0640  207.2070  152.0590 N   0  0  0  0  0  2  0  0  0  0  0  0
  162.3150  207.4980  151.3470 C   0  0  0  0  0  2  0  0  0  0  0  0
  161.1540  208.3640  151.1520 C   0  0  2  0  0  3  0  0  0  0  0  0
  160.1100  208.3740  155.5520 O   0  0  0  0  0  1  0  0  0  0  0  0
  159.5040  209.4810  156.1470 C   0  0  0  0  0  2  0  0  0  0  0  0
  2 21  1  6  0  0  0
  2  9  1  0  0  0  0
  5 11  2  0  0  0  0
  5  4  1  0  0  0  0
  6 13  1  0  0  0  0
  6 27  1  1  0  0  0
  7 15  1  6  0  0  0
  7  1  1  0  0  0  0
  7  2  1  0  0  0  0
  8  1  1  6  0  0  0
  8 12  1  0  0  0  0
  8 13  1  0  0  0  0
  9  6  1  0  0  0  0
  9  3  1  1  0  0  0
 10  4  1  0  0  0  0
 12  5  1  0  0  0  0
 13 10  1  1  0  0  0
 14 19  1  0  0  0  0
 16 15  1  0  0  0  0
 17 16  2  0  0  0  0
 18 17  1  0  0  0  0
 18 14  2  0  0  0  0
 19 15  2  0  0  0  0
 20 22  2  0  0  0  0
 20 21  1  0  0  0  0
 24 23  1  0  0  0  0
 25 24  1  0  0  0  0
 25 20  1  1  0  0  0
 25 23  1  0  0  0  0
 26 27  1  0  0  0  0
M  END
>  <MODEL>
4

>  <REMARK>
 VINA RESULT:      -5.1      3.330      8.265
  Name = 
  4 active torsions:
  status: ('A' for Active; 'I' for Inactive)
    1  A    between atoms: C_2  and  N_6
    2  A    between atoms: C_5  and  C_17
    3  A    between atoms: C_9  and  C_15
    4  A    between atoms: C_12  and  C_14
                            x       y       z     vdW  Elec       q    Type
                         _______ _______ _______ _____ _____    ______ ____

>  <TORSDO>
F 4

$$$$
=
 OpenBabel11052423213D

 27 30  0  0  1  0  0  0  0  0999 V2000
  160.1930  211.6750  150.9030 C   0  0  0  0  0  2  0  0  0  0  0  0
  162.1520  210.1210  150.2810 C   0  0  1  0  0  3  0  0  0  0  0  0
  162.9960  210.1910  152.5540 O   0  0  0  0  0  1  0  0  0  0  0  0
  159.5270  211.2060  155.2360 C   0  0  0  0  0  2  0  0  0  0  0  0
  159.4680  212.5410  154.5530 C   0  0  0  0  0  0  0  0  0  0  0  0
  160.8410  209.1010  152.2230 C   0  0  2  0  0  3  0  0  0  0  0  0
  161.5980  211.5590  150.3140 C   0  0  1  0  0  3  0  0  0  0  0  0
  160.3020  211.6310  152.4150 C   0  0  1  0  0  3  0  0  0  0  0  0
  162.2270  209.4450  151.6560 C   0  0  1  0  0  3  0  0  0  0  0  0
  160.4700  210.2600  154.4880 C   0  0  0  0  0  2  0  0  0  0  0  0
  159.4690  213.5670  155.2130 O   0  0  0  0  0  0  0  0  0  0  0  0
  159.3220  212.6050  153.0610 C   0  0  0  0  0  2  0  0  0  0  0  0
  160.1120  210.2210  152.9980 C   0  0  2  0  0  3  0  0  0  0  0  0
  163.0180  212.8870  147.0340 C   0  0  0  0  0  3  0  0  0  0  0  0
  161.7260  212.2540  148.9920 C   0  0  0  0  0  0  0  0  0  0  0  0
  160.6510  213.0150  148.5180 C   0  0  0  0  0  3  0  0  0  0  0  0
  160.7550  213.7030  147.3050 C   0  0  0  0  0  3  0  0  0  0  0  0
  161.9380  213.6380  146.5630 C   0  0  0  0  0  3  0  0  0  0  0  0
  162.9140  212.1980  148.2460 C   0  0  0  0  0  3  0  0  0  0  0  0
  161.9060  208.0080  148.9110 C   0  0  0  0  0  0  0  0  0  0  0  0
  161.4160  209.2800  149.3420 N   0  0  0  0  0  2  0  0  0  0  0  0
  162.9740  207.5400  149.3910 O   0  0  0  0  0  0  0  0  0  0  0  0
  160.2850  206.2340  148.6220 N   0  0  0  0  0  2  0  0  0  0  0  0
  161.5280  205.8080  147.9680 C   0  0  0  0  0  2  0  0  0  0  0  0
  161.1290  207.2120  147.9160 C   0  0  2  0  0  3  0  0  0  0  0  0
  161.0010  206.7190  152.0560 O   0  0  0  0  0  1  0  0  0  0  0  0
  160.8440  207.7680  152.9620 C   0  0  0  0  0  2  0  0  0  0  0  0
  2 21  1  6  0  0  0
  2  7  1  0  0  0  0
  2  9  1  0  0  0  0
  5 11  2  0  0  0  0
  5  4  1  0  0  0  0
  6 27  1  1  0  0  0
  6 13  1  0  0  0  0
  7 15  1  6  0  0  0
  7  1  1  0  0  0  0
  8  1  1  6  0  0  0
  8 13  1  0  0  0  0
  8 12  1  0  0  0  0
  9  6  1  0  0  0  0
  9  3  1  1  0  0  0
 10  4  1  0  0  0  0
 12  5  1  0  0  0  0
 13 10  1  1  0  0  0
 14 19  1  0  0  0  0
 16 15  1  0  0  0  0
 17 16  2  0  0  0  0
 18 14  2  0  0  0  0
 18 17  1  0  0  0  0
 19 15  2  0  0  0  0
 20 21  1  0  0  0  0
 20 22  2  0  0  0  0
 24 23  1  0  0  0  0
 25 24  1  0  0  0  0
 25 23  1  0  0  0  0
 25 20  1  1  0  0  0
 26 27  1  0  0  0  0
M  END
>  <MODEL>
5

>  <REMARK>
 VINA RESULT:      -4.9      3.211      7.608
  Name = 
  4 active torsions:
  status: ('A' for Active; 'I' for Inactive)
    1  A    between atoms: C_2  and  N_6
    2  A    between atoms: C_5  and  C_17
    3  A    between atoms: C_9  and  C_15
    4  A    between atoms: C_12  and  C_14
                            x       y       z     vdW  Elec       q    Type
                         _______ _______ _______ _____ _____    ______ ____

>  <TORSDO>
F 4

$$$$
=
 OpenBabel11052423213D

 27 30  0  0  1  0  0  0  0  0999 V2000
  159.7070  209.8890  152.9140 C   0  0  0  0  0  2  0  0  0  0  0  0
  161.6080  208.2610  153.5310 C   0  0  1  0  0  3  0  0  0  0  0  0
  162.2670  209.6600  155.3990 O   0  0  0  0  0  1  0  0  0  0  0  0
  158.6630  212.0750  156.5980 C   0  0  0  0  0  2  0  0  0  0  0  0
  158.7450  212.7480  155.2580 C   0  0  0  0  0  0  0  0  0  0  0  0
  160.0810  208.5910  155.5530 C   0  0  2  0  0  3  0  0  0  0  0  0
  161.1440  209.4430  152.6550 C   0  0  1  0  0  3  0  0  0  0  0  0
  159.6900  210.7470  154.1640 C   0  0  1  0  0  3  0  0  0  0  0  0
  161.5280  208.5290  155.0390 C   0  0  1  0  0  3  0  0  0  0  0  0
  159.6020  210.8670  156.6510 C   0  0  0  0  0  2  0  0  0  0  0  0
  158.7580  213.9660  155.1850 O   0  0  0  0  0  0  0  0  0  0  0  0
  158.7240  211.9180  154.0090 C   0  0  0  0  0  2  0  0  0  0  0  0
  159.3640  209.9560  155.4420 C   0  0  2  0  0  3  0  0  0  0  0  0
  161.5100  207.7830  149.2410 C   0  0  0  0  0  3  0  0  0  0  0  0
  161.4230  209.2200  151.1980 C   0  0  0  0  0  0  0  0  0  0  0  0
  161.9570  210.2690  150.4410 C   0  0  0  0  0  3  0  0  0  0  0  0
  162.2590  210.0800  149.0890 C   0  0  0  0  0  3  0  0  0  0  0  0
  162.0360  208.8370  148.4900 C   0  0  0  0  0  3  0  0  0  0  0  0
  161.2060  207.9730  150.5920 C   0  0  0  0  0  3  0  0  0  0  0  0
  161.5780  205.8550  152.7520 C   0  0  0  0  0  0  0  0  0  0  0  0
  160.8980  207.0300  153.1970 N   0  0  0  0  0  2  0  0  0  0  0  0
  162.8380  205.8280  152.7010 O   0  0  0  0  0  0  0  0  0  0  0  0
  161.6730  203.6800  151.6910 N   0  0  0  0  0  2  0  0  0  0  0  0
  160.7250  204.5030  150.9310 C   0  0  0  0  0  2  0  0  0  0  0  0
  160.7950  204.6390  152.3830 C   0  0  2  0  0  3  0  0  0  0  0  0
  160.3310  206.6160  156.8810 O   0  0  0  0  0  1  0  0  0  0  0  0
  159.9400  207.9550  156.9310 C   0  0  0  0  0  2  0  0  0  0  0  0
  2 21  1  1  0  0  0
  2  9  1  0  0  0  0
  4 10  1  0  0  0  0
  5  4  1  0  0  0  0
  6 27  1  1  0  0  0
  7 15  1  6  0  0  0
  7  1  1  0  0  0  0
  7  2  1  0  0  0  0
  8  1  1  6  0  0  0
  8 13  1  0  0  0  0
  9  3  1  6  0  0  0
  9  6  1  0  0  0  0
 11  5  2  0  0  0  0
 12  8  1  0  0  0  0
 12  5  1  0  0  0  0
 13  6  1  0  0  0  0
 13 10  1  1  0  0  0
 14 19  1  0  0  0  0
 16 15  1  0  0  0  0
 17 16  2  0  0  0  0
 18 17  1  0  0  0  0
 18 14  2  0  0  0  0
 19 15  2  0  0  0  0
 20 21  1  0  0  0  0
 22 20  2  0  0  0  0
 23 25  1  0  0  0  0
 24 23  1  0  0  0  0
 24 25  1  0  0  0  0
 25 20  1  6  0  0  0
 26 27  1  0  0  0  0
M  END
>  <MODEL>
6

>  <REMARK>
 VINA RESULT:      -4.9      2.526      7.440
  Name = 
  4 active torsions:
  status: ('A' for Active; 'I' for Inactive)
    1  A    between atoms: C_2  and  N_6
    2  A    between atoms: C_5  and  C_17
    3  A    between atoms: C_9  and  C_15
    4  A    between atoms: C_12  and  C_14
                            x       y       z     vdW  Elec       q    Type
                         _______ _______ _______ _____ _____    ______ ____

>  <TORSDO>
F 4

$$$$
=
 OpenBabel11052423213D

 27 30  0  0  1  0  0  0  0  0999 V2000
  159.4700  211.4290  152.7580 C   0  0  0  0  0  2  0  0  0  0  0  0
  161.4900  209.8730  152.3850 C   0  0  1  0  0  3  0  0  0  0  0  0
  162.3160  210.3260  154.6200 O   0  0  0  0  0  1  0  0  0  0  0  0
  158.7950  211.6100  157.1110 C   0  0  0  0  0  2  0  0  0  0  0  0
  158.6900  212.8210  156.2300 C   0  0  0  0  0  0  0  0  0  0  0  0
  160.2060  209.1160  154.4600 C   0  0  2  0  0  3  0  0  0  0  0  0
  160.8820  211.2770  152.1950 C   0  0  1  0  0  3  0  0  0  0  0  0
  159.5710  211.6230  154.2590 C   0  0  1  0  0  3  0  0  0  0  0  0
  161.5820  209.4210  153.8480 C   0  0  1  0  0  3  0  0  0  0  0  0
  159.7770  210.5960  156.5190 C   0  0  0  0  0  2  0  0  0  0  0  0
  158.6490  213.9350  156.7230 O   0  0  0  0  0  0  0  0  0  0  0  0
  158.5510  212.6480  154.7460 C   0  0  0  0  0  2  0  0  0  0  0  0
  159.4310  210.3140  155.0530 C   0  0  2  0  0  3  0  0  0  0  0  0
  162.0200  211.7010  148.5810 C   0  0  0  0  0  3  0  0  0  0  0  0
  160.9920  211.7640  150.7810 C   0  0  0  0  0  0  0  0  0  0  0  0
  160.1910  212.8330  150.3670 C   0  0  0  0  0  3  0  0  0  0  0  0
  160.2970  213.3310  149.0640 C   0  0  0  0  0  3  0  0  0  0  0  0
  161.2120  212.7650  148.1720 C   0  0  0  0  0  3  0  0  0  0  0  0
  161.9130  211.2030  149.8820 C   0  0  0  0  0  3  0  0  0  0  0  0
  161.4890  207.8810  150.8250 C   0  0  0  0  0  0  0  0  0  0  0  0
  160.7920  208.8690  151.5870 N   0  0  0  0  0  2  0  0  0  0  0  0
  162.7470  207.8060  150.8770 O   0  0  0  0  0  0  0  0  0  0  0  0
  160.7070  205.5960  150.6630 N   0  0  0  0  0  2  0  0  0  0  0  0
  161.6000  205.8400  149.5240 C   0  0  0  0  0  2  0  0  0  0  0  0
  160.7210  206.9080  149.9940 C   0  0  2  0  0  3  0  0  0  0  0  0
  160.4600  206.7460  154.6650 O   0  0  0  0  0  1  0  0  0  0  0  0
  160.2550  207.9150  155.3970 C   0  0  0  0  0  2  0  0  0  0  0  0
  2 21  1  6  0  0  0
  2  9  1  0  0  0  0
  5 11  2  0  0  0  0
  5  4  1  0  0  0  0
  6 13  1  0  0  0  0
  6 27  1  1  0  0  0
  7 15  1  6  0  0  0
  7  2  1  0  0  0  0
  7  1  1  0  0  0  0
  8  1  1  6  0  0  0
  8 12  1  0  0  0  0
  8 13  1  0  0  0  0
  9  6  1  0  0  0  0
  9  3  1  1  0  0  0
 10  4  1  0  0  0  0
 12  5  1  0  0  0  0
 13 10  1  1  0  0  0
 14 19  1  0  0  0  0
 16 15  1  0  0  0  0
 17 16  2  0  0  0  0
 18 14  2  0  0  0  0
 18 17  1  0  0  0  0
 19 15  2  0  0  0  0
 20 22  2  0  0  0  0
 20 21  1  0  0  0  0
 24 25  1  0  0  0  0
 24 23  1  0  0  0  0
 25 23  1  0  0  0  0
 25 20  1  1  0  0  0
 26 27  1  0  0  0  0
M  END
>  <MODEL>
7

>  <REMARK>
 VINA RESULT:      -4.7      2.824      7.559
  Name = 
  4 active torsions:
  status: ('A' for Active; 'I' for Inactive)
    1  A    between atoms: C_2  and  N_6
    2  A    between atoms: C_5  and  C_17
    3  A    between atoms: C_9  and  C_15
    4  A    between atoms: C_12  and  C_14
                            x       y       z     vdW  Elec       q    Type
                         _______ _______ _______ _____ _____    ______ ____

>  <TORSDO>
F 4

$$$$
