=
 OpenBabel11062409273D

 34 38  0  0  1  0  0  0  0  0999 V2000
  161.2870  209.5120  153.8440 C   0  0  0  0  0  0  0  0  0  0  0  0
  159.5640  212.1850  151.6750 C   0  0  0  0  0  2  0  0  0  0  0  0
  159.9540  211.9250  154.1250 O   0  0  0  0  0  0  0  0  0  0  0  0
  161.2460  209.5690  156.3780 C   0  0  0  0  0  0  0  0  0  0  0  0
  160.6730  210.4640  157.2610 O   0  0  0  0  0  0  0  0  0  0  0  0
  161.7420  208.4660  156.7250 O   0  0  0  0  0  0  0  0  0  0  0  0
  160.8370  211.5470  155.1790 C   0  0  2  0  0  3  0  0  0  0  0  0
  161.2210  210.1170  155.0420 C   0  0  0  0  0  0  0  0  0  0  0  0
  160.1990  211.6230  156.5740 C   0  0  0  0  0  2  0  0  0  0  0  0
  160.6560  212.7590  150.7820 C   0  0  0  0  0  2  0  0  0  0  0  0
  161.1440  211.7180  149.7770 C   0  0  2  0  0  3  0  0  0  0  0  0
  161.9690  210.6200  150.4430 C   0  0  0  0  0  2  0  0  0  0  0  0
  160.1570  211.4310  152.8250 C   0  0  0  0  0  0  0  0  0  0  0  0
  161.0870  209.7060  151.2820 C   0  0  0  0  0  2  0  0  0  0  0  0
  160.8580  210.2840  152.6480 C   0  0  0  0  0  0  0  0  0  0  0  0
  161.9550  212.3850  148.7180 C   0  0  0  0  0  0  0  0  0  0  0  0
  161.9630  213.7700  148.6010 O   0  0  0  0  0  1  0  0  0  0  0  0
  162.6390  211.6860  147.9260 O   0  0  0  0  0  0  0  0  0  0  0  0
  161.6160  208.1270  153.6950 N   0  0  0  0  0  2  0  0  0  0  0  0
  160.6270  207.0660  153.7990 C   0  0  0  0  0  2  0  0  0  0  0  0
  161.2210  205.7990  153.3950 N   0  0  0  0  0  2  0  0  0  0  0  0
  161.2050  203.4510  150.4980 C   0  0  0  0  0  3  0  0  0  0  0  0
  161.2070  206.2150  150.9610 C   0  0  0  0  0  3  0  0  0  0  0  0
  161.2110  204.7400  147.0180 C   0  0  0  0  0  0  0  0  0  0  0  0
  161.2080  203.8530  148.1080 C   0  0  0  0  0  3  0  0  0  0  0  0
  161.2060  204.3380  149.4180 C   0  0  0  0  0  0  0  0  0  0  0  0
  161.2110  206.6170  148.5740 C   0  0  0  0  0  3  0  0  0  0  0  0
  161.2070  205.7300  149.6510 C   0  0  0  0  0  0  0  0  0  0  0  0
  161.2130  206.1230  147.2660 C   0  0  0  0  0  3  0  0  0  0  0  0
  161.2100  205.3240  152.0450 C   0  0  0  0  0  0  0  0  0  0  0  0
  161.2070  203.9440  151.8070 C   0  0  0  0  0  3  0  0  0  0  0  0
  161.2130  204.2380  145.6670 N   0  0  0  0  0  0  0  0  0  0  0  0
  161.4660  205.1190  144.5370 C   0  0  0  0  0  1  0  0  0  0  0  0
  160.9630  202.8330  145.3850 C   0  0  0  0  0  1  0  0  0  0  0  0
  1  8  2  0  0  0  0
  2 13  1  0  0  0  0
  3  7  1  0  0  0  0
  4  6  2  0  0  0  0
  4  5  1  0  0  0  0
  7  9  1  1  0  0  0
  8  7  1  0  0  0  0
  8  4  1  0  0  0  0
  9  5  1  0  0  0  0
 10  2  1  0  0  0  0
 11 16  1  6  0  0  0
 11 12  1  0  0  0  0
 11 10  1  0  0  0  0
 12 14  1  0  0  0  0
 13  3  1  0  0  0  0
 14 15  1  0  0  0  0
 15 13  2  0  0  0  0
 15  1  1  0  0  0  0
 17 16  1  0  0  0  0
 18 16  2  0  0  0  0
 19 20  1  0  0  0  0
 19  1  1  0  0  0  0
 21 20  1  0  0  0  0
 22 31  1  0  0  0  0
 23 30  1  0  0  0  0
 24 29  1  0  0  0  0
 24 25  2  0  0  0  0
 25 26  1  0  0  0  0
 26 28  1  0  0  0  0
 26 22  2  0  0  0  0
 27 28  1  0  0  0  0
 28 23  2  0  0  0  0
 29 27  2  0  0  0  0
 30 21  1  0  0  0  0
 31 30  2  0  0  0  0
 32 24  1  0  0  0  0
 33 32  1  0  0  0  0
 34 32  1  0  0  0  0
M  END
>  <MODEL>
1

>  <REMARK>
 VINA RESULT:      -8.5      0.000      0.000
  Name = 
  6 active torsions:
  status: ('A' for Active; 'I' for Inactive)
    1  A    between atoms: C_1  and  N_9
    2  A    between atoms: C_3  and  C_25
    3  A    between atoms: C_7  and  N_11
    4  A    between atoms: C_8  and  N_9
    5  A    between atoms: C_8  and  N_18
    6  A    between atoms: N_18  and  C_30
                            x       y       z     vdW  Elec       q    Type
                         _______ _______ _______ _____ _____    ______ ____

>  <TORSDO>
F 6

$$$$
=
 OpenBabel11062409273D

 34 38  0  0  1  0  0  0  0  0999 V2000
  161.3830  209.3940  153.7440 C   0  0  0  0  0  0  0  0  0  0  0  0
  159.6230  212.1880  151.7650 C   0  0  0  0  0  2  0  0  0  0  0  0
  160.0820  211.8010  154.1860 O   0  0  0  0  0  0  0  0  0  0  0  0
  161.4160  209.3230  156.2780 C   0  0  0  0  0  0  0  0  0  0  0  0
  160.8780  210.1770  157.2210 O   0  0  0  0  0  0  0  0  0  0  0  0
  161.9110  208.2000  156.5540 O   0  0  0  0  0  0  0  0  0  0  0  0
  160.9920  211.3620  155.1930 C   0  0  2  0  0  3  0  0  0  0  0  0
  161.3580  209.9380  154.9720 C   0  0  0  0  0  0  0  0  0  0  0  0
  160.3960  211.3740  156.6080 C   0  0  0  0  0  2  0  0  0  0  0  0
  160.6940  212.7970  150.8690 C   0  0  0  0  0  2  0  0  0  0  0  0
  161.1420  211.8050  149.7990 C   0  0  2  0  0  3  0  0  0  0  0  0
  161.9760  210.6680  150.3840 C   0  0  0  0  0  2  0  0  0  0  0  0
  160.2420  211.3720  152.8570 C   0  0  0  0  0  0  0  0  0  0  0  0
  161.1100  209.7190  151.2020 C   0  0  0  0  0  2  0  0  0  0  0  0
  160.9270  210.2290  152.6020 C   0  0  0  0  0  0  0  0  0  0  0  0
  161.9280  212.5170  148.7510 C   0  0  0  0  0  0  0  0  0  0  0  0
  162.8030  211.8180  147.9280 O   0  0  0  0  0  0  0  0  0  0  0  0
  161.7950  213.7600  148.6100 O   0  0  0  0  0  1  0  0  0  0  0  0
  161.6930  208.0160  153.5150 N   0  0  0  0  0  2  0  0  0  0  0  0
  160.6800  206.9730  153.4850 C   0  0  0  0  0  2  0  0  0  0  0  0
  161.3050  205.6890  153.2050 N   0  0  0  0  0  2  0  0  0  0  0  0
  161.2710  205.2630  149.4990 C   0  0  0  0  0  3  0  0  0  0  0  0
  161.1530  203.6650  151.7990 C   0  0  0  0  0  3  0  0  0  0  0  0
  160.9890  201.8870  147.9860 C   0  0  0  0  0  0  0  0  0  0  0  0
  161.1040  203.2820  148.1150 C   0  0  0  0  0  3  0  0  0  0  0  0
  161.1590  203.8760  149.3780 C   0  0  0  0  0  0  0  0  0  0  0  0
  160.9840  201.6850  150.4150 C   0  0  0  0  0  3  0  0  0  0  0  0
  161.1000  203.0710  150.5360 C   0  0  0  0  0  0  0  0  0  0  0  0
  160.9300  201.0980  149.1480 C   0  0  0  0  0  3  0  0  0  0  0  0
  161.2610  205.0590  151.9200 C   0  0  0  0  0  0  0  0  0  0  0  0
  161.3220  205.8510  150.7680 C   0  0  0  0  0  3  0  0  0  0  0  0
  160.9330  201.2760  146.6820 N   0  0  0  0  0  0  0  0  0  0  0  0
  160.5210  202.0350  145.5110 C   0  0  0  0  0  1  0  0  0  0  0  0
  161.2850  199.8770  146.4890 C   0  0  0  0  0  1  0  0  0  0  0  0
  1  8  2  0  0  0  0
  2 13  1  0  0  0  0
  3  7  1  0  0  0  0
  4  6  2  0  0  0  0
  4  5  1  0  0  0  0
  7  9  1  1  0  0  0
  8  7  1  0  0  0  0
  8  4  1  0  0  0  0
  9  5  1  0  0  0  0
 10  2  1  0  0  0  0
 11 16  1  6  0  0  0
 11 12  1  0  0  0  0
 11 10  1  0  0  0  0
 12 14  1  0  0  0  0
 13  3  1  0  0  0  0
 14 15  1  0  0  0  0
 15 13  2  0  0  0  0
 15  1  1  0  0  0  0
 17 16  2  0  0  0  0
 18 16  1  0  0  0  0
 19  1  1  0  0  0  0
 20 19  1  0  0  0  0
 21 20  1  0  0  0  0
 22 31  1  0  0  0  0
 23 30  1  0  0  0  0
 24 25  2  0  0  0  0
 24 29  1  0  0  0  0
 25 26  1  0  0  0  0
 26 22  2  0  0  0  0
 26 28  1  0  0  0  0
 27 28  1  0  0  0  0
 28 23  2  0  0  0  0
 29 27  2  0  0  0  0
 30 21  1  0  0  0  0
 31 30  2  0  0  0  0
 32 24  1  0  0  0  0
 33 32  1  0  0  0  0
 34 32  1  0  0  0  0
M  END
>  <MODEL>
2

>  <REMARK>
 VINA RESULT:      -8.4      1.052      1.979
  Name = 
  6 active torsions:
  status: ('A' for Active; 'I' for Inactive)
    1  A    between atoms: C_1  and  N_9
    2  A    between atoms: C_3  and  C_25
    3  A    between atoms: C_7  and  N_11
    4  A    between atoms: C_8  and  N_9
    5  A    between atoms: C_8  and  N_18
    6  A    between atoms: N_18  and  C_30
                            x       y       z     vdW  Elec       q    Type
                         _______ _______ _______ _____ _____    ______ ____

>  <TORSDO>
F 6

$$$$
=
 OpenBabel11062409273D

 34 38  0  0  1  0  0  0  0  0999 V2000
  160.9180  211.3270  152.0430 C   0  0  0  0  0  0  0  0  0  0  0  0
  160.1040  211.1610  155.8020 C   0  0  0  0  0  2  0  0  0  0  0  0
  159.3440  212.6170  153.9240 O   0  0  0  0  0  0  0  0  0  0  0  0
  160.0420  213.1650  150.5320 C   0  0  0  0  0  0  0  0  0  0  0  0
  159.2320  214.2530  150.7940 O   0  0  0  0  0  0  0  0  0  0  0  0
  160.6510  212.9940  149.4440 O   0  0  0  0  0  0  0  0  0  0  0  0
  158.9420  212.7260  152.5600 C   0  0  2  0  0  3  0  0  0  0  0  0
  160.0350  212.2660  151.6620 C   0  0  0  0  0  0  0  0  0  0  0  0
  158.6800  214.1700  152.1090 C   0  0  0  0  0  2  0  0  0  0  0  0
  159.4600  209.8000  156.0250 C   0  0  0  0  0  2  0  0  0  0  0  0
  160.4690  208.6740  155.8100 C   0  0  2  0  0  3  0  0  0  0  0  0
  160.8300  208.5000  154.3370 C   0  0  0  0  0  2  0  0  0  0  0  0
  160.1100  211.5170  154.3470 C   0  0  0  0  0  0  0  0  0  0  0  0
  161.6920  209.6550  153.8450 C   0  0  0  0  0  2  0  0  0  0  0  0
  160.8440  210.8260  153.4400 C   0  0  0  0  0  0  0  0  0  0  0  0
  159.9200  207.3970  156.3480 C   0  0  0  0  0  0  0  0  0  0  0  0
  158.7350  206.8720  155.8470 O   0  0  0  0  0  0  0  0  0  0  0  0
  160.5370  206.7890  157.2600 O   0  0  0  0  0  1  0  0  0  0  0  0
  162.0000  210.9010  151.2090 N   0  0  0  0  0  2  0  0  0  0  0  0
  161.8300  209.9520  150.1200 C   0  0  0  0  0  2  0  0  0  0  0  0
  161.5360  208.6320  150.6610 N   0  0  0  0  0  2  0  0  0  0  0  0
  161.8080  206.3860  147.6960 C   0  0  0  0  0  3  0  0  0  0  0  0
  161.1380  206.2080  150.4120 C   0  0  0  0  0  3  0  0  0  0  0  0
  161.0300  202.7700  147.9850 C   0  0  0  0  0  0  0  0  0  0  0  0
  161.4020  204.0110  147.4420 C   0  0  0  0  0  3  0  0  0  0  0  0
  161.4400  205.1550  148.2430 C   0  0  0  0  0  0  0  0  0  0  0  0
  160.7310  203.8350  150.1570 C   0  0  0  0  0  3  0  0  0  0  0  0
  161.1020  205.0650  149.6110 C   0  0  0  0  0  0  0  0  0  0  0  0
  160.6950  202.6960  149.3480 C   0  0  0  0  0  3  0  0  0  0  0  0
  161.5040  207.4460  149.8610 C   0  0  0  0  0  0  0  0  0  0  0  0
  161.8400  207.5280  148.5050 C   0  0  0  0  0  3  0  0  0  0  0  0
  160.9920  201.5910  147.1570 N   0  0  0  0  0  0  0  0  0  0  0  0
  160.4790  201.6420  145.7960 C   0  0  0  0  0  1  0  0  0  0  0  0
  161.4640  200.3060  147.6520 C   0  0  0  0  0  1  0  0  0  0  0  0
  1 15  1  0  0  0  0
  2 10  1  0  0  0  0
  3 13  1  0  0  0  0
  4  5  1  0  0  0  0
  4  8  1  0  0  0  0
  5  9  1  0  0  0  0
  6  4  2  0  0  0  0
  7  9  1  6  0  0  0
  7  3  1  0  0  0  0
  8  1  2  0  0  0  0
  8  7  1  0  0  0  0
 11 10  1  0  0  0  0
 11 16  1  6  0  0  0
 12 11  1  0  0  0  0
 13  2  1  0  0  0  0
 14 12  1  0  0  0  0
 15 14  1  0  0  0  0
 15 13  2  0  0  0  0
 16 18  1  0  0  0  0
 17 16  2  0  0  0  0
 19  1  1  0  0  0  0
 20 21  1  0  0  0  0
 20 19  1  0  0  0  0
 22 26  2  0  0  0  0
 22 31  1  0  0  0  0
 24 29  1  0  0  0  0
 25 24  2  0  0  0  0
 25 26  1  0  0  0  0
 26 28  1  0  0  0  0
 28 27  1  0  0  0  0
 28 23  2  0  0  0  0
 29 27  2  0  0  0  0
 30 23  1  0  0  0  0
 30 21  1  0  0  0  0
 31 30  2  0  0  0  0
 32 34  1  0  0  0  0
 32 24  1  0  0  0  0
 33 32  1  0  0  0  0
M  END
>  <MODEL>
3

>  <REMARK>
 VINA RESULT:      -8.4      1.847      5.052
  Name = 
  6 active torsions:
  status: ('A' for Active; 'I' for Inactive)
    1  A    between atoms: C_1  and  N_9
    2  A    between atoms: C_3  and  C_25
    3  A    between atoms: C_7  and  N_11
    4  A    between atoms: C_8  and  N_9
    5  A    between atoms: C_8  and  N_18
    6  A    between atoms: N_18  and  C_30
                            x       y       z     vdW  Elec       q    Type
                         _______ _______ _______ _____ _____    ______ ____

>  <TORSDO>
F 6

$$$$
=
 OpenBabel11062409273D

 34 38  0  0  1  0  0  0  0  0999 V2000
  160.4310  211.8320  151.7270 C   0  0  0  0  0  0  0  0  0  0  0  0
  158.4730  214.3960  153.8280 C   0  0  0  0  0  2  0  0  0  0  0  0
  159.3350  214.3660  151.4870 O   0  0  0  0  0  0  0  0  0  0  0  0
  161.2960  212.3440  149.3990 C   0  0  0  0  0  0  0  0  0  0  0  0
  161.2040  213.4820  148.6220 O   0  0  0  0  0  0  0  0  0  0  0  0
  162.0230  211.3580  149.1110 O   0  0  0  0  0  0  0  0  0  0  0  0
  159.5430  213.6350  150.2810 C   0  0  2  0  0  3  0  0  0  0  0  0
  160.4120  212.4560  150.5360 C   0  0  0  0  0  0  0  0  0  0  0  0
  160.3020  214.4250  149.2050 C   0  0  0  0  0  2  0  0  0  0  0  0
  157.1480  213.7270  154.1660 C   0  0  0  0  0  2  0  0  0  0  0  0
  157.3550  212.5460  155.1120 C   0  0  2  0  0  3  0  0  0  0  0  0
  158.0200  211.3620  154.4150 C   0  0  0  0  0  2  0  0  0  0  0  0
  159.1600  213.6840  152.7030 C   0  0  0  0  0  0  0  0  0  0  0  0
  159.4840  211.6540  154.1170 C   0  0  0  0  0  2  0  0  0  0  0  0
  159.6300  212.4190  152.8330 C   0  0  0  0  0  0  0  0  0  0  0  0
  156.0440  212.1240  155.6830 C   0  0  0  0  0  0  0  0  0  0  0  0
  155.6850  210.7810  155.7070 O   0  0  0  0  0  0  0  0  0  0  0  0
  155.2600  212.9890  156.1490 O   0  0  0  0  0  1  0  0  0  0  0  0
  161.2900  210.7210  152.0040 N   0  0  0  0  0  2  0  0  0  0  0  0
  160.8740  209.3390  151.8290 C   0  0  0  0  0  2  0  0  0  0  0  0
  161.8400  208.6380  150.9950 N   0  0  0  0  0  2  0  0  0  0  0  0
  161.0050  205.0040  150.8830 C   0  0  0  0  0  3  0  0  0  0  0  0
  161.8070  207.0310  149.1210 C   0  0  0  0  0  3  0  0  0  0  0  0
  161.1790  203.1210  147.6910 C   0  0  0  0  0  0  0  0  0  0  0  0
  160.9880  203.4190  149.0500 C   0  0  0  0  0  3  0  0  0  0  0  0
  161.1950  204.7150  149.5300 C   0  0  0  0  0  0  0  0  0  0  0  0
  161.7920  205.4460  147.2900 C   0  0  0  0  0  3  0  0  0  0  0  0
  161.5990  205.7350  148.6420 C   0  0  0  0  0  0  0  0  0  0  0  0
  161.5830  204.1470  146.8190 C   0  0  0  0  0  3  0  0  0  0  0  0
  161.6200  207.3200  150.4820 C   0  0  0  0  0  0  0  0  0  0  0  0
  161.2180  206.3040  151.3560 C   0  0  0  0  0  3  0  0  0  0  0  0
  160.9660  201.7840  147.1980 N   0  0  0  0  0  0  0  0  0  0  0  0
  160.4660  201.5470  145.8520 C   0  0  0  0  0  1  0  0  0  0  0  0
  161.2420  200.6210  148.0280 C   0  0  0  0  0  1  0  0  0  0  0  0
  1 19  1  0  0  0  0
  1 15  1  0  0  0  0
  2 10  1  0  0  0  0
  3 13  1  0  0  0  0
  4  8  1  0  0  0  0
  5  9  1  0  0  0  0
  5  4  1  0  0  0  0
  6  4  2  0  0  0  0
  7  9  1  6  0  0  0
  7  8  1  0  0  0  0
  7  3  1  0  0  0  0
  8  1  2  0  0  0  0
 10 11  1  0  0  0  0
 11 16  1  6  0  0  0
 12 11  1  0  0  0  0
 13 15  2  0  0  0  0
 13  2  1  0  0  0  0
 14 12  1  0  0  0  0
 15 14  1  0  0  0  0
 16 17  2  0  0  0  0
 16 18  1  0  0  0  0
 20 19  1  0  0  0  0
 21 20  1  0  0  0  0
 22 31  1  0  0  0  0
 23 30  1  0  0  0  0
 24 25  2  0  0  0  0
 25 26  1  0  0  0  0
 26 22  2  0  0  0  0
 27 28  1  0  0  0  0
 28 23  2  0  0  0  0
 28 26  1  0  0  0  0
 29 27  2  0  0  0  0
 29 24  1  0  0  0  0
 30 21  1  0  0  0  0
 30 31  2  0  0  0  0
 32 24  1  0  0  0  0
 32 34  1  0  0  0  0
 33 32  1  0  0  0  0
M  END
>  <MODEL>
4

>  <REMARK>
 VINA RESULT:      -8.0      2.364      5.129
  Name = 
  6 active torsions:
  status: ('A' for Active; 'I' for Inactive)
    1  A    between atoms: C_1  and  N_9
    2  A    between atoms: C_3  and  C_25
    3  A    between atoms: C_7  and  N_11
    4  A    between atoms: C_8  and  N_9
    5  A    between atoms: C_8  and  N_18
    6  A    between atoms: N_18  and  C_30
                            x       y       z     vdW  Elec       q    Type
                         _______ _______ _______ _____ _____    ______ ____

>  <TORSDO>
F 6

$$$$
=
 OpenBabel11062409273D

 34 38  0  0  1  0  0  0  0  0999 V2000
  160.6130  211.2100  153.9740 C   0  0  0  0  0  0  0  0  0  0  0  0
  157.1570  210.9150  155.6450 C   0  0  0  0  0  2  0  0  0  0  0  0
  159.5040  210.6710  156.4560 O   0  0  0  0  0  0  0  0  0  0  0  0
  162.7700  210.6490  155.1830 C   0  0  0  0  0  0  0  0  0  0  0  0
  163.0070  210.2100  156.4700 O   0  0  0  0  0  0  0  0  0  0  0  0
  163.6520  210.6890  154.2860 O   0  0  0  0  0  0  0  0  0  0  0  0
  160.8480  211.1450  156.4380 C   0  0  2  0  0  3  0  0  0  0  0  0
  161.3980  211.0830  155.0580 C   0  0  0  0  0  0  0  0  0  0  0  0
  161.8170  210.2820  157.2580 C   0  0  0  0  0  2  0  0  0  0  0  0
  156.5240  212.2950  155.5320 C   0  0  0  0  0  2  0  0  0  0  0  0
  156.2100  212.6360  154.0770 C   0  0  2  0  0  3  0  0  0  0  0  0
  157.4730  212.9140  153.2670 C   0  0  0  0  0  2  0  0  0  0  0  0
  158.6330  210.9810  155.3980 C   0  0  0  0  0  0  0  0  0  0  0  0
  158.2570  211.6320  153.0190 C   0  0  0  0  0  2  0  0  0  0  0  0
  159.1450  211.3100  154.1860 C   0  0  0  0  0  0  0  0  0  0  0  0
  155.3060  213.8200  154.0220 C   0  0  0  0  0  0  0  0  0  0  0  0
  154.8100  214.2740  152.8060 O   0  0  0  0  0  0  0  0  0  0  0  0
  154.9890  214.4110  155.0870 O   0  0  0  0  0  1  0  0  0  0  0  0
  161.1180  211.1130  152.6390 N   0  0  0  0  0  2  0  0  0  0  0  0
  161.7140  209.8980  152.1080 C   0  0  0  0  0  2  0  0  0  0  0  0
  161.0450  208.7350  152.6720 N   0  0  0  0  0  2  0  0  0  0  0  0
  161.2060  205.0310  152.2650 C   0  0  0  0  0  3  0  0  0  0  0  0
  160.9400  207.3110  150.6570 C   0  0  0  0  0  3  0  0  0  0  0  0
  161.0140  203.4880  148.8970 C   0  0  0  0  0  0  0  0  0  0  0  0
  161.1210  203.6300  150.2900 C   0  0  0  0  0  3  0  0  0  0  0  0
  161.0970  204.8960  150.8800 C   0  0  0  0  0  0  0  0  0  0  0  0
  160.8570  205.9110  148.6840 C   0  0  0  0  0  3  0  0  0  0  0  0
  160.9630  206.0440  150.0690 C   0  0  0  0  0  0  0  0  0  0  0  0
  160.8820  204.6400  148.1030 C   0  0  0  0  0  3  0  0  0  0  0  0
  161.0540  207.4460  152.0500 C   0  0  0  0  0  0  0  0  0  0  0  0
  161.1850  206.3030  152.8470 C   0  0  0  0  0  3  0  0  0  0  0  0
  161.0400  202.1800  148.2910 N   0  0  0  0  0  0  0  0  0  0  0  0
  161.1620  202.0200  146.8490 C   0  0  0  0  0  1  0  0  0  0  0  0
  160.9450  200.9730  149.0970 C   0  0  0  0  0  1  0  0  0  0  0  0
  1 15  1  0  0  0  0
  1  8  2  0  0  0  0
  4  5  1  0  0  0  0
  5  9  1  0  0  0  0
  6  4  2  0  0  0  0
  7  3  1  0  0  0  0
  7  9  1  1  0  0  0
  8  4  1  0  0  0  0
  8  7  1  0  0  0  0
 10  2  1  0  0  0  0
 11 16  1  1  0  0  0
 11 10  1  0  0  0  0
 12 11  1  0  0  0  0
 13  2  1  0  0  0  0
 13  3  1  0  0  0  0
 14 12  1  0  0  0  0
 14 15  1  0  0  0  0
 15 13  2  0  0  0  0
 16 18  1  0  0  0  0
 17 16  2  0  0  0  0
 19  1  1  0  0  0  0
 20 19  1  0  0  0  0
 20 21  1  0  0  0  0
 22 31  1  0  0  0  0
 23 30  1  0  0  0  0
 24 25  2  0  0  0  0
 25 26  1  0  0  0  0
 26 22  2  0  0  0  0
 27 28  1  0  0  0  0
 28 23  2  0  0  0  0
 28 26  1  0  0  0  0
 29 27  2  0  0  0  0
 29 24  1  0  0  0  0
 30 21  1  0  0  0  0
 30 31  2  0  0  0  0
 32 24  1  0  0  0  0
 32 34  1  0  0  0  0
 33 32  1  0  0  0  0
M  END
>  <MODEL>
5

>  <REMARK>
 VINA RESULT:      -7.8      2.581      4.146
  Name = 
  6 active torsions:
  status: ('A' for Active; 'I' for Inactive)
    1  A    between atoms: C_1  and  N_9
    2  A    between atoms: C_3  and  C_25
    3  A    between atoms: C_7  and  N_11
    4  A    between atoms: C_8  and  N_9
    5  A    between atoms: C_8  and  N_18
    6  A    between atoms: N_18  and  C_30
                            x       y       z     vdW  Elec       q    Type
                         _______ _______ _______ _____ _____    ______ ____

>  <TORSDO>
F 6

$$$$
=
 OpenBabel11062409273D

 34 38  0  0  1  0  0  0  0  0999 V2000
  160.6210  210.6930  152.4990 C   0  0  0  0  0  0  0  0  0  0  0  0
  158.9960  213.9650  153.7130 C   0  0  0  0  0  2  0  0  0  0  0  0
  160.0690  213.2480  151.5780 O   0  0  0  0  0  0  0  0  0  0  0  0
  161.8020  210.4990  150.2630 C   0  0  0  0  0  0  0  0  0  0  0  0
  162.0120  211.4240  149.2590 O   0  0  0  0  0  0  0  0  0  0  0  0
  162.3480  209.3660  150.2950 O   0  0  0  0  0  0  0  0  0  0  0  0
  160.2530  212.2320  150.5950 C   0  0  2  0  0  3  0  0  0  0  0  0
  160.8460  211.0170  151.2130 C   0  0  0  0  0  0  0  0  0  0  0  0
  161.2560  212.6130  149.4970 C   0  0  0  0  0  2  0  0  0  0  0  0
  157.5380  213.6240  153.9920 C   0  0  0  0  0  2  0  0  0  0  0  0
  157.4150  212.6780  155.1840 C   0  0  2  0  0  3  0  0  0  0  0  0
  157.9040  211.2700  154.8530 C   0  0  0  0  0  2  0  0  0  0  0  0
  159.6420  212.9070  152.8730 C   0  0  0  0  0  0  0  0  0  0  0  0
  159.4200  211.2370  154.7130 C   0  0  0  0  0  2  0  0  0  0  0  0
  159.8420  211.6460  153.3310 C   0  0  0  0  0  0  0  0  0  0  0  0
  155.9960  212.6240  155.6380 C   0  0  0  0  0  0  0  0  0  0  0  0
  155.1260  213.6720  155.3620 O   0  0  0  0  0  0  0  0  0  0  0  0
  155.5830  211.6200  156.2730 O   0  0  0  0  0  1  0  0  0  0  0  0
  161.2150  209.5500  153.1220 N   0  0  0  0  0  2  0  0  0  0  0  0
  160.5210  208.2820  153.2690 C   0  0  0  0  0  2  0  0  0  0  0  0
  161.4790  207.1870  153.2110 N   0  0  0  0  0  2  0  0  0  0  0  0
  161.1020  203.7170  151.8980 C   0  0  0  0  0  3  0  0  0  0  0  0
  161.4410  206.3150  150.9020 C   0  0  0  0  0  3  0  0  0  0  0  0
  161.1560  203.0600  148.2460 C   0  0  0  0  0  0  0  0  0  0  0  0
  161.0810  202.8530  149.6340 C   0  0  0  0  0  3  0  0  0  0  0  0
  161.1750  203.9300  150.5190 C   0  0  0  0  0  0  0  0  0  0  0  0
  161.4220  205.4510  148.6400 C   0  0  0  0  0  3  0  0  0  0  0  0
  161.3460  205.2380  150.0170 C   0  0  0  0  0  0  0  0  0  0  0  0
  161.3280  204.3680  147.7610 C   0  0  0  0  0  3  0  0  0  0  0  0
  161.3720  206.1000  152.2870 C   0  0  0  0  0  0  0  0  0  0  0  0
  161.2010  204.8000  152.7780 C   0  0  0  0  0  3  0  0  0  0  0  0
  161.0590  201.9480  147.3350 N   0  0  0  0  0  0  0  0  0  0  0  0
  161.1860  200.5760  147.8030 C   0  0  0  0  0  1  0  0  0  0  0  0
  160.8310  202.1570  145.9130 C   0  0  0  0  0  1  0  0  0  0  0  0
  1 19  1  0  0  0  0
  1 15  1  0  0  0  0
  2 10  1  0  0  0  0
  3 13  1  0  0  0  0
  4  6  2  0  0  0  0
  4  8  1  0  0  0  0
  5  9  1  0  0  0  0
  5  4  1  0  0  0  0
  7  9  1  6  0  0  0
  7  8  1  0  0  0  0
  7  3  1  0  0  0  0
  8  1  2  0  0  0  0
 10 11  1  0  0  0  0
 11 16  1  6  0  0  0
 12 11  1  0  0  0  0
 13 15  2  0  0  0  0
 13  2  1  0  0  0  0
 14 12  1  0  0  0  0
 15 14  1  0  0  0  0
 16 18  1  0  0  0  0
 17 16  2  0  0  0  0
 19 20  1  0  0  0  0
 21 20  1  0  0  0  0
 22 31  1  0  0  0  0
 23 30  1  0  0  0  0
 24 25  2  0  0  0  0
 25 26  1  0  0  0  0
 26 22  2  0  0  0  0
 27 28  1  0  0  0  0
 28 26  1  0  0  0  0
 28 23  2  0  0  0  0
 29 24  1  0  0  0  0
 29 27  2  0  0  0  0
 30 31  2  0  0  0  0
 30 21  1  0  0  0  0
 32 33  1  0  0  0  0
 32 24  1  0  0  0  0
 34 32  1  0  0  0  0
M  END
>  <MODEL>
6

>  <REMARK>
 VINA RESULT:      -7.7      2.236      4.670
  Name = 
  6 active torsions:
  status: ('A' for Active; 'I' for Inactive)
    1  A    between atoms: C_1  and  N_9
    2  A    between atoms: C_3  and  C_25
    3  A    between atoms: C_7  and  N_11
    4  A    between atoms: C_8  and  N_9
    5  A    between atoms: C_8  and  N_18
    6  A    between atoms: N_18  and  C_30
                            x       y       z     vdW  Elec       q    Type
                         _______ _______ _______ _____ _____    ______ ____

>  <TORSDO>
F 6

$$$$
=
 OpenBabel11062409273D

 34 38  0  0  1  0  0  0  0  0999 V2000
  160.8890  210.1670  153.8000 C   0  0  0  0  0  0  0  0  0  0  0  0
  159.2960  212.5280  151.2090 C   0  0  0  0  0  2  0  0  0  0  0  0
  159.3370  212.4620  153.7020 O   0  0  0  0  0  0  0  0  0  0  0  0
  160.4660  210.3830  156.2910 C   0  0  0  0  0  0  0  0  0  0  0  0
  159.6970  211.2750  157.0110 O   0  0  0  0  0  0  0  0  0  0  0  0
  160.9930  209.3540  156.7880 O   0  0  0  0  0  0  0  0  0  0  0  0
  160.0810  212.2340  154.8980 C   0  0  2  0  0  3  0  0  0  0  0  0
  160.5960  210.8400  154.9270 C   0  0  0  0  0  0  0  0  0  0  0  0
  159.2390  212.3410  156.1770 C   0  0  0  0  0  2  0  0  0  0  0  0
  160.4580  213.1410  150.4390 C   0  0  0  0  0  2  0  0  0  0  0  0
  161.1740  212.0870  149.5970 C   0  0  2  0  0  3  0  0  0  0  0  0
  161.9770  211.1140  150.4560 C   0  0  0  0  0  2  0  0  0  0  0  0
  159.7700  211.9060  152.4860 C   0  0  0  0  0  0  0  0  0  0  0  0
  161.0570  210.1780  151.2280 C   0  0  0  0  0  2  0  0  0  0  0  0
  160.5810  210.8190  152.5000 C   0  0  0  0  0  0  0  0  0  0  0  0
  162.0760  212.7560  148.6160 C   0  0  0  0  0  0  0  0  0  0  0  0
  161.9270  214.1070  148.3270 O   0  0  0  0  0  1  0  0  0  0  0  0
  162.9810  212.0910  148.0490 O   0  0  0  0  0  0  0  0  0  0  0  0
  161.3470  208.8110  153.8060 N   0  0  0  0  0  2  0  0  0  0  0  0
  160.6810  207.7500  153.0680 C   0  0  0  0  0  2  0  0  0  0  0  0
  161.5390  206.5750  153.0160 N   0  0  0  0  0  2  0  0  0  0  0  0
  160.9280  203.1880  151.5790 C   0  0  0  0  0  3  0  0  0  0  0  0
  161.5120  205.7780  150.6800 C   0  0  0  0  0  3  0  0  0  0  0  0
  161.0570  202.6370  147.9120 C   0  0  0  0  0  0  0  0  0  0  0  0
  160.9170  202.3960  149.2900 C   0  0  0  0  0  3  0  0  0  0  0  0
  161.0660  203.4350  150.2120 C   0  0  0  0  0  0  0  0  0  0  0  0
  161.5020  204.9860  148.3920 C   0  0  0  0  0  3  0  0  0  0  0  0
  161.3600  204.7390  149.7580 C   0  0  0  0  0  0  0  0  0  0  0  0
  161.3510  203.9410  147.4760 C   0  0  0  0  0  3  0  0  0  0  0  0
  161.3770  205.5280  152.0540 C   0  0  0  0  0  0  0  0  0  0  0  0
  161.0830  204.2330  152.4970 C   0  0  0  0  0  3  0  0  0  0  0  0
  160.9020  201.5650  146.9630 N   0  0  0  0  0  0  0  0  0  0  0  0
  161.2880  200.2020  147.2960 C   0  0  0  0  0  1  0  0  0  0  0  0
  160.3540  201.8050  145.6360 C   0  0  0  0  0  1  0  0  0  0  0  0
  1 19  1  0  0  0  0
  1  8  2  0  0  0  0
  2 13  1  0  0  0  0
  3  7  1  0  0  0  0
  4  6  2  0  0  0  0
  4  5  1  0  0  0  0
  7  8  1  0  0  0  0
  7  9  1  1  0  0  0
  8  4  1  0  0  0  0
  9  5  1  0  0  0  0
 10  2  1  0  0  0  0
 11 16  1  6  0  0  0
 11 10  1  0  0  0  0
 11 12  1  0  0  0  0
 12 14  1  0  0  0  0
 13 15  2  0  0  0  0
 13  3  1  0  0  0  0
 14 15  1  0  0  0  0
 15  1  1  0  0  0  0
 17 16  1  0  0  0  0
 18 16  2  0  0  0  0
 20 19  1  0  0  0  0
 21 20  1  0  0  0  0
 22 31  1  0  0  0  0
 23 30  1  0  0  0  0
 24 25  2  0  0  0  0
 25 26  1  0  0  0  0
 26 22  2  0  0  0  0
 27 28  1  0  0  0  0
 28 26  1  0  0  0  0
 28 23  2  0  0  0  0
 29 24  1  0  0  0  0
 29 27  2  0  0  0  0
 30 31  2  0  0  0  0
 30 21  1  0  0  0  0
 32 33  1  0  0  0  0
 32 24  1  0  0  0  0
 34 32  1  0  0  0  0
M  END
>  <MODEL>
7

>  <REMARK>
 VINA RESULT:      -7.6      1.133      1.516
  Name = 
  6 active torsions:
  status: ('A' for Active; 'I' for Inactive)
    1  A    between atoms: C_1  and  N_9
    2  A    between atoms: C_3  and  C_25
    3  A    between atoms: C_7  and  N_11
    4  A    between atoms: C_8  and  N_9
    5  A    between atoms: C_8  and  N_18
    6  A    between atoms: N_18  and  C_30
                            x       y       z     vdW  Elec       q    Type
                         _______ _______ _______ _____ _____    ______ ____

>  <TORSDO>
F 6

$$$$
=
 OpenBabel11062409273D

 34 38  0  0  1  0  0  0  0  0999 V2000
  161.6810  205.9960  151.3560 C   0  0  0  0  0  0  0  0  0  0  0  0
  162.7300  208.0490  148.2720 C   0  0  0  0  0  2  0  0  0  0  0  0
  161.7080  205.7960  148.5910 O   0  0  0  0  0  0  0  0  0  0  0  0
  160.8640  203.6020  151.1930 C   0  0  0  0  0  0  0  0  0  0  0  0
  160.6870  202.7710  150.1040 O   0  0  0  0  0  0  0  0  0  0  0  0
  160.7920  203.2130  152.3870 O   0  0  0  0  0  0  0  0  0  0  0  0
  160.7750  204.9760  149.2900 C   0  0  2  0  0  3  0  0  0  0  0  0
  161.0920  204.9550  150.7430 C   0  0  0  0  0  0  0  0  0  0  0  0
  160.8270  203.4970  148.8810 C   0  0  0  0  0  2  0  0  0  0  0  0
  161.8570  209.2960  148.2900 C   0  0  0  0  0  2  0  0  0  0  0  0
  162.2070  210.1940  149.4750 C   0  0  2  0  0  3  0  0  0  0  0  0
  161.7500  209.5950  150.8030 C   0  0  0  0  0  2  0  0  0  0  0  0
  162.1680  206.9910  149.1710 C   0  0  0  0  0  0  0  0  0  0  0  0
  162.6060  208.3960  151.1850 C   0  0  0  0  0  2  0  0  0  0  0  0
  162.1120  207.1460  150.5170 C   0  0  0  0  0  0  0  0  0  0  0  0
  161.5870  211.5370  149.2890 C   0  0  0  0  0  0  0  0  0  0  0  0
  160.8370  212.1150  150.3060 O   0  0  0  0  0  1  0  0  0  0  0  0
  161.7470  212.1510  148.2030 O   0  0  0  0  0  0  0  0  0  0  0  0
  162.0310  205.9790  152.7430 N   0  0  0  0  0  2  0  0  0  0  0  0
  161.0900  206.3200  153.7980 C   0  0  0  0  0  2  0  0  0  0  0  0
  161.5820  207.4720  154.5410 N   0  0  0  0  0  2  0  0  0  0  0  0
  159.6370  209.9380  156.5530 C   0  0  0  0  0  3  0  0  0  0  0  0
  160.2830  209.4600  153.8670 C   0  0  0  0  0  3  0  0  0  0  0  0
  157.8550  212.7410  154.9000 C   0  0  0  0  0  0  0  0  0  0  0  0
  158.3470  211.8800  155.8960 C   0  0  0  0  0  3  0  0  0  0  0  0
  159.1530  210.7910  155.5590 C   0  0  0  0  0  0  0  0  0  0  0  0
  158.9920  211.4010  153.2110 C   0  0  0  0  0  3  0  0  0  0  0  0
  159.4780  210.5510  154.2060 C   0  0  0  0  0  0  0  0  0  0  0  0
  158.1850  212.4890  153.5580 C   0  0  0  0  0  3  0  0  0  0  0  0
  160.7650  208.6010  154.8670 C   0  0  0  0  0  0  0  0  0  0  0  0
  160.4410  208.8460  156.2060 C   0  0  0  0  0  3  0  0  0  0  0  0
  157.0230  213.8650  155.2500 N   0  0  0  0  0  0  0  0  0  0  0  0
  156.1040  214.4510  154.2870 C   0  0  0  0  0  1  0  0  0  0  0  0
  157.0710  214.4530  156.5800 C   0  0  0  0  0  1  0  0  0  0  0  0
  1 19  1  0  0  0  0
  2 10  1  0  0  0  0
  2 13  1  0  0  0  0
  3 13  1  0  0  0  0
  3  7  1  0  0  0  0
  4  6  2  0  0  0  0
  5  4  1  0  0  0  0
  7  9  1  6  0  0  0
  7  8  1  0  0  0  0
  8  4  1  0  0  0  0
  8  1  2  0  0  0  0
  9  5  1  0  0  0  0
 10 11  1  0  0  0  0
 11 16  1  6  0  0  0
 11 12  1  0  0  0  0
 12 14  1  0  0  0  0
 13 15  2  0  0  0  0
 15 14  1  0  0  0  0
 15  1  1  0  0  0  0
 16 17  1  0  0  0  0
 18 16  2  0  0  0  0
 19 20  1  0  0  0  0
 20 21  1  0  0  0  0
 21 30  1  0  0  0  0
 23 28  2  0  0  0  0
 23 30  1  0  0  0  0
 24 32  1  0  0  0  0
 24 25  2  0  0  0  0
 26 25  1  0  0  0  0
 26 22  2  0  0  0  0
 27 29  2  0  0  0  0
 27 28  1  0  0  0  0
 28 26  1  0  0  0  0
 29 24  1  0  0  0  0
 30 31  2  0  0  0  0
 31 22  1  0  0  0  0
 32 34  1  0  0  0  0
 33 32  1  0  0  0  0
M  END
>  <MODEL>
8

>  <REMARK>
 VINA RESULT:      -7.4      3.107      7.843
  Name = 
  6 active torsions:
  status: ('A' for Active; 'I' for Inactive)
    1  A    between atoms: C_1  and  N_9
    2  A    between atoms: C_3  and  C_25
    3  A    between atoms: C_7  and  N_11
    4  A    between atoms: C_8  and  N_9
    5  A    between atoms: C_8  and  N_18
    6  A    between atoms: N_18  and  C_30
                            x       y       z     vdW  Elec       q    Type
                         _______ _______ _______ _____ _____    ______ ____

>  <TORSDO>
F 6

$$$$
=
 OpenBabel11062409273D

 34 38  0  0  1  0  0  0  0  0999 V2000
  160.7190  212.0940  151.0930 C   0  0  0  0  0  0  0  0  0  0  0  0
  158.3170  214.4520  152.9620 C   0  0  0  0  0  2  0  0  0  0  0  0
  159.2400  214.3950  150.6450 O   0  0  0  0  0  0  0  0  0  0  0  0
  161.5590  212.5720  148.7490 C   0  0  0  0  0  0  0  0  0  0  0  0
  161.3090  213.6220  147.8870 O   0  0  0  0  0  0  0  0  0  0  0  0
  162.4420  211.6980  148.5480 O   0  0  0  0  0  0  0  0  0  0  0  0
  159.5980  213.6220  149.5010 C   0  0  2  0  0  3  0  0  0  0  0  0
  160.6360  212.6200  149.8590 C   0  0  0  0  0  0  0  0  0  0  0  0
  160.2520  214.4460  148.3820 C   0  0  0  0  0  2  0  0  0  0  0  0
  157.1060  213.6040  153.3260 C   0  0  0  0  0  2  0  0  0  0  0  0
  157.4710  212.5430  154.3610 C   0  0  2  0  0  3  0  0  0  0  0  0
  158.3360  211.4350  153.7670 C   0  0  0  0  0  2  0  0  0  0  0  0
  159.1410  213.7820  151.9060 C   0  0  0  0  0  0  0  0  0  0  0  0
  159.7430  211.9370  153.4730 C   0  0  0  0  0  2  0  0  0  0  0  0
  159.8030  212.6210  152.1380 C   0  0  0  0  0  0  0  0  0  0  0  0
  156.2290  211.9560  154.9390 C   0  0  0  0  0  0  0  0  0  0  0  0
  155.5370  212.6190  155.9460 O   0  0  0  0  0  1  0  0  0  0  0  0
  155.8020  210.8530  154.5100 O   0  0  0  0  0  0  0  0  0  0  0  0
  161.7360  211.1590  151.4670 N   0  0  0  0  0  2  0  0  0  0  0  0
  161.4530  209.7660  151.7720 C   0  0  0  0  0  2  0  0  0  0  0  0
  162.3760  208.9070  151.0440 N   0  0  0  0  0  2  0  0  0  0  0  0
  161.4020  206.2750  148.5880 C   0  0  0  0  0  3  0  0  0  0  0  0
  161.8670  206.5100  151.3420 C   0  0  0  0  0  3  0  0  0  0  0  0
  160.7380  202.7990  149.7040 C   0  0  0  0  0  0  0  0  0  0  0  0
  160.8850  203.9250  148.8770 C   0  0  0  0  0  3  0  0  0  0  0  0
  161.2600  205.1580  149.4150 C   0  0  0  0  0  0  0  0  0  0  0  0
  161.3490  204.1620  151.6300 C   0  0  0  0  0  3  0  0  0  0  0  0
  161.4940  205.2760  150.8030 C   0  0  0  0  0  0  0  0  0  0  0  0
  160.9730  202.9320  151.0830 C   0  0  0  0  0  3  0  0  0  0  0  0
  162.0060  207.6320  150.5100 C   0  0  0  0  0  0  0  0  0  0  0  0
  161.7740  207.5070  149.1360 C   0  0  0  0  0  3  0  0  0  0  0  0
  160.3510  201.5280  149.1470 N   0  0  0  0  0  0  0  0  0  0  0  0
  159.1110  200.8770  149.5430 C   0  0  0  0  0  1  0  0  0  0  0  0
  161.1850  200.8490  148.1670 C   0  0  0  0  0  1  0  0  0  0  0  0
  1 19  1  0  0  0  0
  1 15  1  0  0  0  0
  2 10  1  0  0  0  0
  3 13  1  0  0  0  0
  4  8  1  0  0  0  0
  5  9  1  0  0  0  0
  5  4  1  0  0  0  0
  6  4  2  0  0  0  0
  7  9  1  6  0  0  0
  7  8  1  0  0  0  0
  7  3  1  0  0  0  0
  8  1  2  0  0  0  0
 10 11  1  0  0  0  0
 11 16  1  6  0  0  0
 12 11  1  0  0  0  0
 13 15  2  0  0  0  0
 13  2  1  0  0  0  0
 14 12  1  0  0  0  0
 15 14  1  0  0  0  0
 16 17  1  0  0  0  0
 18 16  2  0  0  0  0
 19 20  1  0  0  0  0
 21 20  1  0  0  0  0
 22 31  2  0  0  0  0
 22 26  1  0  0  0  0
 24 29  1  0  0  0  0
 25 26  1  0  0  0  0
 25 24  2  0  0  0  0
 26 28  2  0  0  0  0
 28 23  1  0  0  0  0
 28 27  1  0  0  0  0
 29 27  2  0  0  0  0
 30 21  1  0  0  0  0
 30 23  2  0  0  0  0
 31 30  1  0  0  0  0
 32 33  1  0  0  0  0
 32 24  1  0  0  0  0
 34 32  1  0  0  0  0
M  END
>  <MODEL>
9

>  <REMARK>
 VINA RESULT:      -7.1      2.661      5.463
  Name = 
  6 active torsions:
  status: ('A' for Active; 'I' for Inactive)
    1  A    between atoms: C_1  and  N_9
    2  A    between atoms: C_3  and  C_25
    3  A    between atoms: C_7  and  N_11
    4  A    between atoms: C_8  and  N_9
    5  A    between atoms: C_8  and  N_18
    6  A    between atoms: N_18  and  C_30
                            x       y       z     vdW  Elec       q    Type
                         _______ _______ _______ _____ _____    ______ ____

>  <TORSDO>
F 6

$$$$
