=
 OpenBabel11062410083D

 43 50  0  0  1  0  0  0  0  0999 V2000
  160.7460  208.8320  152.3150 N   0  0  0  0  0  0  0  0  0  0  0  0
  161.5380  204.0760  146.7290 C   0  0  0  0  0  0  0  0  0  0  0  0
  161.2390  207.6310  150.3270 N   0  0  0  0  0  0  0  0  0  0  0  0
  161.7850  210.1070  149.0360 C   0  0  1  0  0  3  0  0  0  0  0  0
  161.1110  205.2760  148.8170 C   0  0  0  0  0  0  0  0  0  0  0  0
  162.1090  205.1320  146.1430 C   0  0  0  0  0  3  0  0  0  0  0  0
  161.4030  202.8050  145.9720 C   0  0  0  0  0  1  0  0  0  0  0  0
  161.7190  206.4970  148.2350 C   0  0  0  0  0  0  0  0  0  0  0  0
  161.0300  204.1520  148.1080 C   0  0  0  0  0  3  0  0  0  0  0  0
  162.2920  206.4560  146.8350 C   0  0  0  0  0  2  0  0  0  0  0  0
  162.4110  208.8640  148.4220 C   0  0  0  0  0  2  0  0  0  0  0  0
  161.7620  207.6240  148.9730 C   0  0  0  0  0  0  0  0  0  0  0  0
  160.6570  206.4380  150.8880 C   0  0  0  0  0  3  0  0  0  0  0  0
  161.2510  208.8430  151.1110 C   0  0  0  0  0  0  0  0  0  0  0  0
  161.9260  210.0670  150.5500 C   0  0  0  0  0  2  0  0  0  0  0  0
  160.5890  205.3100  150.1850 C   0  0  0  0  0  3  0  0  0  0  0  0
  162.4200  211.3390  148.4820 C   0  0  0  0  0  0  0  0  0  0  0  0
  161.1280  214.4520  146.6720 N   0  0  0  0  0  2  0  0  0  0  0  0
  161.5900  212.3230  147.8560 N   0  0  0  0  0  2  0  0  0  0  0  0
  163.6690  211.4950  148.5530 O   0  0  0  0  0  0  0  0  0  0  0  0
  162.0490  213.5660  147.3090 C   0  0  0  0  0  0  0  0  0  0  0  0
  163.2620  213.8950  147.3870 O   0  0  0  0  0  0  0  0  0  0  0  0
  159.7190  214.1230  146.5010 C   0  0  2  0  0  3  0  0  0  0  0  0
  159.2000  211.9000  145.4530 N   0  0  0  0  0  2  0  0  0  0  0  0
  160.1320  213.7330  143.9180 C   0  0  2  0  0  3  0  0  0  0  0  0
  159.1730  213.0720  147.8740 S   0  0  0  0  0  0  0  0  0  0  0  0
  159.5300  213.3010  145.2490 C   0  0  2  0  0  0  0  0  0  0  0  0
  158.6490  213.9580  144.2140 C   0  0  0  0  0  2  0  0  0  0  0  0
  158.4820  211.8440  146.7180 C   0  0  0  0  0  2  0  0  0  0  0  0
  160.2970  212.5920  143.0150 N   0  0  2  0  0  0  0  0  0  0  0  0
  160.4830  214.1340  141.0870 C   0  0  0  0  0  2  0  0  0  0  0  0
  162.1710  212.5730  141.5440 C   0  0  0  0  0  2  0  0  0  0  0  0
  160.9930  212.8030  140.7240 N   0  0  1  0  0  0  0  0  0  0  0  0
  161.7090  212.2530  142.9430 C   0  0  0  0  0  2  0  0  0  0  0  0
  159.8500  212.9290  141.6520 C   0  0  1  0  0  3  0  0  0  0  0  0
  159.7870  212.0470  154.0320 C   0  0  0  0  0  3  0  0  0  0  0  0
  160.4790  211.9070  155.2450 C   0  0  0  0  0  0  0  0  0  0  0  0
  161.3260  209.7630  154.4910 C   0  0  0  0  0  3  0  0  0  0  0  0
  159.8670  211.0490  153.0570 C   0  0  0  0  0  3  0  0  0  0  0  0
  160.6460  209.9000  153.2760 C   0  0  0  0  0  0  0  0  0  0  0  0
  161.2460  210.7600  155.4680 C   0  0  0  0  0  3  0  0  0  0  0  0
  160.4210  212.8880  156.2390 O   0  0  0  0  0  0  0  0  0  0  0  0
  159.6950  214.0990  156.0800 C   0  0  0  0  0  1  0  0  0  0  0  0
  1 40  1  0  0  0  0
  2  9  1  0  0  0  0
  3 13  1  0  0  0  0
  3 14  1  0  0  0  0
  4 17  1  6  0  0  0
  4 15  1  0  0  0  0
  5 16  1  0  0  0  0
  6  2  2  0  0  0  0
  6 10  1  0  0  0  0
  7  2  1  0  0  0  0
  8  5  1  0  0  0  0
  8 12  2  0  0  0  0
  9  5  2  0  0  0  0
 10  8  1  0  0  0  0
 11 12  1  0  0  0  0
 11  4  1  0  0  0  0
 12  3  1  0  0  0  0
 14  1  2  0  0  0  0
 15 14  1  0  0  0  0
 16 13  2  0  0  0  0
 17 20  2  0  0  0  0
 18 21  1  0  0  0  0
 19 17  1  0  0  0  0
 21 22  2  0  0  0  0
 21 19  1  0  0  0  0
 23 18  1  1  0  0  0
 23 26  1  0  0  0  0
 24 29  1  0  0  0  0
 25 28  1  6  0  0  0
 25 27  1  0  0  0  0
 27 28  1  6  0  0  0
 27 24  1  0  0  0  0
 27 23  1  0  0  0  0
 29 26  1  0  0  0  0
 30 34  1  6  0  0  0
 30 25  1  0  0  0  0
 32 34  1  0  0  0  0
 33 31  1  1  0  0  0
 33 32  1  0  0  0  0
 33 35  1  0  0  0  0
 35 31  1  1  0  0  0
 35 30  1  0  0  0  0
 36 37  1  0  0  0  0
 37 41  2  0  0  0  0
 37 42  1  0  0  0  0
 38 41  1  0  0  0  0
 39 40  1  0  0  0  0
 39 36  2  0  0  0  0
 40 38  2  0  0  0  0
 43 42  1  0  0  0  0
M  END
>  <MODEL>
1

>  <REMARK>
 VINA RESULT:      -7.9      0.000      0.000
  Name = 
  5 active torsions:
  status: ('A' for Active; 'I' for Inactive)
    1  A    between atoms: N_1  and  C_35
    2  A    between atoms: C_2  and  C_13
    3  A    between atoms: N_3  and  C_4
    4  A    between atoms: N_11  and  C_14
    5  A    between atoms: C_19  and  O_25
                            x       y       z     vdW  Elec       q    Type
                         _______ _______ _______ _____ _____    ______ ____

>  <TORSDO>
F 5

$$$$
=
 OpenBabel11062410083D

 43 50  0  0  1  0  0  0  0  0999 V2000
  161.0090  207.7490  152.6930 N   0  0  0  0  0  0  0  0  0  0  0  0
  161.2930  203.8110  146.4590 C   0  0  0  0  0  0  0  0  0  0  0  0
  161.2840  206.8520  150.5120 N   0  0  0  0  0  0  0  0  0  0  0  0
  161.4670  209.5070  149.5060 C   0  0  1  0  0  3  0  0  0  0  0  0
  161.0970  204.7010  148.7290 C   0  0  0  0  0  0  0  0  0  0  0  0
  161.6990  204.9770  145.9490 C   0  0  0  0  0  3  0  0  0  0  0  0
  161.1350  202.6370  145.5620 C   0  0  0  0  0  1  0  0  0  0  0  0
  161.5290  206.0320  148.2400 C   0  0  0  0  0  0  0  0  0  0  0  0
  160.9890  203.6710  147.8920 C   0  0  0  0  0  3  0  0  0  0  0  0
  161.8920  206.2160  146.7830 C   0  0  0  0  0  2  0  0  0  0  0  0
  162.0790  208.4090  148.6500 C   0  0  0  0  0  2  0  0  0  0  0  0
  161.6030  207.0580  149.1110 C   0  0  0  0  0  0  0  0  0  0  0  0
  160.8730  205.5520  150.9800 C   0  0  0  0  0  3  0  0  0  0  0  0
  161.3300  207.9540  151.4440 C   0  0  0  0  0  0  0  0  0  0  0  0
  161.8310  209.2910  150.9670 C   0  0  0  0  0  2  0  0  0  0  0  0
  160.7790  204.5190  150.1470 C   0  0  0  0  0  3  0  0  0  0  0  0
  161.9290  210.8480  149.0420 C   0  0  0  0  0  0  0  0  0  0  0  0
  160.8200  214.4510  149.6940 N   0  0  0  0  0  2  0  0  0  0  0  0
  161.2510  212.0160  149.5170 N   0  0  0  0  0  2  0  0  0  0  0  0
  162.8910  210.9420  148.2330 O   0  0  0  0  0  0  0  0  0  0  0  0
  161.5990  213.3670  149.1880 C   0  0  0  0  0  0  0  0  0  0  0  0
  162.5950  213.6150  148.4580 O   0  0  0  0  0  0  0  0  0  0  0  0
  159.6290  214.2440  150.5070 C   0  0  2  0  0  3  0  0  0  0  0  0
  158.3070  212.1570  150.0570 N   0  0  0  0  0  2  0  0  0  0  0  0
  158.1760  214.0300  148.3080 C   0  0  2  0  0  3  0  0  0  0  0  0
  160.0220  213.1320  151.8840 S   0  0  0  0  0  0  0  0  0  0  0  0
  158.5670  213.5400  149.6960 C   0  0  2  0  0  0  0  0  0  0  0  0
  157.3000  214.3420  149.5210 C   0  0  0  0  0  2  0  0  0  0  0  0
  158.6100  212.0560  151.4770 C   0  0  0  0  0  2  0  0  0  0  0  0
  157.5730  212.9540  147.5170 N   0  0  2  0  0  0  0  0  0  0  0  0
  157.4630  214.4520  145.5490 C   0  0  0  0  0  2  0  0  0  0  0  0
  158.5700  212.3900  145.4270 C   0  0  0  0  0  2  0  0  0  0  0  0
  157.3110  213.0510  145.1300 N   0  0  1  0  0  0  0  0  0  0  0  0
  158.6360  212.1640  146.9170 C   0  0  0  0  0  2  0  0  0  0  0  0
  156.7530  213.5010  146.4220 C   0  0  1  0  0  3  0  0  0  0  0  0
  160.4920  210.8520  154.7680 C   0  0  0  0  0  3  0  0  0  0  0  0
  160.9120  210.3930  156.0260 C   0  0  0  0  0  0  0  0  0  0  0  0
  161.3870  208.2230  155.0530 C   0  0  0  0  0  3  0  0  0  0  0  0
  160.5210  209.9990  153.6620 C   0  0  0  0  0  3  0  0  0  0  0  0
  160.9780  208.6760  153.7940 C   0  0  0  0  0  0  0  0  0  0  0  0
  161.3570  209.0750  156.1610 C   0  0  0  0  0  3  0  0  0  0  0  0
  160.8980  211.2220  157.1510 O   0  0  0  0  0  0  0  0  0  0  0  0
  160.4090  212.5560  157.1150 C   0  0  0  0  0  1  0  0  0  0  0  0
  1 40  1  0  0  0  0
  2  9  1  0  0  0  0
  3 13  1  0  0  0  0
  3 14  1  0  0  0  0
  4 17  1  6  0  0  0
  4 15  1  0  0  0  0
  5 16  1  0  0  0  0
  6  2  2  0  0  0  0
  6 10  1  0  0  0  0
  7  2  1  0  0  0  0
  8  5  1  0  0  0  0
  8 12  2  0  0  0  0
  9  5  2  0  0  0  0
 10  8  1  0  0  0  0
 11 12  1  0  0  0  0
 11  4  1  0  0  0  0
 12  3  1  0  0  0  0
 14  1  2  0  0  0  0
 15 14  1  0  0  0  0
 16 13  2  0  0  0  0
 17 19  1  0  0  0  0
 20 17  2  0  0  0  0
 21 19  1  0  0  0  0
 21 18  1  0  0  0  0
 22 21  2  0  0  0  0
 23 18  1  6  0  0  0
 23 26  1  0  0  0  0
 24 29  1  0  0  0  0
 25 28  1  1  0  0  0
 25 27  1  0  0  0  0
 27 28  1  1  0  0  0
 27 24  1  0  0  0  0
 27 23  1  0  0  0  0
 29 26  1  0  0  0  0
 30 34  1  6  0  0  0
 30 25  1  0  0  0  0
 32 34  1  0  0  0  0
 33 32  1  1  0  0  0
 33 31  1  0  0  0  0
 33 35  1  0  0  0  0
 35 31  1  6  0  0  0
 35 30  1  0  0  0  0
 36 37  1  0  0  0  0
 37 41  2  0  0  0  0
 37 42  1  0  0  0  0
 38 41  1  0  0  0  0
 39 40  1  0  0  0  0
 39 36  2  0  0  0  0
 40 38  2  0  0  0  0
 43 42  1  0  0  0  0
M  END
>  <MODEL>
2

>  <REMARK>
 VINA RESULT:      -6.8      2.233      2.968
  Name = 
  5 active torsions:
  status: ('A' for Active; 'I' for Inactive)
    1  A    between atoms: N_1  and  C_35
    2  A    between atoms: C_2  and  C_13
    3  A    between atoms: N_3  and  C_4
    4  A    between atoms: N_11  and  C_14
    5  A    between atoms: C_19  and  O_25
                            x       y       z     vdW  Elec       q    Type
                         _______ _______ _______ _____ _____    ______ ____

>  <TORSDO>
F 5

$$$$
=
 OpenBabel11062410083D

 43 50  0  0  1  0  0  0  0  0999 V2000
  161.5610  208.2210  147.9620 N   0  0  0  0  0  0  0  0  0  0  0  0
  161.2800  200.8660  147.4340 C   0  0  0  0  0  0  0  0  0  0  0  0
  161.3580  205.8700  148.2270 N   0  0  0  0  0  0  0  0  0  0  0  0
  161.6510  206.2190  151.0350 C   0  0  1  0  0  3  0  0  0  0  0  0
  161.3960  203.2910  147.1360 C   0  0  2  0  0  3  0  0  0  0  0  0
  161.0930  200.9540  148.7540 C   0  0  0  0  0  3  0  0  0  0  0  0
  161.3480  199.5260  146.7940 C   0  0  0  0  0  1  0  0  0  0  0  0
  161.2050  203.4750  148.5950 C   0  0  0  0  0  0  0  0  0  0  0  0
  161.4290  202.0710  146.6030 C   0  0  0  0  0  3  0  0  0  0  0  0
  161.0060  202.2680  149.4850 C   0  0  0  0  0  3  0  0  0  0  0  0
  160.9680  204.9410  150.5730 C   0  0  0  0  0  2  0  0  0  0  0  0
  161.2000  204.7240  149.1030 C   0  0  0  0  0  0  0  0  0  0  0  0
  161.5340  205.6820  146.8090 C   0  0  0  0  0  3  0  0  0  0  0  0
  161.3880  207.2080  148.7680 C   0  0  0  0  0  0  0  0  0  0  0  0
  161.1290  207.4040  150.2380 C   0  0  0  0  0  2  0  0  0  0  0  0
  161.5540  204.4640  146.2730 C   0  0  0  0  0  3  0  0  0  0  0  0
  161.4310  206.4290  152.4960 C   0  0  0  0  0  0  0  0  0  0  0  0
  159.8310  209.1900  154.6060 N   0  0  0  0  0  2  0  0  0  0  0  0
  160.7700  207.6220  152.9310 N   0  0  0  0  0  2  0  0  0  0  0  0
  161.8360  205.5730  153.3290 O   0  0  0  0  0  0  0  0  0  0  0  0
  160.4590  207.9470  154.2920 C   0  0  0  0  0  0  0  0  0  0  0  0
  160.7270  207.1430  155.2230 O   0  0  0  0  0  0  0  0  0  0  0  0
  159.5300  210.1920  153.5920 C   0  0  2  0  0  3  0  0  0  0  0  0
  159.5610  212.5910  154.3330 N   0  0  0  0  0  2  0  0  0  0  0  0
  157.5920  211.1440  155.1190 C   0  0  2  0  0  3  0  0  0  0  0  0
  161.0780  210.8680  152.9320 S   0  0  0  0  0  0  0  0  0  0  0  0
  158.8020  211.3570  154.2170 C   0  0  2  0  0  0  0  0  0  0  0  0
  157.4150  211.5790  153.6640 C   0  0  0  0  0  2  0  0  0  0  0  0
  160.5130  212.5740  153.2320 C   0  0  0  0  0  2  0  0  0  0  0  0
  157.3900  212.2870  156.0130 N   0  0  2  0  0  0  0  0  0  0  0  0
  155.2100  212.7530  154.9380 C   0  0  0  0  0  2  0  0  0  0  0  0
  155.3590  212.4100  157.2520 C   0  0  0  0  0  2  0  0  0  0  0  0
  155.2950  213.4440  156.2330 N   0  0  1  0  0  0  0  0  0  0  0  0
  156.7460  211.8190  157.2300 C   0  0  0  0  0  2  0  0  0  0  0  0
  156.5030  213.2880  155.3960 C   0  0  1  0  0  3  0  0  0  0  0  0
  162.3470  211.5130  149.6190 C   0  0  0  0  0  3  0  0  0  0  0  0
  161.7320  212.4040  148.7250 C   0  0  0  0  0  0  0  0  0  0  0  0
  161.0220  210.5220  147.3700 C   0  0  0  0  0  3  0  0  0  0  0  0
  162.2970  210.1370  149.3860 C   0  0  0  0  0  3  0  0  0  0  0  0
  161.6260  209.6280  148.2610 C   0  0  0  0  0  0  0  0  0  0  0  0
  161.0730  211.9000  147.6010 C   0  0  0  0  0  3  0  0  0  0  0  0
  161.7620  213.7860  148.9300 O   0  0  0  0  0  0  0  0  0  0  0  0
  160.8510  214.4530  149.7930 C   0  0  0  0  0  1  0  0  0  0  0  0
  1 40  1  0  0  0  0
  1 14  2  0  0  0  0
  2  6  1  0  0  0  0
  3 14  1  0  0  0  0
  3 12  1  0  0  0  0
  4 17  1  1  0  0  0
  5 16  1  1  0  0  0
  5  8  1  0  0  0  0
  6 10  2  0  0  0  0
  7  2  1  0  0  0  0
  8 12  2  0  0  0  0
  8 10  1  0  0  0  0
  9  5  1  0  0  0  0
  9  2  2  0  0  0  0
 11  4  1  0  0  0  0
 12 11  1  0  0  0  0
 13  3  1  0  0  0  0
 14 15  1  0  0  0  0
 15  4  1  0  0  0  0
 16 13  2  0  0  0  0
 17 19  1  0  0  0  0
 17 20  2  0  0  0  0
 19 21  1  0  0  0  0
 21 18  1  0  0  0  0
 21 22  2  0  0  0  0
 23 27  1  0  0  0  0
 23 18  1  1  0  0  0
 25 28  1  6  0  0  0
 25 30  1  0  0  0  0
 26 29  1  0  0  0  0
 26 23  1  0  0  0  0
 27 28  1  6  0  0  0
 27 24  1  0  0  0  0
 27 25  1  0  0  0  0
 29 24  1  0  0  0  0
 30 34  1  1  0  0  0
 33 31  1  6  0  0  0
 33 32  1  0  0  0  0
 34 32  1  0  0  0  0
 35 31  1  6  0  0  0
 35 30  1  0  0  0  0
 35 33  1  0  0  0  0
 37 42  1  0  0  0  0
 37 36  2  0  0  0  0
 38 41  2  0  0  0  0
 38 40  1  0  0  0  0
 39 36  1  0  0  0  0
 40 39  2  0  0  0  0
 41 37  1  0  0  0  0
 42 43  1  0  0  0  0
M  END
>  <MODEL>
3

>  <REMARK>
 VINA RESULT:      -6.6      3.578      8.261
  Name = 
  5 active torsions:
  status: ('A' for Active; 'I' for Inactive)
    1  A    between atoms: N_1  and  C_35
    2  A    between atoms: C_2  and  C_13
    3  A    between atoms: N_3  and  C_4
    4  A    between atoms: N_11  and  C_14
    5  A    between atoms: C_19  and  O_25
                            x       y       z     vdW  Elec       q    Type
                         _______ _______ _______ _____ _____    ______ ____

>  <TORSDO>
F 5

$$$$
