=
 OpenBabel11062410563D

 32 33  0  0  1  0  0  0  0  0999 V2000
  161.7420  208.6500  150.7310 C   0  0  2  0  0  3  0  0  0  0  0  0
  161.8710  208.9810  149.2310 C   0  0  1  0  0  3  0  0  0  0  0  0
  162.5600  210.1890  148.9770 O   0  0  0  0  0  0  0  0  0  0  0  0
  161.6960  211.0790  148.3190 C   0  0  0  0  0  1  0  0  0  0  0  0
  162.4040  207.8190  148.3900 C   0  0  0  0  0  2  0  0  0  0  0  0
  161.2560  207.1560  147.6530 C   0  0  0  0  0  2  0  0  0  0  0  0
  161.7890  206.2180  146.5860 C   0  0  0  0  0  2  0  0  0  0  0  0
  160.7170  205.9310  145.5520 C   0  0  0  0  0  2  0  0  0  0  0  0
  161.3350  205.2150  144.3710 C   0  0  0  0  0  1  0  0  0  0  0  0
  162.3980  209.7110  151.6290 C   0  0  0  0  0  2  0  0  0  0  0  0
  161.4390  210.2970  152.6740 C   0  0  1  0  0  3  0  0  0  0  0  0
  159.3010  210.9240  153.2040 C   0  0  0  0  0  1  0  0  0  0  0  0
  160.1020  210.3200  152.2210 O   0  0  0  0  0  0  0  0  0  0  0  0
  161.5590  209.6470  153.9120 O   0  0  0  0  0  0  0  0  0  0  0  0
  162.2210  210.4920  154.6790 O   0  0  0  0  0  0  0  0  0  0  0  0
  161.5230  208.5740  155.9210 C   0  0  0  0  0  3  0  0  0  0  0  0
  160.9490  210.7400  156.6390 C   0  0  0  0  0  0  0  0  0  0  0  0
  159.8190  209.9360  156.8940 N   0  0  0  0  0  0  0  0  0  0  0  0
  160.0530  208.6120  156.3560 C   0  0  0  0  0  3  0  0  0  0  0  0
  161.0540  211.9800  157.0930 C   0  0  0  0  0  1  0  0  0  0  0  0
  162.0500  210.0080  155.9790 C   0  0  2  0  0  3  0  0  0  0  0  0
  162.2870  207.2570  151.0250 C   0  0  0  0  0  2  0  0  0  0  0  0
  161.2040  206.3750  151.6210 C   0  0  0  0  0  2  0  0  0  0  0  0
  160.6440  205.4380  150.5630 C   0  0  0  0  0  2  0  0  0  0  0  0
  160.5510  204.0070  151.0790 C   0  0  2  0  0  3  0  0  0  0  0  0
  161.0890  203.9430  152.5030 C   0  0  0  0  0  1  0  0  0  0  0  0
  161.2370  203.0220  150.1170 C   0  0  1  0  0  3  0  0  0  0  0  0
  160.3840  201.4160  149.9990 S   0  0  0  0  0  0  0  0  0  0  0  0
  160.2910  202.1240  148.3220 C   0  0  1  0  0  3  0  0  0  0  0  0
  161.0300  203.4020  148.6650 C   0  0  0  0  0  2  0  0  0  0  0  0
  161.1230  201.3000  147.3560 C   0  0  0  0  0  2  0  0  0  0  0  0
  160.5520  201.5720  145.6520 S   0  0  0  0  0  1  0  0  0  0  0  0
  1 22  1  6  0  0  0
  1 10  1  0  0  0  0
  2  5  1  6  0  0  0
  2  1  1  0  0  0  0
  3  2  1  0  0  0  0
  4  3  1  0  0  0  0
  6  5  1  0  0  0  0
  7  6  1  0  0  0  0
  8  7  1  0  0  0  0
  9  8  1  0  0  0  0
 11 10  1  6  0  0  0
 11 14  1  0  0  0  0
 13 11  1  0  0  0  0
 13 12  1  0  0  0  0
 14 15  1  0  0  0  0
 16 21  1  0  0  0  0
 16 19  2  0  0  0  0
 17 18  2  0  0  0  0
 17 20  1  0  0  0  0
 19 18  1  0  0  0  0
 21 15  1  6  0  0  0
 21 17  1  0  0  0  0
 22 23  1  0  0  0  0
 24 25  1  0  0  0  0
 24 23  1  0  0  0  0
 25 26  1  1  0  0  0
 27 25  1  1  0  0  0
 28 27  1  0  0  0  0
 29 31  1  6  0  0  0
 29 30  1  0  0  0  0
 29 28  1  0  0  0  0
 30 27  1  0  0  0  0
 32 31  1  0  0  0  0
M  END
>  <MODEL>
1

>  <REMARK>
 VINA RESULT:      -6.2      0.000      0.000
  Name = 
  18 active torsions:
  status: ('A' for Active; 'I' for Inactive)
    1  A    between atoms: C_1  and  C_20
    2  A    between atoms: C_2  and  C_9
    3  A    between atoms: C_2  and  C_23
    4  A    between atoms: O_3  and  C_14
    5  A    between atoms: C_4  and  C_5
    6  A    between atoms: C_4  and  C_15
    7  A    between atoms: C_8  and  C_23
    8  A    between atoms: C_8  and  C_28
    9  A    between atoms: C_9  and  C_10
   10  A    between atoms: C_13  and  C_28
   11  A    between atoms: C_13  and  C_31
   12  A    between atoms: C_14  and  C_26
   13  A    between atoms: C_14  and  C_28
   14  A    between atoms: C_15  and  C_26
   15  A    between atoms: O_16  and  O_27
   16  A    between atoms: O_16  and  C_31
   17  A    between atoms: O_27  and  C_32
   18  A    between atoms: O_29  and  C_31
                            x       y       z     vdW  Elec       q    Type
                         _______ _______ _______ _____ _____    ______ ____

>  <TORSDO>
F 18

$$$$
=
 OpenBabel11062410563D

 32 33  0  0  1  0  0  0  0  0999 V2000
  161.6870  207.1330  151.2800 C   0  0  2  0  0  3  0  0  0  0  0  0
  162.0460  208.1810  150.2090 C   0  0  1  0  0  3  0  0  0  0  0  0
  161.4830  207.9080  148.9410 O   0  0  0  0  0  0  0  0  0  0  0  0
  162.4820  207.3990  148.0970 C   0  0  0  0  0  1  0  0  0  0  0  0
  161.7990  209.6230  150.6570 C   0  0  0  0  0  2  0  0  0  0  0  0
  162.3820  210.5810  149.6340 C   0  0  0  0  0  2  0  0  0  0  0  0
  161.5870  211.8720  149.6100 C   0  0  0  0  0  2  0  0  0  0  0  0
  161.6490  212.5040  148.2320 C   0  0  0  0  0  2  0  0  0  0  0  0
  163.0920  212.5960  147.7850 C   0  0  0  0  0  1  0  0  0  0  0  0
  160.7590  206.0320  150.7420 C   0  0  0  0  0  2  0  0  0  0  0  0
  161.4670  204.6850  150.5440 C   0  0  1  0  0  3  0  0  0  0  0  0
  160.8450  203.3360  152.2870 C   0  0  0  0  0  1  0  0  0  0  0  0
  161.8890  204.1180  151.7660 O   0  0  0  0  0  0  0  0  0  0  0  0
  160.6850  203.7910  149.7970 O   0  0  0  0  0  0  0  0  0  0  0  0
  160.6750  204.2840  148.5740 O   0  0  0  0  0  0  0  0  0  0  0  0
  161.8400  204.1540  146.4930 C   0  0  0  0  0  3  0  0  0  0  0  0
  161.1100  202.2000  147.5800 C   0  0  0  0  0  0  0  0  0  0  0  0
  160.8980  201.9780  146.2040 N   0  0  0  0  0  0  0  0  0  0  0  0
  161.2040  203.1940  145.4790 C   0  0  0  0  0  3  0  0  0  0  0  0
  160.9910  201.2350  148.4800 C   0  0  0  0  0  1  0  0  0  0  0  0
  161.6390  203.5460  147.8800 C   0  0  2  0  0  3  0  0  0  0  0  0
  161.0990  207.8020  152.5170 C   0  0  0  0  0  2  0  0  0  0  0  0
  161.2170  206.8890  153.7250 C   0  0  0  0  0  2  0  0  0  0  0  0
  160.2410  207.3170  154.8100 C   0  0  0  0  0  2  0  0  0  0  0  0
  160.9660  207.9390  155.9970 C   0  0  2  0  0  3  0  0  0  0  0  0
  160.6520  207.1450  157.2580 C   0  0  0  0  0  1  0  0  0  0  0  0
  160.6490  209.4390  156.1200 C   0  0  1  0  0  3  0  0  0  0  0  0
  161.9160  210.5080  155.3640 S   0  0  0  0  0  0  0  0  0  0  0  0
  160.3960  210.8320  154.4110 C   0  0  1  0  0  3  0  0  0  0  0  0
  159.5290  209.8650  155.1920 C   0  0  0  0  0  2  0  0  0  0  0  0
  159.9160  212.2530  154.6530 C   0  0  0  0  0  2  0  0  0  0  0  0
  159.1620  212.9210  153.1410 S   0  0  0  0  0  1  0  0  0  0  0  0
  1 10  1  6  0  0  0
  1 22  1  0  0  0  0
  2  5  1  1  0  0  0
  2  1  1  0  0  0  0
  3  2  1  0  0  0  0
  4  3  1  0  0  0  0
  6  5  1  0  0  0  0
  7  6  1  0  0  0  0
  8  7  1  0  0  0  0
  9  8  1  0  0  0  0
 11 10  1  1  0  0  0
 11 13  1  0  0  0  0
 13 12  1  0  0  0  0
 14 11  1  0  0  0  0
 15 14  1  0  0  0  0
 16 21  1  0  0  0  0
 17 21  1  0  0  0  0
 17 20  1  0  0  0  0
 18 17  2  0  0  0  0
 19 18  1  0  0  0  0
 19 16  2  0  0  0  0
 21 15  1  1  0  0  0
 22 23  1  0  0  0  0
 23 24  1  0  0  0  0
 24 25  1  0  0  0  0
 25 26  1  1  0  0  0
 27 25  1  6  0  0  0
 28 27  1  0  0  0  0
 29 31  1  1  0  0  0
 29 30  1  0  0  0  0
 29 28  1  0  0  0  0
 30 27  1  0  0  0  0
 32 31  1  0  0  0  0
M  END
>  <MODEL>
2

>  <REMARK>
 VINA RESULT:      -6.2      4.391      8.370
  Name = 
  18 active torsions:
  status: ('A' for Active; 'I' for Inactive)
    1  A    between atoms: C_1  and  C_20
    2  A    between atoms: C_2  and  C_9
    3  A    between atoms: C_2  and  C_23
    4  A    between atoms: O_3  and  C_14
    5  A    between atoms: C_4  and  C_5
    6  A    between atoms: C_4  and  C_15
    7  A    between atoms: C_8  and  C_23
    8  A    between atoms: C_8  and  C_28
    9  A    between atoms: C_9  and  C_10
   10  A    between atoms: C_13  and  C_28
   11  A    between atoms: C_13  and  C_31
   12  A    between atoms: C_14  and  C_26
   13  A    between atoms: C_14  and  C_28
   14  A    between atoms: C_15  and  C_26
   15  A    between atoms: O_16  and  O_27
   16  A    between atoms: O_16  and  C_31
   17  A    between atoms: O_27  and  C_32
   18  A    between atoms: O_29  and  C_31
                            x       y       z     vdW  Elec       q    Type
                         _______ _______ _______ _____ _____    ______ ____

>  <TORSDO>
F 18

$$$$
=
 OpenBabel11062410563D

 32 33  0  0  1  0  0  0  0  0999 V2000
  161.4220  208.3670  151.5570 C   0  0  2  0  0  3  0  0  0  0  0  0
  161.6910  208.9940  150.1750 C   0  0  1  0  0  3  0  0  0  0  0  0
  162.3320  210.2520  150.2400 O   0  0  0  0  0  0  0  0  0  0  0  0
  162.0720  210.9610  149.0570 C   0  0  0  0  0  1  0  0  0  0  0  0
  162.3760  208.0410  149.1930 C   0  0  0  0  0  2  0  0  0  0  0  0
  161.3650  207.5400  148.1800 C   0  0  0  0  0  2  0  0  0  0  0  0
  162.0360  206.6160  147.1800 C   0  0  0  0  0  2  0  0  0  0  0  0
  161.0270  206.1160  146.1640 C   0  0  0  0  0  2  0  0  0  0  0  0
  161.7080  205.1640  145.2050 C   0  0  0  0  0  1  0  0  0  0  0  0
  161.7230  209.3350  152.7130 C   0  0  0  0  0  2  0  0  0  0  0  0
  160.7950  209.1440  153.9200 C   0  0  1  0  0  3  0  0  0  0  0  0
  160.3150  207.4880  155.4270 C   0  0  0  0  0  1  0  0  0  0  0  0
  161.3460  208.2750  154.8860 O   0  0  0  0  0  0  0  0  0  0  0  0
  160.4120  210.3720  154.4820 O   0  0  0  0  0  0  0  0  0  0  0  0
  159.3490  210.7450  153.7960 O   0  0  0  0  0  0  0  0  0  0  0  0
  157.9360  211.0380  155.6990 C   0  0  0  0  0  2  0  0  0  0  0  0
  157.6880  212.4070  153.8020 C   0  0  0  0  0  0  0  0  0  0  0  0
  156.3820  212.1450  154.2620 N   0  0  0  0  0  0  0  0  0  0  0  0
  156.4500  211.1970  155.3560 C   0  0  0  0  0  3  0  0  0  0  0  0
  157.9410  213.3040  152.8610 C   0  0  0  0  0  2  0  0  0  0  0  0
  158.7330  211.7190  154.5880 C   0  0  2  0  0  3  0  0  0  0  0  0
  162.1850  207.0570  151.7150 C   0  0  0  0  0  2  0  0  0  0  0  0
  161.2210  205.8880  151.8210 C   0  0  0  0  0  2  0  0  0  0  0  0
  161.3120  205.0120  150.5810 C   0  0  0  0  0  2  0  0  0  0  0  0
  160.6780  203.6470  150.8150 C   0  0  2  0  0  3  0  0  0  0  0  0
  160.9090  203.2190  152.2590 C   0  0  0  0  0  1  0  0  0  0  0  0
  161.1720  202.6190  149.7830 C   0  0  1  0  0  3  0  0  0  0  0  0
  159.8920  201.4180  149.2920 S   0  0  0  0  0  0  0  0  0  0  0  0
  160.3010  202.3220  147.7630 C   0  0  1  0  0  3  0  0  0  0  0  0
  161.3350  203.2260  148.4040 C   0  0  0  0  0  2  0  0  0  0  0  0
  160.9820  201.3960  146.7700 C   0  0  0  0  0  2  0  0  0  0  0  0
  160.0630  201.3800  145.2030 S   0  0  0  0  0  1  0  0  0  0  0  0
  1 22  1  1  0  0  0
  1 10  1  0  0  0  0
  2  5  1  6  0  0  0
  2  3  1  0  0  0  0
  2  1  1  0  0  0  0
  4  3  1  0  0  0  0
  6  5  1  0  0  0  0
  7  6  1  0  0  0  0
  8  7  1  0  0  0  0
  9  8  1  0  0  0  0
 11 10  1  6  0  0  0
 11 14  1  0  0  0  0
 11 13  1  0  0  0  0
 13 12  1  0  0  0  0
 15 14  1  0  0  0  0
 17 18  1  0  0  0  0
 17 21  1  0  0  0  0
 18 19  2  0  0  0  0
 19 16  1  0  0  0  0
 20 17  2  0  0  0  0
 21 15  1  6  0  0  0
 21 16  1  0  0  0  0
 22 23  1  0  0  0  0
 24 25  1  0  0  0  0
 24 23  1  0  0  0  0
 25 26  1  1  0  0  0
 27 25  1  1  0  0  0
 28 27  1  0  0  0  0
 29 31  1  6  0  0  0
 29 30  1  0  0  0  0
 29 28  1  0  0  0  0
 30 27  1  0  0  0  0
 32 31  1  0  0  0  0
M  END
>  <MODEL>
3

>  <REMARK>
 VINA RESULT:      -6.0      1.643      2.429
  Name = 
  18 active torsions:
  status: ('A' for Active; 'I' for Inactive)
    1  A    between atoms: C_1  and  C_20
    2  A    between atoms: C_2  and  C_9
    3  A    between atoms: C_2  and  C_23
    4  A    between atoms: O_3  and  C_14
    5  A    between atoms: C_4  and  C_5
    6  A    between atoms: C_4  and  C_15
    7  A    between atoms: C_8  and  C_23
    8  A    between atoms: C_8  and  C_28
    9  A    between atoms: C_9  and  C_10
   10  A    between atoms: C_13  and  C_28
   11  A    between atoms: C_13  and  C_31
   12  A    between atoms: C_14  and  C_26
   13  A    between atoms: C_14  and  C_28
   14  A    between atoms: C_15  and  C_26
   15  A    between atoms: O_16  and  O_27
   16  A    between atoms: O_16  and  C_31
   17  A    between atoms: O_27  and  C_32
   18  A    between atoms: O_29  and  C_31
                            x       y       z     vdW  Elec       q    Type
                         _______ _______ _______ _____ _____    ______ ____

>  <TORSDO>
F 18

$$$$
=
 OpenBabel11062410563D

 32 33  0  0  1  0  0  0  0  0999 V2000
  162.2520  207.8330  151.1770 C   0  0  2  0  0  3  0  0  0  0  0  0
  161.9740  208.7750  152.3650 C   0  0  1  0  0  3  0  0  0  0  0  0
  161.9650  210.1440  152.0100 O   0  0  0  0  0  0  0  0  0  0  0  0
  160.7260  210.7000  152.3630 C   0  0  0  0  0  1  0  0  0  0  0  0
  160.7460  208.3790  153.1870 C   0  0  0  0  0  2  0  0  0  0  0  0
  161.1800  207.9460  154.5750 C   0  0  0  0  0  2  0  0  0  0  0  0
  160.0790  207.1460  155.2450 C   0  0  0  0  0  2  0  0  0  0  0  0
  160.2740  207.1360  156.7490 C   0  0  0  0  0  2  0  0  0  0  0  0
  160.4610  208.5550  157.2420 C   0  0  0  0  0  1  0  0  0  0  0  0
  161.1600  207.9070  150.0970 C   0  0  0  0  0  2  0  0  0  0  0  0
  161.7170  208.1410  148.6870 C   0  0  1  0  0  3  0  0  0  0  0  0
  161.7720  210.4220  148.4940 C   0  0  0  0  0  1  0  0  0  0  0  0
  162.5640  209.2700  148.6270 O   0  0  0  0  0  0  0  0  0  0  0  0
  162.3420  206.9930  148.1760 O   0  0  0  0  0  0  0  0  0  0  0  0
  161.3810  206.3210  147.5730 O   0  0  0  0  0  0  0  0  0  0  0  0
  160.4850  206.3140  145.3590 C   0  0  0  0  0  3  0  0  0  0  0  0
  162.3640  205.0030  145.8950 C   0  0  0  0  0  0  0  0  0  0  0  0
  161.5840  204.2210  145.0170 N   0  0  0  0  0  0  0  0  0  0  0  0
  160.3420  204.9160  144.7460 C   0  0  0  0  0  3  0  0  0  0  0  0
  163.5910  204.6570  146.2510 C   0  0  0  0  0  1  0  0  0  0  0  0
  161.7450  206.3040  146.2230 C   0  0  2  0  0  3  0  0  0  0  0  0
  162.4630  206.4020  151.6590 C   0  0  0  0  0  2  0  0  0  0  0  0
  161.1280  205.7090  151.8720 C   0  0  0  0  0  2  0  0  0  0  0  0
  160.7140  204.9610  150.6150 C   0  0  0  0  0  2  0  0  0  0  0  0
  160.5780  203.4660  150.8750 C   0  0  2  0  0  3  0  0  0  0  0  0
  161.0610  203.1480  152.2840 C   0  0  0  0  0  1  0  0  0  0  0  0
  161.2840  202.6440  149.7830 C   0  0  1  0  0  3  0  0  0  0  0  0
  160.6210  200.9550  149.6110 S   0  0  0  0  0  0  0  0  0  0  0  0
  160.2860  201.7590  148.0090 C   0  0  1  0  0  3  0  0  0  0  0  0
  160.8970  203.0930  148.3890 C   0  0  0  0  0  2  0  0  0  0  0  0
  161.1160  201.1150  146.9130 C   0  0  0  0  0  2  0  0  0  0  0  0
  160.1740  201.0760  145.3600 S   0  0  0  0  0  1  0  0  0  0  0  0
  1 10  1  6  0  0  0
  1 22  1  0  0  0  0
  1  2  1  0  0  0  0
  2  5  1  6  0  0  0
  3  4  1  0  0  0  0
  3  2  1  0  0  0  0
  5  6  1  0  0  0  0
  6  7  1  0  0  0  0
  7  8  1  0  0  0  0
  8  9  1  0  0  0  0
 11 10  1  1  0  0  0
 12 13  1  0  0  0  0
 13 11  1  0  0  0  0
 14 11  1  0  0  0  0
 15 14  1  0  0  0  0
 16 21  1  0  0  0  0
 17 21  1  0  0  0  0
 17 20  1  0  0  0  0
 18 17  2  0  0  0  0
 19 18  1  0  0  0  0
 19 16  2  0  0  0  0
 21 15  1  1  0  0  0
 22 23  1  0  0  0  0
 24 25  1  0  0  0  0
 24 23  1  0  0  0  0
 25 26  1  1  0  0  0
 27 25  1  1  0  0  0
 28 27  1  0  0  0  0
 29 31  1  6  0  0  0
 29 30  1  0  0  0  0
 29 28  1  0  0  0  0
 30 27  1  0  0  0  0
 32 31  1  0  0  0  0
M  END
>  <MODEL>
4

>  <REMARK>
 VINA RESULT:      -6.0      2.759      6.996
  Name = 
  18 active torsions:
  status: ('A' for Active; 'I' for Inactive)
    1  A    between atoms: C_1  and  C_20
    2  A    between atoms: C_2  and  C_9
    3  A    between atoms: C_2  and  C_23
    4  A    between atoms: O_3  and  C_14
    5  A    between atoms: C_4  and  C_5
    6  A    between atoms: C_4  and  C_15
    7  A    between atoms: C_8  and  C_23
    8  A    between atoms: C_8  and  C_28
    9  A    between atoms: C_9  and  C_10
   10  A    between atoms: C_13  and  C_28
   11  A    between atoms: C_13  and  C_31
   12  A    between atoms: C_14  and  C_26
   13  A    between atoms: C_14  and  C_28
   14  A    between atoms: C_15  and  C_26
   15  A    between atoms: O_16  and  O_27
   16  A    between atoms: O_16  and  C_31
   17  A    between atoms: O_27  and  C_32
   18  A    between atoms: O_29  and  C_31
                            x       y       z     vdW  Elec       q    Type
                         _______ _______ _______ _____ _____    ______ ____

>  <TORSDO>
F 18

$$$$
=
 OpenBabel11062410563D

 32 33  0  0  1  0  0  0  0  0999 V2000
  161.7070  208.5820  149.7770 C   0  0  2  0  0  3  0  0  0  0  0  0
  161.9910  208.7200  151.2860 C   0  0  1  0  0  3  0  0  0  0  0  0
  162.1970  210.0560  151.7010 O   0  0  0  0  0  0  0  0  0  0  0  0
  161.0090  210.5480  152.2660 C   0  0  0  0  0  1  0  0  0  0  0  0
  160.9810  207.9850  152.1690 C   0  0  0  0  0  2  0  0  0  0  0  0
  161.6540  206.7970  152.8310 C   0  0  0  0  0  2  0  0  0  0  0  0
  160.9350  206.4360  154.1180 C   0  0  0  0  0  2  0  0  0  0  0  0
  160.5420  207.6910  154.8730 C   0  0  0  0  0  2  0  0  0  0  0  0
  159.9170  207.3080  156.1970 C   0  0  0  0  0  1  0  0  0  0  0  0
  161.9250  207.1490  149.2640 C   0  0  0  0  0  2  0  0  0  0  0  0
  160.9530  206.7500  148.1460 C   0  0  1  0  0  3  0  0  0  0  0  0
  160.7980  206.1280  145.9480 C   0  0  0  0  0  1  0  0  0  0  0  0
  161.5180  206.9140  146.8630 O   0  0  0  0  0  0  0  0  0  0  0  0
  160.4480  205.4540  148.3320 O   0  0  0  0  0  0  0  0  0  0  0  0
  161.1830  204.9370  149.2980 O   0  0  0  0  0  0  0  0  0  0  0  0
  160.5490  204.0200  151.4110 C   0  0  0  0  0  2  0  0  0  0  0  0
  160.8570  202.6230  149.5430 C   0  0  0  0  0  0  0  0  0  0  0  0
  161.3800  201.9160  150.6450 N   0  0  0  0  0  0  0  0  0  0  0  0
  161.3420  202.7710  151.8140 C   0  0  0  0  0  3  0  0  0  0  0  0
  160.6890  202.0610  148.3550 C   0  0  0  0  0  2  0  0  0  0  0  0
  160.3660  203.9720  149.8940 C   0  0  2  0  0  3  0  0  0  0  0  0
  162.5240  209.5900  148.9780 C   0  0  0  0  0  2  0  0  0  0  0  0
  161.6430  210.7300  148.4980 C   0  0  0  0  0  2  0  0  0  0  0  0
  162.4960  211.9090  148.0560 C   0  0  0  0  0  2  0  0  0  0  0  0
  161.8500  213.2360  148.4320 C   0  0  2  0  0  3  0  0  0  0  0  0
  160.7180  212.9900  149.4220 C   0  0  0  0  0  1  0  0  0  0  0  0
  161.4130  214.0170  147.1810 C   0  0  1  0  0  3  0  0  0  0  0  0
  162.1850  213.4090  145.6460 S   0  0  0  0  0  0  0  0  0  0  0  0
  160.3970  213.1320  145.4170 C   0  0  1  0  0  3  0  0  0  0  0  0
  159.9930  213.6870  146.7680 C   0  0  0  0  0  2  0  0  0  0  0  0
  159.8620  214.0320  144.3170 C   0  0  0  0  0  2  0  0  0  0  0  0
  159.3550  213.0330  142.8870 S   0  0  0  0  0  1  0  0  0  0  0  0
  1 22  1  6  0  0  0
  1  2  1  0  0  0  0
  2  3  1  0  0  0  0
  2  5  1  1  0  0  0
  3  4  1  0  0  0  0
  5  6  1  0  0  0  0
  6  7  1  0  0  0  0
  7  8  1  0  0  0  0
  8  9  1  0  0  0  0
 10  1  1  0  0  0  0
 11 14  1  0  0  0  0
 11 10  1  1  0  0  0
 12 13  1  0  0  0  0
 13 11  1  0  0  0  0
 14 15  1  0  0  0  0
 16 19  1  0  0  0  0
 17 21  1  0  0  0  0
 17 18  1  0  0  0  0
 18 19  2  0  0  0  0
 20 17  2  0  0  0  0
 21 15  1  6  0  0  0
 21 16  1  0  0  0  0
 23 22  1  0  0  0  0
 24 25  1  0  0  0  0
 24 23  1  0  0  0  0
 25 26  1  1  0  0  0
 27 25  1  1  0  0  0
 28 27  1  0  0  0  0
 29 31  1  6  0  0  0
 29 28  1  0  0  0  0
 29 30  1  0  0  0  0
 30 27  1  0  0  0  0
 32 31  1  0  0  0  0
M  END
>  <MODEL>
5

>  <REMARK>
 VINA RESULT:      -5.7      4.212      8.550
  Name = 
  18 active torsions:
  status: ('A' for Active; 'I' for Inactive)
    1  A    between atoms: C_1  and  C_20
    2  A    between atoms: C_2  and  C_9
    3  A    between atoms: C_2  and  C_23
    4  A    between atoms: O_3  and  C_14
    5  A    between atoms: C_4  and  C_5
    6  A    between atoms: C_4  and  C_15
    7  A    between atoms: C_8  and  C_23
    8  A    between atoms: C_8  and  C_28
    9  A    between atoms: C_9  and  C_10
   10  A    between atoms: C_13  and  C_28
   11  A    between atoms: C_13  and  C_31
   12  A    between atoms: C_14  and  C_26
   13  A    between atoms: C_14  and  C_28
   14  A    between atoms: C_15  and  C_26
   15  A    between atoms: O_16  and  O_27
   16  A    between atoms: O_16  and  C_31
   17  A    between atoms: O_27  and  C_32
   18  A    between atoms: O_29  and  C_31
                            x       y       z     vdW  Elec       q    Type
                         _______ _______ _______ _____ _____    ______ ____

>  <TORSDO>
F 18

$$$$
=
 OpenBabel11062410563D

 32 33  0  0  1  0  0  0  0  0999 V2000
  161.6020  208.0550  152.2990 C   0  0  2  0  0  3  0  0  0  0  0  0
  161.1720  208.9310  153.4920 C   0  0  1  0  0  3  0  0  0  0  0  0
  161.3410  208.3010  154.7460 O   0  0  0  0  0  0  0  0  0  0  0  0
  160.1670  208.4590  155.5000 C   0  0  0  0  0  1  0  0  0  0  0  0
  161.7680  210.3400  153.4640 C   0  0  0  0  0  2  0  0  0  0  0  0
  160.6690  211.3630  153.6810 C   0  0  0  0  0  2  0  0  0  0  0  0
  159.4540  211.0150  152.8420 C   0  0  0  0  0  2  0  0  0  0  0  0
  158.2100  211.6610  153.4220 C   0  0  0  0  0  2  0  0  0  0  0  0
  158.2770  211.6160  154.9330 C   0  0  0  0  0  1  0  0  0  0  0  0
  160.9790  208.5170  150.9720 C   0  0  0  0  0  2  0  0  0  0  0  0
  161.9990  209.1340  150.0050 C   0  0  1  0  0  3  0  0  0  0  0  0
  162.6850  207.6190  148.4320 C   0  0  0  0  0  1  0  0  0  0  0  0
  161.8130  208.6910  148.6780 O   0  0  0  0  0  0  0  0  0  0  0  0
  162.0160  210.5350  150.0910 O   0  0  0  0  0  0  0  0  0  0  0  0
  161.9460  210.9540  148.8430 O   0  0  0  0  0  0  0  0  0  0  0  0
  160.7350  212.8090  149.7370 C   0  0  0  0  0  2  0  0  0  0  0  0
  161.7010  212.9300  147.5950 C   0  0  0  0  0  0  0  0  0  0  0  0
  160.4600  213.5940  147.4980 N   0  0  0  0  0  0  0  0  0  0  0  0
  159.7480  213.4450  148.7510 C   0  0  0  0  0  3  0  0  0  0  0  0
  162.6030  212.9700  146.6260 C   0  0  0  0  0  2  0  0  0  0  0  0
  161.9500  212.3500  148.9310 C   0  0  2  0  0  3  0  0  0  0  0  0
  161.3040  206.5850  152.5720 C   0  0  0  0  0  2  0  0  0  0  0  0
  161.7580  205.7240  151.4060 C   0  0  0  0  0  2  0  0  0  0  0  0
  160.5560  205.1580  150.6670 C   0  0  0  0  0  2  0  0  0  0  0  0
  160.7480  203.6830  150.3370 C   0  0  2  0  0  3  0  0  0  0  0  0
  161.3270  202.9620  151.5470 C   0  0  0  0  0  1  0  0  0  0  0  0
  161.5820  203.5030  149.0570 C   0  0  1  0  0  3  0  0  0  0  0  0
  160.9880  202.1470  147.9940 S   0  0  0  0  0  0  0  0  0  0  0  0
  160.7910  203.6550  146.9890 C   0  0  1  0  0  3  0  0  0  0  0  0
  161.3220  204.6020  148.0460 C   0  0  0  0  0  2  0  0  0  0  0  0
  161.7430  203.6280  145.8070 C   0  0  0  0  0  2  0  0  0  0  0  0
  161.2200  204.8400  144.5580 S   0  0  0  0  0  1  0  0  0  0  0  0
  1 10  1  6  0  0  0
  1 22  1  0  0  0  0
  1  2  1  0  0  0  0
  2  5  1  1  0  0  0
  2  3  1  0  0  0  0
  3  4  1  0  0  0  0
  5  6  1  0  0  0  0
  7  8  1  0  0  0  0
  7  6  1  0  0  0  0
  8  9  1  0  0  0  0
 11 14  1  0  0  0  0
 11 10  1  1  0  0  0
 12 13  1  0  0  0  0
 13 11  1  0  0  0  0
 15 14  1  0  0  0  0
 17 21  1  0  0  0  0
 18 17  1  0  0  0  0
 18 19  2  0  0  0  0
 19 16  1  0  0  0  0
 20 17  2  0  0  0  0
 21 15  1  6  0  0  0
 21 16  1  0  0  0  0
 23 22  1  0  0  0  0
 24 23  1  0  0  0  0
 25 24  1  0  0  0  0
 25 26  1  1  0  0  0
 27 25  1  1  0  0  0
 28 27  1  0  0  0  0
 29 31  1  6  0  0  0
 29 28  1  0  0  0  0
 29 30  1  0  0  0  0
 30 27  1  0  0  0  0
 32 31  1  0  0  0  0
M  END
>  <MODEL>
6

>  <REMARK>
 VINA RESULT:      -5.7      2.515      6.123
  Name = 
  18 active torsions:
  status: ('A' for Active; 'I' for Inactive)
    1  A    between atoms: C_1  and  C_20
    2  A    between atoms: C_2  and  C_9
    3  A    between atoms: C_2  and  C_23
    4  A    between atoms: O_3  and  C_14
    5  A    between atoms: C_4  and  C_5
    6  A    between atoms: C_4  and  C_15
    7  A    between atoms: C_8  and  C_23
    8  A    between atoms: C_8  and  C_28
    9  A    between atoms: C_9  and  C_10
   10  A    between atoms: C_13  and  C_28
   11  A    between atoms: C_13  and  C_31
   12  A    between atoms: C_14  and  C_26
   13  A    between atoms: C_14  and  C_28
   14  A    between atoms: C_15  and  C_26
   15  A    between atoms: O_16  and  O_27
   16  A    between atoms: O_16  and  C_31
   17  A    between atoms: O_27  and  C_32
   18  A    between atoms: O_29  and  C_31
                            x       y       z     vdW  Elec       q    Type
                         _______ _______ _______ _____ _____    ______ ____

>  <TORSDO>
F 18

$$$$
=
 OpenBabel11062410563D

 32 33  0  0  1  0  0  0  0  0999 V2000
  161.3830  206.5210  151.2760 C   0  0  2  0  0  3  0  0  0  0  0  0
  161.4850  207.8890  150.5730 C   0  0  1  0  0  3  0  0  0  0  0  0
  162.6610  208.6030  150.8950 O   0  0  0  0  0  0  0  0  0  0  0  0
  162.3280  209.9440  151.1470 C   0  0  0  0  0  1  0  0  0  0  0  0
  161.2400  207.8220  149.0640 C   0  0  0  0  0  2  0  0  0  0  0  0
  162.5150  207.3980  148.3590 C   0  0  0  0  0  2  0  0  0  0  0  0
  162.1880  206.5500  147.1450 C   0  0  0  0  0  2  0  0  0  0  0  0
  160.6990  206.5880  146.8610 C   0  0  0  0  0  2  0  0  0  0  0  0
  160.4510  206.1990  145.4190 C   0  0  0  0  0  1  0  0  0  0  0  0
  160.7150  205.4520  150.3950 C   0  0  0  0  0  2  0  0  0  0  0  0
  161.4960  204.1320  150.3460 C   0  0  1  0  0  3  0  0  0  0  0  0
  161.4660  202.4380  151.8870 C   0  0  0  0  0  1  0  0  0  0  0  0
  161.9490  203.7310  151.6210 O   0  0  0  0  0  0  0  0  0  0  0  0
  160.7630  203.1180  149.7100 O   0  0  0  0  0  0  0  0  0  0  0  0
  160.6250  203.5270  148.4640 O   0  0  0  0  0  0  0  0  0  0  0  0
  161.5010  203.2010  146.2660 C   0  0  0  0  0  3  0  0  0  0  0  0
  161.1400  201.3670  147.6940 C   0  0  0  0  0  0  0  0  0  0  0  0
  160.7670  200.9330  146.4060 N   0  0  0  0  0  0  0  0  0  0  0  0
  160.8400  202.0540  145.4920 C   0  0  0  0  0  3  0  0  0  0  0  0
  161.2490  200.5350  148.7190 C   0  0  0  0  0  1  0  0  0  0  0  0
  161.5580  202.7840  147.7340 C   0  0  2  0  0  3  0  0  0  0  0  0
  160.6790  206.6540  152.6210 C   0  0  0  0  0  2  0  0  0  0  0  0
  161.5880  207.3280  153.6340 C   0  0  0  0  0  2  0  0  0  0  0  0
  160.8200  208.3830  154.4150 C   0  0  0  0  0  2  0  0  0  0  0  0
  161.7580  209.2620  155.2340 C   0  0  2  0  0  3  0  0  0  0  0  0
  161.7420  208.8080  156.6870 C   0  0  0  0  0  1  0  0  0  0  0  0
  161.4250  210.7530  155.0510 C   0  0  1  0  0  3  0  0  0  0  0  0
  159.9780  211.0420  153.9830 S   0  0  0  0  0  0  0  0  0  0  0  0
  159.5010  211.7060  155.6130 C   0  0  1  0  0  3  0  0  0  0  0  0
  160.8080  211.3570  156.2960 C   0  0  0  0  0  2  0  0  0  0  0  0
  159.3530  213.2160  155.5430 C   0  0  0  0  0  2  0  0  0  0  0  0
  157.6060  213.6790  155.7380 S   0  0  0  0  0  1  0  0  0  0  0  0
  1 10  1  6  0  0  0
  1 22  1  0  0  0  0
  2  5  1  6  0  0  0
  2  3  1  0  0  0  0
  2  1  1  0  0  0  0
  3  4  1  0  0  0  0
  6  5  1  0  0  0  0
  7  6  1  0  0  0  0
  8  7  1  0  0  0  0
  9  8  1  0  0  0  0
 11 10  1  1  0  0  0
 11 13  1  0  0  0  0
 13 12  1  0  0  0  0
 14 11  1  0  0  0  0
 15 14  1  0  0  0  0
 16 21  1  0  0  0  0
 17 21  1  0  0  0  0
 17 20  1  0  0  0  0
 18 17  2  0  0  0  0
 19 16  2  0  0  0  0
 19 18  1  0  0  0  0
 21 15  1  1  0  0  0
 22 23  1  0  0  0  0
 23 24  1  0  0  0  0
 24 25  1  0  0  0  0
 25 26  1  1  0  0  0
 27 25  1  1  0  0  0
 27 30  1  0  0  0  0
 28 27  1  0  0  0  0
 28 29  1  0  0  0  0
 29 31  1  6  0  0  0
 29 30  1  0  0  0  0
 31 32  1  0  0  0  0
M  END
>  <MODEL>
7

>  <REMARK>
 VINA RESULT:      -5.5      4.634      8.646
  Name = 
  18 active torsions:
  status: ('A' for Active; 'I' for Inactive)
    1  A    between atoms: C_1  and  C_20
    2  A    between atoms: C_2  and  C_9
    3  A    between atoms: C_2  and  C_23
    4  A    between atoms: O_3  and  C_14
    5  A    between atoms: C_4  and  C_5
    6  A    between atoms: C_4  and  C_15
    7  A    between atoms: C_8  and  C_23
    8  A    between atoms: C_8  and  C_28
    9  A    between atoms: C_9  and  C_10
   10  A    between atoms: C_13  and  C_28
   11  A    between atoms: C_13  and  C_31
   12  A    between atoms: C_14  and  C_26
   13  A    between atoms: C_14  and  C_28
   14  A    between atoms: C_15  and  C_26
   15  A    between atoms: O_16  and  O_27
   16  A    between atoms: O_16  and  C_31
   17  A    between atoms: O_27  and  C_32
   18  A    between atoms: O_29  and  C_31
                            x       y       z     vdW  Elec       q    Type
                         _______ _______ _______ _____ _____    ______ ____

>  <TORSDO>
F 18

$$$$
=
 OpenBabel11062410563D

 32 33  0  0  1  0  0  0  0  0999 V2000
  161.4120  207.3870  151.8620 C   0  0  2  0  0  3  0  0  0  0  0  0
  162.1020  208.1610  150.7210 C   0  0  1  0  0  3  0  0  0  0  0  0
  161.4190  208.0760  149.4870 O   0  0  0  0  0  0  0  0  0  0  0  0
  162.3270  207.7020  148.4850 C   0  0  0  0  0  1  0  0  0  0  0  0
  162.4630  209.6010  151.0900 C   0  0  0  0  0  2  0  0  0  0  0  0
  161.5390  210.5600  150.3620 C   0  0  0  0  0  2  0  0  0  0  0  0
  162.3030  211.3170  149.2930 C   0  0  0  0  0  2  0  0  0  0  0  0
  161.3480  212.1170  148.4280 C   0  0  0  0  0  2  0  0  0  0  0  0
  160.7440  213.2370  149.2490 C   0  0  0  0  0  1  0  0  0  0  0  0
  161.6300  208.0400  153.2360 C   0  0  0  0  0  2  0  0  0  0  0  0
  160.4190  207.9070  154.1700 C   0  0  1  0  0  3  0  0  0  0  0  0
  160.1010  207.2490  156.3400 C   0  0  0  0  0  1  0  0  0  0  0  0
  160.5610  206.8360  155.0780 O   0  0  0  0  0  0  0  0  0  0  0  0
  160.1340  209.1140  154.8270 O   0  0  0  0  0  0  0  0  0  0  0  0
  160.1400  210.0290  153.8770 O   0  0  0  0  0  0  0  0  0  0  0  0
  158.8460  210.8180  155.7240 C   0  0  0  0  0  2  0  0  0  0  0  0
  158.6900  211.8610  153.6210 C   0  0  0  0  0  0  0  0  0  0  0  0
  157.3800  211.8450  154.1420 N   0  0  0  0  0  0  0  0  0  0  0  0
  157.3770  211.0990  155.3840 C   0  0  0  0  0  3  0  0  0  0  0  0
  159.0110  212.5440  152.5330 C   0  0  0  0  0  2  0  0  0  0  0  0
  159.6750  211.1940  154.4970 C   0  0  2  0  0  3  0  0  0  0  0  0
  161.8460  205.9260  151.8640 C   0  0  0  0  0  2  0  0  0  0  0  0
  160.8010  205.0580  151.1840 C   0  0  0  0  0  2  0  0  0  0  0  0
  161.3630  203.6720  150.9070 C   0  0  0  0  0  2  0  0  0  0  0  0
  160.7180  203.0450  149.6780 C   0  0  2  0  0  3  0  0  0  0  0  0
  160.3090  201.6120  149.9930 C   0  0  0  0  0  1  0  0  0  0  0  0
  161.6300  203.1670  148.4460 C   0  0  1  0  0  3  0  0  0  0  0  0
  161.0320  202.2190  147.0090 S   0  0  0  0  0  0  0  0  0  0  0  0
  161.0040  203.9610  146.4700 C   0  0  1  0  0  3  0  0  0  0  0  0
  161.5150  204.5240  147.7810 C   0  0  0  0  0  2  0  0  0  0  0  0
  162.0370  204.1920  145.3820 C   0  0  0  0  0  2  0  0  0  0  0  0
  161.3880  205.3510  144.1420 S   0  0  0  0  0  1  0  0  0  0  0  0
  1 22  1  1  0  0  0
  1 10  1  0  0  0  0
  2  5  1  1  0  0  0
  2  1  1  0  0  0  0
  3  2  1  0  0  0  0
  4  3  1  0  0  0  0
  6  5  1  0  0  0  0
  7  6  1  0  0  0  0
  8  9  1  0  0  0  0
  8  7  1  0  0  0  0
 11 10  1  1  0  0  0
 11 14  1  0  0  0  0
 11 13  1  0  0  0  0
 13 12  1  0  0  0  0
 15 14  1  0  0  0  0
 17 18  1  0  0  0  0
 17 21  1  0  0  0  0
 18 19  2  0  0  0  0
 19 16  1  0  0  0  0
 20 17  2  0  0  0  0
 21 15  1  6  0  0  0
 21 16  1  0  0  0  0
 23 22  1  0  0  0  0
 24 23  1  0  0  0  0
 25 26  1  1  0  0  0
 25 24  1  0  0  0  0
 27 25  1  1  0  0  0
 28 27  1  0  0  0  0
 29 31  1  6  0  0  0
 29 28  1  0  0  0  0
 29 30  1  0  0  0  0
 30 27  1  0  0  0  0
 32 31  1  0  0  0  0
M  END
>  <MODEL>
8

>  <REMARK>
 VINA RESULT:      -5.5      1.938      3.793
  Name = 
  18 active torsions:
  status: ('A' for Active; 'I' for Inactive)
    1  A    between atoms: C_1  and  C_20
    2  A    between atoms: C_2  and  C_9
    3  A    between atoms: C_2  and  C_23
    4  A    between atoms: O_3  and  C_14
    5  A    between atoms: C_4  and  C_5
    6  A    between atoms: C_4  and  C_15
    7  A    between atoms: C_8  and  C_23
    8  A    between atoms: C_8  and  C_28
    9  A    between atoms: C_9  and  C_10
   10  A    between atoms: C_13  and  C_28
   11  A    between atoms: C_13  and  C_31
   12  A    between atoms: C_14  and  C_26
   13  A    between atoms: C_14  and  C_28
   14  A    between atoms: C_15  and  C_26
   15  A    between atoms: O_16  and  O_27
   16  A    between atoms: O_16  and  C_31
   17  A    between atoms: O_27  and  C_32
   18  A    between atoms: O_29  and  C_31
                            x       y       z     vdW  Elec       q    Type
                         _______ _______ _______ _____ _____    ______ ____

>  <TORSDO>
F 18

$$$$
=
 OpenBabel11062410563D

 32 33  0  0  1  0  0  0  0  0999 V2000
  161.8120  207.9990  152.4730 C   0  0  2  0  0  3  0  0  0  0  0  0
  161.7070  206.7310  153.3430 C   0  0  1  0  0  3  0  0  0  0  0  0
  160.4400  206.5640  153.9470 O   0  0  0  0  0  0  0  0  0  0  0  0
  160.5260  206.9260  155.3000 C   0  0  0  0  0  1  0  0  0  0  0  0
  162.1880  205.4620  152.6370 C   0  0  0  0  0  2  0  0  0  0  0  0
  161.0910  204.4140  152.6720 C   0  0  0  0  0  2  0  0  0  0  0  0
  160.7260  203.9880  151.2620 C   0  0  0  0  0  2  0  0  0  0  0  0
  160.8510  202.4830  151.1170 C   0  0  0  0  0  2  0  0  0  0  0  0
  160.7860  202.1110  149.6510 C   0  0  0  0  0  1  0  0  0  0  0  0
  160.5030  208.8040  152.4410 C   0  0  0  0  0  2  0  0  0  0  0  0
  160.4720  209.9510  153.4610 C   0  0  1  0  0  3  0  0  0  0  0  0
  161.8690  210.6710  155.1260 C   0  0  0  0  0  1  0  0  0  0  0  0
  161.7620  210.4510  153.7420 O   0  0  0  0  0  0  0  0  0  0  0  0
  159.5910  210.9710  153.0700 O   0  0  0  0  0  0  0  0  0  0  0  0
  160.1010  211.4540  151.9540 O   0  0  0  0  0  0  0  0  0  0  0  0
  158.6700  213.1270  152.8830 C   0  0  0  0  0  2  0  0  0  0  0  0
  159.5470  213.3710  150.7130 C   0  0  0  0  0  0  0  0  0  0  0  0
  158.2240  213.8560  150.6520 N   0  0  0  0  0  0  0  0  0  0  0  0
  157.5770  213.6160  151.9260 C   0  0  0  0  0  3  0  0  0  0  0  0
  160.4070  213.5310  149.7180 C   0  0  0  0  0  2  0  0  0  0  0  0
  159.9130  212.8370  152.0410 C   0  0  2  0  0  3  0  0  0  0  0  0
  162.2870  207.6520  151.0660 C   0  0  0  0  0  2  0  0  0  0  0  0
  161.1600  207.8340  150.0630 C   0  0  0  0  0  2  0  0  0  0  0  0
  161.1750  206.7080  149.0410 C   0  0  0  0  0  2  0  0  0  0  0  0
  162.3320  206.8610  148.0610 C   0  0  2  0  0  3  0  0  0  0  0  0
  162.6510  208.3390  147.8750 C   0  0  0  0  0  1  0  0  0  0  0  0
  162.0450  206.1230  146.7420 C   0  0  1  0  0  3  0  0  0  0  0  0
  163.1690  204.7190  146.4430 S   0  0  0  0  0  0  0  0  0  0  0  0
  161.5090  203.9760  146.5740 C   0  0  1  0  0  3  0  0  0  0  0  0
  160.7850  205.2850  146.8180 C   0  0  0  0  0  2  0  0  0  0  0  0
  161.0820  203.4020  145.2340 C   0  0  0  0  0  2  0  0  0  0  0  0
  160.4510  201.7120  145.4530 S   0  0  0  0  0  1  0  0  0  0  0  0
  1 22  1  6  0  0  0
  1  2  1  0  0  0  0
  2  5  1  6  0  0  0
  2  3  1  0  0  0  0
  3  4  1  0  0  0  0
  5  6  1  0  0  0  0
  7  6  1  0  0  0  0
  8  7  1  0  0  0  0
  9  8  1  0  0  0  0
 10  1  1  0  0  0  0
 11 10  1  6  0  0  0
 11 13  1  0  0  0  0
 13 12  1  0  0  0  0
 14 11  1  0  0  0  0
 15 14  1  0  0  0  0
 17 21  1  0  0  0  0
 18 17  1  0  0  0  0
 18 19  2  0  0  0  0
 19 16  1  0  0  0  0
 20 17  2  0  0  0  0
 21 15  1  6  0  0  0
 21 16  1  0  0  0  0
 23 22  1  0  0  0  0
 24 23  1  0  0  0  0
 25 26  1  6  0  0  0
 25 24  1  0  0  0  0
 27 30  1  0  0  0  0
 27 25  1  1  0  0  0
 28 29  1  0  0  0  0
 28 27  1  0  0  0  0
 29 31  1  6  0  0  0
 29 30  1  0  0  0  0
 31 32  1  0  0  0  0
M  END
>  <MODEL>
9

>  <REMARK>
 VINA RESULT:      -5.5      2.316      4.893
  Name = 
  18 active torsions:
  status: ('A' for Active; 'I' for Inactive)
    1  A    between atoms: C_1  and  C_20
    2  A    between atoms: C_2  and  C_9
    3  A    between atoms: C_2  and  C_23
    4  A    between atoms: O_3  and  C_14
    5  A    between atoms: C_4  and  C_5
    6  A    between atoms: C_4  and  C_15
    7  A    between atoms: C_8  and  C_23
    8  A    between atoms: C_8  and  C_28
    9  A    between atoms: C_9  and  C_10
   10  A    between atoms: C_13  and  C_28
   11  A    between atoms: C_13  and  C_31
   12  A    between atoms: C_14  and  C_26
   13  A    between atoms: C_14  and  C_28
   14  A    between atoms: C_15  and  C_26
   15  A    between atoms: O_16  and  O_27
   16  A    between atoms: O_16  and  C_31
   17  A    between atoms: O_27  and  C_32
   18  A    between atoms: O_29  and  C_31
                            x       y       z     vdW  Elec       q    Type
                         _______ _______ _______ _____ _____    ______ ____

>  <TORSDO>
F 18

$$$$
