=
 OpenBabel11062408493D

 55 60  0  0  1  0  0  0  0  0999 V2000
  160.7560  210.5930  152.3360 C   0  0  1  0  0  3  0  0  0  0  0  0
  159.7570  211.7110  152.4340 C   0  0  0  0  0  0  0  0  0  0  0  0
  159.4190  212.5570  151.3240 N   0  0  0  0  0  2  0  0  0  0  0  0
  159.1290  211.8520  153.5170 O   0  0  0  0  0  0  0  0  0  0  0  0
  160.7990  213.0810  147.2670 C   0  0  2  0  0  0  0  0  0  0  0  0
  160.2170  212.6970  150.1150 C   0  0  2  0  0  3  0  0  0  0  0  0
  158.4080  212.8020  147.1800 F   0  0  0  0  0  0  0  0  0  0  0  0
  161.6290  214.4530  149.1760 O   0  0  0  0  0  0  0  0  0  0  0  0
  160.3590  214.1780  149.7640 C   0  0  1  0  0  3  0  0  0  0  0  0
  159.2890  214.3810  148.7390 C   0  0  1  0  0  3  0  0  0  0  0  0
  159.4640  213.0630  148.0350 C   0  0  2  0  0  0  0  0  0  0  0  0
  161.1480  211.9630  146.5040 O   0  0  0  0  0  1  0  0  0  0  0  0
  158.0350  214.4520  149.3540 O   0  0  0  0  0  1  0  0  0  0  0  0
  159.5470  212.0760  149.0370 O   0  0  0  0  0  0  0  0  0  0  0  0
  161.9320  213.6910  147.9980 C   0  0  2  0  0  3  0  0  0  0  0  0
  161.3510  214.3810  146.8190 N   0  0  0  0  0  0  0  0  0  0  0  0
  162.3140  214.2130  145.7400 C   0  0  0  0  0  2  0  0  0  0  0  0
  161.5800  214.1160  144.4190 C   0  0  0  0  0  2  0  0  0  0  0  0
  162.3500  213.2140  143.4800 C   0  0  0  0  0  2  0  0  0  0  0  0
  162.1920  211.8860  141.3990 C   0  0  0  0  0  1  0  0  0  0  0  0
  161.4010  212.6290  142.4540 C   0  0  0  0  0  2  0  0  0  0  0  0
  161.6260  210.7810  151.1010 C   0  0  0  0  0  2  0  0  0  0  0  0
  161.9190  209.1830  149.1670 C   0  0  0  0  0  0  0  0  0  0  0  0
  161.9920  209.4830  150.5590 N   0  0  0  0  0  2  0  0  0  0  0  0
  161.3160  209.9640  148.3780 O   0  0  0  0  0  0  0  0  0  0  0  0
  163.6840  208.1340  148.0190 O   0  0  0  0  0  0  0  0  0  0  0  0
  162.6060  207.9850  148.6560 C   0  0  0  0  0  0  0  0  0  0  0  0
  162.0510  206.6660  148.8200 N   0  0  0  0  0  0  0  0  0  0  0  0
  162.4260  206.0540  151.1960 C   0  0  0  0  0  2  0  0  0  0  0  0
  161.7910  205.3920  152.3850 C   0  0  0  0  0  3  0  0  0  0  0  0
  160.3300  205.2050  149.9060 C   0  0  0  0  0  2  0  0  0  0  0  0
  160.5830  203.9770  150.7880 C   0  0  0  0  0  2  0  0  0  0  0  0
  160.9150  204.4000  152.1920 C   0  0  0  0  0  3  0  0  0  0  0  0
  161.3880  206.3190  150.0890 C   0  0  2  0  0  3  0  0  0  0  0  0
  163.5170  205.1290  147.7110 C   0  0  0  0  0  2  0  0  0  0  0  0
  162.3010  205.6520  147.8240 C   0  0  0  0  0  0  0  0  0  0  0  0
  160.5190  204.6110  144.1930 O   0  0  0  0  0  0  0  0  0  0  0  0
  161.5950  202.8000  147.1730 C   0  0  0  0  0  2  0  0  0  0  0  0
  160.7170  201.5710  146.9850 C   0  0  0  0  0  2  0  0  0  0  0  0
  161.2390  205.2670  146.8670 C   0  0  0  0  0  0  0  0  0  0  0  0
  160.5830  203.6790  145.0420 C   0  0  0  0  0  0  0  0  0  0  0  0
  160.3970  206.1390  146.5170 O   0  0  0  0  0  0  0  0  0  0  0  0
  160.0220  202.3350  144.6820 C   0  0  0  0  0  2  0  0  0  0  0  0
  160.6690  201.2200  145.5020 C   0  0  2  0  0  3  0  0  0  0  0  0
  161.1240  203.9230  146.3570 N   0  0  0  0  0  0  0  0  0  0  0  0
  160.0320  199.9210  145.2600 N   0  0  0  0  0  2  0  0  0  0  0  0
  162.0380  198.8000  144.9080 F   0  0  0  0  0  0  0  0  0  0  0  0
  160.8980  198.8240  145.6860 C   0  0  0  0  0  2  0  0  0  0  0  0
  161.5580  210.4980  153.5100 O   0  0  0  0  0  0  0  0  0  0  0  0
  160.4360  208.1540  156.8090 C   0  0  0  0  0  3  0  0  0  0  0  0
  161.2020  209.7310  154.6250 C   0  0  0  0  0  0  0  0  0  0  0  0
  160.8860  208.3810  154.4430 C   0  0  0  0  0  3  0  0  0  0  0  0
  160.7630  209.4980  157.0010 C   0  0  0  0  0  3  0  0  0  0  0  0
  160.5010  207.5960  155.5300 C   0  0  0  0  0  3  0  0  0  0  0  0
  161.1480  210.2850  155.9130 C   0  0  0  0  0  3  0  0  0  0  0  0
  1 22  1  6  0  0  0
  1  2  1  0  0  0  0
  1 49  1  0  0  0  0
  2  4  2  0  0  0  0
  3  2  1  0  0  0  0
  5 12  1  6  0  0  0
  5 15  1  0  0  0  0
  5 11  1  0  0  0  0
  6  3  1  1  0  0  0
  9  8  1  6  0  0  0
  9  6  1  0  0  0  0
 10 13  1  1  0  0  0
 10  9  1  0  0  0  0
 11  7  1  6  0  0  0
 11 10  1  0  0  0  0
 11 14  1  0  0  0  0
 14  6  1  0  0  0  0
 15  8  1  1  0  0  0
 16  5  1  0  0  0  0
 16 15  1  0  0  0  0
 17 16  1  0  0  0  0
 18 17  1  0  0  0  0
 19 18  1  0  0  0  0
 20 21  1  0  0  0  0
 21 19  1  0  0  0  0
 23 24  1  0  0  0  0
 24 22  1  0  0  0  0
 25 23  2  0  0  0  0
 26 27  2  0  0  0  0
 27 28  1  0  0  0  0
 27 23  1  0  0  0  0
 29 30  1  0  0  0  0
 31 34  1  0  0  0  0
 31 32  1  0  0  0  0
 32 33  1  0  0  0  0
 33 30  2  0  0  0  0
 34 28  1  6  0  0  0
 34 29  1  0  0  0  0
 35 36  2  0  0  0  0
 36 28  1  0  0  0  0
 37 41  2  0  0  0  0
 39 38  1  0  0  0  0
 40 36  1  0  0  0  0
 41 45  1  0  0  0  0
 42 40  2  0  0  0  0
 43 41  1  0  0  0  0
 43 44  1  0  0  0  0
 44 46  1  1  0  0  0
 44 39  1  0  0  0  0
 45 40  1  0  0  0  0
 45 38  1  0  0  0  0
 46 48  1  0  0  0  0
 47 48  1  0  0  0  0
 49 51  1  0  0  0  0
 50 53  1  0  0  0  0
 51 55  1  0  0  0  0
 52 51  2  0  0  0  0
 52 54  1  0  0  0  0
 54 50  2  0  0  0  0
 55 53  2  0  0  0  0
M  END
>  <MODEL>
1

>  <REMARK>
 VINA RESULT:      -4.4      0.000      0.000
  Name = 
  16 active torsions:
  status: ('A' for Active; 'I' for Inactive)
    1  A    between atoms: C_3  and  C_25
    2  A    between atoms: C_3  and  C_38
    3  A    between atoms: C_4  and  N_37
    4  A    between atoms: C_4  and  C_54
    5  A    between atoms: C_6  and  N_22
    6  A    between atoms: C_8  and  C_54
    7  A    between atoms: N_10  and  C_47
    8  A    between atoms: N_10  and  C_48
    9  A    between atoms: C_19  and  C_35
   10  A    between atoms: C_26  and  N_45
   11  A    between atoms: C_27  and  O_51
   12  A    between atoms: C_29  and  C_38
   13  A    between atoms: C_29  and  N_53
   14  A    between atoms: C_33  and  C_49
   15  A    between atoms: N_45  and  C_49
   16  A    between atoms: O_51  and  C_54
                            x       y       z     vdW  Elec       q    Type
                         _______ _______ _______ _____ _____    ______ ____

>  <TORSDO>
F 16

$$$$
=
 OpenBabel11062408493D

 55 60  0  0  1  0  0  0  0  0999 V2000
  160.7910  209.9840  153.2620 C   0  0  1  0  0  3  0  0  0  0  0  0
  161.7780  210.8320  154.0130 C   0  0  0  0  0  0  0  0  0  0  0  0
  161.3840  211.8430  154.9530 N   0  0  0  0  0  2  0  0  0  0  0  0
  163.0050  210.5830  153.8690 O   0  0  0  0  0  0  0  0  0  0  0  0
  157.1470  212.5260  155.4220 C   0  0  2  0  0  0  0  0  0  0  0  0
  160.0520  212.4230  155.0390 C   0  0  2  0  0  3  0  0  0  0  0  0
  157.4880  210.1420  155.3840 F   0  0  0  0  0  0  0  0  0  0  0  0
  158.8800  213.8170  156.6640 O   0  0  0  0  0  0  0  0  0  0  0  0
  159.6850  212.6500  156.5050 C   0  0  1  0  0  3  0  0  0  0  0  0
  158.8690  211.4420  156.8340 C   0  0  1  0  0  3  0  0  0  0  0  0
  158.1410  211.3540  155.5200 C   0  0  2  0  0  0  0  0  0  0  0  0
  156.3310  212.6190  154.2900 O   0  0  0  0  0  1  0  0  0  0  0  0
  159.6980  210.3310  157.0170 O   0  0  0  0  0  1  0  0  0  0  0  0
  159.1100  211.5130  154.5100 O   0  0  0  0  0  0  0  0  0  0  0  0
  157.6650  213.8270  155.9000 C   0  0  2  0  0  3  0  0  0  0  0  0
  156.6110  213.1200  156.6690 N   0  0  0  0  0  0  0  0  0  0  0  0
  155.3770  213.8530  156.4290 C   0  0  0  0  0  2  0  0  0  0  0  0
  154.2100  213.0830  157.0120 C   0  0  0  0  0  2  0  0  0  0  0  0
  154.6260  211.6500  157.2600 C   0  0  0  0  0  2  0  0  0  0  0  0
  153.8880  209.5260  156.2290 C   0  0  0  0  0  1  0  0  0  0  0  0
  153.4420  210.7350  157.0230 C   0  0  0  0  0  2  0  0  0  0  0  0
  160.8330  210.3280  151.7790 C   0  0  0  0  0  2  0  0  0  0  0  0
  161.6470  209.2430  149.6490 C   0  0  0  0  0  0  0  0  0  0  0  0
  161.2670  209.1660  151.0210 N   0  0  0  0  0  2  0  0  0  0  0  0
  161.4040  210.2850  148.9780 O   0  0  0  0  0  0  0  0  0  0  0  0
  163.4500  208.3570  148.4250 O   0  0  0  0  0  0  0  0  0  0  0  0
  162.3790  208.1160  149.0440 C   0  0  0  0  0  0  0  0  0  0  0  0
  161.8740  206.7690  149.1010 N   0  0  0  0  0  0  0  0  0  0  0  0
  162.2680  206.0380  151.4390 C   0  0  0  0  0  2  0  0  0  0  0  0
  161.6710  205.2580  152.5760 C   0  0  0  0  0  3  0  0  0  0  0  0
  160.2540  205.1220  150.0680 C   0  0  0  0  0  2  0  0  0  0  0  0
  160.5870  203.8630  150.8760 C   0  0  0  0  0  2  0  0  0  0  0  0
  160.8720  204.2200  152.3080 C   0  0  0  0  0  3  0  0  0  0  0  0
  161.2260  206.2960  150.3350 C   0  0  2  0  0  3  0  0  0  0  0  0
  163.3850  205.3430  147.9060 C   0  0  0  0  0  2  0  0  0  0  0  0
  162.1630  205.8490  148.0270 C   0  0  0  0  0  0  0  0  0  0  0  0
  160.4930  205.1770  144.2590 O   0  0  0  0  0  0  0  0  0  0  0  0
  161.5550  203.0700  147.0430 C   0  0  0  0  0  2  0  0  0  0  0  0
  160.7190  201.8470  146.6960 C   0  0  0  0  0  2  0  0  0  0  0  0
  161.1340  205.5450  147.0060 C   0  0  0  0  0  0  0  0  0  0  0  0
  160.5650  204.1560  144.9990 C   0  0  0  0  0  0  0  0  0  0  0  0
  160.2750  206.4280  146.7350 O   0  0  0  0  0  0  0  0  0  0  0  0
  160.0520  202.8470  144.4760 C   0  0  0  0  0  2  0  0  0  0  0  0
  160.7140  201.6650  145.1820 C   0  0  2  0  0  3  0  0  0  0  0  0
  161.0700  204.2650  146.3460 N   0  0  0  0  0  0  0  0  0  0  0  0
  160.1210  200.3850  144.7800 N   0  0  0  0  0  2  0  0  0  0  0  0
  161.7400  198.9120  145.5640 F   0  0  0  0  0  0  0  0  0  0  0  0
  160.4370  199.3340  145.7440 C   0  0  0  0  0  2  0  0  0  0  0  0
  161.0280  208.5930  153.4660 O   0  0  0  0  0  0  0  0  0  0  0  0
  160.4670  206.7030  157.1730 C   0  0  0  0  0  3  0  0  0  0  0  0
  160.8690  207.9590  154.7020 C   0  0  0  0  0  0  0  0  0  0  0  0
  159.7130  207.2060  154.9300 C   0  0  0  0  0  3  0  0  0  0  0  0
  161.6300  207.4420  156.9490 C   0  0  0  0  0  3  0  0  0  0  0  0
  159.5110  206.5830  156.1630 C   0  0  0  0  0  3  0  0  0  0  0  0
  161.8330  208.0670  155.7160 C   0  0  0  0  0  3  0  0  0  0  0  0
  1 22  1  6  0  0  0
  1 49  1  0  0  0  0
  1  2  1  0  0  0  0
  2  3  1  0  0  0  0
  4  2  2  0  0  0  0
  5 12  1  6  0  0  0
  5 11  1  0  0  0  0
  5 15  1  0  0  0  0
  5 16  1  0  0  0  0
  6  3  1  1  0  0  0
  6  9  1  0  0  0  0
  9  8  1  6  0  0  0
  9 10  1  0  0  0  0
 10 13  1  6  0  0  0
 11  7  1  6  0  0  0
 11 10  1  0  0  0  0
 14  6  1  0  0  0  0
 14 11  1  0  0  0  0
 15  8  1  1  0  0  0
 15 16  1  0  0  0  0
 17 16  1  0  0  0  0
 17 18  1  0  0  0  0
 18 19  1  0  0  0  0
 20 21  1  0  0  0  0
 21 19  1  0  0  0  0
 23 24  1  0  0  0  0
 24 22  1  0  0  0  0
 25 23  2  0  0  0  0
 26 27  2  0  0  0  0
 27 28  1  0  0  0  0
 27 23  1  0  0  0  0
 29 30  1  0  0  0  0
 31 34  1  0  0  0  0
 31 32  1  0  0  0  0
 32 33  1  0  0  0  0
 33 30  2  0  0  0  0
 34 28  1  6  0  0  0
 34 29  1  0  0  0  0
 35 36  2  0  0  0  0
 36 28  1  0  0  0  0
 37 41  2  0  0  0  0
 39 38  1  0  0  0  0
 40 36  1  0  0  0  0
 41 45  1  0  0  0  0
 42 40  2  0  0  0  0
 43 41  1  0  0  0  0
 43 44  1  0  0  0  0
 44 46  1  1  0  0  0
 44 39  1  0  0  0  0
 45 40  1  0  0  0  0
 45 38  1  0  0  0  0
 46 48  1  0  0  0  0
 47 48  1  0  0  0  0
 49 51  1  0  0  0  0
 51 52  2  0  0  0  0
 51 55  1  0  0  0  0
 52 54  1  0  0  0  0
 53 50  1  0  0  0  0
 54 50  2  0  0  0  0
 55 53  2  0  0  0  0
M  END
>  <MODEL>
2

>  <REMARK>
 VINA RESULT:      -3.4      3.382      6.178
  Name = 
  16 active torsions:
  status: ('A' for Active; 'I' for Inactive)
    1  A    between atoms: C_3  and  C_25
    2  A    between atoms: C_3  and  C_38
    3  A    between atoms: C_4  and  N_37
    4  A    between atoms: C_4  and  C_54
    5  A    between atoms: C_6  and  N_22
    6  A    between atoms: C_8  and  C_54
    7  A    between atoms: N_10  and  C_47
    8  A    between atoms: N_10  and  C_48
    9  A    between atoms: C_19  and  C_35
   10  A    between atoms: C_26  and  N_45
   11  A    between atoms: C_27  and  O_51
   12  A    between atoms: C_29  and  C_38
   13  A    between atoms: C_29  and  N_53
   14  A    between atoms: C_33  and  C_49
   15  A    between atoms: N_45  and  C_49
   16  A    between atoms: O_51  and  C_54
                            x       y       z     vdW  Elec       q    Type
                         _______ _______ _______ _____ _____    ______ ____

>  <TORSDO>
F 16

$$$$
=
 OpenBabel11062408493D

 55 60  0  0  1  0  0  0  0  0999 V2000
  160.6390  208.1050  154.6290 C   0  0  1  0  0  3  0  0  0  0  0  0
  160.5750  208.7650  155.9770 C   0  0  0  0  0  0  0  0  0  0  0  0
  159.6700  209.8380  156.2800 N   0  0  0  0  0  2  0  0  0  0  0  0
  161.2900  208.2960  156.9020 O   0  0  0  0  0  0  0  0  0  0  0  0
  157.3510  212.8390  154.2170 C   0  0  2  0  0  0  0  0  0  0  0  0
  158.9840  210.6510  155.2870 C   0  0  2  0  0  3  0  0  0  0  0  0
  156.9800  213.1450  156.5760 F   0  0  0  0  0  0  0  0  0  0  0  0
  159.6920  212.2540  153.5870 O   0  0  0  0  0  0  0  0  0  0  0  0
  159.8340  211.8780  154.9550 C   0  0  1  0  0  3  0  0  0  0  0  0
  159.2360  212.9400  155.8210 C   0  0  1  0  0  3  0  0  0  0  0  0
  157.8010  212.5200  155.6540 C   0  0  2  0  0  0  0  0  0  0  0  0
  156.0300  212.5630  153.8510 O   0  0  0  0  0  1  0  0  0  0  0  0
  159.6500  212.7760  157.1470 O   0  0  0  0  0  1  0  0  0  0  0  0
  157.7660  211.1220  155.8260 O   0  0  0  0  0  0  0  0  0  0  0  0
  158.3460  212.5240  153.1670 C   0  0  2  0  0  3  0  0  0  0  0  0
  158.0210  213.9380  153.4820 N   0  0  0  0  0  0  0  0  0  0  0  0
  157.2070  214.4200  152.3760 C   0  0  0  0  0  2  0  0  0  0  0  0
  158.0410  214.4530  151.1120 C   0  0  0  0  0  2  0  0  0  0  0  0
  157.3960  213.5790  150.0600 C   0  0  0  0  0  2  0  0  0  0  0  0
  157.5390  212.8790  147.6910 C   0  0  0  0  0  1  0  0  0  0  0  0
  157.9710  213.9210  148.7010 C   0  0  0  0  0  2  0  0  0  0  0  0
  160.9060  209.1480  153.5520 C   0  0  0  0  0  2  0  0  0  0  0  0
  161.5130  208.7270  151.1370 C   0  0  0  0  0  0  0  0  0  0  0  0
  160.6250  208.5820  152.2430 N   0  0  0  0  0  2  0  0  0  0  0  0
  162.4720  209.5480  151.1930 O   0  0  0  0  0  0  0  0  0  0  0  0
  160.7200  206.7720  150.0960 O   0  0  0  0  0  0  0  0  0  0  0  0
  161.3330  207.8650  149.9560 C   0  0  0  0  0  0  0  0  0  0  0  0
  161.8830  208.2160  148.6720 N   0  0  0  0  0  0  0  0  0  0  0  0
  163.2600  210.2260  148.2040 C   0  0  0  0  0  2  0  0  0  0  0  0
  163.2070  211.7220  148.0790 C   0  0  0  0  0  3  0  0  0  0  0  0
  160.7990  210.4470  149.0220 C   0  0  0  0  0  2  0  0  0  0  0  0
  161.3980  211.6650  149.7330 C   0  0  0  0  0  2  0  0  0  0  0  0
  162.3220  212.4080  148.8090 C   0  0  0  0  0  3  0  0  0  0  0  0
  161.8440  209.6210  148.2350 C   0  0  2  0  0  3  0  0  0  0  0  0
  163.5800  206.8300  147.7040 C   0  0  0  0  0  2  0  0  0  0  0  0
  162.2990  207.1770  147.7610 C   0  0  0  0  0  0  0  0  0  0  0  0
  160.8120  205.4770  144.2490 O   0  0  0  0  0  0  0  0  0  0  0  0
  161.8540  204.2110  147.5090 C   0  0  0  0  0  2  0  0  0  0  0  0
  161.0860  202.8980  147.4660 C   0  0  0  0  0  2  0  0  0  0  0  0
  161.3270  206.5690  146.8250 C   0  0  0  0  0  0  0  0  0  0  0  0
  160.9000  204.6850  145.2280 C   0  0  0  0  0  0  0  0  0  0  0  0
  160.4410  207.3070  146.3130 O   0  0  0  0  0  0  0  0  0  0  0  0
  160.4660  203.2610  145.0450 C   0  0  0  0  0  2  0  0  0  0  0  0
  161.1500  202.3340  146.0500 C   0  0  2  0  0  3  0  0  0  0  0  0
  161.3450  205.1610  146.5160 N   0  0  0  0  0  0  0  0  0  0  0  0
  160.6300  200.9650  145.9750 N   0  0  0  0  0  2  0  0  0  0  0  0
  161.8840  199.0410  146.3370 F   0  0  0  0  0  0  0  0  0  0  0  0
  161.2700  200.1050  146.9670 C   0  0  0  0  0  2  0  0  0  0  0  0
  161.6230  207.0760  154.5910 O   0  0  0  0  0  0  0  0  0  0  0  0
  161.6960  204.0670  151.6640 C   0  0  0  0  0  3  0  0  0  0  0  0
  161.6350  206.0560  153.6340 C   0  0  0  0  0  0  0  0  0  0  0  0
  162.7310  205.9510  152.7720 C   0  0  0  0  0  3  0  0  0  0  0  0
  160.6030  204.1560  152.5290 C   0  0  0  0  0  3  0  0  0  0  0  0
  162.7610  204.9620  151.7890 C   0  0  0  0  0  3  0  0  0  0  0  0
  160.5730  205.1470  153.5130 C   0  0  0  0  0  3  0  0  0  0  0  0
  1 22  1  6  0  0  0
  1  2  1  0  0  0  0
  2  3  1  0  0  0  0
  2  4  2  0  0  0  0
  5 12  1  6  0  0  0
  5 11  1  0  0  0  0
  6 14  1  0  0  0  0
  6  3  1  1  0  0  0
  9  8  1  6  0  0  0
  9  6  1  0  0  0  0
  9 10  1  0  0  0  0
 10 13  1  1  0  0  0
 11 10  1  0  0  0  0
 11 14  1  0  0  0  0
 11  7  1  1  0  0  0
 15 16  1  0  0  0  0
 15  8  1  1  0  0  0
 15  5  1  0  0  0  0
 16  5  1  0  0  0  0
 17 16  1  0  0  0  0
 18 17  1  0  0  0  0
 19 18  1  0  0  0  0
 20 21  1  0  0  0  0
 21 19  1  0  0  0  0
 23 25  2  0  0  0  0
 23 24  1  0  0  0  0
 24 22  1  0  0  0  0
 27 26  2  0  0  0  0
 27 23  1  0  0  0  0
 28 27  1  0  0  0  0
 29 34  1  0  0  0  0
 30 29  1  0  0  0  0
 30 33  2  0  0  0  0
 31 32  1  0  0  0  0
 33 32  1  0  0  0  0
 34 28  1  1  0  0  0
 34 31  1  0  0  0  0
 35 36  2  0  0  0  0
 36 28  1  0  0  0  0
 37 41  2  0  0  0  0
 39 38  1  0  0  0  0
 40 36  1  0  0  0  0
 41 45  1  0  0  0  0
 42 40  2  0  0  0  0
 43 41  1  0  0  0  0
 43 44  1  0  0  0  0
 44 46  1  1  0  0  0
 44 39  1  0  0  0  0
 45 40  1  0  0  0  0
 45 38  1  0  0  0  0
 46 48  1  0  0  0  0
 47 48  1  0  0  0  0
 49  1  1  0  0  0  0
 50 54  2  0  0  0  0
 50 53  1  0  0  0  0
 51 49  1  0  0  0  0
 52 51  2  0  0  0  0
 53 55  2  0  0  0  0
 54 52  1  0  0  0  0
 55 51  1  0  0  0  0
M  END
>  <MODEL>
3

>  <REMARK>
 VINA RESULT:      -2.4      2.996      5.379
  Name = 
  16 active torsions:
  status: ('A' for Active; 'I' for Inactive)
    1  A    between atoms: C_3  and  C_25
    2  A    between atoms: C_3  and  C_38
    3  A    between atoms: C_4  and  N_37
    4  A    between atoms: C_4  and  C_54
    5  A    between atoms: C_6  and  N_22
    6  A    between atoms: C_8  and  C_54
    7  A    between atoms: N_10  and  C_47
    8  A    between atoms: N_10  and  C_48
    9  A    between atoms: C_19  and  C_35
   10  A    between atoms: C_26  and  N_45
   11  A    between atoms: C_27  and  O_51
   12  A    between atoms: C_29  and  C_38
   13  A    between atoms: C_29  and  N_53
   14  A    between atoms: C_33  and  C_49
   15  A    between atoms: N_45  and  C_49
   16  A    between atoms: O_51  and  C_54
                            x       y       z     vdW  Elec       q    Type
                         _______ _______ _______ _____ _____    ______ ____

>  <TORSDO>
F 16

$$$$
=
 OpenBabel11062408493D

 55 60  0  0  1  0  0  0  0  0999 V2000
  161.8820  208.2460  140.2170 C   0  0  1  0  0  3  0  0  0  0  0  0
  161.4060  208.0020  138.8130 C   0  0  0  0  0  0  0  0  0  0  0  0
  160.8030  209.0220  138.0030 N   0  0  0  0  0  2  0  0  0  0  0  0
  161.6280  206.8720  138.3000 O   0  0  0  0  0  0  0  0  0  0  0  0
  158.3200  212.4470  138.8640 C   0  0  2  0  0  0  0  0  0  0  0  0
  160.2490  210.2670  138.5140 C   0  0  2  0  0  3  0  0  0  0  0  0
  157.3150  211.2830  137.0110 F   0  0  0  0  0  0  0  0  0  0  0  0
  159.2750  210.9780  140.6370 O   0  0  0  0  0  0  0  0  0  0  0  0
  159.2530  209.9640  139.6340 C   0  0  1  0  0  3  0  0  0  0  0  0
  157.9370  210.0010  138.9270 C   0  0  1  0  0  3  0  0  0  0  0  0
  158.2530  211.1610  138.0220 C   0  0  2  0  0  0  0  0  0  0  0  0
  158.5650  213.6610  138.2150 O   0  0  0  0  0  1  0  0  0  0  0  0
  157.7500  208.8300  138.1860 O   0  0  0  0  0  1  0  0  0  0  0  0
  159.5330  210.9180  137.4850 O   0  0  0  0  0  0  0  0  0  0  0  0
  159.0140  212.3070  140.1640 C   0  0  2  0  0  3  0  0  0  0  0  0
  157.5450  212.5210  140.1260 N   0  0  0  0  0  0  0  0  0  0  0  0
  157.3290  213.8990  140.5440 C   0  0  0  0  0  2  0  0  0  0  0  0
  155.8450  214.2050  140.5230 C   0  0  0  0  0  2  0  0  0  0  0  0
  155.1140  213.1040  139.7870 C   0  0  0  0  0  2  0  0  0  0  0  0
  152.8620  212.0850  139.6930 C   0  0  0  0  0  1  0  0  0  0  0  0
  153.6260  213.3860  139.8110 C   0  0  0  0  0  2  0  0  0  0  0  0
  162.1180  206.9180  140.9230 C   0  0  0  0  0  2  0  0  0  0  0  0
  161.2260  205.9260  143.0680 C   0  0  0  0  0  0  0  0  0  0  0  0
  161.7270  207.0310  142.3190 N   0  0  0  0  0  2  0  0  0  0  0  0
  160.8900  204.8580  142.4810 O   0  0  0  0  0  0  0  0  0  0  0  0
  160.7050  207.0810  145.0490 O   0  0  0  0  0  0  0  0  0  0  0  0
  161.1640  206.0250  144.5360 C   0  0  0  0  0  0  0  0  0  0  0  0
  161.6600  204.9750  145.3880 N   0  0  0  0  0  0  0  0  0  0  0  0
  159.9550  203.3380  144.6330 C   0  0  0  0  0  2  0  0  0  0  0  0
  159.6410  201.8700  144.5580 C   0  0  0  0  0  3  0  0  0  0  0  0
  162.0050  202.5830  146.0470 C   0  0  0  0  0  2  0  0  0  0  0  0
  160.9570  201.6190  146.6120 C   0  0  0  0  0  2  0  0  0  0  0  0
  160.1160  201.0510  145.5020 C   0  0  0  0  0  3  0  0  0  0  0  0
  161.4300  203.5710  145.0050 C   0  0  2  0  0  3  0  0  0  0  0  0
  163.5310  205.3560  146.8350 C   0  0  0  0  0  2  0  0  0  0  0  0
  162.2130  205.3000  146.6810 C   0  0  0  0  0  0  0  0  0  0  0  0
  160.8600  205.0080  150.6210 O   0  0  0  0  0  0  0  0  0  0  0  0
  162.3940  207.6210  148.5870 C   0  0  0  0  0  2  0  0  0  0  0  0
  161.9240  208.8130  149.4080 C   0  0  0  0  0  2  0  0  0  0  0  0
  161.3240  205.4720  147.8520 C   0  0  0  0  0  0  0  0  0  0  0  0
  161.1900  206.1710  150.2550 C   0  0  0  0  0  0  0  0  0  0  0  0
  160.2650  204.7890  147.9110 O   0  0  0  0  0  0  0  0  0  0  0  0
  161.0580  207.2990  151.2350 C   0  0  0  0  0  2  0  0  0  0  0  0
  161.9990  208.4530  150.8890 C   0  0  2  0  0  3  0  0  0  0  0  0
  161.6200  206.4170  148.9000 N   0  0  0  0  0  0  0  0  0  0  0  0
  161.7790  209.6170  151.7540 N   0  0  0  0  0  2  0  0  0  0  0  0
  159.8160  210.3630  152.7510 F   0  0  0  0  0  0  0  0  0  0  0  0
  160.7480  209.3440  152.7510 C   0  0  0  0  0  2  0  0  0  0  0  0
  163.0600  209.0490  140.2430 O   0  0  0  0  0  0  0  0  0  0  0  0
  162.9240  213.2420  140.0850 C   0  0  0  0  0  3  0  0  0  0  0  0
  163.0400  210.4460  140.1790 C   0  0  0  0  0  0  0  0  0  0  0  0
  162.4240  211.1610  141.2110 C   0  0  0  0  0  3  0  0  0  0  0  0
  163.5520  212.5370  139.0570 C   0  0  0  0  0  3  0  0  0  0  0  0
  162.3640  212.5540  141.1630 C   0  0  0  0  0  3  0  0  0  0  0  0
  163.6120  211.1420  139.1030 C   0  0  0  0  0  3  0  0  0  0  0  0
  1 49  1  0  0  0  0
  1 22  1  6  0  0  0
  2  1  1  0  0  0  0
  3  2  1  0  0  0  0
  4  2  2  0  0  0  0
  5 12  1  6  0  0  0
  5 16  1  0  0  0  0
  5 15  1  0  0  0  0
  6  3  1  6  0  0  0
  6  9  1  0  0  0  0
  9  8  1  1  0  0  0
 10 13  1  6  0  0  0
 10  9  1  0  0  0  0
 11  7  1  6  0  0  0
 11  5  1  0  0  0  0
 11 10  1  0  0  0  0
 14 11  1  0  0  0  0
 14  6  1  0  0  0  0
 15  8  1  6  0  0  0
 16 15  1  0  0  0  0
 16 17  1  0  0  0  0
 18 17  1  0  0  0  0
 19 21  1  0  0  0  0
 19 18  1  0  0  0  0
 20 21  1  0  0  0  0
 22 24  1  0  0  0  0
 23 27  1  0  0  0  0
 24 23  1  0  0  0  0
 25 23  2  0  0  0  0
 27 26  2  0  0  0  0
 27 28  1  0  0  0  0
 28 36  1  0  0  0  0
 29 34  1  0  0  0  0
 30 29  1  0  0  0  0
 30 33  2  0  0  0  0
 31 32  1  0  0  0  0
 33 32  1  0  0  0  0
 34 28  1  1  0  0  0
 34 31  1  0  0  0  0
 36 35  2  0  0  0  0
 36 40  1  0  0  0  0
 38 45  1  0  0  0  0
 38 39  1  0  0  0  0
 39 44  1  0  0  0  0
 40 42  2  0  0  0  0
 40 45  1  0  0  0  0
 41 37  2  0  0  0  0
 41 43  1  0  0  0  0
 44 43  1  0  0  0  0
 44 46  1  1  0  0  0
 45 41  1  0  0  0  0
 46 48  1  0  0  0  0
 47 48  1  0  0  0  0
 50 54  1  0  0  0  0
 51 49  1  0  0  0  0
 51 52  1  0  0  0  0
 53 55  1  0  0  0  0
 53 50  2  0  0  0  0
 54 52  2  0  0  0  0
 55 51  2  0  0  0  0
M  END
>  <MODEL>
4

>  <REMARK>
 VINA RESULT:      -2.3      4.671     10.103
  Name = 
  16 active torsions:
  status: ('A' for Active; 'I' for Inactive)
    1  A    between atoms: C_3  and  C_25
    2  A    between atoms: C_3  and  C_38
    3  A    between atoms: C_4  and  N_37
    4  A    between atoms: C_4  and  C_54
    5  A    between atoms: C_6  and  N_22
    6  A    between atoms: C_8  and  C_54
    7  A    between atoms: N_10  and  C_47
    8  A    between atoms: N_10  and  C_48
    9  A    between atoms: C_19  and  C_35
   10  A    between atoms: C_26  and  N_45
   11  A    between atoms: C_27  and  O_51
   12  A    between atoms: C_29  and  C_38
   13  A    between atoms: C_29  and  N_53
   14  A    between atoms: C_33  and  C_49
   15  A    between atoms: N_45  and  C_49
   16  A    between atoms: O_51  and  C_54
                            x       y       z     vdW  Elec       q    Type
                         _______ _______ _______ _____ _____    ______ ____

>  <TORSDO>
F 16

$$$$
=
 OpenBabel11062408493D

 55 60  0  0  1  0  0  0  0  0999 V2000
  159.9530  213.0540  150.1200 C   0  0  1  0  0  3  0  0  0  0  0  0
  158.5060  213.2520  150.4710 C   0  0  0  0  0  0  0  0  0  0  0  0
  158.0230  213.2600  151.8230 N   0  0  0  0  0  2  0  0  0  0  0  0
  157.6980  213.5070  149.5370 O   0  0  0  0  0  0  0  0  0  0  0  0
  159.3510  212.1460  155.7770 C   0  0  2  0  0  0  0  0  0  0  0  0
  158.7520  212.7350  152.9680 C   0  0  2  0  0  3  0  0  0  0  0  0
  157.4990  213.6610  156.0440 F   0  0  0  0  0  0  0  0  0  0  0  0
  159.1120  210.5120  153.9090 O   0  0  0  0  0  0  0  0  0  0  0  0
  158.1250  211.4140  153.4120 C   0  0  1  0  0  3  0  0  0  0  0  0
  157.2310  211.8310  154.5350 C   0  0  1  0  0  3  0  0  0  0  0  0
  158.1540  212.8630  155.1250 C   0  0  2  0  0  0  0  0  0  0  0  0
  160.3220  212.9170  156.4240 O   0  0  0  0  0  1  0  0  0  0  0  0
  156.0720  212.4320  154.0340 O   0  0  0  0  0  1  0  0  0  0  0  0
  158.6370  213.6360  154.0500 O   0  0  0  0  0  0  0  0  0  0  0  0
  159.9000  211.0140  154.9990 C   0  0  2  0  0  3  0  0  0  0  0  0
  159.1760  210.7600  156.2700 N   0  0  0  0  0  0  0  0  0  0  0  0
  160.1930  210.4050  157.2480 C   0  0  0  0  0  2  0  0  0  0  0  0
  160.6720  208.9910  156.9890 C   0  0  0  0  0  2  0  0  0  0  0  0
  162.1580  208.9050  157.2600 C   0  0  0  0  0  2  0  0  0  0  0  0
  163.2170  210.6500  155.8630 C   0  0  0  0  0  1  0  0  0  0  0  0
  162.7500  210.3000  157.2590 C   0  0  0  0  0  2  0  0  0  0  0  0
  160.7130  212.5260  151.3290 C   0  0  0  0  0  2  0  0  0  0  0  0
  161.6450  210.1870  151.1270 C   0  0  0  0  0  0  0  0  0  0  0  0
  160.5690  211.0810  151.4030 N   0  0  0  0  0  2  0  0  0  0  0  0
  162.7040  210.6130  150.5870 O   0  0  0  0  0  0  0  0  0  0  0  0
  161.1620  208.5200  152.7150 O   0  0  0  0  0  0  0  0  0  0  0  0
  161.5270  208.7770  151.5360 C   0  0  0  0  0  0  0  0  0  0  0  0
  161.8660  207.6990  150.6430 N   0  0  0  0  0  0  0  0  0  0  0  0
  160.3720  206.8230  148.8660 C   0  0  0  0  0  2  0  0  0  0  0  0
  160.2180  206.6860  147.3780 C   0  0  0  0  0  3  0  0  0  0  0  0
  162.7430  207.7320  148.2960 C   0  0  0  0  0  2  0  0  0  0  0  0
  162.6660  206.6020  147.2650 C   0  0  0  0  0  2  0  0  0  0  0  0
  161.3110  206.5790  146.6140 C   0  0  0  0  0  3  0  0  0  0  0  0
  161.5030  207.8050  149.2190 C   0  0  2  0  0  3  0  0  0  0  0  0
  163.7040  206.3190  151.3180 C   0  0  0  0  0  2  0  0  0  0  0  0
  162.3920  206.4650  151.1740 C   0  0  0  0  0  0  0  0  0  0  0  0
  158.8870  204.1950  151.2370 O   0  0  0  0  0  0  0  0  0  0  0  0
  161.9890  204.1320  149.3150 C   0  0  0  0  0  2  0  0  0  0  0  0
  161.9160  202.6800  148.8690 C   0  0  0  0  0  2  0  0  0  0  0  0
  161.4860  205.3300  151.4640 C   0  0  0  0  0  0  0  0  0  0  0  0
  159.8080  203.7320  150.5080 C   0  0  0  0  0  0  0  0  0  0  0  0
  161.0780  205.1710  152.6470 O   0  0  0  0  0  0  0  0  0  0  0  0
  159.5680  202.4490  149.7690 C   0  0  0  0  0  2  0  0  0  0  0  0
  160.4670  202.3360  148.5380 C   0  0  2  0  0  3  0  0  0  0  0  0
  161.0900  204.3910  150.4440 N   0  0  0  0  0  0  0  0  0  0  0  0
  160.3420  201.0270  147.8870 N   0  0  0  0  0  2  0  0  0  0  0  0
  161.7870  199.6150  146.7370 F   0  0  0  0  0  0  0  0  0  0  0  0
  161.6090  200.3010  147.9220 C   0  0  0  0  0  2  0  0  0  0  0  0
  160.1110  212.1830  149.0030 O   0  0  0  0  0  0  0  0  0  0  0  0
  162.2500  213.1620  145.5250 C   0  0  0  0  0  3  0  0  0  0  0  0
  160.8430  212.5220  147.8600 C   0  0  0  0  0  0  0  0  0  0  0  0
  160.1530  212.8190  146.6810 C   0  0  0  0  0  3  0  0  0  0  0  0
  162.9460  212.8800  146.7030 C   0  0  0  0  0  3  0  0  0  0  0  0
  160.8540  213.1350  145.5160 C   0  0  0  0  0  3  0  0  0  0  0  0
  162.2450  212.5630  147.8680 C   0  0  0  0  0  3  0  0  0  0  0  0
  1  2  1  0  0  0  0
  1 22  1  1  0  0  0
  2  3  1  0  0  0  0
  4  2  2  0  0  0  0
  5 16  1  0  0  0  0
  5 12  1  1  0  0  0
  6  3  1  6  0  0  0
  6  9  1  0  0  0  0
  6 14  1  0  0  0  0
  9  8  1  1  0  0  0
  9 10  1  0  0  0  0
 10 13  1  6  0  0  0
 10 11  1  0  0  0  0
 11  5  1  0  0  0  0
 11  7  1  1  0  0  0
 14 11  1  0  0  0  0
 15  8  1  6  0  0  0
 15  5  1  0  0  0  0
 15 16  1  0  0  0  0
 16 17  1  0  0  0  0
 18 17  1  0  0  0  0
 18 19  1  0  0  0  0
 20 21  1  0  0  0  0
 21 19  1  0  0  0  0
 22 24  1  0  0  0  0
 23 24  1  0  0  0  0
 23 27  1  0  0  0  0
 25 23  2  0  0  0  0
 27 26  2  0  0  0  0
 28 36  1  0  0  0  0
 28 27  1  0  0  0  0
 29 34  1  0  0  0  0
 30 29  1  0  0  0  0
 31 34  1  0  0  0  0
 32 31  1  0  0  0  0
 33 32  1  0  0  0  0
 33 30  2  0  0  0  0
 34 28  1  1  0  0  0
 36 35  2  0  0  0  0
 36 40  1  0  0  0  0
 38 45  1  0  0  0  0
 39 38  1  0  0  0  0
 40 42  2  0  0  0  0
 41 37  2  0  0  0  0
 43 41  1  0  0  0  0
 44 46  1  1  0  0  0
 44 39  1  0  0  0  0
 44 43  1  0  0  0  0
 45 41  1  0  0  0  0
 45 40  1  0  0  0  0
 46 48  1  0  0  0  0
 47 48  1  0  0  0  0
 49  1  1  0  0  0  0
 50 53  1  0  0  0  0
 51 55  1  0  0  0  0
 51 49  1  0  0  0  0
 52 51  2  0  0  0  0
 53 55  2  0  0  0  0
 54 50  2  0  0  0  0
 54 52  1  0  0  0  0
M  END
>  <MODEL>
5

>  <REMARK>
 VINA RESULT:      -1.9      2.716      7.085
  Name = 
  16 active torsions:
  status: ('A' for Active; 'I' for Inactive)
    1  A    between atoms: C_3  and  C_25
    2  A    between atoms: C_3  and  C_38
    3  A    between atoms: C_4  and  N_37
    4  A    between atoms: C_4  and  C_54
    5  A    between atoms: C_6  and  N_22
    6  A    between atoms: C_8  and  C_54
    7  A    between atoms: N_10  and  C_47
    8  A    between atoms: N_10  and  C_48
    9  A    between atoms: C_19  and  C_35
   10  A    between atoms: C_26  and  N_45
   11  A    between atoms: C_27  and  O_51
   12  A    between atoms: C_29  and  C_38
   13  A    between atoms: C_29  and  N_53
   14  A    between atoms: C_33  and  C_49
   15  A    between atoms: N_45  and  C_49
   16  A    between atoms: O_51  and  C_54
                            x       y       z     vdW  Elec       q    Type
                         _______ _______ _______ _____ _____    ______ ____

>  <TORSDO>
F 16

$$$$
=
 OpenBabel11062408493D

 55 60  0  0  1  0  0  0  0  0999 V2000
  161.7810  207.9120  140.3680 C   0  0  1  0  0  3  0  0  0  0  0  0
  161.8700  207.5980  138.9020 C   0  0  0  0  0  0  0  0  0  0  0  0
  160.8970  208.0450  137.9460 N   0  0  0  0  0  2  0  0  0  0  0  0
  162.8910  206.9870  138.4870 O   0  0  0  0  0  0  0  0  0  0  0  0
  157.4570  210.4110  139.0430 C   0  0  2  0  0  0  0  0  0  0  0  0
  159.5620  208.5190  138.2800 C   0  0  2  0  0  3  0  0  0  0  0  0
  159.4070  211.7830  139.3830 F   0  0  0  0  0  0  0  0  0  0  0  0
  157.5260  208.9690  137.0110 O   0  0  0  0  0  0  0  0  0  0  0  0
  158.9350  209.1870  137.0560 C   0  0  1  0  0  3  0  0  0  0  0  0
  159.2000  210.6380  137.2980 C   0  0  1  0  0  3  0  0  0  0  0  0
  158.9600  210.6190  138.7840 C   0  0  2  0  0  0  0  0  0  0  0  0
  157.0010  210.3990  140.3650 O   0  0  0  0  0  1  0  0  0  0  0  0
  160.5350  210.9420  137.0150 O   0  0  0  0  0  1  0  0  0  0  0  0
  159.6530  209.5010  139.2910 O   0  0  0  0  0  0  0  0  0  0  0  0
  156.8050  209.4090  138.1710 C   0  0  2  0  0  3  0  0  0  0  0  0
  156.4830  210.8500  138.0160 N   0  0  0  0  0  0  0  0  0  0  0  0
  155.1520  211.0280  138.5780 C   0  0  0  0  0  2  0  0  0  0  0  0
  154.3900  212.0490  137.7580 C   0  0  0  0  0  2  0  0  0  0  0  0
  153.5930  212.9430  138.6820 C   0  0  0  0  0  2  0  0  0  0  0  0
  152.7800  213.1870  141.0060 C   0  0  0  0  0  1  0  0  0  0  0  0
  153.7710  212.4740  140.1120 C   0  0  0  0  0  2  0  0  0  0  0  0
  161.9370  206.6350  141.1830 C   0  0  0  0  0  2  0  0  0  0  0  0
  161.3110  205.7880  143.4790 C   0  0  0  0  0  0  0  0  0  0  0  0
  161.2650  206.7880  142.4640 N   0  0  0  0  0  2  0  0  0  0  0  0
  161.7490  204.6330  143.2150 O   0  0  0  0  0  0  0  0  0  0  0  0
  160.0850  207.0890  145.0080 O   0  0  0  0  0  0  0  0  0  0  0  0
  160.8980  206.1390  144.8490 C   0  0  0  0  0  0  0  0  0  0  0  0
  161.4380  205.4600  145.9980 N   0  0  0  0  0  0  0  0  0  0  0  0
  160.4710  203.2970  145.2630 C   0  0  0  0  0  2  0  0  0  0  0  0
  160.5320  201.8120  145.4810 C   0  0  0  0  0  3  0  0  0  0  0  0
  162.0780  203.4220  147.3060 C   0  0  0  0  0  2  0  0  0  0  0  0
  161.1460  202.3110  147.8020 C   0  0  0  0  0  2  0  0  0  0  0  0
  160.8510  201.3410  146.6910 C   0  0  0  0  0  3  0  0  0  0  0  0
  161.6610  204.0060  145.9360 C   0  0  2  0  0  3  0  0  0  0  0  0
  162.5630  207.0620  147.3810 C   0  0  0  0  0  2  0  0  0  0  0  0
  161.5870  206.1700  147.2460 C   0  0  0  0  0  0  0  0  0  0  0  0
  159.9950  203.9610  150.4120 O   0  0  0  0  0  0  0  0  0  0  0  0
  162.3330  206.7460  150.1050 C   0  0  0  0  0  2  0  0  0  0  0  0
  162.1860  207.2850  151.5200 C   0  0  0  0  0  2  0  0  0  0  0  0
  160.7250  205.8390  148.4030 C   0  0  0  0  0  0  0  0  0  0  0  0
  160.6680  204.9730  150.7540 C   0  0  0  0  0  0  0  0  0  0  0  0
  159.5110  205.5680  148.1910 O   0  0  0  0  0  0  0  0  0  0  0  0
  160.8180  205.2800  152.2150 C   0  0  0  0  0  2  0  0  0  0  0  0
  162.0710  206.1100  152.4870 C   0  0  2  0  0  3  0  0  0  0  0  0
  161.2250  205.8520  149.7550 N   0  0  0  0  0  0  0  0  0  0  0  0
  162.1540  206.5360  153.8880 N   0  0  0  0  0  2  0  0  0  0  0  0
  160.9710  207.6660  155.5390 F   0  0  0  0  0  0  0  0  0  0  0  0
  160.8350  206.8830  154.4100 C   0  0  0  0  0  2  0  0  0  0  0  0
  162.7470  208.8840  140.7600 O   0  0  0  0  0  0  0  0  0  0  0  0
  162.4890  212.9220  139.6400 C   0  0  0  0  0  3  0  0  0  0  0  0
  162.6870  210.2270  140.3760 C   0  0  0  0  0  0  0  0  0  0  0  0
  162.0250  211.1380  141.2060 C   0  0  0  0  0  3  0  0  0  0  0  0
  163.1630  212.0220  138.8120 C   0  0  0  0  0  3  0  0  0  0  0  0
  161.9240  212.4800  140.8380 C   0  0  0  0  0  3  0  0  0  0  0  0
  163.2640  210.6780  139.1780 C   0  0  0  0  0  3  0  0  0  0  0  0
  1 49  1  0  0  0  0
  1 22  1  1  0  0  0
  2  1  1  0  0  0  0
  3  2  1  0  0  0  0
  4  2  2  0  0  0  0
  5 12  1  1  0  0  0
  6  3  1  6  0  0  0
  6 14  1  0  0  0  0
  9  8  1  1  0  0  0
  9 10  1  0  0  0  0
  9  6  1  0  0  0  0
 10 13  1  1  0  0  0
 10 11  1  0  0  0  0
 11  5  1  0  0  0  0
 11 14  1  0  0  0  0
 11  7  1  1  0  0  0
 15  8  1  6  0  0  0
 15  5  1  0  0  0  0
 16 15  1  0  0  0  0
 16 17  1  0  0  0  0
 16  5  1  0  0  0  0
 18 17  1  0  0  0  0
 18 19  1  0  0  0  0
 19 21  1  0  0  0  0
 21 20  1  0  0  0  0
 22 24  1  0  0  0  0
 23 27  1  0  0  0  0
 24 23  1  0  0  0  0
 25 23  2  0  0  0  0
 27 26  2  0  0  0  0
 27 28  1  0  0  0  0
 28 36  1  0  0  0  0
 29 30  1  0  0  0  0
 29 34  1  0  0  0  0
 30 33  2  0  0  0  0
 31 32  1  0  0  0  0
 33 32  1  0  0  0  0
 34 28  1  1  0  0  0
 34 31  1  0  0  0  0
 36 35  2  0  0  0  0
 36 40  1  0  0  0  0
 37 41  2  0  0  0  0
 38 39  1  0  0  0  0
 39 44  1  0  0  0  0
 40 45  1  0  0  0  0
 41 43  1  0  0  0  0
 42 40  2  0  0  0  0
 43 44  1  0  0  0  0
 44 46  1  1  0  0  0
 45 38  1  0  0  0  0
 45 41  1  0  0  0  0
 46 48  1  0  0  0  0
 48 47  1  0  0  0  0
 50 54  1  0  0  0  0
 51 49  1  0  0  0  0
 51 52  1  0  0  0  0
 53 55  1  0  0  0  0
 53 50  2  0  0  0  0
 54 52  2  0  0  0  0
 55 51  2  0  0  0  0
M  END
>  <MODEL>
6

>  <REMARK>
 VINA RESULT:      -1.8      5.140     10.326
  Name = 
  16 active torsions:
  status: ('A' for Active; 'I' for Inactive)
    1  A    between atoms: C_3  and  C_25
    2  A    between atoms: C_3  and  C_38
    3  A    between atoms: C_4  and  N_37
    4  A    between atoms: C_4  and  C_54
    5  A    between atoms: C_6  and  N_22
    6  A    between atoms: C_8  and  C_54
    7  A    between atoms: N_10  and  C_47
    8  A    between atoms: N_10  and  C_48
    9  A    between atoms: C_19  and  C_35
   10  A    between atoms: C_26  and  N_45
   11  A    between atoms: C_27  and  O_51
   12  A    between atoms: C_29  and  C_38
   13  A    between atoms: C_29  and  N_53
   14  A    between atoms: C_33  and  C_49
   15  A    between atoms: N_45  and  C_49
   16  A    between atoms: O_51  and  C_54
                            x       y       z     vdW  Elec       q    Type
                         _______ _______ _______ _____ _____    ______ ____

>  <TORSDO>
F 16

$$$$
=
 OpenBabel11062408493D

 55 60  0  0  1  0  0  0  0  0999 V2000
  160.6890  210.4390  152.0130 C   0  0  1  0  0  3  0  0  0  0  0  0
  162.0860  210.9100  151.7290 C   0  0  0  0  0  0  0  0  0  0  0  0
  162.4080  211.7960  150.6460 N   0  0  0  0  0  2  0  0  0  0  0  0
  162.9990  210.5780  152.5320 O   0  0  0  0  0  0  0  0  0  0  0  0
  160.7040  213.1770  146.9280 C   0  0  2  0  0  0  0  0  0  0  0  0
  161.5460  212.0560  149.5020 C   0  0  2  0  0  3  0  0  0  0  0  0
  162.7270  214.4310  147.2970 F   0  0  0  0  0  0  0  0  0  0  0  0
  160.8300  210.7680  147.5570 O   0  0  0  0  0  0  0  0  0  0  0  0
  161.9590  211.1590  148.3360 C   0  0  1  0  0  3  0  0  0  0  0  0
  162.8320  212.0560  147.5190 C   0  0  1  0  0  3  0  0  0  0  0  0
  162.0250  213.3120  147.7080 C   0  0  2  0  0  0  0  0  0  0  0  0
  159.8110  214.2530  146.9320 O   0  0  0  0  0  1  0  0  0  0  0  0
  164.0910  212.1820  148.1150 O   0  0  0  0  0  1  0  0  0  0  0  0
  161.7180  213.3940  149.0810 O   0  0  0  0  0  0  0  0  0  0  0  0
  160.0540  211.8520  147.0250 C   0  0  2  0  0  3  0  0  0  0  0  0
  160.6580  212.2900  145.7420 N   0  0  0  0  0  0  0  0  0  0  0  0
  159.5450  212.6210  144.8650 C   0  0  0  0  0  2  0  0  0  0  0  0
  160.0780  213.1550  143.5510 C   0  0  0  0  0  2  0  0  0  0  0  0
  160.0640  212.0510  142.5170 C   0  0  0  0  0  2  0  0  0  0  0  0
  160.1910  214.0960  141.1310 C   0  0  0  0  0  1  0  0  0  0  0  0
  159.7660  212.6440  141.1550 C   0  0  0  0  0  2  0  0  0  0  0  0
  160.6230  208.9210  151.9150 C   0  0  0  0  0  2  0  0  0  0  0  0
  162.1660  207.2940  150.7510 C   0  0  0  0  0  0  0  0  0  0  0  0
  161.3660  208.4750  150.7470 N   0  0  0  0  0  2  0  0  0  0  0  0
  162.4400  206.7140  151.8390 O   0  0  0  0  0  0  0  0  0  0  0  0
  163.7180  207.1140  148.9920 O   0  0  0  0  0  0  0  0  0  0  0  0
  162.6150  206.7290  149.4660 C   0  0  0  0  0  0  0  0  0  0  0  0
  161.8050  205.7980  148.7250 N   0  0  0  0  0  0  0  0  0  0  0  0
  160.1210  205.3960  150.5020 C   0  0  0  0  0  2  0  0  0  0  0  0
  159.6010  204.3610  151.4600 C   0  0  0  0  0  3  0  0  0  0  0  0
  161.9750  203.6430  149.9890 C   0  0  0  0  0  2  0  0  0  0  0  0
  161.8760  203.4510  151.5060 C   0  0  0  0  0  2  0  0  0  0  0  0
  160.4370  203.4350  151.9400 C   0  0  0  0  0  3  0  0  0  0  0  0
  161.0520  204.7630  149.4520 C   0  0  2  0  0  3  0  0  0  0  0  0
  162.9030  206.3490  146.6670 C   0  0  0  0  0  2  0  0  0  0  0  0
  161.8750  205.7750  147.2830 C   0  0  0  0  0  0  0  0  0  0  0  0
  159.7950  204.3570  143.9520 O   0  0  0  0  0  0  0  0  0  0  0  0
  161.5290  202.8280  146.7760 C   0  0  0  0  0  2  0  0  0  0  0  0
  160.8310  201.4770  146.7290 C   0  0  0  0  0  2  0  0  0  0  0  0
  160.7640  205.2030  146.4890 C   0  0  0  0  0  0  0  0  0  0  0  0
  160.1140  203.4730  144.7960 C   0  0  0  0  0  0  0  0  0  0  0  0
  159.7600  205.9280  146.2490 O   0  0  0  0  0  0  0  0  0  0  0  0
  159.7200  202.0500  144.5350 C   0  0  0  0  0  2  0  0  0  0  0  0
  160.6350  201.0720  145.2720 C   0  0  2  0  0  3  0  0  0  0  0  0
  160.7870  203.8410  146.0190 N   0  0  0  0  0  0  0  0  0  0  0  0
  160.1750  199.6850  145.1390 N   0  0  0  0  0  2  0  0  0  0  0  0
  160.7810  197.4870  145.5950 F   0  0  0  0  0  0  0  0  0  0  0  0
  161.2790  198.7460  145.3250 C   0  0  0  0  0  2  0  0  0  0  0  0
  160.2300  210.8840  153.2860 O   0  0  0  0  0  0  0  0  0  0  0  0
  156.9270  213.4300  153.7700 C   0  0  0  0  0  3  0  0  0  0  0  0
  159.1140  211.7100  153.4570 C   0  0  0  0  0  0  0  0  0  0  0  0
  158.8980  212.7480  152.5450 C   0  0  0  0  0  3  0  0  0  0  0  0
  157.1290  212.3880  154.6780 C   0  0  0  0  0  3  0  0  0  0  0  0
  157.8090  213.6070  152.7020 C   0  0  0  0  0  3  0  0  0  0  0  0
  158.2180  211.5280  154.5210 C   0  0  0  0  0  3  0  0  0  0  0  0
  1 22  1  1  0  0  0
  1 49  1  0  0  0  0
  2  1  1  0  0  0  0
  2  4  2  0  0  0  0
  3  2  1  0  0  0  0
  5 12  1  6  0  0  0
  5 15  1  0  0  0  0
  5 11  1  0  0  0  0
  6  3  1  1  0  0  0
  9  8  1  6  0  0  0
  9  6  1  0  0  0  0
 10 11  1  0  0  0  0
 10 13  1  1  0  0  0
 10  9  1  0  0  0  0
 11  7  1  6  0  0  0
 11 14  1  0  0  0  0
 14  6  1  0  0  0  0
 15  8  1  1  0  0  0
 16  5  1  0  0  0  0
 16 15  1  0  0  0  0
 17 16  1  0  0  0  0
 18 17  1  0  0  0  0
 19 18  1  0  0  0  0
 20 21  1  0  0  0  0
 21 19  1  0  0  0  0
 23 25  2  0  0  0  0
 24 23  1  0  0  0  0
 24 22  1  0  0  0  0
 26 27  2  0  0  0  0
 27 23  1  0  0  0  0
 28 27  1  0  0  0  0
 29 30  1  0  0  0  0
 30 33  2  0  0  0  0
 31 32  1  0  0  0  0
 32 33  1  0  0  0  0
 34 28  1  1  0  0  0
 34 31  1  0  0  0  0
 34 29  1  0  0  0  0
 35 36  2  0  0  0  0
 36 28  1  0  0  0  0
 37 41  2  0  0  0  0
 39 38  1  0  0  0  0
 40 36  1  0  0  0  0
 41 45  1  0  0  0  0
 42 40  2  0  0  0  0
 43 41  1  0  0  0  0
 43 44  1  0  0  0  0
 44 46  1  1  0  0  0
 44 39  1  0  0  0  0
 45 40  1  0  0  0  0
 45 38  1  0  0  0  0
 46 48  1  0  0  0  0
 48 47  1  0  0  0  0
 49 51  1  0  0  0  0
 50 53  1  0  0  0  0
 51 55  1  0  0  0  0
 52 54  1  0  0  0  0
 52 51  2  0  0  0  0
 54 50  2  0  0  0  0
 55 53  2  0  0  0  0
M  END
>  <MODEL>
7

>  <REMARK>
 VINA RESULT:      -1.5      1.983      2.942
  Name = 
  16 active torsions:
  status: ('A' for Active; 'I' for Inactive)
    1  A    between atoms: C_3  and  C_25
    2  A    between atoms: C_3  and  C_38
    3  A    between atoms: C_4  and  N_37
    4  A    between atoms: C_4  and  C_54
    5  A    between atoms: C_6  and  N_22
    6  A    between atoms: C_8  and  C_54
    7  A    between atoms: N_10  and  C_47
    8  A    between atoms: N_10  and  C_48
    9  A    between atoms: C_19  and  C_35
   10  A    between atoms: C_26  and  N_45
   11  A    between atoms: C_27  and  O_51
   12  A    between atoms: C_29  and  C_38
   13  A    between atoms: C_29  and  N_53
   14  A    between atoms: C_33  and  C_49
   15  A    between atoms: N_45  and  C_49
   16  A    between atoms: O_51  and  C_54
                            x       y       z     vdW  Elec       q    Type
                         _______ _______ _______ _____ _____    ______ ____

>  <TORSDO>
F 16

$$$$
