=
 OpenBabel11052421493D

 30 31  0  0  1  0  0  0  0  0999 V2000
  160.1530  208.9370  154.0110 C   0  0  0  0  0  0  0  0  0  0  0  0
  158.9740  210.2940  155.7330 C   0  0  2  0  0  3  0  0  0  0  0  0
  159.7610  209.9670  152.9980 C   0  0  0  0  0  2  0  0  0  0  0  0
  159.2690  213.1240  153.7850 N   0  0  0  0  0  0  0  0  0  0  0  0
  160.1880  212.1280  154.3050 C   0  0  2  0  0  3  0  0  0  0  0  0
  160.2140  212.0820  151.9820 N   0  0  0  0  0  2  0  0  0  0  0  0
  160.5860  211.2420  153.1080 C   0  0  2  0  0  3  0  0  0  0  0  0
  159.8080  211.5850  155.6960 C   0  0  2  0  0  3  0  0  0  0  0  0
  158.6310  213.9800  151.6660 N   0  0  0  0  0  1  0  0  0  0  0  0
  159.3690  213.0970  152.5010 C   0  0  0  0  0  0  0  0  0  0  0  0
  159.7240  209.0590  155.2860 C   0  0  2  0  0  3  0  0  0  0  0  0
  161.3960  207.4880  152.2880 C   0  0  0  0  0  0  0  0  0  0  0  0
  161.0760  208.1980  151.2980 O   0  0  0  0  0  0  0  0  0  0  0  0
  160.9560  207.8120  153.6130 N   0  0  0  0  0  0  0  0  0  0  0  0
  162.2170  206.2670  152.0750 C   0  0  0  0  0  2  0  0  0  0  0  0
  161.3550  205.0900  152.0770 N   0  0  0  0  0  2  0  0  0  0  0  0
  160.5030  205.2100  149.8790 O   0  0  0  0  0  1  0  0  0  0  0  0
  160.8760  203.0280  150.8070 C   0  0  0  0  0  1  0  0  0  0  0  0
  161.3210  204.4810  150.7470 C   0  0  2  0  0  3  0  0  0  0  0  0
  159.9930  208.0350  156.3310 C   0  0  0  0  0  0  0  0  0  0  0  0
  161.0150  208.1880  157.2610 O   0  0  0  0  0  1  0  0  0  0  0  0
  159.2890  206.9920  156.3780 O   0  0  0  0  0  0  0  0  0  0  0  0
  161.2410  212.7400  157.2600 O   0  0  0  0  0  1  0  0  0  0  0  0
  161.0290  211.5130  156.6260 C   0  0  2  0  0  3  0  0  0  0  0  0
  162.3010  211.0880  155.8910 C   0  0  0  0  0  2  0  0  0  0  0  0
  163.4200  210.7280  156.8550 C   0  0  0  0  0  1  0  0  0  0  0  0
  157.3150  210.4600  154.9870 S   0  0  0  0  0  0  0  0  0  0  0  0
  156.3110  212.9900  155.1970 C   0  0  0  0  0  1  0  0  0  0  0  0
  156.8730  211.8680  156.0460 C   0  0  0  0  0  3  0  0  0  0  0  0
  155.8290  211.4310  157.0500 C   0  0  0  0  0  1  0  0  0  0  0  0
  1 11  1  0  0  0  0
  2 27  1  6  0  0  0
  3  1  1  0  0  0  0
  5  4  1  6  0  0  0
  5  8  1  0  0  0  0
  6 10  1  0  0  0  0
  6  7  1  0  0  0  0
  7  3  1  6  0  0  0
  7  5  1  0  0  0  0
  8  2  1  0  0  0  0
  8 24  1  1  0  0  0
  9 10  1  0  0  0  0
 10  4  2  0  0  0  0
 11  2  1  0  0  0  0
 11 20  1  1  0  0  0
 12 14  1  0  0  0  0
 13 12  2  0  0  0  0
 14  1  2  0  0  0  0
 15 16  1  0  0  0  0
 15 12  1  0  0  0  0
 17 19  1  0  0  0  0
 19 18  1  1  0  0  0
 19 16  1  0  0  0  0
 20 22  2  0  0  0  0
 20 21  1  0  0  0  0
 24 23  1  6  0  0  0
 25 24  1  0  0  0  0
 25 26  1  0  0  0  0
 27 29  1  0  0  0  0
 28 29  1  0  0  0  0
 29 30  1  0  0  0  0
M  END
>  <MODEL>
1

>  <REMARK>
 VINA RESULT:      -4.6      0.000      0.000
  Name = 
  9 active torsions:
  status: ('A' for Active; 'I' for Inactive)
    1  A    between atoms: C_1  and  N_22
    2  A    between atoms: C_2  and  C_14
    3  A    between atoms: C_4  and  S_25
    4  A    between atoms: C_7  and  C_30
    5  A    between atoms: C_10  and  C_23
    6  A    between atoms: C_11  and  S_25
    7  A    between atoms: C_13  and  C_30
    8  A    between atoms: C_14  and  N_28
    9  A    between atoms: N_28  and  C_29
                            x       y       z     vdW  Elec       q    Type
                         _______ _______ _______ _____ _____    ______ ____

>  <TORSDO>
F 9

$$$$
=
 OpenBabel11052421493D

 30 31  0  0  1  0  0  0  0  0999 V2000
  159.8170  211.2540  153.2350 C   0  0  0  0  0  0  0  0  0  0  0  0
  161.1580  210.4400  155.1670 C   0  0  2  0  0  3  0  0  0  0  0  0
  160.6010  210.3260  152.3600 C   0  0  0  0  0  2  0  0  0  0  0  0
  161.9210  207.5290  153.4830 N   0  0  0  0  0  0  0  0  0  0  0  0
  160.6990  208.2310  153.8310 C   0  0  2  0  0  3  0  0  0  0  0  0
  160.9040  208.1100  151.5190 N   0  0  0  0  0  2  0  0  0  0  0  0
  160.1840  208.8710  152.5260 C   0  0  2  0  0  3  0  0  0  0  0  0
  160.7530  208.9560  155.1890 C   0  0  2  0  0  3  0  0  0  0  0  0
  163.0030  206.7670  151.5140 N   0  0  0  0  0  1  0  0  0  0  0  0
  161.9530  207.4370  152.1990 C   0  0  0  0  0  0  0  0  0  0  0  0
  160.1270  211.3550  154.5460 C   0  0  0  0  0  0  0  0  0  0  0  0
  158.9020  213.1600  151.7720 C   0  0  0  0  0  0  0  0  0  0  0  0
  160.0350  213.5650  151.3990 O   0  0  0  0  0  0  0  0  0  0  0  0
  158.7630  212.0510  152.6690 N   0  0  0  0  0  2  0  0  0  0  0  0
  157.6830  213.8690  151.3000 C   0  0  0  0  0  2  0  0  0  0  0  0
  157.5970  213.7810  149.8460 N   0  0  0  0  0  2  0  0  0  0  0  0
  155.9870  214.4530  148.2560 O   0  0  0  0  0  1  0  0  0  0  0  0
  155.2550  214.1680  150.5240 C   0  0  0  0  0  1  0  0  0  0  0  0
  156.1980  213.7110  149.4220 C   0  0  2  0  0  3  0  0  0  0  0  0
  159.4580  212.3160  155.4630 C   0  0  0  0  0  0  0  0  0  0  0  0
  158.1100  212.2070  155.7830 O   0  0  0  0  0  0  0  0  0  0  0  0
  160.1190  213.2650  155.9620 O   0  0  0  0  0  1  0  0  0  0  0  0
  159.4820  209.4850  157.1730 O   0  0  0  0  0  1  0  0  0  0  0  0
  159.4750  208.7160  156.0070 C   0  0  2  0  0  3  0  0  0  0  0  0
  159.2770  207.2420  156.3650 C   0  0  0  0  0  2  0  0  0  0  0  0
  160.3900  206.7200  157.2600 C   0  0  0  0  0  1  0  0  0  0  0  0
  162.8600  210.7360  154.5760 S   0  0  0  0  0  0  0  0  0  0  0  0
  164.7160  211.7020  156.3290 C   0  0  0  0  0  1  0  0  0  0  0  0
  163.5480  210.7400  156.2560 C   0  0  0  0  0  3  0  0  0  0  0  0
  162.4790  211.1770  157.2340 C   0  0  0  0  0  1  0  0  0  0  0  0
  1 11  2  0  0  0  0
  2 27  1  6  0  0  0
  2  8  1  0  0  0  0
  3  1  1  0  0  0  0
  5  4  1  6  0  0  0
  5  8  1  0  0  0  0
  6 10  1  0  0  0  0
  6  7  1  0  0  0  0
  7  3  1  1  0  0  0
  7  5  1  0  0  0  0
  8 24  1  6  0  0  0
  9 10  1  0  0  0  0
 10  4  2  0  0  0  0
 11  2  1  0  0  0  0
 11 20  1  0  0  0  0
 12 14  1  0  0  0  0
 13 12  2  0  0  0  0
 14  1  1  0  0  0  0
 15 12  1  0  0  0  0
 16 15  1  0  0  0  0
 17 19  1  0  0  0  0
 19 16  1  0  0  0  0
 19 18  1  1  0  0  0
 20 21  2  0  0  0  0
 20 22  1  0  0  0  0
 24 25  1  0  0  0  0
 24 23  1  1  0  0  0
 25 26  1  0  0  0  0
 27 29  1  0  0  0  0
 29 28  1  0  0  0  0
 29 30  1  0  0  0  0
M  END
>  <MODEL>
2

>  <REMARK>
 VINA RESULT:      -3.2      2.872      6.354
  Name = 
  9 active torsions:
  status: ('A' for Active; 'I' for Inactive)
    1  A    between atoms: C_1  and  N_22
    2  A    between atoms: C_2  and  C_14
    3  A    between atoms: C_4  and  S_25
    4  A    between atoms: C_7  and  C_30
    5  A    between atoms: C_10  and  C_23
    6  A    between atoms: C_11  and  S_25
    7  A    between atoms: C_13  and  C_30
    8  A    between atoms: C_14  and  N_28
    9  A    between atoms: N_28  and  C_29
                            x       y       z     vdW  Elec       q    Type
                         _______ _______ _______ _____ _____    ______ ____

>  <TORSDO>
F 9

$$$$
=
 OpenBabel11052421493D

 30 31  0  0  1  0  0  0  0  0999 V2000
  160.5050  207.5980  153.7730 C   0  0  0  0  0  0  0  0  0  0  0  0
  159.9080  209.5560  155.1890 C   0  0  2  0  0  3  0  0  0  0  0  0
  160.4710  208.5070  152.5840 C   0  0  0  0  0  2  0  0  0  0  0  0
  161.1210  211.7260  152.7990 N   0  0  0  0  0  0  0  0  0  0  0  0
  161.6500  210.5810  153.5180 C   0  0  2  0  0  3  0  0  0  0  0  0
  161.6050  210.1250  151.2390 N   0  0  0  0  0  2  0  0  0  0  0  0
  161.6880  209.4180  152.5070 C   0  0  2  0  0  3  0  0  0  0  0  0
  161.1370  210.4530  154.9650 C   0  0  2  0  0  3  0  0  0  0  0  0
  160.7710  212.3670  150.5420 N   0  0  0  0  0  1  0  0  0  0  0  0
  161.1770  211.4440  151.5440 C   0  0  0  0  0  0  0  0  0  0  0  0
  160.1740  208.0810  154.9900 C   0  0  2  0  0  3  0  0  0  0  0  0
  160.9320  205.4830  152.3740 C   0  0  0  0  0  0  0  0  0  0  0  0
  160.6530  206.0230  151.2720 O   0  0  0  0  0  0  0  0  0  0  0  0
  160.8590  206.2150  153.6050 N   0  0  0  0  0  0  0  0  0  0  0  0
  161.3100  204.0460  152.4070 C   0  0  0  0  0  2  0  0  0  0  0  0
  161.8550  203.6520  151.1120 N   0  0  0  0  0  2  0  0  0  0  0  0
  161.0110  201.5470  150.4600 O   0  0  0  0  0  1  0  0  0  0  0  0
  160.8740  203.3400  148.8690 C   0  0  0  0  0  1  0  0  0  0  0  0
  160.8490  202.9300  150.3330 C   0  0  2  0  0  3  0  0  0  0  0  0
  160.0950  207.2260  156.2040 C   0  0  0  0  0  0  0  0  0  0  0  0
  158.9090  206.6160  156.5960 O   0  0  0  0  0  0  0  0  0  0  0  0
  161.1230  207.0490  156.9110 O   0  0  0  0  0  1  0  0  0  0  0  0
  161.8200  210.1380  157.2600 O   0  0  0  0  0  1  0  0  0  0  0  0
  162.2790  210.1270  155.9410 C   0  0  2  0  0  3  0  0  0  0  0  0
  163.4620  211.0860  155.8000 C   0  0  0  0  0  2  0  0  0  0  0  0
  164.0890  211.4160  157.1460 C   0  0  0  0  0  1  0  0  0  0  0  0
  158.3940  210.1520  154.3620 S   0  0  0  0  0  0  0  0  0  0  0  0
  158.0490  212.8600  154.4060 C   0  0  0  0  0  1  0  0  0  0  0  0
  158.3580  211.6930  155.3220 C   0  0  0  0  0  3  0  0  0  0  0  0
  157.2850  211.5960  156.3850 C   0  0  0  0  0  1  0  0  0  0  0  0
  1 11  1  0  0  0  0
  2 27  1  6  0  0  0
  3  1  1  0  0  0  0
  5  4  1  6  0  0  0
  5  8  1  0  0  0  0
  6 10  1  0  0  0  0
  6  7  1  0  0  0  0
  7  3  1  1  0  0  0
  7  5  1  0  0  0  0
  8  2  1  0  0  0  0
  8 24  1  1  0  0  0
  9 10  1  0  0  0  0
 10  4  2  0  0  0  0
 11  2  1  0  0  0  0
 11 20  1  1  0  0  0
 12 15  1  0  0  0  0
 12 14  1  0  0  0  0
 13 12  2  0  0  0  0
 14  1  2  0  0  0  0
 16 15  1  0  0  0  0
 19 18  1  6  0  0  0
 19 17  1  0  0  0  0
 19 16  1  0  0  0  0
 20 21  2  0  0  0  0
 20 22  1  0  0  0  0
 24 23  1  1  0  0  0
 25 24  1  0  0  0  0
 25 26  1  0  0  0  0
 27 29  1  0  0  0  0
 28 29  1  0  0  0  0
 29 30  1  0  0  0  0
M  END
>  <MODEL>
3

>  <REMARK>
 VINA RESULT:      -3.0      1.641      2.055
  Name = 
  9 active torsions:
  status: ('A' for Active; 'I' for Inactive)
    1  A    between atoms: C_1  and  N_22
    2  A    between atoms: C_2  and  C_14
    3  A    between atoms: C_4  and  S_25
    4  A    between atoms: C_7  and  C_30
    5  A    between atoms: C_10  and  C_23
    6  A    between atoms: C_11  and  S_25
    7  A    between atoms: C_13  and  C_30
    8  A    between atoms: C_14  and  N_28
    9  A    between atoms: N_28  and  C_29
                            x       y       z     vdW  Elec       q    Type
                         _______ _______ _______ _____ _____    ______ ____

>  <TORSDO>
F 9

$$$$
=
 OpenBabel11052421493D

 30 31  0  0  1  0  0  0  0  0999 V2000
  160.1950  211.9200  152.7540 C   0  0  0  0  0  0  0  0  0  0  0  0
  160.6660  211.1930  155.0880 C   0  0  2  0  0  3  0  0  0  0  0  0
  160.8690  210.6710  152.2780 C   0  0  0  0  0  2  0  0  0  0  0  0
  160.9420  207.9100  154.0690 N   0  0  0  0  0  0  0  0  0  0  0  0
  159.9400  208.9520  153.9360 C   0  0  2  0  0  3  0  0  0  0  0  0
  160.7070  208.3280  151.8330 N   0  0  0  0  0  2  0  0  0  0  0  0
  160.0070  209.4300  152.4720 C   0  0  2  0  0  3  0  0  0  0  0  0
  159.8450  209.8940  155.1510 C   0  0  2  0  0  3  0  0  0  0  0  0
  162.2300  206.5260  152.6350 N   0  0  0  0  0  1  0  0  0  0  0  0
  161.2860  207.5610  152.8780 C   0  0  0  0  0  0  0  0  0  0  0  0
  160.1610  212.1970  154.0760 C   0  0  0  0  0  0  0  0  0  0  0  0
  160.0910  213.1080  150.4760 C   0  0  0  0  0  0  0  0  0  0  0  0
  161.1270  212.5580  150.0180 O   0  0  0  0  0  0  0  0  0  0  0  0
  159.6190  212.8290  151.8000 N   0  0  0  0  0  2  0  0  0  0  0  0
  159.3590  214.0940  149.6390 C   0  0  0  0  0  2  0  0  0  0  0  0
  159.0280  213.4940  148.3500 N   0  0  0  0  0  2  0  0  0  0  0  0
  156.8180  213.2360  149.1360 O   0  0  0  0  0  1  0  0  0  0  0  0
  157.2020  212.9350  146.7860 C   0  0  0  0  0  1  0  0  0  0  0  0
  157.6030  213.6610  148.0610 C   0  0  2  0  0  3  0  0  0  0  0  0
  159.5920  213.4570  154.6230 C   0  0  0  0  0  0  0  0  0  0  0  0
  158.5760  214.1460  153.9710 O   0  0  0  0  0  0  0  0  0  0  0  0
  160.0430  213.9290  155.7010 O   0  0  0  0  0  1  0  0  0  0  0  0
  157.6820  210.7510  154.5050 O   0  0  0  0  0  1  0  0  0  0  0  0
  158.3850  210.1510  155.5530 C   0  0  2  0  0  3  0  0  0  0  0  0
  158.2650  211.0120  156.8110 C   0  0  0  0  0  2  0  0  0  0  0  0
  157.0080  211.8670  156.7970 C   0  0  0  0  0  1  0  0  0  0  0  0
  162.4710  210.9280  155.0260 S   0  0  0  0  0  0  0  0  0  0  0  0
  162.4270  209.3600  157.2610 C   0  0  0  0  0  1  0  0  0  0  0  0
  162.6140  210.8010  156.8320 C   0  0  0  0  0  3  0  0  0  0  0  0
  163.9850  211.2750  157.2600 C   0  0  0  0  0  1  0  0  0  0  0  0
  1 11  2  0  0  0  0
  2 27  1  6  0  0  0
  2  8  1  0  0  0  0
  3  1  1  0  0  0  0
  5  4  1  1  0  0  0
  5  8  1  0  0  0  0
  6  7  1  0  0  0  0
  6 10  1  0  0  0  0
  7  3  1  1  0  0  0
  7  5  1  0  0  0  0
  8 24  1  6  0  0  0
  9 10  1  0  0  0  0
 10  4  2  0  0  0  0
 11 20  1  0  0  0  0
 11  2  1  0  0  0  0
 12 14  1  0  0  0  0
 13 12  2  0  0  0  0
 14  1  1  0  0  0  0
 15 12  1  0  0  0  0
 16 15  1  0  0  0  0
 19 18  1  6  0  0  0
 19 16  1  0  0  0  0
 19 17  1  0  0  0  0
 20 22  1  0  0  0  0
 21 20  2  0  0  0  0
 24 23  1  6  0  0  0
 24 25  1  0  0  0  0
 26 25  1  0  0  0  0
 27 29  1  0  0  0  0
 29 30  1  0  0  0  0
 29 28  1  0  0  0  0
M  END
>  <MODEL>
4

>  <REMARK>
 VINA RESULT:      -2.5      2.883      6.243
  Name = 
  9 active torsions:
  status: ('A' for Active; 'I' for Inactive)
    1  A    between atoms: C_1  and  N_22
    2  A    between atoms: C_2  and  C_14
    3  A    between atoms: C_4  and  S_25
    4  A    between atoms: C_7  and  C_30
    5  A    between atoms: C_10  and  C_23
    6  A    between atoms: C_11  and  S_25
    7  A    between atoms: C_13  and  C_30
    8  A    between atoms: C_14  and  N_28
    9  A    between atoms: N_28  and  C_29
                            x       y       z     vdW  Elec       q    Type
                         _______ _______ _______ _____ _____    ______ ____

>  <TORSDO>
F 9

$$$$
=
 OpenBabel11052421493D

 30 31  0  0  1  0  0  0  0  0999 V2000
  161.5910  211.0660  139.2280 C   0  0  0  0  0  0  0  0  0  0  0  0
  160.9480  213.4390  139.6140 C   0  0  2  0  0  3  0  0  0  0  0  0
  162.8160  211.5610  138.5230 C   0  0  0  0  0  2  0  0  0  0  0  0
  164.2250  214.4470  139.2430 N   0  0  0  0  0  0  0  0  0  0  0  0
  163.5300  213.4760  140.0680 C   0  0  2  0  0  3  0  0  0  0  0  0
  165.0520  212.3880  138.6890 N   0  0  0  0  0  2  0  0  0  0  0  0
  163.8720  212.0910  139.4840 C   0  0  2  0  0  3  0  0  0  0  0  0
  162.1160  213.9100  140.4970 C   0  0  2  0  0  3  0  0  0  0  0  0
  165.9840  214.4530  137.6500 N   0  0  0  0  0  1  0  0  0  0  0  0
  165.0940  213.8000  138.5470 C   0  0  0  0  0  0  0  0  0  0  0  0
  160.6790  211.9530  139.6820 C   0  0  0  0  0  0  0  0  0  0  0  0
  162.2240  208.7260  140.0880 C   0  0  0  0  0  0  0  0  0  0  0  0
  163.2950  209.0970  140.6370 O   0  0  0  0  0  0  0  0  0  0  0  0
  161.3820  209.6520  139.3890 N   0  0  0  0  0  2  0  0  0  0  0  0
  161.8410  207.2910  140.1340 C   0  0  0  0  0  2  0  0  0  0  0  0
  162.7580  206.5110  139.3090 N   0  0  0  0  0  2  0  0  0  0  0  0
  163.3160  206.4660  137.0170 O   0  0  0  0  0  1  0  0  0  0  0  0
  161.2520  207.5230  137.6370 C   0  0  0  0  0  1  0  0  0  0  0  0
  162.2630  206.4270  137.9350 C   0  0  2  0  0  3  0  0  0  0  0  0
  159.3960  211.5410  140.3120 C   0  0  0  0  0  0  0  0  0  0  0  0
  158.3350  211.0500  139.5600 O   0  0  0  0  0  0  0  0  0  0  0  0
  159.2510  211.6450  141.5590 O   0  0  0  0  0  1  0  0  0  0  0  0
  160.6730  214.2150  142.4100 O   0  0  0  0  0  1  0  0  0  0  0  0
  161.8670  213.6260  141.9870 C   0  0  2  0  0  3  0  0  0  0  0  0
  163.0170  214.1030  142.8750 C   0  0  0  0  0  2  0  0  0  0  0  0
  162.5690  214.3370  144.3080 C   0  0  0  0  0  1  0  0  0  0  0  0
  160.9880  214.1050  137.9150 S   0  0  0  0  0  0  0  0  0  0  0  0
  158.4890  213.3560  137.1110 C   0  0  0  0  0  1  0  0  0  0  0  0
  159.2030  214.4360  137.8970 C   0  0  0  0  0  3  0  0  0  0  0  0
  158.6810  214.4460  139.3180 C   0  0  0  0  0  1  0  0  0  0  0  0
  1 14  1  0  0  0  0
  1 11  2  0  0  0  0
  2 27  1  6  0  0  0
  2 11  1  0  0  0  0
  2  8  1  0  0  0  0
  3  1  1  0  0  0  0
  5  4  1  6  0  0  0
  5  8  1  0  0  0  0
  6  7  1  0  0  0  0
  7  3  1  6  0  0  0
  7  5  1  0  0  0  0
  8 24  1  1  0  0  0
  9 10  1  0  0  0  0
 10  6  1  0  0  0  0
 10  4  2  0  0  0  0
 11 20  1  0  0  0  0
 12 15  1  0  0  0  0
 12 13  2  0  0  0  0
 14 12  1  0  0  0  0
 16 15  1  0  0  0  0
 17 19  1  0  0  0  0
 19 18  1  6  0  0  0
 19 16  1  0  0  0  0
 20 22  1  0  0  0  0
 21 20  2  0  0  0  0
 24 23  1  1  0  0  0
 24 25  1  0  0  0  0
 25 26  1  0  0  0  0
 28 29  1  0  0  0  0
 29 27  1  0  0  0  0
 29 30  1  0  0  0  0
M  END
>  <MODEL>
5

>  <REMARK>
 VINA RESULT:      -1.9     13.008     15.082
  Name = 
  9 active torsions:
  status: ('A' for Active; 'I' for Inactive)
    1  A    between atoms: C_1  and  N_22
    2  A    between atoms: C_2  and  C_14
    3  A    between atoms: C_4  and  S_25
    4  A    between atoms: C_7  and  C_30
    5  A    between atoms: C_10  and  C_23
    6  A    between atoms: C_11  and  S_25
    7  A    between atoms: C_13  and  C_30
    8  A    between atoms: C_14  and  N_28
    9  A    between atoms: N_28  and  C_29
                            x       y       z     vdW  Elec       q    Type
                         _______ _______ _______ _____ _____    ______ ____

>  <TORSDO>
F 9

$$$$
=
 OpenBabel11052421493D

 30 31  0  0  1  0  0  0  0  0999 V2000
  160.7260  210.5730  152.8860 C   0  0  0  0  0  0  0  0  0  0  0  0
  159.8170  211.6860  154.9180 C   0  0  2  0  0  3  0  0  0  0  0  0
  161.1210  209.4170  153.7520 C   0  0  0  0  0  2  0  0  0  0  0  0
  159.5050  208.6440  156.5130 N   0  0  0  0  0  0  0  0  0  0  0  0
  159.0540  209.1990  155.2500 C   0  0  2  0  0  3  0  0  0  0  0  0
  160.4710  207.3990  154.8550 N   0  0  0  0  0  2  0  0  0  0  0  0
  159.9330  208.5560  154.1580 C   0  0  2  0  0  3  0  0  0  0  0  0
  158.7050  210.6980  155.3090 C   0  0  2  0  0  3  0  0  0  0  0  0
  160.8120  206.8060  157.2510 N   0  0  0  0  0  1  0  0  0  0  0  0
  160.2330  207.6190  156.2380 C   0  0  0  0  0  0  0  0  0  0  0  0
  160.1730  211.6690  153.4480 C   0  0  0  0  0  0  0  0  0  0  0  0
  161.8990  209.6750  150.7810 C   0  0  0  0  0  0  0  0  0  0  0  0
  162.6440  208.8740  151.4040 O   0  0  0  0  0  0  0  0  0  0  0  0
  160.9670  210.5190  151.4690 N   0  0  0  0  0  2  0  0  0  0  0  0
  162.0110  209.7730  149.3020 C   0  0  0  0  0  2  0  0  0  0  0  0
  162.5680  208.5340  148.7680 N   0  0  0  0  0  2  0  0  0  0  0  0
  161.0180  206.8880  149.4440 O   0  0  0  0  0  1  0  0  0  0  0  0
  161.9420  206.7030  147.2370 C   0  0  0  0  0  1  0  0  0  0  0  0
  161.4960  207.6280  148.3580 C   0  0  2  0  0  3  0  0  0  0  0  0
  159.8360  212.8920  152.6730 C   0  0  0  0  0  0  0  0  0  0  0  0
  160.0100  212.9580  151.2950 O   0  0  0  0  0  0  0  0  0  0  0  0
  159.3880  213.9070  153.2710 O   0  0  0  0  0  1  0  0  0  0  0  0
  157.1980  212.3750  154.4410 O   0  0  0  0  0  1  0  0  0  0  0  0
  157.3830  210.9970  154.5840 C   0  0  2  0  0  3  0  0  0  0  0  0
  156.1740  210.3870  155.2950 C   0  0  0  0  0  2  0  0  0  0  0  0
  155.4470  211.4080  156.1570 C   0  0  0  0  0  1  0  0  0  0  0  0
  161.2650  211.6490  156.0290 S   0  0  0  0  0  0  0  0  0  0  0  0
  160.7820  214.1710  156.9530 C   0  0  0  0  0  1  0  0  0  0  0  0
  160.4720  212.7210  157.2610 C   0  0  0  0  0  3  0  0  0  0  0  0
  158.9730  212.5110  157.2160 C   0  0  0  0  0  1  0  0  0  0  0  0
  1 11  2  0  0  0  0
  1  3  1  0  0  0  0
  2  8  1  0  0  0  0
  2 27  1  1  0  0  0
  5  8  1  0  0  0  0
  5  4  1  1  0  0  0
  6 10  1  0  0  0  0
  7  3  1  1  0  0  0
  7  6  1  0  0  0  0
  7  5  1  0  0  0  0
  8 24  1  6  0  0  0
 10  4  2  0  0  0  0
 10  9  1  0  0  0  0
 11  2  1  0  0  0  0
 12 13  2  0  0  0  0
 12 14  1  0  0  0  0
 14  1  1  0  0  0  0
 15 12  1  0  0  0  0
 16 15  1  0  0  0  0
 19 18  1  6  0  0  0
 19 16  1  0  0  0  0
 19 17  1  0  0  0  0
 20 22  1  0  0  0  0
 20 11  1  0  0  0  0
 21 20  2  0  0  0  0
 24 23  1  1  0  0  0
 24 25  1  0  0  0  0
 25 26  1  0  0  0  0
 27 29  1  0  0  0  0
 28 29  1  0  0  0  0
 30 29  1  0  0  0  0
M  END
>  <MODEL>
6

>  <REMARK>
 VINA RESULT:      -1.8      2.989      4.874
  Name = 
  9 active torsions:
  status: ('A' for Active; 'I' for Inactive)
    1  A    between atoms: C_1  and  N_22
    2  A    between atoms: C_2  and  C_14
    3  A    between atoms: C_4  and  S_25
    4  A    between atoms: C_7  and  C_30
    5  A    between atoms: C_10  and  C_23
    6  A    between atoms: C_11  and  S_25
    7  A    between atoms: C_13  and  C_30
    8  A    between atoms: C_14  and  N_28
    9  A    between atoms: N_28  and  C_29
                            x       y       z     vdW  Elec       q    Type
                         _______ _______ _______ _____ _____    ______ ____

>  <TORSDO>
F 9

$$$$
