=
 OpenBabel11062408553D

 55 61  0  0  1  0  0  0  0  0999 V2000
  162.5840  205.2420  147.6800 C   0  0  0  0  0  2  0  0  0  0  0  0
  161.5460  205.3900  144.9930 C   0  0  0  0  0  0  0  0  0  0  0  0
  161.3210  206.4070  145.8270 C   0  0  0  0  0  3  0  0  0  0  0  0
  162.2150  203.9660  146.9290 C   0  0  0  0  0  2  0  0  0  0  0  0
  161.7990  206.3740  147.1810 N   0  0  0  0  0  0  0  0  0  0  0  0
  162.3570  204.2050  145.4290 C   0  0  0  0  0  2  0  0  0  0  0  0
  161.4740  207.4150  148.0610 N   0  0  0  0  0  2  0  0  0  0  0  0
  162.5590  207.5260  149.0250 C   0  0  0  0  0  2  0  0  0  0  0  0
  161.1900  206.2370  153.7080 C   0  0  0  0  0  2  0  0  0  0  0  0
  161.4890  210.1470  148.2800 C   0  0  0  0  0  2  0  0  0  0  0  0
  160.1300  207.9760  155.1280 C   0  0  0  0  0  2  0  0  0  0  0  0
  161.0900  208.6380  152.8970 C   0  0  0  0  0  0  0  0  0  0  0  0
  160.6650  209.1090  154.2600 C   0  0  0  0  0  2  0  0  0  0  0  0
  161.1150  206.8200  155.1140 C   0  0  0  0  0  2  0  0  0  0  0  0
  161.4290  207.2920  152.6530 C   0  0  0  0  0  0  0  0  0  0  0  0
  161.6690  209.2460  150.6640 C   0  0  0  0  0  0  0  0  0  0  0  0
  161.9810  211.6830  150.0750 C   0  0  0  0  0  2  0  0  0  0  0  0
  161.2380  209.5600  151.9140 N   0  0  0  0  0  0  0  0  0  0  0  0
  161.7580  212.5090  148.8210 C   0  0  1  0  0  3  0  0  0  0  0  0
  161.8950  206.9270  151.3760 C   0  0  0  0  0  0  0  0  0  0  0  0
  161.6940  211.5160  147.6650 C   0  0  0  0  0  2  0  0  0  0  0  0
  162.0160  207.9080  150.3690 C   0  0  0  0  0  0  0  0  0  0  0  0
  161.7850  210.2990  149.6900 N   0  0  0  0  0  0  0  0  0  0  0  0
  162.2770  205.5000  151.0960 C   0  0  0  0  0  2  0  0  0  0  0  0
  161.1940  203.3140  150.4410 N   0  0  0  0  0  2  0  0  0  0  0  0
  160.0780  205.3520  150.1870 O   0  0  0  0  0  0  0  0  0  0  0  0
  160.1050  202.5270  149.8850 C   0  0  0  0  0  1  0  0  0  0  0  0
  161.1150  204.7350  150.5570 C   0  0  0  0  0  0  0  0  0  0  0  0
  160.4400  213.2560  148.9470 C   0  0  0  0  0  2  0  0  0  0  0  0
  159.8490  213.5180  147.6030 C   0  0  0  0  0  0  0  0  0  0  0  0
  158.7080  213.0700  147.3180 O   0  0  0  0  0  1  0  0  0  0  0  0
  160.5420  214.2860  146.6760 O   0  0  0  0  0  0  0  0  0  0  0  0
  161.0120  205.4550  143.6050 C   0  0  0  0  0  2  0  0  0  0  0  0
  162.1080  205.8960  142.6460 C   0  0  0  0  0  2  0  0  0  0  0  0
  161.5260  206.5170  141.4640 N   0  0  0  0  0  2  0  0  0  0  0  0
  162.5820  206.7220  140.4830 C   0  0  0  0  0  2  0  0  0  0  0  0
  162.0580  207.5160  139.2970 C   0  0  0  0  0  2  0  0  0  0  0  0
  161.2070  208.5310  139.7640 O   0  0  0  0  0  0  0  0  0  0  0  0
  161.3650  212.4220  138.5670 C   0  0  2  0  0  0  0  0  0  0  0  0
  159.3600  213.7030  140.7860 S   0  0  0  0  0  1  0  0  0  0  0  0
  160.9770  210.9640  140.1790 C   0  0  2  0  0  0  0  0  0  0  0  0
  163.0980  209.8090  140.1520 F   0  0  0  0  0  0  0  0  0  0  0  0
  158.7770  209.8820  139.1240 C   0  0  0  0  0  1  0  0  0  0  0  0
  159.5940  211.1190  139.5080 C   0  0  2  0  0  0  0  0  0  0  0  0
  161.8260  209.7910  139.5870 C   0  0  1  0  0  0  0  0  0  0  0  0
  162.2330  211.4920  137.6960 C   0  0  0  0  0  2  0  0  0  0  0  0
  159.8620  212.1420  138.4010 C   0  0  1  0  0  0  0  0  0  0  0  0
  161.6820  213.8680  138.2370 C   0  0  0  0  0  1  0  0  0  0  0  0
  158.8620  212.4710  139.5250 C   0  0  2  0  0  0  0  0  0  0  0  0
  162.0000  210.0150  138.0690 C   0  0  0  0  0  2  0  0  0  0  0  0
  160.8240  210.8310  141.5470 F   0  0  0  0  0  0  0  0  0  0  0  0
  159.3130  211.7930  137.0130 C   0  0  0  0  0  1  0  0  0  0  0  0
  161.6850  212.1510  139.9080 O   0  0  0  0  0  0  0  0  0  0  0  0
  157.3840  212.4730  139.1360 C   0  0  0  0  0  2  0  0  0  0  0  0
  156.6420  213.1750  140.0850 O   0  0  0  0  0  1  0  0  0  0  0  0
  2  6  1  0  0  0  0
  2  3  2  0  0  0  0
  3  5  1  0  0  0  0
  4  1  1  0  0  0  0
  5  1  1  0  0  0  0
  5  7  1  0  0  0  0
  6  4  1  0  0  0  0
  7  8  1  0  0  0  0
  8 22  1  0  0  0  0
  9 14  1  0  0  0  0
 10 23  1  0  0  0  0
 12 13  1  0  0  0  0
 13 11  1  0  0  0  0
 14 11  1  0  0  0  0
 15 12  1  0  0  0  0
 15  9  1  0  0  0  0
 16 18  1  0  0  0  0
 18 12  2  0  0  0  0
 19 29  1  1  0  0  0
 19 17  1  0  0  0  0
 20 15  2  0  0  0  0
 21 10  1  0  0  0  0
 21 19  1  0  0  0  0
 22 16  2  0  0  0  0
 22 20  1  0  0  0  0
 23 17  1  0  0  0  0
 23 16  1  0  0  0  0
 24 20  1  0  0  0  0
 25 28  1  0  0  0  0
 26 28  2  0  0  0  0
 27 25  1  0  0  0  0
 28 24  1  0  0  0  0
 30 29  1  0  0  0  0
 31 30  1  0  0  0  0
 32 30  2  0  0  0  0
 33  2  1  0  0  0  0
 34 33  1  0  0  0  0
 35 34  1  0  0  0  0
 36 35  1  0  0  0  0
 37 38  1  0  0  0  0
 37 36  1  0  0  0  0
 39 48  1  6  0  0  0
 39 53  1  0  0  0  0
 41 51  1  1  0  0  0
 44 43  1  6  0  0  0
 44 49  1  0  0  0  0
 44 41  1  0  0  0  0
 45 38  1  0  0  0  0
 45 42  1  1  0  0  0
 45 41  1  0  0  0  0
 46 50  1  0  0  0  0
 46 39  1  0  0  0  0
 47 52  1  6  0  0  0
 47 39  1  0  0  0  0
 47 44  1  0  0  0  0
 47 49  1  0  0  0  0
 49 40  1  1  0  0  0
 50 45  1  0  0  0  0
 53 41  1  0  0  0  0
 54 49  1  0  0  0  0
 54 55  1  0  0  0  0
M  END
>  <MODEL>
1

>  <REMARK>
 VINA RESULT:      -7.0      0.000      0.000
  Name = 
  15 active torsions:
  status: ('A' for Active; 'I' for Inactive)
    1  A    between atoms: N_2  and  C_28
    2  A    between atoms: N_2  and  N_44
    3  A    between atoms: C_8  and  O_22
    4  A    between atoms: C_8  and  C_43
    5  A    between atoms: C_10  and  C_32
    6  A    between atoms: C_11  and  C_38
    7  A    between atoms: C_19  and  C_40
    8  A    between atoms: C_19  and  C_45
    9  A    between atoms: C_20  and  O_22
   10  A    between atoms: C_27  and  C_54
   11  A    between atoms: C_28  and  C_49
   12  A    between atoms: C_32  and  C_39
   13  A    between atoms: N_35  and  C_43
   14  A    between atoms: N_35  and  C_51
   15  A    between atoms: C_51  and  C_54
                            x       y       z     vdW  Elec       q    Type
                         _______ _______ _______ _____ _____    ______ ____

>  <TORSDO>
F 15

$$$$
=
 OpenBabel11062408553D

 55 61  0  0  1  0  0  0  0  0999 V2000
  162.1790  209.5520  150.5990 C   0  0  0  0  0  2  0  0  0  0  0  0
  161.7850  211.3970  148.4170 C   0  0  0  0  0  0  0  0  0  0  0  0
  161.7930  210.0870  148.1600 C   0  0  0  0  0  3  0  0  0  0  0  0
  162.7870  210.9500  150.6580 C   0  0  0  0  0  2  0  0  0  0  0  0
  162.0050  209.1280  149.2080 N   0  0  0  0  0  0  0  0  0  0  0  0
  161.9390  211.9040  149.8210 C   0  0  0  0  0  2  0  0  0  0  0  0
  162.0970  207.7650  148.8970 N   0  0  0  0  0  2  0  0  0  0  0  0
  160.7640  207.1950  149.0340 C   0  0  0  0  0  2  0  0  0  0  0  0
  160.6620  202.2990  147.8160 C   0  0  0  0  0  2  0  0  0  0  0  0
  160.4720  207.5870  151.9200 C   0  0  0  0  0  2  0  0  0  0  0  0
  160.7920  200.6410  149.6600 C   0  0  0  0  0  2  0  0  0  0  0  0
  161.1270  203.0810  150.1830 C   0  0  0  0  0  0  0  0  0  0  0  0
  161.3640  201.6650  150.6330 C   0  0  0  0  0  2  0  0  0  0  0  0
  161.2590  200.9660  148.2520 C   0  0  0  0  0  2  0  0  0  0  0  0
  160.8850  203.3960  148.8310 C   0  0  0  0  0  0  0  0  0  0  0  0
  161.1080  205.3900  150.7820 C   0  0  0  0  0  0  0  0  0  0  0  0
  162.0220  206.1040  153.0270 C   0  0  0  0  0  2  0  0  0  0  0  0
  161.2490  204.0750  151.0970 N   0  0  0  0  0  0  0  0  0  0  0  0
  161.6950  207.2240  153.9980 C   0  0  1  0  0  3  0  0  0  0  0  0
  160.7500  204.7460  148.4600 C   0  0  0  0  0  0  0  0  0  0  0  0
  160.9180  208.2660  153.1990 C   0  0  0  0  0  2  0  0  0  0  0  0
  160.8590  205.7560  149.4400 C   0  0  0  0  0  0  0  0  0  0  0  0
  161.2490  206.3670  151.8290 N   0  0  0  0  0  0  0  0  0  0  0  0
  160.5060  205.1080  147.0210 C   0  0  0  0  0  2  0  0  0  0  0  0
  162.9870  204.6830  146.8070 N   0  0  0  0  0  2  0  0  0  0  0  0
  161.5840  204.6890  144.9370 O   0  0  0  0  0  0  0  0  0  0  0  0
  164.1920  204.4320  146.0340 C   0  0  0  0  0  1  0  0  0  0  0  0
  161.7060  204.8080  146.1870 C   0  0  0  0  0  0  0  0  0  0  0  0
  160.8320  206.6700  155.1210 C   0  0  0  0  0  2  0  0  0  0  0  0
  160.6530  207.6840  156.2010 C   0  0  0  0  0  0  0  0  0  0  0  0
  159.4960  208.0350  156.5510 O   0  0  0  0  0  0  0  0  0  0  0  0
  161.7630  208.2160  156.8450 O   0  0  0  0  0  1  0  0  0  0  0  0
  161.5850  212.3570  147.2980 C   0  0  0  0  0  2  0  0  0  0  0  0
  160.4300  211.9020  146.4200 C   0  0  0  0  0  2  0  0  0  0  0  0
  160.0930  212.9350  145.4510 N   0  0  0  0  0  2  0  0  0  0  0  0
  159.5980  212.2910  144.2430 C   0  0  0  0  0  2  0  0  0  0  0  0
  160.6410  212.3620  143.1390 C   0  0  0  0  0  2  0  0  0  0  0  0
  160.2130  211.5840  142.0510 O   0  0  0  0  0  0  0  0  0  0  0  0
  161.7350  211.2110  138.2900 C   0  0  2  0  0  0  0  0  0  0  0  0
  160.9240  214.1440  137.1380 S   0  0  0  0  0  1  0  0  0  0  0  0
  161.1020  212.5340  139.9420 C   0  0  2  0  0  0  0  0  0  0  0  0
  162.4990  211.6340  141.6940 F   0  0  0  0  0  0  0  0  0  0  0  0
  158.4910  211.9950  139.8150 C   0  0  0  0  0  1  0  0  0  0  0  0
  159.8060  212.3580  139.1190 C   0  0  2  0  0  0  0  0  0  0  0  0
  161.2510  211.4880  141.0950 C   0  0  1  0  0  0  0  0  0  0  0  0
  161.9470  209.9490  139.1500 C   0  0  0  0  0  2  0  0  0  0  0  0
  160.2510  211.4540  137.9670 C   0  0  1  0  0  0  0  0  0  0  0  0
  162.5510  211.1020  137.0180 C   0  0  0  0  0  1  0  0  0  0  0  0
  159.7210  212.8700  137.6710 C   0  0  2  0  0  0  0  0  0  0  0  0
  161.2000  210.0670  140.4930 C   0  0  0  0  0  2  0  0  0  0  0  0
  161.1800  213.8280  140.4250 F   0  0  0  0  0  0  0  0  0  0  0  0
  159.3450  210.2560  137.6610 C   0  0  0  0  0  1  0  0  0  0  0  0
  162.1700  212.3080  139.0520 O   0  0  0  0  0  0  0  0  0  0  0  0
  158.3330  212.9540  137.0380 C   0  0  0  0  0  2  0  0  0  0  0  0
  157.8160  214.2390  137.1920 O   0  0  0  0  0  1  0  0  0  0  0  0
  1  4  1  0  0  0  0
  2  6  1  0  0  0  0
  3  2  2  0  0  0  0
  3  5  1  0  0  0  0
  5  1  1  0  0  0  0
  6  4  1  0  0  0  0
  7  8  1  0  0  0  0
  7  5  1  0  0  0  0
  8 22  1  0  0  0  0
  9 14  1  0  0  0  0
  9 15  1  0  0  0  0
 10 21  1  0  0  0  0
 11 13  1  0  0  0  0
 12 13  1  0  0  0  0
 12 18  1  0  0  0  0
 14 11  1  0  0  0  0
 15 12  2  0  0  0  0
 16 18  2  0  0  0  0
 16 23  1  0  0  0  0
 17 19  1  0  0  0  0
 19 29  1  1  0  0  0
 20 15  1  0  0  0  0
 20 22  2  0  0  0  0
 21 19  1  0  0  0  0
 22 16  1  0  0  0  0
 23 10  1  0  0  0  0
 23 17  1  0  0  0  0
 24 20  1  0  0  0  0
 26 28  2  0  0  0  0
 27 25  1  0  0  0  0
 28 25  1  0  0  0  0
 28 24  1  0  0  0  0
 29 30  1  0  0  0  0
 30 31  2  0  0  0  0
 30 32  1  0  0  0  0
 33  2  1  0  0  0  0
 34 33  1  0  0  0  0
 35 34  1  0  0  0  0
 36 35  1  0  0  0  0
 37 36  1  0  0  0  0
 38 37  1  0  0  0  0
 39 48  1  6  0  0  0
 39 53  1  0  0  0  0
 39 46  1  0  0  0  0
 41 51  1  1  0  0  0
 41 45  1  0  0  0  0
 44 43  1  1  0  0  0
 44 41  1  0  0  0  0
 45 42  1  1  0  0  0
 45 38  1  0  0  0  0
 46 50  1  0  0  0  0
 47 52  1  6  0  0  0
 47 39  1  0  0  0  0
 47 44  1  0  0  0  0
 49 40  1  6  0  0  0
 49 47  1  0  0  0  0
 49 44  1  0  0  0  0
 50 45  1  0  0  0  0
 53 41  1  0  0  0  0
 54 55  1  0  0  0  0
 54 49  1  0  0  0  0
M  END
>  <MODEL>
2

>  <REMARK>
 VINA RESULT:      -6.9      2.412      5.714
  Name = 
  15 active torsions:
  status: ('A' for Active; 'I' for Inactive)
    1  A    between atoms: N_2  and  C_28
    2  A    between atoms: N_2  and  N_44
    3  A    between atoms: C_8  and  O_22
    4  A    between atoms: C_8  and  C_43
    5  A    between atoms: C_10  and  C_32
    6  A    between atoms: C_11  and  C_38
    7  A    between atoms: C_19  and  C_40
    8  A    between atoms: C_19  and  C_45
    9  A    between atoms: C_20  and  O_22
   10  A    between atoms: C_27  and  C_54
   11  A    between atoms: C_28  and  C_49
   12  A    between atoms: C_32  and  C_39
   13  A    between atoms: N_35  and  C_43
   14  A    between atoms: N_35  and  C_51
   15  A    between atoms: C_51  and  C_54
                            x       y       z     vdW  Elec       q    Type
                         _______ _______ _______ _____ _____    ______ ____

>  <TORSDO>
F 15

$$$$
=
 OpenBabel11062408553D

 55 61  0  0  1  0  0  0  0  0999 V2000
  162.6600  205.1380  147.6000 C   0  0  0  0  0  2  0  0  0  0  0  0
  161.6080  205.3510  144.9230 C   0  0  0  0  0  0  0  0  0  0  0  0
  161.3670  206.3360  145.7890 C   0  0  0  0  0  3  0  0  0  0  0  0
  162.3130  203.8800  146.8110 C   0  0  0  0  0  2  0  0  0  0  0  0
  161.8500  206.2700  147.1400 N   0  0  0  0  0  0  0  0  0  0  0  0
  162.4450  204.1690  145.3180 C   0  0  0  0  0  2  0  0  0  0  0  0
  161.5080  207.2750  148.0540 N   0  0  0  0  0  2  0  0  0  0  0  0
  162.5990  207.3840  149.0120 C   0  0  0  0  0  2  0  0  0  0  0  0
  161.1960  205.9890  153.6550 C   0  0  0  0  0  2  0  0  0  0  0  0
  161.5800  210.0450  148.3400 C   0  0  0  0  0  2  0  0  0  0  0  0
  160.1670  207.7070  155.1220 C   0  0  0  0  0  2  0  0  0  0  0  0
  161.1440  208.4130  152.9120 C   0  0  0  0  0  0  0  0  0  0  0  0
  160.7260  208.8540  154.2870 C   0  0  0  0  0  2  0  0  0  0  0  0
  161.1310  206.5340  155.0770 C   0  0  0  0  0  2  0  0  0  0  0  0
  161.4580  207.0690  152.6300 C   0  0  0  0  0  0  0  0  0  0  0  0
  161.7390  209.0730  150.6980 C   0  0  0  0  0  0  0  0  0  0  0  0
  162.0990  211.5200  150.1790 C   0  0  0  0  0  2  0  0  0  0  0  0
  161.3120  209.3600  151.9560 N   0  0  0  0  0  0  0  0  0  0  0  0
  161.8940  212.3850  148.9490 C   0  0  1  0  0  3  0  0  0  0  0  0
  161.9190  206.7310  151.3440 C   0  0  0  0  0  0  0  0  0  0  0  0
  161.8130  211.4270  147.7640 C   0  0  0  0  0  2  0  0  0  0  0  0
  162.0610  207.7380  150.3650 C   0  0  0  0  0  0  0  0  0  0  0  0
  161.8760  210.1510  149.7550 N   0  0  0  0  0  0  0  0  0  0  0  0
  162.2740  205.3060  151.0240 C   0  0  0  0  0  2  0  0  0  0  0  0
  161.1790  203.1720  150.2300 N   0  0  0  0  0  2  0  0  0  0  0  0
  160.0510  205.2180  150.1690 O   0  0  0  0  0  0  0  0  0  0  0  0
  160.0780  202.4260  149.6440 C   0  0  0  0  0  1  0  0  0  0  0  0
  161.0990  204.5790  150.4600 C   0  0  0  0  0  0  0  0  0  0  0  0
  160.5900  213.1540  149.0940 C   0  0  0  0  0  2  0  0  0  0  0  0
  160.1960  213.7790  147.7980 C   0  0  0  0  0  0  0  0  0  0  0  0
  161.0350  214.4480  147.1410 O   0  0  0  0  0  0  0  0  0  0  0  0
  158.9130  213.5950  147.2980 O   0  0  0  0  0  1  0  0  0  0  0  0
  161.0680  205.4480  143.5390 C   0  0  0  0  0  2  0  0  0  0  0  0
  162.1770  205.8390  142.5740 C   0  0  0  0  0  2  0  0  0  0  0  0
  161.6280  206.5810  141.4470 N   0  0  0  0  0  2  0  0  0  0  0  0
  162.4550  206.3230  140.2770 C   0  0  0  0  0  2  0  0  0  0  0  0
  161.9880  207.1650  139.1010 C   0  0  0  0  0  2  0  0  0  0  0  0
  161.8440  208.4980  139.5190 O   0  0  0  0  0  0  0  0  0  0  0  0
  159.8760  211.7670  138.0890 C   0  0  2  0  0  0  0  0  0  0  0  0
  162.4410  213.4530  137.0110 S   0  0  0  0  0  1  0  0  0  0  0  0
  161.6720  210.4830  138.0430 C   0  0  2  0  0  0  0  0  0  0  0  0
  160.6050  208.3690  137.5680 F   0  0  0  0  0  0  0  0  0  0  0  0
  162.5700  211.0820  140.4840 C   0  0  0  0  0  1  0  0  0  0  0  0
  162.0180  211.5280  139.1270 C   0  0  2  0  0  0  0  0  0  0  0  0
  161.0010  209.1910  138.6180 C   0  0  1  0  0  0  0  0  0  0  0  0
  158.9280  210.7180  138.7020 C   0  0  0  0  0  2  0  0  0  0  0  0
  160.7790  212.4260  139.1460 C   0  0  1  0  0  0  0  0  0  0  0  0
  159.0660  212.8110  137.3470 C   0  0  0  0  0  1  0  0  0  0  0  0
  162.1490  213.0170  138.7660 C   0  0  2  0  0  0  0  0  0  0  0  0
  159.7250  209.5910  139.3890 C   0  0  0  0  0  2  0  0  0  0  0  0
  162.8030  210.1740  137.3080 F   0  0  0  0  0  0  0  0  0  0  0  0
  160.2000  212.7490  140.5280 C   0  0  0  0  0  1  0  0  0  0  0  0
  160.7230  211.0880  137.1970 O   0  0  0  0  0  0  0  0  0  0  0  0
  162.8000  213.9340  139.8010 C   0  0  0  0  0  2  0  0  0  0  0  0
  164.1880  213.8940  139.6670 O   0  0  0  0  0  1  0  0  0  0  0  0
  2  6  1  0  0  0  0
  2  3  2  0  0  0  0
  3  5  1  0  0  0  0
  4  1  1  0  0  0  0
  5  1  1  0  0  0  0
  5  7  1  0  0  0  0
  6  4  1  0  0  0  0
  7  8  1  0  0  0  0
  8 22  1  0  0  0  0
  9 14  1  0  0  0  0
 10 23  1  0  0  0  0
 12 13  1  0  0  0  0
 13 11  1  0  0  0  0
 14 11  1  0  0  0  0
 15 12  1  0  0  0  0
 15  9  1  0  0  0  0
 16 18  1  0  0  0  0
 18 12  2  0  0  0  0
 19 29  1  1  0  0  0
 19 17  1  0  0  0  0
 20 15  2  0  0  0  0
 21 10  1  0  0  0  0
 21 19  1  0  0  0  0
 22 16  2  0  0  0  0
 22 20  1  0  0  0  0
 23 17  1  0  0  0  0
 23 16  1  0  0  0  0
 24 20  1  0  0  0  0
 25 28  1  0  0  0  0
 26 28  2  0  0  0  0
 27 25  1  0  0  0  0
 28 24  1  0  0  0  0
 30 29  1  0  0  0  0
 31 30  2  0  0  0  0
 32 30  1  0  0  0  0
 33  2  1  0  0  0  0
 34 33  1  0  0  0  0
 35 34  1  0  0  0  0
 36 35  1  0  0  0  0
 37 38  1  0  0  0  0
 37 36  1  0  0  0  0
 39 48  1  6  0  0  0
 39 46  1  0  0  0  0
 39 47  1  0  0  0  0
 41 51  1  6  0  0  0
 41 45  1  0  0  0  0
 41 44  1  0  0  0  0
 44 47  1  0  0  0  0
 44 43  1  1  0  0  0
 45 42  1  6  0  0  0
 45 50  1  0  0  0  0
 45 38  1  0  0  0  0
 46 50  1  0  0  0  0
 47 52  1  1  0  0  0
 49 40  1  6  0  0  0
 49 44  1  0  0  0  0
 49 47  1  0  0  0  0
 49 54  1  0  0  0  0
 53 41  1  0  0  0  0
 53 39  1  0  0  0  0
 55 54  1  0  0  0  0
M  END
>  <MODEL>
3

>  <REMARK>
 VINA RESULT:      -6.9      1.453      2.186
  Name = 
  15 active torsions:
  status: ('A' for Active; 'I' for Inactive)
    1  A    between atoms: N_2  and  C_28
    2  A    between atoms: N_2  and  N_44
    3  A    between atoms: C_8  and  O_22
    4  A    between atoms: C_8  and  C_43
    5  A    between atoms: C_10  and  C_32
    6  A    between atoms: C_11  and  C_38
    7  A    between atoms: C_19  and  C_40
    8  A    between atoms: C_19  and  C_45
    9  A    between atoms: C_20  and  O_22
   10  A    between atoms: C_27  and  C_54
   11  A    between atoms: C_28  and  C_49
   12  A    between atoms: C_32  and  C_39
   13  A    between atoms: N_35  and  C_43
   14  A    between atoms: N_35  and  C_51
   15  A    between atoms: C_51  and  C_54
                            x       y       z     vdW  Elec       q    Type
                         _______ _______ _______ _____ _____    ______ ____

>  <TORSDO>
F 15

$$$$
=
 OpenBabel11062408553D

 55 61  0  0  1  0  0  0  0  0999 V2000
  163.1200  211.9630  148.1850 C   0  0  0  0  0  2  0  0  0  0  0  0
  160.6010  213.2870  147.7170 C   0  0  0  0  0  0  0  0  0  0  0  0
  160.5960  212.0510  148.2200 C   0  0  0  0  0  3  0  0  0  0  0  0
  162.9950  213.0000  147.0740 C   0  0  0  0  0  2  0  0  0  0  0  0
  161.8220  211.3400  148.4530 N   0  0  0  0  0  0  0  0  0  0  0  0
  161.8950  213.9940  147.4340 C   0  0  0  0  0  2  0  0  0  0  0  0
  161.7840  210.0130  148.8990 N   0  0  0  0  0  2  0  0  0  0  0  0
  162.3600  209.9850  150.2360 C   0  0  0  0  0  2  0  0  0  0  0  0
  161.8750  204.9850  150.7200 C   0  0  0  0  0  2  0  0  0  0  0  0
  160.4620  211.4150  151.9460 C   0  0  0  0  0  2  0  0  0  0  0  0
  160.4520  204.1290  152.5650 C   0  0  0  0  0  2  0  0  0  0  0  0
  160.9590  206.5930  152.4530 C   0  0  0  0  0  0  0  0  0  0  0  0
  160.5280  205.4480  153.3270 C   0  0  0  0  0  2  0  0  0  0  0  0
  161.7450  203.9150  151.7970 C   0  0  0  0  0  2  0  0  0  0  0  0
  161.6800  206.3820  151.2610 C   0  0  0  0  0  0  0  0  0  0  0  0
  161.1220  208.9590  152.1980 C   0  0  0  0  0  0  0  0  0  0  0  0
  160.6030  210.4640  154.1600 C   0  0  0  0  0  2  0  0  0  0  0  0
  160.7250  207.8560  152.8870 N   0  0  0  0  0  0  0  0  0  0  0  0
  160.0240  211.8610  154.3030 C   0  0  1  0  0  3  0  0  0  0  0  0
  162.1240  207.4980  150.5270 C   0  0  0  0  0  0  0  0  0  0  0  0
  160.1740  212.5240  152.9370 C   0  0  0  0  0  2  0  0  0  0  0  0
  161.8440  208.7990  150.9940 C   0  0  0  0  0  0  0  0  0  0  0  0
  160.8170  210.2560  152.7410 N   0  0  0  0  0  0  0  0  0  0  0  0
  162.9070  207.2980  149.2600 C   0  0  0  0  0  2  0  0  0  0  0  0
  162.6980  205.7420  147.2800 N   0  0  0  0  0  2  0  0  0  0  0  0
  160.8360  206.8340  148.1750 O   0  0  0  0  0  0  0  0  0  0  0  0
  161.9410  205.0860  146.2270 C   0  0  0  0  0  1  0  0  0  0  0  0
  162.0780  206.6160  148.2230 C   0  0  0  0  0  0  0  0  0  0  0  0
  158.5540  211.7530  154.6770 C   0  0  0  0  0  2  0  0  0  0  0  0
  158.0610  213.0340  155.2600 C   0  0  0  0  0  0  0  0  0  0  0  0
  158.4300  213.3860  156.4110 O   0  0  0  0  0  1  0  0  0  0  0  0
  157.2200  213.8570  154.5210 O   0  0  0  0  0  0  0  0  0  0  0  0
  159.3070  213.9790  147.4680 C   0  0  0  0  0  2  0  0  0  0  0  0
  158.8850  213.7890  146.0200 C   0  0  0  0  0  2  0  0  0  0  0  0
  159.8300  214.4460  145.1270 N   0  0  0  0  0  2  0  0  0  0  0  0
  159.9230  213.6670  143.9000 C   0  0  0  0  0  2  0  0  0  0  0  0
  159.3520  214.4520  142.7300 C   0  0  0  0  0  2  0  0  0  0  0  0
  160.0590  214.1170  141.5630 O   0  0  0  0  0  0  0  0  0  0  0  0
  159.3830  211.6460  138.3950 C   0  0  2  0  0  0  0  0  0  0  0  0
  161.6520  209.4020  139.0270 S   0  0  0  0  0  1  0  0  0  0  0  0
  160.1700  211.9090  140.4420 C   0  0  2  0  0  0  0  0  0  0  0  0
  158.1770  212.7720  141.4980 F   0  0  0  0  0  0  0  0  0  0  0  0
  162.2190  213.4980  139.8060 C   0  0  0  0  0  1  0  0  0  0  0  0
  161.3920  212.2340  139.5530 C   0  0  2  0  0  0  0  0  0  0  0  0
  159.3220  213.1700  140.8140 C   0  0  1  0  0  0  0  0  0  0  0  0
  158.4470  212.8710  138.4100 C   0  0  0  0  0  2  0  0  0  0  0  0
  160.8480  212.0360  138.1360 C   0  0  1  0  0  0  0  0  0  0  0  0
  158.9000  210.6510  137.3590 C   0  0  0  0  0  1  0  0  0  0  0  0
  162.0070  211.1580  138.6430 C   0  0  2  0  0  0  0  0  0  0  0  0
  158.8580  213.8630  139.5150 C   0  0  0  0  0  2  0  0  0  0  0  0
  160.5790  211.2280  141.5740 F   0  0  0  0  0  0  0  0  0  0  0  0
  161.1610  213.1500  137.1310 C   0  0  0  0  0  1  0  0  0  0  0  0
  159.3340  211.0730  139.6770 O   0  0  0  0  0  0  0  0  0  0  0  0
  163.3850  211.4470  138.0490 C   0  0  0  0  0  2  0  0  0  0  0  0
  164.3610  211.3570  139.0410 O   0  0  0  0  0  1  0  0  0  0  0  0
  1  5  1  0  0  0  0
  2  3  2  0  0  0  0
  3  5  1  0  0  0  0
  4  6  1  0  0  0  0
  4  1  1  0  0  0  0
  5  7  1  0  0  0  0
  6  2  1  0  0  0  0
  7  8  1  0  0  0  0
  8 22  1  0  0  0  0
  9 15  1  0  0  0  0
  9 14  1  0  0  0  0
 10 23  1  0  0  0  0
 10 21  1  0  0  0  0
 11 13  1  0  0  0  0
 12 18  1  0  0  0  0
 12 13  1  0  0  0  0
 14 11  1  0  0  0  0
 15 12  2  0  0  0  0
 16 23  1  0  0  0  0
 16 18  2  0  0  0  0
 17 19  1  0  0  0  0
 19 29  1  6  0  0  0
 20 22  2  0  0  0  0
 20 15  1  0  0  0  0
 21 19  1  0  0  0  0
 22 16  1  0  0  0  0
 23 17  1  0  0  0  0
 24 20  1  0  0  0  0
 25 28  1  0  0  0  0
 26 28  2  0  0  0  0
 27 25  1  0  0  0  0
 28 24  1  0  0  0  0
 29 30  1  0  0  0  0
 30 31  1  0  0  0  0
 32 30  2  0  0  0  0
 33  2  1  0  0  0  0
 34 33  1  0  0  0  0
 35 34  1  0  0  0  0
 36 35  1  0  0  0  0
 37 36  1  0  0  0  0
 38 37  1  0  0  0  0
 39 48  1  6  0  0  0
 39 46  1  0  0  0  0
 39 53  1  0  0  0  0
 41 45  1  0  0  0  0
 41 51  1  1  0  0  0
 44 43  1  1  0  0  0
 44 41  1  0  0  0  0
 45 42  1  1  0  0  0
 45 38  1  0  0  0  0
 46 50  1  0  0  0  0
 47 52  1  6  0  0  0
 47 39  1  0  0  0  0
 47 49  1  0  0  0  0
 47 44  1  0  0  0  0
 49 40  1  1  0  0  0
 49 44  1  0  0  0  0
 50 45  1  0  0  0  0
 53 41  1  0  0  0  0
 54 49  1  0  0  0  0
 54 55  1  0  0  0  0
M  END
>  <MODEL>
4

>  <REMARK>
 VINA RESULT:      -6.3      2.702      5.435
  Name = 
  15 active torsions:
  status: ('A' for Active; 'I' for Inactive)
    1  A    between atoms: N_2  and  C_28
    2  A    between atoms: N_2  and  N_44
    3  A    between atoms: C_8  and  O_22
    4  A    between atoms: C_8  and  C_43
    5  A    between atoms: C_10  and  C_32
    6  A    between atoms: C_11  and  C_38
    7  A    between atoms: C_19  and  C_40
    8  A    between atoms: C_19  and  C_45
    9  A    between atoms: C_20  and  O_22
   10  A    between atoms: C_27  and  C_54
   11  A    between atoms: C_28  and  C_49
   12  A    between atoms: C_32  and  C_39
   13  A    between atoms: N_35  and  C_43
   14  A    between atoms: N_35  and  C_51
   15  A    between atoms: C_51  and  C_54
                            x       y       z     vdW  Elec       q    Type
                         _______ _______ _______ _____ _____    ______ ____

>  <TORSDO>
F 15

$$$$
=
 OpenBabel11062408553D

 55 61  0  0  1  0  0  0  0  0999 V2000
  162.9660  212.0550  148.2140 C   0  0  0  0  0  2  0  0  0  0  0  0
  160.5870  213.2310  147.0850 C   0  0  0  0  0  0  0  0  0  0  0  0
  160.5000  212.0320  147.6650 C   0  0  0  0  0  3  0  0  0  0  0  0
  163.0720  213.0090  147.0290 C   0  0  0  0  0  2  0  0  0  0  0  0
  161.6590  211.3940  148.2240 N   0  0  0  0  0  0  0  0  0  0  0  0
  161.8900  213.9750  147.0530 C   0  0  0  0  0  2  0  0  0  0  0  0
  161.5570  210.0980  148.7480 N   0  0  0  0  0  2  0  0  0  0  0  0
  162.2850  210.0790  150.0090 C   0  0  0  0  0  2  0  0  0  0  0  0
  161.9390  205.0720  150.5370 C   0  0  0  0  0  2  0  0  0  0  0  0
  160.5740  211.4790  151.9260 C   0  0  0  0  0  2  0  0  0  0  0  0
  160.7500  204.1950  152.5330 C   0  0  0  0  0  2  0  0  0  0  0  0
  161.2020  206.6660  152.3670 C   0  0  0  0  0  0  0  0  0  0  0  0
  160.8920  205.5140  153.2830 C   0  0  0  0  0  2  0  0  0  0  0  0
  161.9490  204.0000  151.6210 C   0  0  0  0  0  2  0  0  0  0  0  0
  161.7840  206.4660  151.0990 C   0  0  0  0  0  0  0  0  0  0  0  0
  161.2970  209.0340  152.0980 C   0  0  0  0  0  0  0  0  0  0  0  0
  160.9830  210.5320  154.1090 C   0  0  0  0  0  2  0  0  0  0  0  0
  160.9990  207.9250  152.8260 N   0  0  0  0  0  0  0  0  0  0  0  0
  160.4020  211.9190  154.3190 C   0  0  1  0  0  3  0  0  0  0  0  0
  162.1230  207.5880  150.3210 C   0  0  0  0  0  0  0  0  0  0  0  0
  160.3840  212.5840  152.9460 C   0  0  0  0  0  2  0  0  0  0  0  0
  161.8780  208.8850  150.8180 C   0  0  0  0  0  0  0  0  0  0  0  0
  161.0360  210.3270  152.6750 N   0  0  0  0  0  0  0  0  0  0  0  0
  162.7590  207.4000  148.9710 C   0  0  0  0  0  2  0  0  0  0  0  0
  162.3390  205.7490  147.1060 N   0  0  0  0  0  2  0  0  0  0  0  0
  160.5970  206.9780  148.0620 O   0  0  0  0  0  0  0  0  0  0  0  0
  161.4800  205.0730  146.1480 C   0  0  0  0  0  1  0  0  0  0  0  0
  161.8280  206.7030  148.0370 C   0  0  0  0  0  0  0  0  0  0  0  0
  158.9870  211.7880  154.8590 C   0  0  0  0  0  2  0  0  0  0  0  0
  158.9650  211.9810  156.3380 C   0  0  0  0  0  0  0  0  0  0  0  0
  157.9290  211.6980  156.9950 O   0  0  0  0  0  0  0  0  0  0  0  0
  160.0980  212.4410  156.9970 O   0  0  0  0  0  1  0  0  0  0  0  0
  159.3660  213.8460  146.4960 C   0  0  0  0  0  2  0  0  0  0  0  0
  159.3990  213.7220  144.9810 C   0  0  0  0  0  2  0  0  0  0  0  0
  160.5370  214.4510  144.4380 N   0  0  0  0  0  2  0  0  0  0  0  0
  160.9350  213.8200  143.1880 C   0  0  0  0  0  2  0  0  0  0  0  0
  160.8950  212.3060  143.3210 C   0  0  0  0  0  2  0  0  0  0  0  0
  160.6180  211.7410  142.0650 O   0  0  0  0  0  0  0  0  0  0  0  0
  162.1060  212.2340  138.3040 C   0  0  2  0  0  0  0  0  0  0  0  0
  159.7300  214.0860  137.0740 S   0  0  0  0  0  1  0  0  0  0  0  0
  160.7950  212.9730  139.9210 C   0  0  2  0  0  0  0  0  0  0  0  0
  162.4360  213.1240  141.6870 F   0  0  0  0  0  0  0  0  0  0  0  0
  159.0100  210.9910  139.8320 C   0  0  0  0  0  1  0  0  0  0  0  0
  159.8630  212.0410  139.1150 C   0  0  2  0  0  0  0  0  0  0  0  0
  161.5230  212.2510  141.1040 C   0  0  1  0  0  0  0  0  0  0  0  0
  163.0140  211.3670  139.1980 C   0  0  0  0  0  2  0  0  0  0  0  0
  160.7690  211.5430  137.9860 C   0  0  1  0  0  0  0  0  0  0  0  0
  162.8420  212.5930  137.0280 C   0  0  0  0  0  1  0  0  0  0  0  0
  159.5070  212.3620  137.6540 C   0  0  2  0  0  0  0  0  0  0  0  0
  162.3280  211.0590  140.5430 C   0  0  0  0  0  2  0  0  0  0  0  0
  160.0890  214.0750  140.3660 F   0  0  0  0  0  0  0  0  0  0  0  0
  160.7500  210.0330  137.7220 C   0  0  0  0  0  1  0  0  0  0  0  0
  161.8000  213.3980  139.0300 O   0  0  0  0  0  0  0  0  0  0  0  0
  158.3450  211.5910  137.0300 C   0  0  0  0  0  2  0  0  0  0  0  0
  157.1360  212.2080  137.3520 O   0  0  0  0  0  1  0  0  0  0  0  0
  1  5  1  0  0  0  0
  2  3  2  0  0  0  0
  3  5  1  0  0  0  0
  4  6  1  0  0  0  0
  4  1  1  0  0  0  0
  5  7  1  0  0  0  0
  6  2  1  0  0  0  0
  7  8  1  0  0  0  0
  8 22  1  0  0  0  0
  9 15  1  0  0  0  0
  9 14  1  0  0  0  0
 10 23  1  0  0  0  0
 10 21  1  0  0  0  0
 11 13  1  0  0  0  0
 12 18  1  0  0  0  0
 12 13  1  0  0  0  0
 14 11  1  0  0  0  0
 15 12  2  0  0  0  0
 16 23  1  0  0  0  0
 16 18  2  0  0  0  0
 17 19  1  0  0  0  0
 19 29  1  6  0  0  0
 20 22  2  0  0  0  0
 20 15  1  0  0  0  0
 21 19  1  0  0  0  0
 22 16  1  0  0  0  0
 23 17  1  0  0  0  0
 24 20  1  0  0  0  0
 25 28  1  0  0  0  0
 27 25  1  0  0  0  0
 28 26  2  0  0  0  0
 28 24  1  0  0  0  0
 29 30  1  0  0  0  0
 30 31  2  0  0  0  0
 30 32  1  0  0  0  0
 33  2  1  0  0  0  0
 34 33  1  0  0  0  0
 35 34  1  0  0  0  0
 36 37  1  0  0  0  0
 36 35  1  0  0  0  0
 38 37  1  0  0  0  0
 39 48  1  6  0  0  0
 39 53  1  0  0  0  0
 39 46  1  0  0  0  0
 41 51  1  1  0  0  0
 41 45  1  0  0  0  0
 44 43  1  1  0  0  0
 44 41  1  0  0  0  0
 45 42  1  1  0  0  0
 45 38  1  0  0  0  0
 46 50  1  0  0  0  0
 47 52  1  6  0  0  0
 47 39  1  0  0  0  0
 47 44  1  0  0  0  0
 49 40  1  6  0  0  0
 49 47  1  0  0  0  0
 49 44  1  0  0  0  0
 50 45  1  0  0  0  0
 53 41  1  0  0  0  0
 54 55  1  0  0  0  0
 54 49  1  0  0  0  0
M  END
>  <MODEL>
5

>  <REMARK>
 VINA RESULT:      -6.2      2.830      5.044
  Name = 
  15 active torsions:
  status: ('A' for Active; 'I' for Inactive)
    1  A    between atoms: N_2  and  C_28
    2  A    between atoms: N_2  and  N_44
    3  A    between atoms: C_8  and  O_22
    4  A    between atoms: C_8  and  C_43
    5  A    between atoms: C_10  and  C_32
    6  A    between atoms: C_11  and  C_38
    7  A    between atoms: C_19  and  C_40
    8  A    between atoms: C_19  and  C_45
    9  A    between atoms: C_20  and  O_22
   10  A    between atoms: C_27  and  C_54
   11  A    between atoms: C_28  and  C_49
   12  A    between atoms: C_32  and  C_39
   13  A    between atoms: N_35  and  C_43
   14  A    between atoms: N_35  and  C_51
   15  A    between atoms: C_51  and  C_54
                            x       y       z     vdW  Elec       q    Type
                         _______ _______ _______ _____ _____    ______ ____

>  <TORSDO>
F 15

$$$$
=
 OpenBabel11062408553D

 55 61  0  0  1  0  0  0  0  0999 V2000
  161.9050  209.9530  150.6170 C   0  0  0  0  0  2  0  0  0  0  0  0
  161.8240  211.5310  148.2040 C   0  0  0  0  0  0  0  0  0  0  0  0
  161.9120  210.2040  148.1030 C   0  0  0  0  0  3  0  0  0  0  0  0
  162.4540  211.3760  150.6140 C   0  0  0  0  0  2  0  0  0  0  0  0
  161.9760  209.3740  149.2730 N   0  0  0  0  0  0  0  0  0  0  0  0
  161.7290  212.1930  149.5480 C   0  0  0  0  0  2  0  0  0  0  0  0
  162.1570  207.9910  149.1390 N   0  0  0  0  0  2  0  0  0  0  0  0
  160.8360  207.3840  149.0520 C   0  0  0  0  0  2  0  0  0  0  0  0
  160.6910  202.4990  147.7950 C   0  0  0  0  0  2  0  0  0  0  0  0
  160.5040  207.7580  151.9360 C   0  0  0  0  0  2  0  0  0  0  0  0
  160.7700  200.8260  149.6270 C   0  0  0  0  0  2  0  0  0  0  0  0
  161.1290  203.2570  150.1750 C   0  0  0  0  0  0  0  0  0  0  0  0
  161.3400  201.8350  150.6170 C   0  0  0  0  0  2  0  0  0  0  0  0
  161.2640  201.1550  148.2290 C   0  0  0  0  0  2  0  0  0  0  0  0
  160.9120  203.5850  148.8220 C   0  0  0  0  0  0  0  0  0  0  0  0
  161.1300  205.5620  150.7910 C   0  0  0  0  0  0  0  0  0  0  0  0
  162.0180  206.2470  153.0550 C   0  0  0  0  0  2  0  0  0  0  0  0
  161.2490  204.2420  151.0980 N   0  0  0  0  0  0  0  0  0  0  0  0
  161.6890  207.3640  154.0300 C   0  0  1  0  0  3  0  0  0  0  0  0
  160.8000  204.9400  148.4590 C   0  0  0  0  0  0  0  0  0  0  0  0
  160.9390  208.4210  153.2270 C   0  0  0  0  0  2  0  0  0  0  0  0
  160.9070  205.9410  149.4480 C   0  0  0  0  0  0  0  0  0  0  0  0
  161.2670  206.5290  151.8470 N   0  0  0  0  0  0  0  0  0  0  0  0
  160.5830  205.3160  147.0190 C   0  0  0  0  0  2  0  0  0  0  0  0
  163.0170  204.6800  146.7910 N   0  0  0  0  0  2  0  0  0  0  0  0
  161.5990  204.7650  144.9350 O   0  0  0  0  0  0  0  0  0  0  0  0
  164.1890  204.3120  146.0130 C   0  0  0  0  0  1  0  0  0  0  0  0
  161.7450  204.8990  146.1810 C   0  0  0  0  0  0  0  0  0  0  0  0
  160.8010  206.8130  155.1350 C   0  0  0  0  0  2  0  0  0  0  0  0
  160.7480  207.7540  156.2910 C   0  0  0  0  0  0  0  0  0  0  0  0
  161.7670  207.9280  157.0090 O   0  0  0  0  0  1  0  0  0  0  0  0
  159.5850  208.4660  156.5550 O   0  0  0  0  0  0  0  0  0  0  0  0
  161.7850  212.3560  146.9660 C   0  0  0  0  0  2  0  0  0  0  0  0
  160.3790  212.3550  146.3850 C   0  0  0  0  0  2  0  0  0  0  0  0
  160.2000  213.4930  145.4930 N   0  0  0  0  0  2  0  0  0  0  0  0
  160.8820  213.2080  144.2390 C   0  0  0  0  0  2  0  0  0  0  0  0
  160.0890  212.2010  143.4210 C   0  0  0  0  0  2  0  0  0  0  0  0
  160.8520  211.8100  142.3080 O   0  0  0  0  0  0  0  0  0  0  0  0
  160.9900  212.9220  138.3910 C   0  0  2  0  0  0  0  0  0  0  0  0
  159.2430  210.4850  137.1260 S   0  0  0  0  0  1  0  0  0  0  0  0
  159.9630  211.8030  139.9940 C   0  0  2  0  0  0  0  0  0  0  0  0
  159.6200  213.6170  141.5510 F   0  0  0  0  0  0  0  0  0  0  0  0
  161.8580  209.9630  140.3810 C   0  0  0  0  0  1  0  0  0  0  0  0
  160.9640  210.7690  139.4330 C   0  0  2  0  0  0  0  0  0  0  0  0
  160.5310  212.6260  141.1980 C   0  0  1  0  0  0  0  0  0  0  0  0
  161.7510  213.8910  139.3160 C   0  0  0  0  0  2  0  0  0  0  0  0
  161.6630  211.5410  138.3120 C   0  0  1  0  0  0  0  0  0  0  0  0
  160.8570  213.5350  137.0110 C   0  0  0  0  0  1  0  0  0  0  0  0
  160.8500  210.2750  137.9810 C   0  0  2  0  0  0  0  0  0  0  0  0
  161.8260  213.3370  140.7520 C   0  0  0  0  0  2  0  0  0  0  0  0
  158.7770  211.1760  140.3320 F   0  0  0  0  0  0  0  0  0  0  0  0
  163.1930  211.4540  138.2850 C   0  0  0  0  0  1  0  0  0  0  0  0
  159.7190  212.7230  138.9560 O   0  0  0  0  0  0  0  0  0  0  0  0
  161.6550  209.0350  137.5970 C   0  0  0  0  0  2  0  0  0  0  0  0
  160.9400  207.8830  137.9220 O   0  0  0  0  0  1  0  0  0  0  0  0
  2  6  1  0  0  0  0
  3  2  2  0  0  0  0
  3  5  1  0  0  0  0
  4  1  1  0  0  0  0
  5  1  1  0  0  0  0
  6  4  1  0  0  0  0
  7  5  1  0  0  0  0
  8  7  1  0  0  0  0
  8 22  1  0  0  0  0
  9 14  1  0  0  0  0
  9 15  1  0  0  0  0
 10 21  1  0  0  0  0
 11 13  1  0  0  0  0
 12 13  1  0  0  0  0
 12 18  1  0  0  0  0
 14 11  1  0  0  0  0
 15 12  2  0  0  0  0
 16 18  2  0  0  0  0
 16 23  1  0  0  0  0
 17 19  1  0  0  0  0
 19 29  1  1  0  0  0
 20 15  1  0  0  0  0
 20 22  2  0  0  0  0
 21 19  1  0  0  0  0
 22 16  1  0  0  0  0
 23 10  1  0  0  0  0
 23 17  1  0  0  0  0
 24 20  1  0  0  0  0
 26 28  2  0  0  0  0
 27 25  1  0  0  0  0
 28 25  1  0  0  0  0
 28 24  1  0  0  0  0
 29 30  1  0  0  0  0
 30 32  2  0  0  0  0
 30 31  1  0  0  0  0
 33  2  1  0  0  0  0
 34 33  1  0  0  0  0
 35 34  1  0  0  0  0
 36 35  1  0  0  0  0
 37 36  1  0  0  0  0
 38 37  1  0  0  0  0
 39 48  1  6  0  0  0
 39 53  1  0  0  0  0
 39 46  1  0  0  0  0
 41 51  1  1  0  0  0
 41 45  1  0  0  0  0
 44 41  1  0  0  0  0
 44 43  1  1  0  0  0
 45 42  1  1  0  0  0
 45 38  1  0  0  0  0
 46 50  1  0  0  0  0
 47 52  1  6  0  0  0
 47 39  1  0  0  0  0
 47 44  1  0  0  0  0
 49 40  1  6  0  0  0
 49 47  1  0  0  0  0
 49 44  1  0  0  0  0
 50 45  1  0  0  0  0
 53 41  1  0  0  0  0
 54 55  1  0  0  0  0
 54 49  1  0  0  0  0
M  END
>  <MODEL>
6

>  <REMARK>
 VINA RESULT:      -5.8      2.479      5.966
  Name = 
  15 active torsions:
  status: ('A' for Active; 'I' for Inactive)
    1  A    between atoms: N_2  and  C_28
    2  A    between atoms: N_2  and  N_44
    3  A    between atoms: C_8  and  O_22
    4  A    between atoms: C_8  and  C_43
    5  A    between atoms: C_10  and  C_32
    6  A    between atoms: C_11  and  C_38
    7  A    between atoms: C_19  and  C_40
    8  A    between atoms: C_19  and  C_45
    9  A    between atoms: C_20  and  O_22
   10  A    between atoms: C_27  and  C_54
   11  A    between atoms: C_28  and  C_49
   12  A    between atoms: C_32  and  C_39
   13  A    between atoms: N_35  and  C_43
   14  A    between atoms: N_35  and  C_51
   15  A    between atoms: C_51  and  C_54
                            x       y       z     vdW  Elec       q    Type
                         _______ _______ _______ _____ _____    ______ ____

>  <TORSDO>
F 15

$$$$
=
 OpenBabel11062408553D

 55 61  0  0  1  0  0  0  0  0999 V2000
  162.8350  211.7000  148.4980 C   0  0  0  0  0  2  0  0  0  0  0  0
  160.5820  212.6730  146.9830 C   0  0  0  0  0  0  0  0  0  0  0  0
  160.5700  211.4110  147.4160 C   0  0  0  0  0  3  0  0  0  0  0  0
  163.0280  212.8000  147.4580 C   0  0  0  0  0  2  0  0  0  0  0  0
  161.6750  210.8720  148.1570 N   0  0  0  0  0  0  0  0  0  0  0  0
  161.7280  213.5850  147.3090 C   0  0  0  0  0  2  0  0  0  0  0  0
  161.6760  209.5200  148.5240 N   0  0  0  0  0  2  0  0  0  0  0  0
  162.1300  209.4420  149.9050 C   0  0  0  0  0  2  0  0  0  0  0  0
  161.5630  204.4450  149.4950 C   0  0  0  0  0  2  0  0  0  0  0  0
  160.6600  210.5020  152.2040 C   0  0  0  0  0  2  0  0  0  0  0  0
  160.4980  203.2380  151.3860 C   0  0  0  0  0  2  0  0  0  0  0  0
  161.0650  205.6760  151.6550 C   0  0  0  0  0  0  0  0  0  0  0  0
  160.7710  204.3800  152.3590 C   0  0  0  0  0  2  0  0  0  0  0  0
  161.6060  203.1820  150.3480 C   0  0  0  0  0  2  0  0  0  0  0  0
  161.5300  205.7070  150.3260 C   0  0  0  0  0  0  0  0  0  0  0  0
  161.2640  208.0470  151.8370 C   0  0  0  0  0  0  0  0  0  0  0  0
  161.1970  209.1330  154.1180 C   0  0  0  0  0  2  0  0  0  0  0  0
  160.9680  206.8280  152.3640 N   0  0  0  0  0  0  0  0  0  0  0  0
  160.7100  210.4720  154.6420 C   0  0  1  0  0  3  0  0  0  0  0  0
  161.8620  206.9460  149.7480 C   0  0  0  0  0  0  0  0  0  0  0  0
  160.6140  211.3930  153.4290 C   0  0  0  0  0  2  0  0  0  0  0  0
  161.7290  208.1290  150.5060 C   0  0  0  0  0  0  0  0  0  0  0  0
  161.1200  209.2100  152.6720 N   0  0  0  0  0  0  0  0  0  0  0  0
  162.3740  207.0030  148.3360 C   0  0  0  0  0  2  0  0  0  0  0  0
  161.8690  205.7310  146.2120 N   0  0  0  0  0  2  0  0  0  0  0  0
  160.1630  206.4590  147.6330 O   0  0  0  0  0  0  0  0  0  0  0  0
  160.9580  205.1480  145.2410 C   0  0  0  0  0  1  0  0  0  0  0  0
  161.3990  206.3830  147.3920 C   0  0  0  0  0  0  0  0  0  0  0  0
  159.3390  210.2890  155.2740 C   0  0  0  0  0  2  0  0  0  0  0  0
  158.9370  211.5110  156.0300 C   0  0  0  0  0  0  0  0  0  0  0  0
  157.8130  212.0380  155.8230 O   0  0  0  0  0  0  0  0  0  0  0  0
  159.7890  212.0480  156.9870 O   0  0  0  0  0  1  0  0  0  0  0  0
  159.4250  213.1850  146.1980 C   0  0  0  0  0  2  0  0  0  0  0  0
  159.8210  213.3580  144.7400 C   0  0  0  0  0  2  0  0  0  0  0  0
  160.7890  214.4380  144.6030 N   0  0  0  0  0  2  0  0  0  0  0  0
  161.9810  213.9110  143.9540 C   0  0  0  0  0  2  0  0  0  0  0  0
  161.9340  214.1800  142.4590 C   0  0  0  0  0  2  0  0  0  0  0  0
  160.9270  213.3890  141.8810 O   0  0  0  0  0  0  0  0  0  0  0  0
  162.1530  211.5350  138.4660 C   0  0  2  0  0  0  0  0  0  0  0  0
  159.8450  209.2480  138.2920 S   0  0  0  0  0  1  0  0  0  0  0  0
  160.5150  211.9910  139.8760 C   0  0  2  0  0  0  0  0  0  0  0  0
  160.6390  214.4030  139.8200 F   0  0  0  0  0  0  0  0  0  0  0  0
  161.4550  210.5870  141.9420 C   0  0  0  0  0  1  0  0  0  0  0  0
  161.1190  210.6910  140.4510 C   0  0  2  0  0  0  0  0  0  0  0  0
  161.1420  213.2890  140.4860 C   0  0  1  0  0  0  0  0  0  0  0  0
  163.0600  212.7160  138.8650 C   0  0  0  0  0  2  0  0  0  0  0  0
  162.2430  210.3680  139.4640 C   0  0  1  0  0  0  0  0  0  0  0  0
  162.5060  211.0730  137.0660 C   0  0  0  0  0  1  0  0  0  0  0  0
  161.0730  209.3820  139.6450 C   0  0  2  0  0  0  0  0  0  0  0  0
  162.6670  213.2670  140.2500 C   0  0  0  0  0  2  0  0  0  0  0  0
  159.1400  211.9800  140.0270 F   0  0  0  0  0  0  0  0  0  0  0  0
  163.6000  210.0120  140.0810 C   0  0  0  0  0  1  0  0  0  0  0  0
  160.8280  212.0000  138.5020 O   0  0  0  0  0  0  0  0  0  0  0  0
  161.3890  208.0870  140.3930 C   0  0  0  0  0  2  0  0  0  0  0  0
  161.8720  207.1280  139.5020 O   0  0  0  0  0  1  0  0  0  0  0  0
  2  6  1  0  0  0  0
  2  3  2  0  0  0  0
  3  5  1  0  0  0  0
  4  1  1  0  0  0  0
  5  1  1  0  0  0  0
  5  7  1  0  0  0  0
  6  4  1  0  0  0  0
  7  8  1  0  0  0  0
  8 22  1  0  0  0  0
  9 15  1  0  0  0  0
  9 14  1  0  0  0  0
 10 23  1  0  0  0  0
 10 21  1  0  0  0  0
 11 13  1  0  0  0  0
 12 13  1  0  0  0  0
 12 18  1  0  0  0  0
 14 11  1  0  0  0  0
 15 12  2  0  0  0  0
 16 18  2  0  0  0  0
 16 23  1  0  0  0  0
 17 19  1  0  0  0  0
 19 29  1  6  0  0  0
 20 15  1  0  0  0  0
 20 22  2  0  0  0  0
 21 19  1  0  0  0  0
 22 16  1  0  0  0  0
 23 17  1  0  0  0  0
 24 20  1  0  0  0  0
 25 28  1  0  0  0  0
 27 25  1  0  0  0  0
 28 26  2  0  0  0  0
 28 24  1  0  0  0  0
 29 30  1  0  0  0  0
 30 32  1  0  0  0  0
 31 30  2  0  0  0  0
 33  2  1  0  0  0  0
 34 33  1  0  0  0  0
 35 34  1  0  0  0  0
 36 35  1  0  0  0  0
 37 36  1  0  0  0  0
 38 37  1  0  0  0  0
 39 48  1  6  0  0  0
 39 53  1  0  0  0  0
 39 46  1  0  0  0  0
 39 47  1  0  0  0  0
 41 51  1  1  0  0  0
 41 44  1  0  0  0  0
 41 45  1  0  0  0  0
 44 43  1  1  0  0  0
 45 42  1  6  0  0  0
 45 38  1  0  0  0  0
 46 50  1  0  0  0  0
 47 49  1  0  0  0  0
 47 52  1  1  0  0  0
 47 44  1  0  0  0  0
 49 40  1  6  0  0  0
 49 54  1  0  0  0  0
 49 44  1  0  0  0  0
 50 45  1  0  0  0  0
 53 41  1  0  0  0  0
 55 54  1  0  0  0  0
M  END
>  <MODEL>
7

>  <REMARK>
 VINA RESULT:      -5.8      2.773      5.459
  Name = 
  15 active torsions:
  status: ('A' for Active; 'I' for Inactive)
    1  A    between atoms: N_2  and  C_28
    2  A    between atoms: N_2  and  N_44
    3  A    between atoms: C_8  and  O_22
    4  A    between atoms: C_8  and  C_43
    5  A    between atoms: C_10  and  C_32
    6  A    between atoms: C_11  and  C_38
    7  A    between atoms: C_19  and  C_40
    8  A    between atoms: C_19  and  C_45
    9  A    between atoms: C_20  and  O_22
   10  A    between atoms: C_27  and  C_54
   11  A    between atoms: C_28  and  C_49
   12  A    between atoms: C_32  and  C_39
   13  A    between atoms: N_35  and  C_43
   14  A    between atoms: N_35  and  C_51
   15  A    between atoms: C_51  and  C_54
                            x       y       z     vdW  Elec       q    Type
                         _______ _______ _______ _____ _____    ______ ____

>  <TORSDO>
F 15

$$$$
=
 OpenBabel11062408553D

 55 61  0  0  1  0  0  0  0  0999 V2000
  162.6040  208.9020  150.6680 C   0  0  0  0  0  2  0  0  0  0  0  0
  161.7380  211.2360  149.2110 C   0  0  0  0  0  0  0  0  0  0  0  0
  161.6480  210.0400  148.6250 C   0  0  0  0  0  3  0  0  0  0  0  0
  163.2440  210.2590  150.9440 C   0  0  0  0  0  2  0  0  0  0  0  0
  162.0840  208.8500  149.2990 N   0  0  0  0  0  0  0  0  0  0  0  0
  162.2430  211.3640  150.6180 C   0  0  0  0  0  2  0  0  0  0  0  0
  162.0620  207.6200  148.6290 N   0  0  0  0  0  2  0  0  0  0  0  0
  160.7310  207.0540  148.7980 C   0  0  0  0  0  2  0  0  0  0  0  0
  160.6610  202.1460  147.6310 C   0  0  0  0  0  2  0  0  0  0  0  0
  160.4220  207.4750  151.6790 C   0  0  0  0  0  2  0  0  0  0  0  0
  160.7900  200.5070  149.4920 C   0  0  0  0  0  2  0  0  0  0  0  0
  161.1100  202.9540  149.9920 C   0  0  0  0  0  0  0  0  0  0  0  0
  161.3520  201.5450  150.4580 C   0  0  0  0  0  2  0  0  0  0  0  0
  161.2630  200.8200  148.0830 C   0  0  0  0  0  2  0  0  0  0  0  0
  160.8730  203.2540  148.6360 C   0  0  0  0  0  0  0  0  0  0  0  0
  161.0760  205.2690  150.5670 C   0  0  0  0  0  0  0  0  0  0  0  0
  161.9750  206.0120  152.8080 C   0  0  0  0  0  2  0  0  0  0  0  0
  161.2220  203.9580  150.8960 N   0  0  0  0  0  0  0  0  0  0  0  0
  161.6360  207.1400  153.7670 C   0  0  1  0  0  3  0  0  0  0  0  0
  160.7320  204.6000  148.2500 C   0  0  0  0  0  0  0  0  0  0  0  0
  160.8580  208.1690  152.9530 C   0  0  0  0  0  2  0  0  0  0  0  0
  160.8320  205.6200  149.2200 C   0  0  0  0  0  0  0  0  0  0  0  0
  161.2060  206.2580  151.6040 N   0  0  0  0  0  0  0  0  0  0  0  0
  160.4940  204.9450  146.8060 C   0  0  0  0  0  2  0  0  0  0  0  0
  162.9600  204.4190  146.6610 N   0  0  0  0  0  2  0  0  0  0  0  0
  161.7230  205.0000  144.7650 O   0  0  0  0  0  0  0  0  0  0  0  0
  164.2130  204.2910  145.9350 C   0  0  0  0  0  1  0  0  0  0  0  0
  161.7450  204.7870  146.0080 C   0  0  0  0  0  0  0  0  0  0  0  0
  160.7700  206.5930  154.8910 C   0  0  0  0  0  2  0  0  0  0  0  0
  160.6140  207.6020  155.9780 C   0  0  0  0  0  0  0  0  0  0  0  0
  161.2640  208.6790  155.9350 O   0  0  0  0  0  0  0  0  0  0  0  0
  159.7270  207.3700  157.0210 O   0  0  0  0  0  1  0  0  0  0  0  0
  161.2960  212.4470  148.4670 C   0  0  0  0  0  2  0  0  0  0  0  0
  160.6300  213.4290  149.4190 C   0  0  0  0  0  2  0  0  0  0  0  0
  159.3870  213.9260  148.8450 N   0  0  0  0  0  2  0  0  0  0  0  0
  158.4650  214.2250  149.9310 C   0  0  0  0  0  2  0  0  0  0  0  0
  158.6040  213.1970  151.0430 C   0  0  0  0  0  2  0  0  0  0  0  0
  158.6910  213.8630  152.2760 O   0  0  0  0  0  0  0  0  0  0  0  0
  158.4740  212.1820  155.9810 C   0  0  2  0  0  0  0  0  0  0  0  0
  155.5820  210.7190  155.6890 S   0  0  0  0  0  1  0  0  0  0  0  0
  157.8330  212.1670  153.8670 C   0  0  2  0  0  0  0  0  0  0  0  0
  160.0060  212.0390  152.8220 F   0  0  0  0  0  0  0  0  0  0  0  0
  156.4400  214.4430  153.9290 C   0  0  0  0  0  1  0  0  0  0  0  0
  156.7890  213.0840  154.5430 C   0  0  2  0  0  0  0  0  0  0  0  0
  159.0600  212.9460  153.2890 C   0  0  1  0  0  0  0  0  0  0  0  0
  159.7690  212.9880  155.7640 C   0  0  0  0  0  2  0  0  0  0  0  0
  157.2260  213.0800  156.0100 C   0  0  1  0  0  0  0  0  0  0  0  0
  158.5860  211.3750  157.2600 C   0  0  0  0  0  1  0  0  0  0  0  0
  155.8400  212.5310  155.6200 C   0  0  2  0  0  0  0  0  0  0  0  0
  159.7250  213.7510  154.4260 C   0  0  0  0  0  2  0  0  0  0  0  0
  157.2240  211.3970  152.8930 F   0  0  0  0  0  0  0  0  0  0  0  0
  157.3030  214.4490  156.6950 C   0  0  0  0  0  1  0  0  0  0  0  0
  158.3320  211.3230  154.8780 O   0  0  0  0  0  0  0  0  0  0  0  0
  154.6390  213.3930  156.0040 C   0  0  0  0  0  2  0  0  0  0  0  0
  154.1310  212.9810  157.2360 O   0  0  0  0  0  1  0  0  0  0  0  0
  1  4  1  0  0  0  0
  2  6  1  0  0  0  0
  3  2  2  0  0  0  0
  3  5  1  0  0  0  0
  5  1  1  0  0  0  0
  6  4  1  0  0  0  0
  7  8  1  0  0  0  0
  7  5  1  0  0  0  0
  8 22  1  0  0  0  0
  9 14  1  0  0  0  0
  9 15  1  0  0  0  0
 10 21  1  0  0  0  0
 11 13  1  0  0  0  0
 12 13  1  0  0  0  0
 12 18  1  0  0  0  0
 14 11  1  0  0  0  0
 15 12  2  0  0  0  0
 16 18  2  0  0  0  0
 16 23  1  0  0  0  0
 17 19  1  0  0  0  0
 19 29  1  1  0  0  0
 20 15  1  0  0  0  0
 20 22  2  0  0  0  0
 21 19  1  0  0  0  0
 22 16  1  0  0  0  0
 23 10  1  0  0  0  0
 23 17  1  0  0  0  0
 24 20  1  0  0  0  0
 26 28  2  0  0  0  0
 27 25  1  0  0  0  0
 28 25  1  0  0  0  0
 28 24  1  0  0  0  0
 29 30  1  0  0  0  0
 30 32  1  0  0  0  0
 31 30  2  0  0  0  0
 33  2  1  0  0  0  0
 33 34  1  0  0  0  0
 35 34  1  0  0  0  0
 35 36  1  0  0  0  0
 36 37  1  0  0  0  0
 37 38  1  0  0  0  0
 38 45  1  0  0  0  0
 39 47  1  0  0  0  0
 39 48  1  1  0  0  0
 41 51  1  6  0  0  0
 41 44  1  0  0  0  0
 41 53  1  0  0  0  0
 44 43  1  6  0  0  0
 44 49  1  0  0  0  0
 44 47  1  0  0  0  0
 45 42  1  6  0  0  0
 45 41  1  0  0  0  0
 45 50  1  0  0  0  0
 46 39  1  0  0  0  0
 47 52  1  1  0  0  0
 49 40  1  1  0  0  0
 49 54  1  0  0  0  0
 49 47  1  0  0  0  0
 50 46  1  0  0  0  0
 53 39  1  0  0  0  0
 54 55  1  0  0  0  0
M  END
>  <MODEL>
8

>  <REMARK>
 VINA RESULT:      -4.9      6.327     11.149
  Name = 
  15 active torsions:
  status: ('A' for Active; 'I' for Inactive)
    1  A    between atoms: N_2  and  C_28
    2  A    between atoms: N_2  and  N_44
    3  A    between atoms: C_8  and  O_22
    4  A    between atoms: C_8  and  C_43
    5  A    between atoms: C_10  and  C_32
    6  A    between atoms: C_11  and  C_38
    7  A    between atoms: C_19  and  C_40
    8  A    between atoms: C_19  and  C_45
    9  A    between atoms: C_20  and  O_22
   10  A    between atoms: C_27  and  C_54
   11  A    between atoms: C_28  and  C_49
   12  A    between atoms: C_32  and  C_39
   13  A    between atoms: N_35  and  C_43
   14  A    between atoms: N_35  and  C_51
   15  A    between atoms: C_51  and  C_54
                            x       y       z     vdW  Elec       q    Type
                         _______ _______ _______ _____ _____    ______ ____

>  <TORSDO>
F 15

$$$$
