=
 OpenBabel11062410053D

 43 48  0  0  1  0  0  0  0  0999 V2000
  162.9400  210.4370  154.0800 N   0  0  0  0  0  0  0  0  0  0  0  0
  162.0570  209.8630  153.3250 C   0  0  0  0  0  0  0  0  0  0  0  0
  162.6980  210.6030  155.5100 C   0  0  0  0  0  2  0  0  0  0  0  0
  160.7600  209.4050  153.9320 C   0  0  0  0  0  2  0  0  0  0  0  0
  162.3140  209.7250  151.9290 N   0  0  0  0  0  2  0  0  0  0  0  0
  160.2010  210.4880  154.8760 C   0  0  1  0  0  3  0  0  0  0  0  0
  161.2940  211.1710  155.7370 C   0  0  0  0  0  2  0  0  0  0  0  0
  161.8860  209.2320  149.6100 C   0  0  0  0  0  2  0  0  0  0  0  0
  162.3720  207.9620  150.2840 C   0  0  1  0  0  3  0  0  0  0  0  0
  161.4820  208.9370  151.0340 C   0  0  1  0  0  3  0  0  0  0  0  0
  161.6180  206.8060  149.7920 N   0  0  0  0  0  0  0  0  0  0  0  0
  161.6560  206.4330  148.4010 C   0  0  0  0  0  0  0  0  0  0  0  0
  160.6290  206.4600  146.2530 C   0  0  0  0  0  3  0  0  0  0  0  0
  162.7380  205.3370  146.5340 C   0  0  0  0  0  3  0  0  0  0  0  0
  161.6860  205.7300  145.7090 C   0  0  0  0  0  3  0  0  0  0  0  0
  162.7250  205.6880  147.8850 C   0  0  0  0  0  3  0  0  0  0  0  0
  160.6340  206.7880  147.5730 N   0  0  0  0  0  0  0  0  0  0  0  0
  160.2870  206.2090  150.8080 S   0  0  0  0  0  0  0  0  0  0  0  0
  161.3690  205.1730  151.8400 C   0  0  0  0  0  0  0  0  0  0  0  0
  161.7620  203.8220  151.2930 C   0  0  0  0  0  2  0  0  0  0  0  0
  162.2910  205.7720  152.6940 O   0  0  0  0  0  1  0  0  0  0  0  0
  160.7330  203.9320  152.4120 C   0  0  0  0  0  2  0  0  0  0  0  0
  159.4090  211.5240  154.0660 C   0  0  2  0  0  3  0  0  0  0  0  0
  155.7970  212.7600  156.0580 C   0  0  0  0  0  0  0  0  0  0  0  0
  158.0760  213.2320  155.3540 C   0  0  0  0  0  0  0  0  0  0  0  0
  155.8740  211.4940  155.4760 C   0  0  0  0  0  3  0  0  0  0  0  0
  154.6280  213.1650  156.6890 O   0  0  0  0  0  1  0  0  0  0  0  0
  158.1450  211.9600  154.7570 C   0  0  0  0  0  0  0  0  0  0  0  0
  156.8930  213.6230  156.0010 C   0  0  0  0  0  3  0  0  0  0  0  0
  157.0450  211.0930  154.8290 C   0  0  0  0  0  3  0  0  0  0  0  0
  159.9380  214.4530  156.4390 C   0  0  0  0  0  1  0  0  0  0  0  0
  159.1850  214.0860  155.2930 O   0  0  0  0  0  0  0  0  0  0  0  0
  159.1090  211.0180  152.7970 O   0  0  0  0  0  0  0  0  0  0  0  0
  159.4300  212.0500  151.9110 C   0  0  0  0  0  2  0  0  0  0  0  0
  158.1950  212.8900  151.6300 C   0  0  0  0  0  2  0  0  0  0  0  0
  159.2640  214.0500  148.1840 C   0  0  0  0  0  3  0  0  0  0  0  0
  158.0380  214.0640  147.4990 C   0  0  0  0  0  0  0  0  0  0  0  0
  156.9200  213.3160  149.5170 C   0  0  0  0  0  3  0  0  0  0  0  0
  159.3150  213.6670  149.5290 C   0  0  0  0  0  3  0  0  0  0  0  0
  158.1420  213.2940  150.1960 C   0  0  0  0  0  0  0  0  0  0  0  0
  156.8710  213.6970  148.1740 C   0  0  0  0  0  3  0  0  0  0  0  0
  158.9580  214.3260  145.2360 C   0  0  0  0  0  2  0  0  0  0  0  0
  157.9460  214.4500  146.0830 C   0  0  0  0  0  3  0  0  0  0  0  0
  1  3  1  0  0  0  0
  2  4  1  0  0  0  0
  2  1  2  0  0  0  0
  3  7  1  0  0  0  0
  4  6  1  0  0  0  0
  5  2  1  0  0  0  0
  6 23  1  6  0  0  0
  6  7  1  0  0  0  0
  8  9  1  0  0  0  0
  8 10  1  0  0  0  0
  9 11  1  6  0  0  0
  9 10  1  0  0  0  0
 10  5  1  1  0  0  0
 11 18  1  0  0  0  0
 12 11  1  0  0  0  0
 13 17  1  0  0  0  0
 14 16  2  0  0  0  0
 15 13  2  0  0  0  0
 15 14  1  0  0  0  0
 16 12  1  0  0  0  0
 17 12  2  0  0  0  0
 18 19  1  0  0  0  0
 19 22  1  0  0  0  0
 19 21  1  0  0  0  0
 20 19  1  0  0  0  0
 20 22  1  0  0  0  0
 23 33  1  6  0  0  0
 23 28  1  0  0  0  0
 24 27  1  0  0  0  0
 25 29  2  0  0  0  0
 26 24  2  0  0  0  0
 28 30  2  0  0  0  0
 28 25  1  0  0  0  0
 29 24  1  0  0  0  0
 30 26  1  0  0  0  0
 32 25  1  0  0  0  0
 32 31  1  0  0  0  0
 34 33  1  0  0  0  0
 35 34  1  0  0  0  0
 36 39  1  0  0  0  0
 37 41  1  0  0  0  0
 37 36  2  0  0  0  0
 38 40  1  0  0  0  0
 39 40  2  0  0  0  0
 40 35  1  0  0  0  0
 41 38  2  0  0  0  0
 42 43  2  0  0  0  0
 43 37  1  0  0  0  0
M  END
>  <MODEL>
1

>  <REMARK>
 VINA RESULT:      -5.7      0.000      0.000
  Name = 
  13 active torsions:
  status: ('A' for Active; 'I' for Inactive)
    1  A    between atoms: C_1  and  C_8
    2  A    between atoms: C_1  and  C_35
    3  A    between atoms: C_4  and  N_14
    4  A    between atoms: C_8  and  O_34
    5  A    between atoms: C_10  and  S_41
    6  A    between atoms: C_11  and  N_14
    7  A    between atoms: C_12  and  N_17
    8  A    between atoms: N_14  and  S_41
    9  A    between atoms: C_16  and  O_43
   10  A    between atoms: C_19  and  C_37
   11  A    between atoms: C_21  and  C_30
   12  A    between atoms: C_27  and  C_30
   13  A    between atoms: C_30  and  O_34
                            x       y       z     vdW  Elec       q    Type
                         _______ _______ _______ _____ _____    ______ ____

>  <TORSDO>
F 13

$$$$
=
 OpenBabel11062410053D

 43 48  0  0  1  0  0  0  0  0999 V2000
  161.9710  208.3140  155.9060 N   0  0  0  0  0  0  0  0  0  0  0  0
  161.1500  208.1680  154.9140 C   0  0  0  0  0  0  0  0  0  0  0  0
  161.4700  208.6030  157.2470 C   0  0  0  0  0  2  0  0  0  0  0  0
  159.6760  208.3400  155.1510 C   0  0  0  0  0  2  0  0  0  0  0  0
  161.6690  207.8990  153.6120 N   0  0  0  0  0  2  0  0  0  0  0  0
  159.4170  209.5800  156.0290 C   0  0  1  0  0  3  0  0  0  0  0  0
  160.4390  209.7340  157.1840 C   0  0  0  0  0  2  0  0  0  0  0  0
  161.3330  208.2700  151.2570 C   0  0  0  0  0  2  0  0  0  0  0  0
  161.7010  206.8110  151.4600 C   0  0  1  0  0  3  0  0  0  0  0  0
  160.8360  207.5360  152.4780 C   0  0  1  0  0  3  0  0  0  0  0  0
  160.9010  205.9580  150.5770 N   0  0  0  0  0  0  0  0  0  0  0  0
  160.9480  204.5220  150.6920 C   0  0  0  0  0  0  0  0  0  0  0  0
  161.3450  202.5940  152.0310 C   0  0  0  0  0  3  0  0  0  0  0  0
  160.7190  202.3150  149.7250 C   0  0  0  0  0  3  0  0  0  0  0  0
  161.0550  201.7540  150.9550 C   0  0  0  0  0  3  0  0  0  0  0  0
  160.6640  203.7030  149.5900 C   0  0  0  0  0  3  0  0  0  0  0  0
  161.2890  203.9440  151.8770 N   0  0  0  0  0  0  0  0  0  0  0  0
  160.2980  206.6820  149.0700 S   0  0  0  0  0  0  0  0  0  0  0  0
  161.8650  206.4410  148.1780 C   0  0  0  0  0  0  0  0  0  0  0  0
  161.9100  206.8610  146.7290 C   0  0  0  0  0  2  0  0  0  0  0  0
  163.0720  206.5180  148.8670 O   0  0  0  0  0  1  0  0  0  0  0  0
  161.8490  205.3840  147.1040 C   0  0  0  0  0  2  0  0  0  0  0  0
  159.3810  210.8390  155.1510 C   0  0  2  0  0  3  0  0  0  0  0  0
  155.8940  213.2570  155.8820 C   0  0  0  0  0  0  0  0  0  0  0  0
  158.1870  212.6560  156.4260 C   0  0  0  0  0  0  0  0  0  0  0  0
  155.8730  212.2890  154.8780 C   0  0  0  0  0  3  0  0  0  0  0  0
  154.7750  214.0470  156.1090 O   0  0  0  0  0  1  0  0  0  0  0  0
  158.1660  211.6900  155.4040 C   0  0  0  0  0  0  0  0  0  0  0  0
  157.0430  213.4380  156.6550 C   0  0  0  0  0  3  0  0  0  0  0  0
  157.0030  211.5040  154.6400 C   0  0  0  0  0  3  0  0  0  0  0  0
  160.2710  213.8760  156.9760 C   0  0  0  0  0  1  0  0  0  0  0  0
  159.3450  212.8230  157.1960 O   0  0  0  0  0  0  0  0  0  0  0  0
  159.4450  210.4870  153.7990 O   0  0  0  0  0  0  0  0  0  0  0  0
  160.4230  211.3240  153.2540 C   0  0  0  0  0  2  0  0  0  0  0  0
  159.7600  212.4920  152.5430 C   0  0  0  0  0  2  0  0  0  0  0  0
  161.6360  211.7950  149.3240 C   0  0  0  0  0  3  0  0  0  0  0  0
  161.0780  212.7510  148.4600 C   0  0  0  0  0  0  0  0  0  0  0  0
  159.6670  213.5370  150.2690 C   0  0  0  0  0  3  0  0  0  0  0  0
  161.2070  211.7100  150.6540 C   0  0  0  0  0  3  0  0  0  0  0  0
  160.2160  212.5800  151.1250 C   0  0  0  0  0  0  0  0  0  0  0  0
  160.0950  213.6200  148.9420 C   0  0  0  0  0  3  0  0  0  0  0  0
  162.6890  213.3120  146.6930 C   0  0  0  0  0  2  0  0  0  0  0  0
  161.4950  212.8630  147.0550 C   0  0  0  0  0  3  0  0  0  0  0  0
  1  3  1  0  0  0  0
  2  4  1  0  0  0  0
  2  1  2  0  0  0  0
  4  6  1  0  0  0  0
  5  2  1  0  0  0  0
  6 23  1  6  0  0  0
  6  7  1  0  0  0  0
  7  3  1  0  0  0  0
  8  9  1  0  0  0  0
  8 10  1  0  0  0  0
  9 11  1  6  0  0  0
  9 10  1  0  0  0  0
 10  5  1  1  0  0  0
 11 12  1  0  0  0  0
 12 17  1  0  0  0  0
 14 15  2  0  0  0  0
 15 13  1  0  0  0  0
 16 14  1  0  0  0  0
 16 12  2  0  0  0  0
 17 13  2  0  0  0  0
 18 11  1  0  0  0  0
 19 21  1  0  0  0  0
 19 18  1  0  0  0  0
 20 22  1  0  0  0  0
 20 19  1  0  0  0  0
 22 19  1  0  0  0  0
 23 33  1  6  0  0  0
 23 28  1  0  0  0  0
 24 27  1  0  0  0  0
 24 29  1  0  0  0  0
 25 29  2  0  0  0  0
 25 32  1  0  0  0  0
 26 24  2  0  0  0  0
 28 25  1  0  0  0  0
 30 26  1  0  0  0  0
 30 28  2  0  0  0  0
 31 32  1  0  0  0  0
 34 33  1  0  0  0  0
 35 34  1  0  0  0  0
 36 39  1  0  0  0  0
 37 41  1  0  0  0  0
 37 36  2  0  0  0  0
 38 40  1  0  0  0  0
 39 40  2  0  0  0  0
 40 35  1  0  0  0  0
 41 38  2  0  0  0  0
 42 43  2  0  0  0  0
 43 37  1  0  0  0  0
M  END
>  <MODEL>
2

>  <REMARK>
 VINA RESULT:      -5.5      1.925      3.147
  Name = 
  13 active torsions:
  status: ('A' for Active; 'I' for Inactive)
    1  A    between atoms: C_1  and  C_8
    2  A    between atoms: C_1  and  C_35
    3  A    between atoms: C_4  and  N_14
    4  A    between atoms: C_8  and  O_34
    5  A    between atoms: C_10  and  S_41
    6  A    between atoms: C_11  and  N_14
    7  A    between atoms: C_12  and  N_17
    8  A    between atoms: N_14  and  S_41
    9  A    between atoms: C_16  and  O_43
   10  A    between atoms: C_19  and  C_37
   11  A    between atoms: C_21  and  C_30
   12  A    between atoms: C_27  and  C_30
   13  A    between atoms: C_30  and  O_34
                            x       y       z     vdW  Elec       q    Type
                         _______ _______ _______ _____ _____    ______ ____

>  <TORSDO>
F 13

$$$$
=
 OpenBabel11062410053D

 43 48  0  0  1  0  0  0  0  0999 V2000
  162.9850  212.3890  147.7810 N   0  0  0  0  0  0  0  0  0  0  0  0
  162.1860  211.6350  148.4700 C   0  0  0  0  0  0  0  0  0  0  0  0
  162.8300  213.8400  147.7950 C   0  0  0  0  0  2  0  0  0  0  0  0
  161.0720  212.2710  149.2540 C   0  0  0  0  0  2  0  0  0  0  0  0
  162.3520  210.2190  148.4270 N   0  0  0  0  0  2  0  0  0  0  0  0
  160.3720  213.3520  148.4060 C   0  0  1  0  0  3  0  0  0  0  0  0
  161.3600  214.2100  147.5740 C   0  0  0  0  0  2  0  0  0  0  0  0
  161.7420  207.9090  148.7300 C   0  0  0  0  0  2  0  0  0  0  0  0
  162.6380  208.3190  149.8850 C   0  0  1  0  0  3  0  0  0  0  0  0
  161.6380  209.3020  149.3000 C   0  0  1  0  0  3  0  0  0  0  0  0
  162.1530  207.7310  151.1370 N   0  0  0  0  0  0  0  0  0  0  0  0
  161.6400  208.5620  152.1960 C   0  0  0  0  0  0  0  0  0  0  0  0
  160.5950  208.7360  154.3290 C   0  0  0  0  0  3  0  0  0  0  0  0
  161.1740  210.7430  153.1360 C   0  0  0  0  0  3  0  0  0  0  0  0
  160.6330  210.1290  154.2640 C   0  0  0  0  0  3  0  0  0  0  0  0
  161.6800  209.9600  152.0980 C   0  0  0  0  0  3  0  0  0  0  0  0
  161.0900  207.9910  153.3040 N   0  0  0  0  0  0  0  0  0  0  0  0
  162.6800  206.0770  151.5180 S   0  0  0  0  0  0  0  0  0  0  0  0
  161.1180  205.3180  150.9750 C   0  0  0  0  0  0  0  0  0  0  0  0
  160.7880  203.9480  151.5140 C   0  0  0  0  0  2  0  0  0  0  0  0
  160.0260  206.1260  150.6690 O   0  0  0  0  0  1  0  0  0  0  0  0
  161.2540  204.1190  150.0720 C   0  0  0  0  0  2  0  0  0  0  0  0
  159.3130  212.7010  147.5060 C   0  0  2  0  0  3  0  0  0  0  0  0
  159.9270  213.5260  143.3260 C   0  0  0  0  0  0  0  0  0  0  0  0
  158.5330  213.6660  145.3130 C   0  0  0  0  0  0  0  0  0  0  0  0
  160.9070  212.8500  144.0540 C   0  0  0  0  0  3  0  0  0  0  0  0
  160.1310  213.8040  141.9800 O   0  0  0  0  0  1  0  0  0  0  0  0
  159.5280  212.9960  146.0470 C   0  0  0  0  0  0  0  0  0  0  0  0
  158.7450  213.9280  143.9490 C   0  0  0  0  0  3  0  0  0  0  0  0
  160.7080  212.5830  145.4100 C   0  0  0  0  0  3  0  0  0  0  0  0
  156.1860  214.4530  145.2400 C   0  0  0  0  0  1  0  0  0  0  0  0
  157.3500  214.0600  145.9510 O   0  0  0  0  0  0  0  0  0  0  0  0
  158.0330  213.1110  147.8930 O   0  0  0  0  0  0  0  0  0  0  0  0
  158.2400  213.9730  148.9740 C   0  0  0  0  0  2  0  0  0  0  0  0
  156.9170  214.2580  149.6650 C   0  0  0  0  0  2  0  0  0  0  0  0
  155.9930  213.9290  153.3250 C   0  0  0  0  0  3  0  0  0  0  0  0
  157.1500  213.3380  153.8560 C   0  0  0  0  0  0  0  0  0  0  0  0
  158.1520  213.3550  151.6480 C   0  0  0  0  0  3  0  0  0  0  0  0
  155.9170  214.2290  151.9610 C   0  0  0  0  0  3  0  0  0  0  0  0
  156.9970  213.9360  151.1190 C   0  0  0  0  0  0  0  0  0  0  0  0
  158.2260  213.0560  153.0100 C   0  0  0  0  0  3  0  0  0  0  0  0
  156.2090  212.8280  156.0670 C   0  0  0  0  0  2  0  0  0  0  0  0
  157.2640  212.9990  155.2820 C   0  0  0  0  0  3  0  0  0  0  0  0
  1  3  1  0  0  0  0
  1  2  2  0  0  0  0
  2  4  1  0  0  0  0
  5  2  1  0  0  0  0
  6 23  1  6  0  0  0
  6  4  1  0  0  0  0
  7  3  1  0  0  0  0
  7  6  1  0  0  0  0
  8 10  1  0  0  0  0
  8  9  1  0  0  0  0
  9 11  1  1  0  0  0
 10  5  1  6  0  0  0
 10  9  1  0  0  0  0
 11 18  1  0  0  0  0
 11 12  1  0  0  0  0
 12 17  1  0  0  0  0
 14 15  2  0  0  0  0
 15 13  1  0  0  0  0
 16 12  2  0  0  0  0
 16 14  1  0  0  0  0
 17 13  2  0  0  0  0
 19 20  1  0  0  0  0
 19 18  1  0  0  0  0
 21 19  1  0  0  0  0
 22 19  1  0  0  0  0
 22 20  1  0  0  0  0
 23 33  1  1  0  0  0
 24 29  2  0  0  0  0
 24 26  1  0  0  0  0
 25 32  1  0  0  0  0
 25 28  2  0  0  0  0
 26 30  2  0  0  0  0
 27 24  1  0  0  0  0
 28 23  1  0  0  0  0
 29 25  1  0  0  0  0
 30 28  1  0  0  0  0
 31 32  1  0  0  0  0
 33 34  1  0  0  0  0
 34 35  1  0  0  0  0
 35 40  1  0  0  0  0
 36 37  1  0  0  0  0
 37 43  1  0  0  0  0
 38 41  1  0  0  0  0
 39 36  2  0  0  0  0
 40 38  2  0  0  0  0
 40 39  1  0  0  0  0
 41 37  2  0  0  0  0
 43 42  2  0  0  0  0
M  END
>  <MODEL>
3

>  <REMARK>
 VINA RESULT:      -4.4      2.962      7.407
  Name = 
  13 active torsions:
  status: ('A' for Active; 'I' for Inactive)
    1  A    between atoms: C_1  and  C_8
    2  A    between atoms: C_1  and  C_35
    3  A    between atoms: C_4  and  N_14
    4  A    between atoms: C_8  and  O_34
    5  A    between atoms: C_10  and  S_41
    6  A    between atoms: C_11  and  N_14
    7  A    between atoms: C_12  and  N_17
    8  A    between atoms: N_14  and  S_41
    9  A    between atoms: C_16  and  O_43
   10  A    between atoms: C_19  and  C_37
   11  A    between atoms: C_21  and  C_30
   12  A    between atoms: C_27  and  C_30
   13  A    between atoms: C_30  and  O_34
                            x       y       z     vdW  Elec       q    Type
                         _______ _______ _______ _____ _____    ______ ____

>  <TORSDO>
F 13

$$$$
=
 OpenBabel11062410053D

 43 48  0  0  1  0  0  0  0  0999 V2000
  160.8830  206.8010  153.1680 N   0  0  0  0  0  0  0  0  0  0  0  0
  161.0730  208.0590  152.9200 C   0  0  0  0  0  0  0  0  0  0  0  0
  161.9110  205.8180  152.8410 C   0  0  0  0  0  2  0  0  0  0  0  0
  162.3500  208.4910  152.2540 C   0  0  0  0  0  2  0  0  0  0  0  0
  160.0450  208.9960  153.2370 N   0  0  0  0  0  2  0  0  0  0  0  0
  162.6910  207.5420  151.0880 C   0  0  1  0  0  3  0  0  0  0  0  0
  162.4200  206.0510  151.4150 C   0  0  0  0  0  2  0  0  0  0  0  0
  159.9710  210.8970  151.7600 C   0  0  0  0  0  2  0  0  0  0  0  0
  158.8960  211.0750  152.8180 C   0  0  1  0  0  3  0  0  0  0  0  0
  160.2280  210.4370  153.1750 C   0  0  1  0  0  3  0  0  0  0  0  0
  158.8320  212.4750  153.2470 N   0  0  0  0  0  0  0  0  0  0  0  0
  157.9780  212.8790  154.3350 C   0  0  0  0  0  0  0  0  0  0  0  0
  157.4810  214.4310  156.0710 C   0  0  0  0  0  3  0  0  0  0  0  0
  156.0520  212.5210  155.7570 C   0  0  0  0  0  3  0  0  0  0  0  0
  156.3570  213.6930  156.4460 C   0  0  0  0  0  3  0  0  0  0  0  0
  156.8630  212.1100  154.6980 C   0  0  0  0  0  3  0  0  0  0  0  0
  158.2600  214.0110  155.0380 N   0  0  0  0  0  0  0  0  0  0  0  0
  159.4070  213.7060  152.1010 S   0  0  0  0  0  0  0  0  0  0  0  0
  157.7930  213.8760  151.2780 C   0  0  0  0  0  0  0  0  0  0  0  0
  157.5170  212.9760  150.1000 C   0  0  0  0  0  2  0  0  0  0  0  0
  156.6780  214.2650  152.0170 O   0  0  0  0  0  1  0  0  0  0  0  0
  157.8270  214.4530  149.8870 C   0  0  0  0  0  2  0  0  0  0  0  0
  161.9340  207.9770  149.8260 C   0  0  2  0  0  3  0  0  0  0  0  0
  161.6990  204.8440  146.8810 C   0  0  0  0  0  0  0  0  0  0  0  0
  160.9400  205.8240  148.9730 C   0  0  0  0  0  0  0  0  0  0  0  0
  162.6060  205.8920  146.7150 C   0  0  0  0  0  3  0  0  0  0  0  0
  161.6130  203.8400  145.9250 O   0  0  0  0  0  1  0  0  0  0  0  0
  161.8460  206.8850  148.7950 C   0  0  0  0  0  0  0  0  0  0  0  0
  160.8730  204.8070  148.0060 C   0  0  0  0  0  3  0  0  0  0  0  0
  162.6830  206.9080  147.6690 C   0  0  0  0  0  3  0  0  0  0  0  0
  159.7140  204.5920  150.7390 C   0  0  0  0  0  1  0  0  0  0  0  0
  160.1200  205.7980  150.1090 O   0  0  0  0  0  0  0  0  0  0  0  0
  162.5340  209.1120  149.2700 O   0  0  0  0  0  0  0  0  0  0  0  0
  161.4880  210.0220  149.0910 C   0  0  0  0  0  2  0  0  0  0  0  0
  162.0280  211.4410  149.1470 C   0  0  0  0  0  2  0  0  0  0  0  0
  162.2410  213.4160  145.9200 C   0  0  0  0  0  3  0  0  0  0  0  0
  160.8850  213.6620  145.6500 C   0  0  0  0  0  0  0  0  0  0  0  0
  160.2830  212.4610  147.6690 C   0  0  0  0  0  3  0  0  0  0  0  0
  162.6130  212.6930  147.0580 C   0  0  0  0  0  3  0  0  0  0  0  0
  161.6320  212.2100  147.9320 C   0  0  0  0  0  0  0  0  0  0  0  0
  159.9120  213.1820  146.5310 C   0  0  0  0  0  3  0  0  0  0  0  0
  160.9760  214.2070  143.2560 C   0  0  0  0  0  2  0  0  0  0  0  0
  160.4540  214.4080  144.4590 C   0  0  0  0  0  3  0  0  0  0  0  0
  2  1  2  0  0  0  0
  2  5  1  0  0  0  0
  3  1  1  0  0  0  0
  4  2  1  0  0  0  0
  6 23  1  6  0  0  0
  6  7  1  0  0  0  0
  6  4  1  0  0  0  0
  7  3  1  0  0  0  0
  8  9  1  0  0  0  0
  8 10  1  0  0  0  0
  9 10  1  0  0  0  0
  9 11  1  1  0  0  0
 10  5  1  6  0  0  0
 11 12  1  0  0  0  0
 12 16  2  0  0  0  0
 12 17  1  0  0  0  0
 13 15  1  0  0  0  0
 14 15  2  0  0  0  0
 16 14  1  0  0  0  0
 17 13  2  0  0  0  0
 18 11  1  0  0  0  0
 19 21  1  0  0  0  0
 19 18  1  0  0  0  0
 20 19  1  0  0  0  0
 22 20  1  0  0  0  0
 22 19  1  0  0  0  0
 23 33  1  6  0  0  0
 24 29  1  0  0  0  0
 25 32  1  0  0  0  0
 26 24  2  0  0  0  0
 26 30  1  0  0  0  0
 27 24  1  0  0  0  0
 28 25  1  0  0  0  0
 28 23  1  0  0  0  0
 29 25  2  0  0  0  0
 30 28  2  0  0  0  0
 32 31  1  0  0  0  0
 34 35  1  0  0  0  0
 34 33  1  0  0  0  0
 36 39  1  0  0  0  0
 37 36  2  0  0  0  0
 37 41  1  0  0  0  0
 38 40  1  0  0  0  0
 39 40  2  0  0  0  0
 40 35  1  0  0  0  0
 41 38  2  0  0  0  0
 42 43  2  0  0  0  0
 43 37  1  0  0  0  0
M  END
>  <MODEL>
4

>  <REMARK>
 VINA RESULT:      -3.6      2.798      8.446
  Name = 
  13 active torsions:
  status: ('A' for Active; 'I' for Inactive)
    1  A    between atoms: C_1  and  C_8
    2  A    between atoms: C_1  and  C_35
    3  A    between atoms: C_4  and  N_14
    4  A    between atoms: C_8  and  O_34
    5  A    between atoms: C_10  and  S_41
    6  A    between atoms: C_11  and  N_14
    7  A    between atoms: C_12  and  N_17
    8  A    between atoms: N_14  and  S_41
    9  A    between atoms: C_16  and  O_43
   10  A    between atoms: C_19  and  C_37
   11  A    between atoms: C_21  and  C_30
   12  A    between atoms: C_27  and  C_30
   13  A    between atoms: C_30  and  O_34
                            x       y       z     vdW  Elec       q    Type
                         _______ _______ _______ _____ _____    ______ ____

>  <TORSDO>
F 13

$$$$
=
 OpenBabel11062410053D

 43 48  0  0  1  0  0  0  0  0999 V2000
  161.4730  206.7290  156.0730 N   0  0  0  0  0  0  0  0  0  0  0  0
  160.9500  206.8140  154.8900 C   0  0  0  0  0  0  0  0  0  0  0  0
  160.7070  207.1220  157.2520 C   0  0  0  0  0  2  0  0  0  0  0  0
  159.5580  207.3610  154.7420 C   0  0  0  0  0  2  0  0  0  0  0  0
  161.7260  206.4360  153.7540 N   0  0  0  0  0  2  0  0  0  0  0  0
  159.3800  208.6150  155.6210 C   0  0  1  0  0  3  0  0  0  0  0  0
  160.0470  208.4830  157.0140 C   0  0  0  0  0  2  0  0  0  0  0  0
  162.1800  206.8680  151.4290 C   0  0  0  0  0  2  0  0  0  0  0  0
  162.0570  205.3660  151.6180 C   0  0  1  0  0  3  0  0  0  0  0  0
  161.1780  206.3160  152.4130 C   0  0  1  0  0  3  0  0  0  0  0  0
  161.3340  204.7700  150.4920 N   0  0  0  0  0  0  0  0  0  0  0  0
  161.4320  205.3290  149.1680 C   0  0  0  0  0  0  0  0  0  0  0  0
  162.4460  205.3060  147.0130 C   0  0  0  0  0  3  0  0  0  0  0  0
  160.7510  206.9430  147.4980 C   0  0  0  0  0  3  0  0  0  0  0  0
  161.6570  206.3810  146.6010 C   0  0  0  0  0  3  0  0  0  0  0  0
  160.6360  206.4180  148.7860 C   0  0  0  0  0  3  0  0  0  0  0  0
  162.3200  204.8120  148.2750 N   0  0  0  0  0  0  0  0  0  0  0  0
  159.9660  203.7020  150.8770 S   0  0  0  0  0  0  0  0  0  0  0  0
  160.8300  202.1920  150.3430 C   0  0  0  0  0  0  0  0  0  0  0  0
  160.8470  201.8890  148.8650 C   0  0  0  0  0  2  0  0  0  0  0  0
  161.9250  201.7300  151.0680 O   0  0  0  0  0  1  0  0  0  0  0  0
  159.9510  201.0920  149.8070 C   0  0  0  0  0  2  0  0  0  0  0  0
  159.9010  209.8510  154.8740 C   0  0  2  0  0  3  0  0  0  0  0  0
  163.5950  211.3310  156.5160 C   0  0  0  0  0  0  0  0  0  0  0  0
  162.3820  210.2570  154.7020 C   0  0  0  0  0  0  0  0  0  0  0  0
  162.4150  211.4320  157.2520 C   0  0  0  0  0  3  0  0  0  0  0  0
  164.7850  211.8200  157.0390 O   0  0  0  0  0  1  0  0  0  0  0  0
  161.1920  210.3730  155.4430 C   0  0  0  0  0  0  0  0  0  0  0  0
  163.5810  210.7430  155.2490 C   0  0  0  0  0  3  0  0  0  0  0  0
  161.2170  210.9530  156.7210 C   0  0  0  0  0  3  0  0  0  0  0  0
  162.2150  210.4090  152.2350 C   0  0  0  0  0  1  0  0  0  0  0  0
  162.3530  209.6610  153.4350 O   0  0  0  0  0  0  0  0  0  0  0  0
  158.9330  210.8610  154.8780 O   0  0  0  0  0  0  0  0  0  0  0  0
  158.7520  211.1930  153.5320 C   0  0  0  0  0  2  0  0  0  0  0  0
  159.0320  212.6720  153.3250 C   0  0  0  0  0  2  0  0  0  0  0  0
  157.7480  213.5130  149.8600 C   0  0  0  0  0  3  0  0  0  0  0  0
  158.9470  213.6690  149.1450 C   0  0  0  0  0  0  0  0  0  0  0  0
  160.1950  213.1660  151.1630 C   0  0  0  0  0  3  0  0  0  0  0  0
  157.7750  213.1890  151.2210 C   0  0  0  0  0  3  0  0  0  0  0  0
  159.0020  213.0210  151.8750 C   0  0  0  0  0  0  0  0  0  0  0  0
  160.1660  213.4910  149.8050 C   0  0  0  0  0  3  0  0  0  0  0  0
  158.7220  213.1360  146.7580 C   0  0  0  0  0  2  0  0  0  0  0  0
  158.9590  214.0190  147.7180 C   0  0  0  0  0  3  0  0  0  0  0  0
  1  3  1  0  0  0  0
  2  1  2  0  0  0  0
  4  2  1  0  0  0  0
  4  6  1  0  0  0  0
  5  2  1  0  0  0  0
  6 23  1  6  0  0  0
  6  7  1  0  0  0  0
  7  3  1  0  0  0  0
  8  9  1  0  0  0  0
  8 10  1  0  0  0  0
  9 11  1  6  0  0  0
  9 10  1  0  0  0  0
 10  5  1  1  0  0  0
 11 18  1  0  0  0  0
 12 11  1  0  0  0  0
 13 17  1  0  0  0  0
 14 16  2  0  0  0  0
 15 13  2  0  0  0  0
 15 14  1  0  0  0  0
 16 12  1  0  0  0  0
 17 12  2  0  0  0  0
 19 18  1  0  0  0  0
 19 21  1  0  0  0  0
 20 22  1  0  0  0  0
 20 19  1  0  0  0  0
 22 19  1  0  0  0  0
 23 33  1  1  0  0  0
 23 28  1  0  0  0  0
 24 27  1  0  0  0  0
 24 26  1  0  0  0  0
 25 29  1  0  0  0  0
 25 28  2  0  0  0  0
 28 30  1  0  0  0  0
 29 24  2  0  0  0  0
 30 26  2  0  0  0  0
 31 32  1  0  0  0  0
 32 25  1  0  0  0  0
 34 33  1  0  0  0  0
 35 34  1  0  0  0  0
 36 39  1  0  0  0  0
 37 41  1  0  0  0  0
 37 36  2  0  0  0  0
 38 40  1  0  0  0  0
 39 40  2  0  0  0  0
 40 35  1  0  0  0  0
 41 38  2  0  0  0  0
 42 43  2  0  0  0  0
 43 37  1  0  0  0  0
M  END
>  <MODEL>
5

>  <REMARK>
 VINA RESULT:      -3.5      2.323      3.977
  Name = 
  13 active torsions:
  status: ('A' for Active; 'I' for Inactive)
    1  A    between atoms: C_1  and  C_8
    2  A    between atoms: C_1  and  C_35
    3  A    between atoms: C_4  and  N_14
    4  A    between atoms: C_8  and  O_34
    5  A    between atoms: C_10  and  S_41
    6  A    between atoms: C_11  and  N_14
    7  A    between atoms: C_12  and  N_17
    8  A    between atoms: N_14  and  S_41
    9  A    between atoms: C_16  and  O_43
   10  A    between atoms: C_19  and  C_37
   11  A    between atoms: C_21  and  C_30
   12  A    between atoms: C_27  and  C_30
   13  A    between atoms: C_30  and  O_34
                            x       y       z     vdW  Elec       q    Type
                         _______ _______ _______ _____ _____    ______ ____

>  <TORSDO>
F 13

$$$$
=
 OpenBabel11062410053D

 43 48  0  0  1  0  0  0  0  0999 V2000
  162.2780  206.8900  154.6330 N   0  0  0  0  0  0  0  0  0  0  0  0
  161.6190  206.9470  153.5180 C   0  0  0  0  0  0  0  0  0  0  0  0
  161.7050  207.4330  155.8610 C   0  0  0  0  0  2  0  0  0  0  0  0
  160.2730  207.6160  153.4950 C   0  0  0  0  0  2  0  0  0  0  0  0
  162.2090  206.4200  152.3310 N   0  0  0  0  0  2  0  0  0  0  0  0
  160.3190  208.9360  154.2880 C   0  0  1  0  0  3  0  0  0  0  0  0
  161.1430  208.8330  155.5980 C   0  0  0  0  0  2  0  0  0  0  0  0
  162.3830  206.7010  149.9450 C   0  0  0  0  0  2  0  0  0  0  0  0
  162.2030  205.2220  150.2370 C   0  0  1  0  0  3  0  0  0  0  0  0
  161.4870  206.2650  151.0790 C   0  0  1  0  0  3  0  0  0  0  0  0
  161.3090  204.6140  149.2490 N   0  0  0  0  0  0  0  0  0  0  0  0
  161.3590  205.0070  147.8630 C   0  0  0  0  0  0  0  0  0  0  0  0
  162.3850  204.8130  145.7230 C   0  0  0  0  0  3  0  0  0  0  0  0
  160.5290  206.3170  146.0050 C   0  0  0  0  0  3  0  0  0  0  0  0
  161.4940  205.7400  145.1820 C   0  0  0  0  0  3  0  0  0  0  0  0
  160.4590  205.9510  147.3500 C   0  0  0  0  0  3  0  0  0  0  0  0
  162.3020  204.4730  147.0380 N   0  0  0  0  0  0  0  0  0  0  0  0
  159.8540  203.7960  149.8600 S   0  0  0  0  0  0  0  0  0  0  0  0
  160.3420  202.1680  149.2090 C   0  0  0  0  0  0  0  0  0  0  0  0
  160.0810  200.9660  150.0830 C   0  0  0  0  0  2  0  0  0  0  0  0
  160.3150  201.9360  147.8370 O   0  0  0  0  0  1  0  0  0  0  0  0
  161.4970  201.5040  149.9130 C   0  0  0  0  0  2  0  0  0  0  0  0
  160.8490  210.0630  153.3900 C   0  0  2  0  0  3  0  0  0  0  0  0
  158.0260  213.2840  152.9510 C   0  0  0  0  0  0  0  0  0  0  0  0
  159.8260  212.2220  154.1930 C   0  0  0  0  0  0  0  0  0  0  0  0
  158.0620  212.2550  152.0100 C   0  0  0  0  0  3  0  0  0  0  0  0
  157.1250  214.3310  152.8030 O   0  0  0  0  0  1  0  0  0  0  0  0
  159.8680  211.1930  153.2350 C   0  0  0  0  0  0  0  0  0  0  0  0
  158.9010  213.2670  154.0400 C   0  0  0  0  0  3  0  0  0  0  0  0
  158.9770  211.2110  152.1510 C   0  0  0  0  0  3  0  0  0  0  0  0
  160.3090  211.7760  156.5820 C   0  0  0  0  0  1  0  0  0  0  0  0
  160.7070  212.1880  155.2830 O   0  0  0  0  0  0  0  0  0  0  0  0
  161.1960  209.5560  152.1340 O   0  0  0  0  0  0  0  0  0  0  0  0
  162.3060  210.3070  151.7350 C   0  0  0  0  0  2  0  0  0  0  0  0
  162.6260  210.0180  150.2780 C   0  0  0  0  0  2  0  0  0  0  0  0
  161.0200  211.5310  147.1960 C   0  0  0  0  0  3  0  0  0  0  0  0
  160.5970  212.7780  147.6830 C   0  0  0  0  0  0  0  0  0  0  0  0
  161.5060  212.2180  149.8610 C   0  0  0  0  0  3  0  0  0  0  0  0
  161.6810  210.6320  148.0410 C   0  0  0  0  0  3  0  0  0  0  0  0
  161.9190  210.9740  149.3780 C   0  0  0  0  0  0  0  0  0  0  0  0
  160.8450  213.1140  149.0170 C   0  0  0  0  0  3  0  0  0  0  0  0
  159.7340  213.5710  145.5240 C   0  0  0  0  0  2  0  0  0  0  0  0
  159.8910  213.7450  146.8290 C   0  0  0  0  0  3  0  0  0  0  0  0
  1  3  1  0  0  0  0
  2  1  2  0  0  0  0
  4  2  1  0  0  0  0
  4  6  1  0  0  0  0
  5  2  1  0  0  0  0
  6 23  1  6  0  0  0
  6  7  1  0  0  0  0
  7  3  1  0  0  0  0
  8  9  1  0  0  0  0
  8 10  1  0  0  0  0
  9 11  1  6  0  0  0
  9 10  1  0  0  0  0
 10  5  1  1  0  0  0
 11 18  1  0  0  0  0
 12 11  1  0  0  0  0
 13 17  1  0  0  0  0
 14 16  2  0  0  0  0
 15 13  2  0  0  0  0
 15 14  1  0  0  0  0
 16 12  1  0  0  0  0
 17 12  2  0  0  0  0
 19 18  1  0  0  0  0
 19 22  1  0  0  0  0
 19 20  1  0  0  0  0
 21 19  1  0  0  0  0
 22 20  1  0  0  0  0
 23 33  1  6  0  0  0
 24 29  1  0  0  0  0
 25 32  1  0  0  0  0
 26 30  1  0  0  0  0
 26 24  2  0  0  0  0
 27 24  1  0  0  0  0
 28 23  1  0  0  0  0
 28 25  1  0  0  0  0
 29 25  2  0  0  0  0
 30 28  2  0  0  0  0
 32 31  1  0  0  0  0
 34 33  1  0  0  0  0
 35 34  1  0  0  0  0
 36 37  2  0  0  0  0
 36 39  1  0  0  0  0
 37 41  1  0  0  0  0
 39 40  2  0  0  0  0
 40 38  1  0  0  0  0
 40 35  1  0  0  0  0
 41 38  2  0  0  0  0
 42 43  2  0  0  0  0
 43 37  1  0  0  0  0
M  END
>  <MODEL>
6

>  <REMARK>
 VINA RESULT:      -3.3      2.323      3.254
  Name = 
  13 active torsions:
  status: ('A' for Active; 'I' for Inactive)
    1  A    between atoms: C_1  and  C_8
    2  A    between atoms: C_1  and  C_35
    3  A    between atoms: C_4  and  N_14
    4  A    between atoms: C_8  and  O_34
    5  A    between atoms: C_10  and  S_41
    6  A    between atoms: C_11  and  N_14
    7  A    between atoms: C_12  and  N_17
    8  A    between atoms: N_14  and  S_41
    9  A    between atoms: C_16  and  O_43
   10  A    between atoms: C_19  and  C_37
   11  A    between atoms: C_21  and  C_30
   12  A    between atoms: C_27  and  C_30
   13  A    between atoms: C_30  and  O_34
                            x       y       z     vdW  Elec       q    Type
                         _______ _______ _______ _____ _____    ______ ____

>  <TORSDO>
F 13

$$$$
=
 OpenBabel11062410053D

 43 48  0  0  1  0  0  0  0  0999 V2000
  163.4540  212.2080  147.5190 N   0  0  0  0  0  0  0  0  0  0  0  0
  162.6300  211.6290  148.3350 C   0  0  0  0  0  0  0  0  0  0  0  0
  163.8290  213.6060  147.7120 C   0  0  0  0  0  2  0  0  0  0  0  0
  162.0300  212.4260  149.4600 C   0  0  0  0  0  2  0  0  0  0  0  0
  162.2710  210.2660  148.1150 N   0  0  0  0  0  2  0  0  0  0  0  0
  161.5760  213.8090  148.9520 C   0  0  1  0  0  3  0  0  0  0  0  0
  162.5760  214.4520  147.9560 C   0  0  0  0  0  2  0  0  0  0  0  0
  161.2740  208.1040  148.4790 C   0  0  0  0  0  2  0  0  0  0  0  0
  162.3680  208.3040  149.5140 C   0  0  1  0  0  3  0  0  0  0  0  0
  161.5090  209.4750  149.0660 C   0  0  1  0  0  3  0  0  0  0  0  0
  161.9380  207.7810  150.8140 N   0  0  0  0  0  0  0  0  0  0  0  0
  161.4900  208.6670  151.8580 C   0  0  0  0  0  0  0  0  0  0  0  0
  161.1270  210.8900  152.6320 C   0  0  0  0  0  3  0  0  0  0  0  0
  160.5910  209.0400  154.0740 C   0  0  0  0  0  3  0  0  0  0  0  0
  160.6390  210.4140  153.8500 C   0  0  0  0  0  3  0  0  0  0  0  0
  161.0170  208.1610  153.0760 C   0  0  0  0  0  3  0  0  0  0  0  0
  161.5410  210.0160  151.6750 N   0  0  0  0  0  0  0  0  0  0  0  0
  162.4610  206.1380  151.2440 S   0  0  0  0  0  0  0  0  0  0  0  0
  161.0040  205.3420  150.4980 C   0  0  0  0  0  0  0  0  0  0  0  0
  160.4820  204.0910  151.1610 C   0  0  0  0  0  2  0  0  0  0  0  0
  160.0560  206.1180  149.8370 O   0  0  0  0  0  1  0  0  0  0  0  0
  161.2520  204.0050  149.8480 C   0  0  0  0  0  2  0  0  0  0  0  0
  160.1740  213.7010  148.3370 C   0  0  2  0  0  3  0  0  0  0  0  0
  157.0550  213.7180  151.3050 C   0  0  0  0  0  0  0  0  0  0  0  0
  157.7350  213.6640  148.9710 C   0  0  0  0  0  0  0  0  0  0  0  0
  158.3930  213.7670  151.6980 C   0  0  0  0  0  3  0  0  0  0  0  0
  156.0490  213.7100  152.2620 O   0  0  0  0  0  1  0  0  0  0  0  0
  159.0830  213.7000  149.3720 C   0  0  0  0  0  0  0  0  0  0  0  0
  156.7270  213.6700  149.9480 C   0  0  0  0  0  3  0  0  0  0  0  0
  159.4050  213.7620  150.7370 C   0  0  0  0  0  3  0  0  0  0  0  0
  156.4250  214.4440  147.0190 C   0  0  0  0  0  1  0  0  0  0  0  0
  157.4210  213.6210  147.6060 O   0  0  0  0  0  0  0  0  0  0  0  0
  160.0820  212.5520  147.5440 O   0  0  0  0  0  0  0  0  0  0  0  0
  160.2640  213.0020  146.2330 C   0  0  0  0  0  2  0  0  0  0  0  0
  160.0500  211.8540  145.2610 C   0  0  0  0  0  2  0  0  0  0  0  0
  162.1490  213.4410  142.5340 C   0  0  0  0  0  3  0  0  0  0  0  0
  161.6400  212.8130  141.3850 C   0  0  0  0  0  0  0  0  0  0  0  0
  160.0910  211.5660  142.7740 C   0  0  0  0  0  3  0  0  0  0  0  0
  161.6320  213.1290  143.7960 C   0  0  0  0  0  3  0  0  0  0  0  0
  160.6040  212.1850  143.9170 C   0  0  0  0  0  0  0  0  0  0  0  0
  160.6090  211.8780  141.5150 C   0  0  0  0  0  3  0  0  0  0  0  0
  161.8380  212.3980  138.9720 C   0  0  0  0  0  2  0  0  0  0  0  0
  162.1640  213.1070  140.0440 C   0  0  0  0  0  3  0  0  0  0  0  0
  1  3  1  0  0  0  0
  1  2  2  0  0  0  0
  2  4  1  0  0  0  0
  3  7  1  0  0  0  0
  5  2  1  0  0  0  0
  6 23  1  6  0  0  0
  6  4  1  0  0  0  0
  7  6  1  0  0  0  0
  8 10  1  0  0  0  0
  8  9  1  0  0  0  0
  9 11  1  1  0  0  0
 10  5  1  6  0  0  0
 10  9  1  0  0  0  0
 11 18  1  0  0  0  0
 11 12  1  0  0  0  0
 12 16  1  0  0  0  0
 13 15  2  0  0  0  0
 15 14  1  0  0  0  0
 16 14  2  0  0  0  0
 17 12  2  0  0  0  0
 17 13  1  0  0  0  0
 19 20  1  0  0  0  0
 19 18  1  0  0  0  0
 21 19  1  0  0  0  0
 22 19  1  0  0  0  0
 22 20  1  0  0  0  0
 23 33  1  1  0  0  0
 23 28  1  0  0  0  0
 24 26  1  0  0  0  0
 24 27  1  0  0  0  0
 25 28  2  0  0  0  0
 25 29  1  0  0  0  0
 28 30  1  0  0  0  0
 29 24  2  0  0  0  0
 30 26  2  0  0  0  0
 31 32  1  0  0  0  0
 32 25  1  0  0  0  0
 34 33  1  0  0  0  0
 35 34  1  0  0  0  0
 36 39  1  0  0  0  0
 37 41  1  0  0  0  0
 37 36  2  0  0  0  0
 38 40  1  0  0  0  0
 39 40  2  0  0  0  0
 40 35  1  0  0  0  0
 41 38  2  0  0  0  0
 42 43  2  0  0  0  0
 43 37  1  0  0  0  0
M  END
>  <MODEL>
7

>  <REMARK>
 VINA RESULT:      -3.3      3.159      6.075
  Name = 
  13 active torsions:
  status: ('A' for Active; 'I' for Inactive)
    1  A    between atoms: C_1  and  C_8
    2  A    between atoms: C_1  and  C_35
    3  A    between atoms: C_4  and  N_14
    4  A    between atoms: C_8  and  O_34
    5  A    between atoms: C_10  and  S_41
    6  A    between atoms: C_11  and  N_14
    7  A    between atoms: C_12  and  N_17
    8  A    between atoms: N_14  and  S_41
    9  A    between atoms: C_16  and  O_43
   10  A    between atoms: C_19  and  C_37
   11  A    between atoms: C_21  and  C_30
   12  A    between atoms: C_27  and  C_30
   13  A    between atoms: C_30  and  O_34
                            x       y       z     vdW  Elec       q    Type
                         _______ _______ _______ _____ _____    ______ ____

>  <TORSDO>
F 13

$$$$
=
 OpenBabel11062410053D

 43 48  0  0  1  0  0  0  0  0999 V2000
  161.5790  206.6980  155.7160 N   0  0  0  0  0  0  0  0  0  0  0  0
  160.8950  206.8740  154.6290 C   0  0  0  0  0  0  0  0  0  0  0  0
  160.9950  207.0050  157.0180 C   0  0  0  0  0  2  0  0  0  0  0  0
  159.5040  207.4380  154.7220 C   0  0  0  0  0  2  0  0  0  0  0  0
  161.4950  206.5780  153.3700 N   0  0  0  0  0  2  0  0  0  0  0  0
  159.4730  208.6240  155.7070 C   0  0  1  0  0  3  0  0  0  0  0  0
  160.3290  208.3840  156.9770 C   0  0  0  0  0  2  0  0  0  0  0  0
  161.4400  207.4940  151.1430 C   0  0  0  0  0  2  0  0  0  0  0  0
  161.6660  205.9960  151.0350 C   0  0  1  0  0  3  0  0  0  0  0  0
  160.7600  206.5620  152.1160 C   0  0  1  0  0  3  0  0  0  0  0  0
  160.8980  205.4460  149.9150 N   0  0  0  0  0  0  0  0  0  0  0  0
  160.8680  204.0280  149.6620 C   0  0  0  0  0  0  0  0  0  0  0  0
  160.5660  202.2360  148.1230 C   0  0  0  0  0  3  0  0  0  0  0  0
  161.0540  201.7400  150.4260 C   0  0  0  0  0  3  0  0  0  0  0  0
  160.7970  201.2980  149.1300 C   0  0  0  0  0  3  0  0  0  0  0  0
  161.0900  203.1080  150.6960 C   0  0  0  0  0  3  0  0  0  0  0  0
  160.6030  203.5660  148.4090 N   0  0  0  0  0  0  0  0  0  0  0  0
  160.4480  206.5640  148.6080 S   0  0  0  0  0  0  0  0  0  0  0  0
  162.0270  206.3700  147.7260 C   0  0  0  0  0  0  0  0  0  0  0  0
  161.9680  206.2020  146.2280 C   0  0  0  0  0  2  0  0  0  0  0  0
  163.1750  206.9820  148.2220 O   0  0  0  0  0  1  0  0  0  0  0  0
  162.2770  205.0100  147.1270 C   0  0  0  0  0  2  0  0  0  0  0  0
  159.9020  209.9090  154.9860 C   0  0  2  0  0  3  0  0  0  0  0  0
  163.4710  211.6570  156.6440 C   0  0  0  0  0  0  0  0  0  0  0  0
  161.0570  211.3690  156.6860 C   0  0  0  0  0  0  0  0  0  0  0  0
  163.5570  210.8200  155.5310 C   0  0  0  0  0  3  0  0  0  0  0  0
  164.6230  212.2100  157.1880 O   0  0  0  0  0  1  0  0  0  0  0  0
  161.1490  210.5160  155.5710 C   0  0  0  0  0  0  0  0  0  0  0  0
  162.2280  211.9330  157.2170 C   0  0  0  0  0  3  0  0  0  0  0  0
  162.4000  210.2530  154.9930 C   0  0  0  0  0  3  0  0  0  0  0  0
  159.1160  212.8660  157.0400 C   0  0  0  0  0  1  0  0  0  0  0  0
  159.8020  211.6410  157.2470 O   0  0  0  0  0  0  0  0  0  0  0  0
  158.8620  210.8440  155.0040 O   0  0  0  0  0  0  0  0  0  0  0  0
  158.6250  211.1470  153.6600 C   0  0  0  0  0  2  0  0  0  0  0  0
  159.0260  212.5850  153.3800 C   0  0  0  0  0  2  0  0  0  0  0  0
  160.2060  212.8640  149.7890 C   0  0  0  0  0  3  0  0  0  0  0  0
  159.0640  213.3790  149.1560 C   0  0  0  0  0  0  0  0  0  0  0  0
  157.9040  213.3780  151.2860 C   0  0  0  0  0  3  0  0  0  0  0  0
  160.1940  212.6050  151.1640 C   0  0  0  0  0  3  0  0  0  0  0  0
  159.0390  212.8580  151.9130 C   0  0  0  0  0  0  0  0  0  0  0  0
  157.9170  213.6350  149.9130 C   0  0  0  0  0  3  0  0  0  0  0  0
  158.1260  213.1320  146.8990 C   0  0  0  0  0  2  0  0  0  0  0  0
  159.0340  213.6530  147.7120 C   0  0  0  0  0  3  0  0  0  0  0  0
  1  3  1  0  0  0  0
  2  4  1  0  0  0  0
  2  1  2  0  0  0  0
  4  6  1  0  0  0  0
  5  2  1  0  0  0  0
  6 23  1  6  0  0  0
  6  7  1  0  0  0  0
  7  3  1  0  0  0  0
  8 10  1  0  0  0  0
  9 11  1  6  0  0  0
  9  8  1  0  0  0  0
  9 10  1  0  0  0  0
 10  5  1  1  0  0  0
 12 11  1  0  0  0  0
 12 16  1  0  0  0  0
 13 17  1  0  0  0  0
 13 15  2  0  0  0  0
 14 16  2  0  0  0  0
 15 14  1  0  0  0  0
 17 12  2  0  0  0  0
 18 11  1  0  0  0  0
 19 21  1  0  0  0  0
 19 18  1  0  0  0  0
 20 22  1  0  0  0  0
 20 19  1  0  0  0  0
 22 19  1  0  0  0  0
 23 33  1  1  0  0  0
 23 28  1  0  0  0  0
 24 27  1  0  0  0  0
 24 29  1  0  0  0  0
 25 29  2  0  0  0  0
 25 32  1  0  0  0  0
 26 24  2  0  0  0  0
 28 25  1  0  0  0  0
 30 26  1  0  0  0  0
 30 28  2  0  0  0  0
 31 32  1  0  0  0  0
 34 33  1  0  0  0  0
 35 34  1  0  0  0  0
 36 39  1  0  0  0  0
 37 36  2  0  0  0  0
 37 41  1  0  0  0  0
 38 40  1  0  0  0  0
 39 40  2  0  0  0  0
 40 35  1  0  0  0  0
 41 38  2  0  0  0  0
 42 43  2  0  0  0  0
 43 37  1  0  0  0  0
M  END
>  <MODEL>
8

>  <REMARK>
 VINA RESULT:      -3.1      2.322      4.055
  Name = 
  13 active torsions:
  status: ('A' for Active; 'I' for Inactive)
    1  A    between atoms: C_1  and  C_8
    2  A    between atoms: C_1  and  C_35
    3  A    between atoms: C_4  and  N_14
    4  A    between atoms: C_8  and  O_34
    5  A    between atoms: C_10  and  S_41
    6  A    between atoms: C_11  and  N_14
    7  A    between atoms: C_12  and  N_17
    8  A    between atoms: N_14  and  S_41
    9  A    between atoms: C_16  and  O_43
   10  A    between atoms: C_19  and  C_37
   11  A    between atoms: C_21  and  C_30
   12  A    between atoms: C_27  and  C_30
   13  A    between atoms: C_30  and  O_34
                            x       y       z     vdW  Elec       q    Type
                         _______ _______ _______ _____ _____    ______ ____

>  <TORSDO>
F 13

$$$$
=
 OpenBabel11062410053D

 43 48  0  0  1  0  0  0  0  0999 V2000
  161.5430  206.6570  155.5660 N   0  0  0  0  0  0  0  0  0  0  0  0
  161.1320  206.8210  154.3480 C   0  0  0  0  0  0  0  0  0  0  0  0
  160.6560  206.9350  156.6920 C   0  0  0  0  0  2  0  0  0  0  0  0
  159.7420  207.3390  154.1070 C   0  0  0  0  0  2  0  0  0  0  0  0
  162.0250  206.5540  153.2680 N   0  0  0  0  0  2  0  0  0  0  0  0
  159.4370  208.5140  155.0570 C   0  0  1  0  0  3  0  0  0  0  0  0
  159.9730  208.2920  156.4940 C   0  0  0  0  0  2  0  0  0  0  0  0
  162.6470  207.2440  151.0460 C   0  0  0  0  0  2  0  0  0  0  0  0
  162.6350  205.7260  151.0860 C   0  0  1  0  0  3  0  0  0  0  0  0
  161.6110  206.5250  151.8750 C   0  0  1  0  0  3  0  0  0  0  0  0
  162.0670  205.1900  149.8460 N   0  0  0  0  0  0  0  0  0  0  0  0
  161.4710  203.8790  149.8110 C   0  0  0  0  0  0  0  0  0  0  0  0
  160.6620  202.0390  148.5330 C   0  0  0  0  0  3  0  0  0  0  0  0
  160.5410  201.9470  150.9340 C   0  0  0  0  0  3  0  0  0  0  0  0
  160.3160  201.3500  149.6960 C   0  0  0  0  0  3  0  0  0  0  0  0
  161.1210  203.2150  150.9950 C   0  0  0  0  0  3  0  0  0  0  0  0
  161.2220  203.2760  148.6150 N   0  0  0  0  0  0  0  0  0  0  0  0
  162.5820  205.9430  148.3210 S   0  0  0  0  0  0  0  0  0  0  0  0
  160.8960  206.4340  147.8460 C   0  0  0  0  0  0  0  0  0  0  0  0
  160.4950  206.2320  146.4060 C   0  0  0  0  0  2  0  0  0  0  0  0
  159.8650  206.3530  148.7780 O   0  0  0  0  0  1  0  0  0  0  0  0
  160.7960  207.6300  146.9350 C   0  0  0  0  0  2  0  0  0  0  0  0
  159.9830  209.8190  154.4590 C   0  0  2  0  0  3  0  0  0  0  0  0
  158.6400  213.3250  156.5660 C   0  0  0  0  0  0  0  0  0  0  0  0
  158.1350  211.3200  155.2860 C   0  0  0  0  0  0  0  0  0  0  0  0
  160.0040  213.0500  156.4680 C   0  0  0  0  0  3  0  0  0  0  0  0
  158.2050  214.4490  157.2570 O   0  0  0  0  0  1  0  0  0  0  0  0
  159.5110  211.0400  155.2000 C   0  0  0  0  0  0  0  0  0  0  0  0
  157.7100  212.4680  155.9750 C   0  0  0  0  0  3  0  0  0  0  0  0
  160.4410  211.9140  155.7850 C   0  0  0  0  0  3  0  0  0  0  0  0
  155.8270  210.4750  154.9840 C   0  0  0  0  0  1  0  0  0  0  0  0
  157.2140  210.4530  154.6840 O   0  0  0  0  0  0  0  0  0  0  0  0
  159.6330  209.9150  153.1080 O   0  0  0  0  0  0  0  0  0  0  0  0
  160.6440  210.6860  152.5270 C   0  0  0  0  0  2  0  0  0  0  0  0
  160.0510  211.9610  151.9510 C   0  0  0  0  0  2  0  0  0  0  0  0
  160.9440  213.7680  148.7420 C   0  0  0  0  0  3  0  0  0  0  0  0
  161.6700  212.7820  148.0560 C   0  0  0  0  0  0  0  0  0  0  0  0
  161.3300  211.2620  149.9150 C   0  0  0  0  0  3  0  0  0  0  0  0
  160.4160  213.5010  150.0110 C   0  0  0  0  0  3  0  0  0  0  0  0
  160.6150  212.2470  150.6010 C   0  0  0  0  0  0  0  0  0  0  0  0
  161.8570  211.5300  148.6490 C   0  0  0  0  0  3  0  0  0  0  0  0
  161.5070  213.2690  145.6540 C   0  0  0  0  0  2  0  0  0  0  0  0
  162.2480  213.0280  146.7270 C   0  0  0  0  0  3  0  0  0  0  0  0
  1  3  1  0  0  0  0
  2  1  2  0  0  0  0
  4  2  1  0  0  0  0
  4  6  1  0  0  0  0
  5  2  1  0  0  0  0
  6 23  1  6  0  0  0
  6  7  1  0  0  0  0
  7  3  1  0  0  0  0
  8  9  1  0  0  0  0
  8 10  1  0  0  0  0
  9 11  1  6  0  0  0
  9 10  1  0  0  0  0
 10  5  1  1  0  0  0
 12 11  1  0  0  0  0
 12 16  1  0  0  0  0
 13 17  1  0  0  0  0
 13 15  2  0  0  0  0
 14 16  2  0  0  0  0
 15 14  1  0  0  0  0
 17 12  2  0  0  0  0
 18 11  1  0  0  0  0
 19 18  1  0  0  0  0
 19 21  1  0  0  0  0
 20 22  1  0  0  0  0
 20 19  1  0  0  0  0
 22 19  1  0  0  0  0
 23 33  1  6  0  0  0
 23 28  1  0  0  0  0
 24 27  1  0  0  0  0
 25 29  1  0  0  0  0
 26 24  1  0  0  0  0
 28 25  2  0  0  0  0
 28 30  1  0  0  0  0
 29 24  2  0  0  0  0
 30 26  2  0  0  0  0
 32 31  1  0  0  0  0
 32 25  1  0  0  0  0
 34 33  1  0  0  0  0
 35 34  1  0  0  0  0
 36 39  1  0  0  0  0
 37 41  1  0  0  0  0
 37 36  2  0  0  0  0
 38 40  1  0  0  0  0
 39 40  2  0  0  0  0
 40 35  1  0  0  0  0
 41 38  2  0  0  0  0
 42 43  2  0  0  0  0
 43 37  1  0  0  0  0
M  END
>  <MODEL>
9

>  <REMARK>
 VINA RESULT:      -2.8      2.313      3.757
  Name = 
  13 active torsions:
  status: ('A' for Active; 'I' for Inactive)
    1  A    between atoms: C_1  and  C_8
    2  A    between atoms: C_1  and  C_35
    3  A    between atoms: C_4  and  N_14
    4  A    between atoms: C_8  and  O_34
    5  A    between atoms: C_10  and  S_41
    6  A    between atoms: C_11  and  N_14
    7  A    between atoms: C_12  and  N_17
    8  A    between atoms: N_14  and  S_41
    9  A    between atoms: C_16  and  O_43
   10  A    between atoms: C_19  and  C_37
   11  A    between atoms: C_21  and  C_30
   12  A    between atoms: C_27  and  C_30
   13  A    between atoms: C_30  and  O_34
                            x       y       z     vdW  Elec       q    Type
                         _______ _______ _______ _____ _____    ______ ____

>  <TORSDO>
F 13

$$$$
