=
 OpenBabel11052422063D

 25 27  0  0  1  0  0  0  0  0999 V2000
  158.6670  211.3500  155.4620 C   0  0  2  0  0  3  0  0  0  0  0  0
  159.1070  209.8840  155.5340 C   0  0  0  0  0  2  0  0  0  0  0  0
  160.4650  212.3430  157.0210 C   0  0  0  0  0  2  0  0  0  0  0  0
  159.2040  212.1480  154.2540 C   0  0  2  0  0  3  0  0  0  0  0  0
  158.6430  214.2050  153.0530 C   0  0  0  0  0  2  0  0  0  0  0  0
  161.2580  211.0680  157.2610 C   0  0  0  0  0  2  0  0  0  0  0  0
  157.9590  214.0300  155.4350 C   0  0  0  0  0  2  0  0  0  0  0  0
  159.0440  213.6680  154.4150 C   0  0  1  0  0  3  0  0  0  0  0  0
  161.9290  209.2060  155.7590 C   0  0  0  0  0  2  0  0  0  0  0  0
  163.4800  211.1010  156.1560 C   0  0  0  0  0  1  0  0  0  0  0  0
  159.3410  209.3360  154.2710 O   0  0  0  0  0  0  0  0  0  0  0  0
  158.5930  213.0200  152.1070 C   0  0  0  0  0  2  0  0  0  0  0  0
  158.9690  212.0820  156.7840 C   0  0  1  0  0  3  0  0  0  0  0  0
  158.2420  213.4330  156.8220 C   0  0  0  0  0  2  0  0  0  0  0  0
  161.6550  209.5570  153.0750 O   0  0  0  0  0  0  0  0  0  0  0  0
  158.4620  211.7970  152.9820 C   0  0  0  0  0  2  0  0  0  0  0  0
  160.9780  208.8610  154.2330 P   0  0  1  0  0  0  0  0  0  0  0  0
  162.0270  210.7010  156.0020 C   0  0  2  0  0  3  0  0  0  0  0  0
  161.0450  207.0690  153.9380 C   0  0  0  0  0  2  0  0  0  0  0  0
  160.9970  206.7950  152.5100 N   0  0  0  0  0  2  0  0  0  0  0  0
  161.1530  205.4780  151.9750 C   0  0  0  0  0  0  0  0  0  0  0  0
  161.2380  204.4810  152.7400 O   0  0  0  0  0  0  0  0  0  0  0  0
  161.2440  205.2850  150.5010 C   0  0  0  0  0  2  0  0  0  0  0  0
  161.0920  203.6600  148.7620 O   0  0  0  0  0  1  0  0  0  0  0  0
  160.9050  203.8560  150.1290 C   0  0  0  0  0  2  0  0  0  0  0  0
  1  2  1  1  0  0  0
  1 13  1  0  0  0  0
  3  6  1  0  0  0  0
  4 16  1  6  0  0  0
  4  8  1  0  0  0  0
  4  1  1  0  0  0  0
  7 14  1  0  0  0  0
  8  5  1  6  0  0  0
  8  7  1  0  0  0  0
  9 18  1  0  0  0  0
 11  2  1  0  0  0  0
 12 16  1  0  0  0  0
 12  5  1  0  0  0  0
 13 14  1  6  0  0  0
 13  3  1  0  0  0  0
 17 15  2  6  0  0  0
 17 11  1  0  0  0  0
 17  9  1  0  0  0  0
 18 10  1  1  0  0  0
 18  6  1  0  0  0  0
 19 17  1  0  0  0  0
 20 19  1  0  0  0  0
 21 20  1  0  0  0  0
 21 22  2  0  0  0  0
 23 21  1  0  0  0  0
 24 25  1  0  0  0  0
 25 23  1  0  0  0  0
M  END
>  <MODEL>
1

>  <REMARK>
 VINA RESULT:      -4.6      0.000      0.000
  Name = 
  4 active torsions:
  status: ('A' for Active; 'I' for Inactive)
    1  A    between atoms: C_2  and  C_12
    2  A    between atoms: C_2  and  C_21
    3  A    between atoms: C_6  and  N_15
    4  A    between atoms: C_6  and  P_23
                            x       y       z     vdW  Elec       q    Type
                         _______ _______ _______ _____ _____    ______ ____

>  <TORSDO>
F 4

$$$$
=
 OpenBabel11052422063D

 25 27  0  0  1  0  0  0  0  0999 V2000
  162.4110  207.4370  152.1310 C   0  0  2  0  0  3  0  0  0  0  0  0
  162.7590  206.0220  151.6580 C   0  0  0  0  0  2  0  0  0  0  0  0
  161.7400  208.4270  149.8480 C   0  0  0  0  0  2  0  0  0  0  0  0
  160.9820  207.6210  152.6860 C   0  0  2  0  0  3  0  0  0  0  0  0
  159.7840  209.2200  154.0990 C   0  0  0  0  0  2  0  0  0  0  0  0
  161.8730  207.1560  149.0240 C   0  0  0  0  0  2  0  0  0  0  0  0
  161.7740  210.0360  152.8560 C   0  0  0  0  0  2  0  0  0  0  0  0
  160.5650  209.0950  152.8030 C   0  0  1  0  0  3  0  0  0  0  0  0
  161.2650  204.7910  149.4840 C   0  0  0  0  0  2  0  0  0  0  0  0
  159.6810  206.2670  148.2740 C   0  0  0  0  0  1  0  0  0  0  0  0
  162.0540  205.0390  152.3550 O   0  0  0  0  0  0  0  0  0  0  0  0
  159.7250  207.8360  154.7160 C   0  0  0  0  0  2  0  0  0  0  0  0
  162.7150  208.4750  151.0340 C   0  0  1  0  0  3  0  0  0  0  0  0
  162.6760  209.8940  151.6200 C   0  0  0  0  0  2  0  0  0  0  0  0
  159.6660  204.2680  151.6220 O   0  0  0  0  0  0  0  0  0  0  0  0
  160.8510  207.0530  154.0840 C   0  0  0  0  0  2  0  0  0  0  0  0
  161.1170  204.1930  151.2080 P   0  0  1  0  0  0  0  0  0  0  0  0
  160.7340  206.2070  149.3610 C   0  0  2  0  0  3  0  0  0  0  0  0
  161.6270  202.4490  151.2300 C   0  0  0  0  0  2  0  0  0  0  0  0
  161.8330  201.9710  149.8710 N   0  0  0  0  0  2  0  0  0  0  0  0
  160.7800  201.4020  149.0900 C   0  0  0  0  0  0  0  0  0  0  0  0
  159.5960  201.3860  149.5220 O   0  0  0  0  0  0  0  0  0  0  0  0
  161.0880  200.7940  147.7660 C   0  0  0  0  0  2  0  0  0  0  0  0
  160.4350  201.0990  145.4910 O   0  0  0  0  0  1  0  0  0  0  0  0
  160.8060  201.7810  146.6490 C   0  0  0  0  0  2  0  0  0  0  0  0
  1  2  1  6  0  0  0
  1  4  1  0  0  0  0
  2 11  1  0  0  0  0
  4  8  1  0  0  0  0
  4 16  1  1  0  0  0
  5 12  1  0  0  0  0
  6 18  1  0  0  0  0
  6  3  1  0  0  0  0
  8  7  1  1  0  0  0
  8  5  1  0  0  0  0
  9 17  1  0  0  0  0
 13  3  1  6  0  0  0
 13 14  1  0  0  0  0
 13  1  1  0  0  0  0
 14  7  1  0  0  0  0
 16 12  1  0  0  0  0
 17 19  1  0  0  0  0
 17 15  2  1  0  0  0
 17 11  1  0  0  0  0
 18 10  1  6  0  0  0
 18  9  1  0  0  0  0
 20 19  1  0  0  0  0
 21 22  2  0  0  0  0
 21 20  1  0  0  0  0
 23 21  1  0  0  0  0
 24 25  1  0  0  0  0
 25 23  1  0  0  0  0
M  END
>  <MODEL>
2

>  <REMARK>
 VINA RESULT:      -4.3      3.809      6.403
  Name = 
  4 active torsions:
  status: ('A' for Active; 'I' for Inactive)
    1  A    between atoms: C_2  and  C_12
    2  A    between atoms: C_2  and  C_21
    3  A    between atoms: C_6  and  N_15
    4  A    between atoms: C_6  and  P_23
                            x       y       z     vdW  Elec       q    Type
                         _______ _______ _______ _____ _____    ______ ____

>  <TORSDO>
F 4

$$$$
=
 OpenBabel11052422063D

 25 27  0  0  1  0  0  0  0  0999 V2000
  160.2980  209.0280  154.7550 C   0  0  2  0  0  3  0  0  0  0  0  0
  159.8980  209.4990  153.3530 C   0  0  0  0  0  2  0  0  0  0  0  0
  160.9380  206.6050  154.1530 C   0  0  0  0  0  2  0  0  0  0  0  0
  161.7450  209.3570  155.1800 C   0  0  2  0  0  3  0  0  0  0  0  0
  163.0240  209.5240  157.2600 C   0  0  0  0  0  2  0  0  0  0  0  0
  160.7480  206.7080  152.6480 C   0  0  0  0  0  2  0  0  0  0  0  0
  161.0260  208.0480  157.2430 C   0  0  0  0  0  2  0  0  0  0  0  0
  162.2060  208.5650  156.4140 C   0  0  1  0  0  3  0  0  0  0  0  0
  161.3010  208.4920  151.0090 C   0  0  0  0  0  2  0  0  0  0  0  0
  162.8950  206.6330  151.4050 C   0  0  0  0  0  1  0  0  0  0  0  0
  160.5940  210.6440  152.9570 O   0  0  0  0  0  0  0  0  0  0  0  0
  163.0590  210.8480  156.5200 C   0  0  0  0  0  2  0  0  0  0  0  0
  159.9960  207.5290  154.9400 C   0  0  1  0  0  3  0  0  0  0  0  0
  160.0890  207.1470  156.4230 C   0  0  0  0  0  2  0  0  0  0  0  0
  162.9390  210.5110  151.8110 O   0  0  0  0  0  0  0  0  0  0  0  0
  161.8960  210.8160  155.5580 C   0  0  0  0  0  2  0  0  0  0  0  0
  161.4760  210.2290  151.5580 P   0  0  1  0  0  0  0  0  0  0  0  0
  161.8690  207.5420  152.0480 C   0  0  2  0  0  3  0  0  0  0  0  0
  160.9180  211.2950  150.1960 C   0  0  0  0  0  2  0  0  0  0  0  0
  161.9800  211.4460  149.2120 N   0  0  0  0  0  2  0  0  0  0  0  0
  162.0290  212.5450  148.3000 C   0  0  0  0  0  0  0  0  0  0  0  0
  161.1970  213.4880  148.3830 O   0  0  0  0  0  0  0  0  0  0  0  0
  163.0550  212.5640  147.2200 C   0  0  0  0  0  2  0  0  0  0  0  0
  163.2570  212.9530  144.8750 O   0  0  0  0  0  1  0  0  0  0  0  0
  162.5460  213.3280  146.0140 C   0  0  0  0  0  2  0  0  0  0  0  0
  1  2  1  6  0  0  0
  1 13  1  0  0  0  0
  1  4  1  0  0  0  0
  4 16  1  1  0  0  0
  4  8  1  0  0  0  0
  6  3  1  0  0  0  0
  8  7  1  1  0  0  0
  8  5  1  0  0  0  0
  9 17  1  0  0  0  0
  9 18  1  0  0  0  0
 11  2  1  0  0  0  0
 12  5  1  0  0  0  0
 13  3  1  6  0  0  0
 13 14  1  0  0  0  0
 14  7  1  0  0  0  0
 16 12  1  0  0  0  0
 17 15  2  1  0  0  0
 17 11  1  0  0  0  0
 18 10  1  6  0  0  0
 18  6  1  0  0  0  0
 19 17  1  0  0  0  0
 20 19  1  0  0  0  0
 21 22  2  0  0  0  0
 21 20  1  0  0  0  0
 23 21  1  0  0  0  0
 24 25  1  0  0  0  0
 25 23  1  0  0  0  0
M  END
>  <MODEL>
3

>  <REMARK>
 VINA RESULT:      -4.3      3.755      6.365
  Name = 
  4 active torsions:
  status: ('A' for Active; 'I' for Inactive)
    1  A    between atoms: C_2  and  C_12
    2  A    between atoms: C_2  and  C_21
    3  A    between atoms: C_6  and  N_15
    4  A    between atoms: C_6  and  P_23
                            x       y       z     vdW  Elec       q    Type
                         _______ _______ _______ _____ _____    ______ ____

>  <TORSDO>
F 4

$$$$
=
 OpenBabel11052422063D

 25 27  0  0  1  0  0  0  0  0999 V2000
  160.3020  209.0920  154.4720 C   0  0  2  0  0  3  0  0  0  0  0  0
  160.1070  209.5080  153.0110 C   0  0  0  0  0  2  0  0  0  0  0  0
  160.8160  206.5970  154.0730 C   0  0  0  0  0  2  0  0  0  0  0  0
  161.7110  209.3400  155.0530 C   0  0  2  0  0  3  0  0  0  0  0  0
  162.7480  209.5360  157.2600 C   0  0  0  0  0  2  0  0  0  0  0  0
  160.8110  206.6260  152.5530 C   0  0  0  0  0  2  0  0  0  0  0  0
  160.6560  208.2090  157.0760 C   0  0  0  0  0  2  0  0  0  0  0  0
  161.9620  208.5900  156.3700 C   0  0  1  0  0  3  0  0  0  0  0  0
  161.6900  208.2670  150.9060 C   0  0  0  0  0  2  0  0  0  0  0  0
  163.0760  206.3240  151.5830 C   0  0  0  0  0  1  0  0  0  0  0  0
  160.9310  210.5750  152.6460 O   0  0  0  0  0  0  0  0  0  0  0  0
  162.9730  210.8080  156.4660 C   0  0  0  0  0  2  0  0  0  0  0  0
  159.8640  207.6310  154.6930 C   0  0  1  0  0  3  0  0  0  0  0  0
  159.7530  207.3310  156.1950 C   0  0  0  0  0  2  0  0  0  0  0  0
  163.3770  210.2060  151.7990 O   0  0  0  0  0  0  0  0  0  0  0  0
  161.9310  210.8030  155.3730 C   0  0  0  0  0  2  0  0  0  0  0  0
  161.9360  210.0160  151.3860 P   0  0  1  0  0  0  0  0  0  0  0  0
  162.0560  207.3410  152.0520 C   0  0  2  0  0  3  0  0  0  0  0  0
  161.6260  211.0380  149.9150 C   0  0  0  0  0  2  0  0  0  0  0  0
  160.6530  212.0750  150.2230 N   0  0  0  0  0  2  0  0  0  0  0  0
  160.6940  213.3690  149.6170 C   0  0  0  0  0  0  0  0  0  0  0  0
  161.5260  213.6270  148.7070 O   0  0  0  0  0  0  0  0  0  0  0  0
  159.7630  214.4330  150.0850 C   0  0  0  0  0  2  0  0  0  0  0  0
  158.3460  213.4910  151.7570 O   0  0  0  0  0  1  0  0  0  0  0  0
  159.4790  214.2800  151.5670 C   0  0  0  0  0  2  0  0  0  0  0  0
  1  2  1  6  0  0  0
  1 13  1  0  0  0  0
  1  4  1  0  0  0  0
  4 16  1  1  0  0  0
  4  8  1  0  0  0  0
  6  3  1  0  0  0  0
  8  7  1  1  0  0  0
  8  5  1  0  0  0  0
  9 17  1  0  0  0  0
  9 18  1  0  0  0  0
 11  2  1  0  0  0  0
 12  5  1  0  0  0  0
 13  3  1  1  0  0  0
 13 14  1  0  0  0  0
 14  7  1  0  0  0  0
 16 12  1  0  0  0  0
 17 15  2  1  0  0  0
 17 11  1  0  0  0  0
 18 10  1  6  0  0  0
 18  6  1  0  0  0  0
 19 20  1  0  0  0  0
 19 17  1  0  0  0  0
 21 23  1  0  0  0  0
 21 20  1  0  0  0  0
 22 21  2  0  0  0  0
 23 25  1  0  0  0  0
 25 24  1  0  0  0  0
M  END
>  <MODEL>
4

>  <REMARK>
 VINA RESULT:      -4.1      3.318      6.459
  Name = 
  4 active torsions:
  status: ('A' for Active; 'I' for Inactive)
    1  A    between atoms: C_2  and  C_12
    2  A    between atoms: C_2  and  C_21
    3  A    between atoms: C_6  and  N_15
    4  A    between atoms: C_6  and  P_23
                            x       y       z     vdW  Elec       q    Type
                         _______ _______ _______ _____ _____    ______ ____

>  <TORSDO>
F 4

$$$$
=
 OpenBabel11052422063D

 25 27  0  0  1  0  0  0  0  0999 V2000
  156.9760  212.2770  153.6650 C   0  0  2  0  0  3  0  0  0  0  0  0
  157.5670  211.2230  154.6060 C   0  0  0  0  0  2  0  0  0  0  0  0
  156.7350  214.1930  155.3740 C   0  0  0  0  0  2  0  0  0  0  0  0
  158.0010  213.0800  152.8360 C   0  0  2  0  0  3  0  0  0  0  0  0
  158.0110  214.4520  150.8100 C   0  0  0  0  0  2  0  0  0  0  0  0
  157.3810  213.4950  156.5600 C   0  0  0  0  0  2  0  0  0  0  0  0
  155.8790  214.2630  152.0720 C   0  0  0  0  0  2  0  0  0  0  0  0
  157.4050  214.3440  152.1980 C   0  0  1  0  0  3  0  0  0  0  0  0
  159.3680  212.0140  156.7530 C   0  0  0  0  0  2  0  0  0  0  0  0
  159.5950  214.4530  157.1460 C   0  0  0  0  0  1  0  0  0  0  0  0
  158.7750  210.7040  154.1330 O   0  0  0  0  0  0  0  0  0  0  0  0
  158.9640  213.2830  150.6500 C   0  0  0  0  0  2  0  0  0  0  0  0
  156.0210  213.2200  154.4240 C   0  0  1  0  0  3  0  0  0  0  0  0
  155.1950  214.0500  153.4310 C   0  0  0  0  0  2  0  0  0  0  0  0
  161.0660  211.8590  154.6330 O   0  0  0  0  0  0  0  0  0  0  0  0
  158.5450  212.2630  151.6820 C   0  0  0  0  0  2  0  0  0  0  0  0
  159.9630  211.0720  155.3000 P   0  0  1  0  0  0  0  0  0  0  0  0
  158.8820  213.3900  156.3360 C   0  0  2  0  0  3  0  0  0  0  0  0
  160.6660  209.5100  155.9090 C   0  0  0  0  0  2  0  0  0  0  0  0
  160.8160  208.5680  154.8110 N   0  0  0  0  0  2  0  0  0  0  0  0
  160.7380  207.1530  154.9980 C   0  0  0  0  0  0  0  0  0  0  0  0
  160.4310  206.6690  156.1200 O   0  0  0  0  0  0  0  0  0  0  0  0
  161.0490  206.2400  153.8630 C   0  0  0  0  0  2  0  0  0  0  0  0
  160.9120  207.4710  151.8250 O   0  0  0  0  0  1  0  0  0  0  0  0
  161.8040  206.9790  152.7760 C   0  0  0  0  0  2  0  0  0  0  0  0
  1 13  1  0  0  0  0
  1  2  1  1  0  0  0
  3  6  1  0  0  0  0
  4 16  1  6  0  0  0
  4  1  1  0  0  0  0
  7  8  1  0  0  0  0
  7 14  1  0  0  0  0
  8  5  1  6  0  0  0
  8  4  1  0  0  0  0
 11  2  1  0  0  0  0
 11 17  1  0  0  0  0
 12  5  1  0  0  0  0
 12 16  1  0  0  0  0
 13 14  1  6  0  0  0
 13  3  1  0  0  0  0
 17 15  2  6  0  0  0
 17 19  1  0  0  0  0
 17  9  1  0  0  0  0
 18  6  1  0  0  0  0
 18  9  1  0  0  0  0
 18 10  1  1  0  0  0
 20 21  1  0  0  0  0
 20 19  1  0  0  0  0
 21 22  2  0  0  0  0
 23 21  1  0  0  0  0
 24 25  1  0  0  0  0
 25 23  1  0  0  0  0
M  END
>  <MODEL>
5

>  <REMARK>
 VINA RESULT:      -3.7      2.265      3.501
  Name = 
  4 active torsions:
  status: ('A' for Active; 'I' for Inactive)
    1  A    between atoms: C_2  and  C_12
    2  A    between atoms: C_2  and  C_21
    3  A    between atoms: C_6  and  N_15
    4  A    between atoms: C_6  and  P_23
                            x       y       z     vdW  Elec       q    Type
                         _______ _______ _______ _____ _____    ______ ____

>  <TORSDO>
F 4

$$$$
=
 OpenBabel11052422063D

 25 27  0  0  1  0  0  0  0  0999 V2000
  158.4200  211.6890  152.8460 C   0  0  2  0  0  3  0  0  0  0  0  0
  158.7840  210.3050  153.3920 C   0  0  0  0  0  2  0  0  0  0  0  0
  158.4100  212.9690  155.0840 C   0  0  0  0  0  2  0  0  0  0  0  0
  159.6020  212.5280  152.3150 C   0  0  2  0  0  3  0  0  0  0  0  0
  159.9350  214.4530  150.8420 C   0  0  0  0  0  2  0  0  0  0  0  0
  158.8750  211.8290  155.9760 C   0  0  0  0  0  2  0  0  0  0  0  0
  157.7420  214.2370  151.9880 C   0  0  0  0  0  2  0  0  0  0  0  0
  159.2510  214.0120  152.1240 C   0  0  1  0  0  3  0  0  0  0  0  0
  160.5810  210.0490  155.6670 C   0  0  0  0  0  2  0  0  0  0  0  0
  161.1830  212.1580  156.8270 C   0  0  0  0  0  1  0  0  0  0  0  0
  159.9130  209.7670  152.7690 O   0  0  0  0  0  0  0  0  0  0  0  0
  160.6910  213.2530  150.3070 C   0  0  0  0  0  2  0  0  0  0  0  0
  157.5950  212.4880  153.8740 C   0  0  1  0  0  3  0  0  0  0  0  0
  156.9650  213.7190  153.2090 C   0  0  0  0  0  2  0  0  0  0  0  0
  162.3340  210.2940  153.6010 O   0  0  0  0  0  0  0  0  0  0  0  0
  160.0620  212.0440  150.9560 C   0  0  0  0  0  2  0  0  0  0  0  0
  161.0860  209.5350  153.9850 P   0  0  1  0  0  0  0  0  0  0  0  0
  160.3470  211.5480  155.7220 C   0  0  2  0  0  3  0  0  0  0  0  0
  161.4940  207.7650  154.0510 C   0  0  0  0  0  2  0  0  0  0  0  0
  160.8330  207.0580  152.9640 N   0  0  0  0  0  2  0  0  0  0  0  0
  161.5590  206.3490  151.9570 C   0  0  0  0  0  0  0  0  0  0  0  0
  162.8100  206.2250  152.0340 O   0  0  0  0  0  0  0  0  0  0  0  0
  160.8330  205.7750  150.7900 C   0  0  0  0  0  2  0  0  0  0  0  0
  161.1900  203.7240  149.6250 O   0  0  0  0  0  1  0  0  0  0  0  0
  160.8270  204.2600  150.8590 C   0  0  0  0  0  2  0  0  0  0  0  0
  1  2  1  1  0  0  0
  1 13  1  0  0  0  0
  3  6  1  0  0  0  0
  4 16  1  6  0  0  0
  4  1  1  0  0  0  0
  7  8  1  0  0  0  0
  7 14  1  0  0  0  0
  8  5  1  6  0  0  0
  8  4  1  0  0  0  0
  9 18  1  0  0  0  0
 11  2  1  0  0  0  0
 11 17  1  0  0  0  0
 12  5  1  0  0  0  0
 12 16  1  0  0  0  0
 13 14  1  6  0  0  0
 13  3  1  0  0  0  0
 17 15  2  6  0  0  0
 17 19  1  0  0  0  0
 17  9  1  0  0  0  0
 18  6  1  0  0  0  0
 18 10  1  1  0  0  0
 20 19  1  0  0  0  0
 21 22  2  0  0  0  0
 21 20  1  0  0  0  0
 23 25  1  0  0  0  0
 23 21  1  0  0  0  0
 24 25  1  0  0  0  0
M  END
>  <MODEL>
6

>  <REMARK>
 VINA RESULT:      -3.6      1.431      2.222
  Name = 
  4 active torsions:
  status: ('A' for Active; 'I' for Inactive)
    1  A    between atoms: C_2  and  C_12
    2  A    between atoms: C_2  and  C_21
    3  A    between atoms: C_6  and  N_15
    4  A    between atoms: C_6  and  P_23
                            x       y       z     vdW  Elec       q    Type
                         _______ _______ _______ _____ _____    ______ ____

>  <TORSDO>
F 4

$$$$
=
 OpenBabel11052422063D

 25 27  0  0  1  0  0  0  0  0999 V2000
  162.3110  209.4160  150.9400 C   0  0  2  0  0  3  0  0  0  0  0  0
  162.7090  210.8450  150.5550 C   0  0  0  0  0  2  0  0  0  0  0  0
  160.4480  210.0020  152.6240 C   0  0  0  0  0  2  0  0  0  0  0  0
  161.3050  208.7280  149.9920 C   0  0  2  0  0  3  0  0  0  0  0  0
  160.5740  206.4500  149.4790 C   0  0  0  0  0  2  0  0  0  0  0  0
  160.4670  211.5110  152.4370 C   0  0  0  0  0  2  0  0  0  0  0  0
  161.5130  206.8840  151.7370 C   0  0  0  0  0  2  0  0  0  0  0  0
  160.6680  207.4690  150.6000 C   0  0  1  0  0  3  0  0  0  0  0  0
  160.6990  212.9460  150.4220 C   0  0  0  0  0  2  0  0  0  0  0  0
  158.4450  212.3570  151.2740 C   0  0  0  0  0  1  0  0  0  0  0  0
  162.6540  211.0600  149.1770 O   0  0  0  0  0  0  0  0  0  0  0  0
  161.1260  207.1120  148.2310 C   0  0  0  0  0  2  0  0  0  0  0  0
  161.8230  209.3540  152.4010 C   0  0  1  0  0  3  0  0  0  0  0  0
  161.7410  207.8960  152.8710 C   0  0  0  0  0  2  0  0  0  0  0  0
  160.4450  211.7790  147.9770 O   0  0  0  0  0  0  0  0  0  0  0  0
  161.9720  208.2650  148.7140 C   0  0  0  0  0  2  0  0  0  0  0  0
  161.5100  212.2980  148.9140 P   0  0  1  0  0  0  0  0  0  0  0  0
  159.8650  211.8660  151.0870 C   0  0  2  0  0  3  0  0  0  0  0  0
  162.3530  213.6890  148.1030 C   0  0  0  0  0  2  0  0  0  0  0  0
  162.7130  213.3310  146.7400 N   0  0  0  0  0  2  0  0  0  0  0  0
  161.9020  213.6770  145.6160 C   0  0  0  0  0  0  0  0  0  0  0  0
  160.8830  214.4040  145.7590 O   0  0  0  0  0  0  0  0  0  0  0  0
  162.2470  213.1520  144.2660 C   0  0  0  0  0  2  0  0  0  0  0  0
  163.3490  214.1310  142.3900 O   0  0  0  0  0  1  0  0  0  0  0  0
  163.5030  213.8180  143.7390 C   0  0  0  0  0  2  0  0  0  0  0  0
  1  2  1  6  0  0  0
  1 13  1  0  0  0  0
  4 16  1  6  0  0  0
  4  8  1  0  0  0  0
  4  1  1  0  0  0  0
  6  3  1  0  0  0  0
  7 14  1  0  0  0  0
  8  5  1  6  0  0  0
  8  7  1  0  0  0  0
  9 18  1  0  0  0  0
 11  2  1  0  0  0  0
 12 16  1  0  0  0  0
 12  5  1  0  0  0  0
 13  3  1  6  0  0  0
 13 14  1  0  0  0  0
 17 15  2  6  0  0  0
 17 11  1  0  0  0  0
 17  9  1  0  0  0  0
 18 10  1  1  0  0  0
 18  6  1  0  0  0  0
 19 17  1  0  0  0  0
 20 19  1  0  0  0  0
 21 22  2  0  0  0  0
 21 20  1  0  0  0  0
 23 21  1  0  0  0  0
 24 25  1  0  0  0  0
 25 23  1  0  0  0  0
M  END
>  <MODEL>
7

>  <REMARK>
 VINA RESULT:      -3.4      5.505      8.043
  Name = 
  4 active torsions:
  status: ('A' for Active; 'I' for Inactive)
    1  A    between atoms: C_2  and  C_12
    2  A    between atoms: C_2  and  C_21
    3  A    between atoms: C_6  and  N_15
    4  A    between atoms: C_6  and  P_23
                            x       y       z     vdW  Elec       q    Type
                         _______ _______ _______ _____ _____    ______ ____

>  <TORSDO>
F 4

$$$$
=
 OpenBabel11052422063D

 25 27  0  0  1  0  0  0  0  0999 V2000
  160.2700  213.7100  149.6470 C   0  0  2  0  0  3  0  0  0  0  0  0
  160.8070  213.4780  151.0630 C   0  0  0  0  0  2  0  0  0  0  0  0
  161.6560  211.9060  148.4340 C   0  0  0  0  0  2  0  0  0  0  0  0
  158.9470  212.9890  149.3110 C   0  0  2  0  0  3  0  0  0  0  0  0
  157.1510  213.1840  147.6590 C   0  0  0  0  0  2  0  0  0  0  0  0
  162.3360  211.3110  149.6570 C   0  0  0  0  0  2  0  0  0  0  0  0
  159.3960  214.0470  147.0380 C   0  0  0  0  0  2  0  0  0  0  0  0
  158.6450  212.9530  147.8040 C   0  0  1  0  0  3  0  0  0  0  0  0
  161.5140  210.7950  151.9450 C   0  0  0  0  0  2  0  0  0  0  0  0
  161.5090  209.0340  150.1970 C   0  0  0  0  0  1  0  0  0  0  0  0
  159.7880  213.2330  151.9860 O   0  0  0  0  0  0  0  0  0  0  0  0
  156.5870  213.3280  149.0600 C   0  0  0  0  0  2  0  0  0  0  0  0
  161.3490  213.4030  148.5910 C   0  0  1  0  0  3  0  0  0  0  0  0
  160.9190  213.9440  147.2200 C   0  0  0  0  0  2  0  0  0  0  0  0
  158.8300  210.8340  152.3850 O   0  0  0  0  0  0  0  0  0  0  0  0
  157.7590  213.6830  149.9440 C   0  0  0  0  0  2  0  0  0  0  0  0
  160.0610  211.6760  152.6250 P   0  0  1  0  0  0  0  0  0  0  0  0
  161.3250  210.5130  150.4650 C   0  0  2  0  0  3  0  0  0  0  0  0
  160.3040  211.8310  154.4200 C   0  0  0  0  0  2  0  0  0  0  0  0
  160.3550  210.5130  155.0340 N   0  0  0  0  0  2  0  0  0  0  0  0
  161.5720  209.9320  155.5040 C   0  0  0  0  0  0  0  0  0  0  0  0
  162.6450  210.5920  155.4950 O   0  0  0  0  0  0  0  0  0  0  0  0
  161.5810  208.5220  155.9840 C   0  0  0  0  0  2  0  0  0  0  0  0
  161.2010  207.4710  153.8760 O   0  0  0  0  0  1  0  0  0  0  0  0
  160.6540  207.6670  155.1430 C   0  0  0  0  0  2  0  0  0  0  0  0
  1  2  1  1  0  0  0
  2 11  1  0  0  0  0
  3 13  1  0  0  0  0
  3  6  1  0  0  0  0
  4  1  1  0  0  0  0
  4 16  1  1  0  0  0
  5  8  1  0  0  0  0
  5 12  1  0  0  0  0
  6 18  1  0  0  0  0
  7 14  1  0  0  0  0
  8  7  1  6  0  0  0
  8  4  1  0  0  0  0
  9 17  1  0  0  0  0
 11 17  1  0  0  0  0
 12 16  1  0  0  0  0
 13 14  1  6  0  0  0
 13  1  1  0  0  0  0
 17 15  2  6  0  0  0
 17 19  1  0  0  0  0
 18 10  1  1  0  0  0
 18  9  1  0  0  0  0
 19 20  1  0  0  0  0
 20 21  1  0  0  0  0
 21 23  1  0  0  0  0
 22 21  2  0  0  0  0
 24 25  1  0  0  0  0
 25 23  1  0  0  0  0
M  END
>  <MODEL>
8

>  <REMARK>
 VINA RESULT:      -3.1      3.597      6.217
  Name = 
  4 active torsions:
  status: ('A' for Active; 'I' for Inactive)
    1  A    between atoms: C_2  and  C_12
    2  A    between atoms: C_2  and  C_21
    3  A    between atoms: C_6  and  N_15
    4  A    between atoms: C_6  and  P_23
                            x       y       z     vdW  Elec       q    Type
                         _______ _______ _______ _____ _____    ______ ____

>  <TORSDO>
F 4

$$$$
=
 OpenBabel11052422063D

 25 27  0  0  1  0  0  0  0  0999 V2000
  158.2330  212.7080  155.3990 C   0  0  2  0  0  3  0  0  0  0  0  0
  159.6700  212.4870  154.9160 C   0  0  0  0  0  2  0  0  0  0  0  0
  157.5110  214.4190  153.6100 C   0  0  0  0  0  2  0  0  0  0  0  0
  157.1980  211.6760  154.9010 C   0  0  2  0  0  3  0  0  0  0  0  0
  154.9630  210.9070  155.5350 C   0  0  0  0  0  2  0  0  0  0  0  0
  158.7830  214.3980  152.7780 C   0  0  0  0  0  2  0  0  0  0  0  0
  155.6220  213.2120  156.1840 C   0  0  0  0  0  2  0  0  0  0  0  0
  155.7450  212.1340  155.1010 C   0  0  1  0  0  3  0  0  0  0  0  0
  160.2930  212.5540  152.0740 C   0  0  0  0  0  2  0  0  0  0  0  0
  158.4660  213.3050  150.5730 C   0  0  0  0  0  1  0  0  0  0  0  0
  159.9520  211.1390  154.6830 O   0  0  0  0  0  0  0  0  0  0  0  0
  155.9400  209.7470  155.5640 C   0  0  0  0  0  2  0  0  0  0  0  0
  157.7660  214.1460  155.1010 C   0  0  1  0  0  3  0  0  0  0  0  0
  156.4720  214.4530  155.8660 C   0  0  0  0  0  2  0  0  0  0  0  0
  159.4310  209.9940  152.3920 O   0  0  0  0  0  0  0  0  0  0  0  0
  157.3150  210.3650  155.6490 C   0  0  0  0  0  2  0  0  0  0  0  0
  160.3610  210.9970  153.0330 P   0  0  1  0  0  0  0  0  0  0  0  0
  158.8720  213.0860  152.0150 C   0  0  2  0  0  3  0  0  0  0  0  0
  162.0570  210.3550  152.9200 C   0  0  0  0  0  2  0  0  0  0  0  0
  162.2060  209.5440  151.7210 N   0  0  0  0  0  2  0  0  0  0  0  0
  162.0250  208.1260  151.7270 C   0  0  0  0  0  0  0  0  0  0  0  0
  161.6270  207.5340  152.7650 O   0  0  0  0  0  0  0  0  0  0  0  0
  162.3380  207.3360  150.5040 C   0  0  0  0  0  2  0  0  0  0  0  0
  162.4830  207.7150  148.1530 O   0  0  0  0  0  1  0  0  0  0  0  0
  161.7070  207.9740  149.2820 C   0  0  0  0  0  2  0  0  0  0  0  0
  1  2  1  6  0  0  0
  4  8  1  0  0  0  0
  4  1  1  0  0  0  0
  4 16  1  1  0  0  0
  5 12  1  0  0  0  0
  6  3  1  0  0  0  0
  8  5  1  1  0  0  0
  8  7  1  0  0  0  0
  9 17  1  0  0  0  0
 11  2  1  0  0  0  0
 12 16  1  0  0  0  0
 13  3  1  6  0  0  0
 13  1  1  0  0  0  0
 13 14  1  0  0  0  0
 14  7  1  0  0  0  0
 17 15  2  6  0  0  0
 17 11  1  0  0  0  0
 18 10  1  6  0  0  0
 18  9  1  0  0  0  0
 18  6  1  0  0  0  0
 19 17  1  0  0  0  0
 20 21  1  0  0  0  0
 20 19  1  0  0  0  0
 21 22  2  0  0  0  0
 23 21  1  0  0  0  0
 24 25  1  0  0  0  0
 25 23  1  0  0  0  0
M  END
>  <MODEL>
9

>  <REMARK>
 VINA RESULT:      -3.0      2.449      3.996
  Name = 
  4 active torsions:
  status: ('A' for Active; 'I' for Inactive)
    1  A    between atoms: C_2  and  C_12
    2  A    between atoms: C_2  and  C_21
    3  A    between atoms: C_6  and  N_15
    4  A    between atoms: C_6  and  P_23
                            x       y       z     vdW  Elec       q    Type
                         _______ _______ _______ _____ _____    ______ ____

>  <TORSDO>
F 4

$$$$
