=
 OpenBabel11052421583D

 30 32  0  0  1  0  0  0  0  0999 V2000
  161.6770  209.9100  151.8740 N   0  0  0  0  0  0  0  0  0  0  0  0
  161.9920  209.8210  149.5010 C   0  0  0  0  0  0  0  0  0  0  0  0
  161.1550  205.7690  152.1110 C   0  0  0  0  0  3  0  0  0  0  0  0
  161.4290  209.3440  153.0860 C   0  0  0  0  0  0  0  0  0  0  0  0
  160.9260  205.1690  153.3510 C   0  0  0  0  0  3  0  0  0  0  0  0
  161.4040  210.1820  154.2530 N   0  0  0  0  0  0  0  0  0  0  0  0
  162.0630  209.0680  148.3260 C   0  0  0  0  0  3  0  0  0  0  0  0
  162.2120  211.5610  149.4090 Cl  0  0  0  0  0  0  0  0  0  0  0  0
  161.3200  207.1610  152.0100 C   0  0  0  0  0  0  0  0  0  0  0  0
  161.8900  207.6830  148.3640 C   0  0  0  0  0  3  0  0  0  0  0  0
  161.7430  209.1830  150.7280 C   0  0  0  0  0  0  0  0  0  0  0  0
  161.2490  207.9520  153.1820 C   0  0  0  0  0  0  0  0  0  0  0  0
  160.8600  205.9520  154.5050 C   0  0  0  0  0  3  0  0  0  0  0  0
  161.0220  207.3350  154.4210 C   0  0  0  0  0  3  0  0  0  0  0  0
  161.6430  207.0420  149.5780 C   0  0  0  0  0  3  0  0  0  0  0  0
  161.5650  207.7800  150.7710 C   0  0  0  0  0  0  0  0  0  0  0  0
  159.3110  209.8710  155.5300 C   0  0  0  0  0  1  0  0  0  0  0  0
  160.1660  210.8190  154.7030 C   0  0  2  0  0  3  0  0  0  0  0  0
  158.3950  210.8190  153.0880 O   0  0  0  0  0  0  0  0  0  0  0  0
  159.4040  211.4150  153.5600 C   0  0  0  0  0  0  0  0  0  0  0  0
  159.8640  212.6400  152.9830 N   0  0  0  0  0  0  0  0  0  0  0  0
  159.4190  213.2440  150.5880 O   0  0  0  0  0  0  0  0  0  0  0  0
  159.6390  212.9460  151.7690 C   0  0  0  0  0  0  0  0  0  0  0  0
  162.6570  210.7200  154.7680 C   0  0  0  0  0  2  0  0  0  0  0  0
  162.7790  210.4720  156.2630 C   0  0  0  0  0  2  0  0  0  0  0  0
  163.8820  211.2460  156.8020 N   0  0  0  0  0  2  0  0  0  0  0  0
  164.7560  211.5010  155.7370 N   0  0  0  0  0  2  0  0  0  0  0  0
  166.2830  212.8400  157.2610 C   0  0  0  0  0  1  0  0  0  0  0  0
  165.9470  212.2650  155.9280 C   0  0  0  0  0  0  0  0  0  0  0  0
  166.7190  212.4640  154.9540 O   0  0  0  0  0  0  0  0  0  0  0  0
  1  4  1  0  0  0  0
  2 11  1  0  0  0  0
  3  5  2  0  0  0  0
  4 12  2  0  0  0  0
  4  6  1  0  0  0  0
  5 13  1  0  0  0  0
  6 18  1  0  0  0  0
  6 24  1  0  0  0  0
  7 10  1  0  0  0  0
  7  2  2  0  0  0  0
  8  2  1  0  0  0  0
  9  3  1  0  0  0  0
  9 12  1  0  0  0  0
 10 15  2  0  0  0  0
 11 16  1  0  0  0  0
 11  1  2  0  0  0  0
 12 14  1  0  0  0  0
 14 13  2  0  0  0  0
 15 16  1  0  0  0  0
 16  9  2  0  0  0  0
 18 17  1  6  0  0  0
 19 20  2  0  0  0  0
 20 18  1  0  0  0  0
 21 20  1  0  0  0  0
 22 23  2  0  0  0  0
 23 21  2  0  0  0  0
 24 25  1  0  0  0  0
 25 26  1  0  0  0  0
 27 29  1  0  0  0  0
 27 26  1  0  0  0  0
 29 28  1  0  0  0  0
 30 29  2  0  0  0  0
M  END
>  <MODEL>
1

>  <REMARK>
 VINA RESULT:      -5.7      0.000      0.000
  Name = 
  7 active torsions:
  status: ('A' for Active; 'I' for Inactive)
    1  A    between atoms: N_5  and  C_12
    2  A    between atoms: N_7  and  N_16
    3  A    between atoms: C_8  and  C_12
    4  A    between atoms: C_8  and  N_13
    5  A    between atoms: N_13  and  C_27
    6  A    between atoms: N_16  and  C_30
    7  A    between atoms: C_27  and  C_30
                            x       y       z     vdW  Elec       q    Type
                         _______ _______ _______ _____ _____    ______ ____

>  <TORSDO>
F 7

$$$$
=
 OpenBabel11052421583D

 30 32  0  0  1  0  0  0  0  0999 V2000
  160.6390  208.3930  151.6140 N   0  0  0  0  0  0  0  0  0  0  0  0
  160.8370  206.1960  150.6780 C   0  0  0  0  0  0  0  0  0  0  0  0
  161.3350  206.9720  155.4830 C   0  0  0  0  0  3  0  0  0  0  0  0
  160.6290  209.2710  152.6510 C   0  0  0  0  0  0  0  0  0  0  0  0
  161.3540  207.8650  156.5560 C   0  0  0  0  0  3  0  0  0  0  0  0
  160.4280  210.6680  152.3780 N   0  0  0  0  0  0  0  0  0  0  0  0
  161.0570  204.8280  150.8610 C   0  0  0  0  0  3  0  0  0  0  0  0
  160.5460  206.8000  149.0550 Cl  0  0  0  0  0  0  0  0  0  0  0  0
  161.0900  207.4290  154.1770 C   0  0  0  0  0  0  0  0  0  0  0  0
  161.2880  204.3140  152.1390 C   0  0  0  0  0  3  0  0  0  0  0  0
  160.8470  207.0610  151.7860 C   0  0  0  0  0  0  0  0  0  0  0  0
  160.8590  208.8090  153.9600 C   0  0  0  0  0  0  0  0  0  0  0  0
  161.1310  209.2250  156.3380 C   0  0  0  0  0  3  0  0  0  0  0  0
  160.8850  209.6950  155.0470 C   0  0  0  0  0  3  0  0  0  0  0  0
  161.3010  205.1670  153.2430 C   0  0  0  0  0  3  0  0  0  0  0  0
  161.0810  206.5450  153.0820 C   0  0  0  0  0  0  0  0  0  0  0  0
  158.9660  212.3390  151.2920 C   0  0  0  0  0  1  0  0  0  0  0  0
  159.0860  211.2500  152.3470 C   0  0  2  0  0  3  0  0  0  0  0  0
  157.7730  211.1010  154.3470 O   0  0  0  0  0  0  0  0  0  0  0  0
  158.6590  211.7280  153.7020 C   0  0  0  0  0  0  0  0  0  0  0  0
  159.2350  212.9270  154.2260 N   0  0  0  0  0  0  0  0  0  0  0  0
  160.1190  213.0740  156.5700 O   0  0  0  0  0  0  0  0  0  0  0  0
  159.6840  213.0010  155.4150 C   0  0  0  0  0  0  0  0  0  0  0  0
  161.5010  211.4300  151.7520 C   0  0  0  0  0  2  0  0  0  0  0  0
  162.2380  210.5840  150.7260 C   0  0  0  0  0  2  0  0  0  0  0  0
  161.7180  210.8580  149.3980 N   0  0  0  0  0  2  0  0  0  0  0  0
  162.5540  211.8240  148.8260 N   0  0  0  0  0  2  0  0  0  0  0  0
  160.5420  213.1340  148.0030 C   0  0  0  0  0  1  0  0  0  0  0  0
  162.0150  212.9580  148.1480 C   0  0  0  0  0  0  0  0  0  0  0  0
  162.7930  213.8160  147.6570 O   0  0  0  0  0  0  0  0  0  0  0  0
  1 11  2  0  0  0  0
  1  4  1  0  0  0  0
  2  7  2  0  0  0  0
  2 11  1  0  0  0  0
  3  5  2  0  0  0  0
  4 12  2  0  0  0  0
  6  4  1  0  0  0  0
  7 10  1  0  0  0  0
  8  2  1  0  0  0  0
  9  3  1  0  0  0  0
 10 15  2  0  0  0  0
 11 16  1  0  0  0  0
 12  9  1  0  0  0  0
 12 14  1  0  0  0  0
 13  5  1  0  0  0  0
 14 13  2  0  0  0  0
 16 15  1  0  0  0  0
 16  9  2  0  0  0  0
 18 17  1  6  0  0  0
 18  6  1  0  0  0  0
 18 20  1  0  0  0  0
 20 21  1  0  0  0  0
 20 19  2  0  0  0  0
 21 23  2  0  0  0  0
 23 22  2  0  0  0  0
 24  6  1  0  0  0  0
 25 24  1  0  0  0  0
 26 25  1  0  0  0  0
 27 26  1  0  0  0  0
 28 29  1  0  0  0  0
 29 27  1  0  0  0  0
 30 29  2  0  0  0  0
M  END
>  <MODEL>
2

>  <REMARK>
 VINA RESULT:      -5.5      3.085      4.812
  Name = 
  7 active torsions:
  status: ('A' for Active; 'I' for Inactive)
    1  A    between atoms: N_5  and  C_12
    2  A    between atoms: N_7  and  N_16
    3  A    between atoms: C_8  and  C_12
    4  A    between atoms: C_8  and  N_13
    5  A    between atoms: N_13  and  C_27
    6  A    between atoms: N_16  and  C_30
    7  A    between atoms: C_27  and  C_30
                            x       y       z     vdW  Elec       q    Type
                         _______ _______ _______ _____ _____    ______ ____

>  <TORSDO>
F 7

$$$$
=
 OpenBabel11052421583D

 30 32  0  0  1  0  0  0  0  0999 V2000
  160.7650  208.3630  151.4430 N   0  0  0  0  0  0  0  0  0  0  0  0
  160.7870  206.1150  150.6160 C   0  0  0  0  0  0  0  0  0  0  0  0
  161.4320  207.0880  155.3670 C   0  0  0  0  0  3  0  0  0  0  0  0
  160.8380  209.2910  152.4340 C   0  0  0  0  0  0  0  0  0  0  0  0
  161.5360  208.0280  156.3930 C   0  0  0  0  0  3  0  0  0  0  0  0
  160.7330  210.6830  152.0940 N   0  0  0  0  0  0  0  0  0  0  0  0
  160.9110  204.7450  150.8640 C   0  0  0  0  0  3  0  0  0  0  0  0
  160.5080  206.6580  148.9690 Cl  0  0  0  0  0  0  0  0  0  0  0  0
  161.1950  207.4970  154.0440 C   0  0  0  0  0  0  0  0  0  0  0  0
  161.1300  204.2800  152.1620 C   0  0  0  0  0  3  0  0  0  0  0  0
  160.8800  207.0300  151.6780 C   0  0  0  0  0  0  0  0  0  0  0  0
  161.0600  208.8770  153.7610 C   0  0  0  0  0  0  0  0  0  0  0  0
  161.4060  209.3890  156.1100 C   0  0  0  0  0  3  0  0  0  0  0  0
  161.1700  209.8110  154.8010 C   0  0  0  0  0  3  0  0  0  0  0  0
  161.2250  205.1830  153.2220 C   0  0  0  0  0  3  0  0  0  0  0  0
  161.1010  206.5630  152.9950 C   0  0  0  0  0  0  0  0  0  0  0  0
  159.4320  212.5180  151.0710 C   0  0  0  0  0  1  0  0  0  0  0  0
  159.4360  211.3590  152.0540 C   0  0  2  0  0  3  0  0  0  0  0  0
  159.6290  212.6610  154.0580 O   0  0  0  0  0  0  0  0  0  0  0  0
  158.9890  211.7780  153.4220 C   0  0  0  0  0  0  0  0  0  0  0  0
  157.8590  211.1280  154.0110 N   0  0  0  0  0  0  0  0  0  0  0  0
  157.1770  211.5260  156.3930 O   0  0  0  0  0  0  0  0  0  0  0  0
  157.5130  211.3300  155.2190 C   0  0  0  0  0  0  0  0  0  0  0  0
  161.8450  211.3330  151.4140 C   0  0  0  0  0  2  0  0  0  0  0  0
  162.0720  210.7220  150.0400 C   0  0  0  0  0  2  0  0  0  0  0  0
  162.2880  211.7740  149.0630 N   0  0  0  0  0  2  0  0  0  0  0  0
  161.4900  211.4670  147.9540 N   0  0  0  0  0  2  0  0  0  0  0  0
  160.7120  213.8780  147.7970 C   0  0  0  0  0  1  0  0  0  0  0  0
  160.7170  212.4720  147.3000 C   0  0  0  0  0  0  0  0  0  0  0  0
  160.0210  212.1680  146.2970 O   0  0  0  0  0  0  0  0  0  0  0  0
  1 11  2  0  0  0  0
  1  4  1  0  0  0  0
  2  7  2  0  0  0  0
  2 11  1  0  0  0  0
  3  5  2  0  0  0  0
  4 12  2  0  0  0  0
  6  4  1  0  0  0  0
  7 10  1  0  0  0  0
  8  2  1  0  0  0  0
  9  3  1  0  0  0  0
 10 15  2  0  0  0  0
 11 16  1  0  0  0  0
 12  9  1  0  0  0  0
 12 14  1  0  0  0  0
 13  5  1  0  0  0  0
 14 13  2  0  0  0  0
 16 15  1  0  0  0  0
 16  9  2  0  0  0  0
 18 17  1  6  0  0  0
 18  6  1  0  0  0  0
 18 20  1  0  0  0  0
 20 21  1  0  0  0  0
 20 19  2  0  0  0  0
 21 23  2  0  0  0  0
 23 22  2  0  0  0  0
 24  6  1  0  0  0  0
 25 24  1  0  0  0  0
 26 25  1  0  0  0  0
 27 26  1  0  0  0  0
 29 28  1  0  0  0  0
 29 27  1  0  0  0  0
 30 29  2  0  0  0  0
M  END
>  <MODEL>
3

>  <REMARK>
 VINA RESULT:      -5.4      3.053      5.262
  Name = 
  7 active torsions:
  status: ('A' for Active; 'I' for Inactive)
    1  A    between atoms: N_5  and  C_12
    2  A    between atoms: N_7  and  N_16
    3  A    between atoms: C_8  and  C_12
    4  A    between atoms: C_8  and  N_13
    5  A    between atoms: N_13  and  C_27
    6  A    between atoms: N_16  and  C_30
    7  A    between atoms: C_27  and  C_30
                            x       y       z     vdW  Elec       q    Type
                         _______ _______ _______ _____ _____    ______ ____

>  <TORSDO>
F 7

$$$$
=
 OpenBabel11052421583D

 30 32  0  0  1  0  0  0  0  0999 V2000
  161.0260  207.9710  152.8390 N   0  0  0  0  0  0  0  0  0  0  0  0
  161.1200  205.6550  152.2320 C   0  0  0  0  0  0  0  0  0  0  0  0
  161.9960  209.1830  148.9580 C   0  0  0  0  0  3  0  0  0  0  0  0
  161.1360  209.2990  152.5710 C   0  0  0  0  0  0  0  0  0  0  0  0
  162.0870  210.5440  148.6600 C   0  0  0  0  0  3  0  0  0  0  0  0
  160.8670  210.2450  153.6190 N   0  0  0  0  0  0  0  0  0  0  0  0
  161.3350  204.6770  151.2570 C   0  0  0  0  0  3  0  0  0  0  0  0
  160.7100  205.1530  153.8640 Cl  0  0  0  0  0  0  0  0  0  0  0  0
  161.6840  208.7570  150.2600 C   0  0  0  0  0  0  0  0  0  0  0  0
  161.6660  205.0420  149.9510 C   0  0  0  0  0  3  0  0  0  0  0  0
  161.2380  207.0150  151.8970 C   0  0  0  0  0  0  0  0  0  0  0  0
  161.4640  209.7240  151.2700 C   0  0  0  0  0  0  0  0  0  0  0  0
  161.8670  211.4950  149.6570 C   0  0  0  0  0  3  0  0  0  0  0  0
  161.5560  211.0870  150.9550 C   0  0  0  0  0  3  0  0  0  0  0  0
  161.7840  206.3900  149.6100 C   0  0  0  0  0  3  0  0  0  0  0  0
  161.5740  207.3890  150.5750 C   0  0  0  0  0  0  0  0  0  0  0  0
  163.3100  210.4010  153.9600 C   0  0  0  0  0  1  0  0  0  0  0  0
  161.9280  210.7080  154.5140 C   0  0  2  0  0  3  0  0  0  0  0  0
  161.4580  210.9650  156.8510 O   0  0  0  0  0  0  0  0  0  0  0  0
  161.7470  210.1800  155.9050 C   0  0  0  0  0  0  0  0  0  0  0  0
  161.9550  208.7870  156.1490 N   0  0  0  0  0  0  0  0  0  0  0  0
  160.0750  207.2370  156.7500 O   0  0  0  0  0  0  0  0  0  0  0  0
  161.0020  208.0010  156.4530 C   0  0  0  0  0  0  0  0  0  0  0  0
  159.4910  210.4540  154.0510 C   0  0  0  0  0  2  0  0  0  0  0  0
  159.1640  211.9370  154.1210 C   0  0  0  0  0  2  0  0  0  0  0  0
  158.3520  212.2070  155.2940 N   0  0  0  0  0  2  0  0  0  0  0  0
  157.4150  211.1700  155.3850 N   0  0  0  0  0  2  0  0  0  0  0  0
  155.6000  212.6770  154.4470 C   0  0  0  0  0  1  0  0  0  0  0  0
  156.0630  211.3590  154.9670 C   0  0  0  0  0  0  0  0  0  0  0  0
  155.2480  210.4040  155.0480 O   0  0  0  0  0  0  0  0  0  0  0  0
  2  8  1  0  0  0  0
  3  9  1  0  0  0  0
  4  1  1  0  0  0  0
  4  6  1  0  0  0  0
  5  3  2  0  0  0  0
  5 13  1  0  0  0  0
  6 24  1  0  0  0  0
  6 18  1  0  0  0  0
  7  2  2  0  0  0  0
  9 16  2  0  0  0  0
  9 12  1  0  0  0  0
 10  7  1  0  0  0  0
 11  2  1  0  0  0  0
 11  1  2  0  0  0  0
 12  4  2  0  0  0  0
 13 14  2  0  0  0  0
 14 12  1  0  0  0  0
 15 10  2  0  0  0  0
 15 16  1  0  0  0  0
 16 11  1  0  0  0  0
 18 17  1  6  0  0  0
 18 20  1  0  0  0  0
 20 21  1  0  0  0  0
 20 19  2  0  0  0  0
 21 23  2  0  0  0  0
 23 22  2  0  0  0  0
 24 25  1  0  0  0  0
 25 26  1  0  0  0  0
 26 27  1  0  0  0  0
 28 29  1  0  0  0  0
 29 30  2  0  0  0  0
 29 27  1  0  0  0  0
M  END
>  <MODEL>
4

>  <REMARK>
 VINA RESULT:      -5.1      2.971      5.757
  Name = 
  7 active torsions:
  status: ('A' for Active; 'I' for Inactive)
    1  A    between atoms: N_5  and  C_12
    2  A    between atoms: N_7  and  N_16
    3  A    between atoms: C_8  and  C_12
    4  A    between atoms: C_8  and  N_13
    5  A    between atoms: N_13  and  C_27
    6  A    between atoms: N_16  and  C_30
    7  A    between atoms: C_27  and  C_30
                            x       y       z     vdW  Elec       q    Type
                         _______ _______ _______ _____ _____    ______ ____

>  <TORSDO>
F 7

$$$$
=
 OpenBabel11052421583D

 30 32  0  0  1  0  0  0  0  0999 V2000
  160.9110  206.6240  152.9210 N   0  0  0  0  0  0  0  0  0  0  0  0
  160.8830  204.6490  151.5660 C   0  0  0  0  0  0  0  0  0  0  0  0
  161.9450  209.0290  149.6630 C   0  0  0  0  0  3  0  0  0  0  0  0
  161.0920  207.9570  153.1170 C   0  0  0  0  0  0  0  0  0  0  0  0
  162.1090  210.4040  149.8410 C   0  0  0  0  0  3  0  0  0  0  0  0
  160.8730  208.5050  154.4270 N   0  0  0  0  0  0  0  0  0  0  0  0
  161.0460  204.0490  150.3140 C   0  0  0  0  0  3  0  0  0  0  0  0
  160.4470  203.6440  152.9380 Cl  0  0  0  0  0  0  0  0  0  0  0  0
  161.6110  208.2030  150.7490 C   0  0  0  0  0  0  0  0  0  0  0  0
  161.3960  204.8180  149.2020 C   0  0  0  0  0  3  0  0  0  0  0  0
  161.0730  206.0340  151.7080 C   0  0  0  0  0  0  0  0  0  0  0  0
  161.4420  208.7800  152.0310 C   0  0  0  0  0  0  0  0  0  0  0  0
  161.9390  210.9710  151.1050 C   0  0  0  0  0  3  0  0  0  0  0  0
  161.6060  210.1630  152.1940 C   0  0  0  0  0  3  0  0  0  0  0  0
  161.5850  206.1940  149.3360 C   0  0  0  0  0  3  0  0  0  0  0  0
  161.4280  206.8170  150.5850 C   0  0  0  0  0  0  0  0  0  0  0  0
  161.6890  207.7050  156.6190 C   0  0  0  0  0  1  0  0  0  0  0  0
  161.9570  208.5830  155.4070 C   0  0  2  0  0  3  0  0  0  0  0  0
  163.0290  210.7040  155.0880 O   0  0  0  0  0  0  0  0  0  0  0  0
  162.2510  210.0010  155.7930 C   0  0  0  0  0  0  0  0  0  0  0  0
  161.6780  210.5270  156.9920 N   0  0  0  0  0  0  0  0  0  0  0  0
  160.6700  212.8230  157.1010 O   0  0  0  0  0  0  0  0  0  0  0  0
  161.1670  211.6910  157.0470 C   0  0  0  0  0  0  0  0  0  0  0  0
  159.5100  208.6230  154.9280 C   0  0  0  0  0  2  0  0  0  0  0  0
  158.9450  210.0050  154.6410 C   0  0  0  0  0  2  0  0  0  0  0  0
  158.1370  210.4490  155.7620 N   0  0  0  0  0  2  0  0  0  0  0  0
  157.4950  211.6260  155.3590 N   0  0  0  0  0  2  0  0  0  0  0  0
  155.3190  210.3670  155.0110 C   0  0  0  0  0  1  0  0  0  0  0  0
  156.1140  211.6270  154.9970 C   0  0  0  0  0  0  0  0  0  0  0  0
  155.5630  212.7040  154.6520 O   0  0  0  0  0  0  0  0  0  0  0  0
  1  4  1  0  0  0  0
  2 11  1  0  0  0  0
  2  8  1  0  0  0  0
  3  5  2  0  0  0  0
  3  9  1  0  0  0  0
  4  6  1  0  0  0  0
  5 13  1  0  0  0  0
  6 24  1  0  0  0  0
  6 18  1  0  0  0  0
  7  2  2  0  0  0  0
  9 12  1  0  0  0  0
 10 15  2  0  0  0  0
 10  7  1  0  0  0  0
 11  1  2  0  0  0  0
 12 14  1  0  0  0  0
 12  4  2  0  0  0  0
 13 14  2  0  0  0  0
 15 16  1  0  0  0  0
 16  9  2  0  0  0  0
 16 11  1  0  0  0  0
 18 20  1  0  0  0  0
 18 17  1  1  0  0  0
 19 20  2  0  0  0  0
 20 21  1  0  0  0  0
 21 23  2  0  0  0  0
 23 22  2  0  0  0  0
 25 24  1  0  0  0  0
 25 26  1  0  0  0  0
 27 26  1  0  0  0  0
 29 28  1  0  0  0  0
 29 27  1  0  0  0  0
 30 29  2  0  0  0  0
M  END
>  <MODEL>
5

>  <REMARK>
 VINA RESULT:      -5.1      2.992      5.565
  Name = 
  7 active torsions:
  status: ('A' for Active; 'I' for Inactive)
    1  A    between atoms: N_5  and  C_12
    2  A    between atoms: N_7  and  N_16
    3  A    between atoms: C_8  and  C_12
    4  A    between atoms: C_8  and  N_13
    5  A    between atoms: N_13  and  C_27
    6  A    between atoms: N_16  and  C_30
    7  A    between atoms: C_27  and  C_30
                            x       y       z     vdW  Elec       q    Type
                         _______ _______ _______ _____ _____    ______ ____

>  <TORSDO>
F 7

$$$$
=
 OpenBabel11052421583D

 30 32  0  0  1  0  0  0  0  0999 V2000
  161.0100  207.9440  152.8400 N   0  0  0  0  0  0  0  0  0  0  0  0
  161.0750  205.6240  152.2470 C   0  0  0  0  0  0  0  0  0  0  0  0
  161.9560  209.1230  148.9430 C   0  0  0  0  0  3  0  0  0  0  0  0
  161.1310  209.2690  152.5640 C   0  0  0  0  0  0  0  0  0  0  0  0
  162.0580  210.4810  148.6360 C   0  0  0  0  0  3  0  0  0  0  0  0
  160.8820  210.2250  153.6080 N   0  0  0  0  0  0  0  0  0  0  0  0
  161.2710  204.6370  151.2760 C   0  0  0  0  0  3  0  0  0  0  0  0
  160.6760  205.1350  153.8850 Cl  0  0  0  0  0  0  0  0  0  0  0  0
  161.6520  208.7080  150.2510 C   0  0  0  0  0  0  0  0  0  0  0  0
  161.5930  204.9910  149.9650 C   0  0  0  0  0  3  0  0  0  0  0  0
  161.2040  206.9800  151.9030 C   0  0  0  0  0  0  0  0  0  0  0  0
  161.4520  209.6830  151.2570 C   0  0  0  0  0  0  0  0  0  0  0  0
  161.8570  211.4410  149.6300 C   0  0  0  0  0  3  0  0  0  0  0  0
  161.5540  211.0440  150.9330 C   0  0  0  0  0  3  0  0  0  0  0  0
  161.7210  206.3360  149.6150 C   0  0  0  0  0  3  0  0  0  0  0  0
  161.5300  207.3430  150.5750 C   0  0  0  0  0  0  0  0  0  0  0  0
  163.3290  210.3280  153.9410 C   0  0  0  0  0  1  0  0  0  0  0  0
  161.9560  210.6820  154.4910 C   0  0  2  0  0  3  0  0  0  0  0  0
  161.4840  211.0020  156.8190 O   0  0  0  0  0  0  0  0  0  0  0  0
  161.7660  210.1900  155.8930 C   0  0  0  0  0  0  0  0  0  0  0  0
  161.9570  208.8010  156.1720 N   0  0  0  0  0  0  0  0  0  0  0  0
  160.0510  207.2820  156.7720 O   0  0  0  0  0  0  0  0  0  0  0  0
  160.9900  208.0300  156.4760 C   0  0  0  0  0  0  0  0  0  0  0  0
  159.5120  210.4500  154.0520 C   0  0  0  0  0  2  0  0  0  0  0  0
  159.2080  211.9370  154.1360 C   0  0  0  0  0  2  0  0  0  0  0  0
  159.6030  212.5910  152.9010 N   0  0  0  0  0  2  0  0  0  0  0  0
  158.4850  212.5750  152.0590 N   0  0  0  0  0  2  0  0  0  0  0  0
  159.5730  214.2740  150.5180 C   0  0  0  0  0  1  0  0  0  0  0  0
  158.4400  213.3750  150.8770 C   0  0  0  0  0  0  0  0  0  0  0  0
  157.4270  213.3280  150.1330 O   0  0  0  0  0  0  0  0  0  0  0  0
  2  8  1  0  0  0  0
  3  9  1  0  0  0  0
  4  1  1  0  0  0  0
  4  6  1  0  0  0  0
  5  3  2  0  0  0  0
  5 13  1  0  0  0  0
  6 24  1  0  0  0  0
  6 18  1  0  0  0  0
  7  2  2  0  0  0  0
  9 16  2  0  0  0  0
  9 12  1  0  0  0  0
 10  7  1  0  0  0  0
 11  2  1  0  0  0  0
 11  1  2  0  0  0  0
 12  4  2  0  0  0  0
 13 14  2  0  0  0  0
 14 12  1  0  0  0  0
 15 10  2  0  0  0  0
 15 16  1  0  0  0  0
 16 11  1  0  0  0  0
 18 17  1  6  0  0  0
 18 20  1  0  0  0  0
 20 21  1  0  0  0  0
 20 19  2  0  0  0  0
 21 23  2  0  0  0  0
 23 22  2  0  0  0  0
 24 25  1  0  0  0  0
 26 25  1  0  0  0  0
 27 26  1  0  0  0  0
 28 29  1  0  0  0  0
 29 27  1  0  0  0  0
 30 29  2  0  0  0  0
M  END
>  <MODEL>
6

>  <REMARK>
 VINA RESULT:      -5.0      2.675      5.550
  Name = 
  7 active torsions:
  status: ('A' for Active; 'I' for Inactive)
    1  A    between atoms: N_5  and  C_12
    2  A    between atoms: N_7  and  N_16
    3  A    between atoms: C_8  and  C_12
    4  A    between atoms: C_8  and  N_13
    5  A    between atoms: N_13  and  C_27
    6  A    between atoms: N_16  and  C_30
    7  A    between atoms: C_27  and  C_30
                            x       y       z     vdW  Elec       q    Type
                         _______ _______ _______ _____ _____    ______ ____

>  <TORSDO>
F 7

$$$$
=
 OpenBabel11052421583D

 30 32  0  0  1  0  0  0  0  0999 V2000
  160.7570  210.1580  152.9820 N   0  0  0  0  0  0  0  0  0  0  0  0
  161.1530  211.4050  150.9750 C   0  0  0  0  0  0  0  0  0  0  0  0
  157.6940  212.7450  154.1650 C   0  0  0  0  0  3  0  0  0  0  0  0
  160.1180  209.9290  154.1600 C   0  0  0  0  0  0  0  0  0  0  0  0
  157.0100  212.5090  155.3590 C   0  0  0  0  0  3  0  0  0  0  0  0
  160.4830  208.7760  154.9370 N   0  0  0  0  0  0  0  0  0  0  0  0
  160.8320  212.4860  150.1500 C   0  0  0  0  0  3  0  0  0  0  0  0
  162.4370  210.3130  150.4830 Cl  0  0  0  0  0  0  0  0  0  0  0  0
  158.7350  211.8940  153.7570 C   0  0  0  0  0  0  0  0  0  0  0  0
  159.8190  213.3750  150.5120 C   0  0  0  0  0  3  0  0  0  0  0  0
  160.4530  211.2100  152.1780 C   0  0  0  0  0  0  0  0  0  0  0  0
  159.0860  210.7920  154.5730 C   0  0  0  0  0  0  0  0  0  0  0  0
  157.3560  211.4200  156.1590 C   0  0  0  0  0  3  0  0  0  0  0  0
  158.3880  210.5650  155.7690 C   0  0  0  0  0  3  0  0  0  0  0  0
  159.1180  213.1880  151.7050 C   0  0  0  0  0  3  0  0  0  0  0  0
  159.4260  212.1090  152.5500 C   0  0  0  0  0  0  0  0  0  0  0  0
  161.1130  208.2180  157.2610 C   0  0  0  0  0  1  0  0  0  0  0  0
  161.5430  208.8440  155.9430 C   0  0  2  0  0  3  0  0  0  0  0  0
  162.9010  210.7180  155.3200 O   0  0  0  0  0  0  0  0  0  0  0  0
  162.0480  210.2430  156.1210 C   0  0  0  0  0  0  0  0  0  0  0  0
  161.5860  211.0100  157.2350 N   0  0  0  0  0  0  0  0  0  0  0  0
  160.5280  213.2700  156.9590 O   0  0  0  0  0  0  0  0  0  0  0  0
  161.0490  212.1560  157.0950 C   0  0  0  0  0  0  0  0  0  0  0  0
  160.0860  207.4530  154.4730 C   0  0  0  0  0  2  0  0  0  0  0  0
  161.3010  206.6380  154.0580 C   0  0  0  0  0  2  0  0  0  0  0  0
  161.1320  206.1610  152.6970 N   0  0  0  0  0  2  0  0  0  0  0  0
  161.2070  204.7630  152.7460 N   0  0  0  0  0  2  0  0  0  0  0  0
  160.8620  204.6190  150.2350 C   0  0  0  0  0  1  0  0  0  0  0  0
  161.0930  203.9770  151.5600 C   0  0  0  0  0  0  0  0  0  0  0  0
  161.1790  202.7240  151.6340 O   0  0  0  0  0  0  0  0  0  0  0  0
  1  4  1  0  0  0  0
  2 11  1  0  0  0  0
  3  5  2  0  0  0  0
  4 12  2  0  0  0  0
  4  6  1  0  0  0  0
  5 13  1  0  0  0  0
  6 18  1  0  0  0  0
  7 10  1  0  0  0  0
  7  2  2  0  0  0  0
  8  2  1  0  0  0  0
  9  3  1  0  0  0  0
  9 12  1  0  0  0  0
 10 15  2  0  0  0  0
 11 16  1  0  0  0  0
 11  1  2  0  0  0  0
 12 14  1  0  0  0  0
 14 13  2  0  0  0  0
 15 16  1  0  0  0  0
 16  9  2  0  0  0  0
 18 20  1  0  0  0  0
 18 17  1  1  0  0  0
 19 20  2  0  0  0  0
 20 21  1  0  0  0  0
 22 23  2  0  0  0  0
 23 21  2  0  0  0  0
 24  6  1  0  0  0  0
 25 24  1  0  0  0  0
 26 27  1  0  0  0  0
 26 25  1  0  0  0  0
 28 29  1  0  0  0  0
 29 30  2  0  0  0  0
 29 27  1  0  0  0  0
M  END
>  <MODEL>
7

>  <REMARK>
 VINA RESULT:      -4.9      2.872      6.083
  Name = 
  7 active torsions:
  status: ('A' for Active; 'I' for Inactive)
    1  A    between atoms: N_5  and  C_12
    2  A    between atoms: N_7  and  N_16
    3  A    between atoms: C_8  and  C_12
    4  A    between atoms: C_8  and  N_13
    5  A    between atoms: N_13  and  C_27
    6  A    between atoms: N_16  and  C_30
    7  A    between atoms: C_27  and  C_30
                            x       y       z     vdW  Elec       q    Type
                         _______ _______ _______ _____ _____    ______ ____

>  <TORSDO>
F 7

$$$$
=
 OpenBabel11052421583D

 30 32  0  0  1  0  0  0  0  0999 V2000
  159.5840  210.5460  152.5940 N   0  0  0  0  0  0  0  0  0  0  0  0
  157.9850  212.2830  153.0010 C   0  0  0  0  0  0  0  0  0  0  0  0
  160.0700  209.8270  156.6830 C   0  0  0  0  0  3  0  0  0  0  0  0
  160.4600  209.5870  152.9950 C   0  0  0  0  0  0  0  0  0  0  0  0
  160.9460  208.8280  157.1110 C   0  0  0  0  0  3  0  0  0  0  0  0
  161.1540  208.8170  152.0000 N   0  0  0  0  0  0  0  0  0  0  0  0
  157.2500  213.0500  153.9090 C   0  0  0  0  0  3  0  0  0  0  0  0
  157.7840  212.5780  151.2820 Cl  0  0  0  0  0  0  0  0  0  0  0  0
  159.9030  210.0920  155.3130 C   0  0  0  0  0  0  0  0  0  0  0  0
  157.3880  212.8430  155.2830 C   0  0  0  0  0  3  0  0  0  0  0  0
  158.8700  211.2980  153.4720 C   0  0  0  0  0  0  0  0  0  0  0  0
  160.6370  209.3340  154.3680 C   0  0  0  0  0  0  0  0  0  0  0  0
  161.6650  208.0810  156.1770 C   0  0  0  0  0  3  0  0  0  0  0  0
  161.5110  208.3320  154.8130 C   0  0  0  0  0  3  0  0  0  0  0  0
  158.2640  211.8660  155.7580 C   0  0  0  0  0  3  0  0  0  0  0  0
  159.0140  211.0850  154.8630 C   0  0  0  0  0  0  0  0  0  0  0  0
  163.0810  210.3280  152.3320 C   0  0  0  0  0  1  0  0  0  0  0  0
  162.4420  209.2560  151.4630 C   0  0  2  0  0  3  0  0  0  0  0  0
  162.5980  208.8740  149.1020 O   0  0  0  0  0  0  0  0  0  0  0  0
  162.3280  209.6840  150.0320 C   0  0  0  0  0  0  0  0  0  0  0  0
  161.9560  211.0340  149.7400 N   0  0  0  0  0  0  0  0  0  0  0  0
  162.6960  212.2040  147.6460 O   0  0  0  0  0  0  0  0  0  0  0  0
  162.3310  211.6270  148.6780 C   0  0  0  0  0  0  0  0  0  0  0  0
  160.4190  207.8160  151.2370 C   0  0  0  0  0  2  0  0  0  0  0  0
  161.0850  206.4540  151.3490 C   0  0  0  0  0  2  0  0  0  0  0  0
  160.5760  205.5720  150.3140 N   0  0  0  0  0  2  0  0  0  0  0  0
  160.4750  206.3350  149.1440 N   0  0  0  0  0  2  0  0  0  0  0  0
  161.5810  204.4890  147.7970 C   0  0  0  0  0  1  0  0  0  0  0  0
  160.9430  205.8330  147.8930 C   0  0  0  0  0  0  0  0  0  0  0  0
  160.8240  206.5370  146.8570 O   0  0  0  0  0  0  0  0  0  0  0  0
  1  4  2  0  0  0  0
  1 11  1  0  0  0  0
  2 11  2  0  0  0  0
  2  7  1  0  0  0  0
  3  5  1  0  0  0  0
  4 12  1  0  0  0  0
  6  4  1  0  0  0  0
  7 10  2  0  0  0  0
  8  2  1  0  0  0  0
  9  3  2  0  0  0  0
 10 15  1  0  0  0  0
 11 16  1  0  0  0  0
 12 14  2  0  0  0  0
 12  9  1  0  0  0  0
 13  5  2  0  0  0  0
 14 13  1  0  0  0  0
 16  9  1  0  0  0  0
 16 15  2  0  0  0  0
 18  6  1  0  0  0  0
 18 17  1  1  0  0  0
 19 20  2  0  0  0  0
 20 18  1  0  0  0  0
 21 20  1  0  0  0  0
 22 23  2  0  0  0  0
 23 21  2  0  0  0  0
 24 25  1  0  0  0  0
 24  6  1  0  0  0  0
 26 25  1  0  0  0  0
 27 26  1  0  0  0  0
 28 29  1  0  0  0  0
 29 27  1  0  0  0  0
 30 29  2  0  0  0  0
M  END
>  <MODEL>
8

>  <REMARK>
 VINA RESULT:      -4.9      3.405      6.623
  Name = 
  7 active torsions:
  status: ('A' for Active; 'I' for Inactive)
    1  A    between atoms: N_5  and  C_12
    2  A    between atoms: N_7  and  N_16
    3  A    between atoms: C_8  and  C_12
    4  A    between atoms: C_8  and  N_13
    5  A    between atoms: N_13  and  C_27
    6  A    between atoms: N_16  and  C_30
    7  A    between atoms: C_27  and  C_30
                            x       y       z     vdW  Elec       q    Type
                         _______ _______ _______ _____ _____    ______ ____

>  <TORSDO>
F 7

$$$$
=
 OpenBabel11052421583D

 30 32  0  0  1  0  0  0  0  0999 V2000
  161.3750  203.8780  149.2480 N   0  0  0  0  0  0  0  0  0  0  0  0
  161.4340  201.4850  149.1620 C   0  0  0  0  0  0  0  0  0  0  0  0
  160.8510  204.1660  145.1110 C   0  0  0  0  0  3  0  0  0  0  0  0
  161.2830  205.1090  148.6790 C   0  0  0  0  0  0  0  0  0  0  0  0
  160.7280  205.4220  144.5140 C   0  0  0  0  0  3  0  0  0  0  0  0
  161.3190  206.2710  149.5240 N   0  0  0  0  0  0  0  0  0  0  0  0
  161.3760  200.3080  148.4090 C   0  0  0  0  0  3  0  0  0  0  0  0
  161.6520  201.3710  150.9000 Cl  0  0  0  0  0  0  0  0  0  0  0  0
  161.0410  204.0500  146.4990 C   0  0  0  0  0  0  0  0  0  0  0  0
  161.2060  200.3630  147.0250 C   0  0  0  0  0  3  0  0  0  0  0  0
  161.3240  202.7310  148.5220 C   0  0  0  0  0  0  0  0  0  0  0  0
  161.1090  205.2230  147.2880 C   0  0  0  0  0  0  0  0  0  0  0  0
  160.7910  206.5770  145.2950 C   0  0  0  0  0  3  0  0  0  0  0  0
  160.9800  206.4780  146.6740 C   0  0  0  0  0  3  0  0  0  0  0  0
  161.0940  201.5970  146.3820 C   0  0  0  0  0  3  0  0  0  0  0  0
  161.1520  202.7910  147.1190 C   0  0  0  0  0  0  0  0  0  0  0  0
  163.1730  206.3760  151.1540 C   0  0  0  0  0  1  0  0  0  0  0  0
  162.5840  206.9230  149.8640 C   0  0  2  0  0  3  0  0  0  0  0  0
  162.6770  209.0530  150.9600 O   0  0  0  0  0  0  0  0  0  0  0  0
  162.4460  208.4150  149.8950 C   0  0  0  0  0  0  0  0  0  0  0  0
  162.0030  209.0940  148.7180 N   0  0  0  0  0  0  0  0  0  0  0  0
  161.9490  211.5980  148.5570 O   0  0  0  0  0  0  0  0  0  0  0  0
  161.9760  210.3640  148.6360 C   0  0  0  0  0  0  0  0  0  0  0  0
  160.1640  206.5780  150.3580 C   0  0  0  0  0  2  0  0  0  0  0  0
  160.4560  206.2740  151.8200 C   0  0  0  0  0  2  0  0  0  0  0  0
  160.4560  207.5070  152.5870 N   0  0  0  0  0  2  0  0  0  0  0  0
  160.8310  207.1710  153.8940 N   0  0  0  0  0  2  0  0  0  0  0  0
  161.2350  209.6150  154.4480 C   0  0  0  0  0  1  0  0  0  0  0  0
  161.2050  208.1760  154.8350 C   0  0  0  0  0  0  0  0  0  0  0  0
  161.5240  207.8430  156.0060 O   0  0  0  0  0  0  0  0  0  0  0  0
  2  8  1  0  0  0  0
  3  9  1  0  0  0  0
  4  1  1  0  0  0  0
  4  6  1  0  0  0  0
  5  3  2  0  0  0  0
  5 13  1  0  0  0  0
  6 18  1  0  0  0  0
  6 24  1  0  0  0  0
  7  2  2  0  0  0  0
  9 16  2  0  0  0  0
  9 12  1  0  0  0  0
 10  7  1  0  0  0  0
 11  2  1  0  0  0  0
 11  1  2  0  0  0  0
 12  4  2  0  0  0  0
 13 14  2  0  0  0  0
 14 12  1  0  0  0  0
 15 10  2  0  0  0  0
 15 16  1  0  0  0  0
 16 11  1  0  0  0  0
 18 20  1  0  0  0  0
 18 17  1  1  0  0  0
 20 19  2  0  0  0  0
 21 20  1  0  0  0  0
 22 23  2  0  0  0  0
 23 21  2  0  0  0  0
 24 25  1  0  0  0  0
 25 26  1  0  0  0  0
 26 27  1  0  0  0  0
 27 29  1  0  0  0  0
 28 29  1  0  0  0  0
 29 30  2  0  0  0  0
M  END
>  <MODEL>
9

>  <REMARK>
 VINA RESULT:      -4.9      4.385      6.905
  Name = 
  7 active torsions:
  status: ('A' for Active; 'I' for Inactive)
    1  A    between atoms: N_5  and  C_12
    2  A    between atoms: N_7  and  N_16
    3  A    between atoms: C_8  and  C_12
    4  A    between atoms: C_8  and  N_13
    5  A    between atoms: N_13  and  C_27
    6  A    between atoms: N_16  and  C_30
    7  A    between atoms: C_27  and  C_30
                            x       y       z     vdW  Elec       q    Type
                         _______ _______ _______ _____ _____    ______ ____

>  <TORSDO>
F 7

$$$$
