=
 OpenBabel11062410253D

 43 48  0  0  1  0  0  0  0  0999 V2000
  161.1110  201.5780  146.7640 C   0  0  0  0  0  0  0  0  0  0  0  0
  161.8610  206.4670  147.8440 C   0  0  0  0  0  0  0  0  0  0  0  0
  161.2310  203.9940  146.5610 C   0  0  0  0  0  0  0  0  0  0  0  0
  161.1620  201.7070  148.2640 C   0  0  0  0  0  3  0  0  0  0  0  0
  161.0400  200.2530  146.2000 C   0  0  0  0  0  1  0  0  0  0  0  0
  160.8520  204.1770  148.1090 C   0  0  1  0  0  3  0  0  0  0  0  0
  161.1620  202.6240  145.9860 C   0  0  0  0  0  3  0  0  0  0  0  0
  161.0940  202.8920  148.8610 C   0  0  0  0  0  3  0  0  0  0  0  0
  161.5860  205.3260  148.7680 C   0  0  2  0  0  3  0  0  0  0  0  0
  161.8450  206.2400  146.4500 C   0  0  0  0  0  3  0  0  0  0  0  0
  161.5850  204.9830  145.8740 N   0  0  0  0  0  0  0  0  0  0  0  0
  160.7670  205.9490  150.0230 C   0  0  0  0  0  2  0  0  0  0  0  0
  161.4900  206.0270  151.4410 C   0  0  2  0  0  3  0  0  0  0  0  0
  161.8850  204.8670  152.2120 C   0  0  0  0  0  2  0  0  0  0  0  0
  160.7970  203.7370  152.1930 C   0  0  0  0  0  1  0  0  0  0  0  0
  161.7440  207.3410  151.9850 C   0  0  0  0  0  2  0  0  0  0  0  0
  160.1280  207.9910  155.2190 C   0  0  0  0  0  2  0  0  0  0  0  0
  160.8400  209.4330  153.1530 C   0  0  2  0  0  3  0  0  0  0  0  0
  161.3930  210.2570  156.5460 O   0  0  0  0  0  0  0  0  0  0  0  0
  161.1180  208.1720  154.0000 C   0  0  2  0  0  3  0  0  0  0  0  0
  161.1100  207.8760  156.3520 C   0  0  0  0  0  2  0  0  0  0  0  0
  160.5360  207.9460  152.7250 C   0  0  2  0  0  3  0  0  0  0  0  0
  161.3840  210.9860  155.2950 C   0  0  1  0  0  3  0  0  0  0  0  0
  161.8550  210.4430  153.9030 C   0  0  0  0  0  2  0  0  0  0  0  0
  162.0970  209.0940  156.4860 C   0  0  0  0  0  2  0  0  0  0  0  0
  158.9880  211.8900  154.8740 C   0  0  0  0  0  0  0  0  0  0  0  0
  160.4050  212.0580  155.3010 N   0  0  0  0  0  2  0  0  0  0  0  0
  155.8050  212.6820  156.3250 C   0  0  0  0  0  1  0  0  0  0  0  0
  157.1020  212.9590  154.1540 C   0  0  0  0  0  2  0  0  0  0  0  0
  156.6600  212.0210  155.2180 C   0  0  1  0  0  3  0  0  0  0  0  0
  158.5540  212.7900  154.0850 N   0  0  0  0  0  0  0  0  0  0  0  0
  157.9050  211.4270  155.8480 C   0  0  0  0  0  2  0  0  0  0  0  0
  162.4000  207.6850  148.3140 O   0  0  0  0  0  0  0  0  0  0  0  0
  161.6060  208.8570  148.5270 C   0  0  0  0  0  2  0  0  0  0  0  0
  162.4580  210.0870  148.9770 C   0  0  0  0  0  2  0  0  0  0  0  0
  160.7140  212.5920  146.9070 C   0  0  0  0  0  3  0  0  0  0  0  0
  161.7810  213.4760  146.6030 C   0  0  0  0  0  0  0  0  0  0  0  0
  163.1820  212.2760  148.1800 C   0  0  0  0  0  3  0  0  0  0  0  0
  160.8850  211.5590  147.7280 C   0  0  0  0  0  3  0  0  0  0  0  0
  162.1300  211.3400  148.3570 C   0  0  0  0  0  0  0  0  0  0  0  0
  162.9690  213.3240  147.3140 C   0  0  0  0  0  3  0  0  0  0  0  0
  160.7810  214.4300  144.6640 N   0  0  0  0  0  2  0  0  0  0  0  0
  161.7630  214.4530  145.5400 C   0  0  0  0  0  3  0  0  0  0  0  0
  1  4  1  0  0  0  0
  2 33  1  0  0  0  0
  2  9  1  0  0  0  0
  3  6  1  0  0  0  0
  4  8  2  0  0  0  0
  5  1  1  0  0  0  0
  6  9  1  0  0  0  0
  6  8  1  1  0  0  0
  7  3  1  0  0  0  0
  7  1  2  0  0  0  0
  9 12  1  1  0  0  0
 10  2  2  0  0  0  0
 11 10  1  0  0  0  0
 11  3  2  0  0  0  0
 13 12  1  1  0  0  0
 13 16  1  0  0  0  0
 13 14  1  0  0  0  0
 15 14  1  0  0  0  0
 17 21  1  0  0  0  0
 18 24  1  6  0  0  0
 18 20  1  0  0  0  0
 20 17  1  1  0  0  0
 21 25  1  0  0  0  0
 22 16  1  6  0  0  0
 22 18  1  0  0  0  0
 22 20  1  0  0  0  0
 23 27  1  6  0  0  0
 23 19  1  0  0  0  0
 24 23  1  0  0  0  0
 25 19  1  0  0  0  0
 26 27  1  0  0  0  0
 26 32  1  0  0  0  0
 29 30  1  0  0  0  0
 30 32  1  0  0  0  0
 30 28  1  1  0  0  0
 31 29  1  0  0  0  0
 31 26  2  0  0  0  0
 33 34  1  0  0  0  0
 34 35  1  0  0  0  0
 36 39  1  0  0  0  0
 37 36  2  0  0  0  0
 37 41  1  0  0  0  0
 38 40  1  0  0  0  0
 39 40  2  0  0  0  0
 40 35  1  0  0  0  0
 41 38  2  0  0  0  0
 42 43  2  0  0  0  0
 43 37  1  0  0  0  0
M  END
>  <MODEL>
1

>  <REMARK>
 VINA RESULT:      -9.1      0.000      0.000
  Name = 
  11 active torsions:
  status: ('A' for Active; 'I' for Inactive)
    1  A    between atoms: C_1  and  C_35
    2  A    between atoms: C_1  and  C_38
    3  A    between atoms: C_2  and  C_13
    4  A    between atoms: C_6  and  C_13
    5  A    between atoms: C_6  and  C_17
    6  A    between atoms: C_8  and  O_34
    7  A    between atoms: C_13  and  C_27
    8  A    between atoms: N_14  and  C_22
    9  A    between atoms: C_19  and  C_37
   10  A    between atoms: C_27  and  C_30
   11  A    between atoms: O_34  and  C_38
                            x       y       z     vdW  Elec       q    Type
                         _______ _______ _______ _____ _____    ______ ____

>  <TORSDO>
F 11

$$$$
=
 OpenBabel11062410253D

 43 48  0  0  1  0  0  0  0  0999 V2000
  161.0140  204.3000  152.4940 C   0  0  0  0  0  0  0  0  0  0  0  0
  161.0580  209.3610  152.6230 C   0  0  0  0  0  0  0  0  0  0  0  0
  161.1800  206.5870  153.2910 C   0  0  0  0  0  0  0  0  0  0  0  0
  161.1890  204.7870  151.0790 C   0  0  0  0  0  3  0  0  0  0  0  0
  160.8350  202.8860  152.7060 C   0  0  0  0  0  1  0  0  0  0  0  0
  161.7900  207.0680  151.8890 C   0  0  1  0  0  3  0  0  0  0  0  0
  160.9900  205.1270  153.5020 C   0  0  0  0  0  3  0  0  0  0  0  0
  161.4920  206.0530  150.8130 C   0  0  0  0  0  3  0  0  0  0  0  0
  161.3090  208.4430  151.4720 C   0  0  2  0  0  3  0  0  0  0  0  0
  160.8500  208.8120  153.9070 C   0  0  0  0  0  3  0  0  0  0  0  0
  160.8630  207.4290  154.1680 N   0  0  0  0  0  0  0  0  0  0  0  0
  162.3680  209.2060  150.5080 C   0  0  0  0  0  2  0  0  0  0  0  0
  162.1020  209.2090  148.9370 C   0  0  2  0  0  3  0  0  0  0  0  0
  161.5520  210.3370  148.2120 C   0  0  0  0  0  2  0  0  0  0  0  0
  162.4880  211.5950  148.2630 C   0  0  0  0  0  1  0  0  0  0  0  0
  162.4180  208.0040  148.2060 C   0  0  0  0  0  2  0  0  0  0  0  0
  160.0040  206.4420  145.9210 C   0  0  0  0  0  2  0  0  0  0  0  0
  161.7210  205.5910  147.7050 C   0  0  2  0  0  3  0  0  0  0  0  0
  161.2580  204.2500  144.4670 O   0  0  0  0  0  0  0  0  0  0  0  0
  161.3640  206.6950  146.6840 C   0  0  2  0  0  3  0  0  0  0  0  0
  160.4730  206.5230  144.4940 C   0  0  0  0  0  2  0  0  0  0  0  0
  161.2220  207.0460  148.0520 C   0  0  2  0  0  3  0  0  0  0  0  0
  161.8640  203.7880  145.6990 C   0  0  0  0  0  0  0  0  0  0  0  0
  162.6340  204.6700  146.7390 C   0  0  0  0  0  2  0  0  0  0  0  0
  161.6250  205.5160  144.1290 C   0  0  0  0  0  2  0  0  0  0  0  0
  161.4000  202.0500  147.5690 C   0  0  0  0  0  0  0  0  0  0  0  0
  161.2440  202.5660  146.1810 N   0  0  0  0  0  0  0  0  0  0  0  0
  159.1320  200.9550  150.1230 C   0  0  0  0  0  1  0  0  0  0  0  0
  161.2490  200.2140  148.9210 C   0  0  0  0  0  2  0  0  0  0  0  0
  160.5590  201.3150  149.6440 C   0  0  1  0  0  3  0  0  0  0  0  0
  161.6760  200.8100  147.6540 N   0  0  0  0  0  0  0  0  0  0  0  0
  160.4770  202.4990  148.7020 C   0  0  0  0  0  2  0  0  0  0  0  0
  160.7510  210.7260  152.4260 O   0  0  0  0  0  0  0  0  0  0  0  0
  159.4780  211.2920  152.7540 C   0  0  0  0  0  2  0  0  0  0  0  0
  159.4480  212.8450  152.5830 C   0  0  0  0  0  2  0  0  0  0  0  0
  157.2000  213.5950  149.7560 C   0  0  0  0  0  3  0  0  0  0  0  0
  158.1220  213.6010  148.6780 C   0  0  0  0  0  0  0  0  0  0  0  0
  159.9430  213.4600  150.2750 C   0  0  0  0  0  3  0  0  0  0  0  0
  157.6090  213.4430  151.0140 C   0  0  0  0  0  3  0  0  0  0  0  0
  158.9850  213.3290  151.3130 C   0  0  0  0  0  0  0  0  0  0  0  0
  159.4800  213.6040  148.9880 C   0  0  0  0  0  3  0  0  0  0  0  0
  157.2700  212.3630  146.8310 N   0  0  0  0  0  2  0  0  0  0  0  0
  157.7590  213.4980  147.2840 C   0  0  0  0  0  3  0  0  0  0  0  0
  1  5  1  0  0  0  0
  1  7  2  0  0  0  0
  2 10  2  0  0  0  0
  3  7  1  0  0  0  0
  3 11  2  0  0  0  0
  4  1  1  0  0  0  0
  6  8  1  6  0  0  0
  6  3  1  0  0  0  0
  8  4  2  0  0  0  0
  9 12  1  6  0  0  0
  9  6  1  0  0  0  0
  9  2  1  0  0  0  0
 10 11  1  0  0  0  0
 13 16  1  1  0  0  0
 13 12  1  0  0  0  0
 14 15  1  0  0  0  0
 14 13  1  0  0  0  0
 18 24  1  1  0  0  0
 18 22  1  0  0  0  0
 19 23  1  0  0  0  0
 20 17  1  6  0  0  0
 20 18  1  0  0  0  0
 20 22  1  0  0  0  0
 21 17  1  0  0  0  0
 22 16  1  1  0  0  0
 23 27  2  0  0  0  0
 23 24  1  0  0  0  0
 25 19  1  0  0  0  0
 25 21  1  0  0  0  0
 26 31  2  0  0  0  0
 26 32  1  0  0  0  0
 27 26  1  0  0  0  0
 29 30  1  0  0  0  0
 30 28  1  6  0  0  0
 31 29  1  0  0  0  0
 32 30  1  0  0  0  0
 33  2  1  0  0  0  0
 33 34  1  0  0  0  0
 35 34  1  0  0  0  0
 36 39  1  0  0  0  0
 37 41  1  0  0  0  0
 37 36  2  0  0  0  0
 38 40  1  0  0  0  0
 39 40  2  0  0  0  0
 40 35  1  0  0  0  0
 41 38  2  0  0  0  0
 42 43  2  0  0  0  0
 43 37  1  0  0  0  0
M  END
>  <MODEL>
2

>  <REMARK>
 VINA RESULT:      -7.5      2.576      8.373
  Name = 
  11 active torsions:
  status: ('A' for Active; 'I' for Inactive)
    1  A    between atoms: C_1  and  C_35
    2  A    between atoms: C_1  and  C_38
    3  A    between atoms: C_2  and  C_13
    4  A    between atoms: C_6  and  C_13
    5  A    between atoms: C_6  and  C_17
    6  A    between atoms: C_8  and  O_34
    7  A    between atoms: C_13  and  C_27
    8  A    between atoms: N_14  and  C_22
    9  A    between atoms: C_19  and  C_37
   10  A    between atoms: C_27  and  C_30
   11  A    between atoms: O_34  and  C_38
                            x       y       z     vdW  Elec       q    Type
                         _______ _______ _______ _____ _____    ______ ____

>  <TORSDO>
F 11

$$$$
=
 OpenBabel11062410253D

 43 48  0  0  1  0  0  0  0  0999 V2000
  161.5560  211.1900  150.1960 C   0  0  0  0  0  0  0  0  0  0  0  0
  161.6590  206.5220  152.1540 C   0  0  0  0  0  0  0  0  0  0  0  0
  162.1620  208.8780  150.6190 C   0  0  0  0  0  0  0  0  0  0  0  0
  160.8490  211.2420  151.5250 C   0  0  0  0  0  3  0  0  0  0  0  0
  161.5430  212.3750  149.3750 C   0  0  0  0  0  1  0  0  0  0  0  0
  161.8110  209.0350  152.1750 C   0  0  1  0  0  3  0  0  0  0  0  0
  162.1390  210.1020  149.7740 C   0  0  0  0  0  3  0  0  0  0  0  0
  160.9300  210.2400  152.3940 C   0  0  0  0  0  3  0  0  0  0  0  0
  161.1730  207.7950  152.7680 C   0  0  2  0  0  3  0  0  0  0  0  0
  162.2620  206.5630  150.8780 C   0  0  0  0  0  3  0  0  0  0  0  0
  162.4320  207.7490  150.1400 N   0  0  0  0  0  0  0  0  0  0  0  0
  161.4430  207.6590  154.3620 C   0  0  0  0  0  2  0  0  0  0  0  0
  161.2810  208.9550  155.2760 C   0  0  2  0  0  3  0  0  0  0  0  0
  162.3670  209.8560  155.6010 C   0  0  0  0  0  2  0  0  0  0  0  0
  161.9890  210.8570  156.7490 C   0  0  0  0  0  1  0  0  0  0  0  0
  159.9700  209.2250  155.8190 C   0  0  0  0  0  2  0  0  0  0  0  0
  156.7150  210.8220  155.2310 C   0  0  0  0  0  2  0  0  0  0  0  0
  159.2010  211.3370  154.5920 C   0  0  2  0  0  3  0  0  0  0  0  0
  156.8570  213.6670  155.8460 O   0  0  0  0  0  0  0  0  0  0  0  0
  158.2420  210.6790  155.6090 C   0  0  2  0  0  3  0  0  0  0  0  0
  156.1810  211.4500  156.4890 C   0  0  0  0  0  2  0  0  0  0  0  0
  158.9780  209.7880  154.7840 C   0  0  2  0  0  3  0  0  0  0  0  0
  158.1180  213.7500  155.1390 C   0  0  1  0  0  3  0  0  0  0  0  0
  159.3380  212.7820  155.3050 C   0  0  0  0  0  2  0  0  0  0  0  0
  156.8840  212.7990  156.8930 C   0  0  0  0  0  2  0  0  0  0  0  0
  158.1670  213.8070  152.5450 C   0  0  0  0  0  0  0  0  0  0  0  0
  157.9840  214.4520  153.8750 N   0  0  0  0  0  2  0  0  0  0  0  0
  156.2370  213.6620  149.5240 C   0  0  0  0  0  1  0  0  0  0  0  0
  158.6010  214.1560  150.3290 C   0  0  0  0  0  2  0  0  0  0  0  0
  157.4490  213.2180  150.3790 C   0  0  1  0  0  3  0  0  0  0  0  0
  158.9020  214.4530  151.7310 N   0  0  0  0  0  0  0  0  0  0  0  0
  157.0150  213.1050  151.8270 C   0  0  0  0  0  2  0  0  0  0  0  0
  161.2920  205.2630  152.6780 O   0  0  0  0  0  0  0  0  0  0  0  0
  160.3580  204.3930  152.0290 C   0  0  0  0  0  2  0  0  0  0  0  0
  160.9450  202.9690  151.7670 C   0  0  0  0  0  2  0  0  0  0  0  0
  161.3100  203.3240  148.1140 C   0  0  0  0  0  3  0  0  0  0  0  0
  161.0270  202.0000  147.6890 C   0  0  0  0  0  0  0  0  0  0  0  0
  161.0520  201.2840  150.0060 C   0  0  0  0  0  3  0  0  0  0  0  0
  161.3750  203.6350  149.4060 C   0  0  0  0  0  3  0  0  0  0  0  0
  161.2070  202.6400  150.3940 C   0  0  0  0  0  0  0  0  0  0  0  0
  160.9790  201.0050  148.6620 C   0  0  0  0  0  3  0  0  0  0  0  0
  160.7790  202.5240  145.3790 N   0  0  0  0  0  2  0  0  0  0  0  0
  160.6830  201.6260  146.3370 C   0  0  0  0  0  3  0  0  0  0  0  0
  1  4  1  0  0  0  0
  2 33  1  0  0  0  0
  2  9  1  0  0  0  0
  3  6  1  0  0  0  0
  4  8  2  0  0  0  0
  5  1  1  0  0  0  0
  6  8  1  6  0  0  0
  6  9  1  0  0  0  0
  7  1  2  0  0  0  0
  7  3  1  0  0  0  0
  9 12  1  1  0  0  0
 10  2  2  0  0  0  0
 11  3  2  0  0  0  0
 11 10  1  0  0  0  0
 13 12  1  1  0  0  0
 13 14  1  0  0  0  0
 13 16  1  0  0  0  0
 14 15  1  0  0  0  0
 17 21  1  0  0  0  0
 18 22  1  0  0  0  0
 18 24  1  1  0  0  0
 18 20  1  0  0  0  0
 19 25  1  0  0  0  0
 20 17  1  6  0  0  0
 21 25  1  0  0  0  0
 22 20  1  0  0  0  0
 22 16  1  1  0  0  0
 23 27  1  6  0  0  0
 23 24  1  0  0  0  0
 23 19  1  0  0  0  0
 26 27  1  0  0  0  0
 29 30  1  0  0  0  0
 29 31  1  0  0  0  0
 30 28  1  6  0  0  0
 30 32  1  0  0  0  0
 31 26  2  0  0  0  0
 32 26  1  0  0  0  0
 34 33  1  0  0  0  0
 35 34  1  0  0  0  0
 36 39  1  0  0  0  0
 37 36  2  0  0  0  0
 37 41  1  0  0  0  0
 38 40  1  0  0  0  0
 39 40  2  0  0  0  0
 40 35  1  0  0  0  0
 41 38  2  0  0  0  0
 42 43  2  0  0  0  0
 43 37  1  0  0  0  0
M  END
>  <MODEL>
3

>  <REMARK>
 VINA RESULT:      -7.0      2.429      7.268
  Name = 
  11 active torsions:
  status: ('A' for Active; 'I' for Inactive)
    1  A    between atoms: C_1  and  C_35
    2  A    between atoms: C_1  and  C_38
    3  A    between atoms: C_2  and  C_13
    4  A    between atoms: C_6  and  C_13
    5  A    between atoms: C_6  and  C_17
    6  A    between atoms: C_8  and  O_34
    7  A    between atoms: C_13  and  C_27
    8  A    between atoms: N_14  and  C_22
    9  A    between atoms: C_19  and  C_37
   10  A    between atoms: C_27  and  C_30
   11  A    between atoms: O_34  and  C_38
                            x       y       z     vdW  Elec       q    Type
                         _______ _______ _______ _____ _____    ______ ____

>  <TORSDO>
F 11

$$$$
=
 OpenBabel11062410253D

 43 48  0  0  1  0  0  0  0  0999 V2000
  158.8010  212.5350  156.0060 C   0  0  0  0  0  0  0  0  0  0  0  0
  161.2240  210.0950  152.2890 C   0  0  0  0  0  0  0  0  0  0  0  0
  159.7400  210.7640  154.6360 C   0  0  0  0  0  0  0  0  0  0  0  0
  158.9410  213.4930  154.8520 C   0  0  0  0  0  3  0  0  0  0  0  0
  158.2600  213.0390  157.2430 C   0  0  0  0  0  1  0  0  0  0  0  0
  159.4960  211.6200  153.3020 C   0  0  1  0  0  3  0  0  0  0  0  0
  159.1850  211.2920  155.9120 C   0  0  0  0  0  3  0  0  0  0  0  0
  159.3040  213.0760  153.6440 C   0  0  0  0  0  3  0  0  0  0  0  0
  160.6020  211.4540  152.2800 C   0  0  2  0  0  3  0  0  0  0  0  0
  161.0870  209.2860  153.4370 C   0  0  0  0  0  3  0  0  0  0  0  0
  160.3920  209.6910  154.5920 N   0  0  0  0  0  0  0  0  0  0  0  0
  160.0880  211.7050  150.7620 C   0  0  0  0  0  2  0  0  0  0  0  0
  160.5990  213.0020  149.9890 C   0  0  2  0  0  3  0  0  0  0  0  0
  159.9070  214.2740  149.9990 C   0  0  0  0  0  2  0  0  0  0  0  0
  158.3730  214.1190  150.2890 C   0  0  0  0  0  1  0  0  0  0  0  0
  161.8180  212.8820  149.2230 C   0  0  0  0  0  2  0  0  0  0  0  0
  159.6090  212.0670  146.4040 C   0  0  0  0  0  2  0  0  0  0  0  0
  162.0360  213.0090  146.6740 C   0  0  2  0  0  3  0  0  0  0  0  0
  159.5560  214.2640  144.4900 O   0  0  0  0  0  0  0  0  0  0  0  0
  160.6260  212.8860  147.2930 C   0  0  2  0  0  3  0  0  0  0  0  0
  158.4900  213.0640  146.2820 C   0  0  0  0  0  2  0  0  0  0  0  0
  161.6430  212.1050  147.9040 C   0  0  2  0  0  3  0  0  0  0  0  0
  160.9960  214.3780  144.5910 C   0  0  1  0  0  3  0  0  0  0  0  0
  161.8320  214.4220  145.9150 C   0  0  0  0  0  2  0  0  0  0  0  0
  158.9180  214.4530  145.6770 C   0  0  0  0  0  2  0  0  0  0  0  0
  161.0710  212.8960  142.4620 C   0  0  0  0  0  0  0  0  0  0  0  0
  161.6610  213.8970  143.3930 N   0  0  0  0  0  2  0  0  0  0  0  0
  160.5520  212.7480  138.9150 C   0  0  0  0  0  1  0  0  0  0  0  0
  161.5070  211.3630  140.8250 C   0  0  0  0  0  2  0  0  0  0  0  0
  160.3570  212.1680  140.3370 C   0  0  1  0  0  3  0  0  0  0  0  0
  161.8540  211.9530  142.1190 N   0  0  0  0  0  0  0  0  0  0  0  0
  160.1550  213.3120  141.3100 C   0  0  0  0  0  2  0  0  0  0  0  0
  162.1640  209.7070  151.3090 O   0  0  0  0  0  0  0  0  0  0  0  0
  162.4200  208.3400  150.9740 C   0  0  0  0  0  2  0  0  0  0  0  0
  161.2090  207.6600  150.2580 C   0  0  0  0  0  2  0  0  0  0  0  0
  160.9870  204.3290  148.6900 C   0  0  0  0  0  3  0  0  0  0  0  0
  160.7990  203.5090  149.8330 C   0  0  0  0  0  0  0  0  0  0  0  0
  161.2490  205.4290  151.2450 C   0  0  0  0  0  3  0  0  0  0  0  0
  161.2060  205.6360  148.8060 C   0  0  0  0  0  3  0  0  0  0  0  0
  161.3020  206.2380  150.0800 C   0  0  0  0  0  0  0  0  0  0  0  0
  161.0100  204.0850  151.0830 C   0  0  0  0  0  3  0  0  0  0  0  0
  160.6190  201.3800  148.7810 N   0  0  0  0  0  2  0  0  0  0  0  0
  160.3050  202.1520  149.8000 C   0  0  0  0  0  3  0  0  0  0  0  0
  1  5  1  0  0  0  0
  2 10  2  0  0  0  0
  3  7  1  0  0  0  0
  4  1  1  0  0  0  0
  6  8  1  1  0  0  0
  6  3  1  0  0  0  0
  7  1  2  0  0  0  0
  8  4  2  0  0  0  0
  9 12  1  6  0  0  0
  9  2  1  0  0  0  0
  9  6  1  0  0  0  0
 10 11  1  0  0  0  0
 11  3  2  0  0  0  0
 13 16  1  6  0  0  0
 13 14  1  0  0  0  0
 13 12  1  0  0  0  0
 14 15  1  0  0  0  0
 18 24  1  1  0  0  0
 18 20  1  0  0  0  0
 18 22  1  0  0  0  0
 19 23  1  0  0  0  0
 19 25  1  0  0  0  0
 20 17  1  6  0  0  0
 20 22  1  0  0  0  0
 21 17  1  0  0  0  0
 22 16  1  1  0  0  0
 23 27  1  6  0  0  0
 23 24  1  0  0  0  0
 25 21  1  0  0  0  0
 26 27  1  0  0  0  0
 29 31  1  0  0  0  0
 30 28  1  6  0  0  0
 30 29  1  0  0  0  0
 30 32  1  0  0  0  0
 31 26  2  0  0  0  0
 32 26  1  0  0  0  0
 33  2  1  0  0  0  0
 34 33  1  0  0  0  0
 35 34  1  0  0  0  0
 36 39  2  0  0  0  0
 36 37  1  0  0  0  0
 37 41  2  0  0  0  0
 39 40  1  0  0  0  0
 40 35  1  0  0  0  0
 40 38  2  0  0  0  0
 41 38  1  0  0  0  0
 42 43  2  0  0  0  0
 43 37  1  0  0  0  0
M  END
>  <MODEL>
4

>  <REMARK>
 VINA RESULT:      -6.7      2.968     10.718
  Name = 
  11 active torsions:
  status: ('A' for Active; 'I' for Inactive)
    1  A    between atoms: C_1  and  C_35
    2  A    between atoms: C_1  and  C_38
    3  A    between atoms: C_2  and  C_13
    4  A    between atoms: C_6  and  C_13
    5  A    between atoms: C_6  and  C_17
    6  A    between atoms: C_8  and  O_34
    7  A    between atoms: C_13  and  C_27
    8  A    between atoms: N_14  and  C_22
    9  A    between atoms: C_19  and  C_37
   10  A    between atoms: C_27  and  C_30
   11  A    between atoms: O_34  and  C_38
                            x       y       z     vdW  Elec       q    Type
                         _______ _______ _______ _____ _____    ______ ____

>  <TORSDO>
F 11

$$$$
=
 OpenBabel11062410253D

 43 48  0  0  1  0  0  0  0  0999 V2000
  161.1220  203.9240  152.2670 C   0  0  0  0  0  0  0  0  0  0  0  0
  160.9740  208.9650  152.7220 C   0  0  0  0  0  0  0  0  0  0  0  0
  161.2020  206.1600  153.2100 C   0  0  0  0  0  0  0  0  0  0  0  0
  161.2780  204.5080  150.8860 C   0  0  0  0  0  3  0  0  0  0  0  0
  160.9980  202.4940  152.3870 C   0  0  0  0  0  1  0  0  0  0  0  0
  161.7930  206.7530  151.8430 C   0  0  1  0  0  3  0  0  0  0  0  0
  161.0680  204.6830  153.3260 C   0  0  0  0  0  3  0  0  0  0  0  0
  161.5330  205.7990  150.7040 C   0  0  0  0  0  3  0  0  0  0  0  0
  161.2590  208.1330  151.5150 C   0  0  2  0  0  3  0  0  0  0  0  0
  160.7880  208.3260  153.9670 C   0  0  0  0  0  3  0  0  0  0  0  0
  160.8540  206.9310  154.1390 N   0  0  0  0  0  0  0  0  0  0  0  0
  162.2880  208.9960  150.6040 C   0  0  0  0  0  2  0  0  0  0  0  0
  162.0370  209.0690  149.0320 C   0  0  2  0  0  3  0  0  0  0  0  0
  161.4880  210.2260  148.3540 C   0  0  0  0  0  2  0  0  0  0  0  0
  162.4540  211.4610  148.4000 C   0  0  0  0  0  1  0  0  0  0  0  0
  162.3640  207.9000  148.2510 C   0  0  0  0  0  2  0  0  0  0  0  0
  159.9850  206.3320  145.9340 C   0  0  0  0  0  2  0  0  0  0  0  0
  161.7100  205.4830  147.7100 C   0  0  2  0  0  3  0  0  0  0  0  0
  161.2800  204.1840  144.4510 O   0  0  0  0  0  0  0  0  0  0  0  0
  161.3380  206.5960  146.7050 C   0  0  2  0  0  3  0  0  0  0  0  0
  160.4570  206.4430  144.5100 C   0  0  0  0  0  2  0  0  0  0  0  0
  161.1850  206.9240  148.0780 C   0  0  2  0  0  3  0  0  0  0  0  0
  161.8900  203.7140  145.6770 C   0  0  1  0  0  3  0  0  0  0  0  0
  162.6420  204.5930  146.7340 C   0  0  0  0  0  2  0  0  0  0  0  0
  161.6270  205.4610  144.1330 C   0  0  0  0  0  2  0  0  0  0  0  0
  161.2330  202.0640  147.5690 C   0  0  0  0  0  0  0  0  0  0  0  0
  161.2900  202.4750  146.1390 N   0  0  0  0  0  2  0  0  0  0  0  0
  158.6330  200.9330  149.7680 C   0  0  0  0  0  1  0  0  0  0  0  0
  160.9830  200.3120  149.0150 C   0  0  0  0  0  2  0  0  0  0  0  0
  160.0910  201.3890  149.5180 C   0  0  1  0  0  3  0  0  0  0  0  0
  161.5840  200.8620  147.7980 N   0  0  0  0  0  0  0  0  0  0  0  0
  160.0890  202.4990  148.4860 C   0  0  0  0  0  2  0  0  0  0  0  0
  160.6150  210.3270  152.6130 O   0  0  0  0  0  0  0  0  0  0  0  0
  160.8280  211.2750  153.6630 C   0  0  0  0  0  2  0  0  0  0  0  0
  159.7720  211.1530  154.8070 C   0  0  0  0  0  2  0  0  0  0  0  0
  156.2560  212.2660  154.7550 C   0  0  0  0  0  3  0  0  0  0  0  0
  156.3400  213.3690  153.8660 C   0  0  0  0  0  0  0  0  0  0  0  0
  158.7580  213.1840  153.9130 C   0  0  0  0  0  3  0  0  0  0  0  0
  157.3450  211.6020  155.1360 C   0  0  0  0  0  3  0  0  0  0  0  0
  158.6240  212.0080  154.6970 C   0  0  0  0  0  0  0  0  0  0  0  0
  157.6090  213.8350  153.5310 C   0  0  0  0  0  3  0  0  0  0  0  0
  155.3480  214.3980  151.9610 N   0  0  0  0  0  2  0  0  0  0  0  0
  155.2110  213.9770  153.2010 C   0  0  0  0  0  3  0  0  0  0  0  0
  1  5  1  0  0  0  0
  1  7  2  0  0  0  0
  2 10  2  0  0  0  0
  3  7  1  0  0  0  0
  3 11  2  0  0  0  0
  4  1  1  0  0  0  0
  6  8  1  6  0  0  0
  6  3  1  0  0  0  0
  8  4  2  0  0  0  0
  9 12  1  6  0  0  0
  9  6  1  0  0  0  0
  9  2  1  0  0  0  0
 10 11  1  0  0  0  0
 13 16  1  1  0  0  0
 13 12  1  0  0  0  0
 14 15  1  0  0  0  0
 14 13  1  0  0  0  0
 18 24  1  1  0  0  0
 18 22  1  0  0  0  0
 19 23  1  0  0  0  0
 20 17  1  6  0  0  0
 20 18  1  0  0  0  0
 20 22  1  0  0  0  0
 21 17  1  0  0  0  0
 22 16  1  1  0  0  0
 23 27  1  1  0  0  0
 23 24  1  0  0  0  0
 25 19  1  0  0  0  0
 25 21  1  0  0  0  0
 26 31  2  0  0  0  0
 26 32  1  0  0  0  0
 27 26  1  0  0  0  0
 29 30  1  0  0  0  0
 30 28  1  6  0  0  0
 31 29  1  0  0  0  0
 32 30  1  0  0  0  0
 33  2  1  0  0  0  0
 33 34  1  0  0  0  0
 34 35  1  0  0  0  0
 36 39  1  0  0  0  0
 37 36  2  0  0  0  0
 38 40  1  0  0  0  0
 40 35  1  0  0  0  0
 40 39  2  0  0  0  0
 41 37  1  0  0  0  0
 41 38  2  0  0  0  0
 42 43  2  0  0  0  0
 43 37  1  0  0  0  0
M  END
>  <MODEL>
5

>  <REMARK>
 VINA RESULT:      -6.6      2.503      8.916
  Name = 
  11 active torsions:
  status: ('A' for Active; 'I' for Inactive)
    1  A    between atoms: C_1  and  C_35
    2  A    between atoms: C_1  and  C_38
    3  A    between atoms: C_2  and  C_13
    4  A    between atoms: C_6  and  C_13
    5  A    between atoms: C_6  and  C_17
    6  A    between atoms: C_8  and  O_34
    7  A    between atoms: C_13  and  C_27
    8  A    between atoms: N_14  and  C_22
    9  A    between atoms: C_19  and  C_37
   10  A    between atoms: C_27  and  C_30
   11  A    between atoms: O_34  and  C_38
                            x       y       z     vdW  Elec       q    Type
                         _______ _______ _______ _____ _____    ______ ____

>  <TORSDO>
F 11

$$$$
=
 OpenBabel11062410253D

 43 48  0  0  1  0  0  0  0  0999 V2000
  161.5200  210.3560  155.3810 C   0  0  0  0  0  0  0  0  0  0  0  0
  161.4290  206.3660  152.2650 C   0  0  0  0  0  0  0  0  0  0  0  0
  161.0900  208.1460  154.4740 C   0  0  0  0  0  0  0  0  0  0  0  0
  161.8350  210.8570  153.9960 C   0  0  0  0  0  3  0  0  0  0  0  0
  161.6170  211.2880  156.4760 C   0  0  0  0  0  1  0  0  0  0  0  0
  160.9920  208.7370  152.9870 C   0  0  1  0  0  3  0  0  0  0  0  0
  161.1980  209.1110  155.6000 C   0  0  0  0  0  3  0  0  0  0  0  0
  161.6400  210.0980  152.9220 C   0  0  0  0  0  3  0  0  0  0  0  0
  161.5860  207.8150  151.9410 C   0  0  2  0  0  3  0  0  0  0  0  0
  161.1890  205.9850  153.6030 C   0  0  0  0  0  3  0  0  0  0  0  0
  161.0890  206.9040  154.6640 N   0  0  0  0  0  0  0  0  0  0  0  0
  160.9170  208.0250  150.4770 C   0  0  0  0  0  2  0  0  0  0  0  0
  161.8590  207.9680  149.1930 C   0  0  2  0  0  3  0  0  0  0  0  0
  162.5040  206.7610  148.7160 C   0  0  0  0  0  2  0  0  0  0  0  0
  162.0400  206.3670  147.2700 C   0  0  0  0  0  1  0  0  0  0  0  0
  162.0900  209.2040  148.4820 C   0  0  0  0  0  2  0  0  0  0  0  0
  163.0520  212.7380  148.7520 C   0  0  0  0  0  2  0  0  0  0  0  0
  160.9810  211.2990  149.4510 C   0  0  2  0  0  3  0  0  0  0  0  0
  160.8720  214.4520  147.8590 O   0  0  0  0  0  0  0  0  0  0  0  0
  162.1550  211.4700  148.4620 C   0  0  2  0  0  3  0  0  0  0  0  0
  162.9990  213.4210  147.4130 C   0  0  0  0  0  2  0  0  0  0  0  0
  162.2890  210.4190  149.4070 C   0  0  2  0  0  3  0  0  0  0  0  0
  159.9360  213.6430  148.6120 C   0  0  0  0  0  0  0  0  0  0  0  0
  159.8480  212.0800  148.6030 C   0  0  0  0  0  2  0  0  0  0  0  0
  161.5450  213.7500  146.9070 C   0  0  0  0  0  2  0  0  0  0  0  0
  158.7130  213.6700  150.9010 C   0  0  0  0  0  0  0  0  0  0  0  0
  159.4480  214.3370  149.7900 N   0  0  0  0  0  0  0  0  0  0  0  0
  159.0680  213.5860  154.4690 C   0  0  0  0  0  1  0  0  0  0  0  0
  157.3060  213.9730  152.6750 C   0  0  0  0  0  2  0  0  0  0  0  0
  158.3990  213.0920  153.1640 C   0  0  1  0  0  3  0  0  0  0  0  0
  157.6590  214.2710  151.2850 N   0  0  0  0  0  0  0  0  0  0  0  0
  159.4470  213.0170  152.0720 C   0  0  0  0  0  2  0  0  0  0  0  0
  161.7840  205.3590  151.3400 O   0  0  0  0  0  0  0  0  0  0  0  0
  160.8210  204.5110  150.7050 C   0  0  0  0  0  2  0  0  0  0  0  0
  161.3190  203.0370  150.5630 C   0  0  0  0  0  2  0  0  0  0  0  0
  160.9630  202.8260  146.8980 C   0  0  0  0  0  3  0  0  0  0  0  0
  160.6820  201.4440  146.7380 C   0  0  0  0  0  0  0  0  0  0  0  0
  161.1870  201.1010  149.0850 C   0  0  0  0  0  3  0  0  0  0  0  0
  161.2550  203.3370  148.0920 C   0  0  0  0  0  3  0  0  0  0  0  0
  161.3340  202.5050  149.2290 C   0  0  0  0  0  0  0  0  0  0  0  0
  160.8750  200.6130  147.8380 C   0  0  0  0  0  3  0  0  0  0  0  0
  159.8390  201.6240  144.5180 N   0  0  0  0  0  2  0  0  0  0  0  0
  160.1100  200.8540  145.5500 C   0  0  0  0  0  3  0  0  0  0  0  0
  1  7  2  0  0  0  0
  1  5  1  0  0  0  0
  2 10  2  0  0  0  0
  3 11  2  0  0  0  0
  3  7  1  0  0  0  0
  4  1  1  0  0  0  0
  6  8  1  1  0  0  0
  6  3  1  0  0  0  0
  8  4  2  0  0  0  0
  9 12  1  6  0  0  0
  9  2  1  0  0  0  0
  9  6  1  0  0  0  0
 10 11  1  0  0  0  0
 13 16  1  1  0  0  0
 13 12  1  0  0  0  0
 14 13  1  0  0  0  0
 15 14  1  0  0  0  0
 18 24  1  6  0  0  0
 19 23  1  0  0  0  0
 20 17  1  1  0  0  0
 20 22  1  0  0  0  0
 20 18  1  0  0  0  0
 21 17  1  0  0  0  0
 22 16  1  6  0  0  0
 22 18  1  0  0  0  0
 23 27  2  0  0  0  0
 24 23  1  0  0  0  0
 25 21  1  0  0  0  0
 25 19  1  0  0  0  0
 26 31  2  0  0  0  0
 26 32  1  0  0  0  0
 27 26  1  0  0  0  0
 29 30  1  0  0  0  0
 30 28  1  1  0  0  0
 31 29  1  0  0  0  0
 32 30  1  0  0  0  0
 33  2  1  0  0  0  0
 34 33  1  0  0  0  0
 35 34  1  0  0  0  0
 36 39  1  0  0  0  0
 37 36  2  0  0  0  0
 37 41  1  0  0  0  0
 38 40  1  0  0  0  0
 39 40  2  0  0  0  0
 40 35  1  0  0  0  0
 41 38  2  0  0  0  0
 42 43  2  0  0  0  0
 43 37  1  0  0  0  0
M  END
>  <MODEL>
6

>  <REMARK>
 VINA RESULT:      -6.5      2.265      8.178
  Name = 
  11 active torsions:
  status: ('A' for Active; 'I' for Inactive)
    1  A    between atoms: C_1  and  C_35
    2  A    between atoms: C_1  and  C_38
    3  A    between atoms: C_2  and  C_13
    4  A    between atoms: C_6  and  C_13
    5  A    between atoms: C_6  and  C_17
    6  A    between atoms: C_8  and  O_34
    7  A    between atoms: C_13  and  C_27
    8  A    between atoms: N_14  and  C_22
    9  A    between atoms: C_19  and  C_37
   10  A    between atoms: C_27  and  C_30
   11  A    between atoms: O_34  and  C_38
                            x       y       z     vdW  Elec       q    Type
                         _______ _______ _______ _____ _____    ______ ____

>  <TORSDO>
F 11

$$$$
=
 OpenBabel11062410253D

 43 48  0  0  1  0  0  0  0  0999 V2000
  161.2170  205.4640  144.5970 C   0  0  0  0  0  0  0  0  0  0  0  0
  161.3640  204.5230  149.5700 C   0  0  0  0  0  0  0  0  0  0  0  0
  161.9840  204.7670  146.7920 C   0  0  0  0  0  0  0  0  0  0  0  0
  160.1220  206.2730  145.2430 C   0  0  0  0  0  3  0  0  0  0  0  0
  161.2950  205.4570  143.1580 C   0  0  0  0  0  1  0  0  0  0  0  0
  161.1350  205.9310  147.4960 C   0  0  1  0  0  3  0  0  0  0  0  0
  162.0550  204.7600  145.3060 C   0  0  0  0  0  3  0  0  0  0  0  0
  160.0660  206.4370  146.5600 C   0  0  0  0  0  3  0  0  0  0  0  0
  160.5280  205.5070  148.8180 C   0  0  2  0  0  3  0  0  0  0  0  0
  162.3300  203.7680  148.8700 C   0  0  0  0  0  3  0  0  0  0  0  0
  162.5540  203.8890  147.4860 N   0  0  0  0  0  0  0  0  0  0  0  0
  160.2910  206.7590  149.8230 C   0  0  0  0  0  2  0  0  0  0  0  0
  161.5630  207.4710  150.4660 C   0  0  2  0  0  3  0  0  0  0  0  0
  162.5740  208.1690  149.6980 C   0  0  0  0  0  2  0  0  0  0  0  0
  161.9560  209.2340  148.7250 C   0  0  0  0  0  1  0  0  0  0  0  0
  161.7140  207.3940  151.9010 C   0  0  0  0  0  2  0  0  0  0  0  0
  160.0890  207.8070  155.1680 C   0  0  0  0  0  2  0  0  0  0  0  0
  160.7970  209.3940  153.2110 C   0  0  2  0  0  3  0  0  0  0  0  0
  161.3400  209.9790  156.6540 O   0  0  0  0  0  0  0  0  0  0  0  0
  161.0800  208.0780  153.9680 C   0  0  2  0  0  3  0  0  0  0  0  0
  161.0690  207.6160  156.2920 C   0  0  0  0  0  2  0  0  0  0  0  0
  160.5020  207.9400  152.6780 C   0  0  2  0  0  3  0  0  0  0  0  0
  161.3300  210.7950  155.4580 C   0  0  1  0  0  3  0  0  0  0  0  0
  161.8070  210.3540  154.0330 C   0  0  0  0  0  2  0  0  0  0  0  0
  162.0500  208.8270  156.5140 C   0  0  0  0  0  2  0  0  0  0  0  0
  159.0020  211.7960  154.9010 C   0  0  0  0  0  0  0  0  0  0  0  0
  160.3460  211.8600  155.5380 N   0  0  0  0  0  2  0  0  0  0  0  0
  155.6430  212.3400  156.0370 C   0  0  0  0  0  1  0  0  0  0  0  0
  157.2160  213.0080  154.1520 C   0  0  0  0  0  2  0  0  0  0  0  0
  156.6470  211.8900  154.9490 C   0  0  1  0  0  3  0  0  0  0  0  0
  158.6670  212.8350  154.2470 N   0  0  0  0  0  0  0  0  0  0  0  0
  157.8030  211.1700  155.6140 C   0  0  0  0  0  2  0  0  0  0  0  0
  161.0360  204.1280  150.8860 O   0  0  0  0  0  0  0  0  0  0  0  0
  161.4980  202.9060  151.4700 C   0  0  0  0  0  2  0  0  0  0  0  0
  160.5510  201.7010  151.1710 C   0  0  0  0  0  2  0  0  0  0  0  0
  161.5810  200.4660  147.8520 C   0  0  0  0  0  3  0  0  0  0  0  0
  160.6150  201.0930  147.0230 C   0  0  0  0  0  0  0  0  0  0  0  0
  159.4240  201.8130  149.0110 C   0  0  0  0  0  3  0  0  0  0  0  0
  161.5290  200.5740  149.1770 C   0  0  0  0  0  3  0  0  0  0  0  0
  160.4780  201.2830  149.7990 C   0  0  0  0  0  0  0  0  0  0  0  0
  159.5210  201.6910  147.6440 C   0  0  0  0  0  3  0  0  0  0  0  0
  159.7070  201.7050  144.9090 N   0  0  0  0  0  2  0  0  0  0  0  0
  160.7350  201.2490  145.5930 C   0  0  0  0  0  3  0  0  0  0  0  0
  1  4  1  0  0  0  0
  1  7  2  0  0  0  0
  2 33  1  0  0  0  0
  3 11  2  0  0  0  0
  3  6  1  0  0  0  0
  4  8  2  0  0  0  0
  5  1  1  0  0  0  0
  6  8  1  6  0  0  0
  6  9  1  0  0  0  0
  7  3  1  0  0  0  0
  9  2  1  0  0  0  0
  9 12  1  1  0  0  0
 10  2  2  0  0  0  0
 11 10  1  0  0  0  0
 12 13  1  0  0  0  0
 13 14  1  6  0  0  0
 13 16  1  0  0  0  0
 15 14  1  0  0  0  0
 17 21  1  0  0  0  0
 18 20  1  0  0  0  0
 18 24  1  6  0  0  0
 20 17  1  1  0  0  0
 21 25  1  0  0  0  0
 22 16  1  6  0  0  0
 22 18  1  0  0  0  0
 22 20  1  0  0  0  0
 23 27  1  6  0  0  0
 23 19  1  0  0  0  0
 24 23  1  0  0  0  0
 25 19  1  0  0  0  0
 26 27  1  0  0  0  0
 26 32  1  0  0  0  0
 29 31  1  0  0  0  0
 29 30  1  0  0  0  0
 30 32  1  0  0  0  0
 30 28  1  1  0  0  0
 31 26  2  0  0  0  0
 33 34  1  0  0  0  0
 35 34  1  0  0  0  0
 36 39  1  0  0  0  0
 37 41  1  0  0  0  0
 37 36  2  0  0  0  0
 38 40  1  0  0  0  0
 39 40  2  0  0  0  0
 40 35  1  0  0  0  0
 41 38  2  0  0  0  0
 42 43  2  0  0  0  0
 43 37  1  0  0  0  0
M  END
>  <MODEL>
7

>  <REMARK>
 VINA RESULT:      -6.4      2.511      5.896
  Name = 
  11 active torsions:
  status: ('A' for Active; 'I' for Inactive)
    1  A    between atoms: C_1  and  C_35
    2  A    between atoms: C_1  and  C_38
    3  A    between atoms: C_2  and  C_13
    4  A    between atoms: C_6  and  C_13
    5  A    between atoms: C_6  and  C_17
    6  A    between atoms: C_8  and  O_34
    7  A    between atoms: C_13  and  C_27
    8  A    between atoms: N_14  and  C_22
    9  A    between atoms: C_19  and  C_37
   10  A    between atoms: C_27  and  C_30
   11  A    between atoms: O_34  and  C_38
                            x       y       z     vdW  Elec       q    Type
                         _______ _______ _______ _____ _____    ______ ____

>  <TORSDO>
F 11

$$$$
=
 OpenBabel11062410253D

 43 48  0  0  1  0  0  0  0  0999 V2000
  161.2950  204.4130  146.0380 C   0  0  0  0  0  0  0  0  0  0  0  0
  161.5070  208.3180  149.2540 C   0  0  0  0  0  0  0  0  0  0  0  0
  161.0470  206.6290  146.9970 C   0  0  0  0  0  0  0  0  0  0  0  0
  161.5460  203.8520  147.4140 C   0  0  0  0  0  3  0  0  0  0  0  0
  161.3270  203.5030  144.9210 C   0  0  0  0  0  1  0  0  0  0  0  0
  160.8760  206.0120  148.4670 C   0  0  1  0  0  3  0  0  0  0  0  0
  161.0860  205.6860  145.8470 C   0  0  0  0  0  3  0  0  0  0  0  0
  161.4020  204.5980  148.5040 C   0  0  0  0  0  3  0  0  0  0  0  0
  161.5320  206.8530  149.5430 C   0  0  2  0  0  3  0  0  0  0  0  0
  161.3200  208.7510  147.9240 C   0  0  0  0  0  3  0  0  0  0  0  0
  161.1560  207.8700  146.8380 N   0  0  0  0  0  0  0  0  0  0  0  0
  160.8260  206.6660  150.9930 C   0  0  0  0  0  2  0  0  0  0  0  0
  161.5330  205.7270  152.0690 C   0  0  2  0  0  3  0  0  0  0  0  0
  161.8670  204.3370  151.8340 C   0  0  0  0  0  2  0  0  0  0  0  0
  160.7150  203.3630  152.2660 C   0  0  0  0  0  1  0  0  0  0  0  0
  161.8370  206.3040  153.3580 C   0  0  0  0  0  2  0  0  0  0  0  0
  160.5190  208.0190  156.3260 C   0  0  0  0  0  2  0  0  0  0  0  0
  160.7910  208.6020  153.7880 C   0  0  2  0  0  3  0  0  0  0  0  0
  161.6030  210.7190  156.5000 O   0  0  0  0  0  0  0  0  0  0  0  0
  161.3320  207.7950  154.9900 C   0  0  2  0  0  3  0  0  0  0  0  0
  161.6280  208.4350  157.2520 C   0  0  0  0  0  2  0  0  0  0  0  0
  160.6480  207.0460  153.9970 C   0  0  2  0  0  3  0  0  0  0  0  0
  161.3550  210.9030  155.0850 C   0  0  1  0  0  3  0  0  0  0  0  0
  161.7370  209.9040  153.9400 C   0  0  0  0  0  2  0  0  0  0  0  0
  162.4490  209.6870  156.7680 C   0  0  0  0  0  2  0  0  0  0  0  0
  158.8320  211.3670  154.6950 C   0  0  0  0  0  0  0  0  0  0  0  0
  160.2460  211.8090  154.8440 N   0  0  0  0  0  2  0  0  0  0  0  0
  155.7150  212.3350  156.1840 C   0  0  0  0  0  1  0  0  0  0  0  0
  156.7620  211.9200  153.9020 C   0  0  0  0  0  2  0  0  0  0  0  0
  156.5480  211.3980  155.2770 C   0  0  1  0  0  3  0  0  0  0  0  0
  158.2120  211.8720  153.7050 N   0  0  0  0  0  0  0  0  0  0  0  0
  157.9120  211.1920  155.9040 C   0  0  0  0  0  2  0  0  0  0  0  0
  161.9350  209.2670  150.2090 O   0  0  0  0  0  0  0  0  0  0  0  0
  162.7790  210.3750  149.8810 C   0  0  0  0  0  2  0  0  0  0  0  0
  162.3100  211.1280  148.5960 C   0  0  0  0  0  2  0  0  0  0  0  0
  159.9090  213.3730  150.2710 C   0  0  0  0  0  3  0  0  0  0  0  0
  159.0440  213.6880  149.1920 C   0  0  0  0  0  0  0  0  0  0  0  0
  160.5800  212.5820  147.6750 C   0  0  0  0  0  3  0  0  0  0  0  0
  161.0010  212.6330  150.0870 C   0  0  0  0  0  3  0  0  0  0  0  0
  161.3500  212.1780  148.7970 C   0  0  0  0  0  0  0  0  0  0  0  0
  159.4540  213.3360  147.9080 C   0  0  0  0  0  3  0  0  0  0  0  0
  156.6830  213.4470  149.3920 N   0  0  0  0  0  2  0  0  0  0  0  0
  157.7220  214.2530  149.3360 C   0  0  0  0  0  3  0  0  0  0  0  0
  1  4  1  0  0  0  0
  2  9  1  0  0  0  0
  2 33  1  0  0  0  0
  3  6  1  0  0  0  0
  4  8  2  0  0  0  0
  5  1  1  0  0  0  0
  6  8  1  6  0  0  0
  6  9  1  0  0  0  0
  7  1  2  0  0  0  0
  7  3  1  0  0  0  0
  9 12  1  1  0  0  0
 10  2  2  0  0  0  0
 11  3  2  0  0  0  0
 11 10  1  0  0  0  0
 13 12  1  1  0  0  0
 13 16  1  0  0  0  0
 14 13  1  0  0  0  0
 14 15  1  0  0  0  0
 17 21  1  0  0  0  0
 18 24  1  6  0  0  0
 18 22  1  0  0  0  0
 18 20  1  0  0  0  0
 19 25  1  0  0  0  0
 20 17  1  1  0  0  0
 22 16  1  6  0  0  0
 22 20  1  0  0  0  0
 23 27  1  1  0  0  0
 23 19  1  0  0  0  0
 24 23  1  0  0  0  0
 25 21  1  0  0  0  0
 26 27  1  0  0  0  0
 26 32  1  0  0  0  0
 29 30  1  0  0  0  0
 30 32  1  0  0  0  0
 30 28  1  1  0  0  0
 31 29  1  0  0  0  0
 31 26  2  0  0  0  0
 34 33  1  0  0  0  0
 35 40  1  0  0  0  0
 35 34  1  0  0  0  0
 37 43  1  0  0  0  0
 37 36  2  0  0  0  0
 38 41  2  0  0  0  0
 38 40  1  0  0  0  0
 39 36  1  0  0  0  0
 40 39  2  0  0  0  0
 41 37  1  0  0  0  0
 43 42  2  0  0  0  0
M  END
>  <MODEL>
8

>  <REMARK>
 VINA RESULT:      -6.4      1.723      2.327
  Name = 
  11 active torsions:
  status: ('A' for Active; 'I' for Inactive)
    1  A    between atoms: C_1  and  C_35
    2  A    between atoms: C_1  and  C_38
    3  A    between atoms: C_2  and  C_13
    4  A    between atoms: C_6  and  C_13
    5  A    between atoms: C_6  and  C_17
    6  A    between atoms: C_8  and  O_34
    7  A    between atoms: C_13  and  C_27
    8  A    between atoms: N_14  and  C_22
    9  A    between atoms: C_19  and  C_37
   10  A    between atoms: C_27  and  C_30
   11  A    between atoms: O_34  and  C_38
                            x       y       z     vdW  Elec       q    Type
                         _______ _______ _______ _____ _____    ______ ____

>  <TORSDO>
F 11

$$$$
=
 OpenBabel11062410253D

 43 48  0  0  1  0  0  0  0  0999 V2000
  160.3810  208.8170  156.1290 C   0  0  0  0  0  0  0  0  0  0  0  0
  159.3420  212.4870  152.7990 C   0  0  0  0  0  0  0  0  0  0  0  0
  159.8390  210.9830  155.1760 C   0  0  0  0  0  0  0  0  0  0  0  0
  160.8460  208.3450  154.7760 C   0  0  0  0  0  3  0  0  0  0  0  0
  160.4450  207.8880  157.2290 C   0  0  0  0  0  1  0  0  0  0  0  0
  160.7090  210.6640  153.8680 C   0  0  1  0  0  3  0  0  0  0  0  0
  159.9030  210.0180  156.3060 C   0  0  0  0  0  3  0  0  0  0  0  0
  160.9430  209.1790  153.7460 C   0  0  0  0  0  3  0  0  0  0  0  0
  160.0920  211.2120  152.5970 C   0  0  2  0  0  3  0  0  0  0  0  0
  158.8970  212.8230  154.0970 C   0  0  0  0  0  3  0  0  0  0  0  0
  159.1200  212.0120  155.2250 N   0  0  0  0  0  0  0  0  0  0  0  0
  161.2000  211.5170  151.4510 C   0  0  0  0  0  3  0  0  0  0  0  0
  161.5810  210.3540  150.4300 C   0  0  0  0  0  0  0  0  0  0  0  0
  162.2920  210.5700  149.1870 C   0  0  0  0  0  2  0  0  0  0  0  0
  162.0480  212.0040  148.6000 C   0  0  0  0  0  1  0  0  0  0  0  0
  161.1710  209.0110  150.7690 C   0  0  0  0  0  2  0  0  0  0  0  0
  162.9750  205.9880  151.8170 C   0  0  0  0  0  2  0  0  0  0  0  0
  161.5060  206.6800  149.7640 C   0  0  2  0  0  3  0  0  0  0  0  0
  161.2610  203.6450  151.5600 O   0  0  0  0  0  0  0  0  0  0  0  0
  161.8010  206.8890  151.2650 C   0  0  2  0  0  3  0  0  0  0  0  0
  162.2810  205.3100  152.9660 C   0  0  0  0  0  2  0  0  0  0  0  0
  162.2120  207.9370  150.4000 C   0  0  2  0  0  3  0  0  0  0  0  0
  160.8280  204.1130  150.2600 C   0  0  1  0  0  3  0  0  0  0  0  0
  160.3470  205.5620  149.9100 C   0  0  0  0  0  2  0  0  0  0  0  0
  160.9810  204.5180  152.5660 C   0  0  0  0  0  2  0  0  0  0  0  0
  161.1720  203.6000  147.7390 C   0  0  0  0  0  0  0  0  0  0  0  0
  161.3840  203.3110  149.1850 N   0  0  0  0  0  2  0  0  0  0  0  0
  163.3270  203.9550  144.8930 C   0  0  0  0  0  1  0  0  0  0  0  0
  161.2130  202.7400  145.6230 C   0  0  0  0  0  2  0  0  0  0  0  0
  161.9280  204.0410  145.5510 C   0  0  1  0  0  3  0  0  0  0  0  0
  160.8430  202.5940  147.0320 N   0  0  0  0  0  0  0  0  0  0  0  0
  162.0830  204.5560  146.9680 C   0  0  0  0  0  2  0  0  0  0  0  0
  158.8280  213.2230  151.7090 O   0  0  0  0  0  0  0  0  0  0  0  0
  157.6810  214.0730  151.8140 C   0  0  0  0  0  2  0  0  0  0  0  0
  156.6850  213.8890  150.6250 C   0  0  0  0  0  2  0  0  0  0  0  0
  157.3510  212.7830  147.1700 C   0  0  0  0  0  3  0  0  0  0  0  0
  158.7260  213.1100  147.0470 C   0  0  0  0  0  0  0  0  0  0  0  0
  158.6100  214.2680  149.1750 C   0  0  0  0  0  3  0  0  0  0  0  0
  156.6610  213.1000  148.2630 C   0  0  0  0  0  3  0  0  0  0  0  0
  157.2730  213.8120  149.3180 C   0  0  0  0  0  0  0  0  0  0  0  0
  159.2920  213.9110  148.0360 C   0  0  0  0  0  3  0  0  0  0  0  0
  160.6500  213.2990  145.6570 N   0  0  0  0  0  2  0  0  0  0  0  0
  159.6080  212.5870  146.0300 C   0  0  0  0  0  3  0  0  0  0  0  0
  1  7  2  0  0  0  0
  1  5  1  0  0  0  0
  2 10  2  0  0  0  0
  3 11  2  0  0  0  0
  3  7  1  0  0  0  0
  4  1  1  0  0  0  0
  6  8  1  6  0  0  0
  6  3  1  0  0  0  0
  8  4  2  0  0  0  0
  9 12  1  6  0  0  0
  9  2  1  0  0  0  0
  9  6  1  0  0  0  0
 10 11  1  0  0  0  0
 13 16  1  0  0  0  0
 13 12  2  0  0  0  0
 14 13  1  0  0  0  0
 15 14  1  0  0  0  0
 17 21  1  0  0  0  0
 18 24  1  1  0  0  0
 18 22  1  0  0  0  0
 18 20  1  0  0  0  0
 19 25  1  0  0  0  0
 20 17  1  6  0  0  0
 22 16  1  1  0  0  0
 22 20  1  0  0  0  0
 23 27  1  6  0  0  0
 23 19  1  0  0  0  0
 24 23  1  0  0  0  0
 25 21  1  0  0  0  0
 26 27  1  0  0  0  0
 29 31  1  0  0  0  0
 30 28  1  1  0  0  0
 30 29  1  0  0  0  0
 30 32  1  0  0  0  0
 31 26  2  0  0  0  0
 32 26  1  0  0  0  0
 33 34  1  0  0  0  0
 33  2  1  0  0  0  0
 35 34  1  0  0  0  0
 36 39  1  0  0  0  0
 37 36  2  0  0  0  0
 37 41  1  0  0  0  0
 38 40  1  0  0  0  0
 39 40  2  0  0  0  0
 40 35  1  0  0  0  0
 41 38  2  0  0  0  0
 42 43  2  0  0  0  0
 43 37  1  0  0  0  0
M  END
>  <MODEL>
9

>  <REMARK>
 VINA RESULT:      -6.3      2.392      8.567
  Name = 
  11 active torsions:
  status: ('A' for Active; 'I' for Inactive)
    1  A    between atoms: C_1  and  C_35
    2  A    between atoms: C_1  and  C_38
    3  A    between atoms: C_2  and  C_13
    4  A    between atoms: C_6  and  C_13
    5  A    between atoms: C_6  and  C_17
    6  A    between atoms: C_8  and  O_34
    7  A    between atoms: C_13  and  C_27
    8  A    between atoms: N_14  and  C_22
    9  A    between atoms: C_19  and  C_37
   10  A    between atoms: C_27  and  C_30
   11  A    between atoms: O_34  and  C_38
                            x       y       z     vdW  Elec       q    Type
                         _______ _______ _______ _____ _____    ______ ____

>  <TORSDO>
F 11

$$$$
