=
 OpenBabel11062409143D

 37 40  0  0  1  0  0  0  0  0999 V2000
  159.8710  210.0580  151.5820 O   0  0  0  0  0  0  0  0  0  0  0  0
  162.6700  207.6960  150.8980 C   0  0  0  0  0  2  0  0  0  0  0  0
  160.4820  211.5990  154.9550 C   0  0  0  0  0  3  0  0  0  0  0  0
  161.1960  210.1770  151.1180 C   0  0  2  0  0  3  0  0  0  0  0  0
  160.6940  210.9540  153.7260 C   0  0  0  0  0  0  0  0  0  0  0  0
  161.3690  209.5210  149.7500 C   0  0  2  0  0  3  0  0  0  0  0  0
  158.2890  210.6170  153.2370 C   0  0  0  0  0  1  0  0  0  0  0  0
  161.9330  210.3220  153.4890 C   0  0  0  0  0  0  0  0  0  0  0  0
  162.6860  210.9420  155.7050 C   0  0  0  0  0  3  0  0  0  0  0  0
  159.6280  210.9980  152.6250 C   0  0  2  0  0  0  0  0  0  0  0  0
  162.9190  210.3150  154.4790 C   0  0  0  0  0  3  0  0  0  0  0  0
  161.5830  208.0130  149.8670 C   0  0  0  0  0  2  0  0  0  0  0  0
  162.1980  209.6650  152.1670 C   0  0  1  0  0  3  0  0  0  0  0  0
  161.4650  211.5900  155.9480 C   0  0  0  0  0  0  0  0  0  0  0  0
  162.3070  208.1870  152.2390 N   0  0  0  0  0  0  0  0  0  0  0  0
  161.2050  212.2320  157.1620 O   0  0  0  0  0  0  0  0  0  0  0  0
  160.4660  213.4430  157.2460 C   0  0  0  0  0  1  0  0  0  0  0  0
  158.3510  212.9440  151.9870 C   0  0  0  0  0  2  0  0  0  0  0  0
  159.4820  212.3420  152.0890 N   0  0  0  0  0  0  0  0  0  0  0  0
  161.0920  207.5140  152.7630 C   0  0  2  0  0  3  0  0  0  0  0  0
  161.2850  207.1420  154.1010 O   0  0  0  0  0  0  0  0  0  0  0  0
  160.2920  207.6810  156.1930 C   0  0  0  0  0  1  0  0  0  0  0  0
  160.0570  207.3560  154.7320 C   0  0  0  0  0  2  0  0  0  0  0  0
  160.7210  206.2600  151.9500 C   0  0  0  0  0  2  0  0  0  0  0  0
  161.3070  204.9960  152.5660 C   0  0  0  0  0  2  0  0  0  0  0  0
  161.4880  203.9270  151.5040 C   0  0  0  0  0  2  0  0  0  0  0  0
  160.8740  203.2130  149.2150 C   0  0  0  0  0  1  0  0  0  0  0  0
  160.8390  204.3590  150.2040 C   0  0  0  0  0  2  0  0  0  0  0  0
  162.5150  210.1840  148.9940 C   0  0  0  0  0  2  0  0  0  0  0  0
  162.3660  211.7000  148.9870 C   0  0  0  0  0  2  0  0  0  0  0  0
  162.8360  212.9110  146.8440 C   0  0  0  0  0  3  0  0  0  0  0  0
  161.9420  212.1900  147.6430 C   0  0  0  0  0  0  0  0  0  0  0  0
  160.6380  211.9530  147.1930 C   0  0  0  0  0  3  0  0  0  0  0  0
  158.9700  212.2010  145.5090 F   0  0  0  0  0  0  0  0  0  0  0  0
  161.1260  213.1490  145.1440 C   0  0  0  0  0  3  0  0  0  0  0  0
  160.2320  212.4320  145.9450 C   0  0  0  0  0  0  0  0  0  0  0  0
  162.4290  213.3890  145.5950 C   0  0  0  0  0  3  0  0  0  0  0  0
  1 10  1  0  0  0  0
  2 15  1  0  0  0  0
  3 14  1  0  0  0  0
  4  1  1  1  0  0  0
  4 13  1  0  0  0  0
  5  3  2  0  0  0  0
  6 29  1  1  0  0  0
  6 12  1  0  0  0  0
  6  4  1  0  0  0  0
  8  5  1  0  0  0  0
  8 11  2  0  0  0  0
  9 14  2  0  0  0  0
 10  7  1  1  0  0  0
 10  5  1  0  0  0  0
 11  9  1  0  0  0  0
 12  2  1  0  0  0  0
 13 15  1  0  0  0  0
 13  8  1  1  0  0  0
 14 16  1  0  0  0  0
 15 20  1  0  0  0  0
 16 17  1  0  0  0  0
 18 19  2  0  0  0  0
 19 10  1  0  0  0  0
 20 24  1  6  0  0  0
 20 21  1  0  0  0  0
 21 23  1  0  0  0  0
 23 22  1  0  0  0  0
 24 25  1  0  0  0  0
 26 25  1  0  0  0  0
 27 28  1  0  0  0  0
 28 26  1  0  0  0  0
 30 29  1  0  0  0  0
 31 32  1  0  0  0  0
 32 30  1  0  0  0  0
 33 32  2  0  0  0  0
 34 36  1  0  0  0  0
 35 37  1  0  0  0  0
 35 36  2  0  0  0  0
 36 33  1  0  0  0  0
 37 31  2  0  0  0  0
M  END
>  <MODEL>
1

>  <REMARK>
 VINA RESULT:      -4.4      0.000      0.000
  Name = 
  12 active torsions:
  status: ('A' for Active; 'I' for Inactive)
    1  A    between atoms: C_1  and  O_5
    2  A    between atoms: C_1  and  C_33
    3  A    between atoms: C_1  and  N_36
    4  A    between atoms: O_3  and  C_32
    5  A    between atoms: O_5  and  C_23
    6  A    between atoms: C_6  and  C_31
    7  A    between atoms: C_14  and  C_37
    8  A    between atoms: C_17  and  C_26
    9  A    between atoms: C_17  and  C_33
   10  A    between atoms: C_24  and  N_28
   11  A    between atoms: C_26  and  C_34
   12  A    between atoms: C_31  and  C_37
                            x       y       z     vdW  Elec       q    Type
                         _______ _______ _______ _____ _____    ______ ____

>  <TORSDO>
F 12

$$$$
=
 OpenBabel11062409143D

 37 40  0  0  1  0  0  0  0  0999 V2000
  162.1660  208.9140  154.6200 O   0  0  0  0  0  0  0  0  0  0  0  0
  160.8230  208.4920  151.1700 C   0  0  0  0  0  2  0  0  0  0  0  0
  159.8500  211.2260  156.4680 C   0  0  0  0  0  3  0  0  0  0  0  0
  161.1570  208.1330  154.0230 C   0  0  2  0  0  3  0  0  0  0  0  0
  160.3480  210.3090  155.5280 C   0  0  0  0  0  0  0  0  0  0  0  0
  161.7450  207.1040  153.0590 C   0  0  2  0  0  3  0  0  0  0  0  0
  162.7180  210.5760  156.1960 C   0  0  0  0  0  1  0  0  0  0  0  0
  159.5870  210.0290  154.3740 C   0  0  0  0  0  0  0  0  0  0  0  0
  157.8970  211.6070  155.0920 C   0  0  0  0  0  3  0  0  0  0  0  0
  161.6620  209.5630  155.7840 C   0  0  2  0  0  0  0  0  0  0  0  0
  158.3700  210.6810  154.1590 C   0  0  0  0  0  3  0  0  0  0  0  0
  162.0360  207.7130  151.6880 C   0  0  0  0  0  2  0  0  0  0  0  0
  160.0780  209.0200  153.3780 C   0  0  1  0  0  3  0  0  0  0  0  0
  158.6350  211.8820  156.2530 C   0  0  0  0  0  0  0  0  0  0  0  0
  160.4660  209.6020  152.0700 N   0  0  0  0  0  0  0  0  0  0  0  0
  158.1850  212.7980  157.2080 O   0  0  0  0  0  0  0  0  0  0  0  0
  156.9190  213.4380  157.1200 C   0  0  0  0  0  1  0  0  0  0  0  0
  160.5180  207.8360  157.0240 C   0  0  0  0  0  2  0  0  0  0  0  0
  161.5260  208.6220  156.8850 N   0  0  0  0  0  0  0  0  0  0  0  0
  161.5480  210.6150  152.1540 C   0  0  2  0  0  3  0  0  0  0  0  0
  161.0050  211.8820  152.4100 O   0  0  0  0  0  0  0  0  0  0  0  0
  159.2410  213.3430  151.7750 C   0  0  0  0  0  1  0  0  0  0  0  0
  159.9180  212.0090  151.5410 C   0  0  0  0  0  2  0  0  0  0  0  0
  162.3830  210.6870  150.8620 C   0  0  0  0  0  2  0  0  0  0  0  0
  161.5850  211.2820  149.7090 C   0  0  0  0  0  2  0  0  0  0  0  0
  162.5210  211.8230  148.6430 C   0  0  0  0  0  2  0  0  0  0  0  0
  160.6770  213.4070  148.1760 C   0  0  0  0  0  1  0  0  0  0  0  0
  161.7320  212.5180  147.5500 C   0  0  0  0  0  2  0  0  0  0  0  0
  160.8130  205.9040  152.9440 C   0  0  0  0  0  2  0  0  0  0  0  0
  161.5980  204.6080  152.7860 C   0  0  0  0  0  2  0  0  0  0  0  0
  161.1220  204.7590  150.3300 C   0  0  0  0  0  3  0  0  0  0  0  0
  161.3140  203.9680  151.4680 C   0  0  0  0  0  0  0  0  0  0  0  0
  161.2080  202.5750  151.3770 C   0  0  0  0  0  3  0  0  0  0  0  0
  160.8190  200.6280  150.0600 F   0  0  0  0  0  0  0  0  0  0  0  0
  160.7310  202.7650  149.0100 C   0  0  0  0  0  3  0  0  0  0  0  0
  160.9190  201.9750  150.1480 C   0  0  0  0  0  0  0  0  0  0  0  0
  160.8320  204.1580  149.1020 C   0  0  0  0  0  3  0  0  0  0  0  0
  1 10  1  0  0  0  0
  2 12  1  0  0  0  0
  2 15  1  0  0  0  0
  4  1  1  6  0  0  0
  5 10  1  0  0  0  0
  5  3  2  0  0  0  0
  6 29  1  6  0  0  0
  6  4  1  0  0  0  0
  8  5  1  0  0  0  0
  9 14  2  0  0  0  0
 10  7  1  1  0  0  0
 10 19  1  0  0  0  0
 11  8  2  0  0  0  0
 11  9  1  0  0  0  0
 12  6  1  0  0  0  0
 13  4  1  0  0  0  0
 13  8  1  1  0  0  0
 14  3  1  0  0  0  0
 14 16  1  0  0  0  0
 15 20  1  0  0  0  0
 15 13  1  0  0  0  0
 17 16  1  0  0  0  0
 19 18  2  0  0  0  0
 20 24  1  6  0  0  0
 20 21  1  0  0  0  0
 23 22  1  0  0  0  0
 23 21  1  0  0  0  0
 25 24  1  0  0  0  0
 26 25  1  0  0  0  0
 28 27  1  0  0  0  0
 28 26  1  0  0  0  0
 30 29  1  0  0  0  0
 31 32  1  0  0  0  0
 32 30  1  0  0  0  0
 33 32  2  0  0  0  0
 34 36  1  0  0  0  0
 35 37  1  0  0  0  0
 35 36  2  0  0  0  0
 36 33  1  0  0  0  0
 37 31  2  0  0  0  0
M  END
>  <MODEL>
2

>  <REMARK>
 VINA RESULT:      -3.9      2.689      6.612
  Name = 
  12 active torsions:
  status: ('A' for Active; 'I' for Inactive)
    1  A    between atoms: C_1  and  O_5
    2  A    between atoms: C_1  and  C_33
    3  A    between atoms: C_1  and  N_36
    4  A    between atoms: O_3  and  C_32
    5  A    between atoms: O_5  and  C_23
    6  A    between atoms: C_6  and  C_31
    7  A    between atoms: C_14  and  C_37
    8  A    between atoms: C_17  and  C_26
    9  A    between atoms: C_17  and  C_33
   10  A    between atoms: C_24  and  N_28
   11  A    between atoms: C_26  and  C_34
   12  A    between atoms: C_31  and  C_37
                            x       y       z     vdW  Elec       q    Type
                         _______ _______ _______ _____ _____    ______ ____

>  <TORSDO>
F 12

$$$$
=
 OpenBabel11062409143D

 37 40  0  0  1  0  0  0  0  0999 V2000
  161.8400  207.4020  154.7690 O   0  0  0  0  0  0  0  0  0  0  0  0
  161.4210  207.8530  151.0940 C   0  0  0  0  0  2  0  0  0  0  0  0
  159.6800  209.9550  156.4820 C   0  0  0  0  0  3  0  0  0  0  0  0
  160.8840  207.0110  153.8110 C   0  0  2  0  0  3  0  0  0  0  0  0
  160.1990  209.0830  155.5110 C   0  0  0  0  0  0  0  0  0  0  0  0
  161.4690  206.0130  152.8130 C   0  0  2  0  0  3  0  0  0  0  0  0
  162.2980  208.6130  156.7380 C   0  0  0  0  0  1  0  0  0  0  0  0
  159.7360  209.1850  154.1820 C   0  0  0  0  0  0  0  0  0  0  0  0
  158.3050  211.0350  154.8100 C   0  0  0  0  0  3  0  0  0  0  0  0
  161.1970  207.9860  155.8970 C   0  0  2  0  0  0  0  0  0  0  0  0
  158.7960  210.1610  153.8380 C   0  0  0  0  0  3  0  0  0  0  0  0
  162.2460  206.7130  151.7000 C   0  0  0  0  0  2  0  0  0  0  0  0
  160.2420  208.2360  153.1370 C   0  0  1  0  0  3  0  0  0  0  0  0
  158.7440  210.9340  156.1390 C   0  0  0  0  0  0  0  0  0  0  0  0
  161.0870  208.8760  152.1000 N   0  0  0  0  0  0  0  0  0  0  0  0
  158.2650  211.7900  157.1360 O   0  0  0  0  0  0  0  0  0  0  0  0
  156.9390  212.3000  157.1370 C   0  0  0  0  0  1  0  0  0  0  0  0
  159.3050  206.7090  156.6830 C   0  0  0  0  0  2  0  0  0  0  0  0
  160.5650  206.9670  156.7200 N   0  0  0  0  0  0  0  0  0  0  0  0
  162.3020  209.5430  152.6330 C   0  0  2  0  0  3  0  0  0  0  0  0
  161.9630  210.3830  153.7020 O   0  0  0  0  0  0  0  0  0  0  0  0
  162.9360  211.1370  155.7360 C   0  0  0  0  0  1  0  0  0  0  0  0
  163.1750  210.7520  154.2910 C   0  0  0  0  0  2  0  0  0  0  0  0
  163.0310  210.3750  151.5620 C   0  0  0  0  0  2  0  0  0  0  0  0
  162.0500  211.1080  150.6560 C   0  0  0  0  0  2  0  0  0  0  0  0
  162.3140  210.7610  149.2020 C   0  0  0  0  0  2  0  0  0  0  0  0
  161.1940  212.9490  148.9160 C   0  0  0  0  0  1  0  0  0  0  0  0
  162.2250  212.0040  148.3370 C   0  0  0  0  0  2  0  0  0  0  0  0
  160.3620  205.1340  152.2450 C   0  0  0  0  0  2  0  0  0  0  0  0
  160.7900  203.6720  152.1930 C   0  0  0  0  0  2  0  0  0  0  0  0
  160.8420  201.8200  150.5060 C   0  0  0  0  0  3  0  0  0  0  0  0
  160.8760  203.1910  150.7830 C   0  0  0  0  0  0  0  0  0  0  0  0
  161.0230  204.1110  149.7380 C   0  0  0  0  0  3  0  0  0  0  0  0
  161.2680  204.5500  147.4090 F   0  0  0  0  0  0  0  0  0  0  0  0
  161.0880  202.2890  148.1420 C   0  0  0  0  0  3  0  0  0  0  0  0
  161.1280  203.6600  148.4200 C   0  0  0  0  0  0  0  0  0  0  0  0
  160.9460  201.3690  149.1870 C   0  0  0  0  0  3  0  0  0  0  0  0
  1 10  1  0  0  0  0
  2 12  1  0  0  0  0
  2 15  1  0  0  0  0
  4  1  1  1  0  0  0
  5 10  1  0  0  0  0
  5  3  2  0  0  0  0
  6 29  1  6  0  0  0
  6  4  1  0  0  0  0
  8  5  1  0  0  0  0
  9 14  2  0  0  0  0
 10 19  1  0  0  0  0
 10  7  1  1  0  0  0
 11  8  2  0  0  0  0
 11  9  1  0  0  0  0
 12  6  1  0  0  0  0
 13  4  1  0  0  0  0
 13  8  1  1  0  0  0
 14  3  1  0  0  0  0
 14 16  1  0  0  0  0
 15 20  1  0  0  0  0
 15 13  1  0  0  0  0
 16 17  1  0  0  0  0
 18 19  2  0  0  0  0
 20 24  1  6  0  0  0
 20 21  1  0  0  0  0
 21 23  1  0  0  0  0
 23 22  1  0  0  0  0
 25 24  1  0  0  0  0
 26 25  1  0  0  0  0
 28 27  1  0  0  0  0
 28 26  1  0  0  0  0
 30 29  1  0  0  0  0
 31 32  1  0  0  0  0
 32 30  1  0  0  0  0
 33 32  2  0  0  0  0
 34 36  1  0  0  0  0
 35 36  2  0  0  0  0
 35 37  1  0  0  0  0
 36 33  1  0  0  0  0
 37 31  2  0  0  0  0
M  END
>  <MODEL>
3

>  <REMARK>
 VINA RESULT:      -2.9      2.320      6.410
  Name = 
  12 active torsions:
  status: ('A' for Active; 'I' for Inactive)
    1  A    between atoms: C_1  and  O_5
    2  A    between atoms: C_1  and  C_33
    3  A    between atoms: C_1  and  N_36
    4  A    between atoms: O_3  and  C_32
    5  A    between atoms: O_5  and  C_23
    6  A    between atoms: C_6  and  C_31
    7  A    between atoms: C_14  and  C_37
    8  A    between atoms: C_17  and  C_26
    9  A    between atoms: C_17  and  C_33
   10  A    between atoms: C_24  and  N_28
   11  A    between atoms: C_26  and  C_34
   12  A    between atoms: C_31  and  C_37
                            x       y       z     vdW  Elec       q    Type
                         _______ _______ _______ _____ _____    ______ ____

>  <TORSDO>
F 12

$$$$
=
 OpenBabel11062409143D

 37 40  0  0  1  0  0  0  0  0999 V2000
  162.2710  208.9150  154.0470 O   0  0  0  0  0  0  0  0  0  0  0  0
  160.9040  207.7370  150.7870 C   0  0  0  0  0  2  0  0  0  0  0  0
  160.2610  211.9060  155.1100 C   0  0  0  0  0  3  0  0  0  0  0  0
  161.1740  208.1290  153.6410 C   0  0  2  0  0  3  0  0  0  0  0  0
  160.6430  210.7140  154.4720 C   0  0  0  0  0  0  0  0  0  0  0  0
  161.6310  206.8140  153.0140 C   0  0  2  0  0  3  0  0  0  0  0  0
  163.0230  210.8630  155.1380 C   0  0  0  0  0  1  0  0  0  0  0  0
  159.8580  210.2260  153.4060 C   0  0  0  0  0  0  0  0  0  0  0  0
  158.3800  212.1330  153.6050 C   0  0  0  0  0  3  0  0  0  0  0  0
  161.8490  209.9120  154.9720 C   0  0  2  0  0  0  0  0  0  0  0  0
  158.7350  210.9390  152.9760 C   0  0  0  0  0  3  0  0  0  0  0  0
  162.0050  206.9860  151.5430 C   0  0  0  0  0  2  0  0  0  0  0  0
  160.2210  208.9330  152.7390 C   0  0  1  0  0  3  0  0  0  0  0  0
  159.1410  212.6220  154.6780 C   0  0  0  0  0  0  0  0  0  0  0  0
  160.6870  209.0850  151.3400 N   0  0  0  0  0  0  0  0  0  0  0  0
  158.8060  213.8110  155.3320 O   0  0  0  0  0  0  0  0  0  0  0  0
  157.8600  213.8640  156.3920 C   0  0  0  0  0  1  0  0  0  0  0  0
  160.4110  209.2370  156.7900 C   0  0  0  0  0  2  0  0  0  0  0  0
  161.5880  209.3300  156.2790 N   0  0  0  0  0  0  0  0  0  0  0  0
  161.8900  209.9430  151.1910 C   0  0  2  0  0  3  0  0  0  0  0  0
  161.5130  211.2900  151.0900 O   0  0  0  0  0  0  0  0  0  0  0  0
  161.0490  212.8200  149.3300 C   0  0  0  0  0  1  0  0  0  0  0  0
  161.9500  211.7090  149.8300 C   0  0  0  0  0  2  0  0  0  0  0  0
  162.7260  209.5690  149.9530 C   0  0  0  0  0  2  0  0  0  0  0  0
  161.8550  209.0130  148.8330 C   0  0  0  0  0  2  0  0  0  0  0  0
  162.5930  207.9170  148.0850 C   0  0  0  0  0  2  0  0  0  0  0  0
  162.3580  205.7630  146.8900 C   0  0  0  0  0  1  0  0  0  0  0  0
  161.6070  206.9430  147.4690 C   0  0  0  0  0  2  0  0  0  0  0  0
  160.5530  205.7510  153.1890 C   0  0  0  0  0  2  0  0  0  0  0  0
  161.1510  204.3500  153.1630 C   0  0  0  0  0  2  0  0  0  0  0  0
  160.6450  204.5200  150.7150 C   0  0  0  0  0  3  0  0  0  0  0  0
  161.0080  203.7320  151.8120 C   0  0  0  0  0  0  0  0  0  0  0  0
  161.2080  202.3560  151.6480 C   0  0  0  0  0  3  0  0  0  0  0  0
  161.2480  200.4420  150.2300 F   0  0  0  0  0  0  0  0  0  0  0  0
  160.6930  202.5610  149.2900 C   0  0  0  0  0  3  0  0  0  0  0  0
  161.0520  201.7730  150.3880 C   0  0  0  0  0  0  0  0  0  0  0  0
  160.4880  203.9350  149.4550 C   0  0  0  0  0  3  0  0  0  0  0  0
  1 10  1  0  0  0  0
  2 15  1  0  0  0  0
  2 12  1  0  0  0  0
  4  1  1  6  0  0  0
  5 10  1  0  0  0  0
  5  3  2  0  0  0  0
  6 29  1  6  0  0  0
  6  4  1  0  0  0  0
  8  5  1  0  0  0  0
  9 14  2  0  0  0  0
 10  7  1  1  0  0  0
 10 19  1  0  0  0  0
 11  8  2  0  0  0  0
 11  9  1  0  0  0  0
 12  6  1  0  0  0  0
 13  8  1  1  0  0  0
 13  4  1  0  0  0  0
 14  3  1  0  0  0  0
 14 16  1  0  0  0  0
 15 13  1  0  0  0  0
 16 17  1  0  0  0  0
 19 18  2  0  0  0  0
 20 24  1  6  0  0  0
 20 15  1  0  0  0  0
 21 20  1  0  0  0  0
 22 23  1  0  0  0  0
 23 21  1  0  0  0  0
 25 24  1  0  0  0  0
 26 25  1  0  0  0  0
 27 28  1  0  0  0  0
 28 26  1  0  0  0  0
 30 29  1  0  0  0  0
 31 32  1  0  0  0  0
 32 30  1  0  0  0  0
 33 32  2  0  0  0  0
 34 36  1  0  0  0  0
 35 37  1  0  0  0  0
 35 36  2  0  0  0  0
 36 33  1  0  0  0  0
 37 31  2  0  0  0  0
M  END
>  <MODEL>
4

>  <REMARK>
 VINA RESULT:      -2.9      2.868      6.263
  Name = 
  12 active torsions:
  status: ('A' for Active; 'I' for Inactive)
    1  A    between atoms: C_1  and  O_5
    2  A    between atoms: C_1  and  C_33
    3  A    between atoms: C_1  and  N_36
    4  A    between atoms: O_3  and  C_32
    5  A    between atoms: O_5  and  C_23
    6  A    between atoms: C_6  and  C_31
    7  A    between atoms: C_14  and  C_37
    8  A    between atoms: C_17  and  C_26
    9  A    between atoms: C_17  and  C_33
   10  A    between atoms: C_24  and  N_28
   11  A    between atoms: C_26  and  C_34
   12  A    between atoms: C_31  and  C_37
                            x       y       z     vdW  Elec       q    Type
                         _______ _______ _______ _____ _____    ______ ____

>  <TORSDO>
F 12

$$$$
=
 OpenBabel11062409143D

 37 40  0  0  1  0  0  0  0  0999 V2000
  161.6120  211.1420  153.2890 O   0  0  0  0  0  0  0  0  0  0  0  0
  159.8920  210.8390  156.5800 C   0  0  0  0  0  2  0  0  0  0  0  0
  161.9140  207.6870  151.8410 C   0  0  0  0  0  3  0  0  0  0  0  0
  160.2770  211.0120  153.7170 C   0  0  2  0  0  3  0  0  0  0  0  0
  161.4740  208.7770  152.6100 C   0  0  0  0  0  0  0  0  0  0  0  0
  159.8160  212.2450  154.4920 C   0  0  2  0  0  3  0  0  0  0  0  0
  163.3970  210.2330  152.0480 C   0  0  0  0  0  1  0  0  0  0  0  0
  160.5850  208.5440  153.6810 C   0  0  0  0  0  0  0  0  0  0  0  0
  160.6380  206.1680  153.2240 C   0  0  0  0  0  3  0  0  0  0  0  0
  161.8910  210.2070  152.2500 C   0  0  2  0  0  0  0  0  0  0  0  0
  160.1750  207.2430  153.9850 C   0  0  0  0  0  3  0  0  0  0  0  0
  160.2520  212.1900  155.9550 C   0  0  0  0  0  2  0  0  0  0  0  0
  160.0670  209.6970  154.4880 C   0  0  1  0  0  3  0  0  0  0  0  0
  161.5090  206.3850  152.1460 C   0  0  0  0  0  0  0  0  0  0  0  0
  160.5600  209.7240  155.8870 N   0  0  0  0  0  0  0  0  0  0  0  0
  161.9830  205.3290  151.3620 O   0  0  0  0  0  0  0  0  0  0  0  0
  161.1240  204.5010  150.5900 C   0  0  0  0  0  1  0  0  0  0  0  0
  161.9620  210.8390  149.9220 C   0  0  0  0  0  2  0  0  0  0  0  0
  161.2880  210.6300  150.9970 N   0  0  0  0  0  0  0  0  0  0  0  0
  162.0380  209.8060  156.0080 C   0  0  2  0  0  3  0  0  0  0  0  0
  162.5040  208.8310  156.9020 O   0  0  0  0  0  0  0  0  0  0  0  0
  160.7660  207.2490  157.2600 C   0  0  0  0  0  1  0  0  0  0  0  0
  161.9860  207.6180  156.4410 C   0  0  0  0  0  2  0  0  0  0  0  0
  162.5100  211.1890  156.4930 C   0  0  0  0  0  2  0  0  0  0  0  0
  163.8790  211.1130  157.1590 C   0  0  0  0  0  2  0  0  0  0  0  0
  164.9390  211.7180  156.2560 C   0  0  0  0  0  2  0  0  0  0  0  0
  166.9540  213.1470  156.4010 C   0  0  0  0  0  1  0  0  0  0  0  0
  166.2050  211.9990  157.0420 C   0  0  0  0  0  2  0  0  0  0  0  0
  158.3050  212.4030  154.3720 C   0  0  0  0  0  2  0  0  0  0  0  0
  157.9230  213.8470  154.0730 C   0  0  0  0  0  2  0  0  0  0  0  0
  155.9190  213.8730  152.5690 C   0  0  0  0  0  3  0  0  0  0  0  0
  157.3070  213.9690  152.7200 C   0  0  0  0  0  0  0  0  0  0  0  0
  158.1210  214.1480  151.5950 C   0  0  0  0  0  3  0  0  0  0  0  0
  158.3350  214.4130  149.2370 F   0  0  0  0  0  0  0  0  0  0  0  0
  156.1600  214.1470  150.1740 C   0  0  0  0  0  3  0  0  0  0  0  0
  157.5470  214.2380  150.3240 C   0  0  0  0  0  0  0  0  0  0  0  0
  155.3460  213.9640  151.2970 C   0  0  0  0  0  3  0  0  0  0  0  0
  3 14  2  0  0  0  0
  3  5  1  0  0  0  0
  4  1  1  1  0  0  0
  4 13  1  0  0  0  0
  4  6  1  0  0  0  0
  5  8  2  0  0  0  0
  6 29  1  1  0  0  0
  6 12  1  0  0  0  0
  8 11  1  0  0  0  0
  9 11  2  0  0  0  0
 10  7  1  6  0  0  0
 10  5  1  0  0  0  0
 10  1  1  0  0  0  0
 12  2  1  0  0  0  0
 13  8  1  6  0  0  0
 13 15  1  0  0  0  0
 14  9  1  0  0  0  0
 15 20  1  0  0  0  0
 15  2  1  0  0  0  0
 16 14  1  0  0  0  0
 17 16  1  0  0  0  0
 18 19  2  0  0  0  0
 19 10  1  0  0  0  0
 20 24  1  1  0  0  0
 20 21  1  0  0  0  0
 23 21  1  0  0  0  0
 23 22  1  0  0  0  0
 24 25  1  0  0  0  0
 26 28  1  0  0  0  0
 26 25  1  0  0  0  0
 27 28  1  0  0  0  0
 30 29  1  0  0  0  0
 31 32  1  0  0  0  0
 32 30  1  0  0  0  0
 33 32  2  0  0  0  0
 34 36  1  0  0  0  0
 35 36  2  0  0  0  0
 35 37  1  0  0  0  0
 36 33  1  0  0  0  0
 37 31  2  0  0  0  0
M  END
>  <MODEL>
5

>  <REMARK>
 VINA RESULT:      -1.7      2.431      6.568
  Name = 
  12 active torsions:
  status: ('A' for Active; 'I' for Inactive)
    1  A    between atoms: C_1  and  O_5
    2  A    between atoms: C_1  and  C_33
    3  A    between atoms: C_1  and  N_36
    4  A    between atoms: O_3  and  C_32
    5  A    between atoms: O_5  and  C_23
    6  A    between atoms: C_6  and  C_31
    7  A    between atoms: C_14  and  C_37
    8  A    between atoms: C_17  and  C_26
    9  A    between atoms: C_17  and  C_33
   10  A    between atoms: C_24  and  N_28
   11  A    between atoms: C_26  and  C_34
   12  A    between atoms: C_31  and  C_37
                            x       y       z     vdW  Elec       q    Type
                         _______ _______ _______ _____ _____    ______ ____

>  <TORSDO>
F 12

$$$$
=
 OpenBabel11062409143D

 37 40  0  0  1  0  0  0  0  0999 V2000
  161.4610  210.9510  152.9700 O   0  0  0  0  0  0  0  0  0  0  0  0
  159.2300  211.0130  155.9540 C   0  0  0  0  0  2  0  0  0  0  0  0
  162.1420  207.3510  152.1330 C   0  0  0  0  0  3  0  0  0  0  0  0
  160.0790  210.7960  153.1950 C   0  0  2  0  0  3  0  0  0  0  0  0
  161.5360  208.5090  152.6480 C   0  0  0  0  0  0  0  0  0  0  0  0
  159.4450  212.0950  153.6900 C   0  0  2  0  0  3  0  0  0  0  0  0
  163.4640  209.9920  152.1810 C   0  0  0  0  0  1  0  0  0  0  0  0
  160.4910  208.3750  153.5860 C   0  0  0  0  0  0  0  0  0  0  0  0
  160.7170  205.9660  153.5130 C   0  0  0  0  0  3  0  0  0  0  0  0
  161.9470  209.8970  152.1440 C   0  0  2  0  0  0  0  0  0  0  0  0
  160.0910  207.1070  154.0170 C   0  0  0  0  0  3  0  0  0  0  0  0
  159.6330  212.2810  155.1940 C   0  0  0  0  0  2  0  0  0  0  0  0
  159.7990  209.5960  154.1160 C   0  0  1  0  0  3  0  0  0  0  0  0
  161.7460  206.0830  152.5660 C   0  0  0  0  0  0  0  0  0  0  0  0
  160.0500  209.8560  155.5540 N   0  0  0  0  0  0  0  0  0  0  0  0
  162.3880  204.9590  152.0380 O   0  0  0  0  0  0  0  0  0  0  0  0
  161.7030  203.9690  151.2810 C   0  0  0  0  0  1  0  0  0  0  0  0
  162.2150  209.6490  149.7580 C   0  0  0  0  0  2  0  0  0  0  0  0
  161.5440  210.0940  150.7600 N   0  0  0  0  0  0  0  0  0  0  0  0
  161.4820  210.0510  155.8940 C   0  0  2  0  0  3  0  0  0  0  0  0
  162.1480  208.8170  155.9120 O   0  0  0  0  0  0  0  0  0  0  0  0
  160.8720  207.3320  157.2610 C   0  0  0  0  0  1  0  0  0  0  0  0
  162.0080  208.3340  157.2150 C   0  0  0  0  0  2  0  0  0  0  0  0
  161.6720  210.7360  157.2600 C   0  0  0  0  0  2  0  0  0  0  0  0
  162.6210  211.9240  157.1670 C   0  0  0  0  0  2  0  0  0  0  0  0
  164.0630  211.4550  157.2420 C   0  0  0  0  0  2  0  0  0  0  0  0
  166.1280  212.0380  156.0090 C   0  0  0  0  0  1  0  0  0  0  0  0
  164.7110  211.5220  155.8720 C   0  0  0  0  0  2  0  0  0  0  0  0
  157.9700  212.1340  153.3090 C   0  0  0  0  0  2  0  0  0  0  0  0
  157.2650  213.3210  153.9530 C   0  0  0  0  0  2  0  0  0  0  0  0
  156.1340  213.7570  156.1460 C   0  0  0  0  0  3  0  0  0  0  0  0
  156.4060  212.8800  155.0920 C   0  0  0  0  0  0  0  0  0  0  0  0
  155.8990  211.5750  155.1190 C   0  0  0  0  0  3  0  0  0  0  0  0
  154.6220  209.8920  156.2210 F   0  0  0  0  0  0  0  0  0  0  0  0
  154.8380  212.0320  157.2480 C   0  0  0  0  0  3  0  0  0  0  0  0
  155.1150  211.1530  156.1960 C   0  0  0  0  0  0  0  0  0  0  0  0
  155.3490  213.3340  157.2230 C   0  0  0  0  0  3  0  0  0  0  0  0
  3 14  2  0  0  0  0
  3  5  1  0  0  0  0
  4  1  1  1  0  0  0
  4  6  1  0  0  0  0
  4 13  1  0  0  0  0
  5  8  2  0  0  0  0
  6 29  1  1  0  0  0
  6 12  1  0  0  0  0
  8 11  1  0  0  0  0
  9 11  2  0  0  0  0
 10  7  1  1  0  0  0
 10  5  1  0  0  0  0
 10  1  1  0  0  0  0
 12  2  1  0  0  0  0
 13  8  1  6  0  0  0
 13 15  1  0  0  0  0
 14  9  1  0  0  0  0
 15 20  1  0  0  0  0
 15  2  1  0  0  0  0
 16 14  1  0  0  0  0
 17 16  1  0  0  0  0
 18 19  2  0  0  0  0
 19 10  1  0  0  0  0
 20 21  1  0  0  0  0
 20 24  1  1  0  0  0
 21 23  1  0  0  0  0
 23 22  1  0  0  0  0
 25 26  1  0  0  0  0
 25 24  1  0  0  0  0
 28 27  1  0  0  0  0
 28 26  1  0  0  0  0
 29 30  1  0  0  0  0
 30 32  1  0  0  0  0
 31 37  1  0  0  0  0
 32 33  1  0  0  0  0
 32 31  2  0  0  0  0
 33 36  2  0  0  0  0
 36 34  1  0  0  0  0
 36 35  1  0  0  0  0
 37 35  2  0  0  0  0
M  END
>  <MODEL>
6

>  <REMARK>
 VINA RESULT:      -1.6      3.169      7.591
  Name = 
  12 active torsions:
  status: ('A' for Active; 'I' for Inactive)
    1  A    between atoms: C_1  and  O_5
    2  A    between atoms: C_1  and  C_33
    3  A    between atoms: C_1  and  N_36
    4  A    between atoms: O_3  and  C_32
    5  A    between atoms: O_5  and  C_23
    6  A    between atoms: C_6  and  C_31
    7  A    between atoms: C_14  and  C_37
    8  A    between atoms: C_17  and  C_26
    9  A    between atoms: C_17  and  C_33
   10  A    between atoms: C_24  and  N_28
   11  A    between atoms: C_26  and  C_34
   12  A    between atoms: C_31  and  C_37
                            x       y       z     vdW  Elec       q    Type
                         _______ _______ _______ _____ _____    ______ ____

>  <TORSDO>
F 12

$$$$
