=
 OpenBabel11062409103D

 37 43  0  0  1  0  0  0  0  0999 V2000
  157.8370  214.3860  151.9290 C   0  0  0  0  0  2  0  0  0  0  0  0
  160.3370  210.5690  151.5490 C   0  0  1  0  0  3  0  0  0  0  0  0
  160.2790  208.1670  154.1890 O   0  0  0  0  0  0  0  0  0  0  0  0
  159.6150  212.9850  150.8030 C   0  0  2  0  0  3  0  0  0  0  0  0
  160.8330  210.2620  152.9480 C   0  0  2  0  0  3  0  0  0  0  0  0
  159.4070  211.7910  151.7600 C   0  0  2  0  0  3  0  0  0  0  0  0
  161.1570  208.8020  153.2830 C   0  0  1  0  0  0  0  0  0  0  0  0
  161.0310  212.9950  150.2600 C   0  0  0  0  0  2  0  0  0  0  0  0
  159.4230  212.1300  153.2500 C   0  0  1  0  0  3  0  0  0  0  0  0
  156.6050  214.4530  153.9640 O   0  0  0  0  0  1  0  0  0  0  0  0
  162.1340  209.3080  149.8860 S   0  0  0  0  0  0  0  0  0  0  0  0
  161.2670  211.7650  149.6360 O   0  0  0  0  0  0  0  0  0  0  0  0
  158.0340  212.5730  153.6840 C   0  0  0  0  0  2  0  0  0  0  0  0
  161.5340  208.5620  154.7070 C   0  0  1  0  0  3  0  0  0  0  0  0
  161.5650  210.8540  150.6620 C   0  0  1  0  0  3  0  0  0  0  0  0
  159.7950  210.8150  153.8830 C   0  0  2  0  0  3  0  0  0  0  0  0
  159.2600  214.3530  151.3860 C   0  0  0  0  0  2  0  0  0  0  0  0
  161.8700  207.8680  152.3070 C   0  0  2  0  0  3  0  0  0  0  0  0
  157.8260  214.0600  153.4190 C   0  0  1  0  0  3  0  0  0  0  0  0
  161.4210  209.8200  155.6120 C   0  0  1  0  0  3  0  0  0  0  0  0
  160.3150  210.8910  155.3200 C   0  0  2  0  0  3  0  0  0  0  0  0
  162.8750  208.5920  151.3950 C   0  0  0  0  0  2  0  0  0  0  0  0
  160.9940  205.4960  152.2550 C   0  0  0  0  0  3  0  0  0  0  0  0
  160.9280  206.8640  151.6280 C   0  0  2  0  0  3  0  0  0  0  0  0
  161.1080  206.8290  150.2070 O   0  0  0  0  0  0  0  0  0  0  0  0
  160.7480  205.7800  147.9680 C   0  0  0  0  0  1  0  0  0  0  0  0
  160.7110  204.5000  150.0470 C   0  0  0  0  0  3  0  0  0  0  0  0
  160.8440  205.6830  149.4470 C   0  0  0  0  0  0  0  0  0  0  0  0
  160.8550  204.4010  151.5080 C   0  0  0  0  0  3  0  0  0  0  0  0
  161.3150  208.2260  157.2540 O   0  0  0  0  0  1  0  0  0  0  0  0
  161.6810  209.5100  157.0230 N   0  0  0  0  0  0  0  0  0  0  0  0
  163.0140  209.6040  157.2560 O   0  0  0  0  0  0  0  0  0  0  0  0
  163.2990  210.9670  157.1630 C   0  0  0  0  0  1  0  0  0  0  0  0
  159.1880  210.7620  156.2320 N   0  0  0  0  0  2  0  0  0  0  0  0
  159.3510  211.7440  157.2200 N   0  0  0  0  0  2  0  0  0  0  0  0
  158.2240  212.6530  157.1040 C   0  0  0  0  0  2  0  0  0  0  0  0
  158.7000  214.0850  157.2480 C   0  0  0  0  0  1  0  0  0  0  0  0
  1 19  1  0  0  0  0
  2  6  1  0  0  0  0
  2  5  1  0  0  0  0
  3 14  1  0  0  0  0
  4 17  1  0  0  0  0
  4  6  1  0  0  0  0
  5  7  1  0  0  0  0
  5 16  1  0  0  0  0
  6  9  1  0  0  0  0
  7  3  1  0  0  0  0
  7 14  1  0  0  0  0
  8  4  1  0  0  0  0
  9 13  1  0  0  0  0
  9 16  1  0  0  0  0
 11 15  1  0  0  0  0
 11 22  1  0  0  0  0
 12  8  1  0  0  0  0
 12 15  1  0  0  0  0
 14 20  1  0  0  0  0
 15  2  1  0  0  0  0
 16 21  1  0  0  0  0
 17  1  1  0  0  0  0
 18  7  1  0  0  0  0
 19 13  1  0  0  0  0
 19 10  1  0  0  0  0
 20 31  1  0  0  0  0
 21 20  1  0  0  0  0
 21 34  1  0  0  0  0
 22 18  1  0  0  0  0
 24 23  1  0  0  0  0
 24 18  1  0  0  0  0
 25 24  1  0  0  0  0
 26 28  1  0  0  0  0
 27 29  1  0  0  0  0
 28 27  2  0  0  0  0
 28 25  1  0  0  0  0
 29 23  2  0  0  0  0
 31 30  1  0  0  0  0
 31 32  1  0  0  0  0
 33 32  1  0  0  0  0
 34 35  1  0  0  0  0
 36 35  1  0  0  0  0
 36 37  1  0  0  0  0
M  END
>  <MODEL>
1

>  <REMARK>
 VINA RESULT:      -4.9      0.000      0.000
  Name = 
  6 active torsions:
  status: ('A' for Active; 'I' for Inactive)
    1  A    between atoms: N_1  and  N_23
    2  A    between atoms: N_1  and  C_36
    3  A    between atoms: C_5  and  N_23
    4  A    between atoms: C_6  and  C_31
    5  A    between atoms: O_11  and  N_26
    6  A    between atoms: N_26  and  C_33
                            x       y       z     vdW  Elec       q    Type
                         _______ _______ _______ _____ _____    ______ ____

>  <TORSDO>
F 6

$$$$
=
 OpenBabel11062409103D

 37 43  0  0  1  0  0  0  0  0999 V2000
  161.4460  206.7190  155.5430 C   0  0  0  0  0  2  0  0  0  0  0  0
  159.6310  210.8760  154.9210 C   0  0  1  0  0  3  0  0  0  0  0  0
  158.6200  211.8740  151.6460 O   0  0  0  0  0  0  0  0  0  0  0  0
  160.8930  209.0540  156.3370 C   0  0  2  0  0  3  0  0  0  0  0  0
  160.1260  211.3420  153.5660 C   0  0  2  0  0  3  0  0  0  0  0  0
  160.1750  209.4280  155.0210 C   0  0  2  0  0  3  0  0  0  0  0  0
  159.2660  212.3570  152.8060 C   0  0  1  0  0  0  0  0  0  0  0  0
  161.4530  210.2910  157.0110 C   0  0  0  0  0  2  0  0  0  0  0  0
  160.9570  209.1390  153.7400 C   0  0  1  0  0  3  0  0  0  0  0  0
  161.5500  205.4720  153.5170 O   0  0  0  0  0  1  0  0  0  0  0  0
  159.0140  213.1980  156.2670 S   0  0  0  0  0  0  0  0  0  0  0  0
  160.4010  211.1900  157.2150 O   0  0  0  0  0  0  0  0  0  0  0  0
  160.7270  207.6950  153.3210 C   0  0  0  0  0  2  0  0  0  0  0  0
  159.7600  212.6840  151.4360 C   0  0  1  0  0  3  0  0  0  0  0  0
  160.1920  211.8380  155.9870 C   0  0  1  0  0  3  0  0  0  0  0  0
  160.3360  210.0940  152.7540 C   0  0  2  0  0  3  0  0  0  0  0  0
  161.9780  207.9850  156.2030 C   0  0  0  0  0  2  0  0  0  0  0  0
  158.5740  213.5330  153.4920 C   0  0  2  0  0  3  0  0  0  0  0  0
  161.6930  206.7570  154.0370 C   0  0  1  0  0  3  0  0  0  0  0  0
  160.9930  211.8510  150.9920 C   0  0  1  0  0  3  0  0  0  0  0  0
  161.1550  210.3750  151.4930 C   0  0  2  0  0  3  0  0  0  0  0  0
  159.3540  214.0770  154.7010 C   0  0  0  0  0  2  0  0  0  0  0  0
  156.4190  214.4530  154.4440 C   0  0  0  0  0  3  0  0  0  0  0  0
  157.0670  213.3220  153.6880 C   0  0  2  0  0  3  0  0  0  0  0  0
  156.7690  212.0390  154.2530 O   0  0  0  0  0  0  0  0  0  0  0  0
  155.2060  210.4230  155.3430 C   0  0  0  0  0  1  0  0  0  0  0  0
  154.9530  212.8430  155.5440 C   0  0  0  0  0  3  0  0  0  0  0  0
  155.6330  211.8130  155.0400 C   0  0  0  0  0  0  0  0  0  0  0  0
  155.4080  214.2180  155.2810 C   0  0  0  0  0  3  0  0  0  0  0  0
  161.1990  213.4400  149.3530 O   0  0  0  0  0  1  0  0  0  0  0  0
  161.3660  212.1170  149.5970 N   0  0  0  0  0  0  0  0  0  0  0  0
  162.6820  211.8340  149.4320 O   0  0  0  0  0  0  0  0  0  0  0  0
  162.9680  212.2100  148.1180 C   0  0  0  0  0  1  0  0  0  0  0  0
  160.7780  209.4140  150.4670 N   0  0  0  0  0  2  0  0  0  0  0  0
  161.9270  208.6680  150.1670 N   0  0  0  0  0  2  0  0  0  0  0  0
  161.8100  208.2500  148.7810 C   0  0  0  0  0  2  0  0  0  0  0  0
  161.0630  206.9330  148.7010 C   0  0  0  0  0  1  0  0  0  0  0  0
  1 17  1  0  0  0  0
  2  6  1  0  0  0  0
  2 15  1  0  0  0  0
  3  7  1  0  0  0  0
  4  8  1  0  0  0  0
  5  2  1  0  0  0  0
  6  4  1  0  0  0  0
  7 18  1  0  0  0  0
  7  5  1  0  0  0  0
  8 12  1  0  0  0  0
  9  6  1  0  0  0  0
 10 19  1  0  0  0  0
 13  9  1  0  0  0  0
 13 19  1  0  0  0  0
 14  3  1  0  0  0  0
 14  7  1  0  0  0  0
 15 11  1  0  0  0  0
 15 12  1  0  0  0  0
 16  5  1  0  0  0  0
 16  9  1  0  0  0  0
 17  4  1  0  0  0  0
 18 24  1  0  0  0  0
 18 22  1  0  0  0  0
 19  1  1  0  0  0  0
 20 14  1  0  0  0  0
 20 21  1  0  0  0  0
 21 16  1  0  0  0  0
 22 11  1  0  0  0  0
 23 29  2  0  0  0  0
 24 25  1  0  0  0  0
 24 23  1  0  0  0  0
 25 28  1  0  0  0  0
 28 26  1  0  0  0  0
 28 27  2  0  0  0  0
 29 27  1  0  0  0  0
 30 31  1  0  0  0  0
 31 20  1  0  0  0  0
 32 31  1  0  0  0  0
 33 32  1  0  0  0  0
 34 21  1  0  0  0  0
 35 34  1  0  0  0  0
 36 35  1  0  0  0  0
 37 36  1  0  0  0  0
M  END
>  <MODEL>
2

>  <REMARK>
 VINA RESULT:      -3.8      3.030      7.732
  Name = 
  6 active torsions:
  status: ('A' for Active; 'I' for Inactive)
    1  A    between atoms: N_1  and  N_23
    2  A    between atoms: N_1  and  C_36
    3  A    between atoms: C_5  and  N_23
    4  A    between atoms: C_6  and  C_31
    5  A    between atoms: O_11  and  N_26
    6  A    between atoms: N_26  and  C_33
                            x       y       z     vdW  Elec       q    Type
                         _______ _______ _______ _____ _____    ______ ____

>  <TORSDO>
F 6

$$$$
=
 OpenBabel11062409103D

 37 43  0  0  1  0  0  0  0  0999 V2000
  161.1980  213.4200  149.1370 C   0  0  0  0  0  2  0  0  0  0  0  0
  159.9500  211.4430  153.0730 C   0  0  1  0  0  3  0  0  0  0  0  0
  161.7170  208.5620  154.2250 O   0  0  0  0  0  0  0  0  0  0  0  0
  159.6010  213.1130  151.0720 C   0  0  2  0  0  3  0  0  0  0  0  0
  160.1490  209.9540  152.8660 C   0  0  2  0  0  3  0  0  0  0  0  0
  160.4980  212.0620  151.7620 C   0  0  2  0  0  3  0  0  0  0  0  0
  160.4130  209.0940  154.1060 C   0  0  1  0  0  0  0  0  0  0  0  0
  158.1470  212.9060  151.4480 C   0  0  0  0  0  2  0  0  0  0  0  0
  160.9700  210.9130  150.8710 C   0  0  1  0  0  3  0  0  0  0  0  0
  163.0540  212.3210  148.1290 O   0  0  0  0  0  1  0  0  0  0  0  0
  158.0860  211.6160  155.0930 S   0  0  0  0  0  0  0  0  0  0  0  0
  158.0470  212.9530  152.8430 O   0  0  0  0  0  0  0  0  0  0  0  0
  162.2290  211.3320  150.1280 C   0  0  0  0  0  2  0  0  0  0  0  0
  160.7080  207.6600  153.8150 C   0  0  1  0  0  3  0  0  0  0  0  0
  158.4470  211.6900  153.3100 C   0  0  1  0  0  3  0  0  0  0  0  0
  161.2670  209.8240  151.8690 C   0  0  2  0  0  3  0  0  0  0  0  0
  159.7500  213.1960  149.5530 C   0  0  0  0  0  2  0  0  0  0  0  0
  159.6730  209.2980  155.4280 C   0  0  2  0  0  3  0  0  0  0  0  0
  161.8840  212.0870  148.8500 C   0  0  1  0  0  3  0  0  0  0  0  0
  160.8030  207.3300  152.3000 C   0  0  1  0  0  3  0  0  0  0  0  0
  161.3520  208.4060  151.3020 C   0  0  2  0  0  3  0  0  0  0  0  0
  158.2310  209.8000  155.2470 C   0  0  0  0  0  2  0  0  0  0  0  0
  159.9090  211.3150  156.9350 C   0  0  0  0  0  3  0  0  0  0  0  0
  160.5180  210.0090  156.4940 C   0  0  2  0  0  3  0  0  0  0  0  0
  161.8880  210.1460  156.0970 O   0  0  0  0  0  0  0  0  0  0  0  0
  164.1700  211.1250  156.3660 C   0  0  0  0  0  1  0  0  0  0  0  0
  162.1470  212.2650  157.1230 C   0  0  0  0  0  3  0  0  0  0  0  0
  162.6980  211.1930  156.5520 C   0  0  0  0  0  0  0  0  0  0  0  0
  160.6850  212.3490  157.2610 C   0  0  0  0  0  3  0  0  0  0  0  0
  161.1300  205.2620  153.2330 O   0  0  0  0  0  1  0  0  0  0  0  0
  161.2160  205.9410  152.0620 N   0  0  0  0  0  0  0  0  0  0  0  0
  160.3480  205.3660  151.1920 O   0  0  0  0  0  0  0  0  0  0  0  0
  161.0550  204.3000  150.6330 C   0  0  0  0  0  1  0  0  0  0  0  0
  162.7310  208.1350  150.9250 N   0  0  0  0  0  2  0  0  0  0  0  0
  162.6880  207.3350  149.7750 N   0  0  0  0  0  2  0  0  0  0  0  0
  161.7710  207.9740  148.8470 C   0  0  0  0  0  2  0  0  0  0  0  0
  161.1970  206.9420  147.8960 C   0  0  0  0  0  1  0  0  0  0  0  0
  1 17  1  0  0  0  0
  2 15  1  0  0  0  0
  4  8  1  0  0  0  0
  4  6  1  0  0  0  0
  5  2  1  0  0  0  0
  5  7  1  0  0  0  0
  6  2  1  0  0  0  0
  7  3  1  0  0  0  0
  7 18  1  0  0  0  0
  8 12  1  0  0  0  0
  9  6  1  0  0  0  0
  9 16  1  0  0  0  0
 10 19  1  0  0  0  0
 11 22  1  0  0  0  0
 12 15  1  0  0  0  0
 13  9  1  0  0  0  0
 14  7  1  0  0  0  0
 14  3  1  0  0  0  0
 15 11  1  0  0  0  0
 16  5  1  0  0  0  0
 17  4  1  0  0  0  0
 18 24  1  0  0  0  0
 19  1  1  0  0  0  0
 19 13  1  0  0  0  0
 20 14  1  0  0  0  0
 21 16  1  0  0  0  0
 21 20  1  0  0  0  0
 22 18  1  0  0  0  0
 23 29  2  0  0  0  0
 24 23  1  0  0  0  0
 25 24  1  0  0  0  0
 25 28  1  0  0  0  0
 26 28  1  0  0  0  0
 27 29  1  0  0  0  0
 28 27  2  0  0  0  0
 31 20  1  0  0  0  0
 31 30  1  0  0  0  0
 32 31  1  0  0  0  0
 33 32  1  0  0  0  0
 34 21  1  0  0  0  0
 35 34  1  0  0  0  0
 36 35  1  0  0  0  0
 37 36  1  0  0  0  0
M  END
>  <MODEL>
3

>  <REMARK>
 VINA RESULT:      -3.8      2.708      6.447
  Name = 
  6 active torsions:
  status: ('A' for Active; 'I' for Inactive)
    1  A    between atoms: N_1  and  N_23
    2  A    between atoms: N_1  and  C_36
    3  A    between atoms: C_5  and  N_23
    4  A    between atoms: C_6  and  C_31
    5  A    between atoms: O_11  and  N_26
    6  A    between atoms: N_26  and  C_33
                            x       y       z     vdW  Elec       q    Type
                         _______ _______ _______ _____ _____    ______ ____

>  <TORSDO>
F 6

$$$$
=
 OpenBabel11062409103D

 37 43  0  0  1  0  0  0  0  0999 V2000
  161.2050  204.9570  152.8180 C   0  0  0  0  0  2  0  0  0  0  0  0
  160.1640  209.3610  153.5110 C   0  0  1  0  0  3  0  0  0  0  0  0
  159.6740  211.5090  150.7010 O   0  0  0  0  0  0  0  0  0  0  0  0
  160.9590  206.9840  154.3070 C   0  0  2  0  0  3  0  0  0  0  0  0
  160.8660  210.1280  152.4070 C   0  0  2  0  0  3  0  0  0  0  0  0
  160.4520  207.8800  153.1560 C   0  0  2  0  0  3  0  0  0  0  0  0
  160.2660  211.4730  151.9840 C   0  0  1  0  0  0  0  0  0  0  0  0
  161.6400  207.8190  155.3750 C   0  0  0  0  0  2  0  0  0  0  0  0
  161.3050  207.8680  151.8870 C   0  0  1  0  0  3  0  0  0  0  0  0
  161.3150  204.4130  150.5030 O   0  0  0  0  0  1  0  0  0  0  0  0
  159.7960  211.2150  155.5140 S   0  0  0  0  0  0  0  0  0  0  0  0
  160.7330  208.7890  155.8140 O   0  0  0  0  0  0  0  0  0  0  0  0
  160.8890  206.6980  151.0090 C   0  0  0  0  0  2  0  0  0  0  0  0
  160.9460  212.1150  150.8210 C   0  0  1  0  0  3  0  0  0  0  0  0
  160.7600  209.8170  154.8570 C   0  0  1  0  0  3  0  0  0  0  0  0
  160.9540  209.1820  151.2420 C   0  0  2  0  0  3  0  0  0  0  0  0
  161.8640  205.8280  153.8800 C   0  0  0  0  0  2  0  0  0  0  0  0
  159.7070  212.4820  152.9850 C   0  0  2  0  0  3  0  0  0  0  0  0
  161.6100  205.4200  151.4210 C   0  0  1  0  0  3  0  0  0  0  0  0
  162.0660  211.2480  150.1840 C   0  0  1  0  0  3  0  0  0  0  0  0
  161.9340  209.6870  150.1810 C   0  0  2  0  0  3  0  0  0  0  0  0
  160.4350  212.4620  154.3400 C   0  0  0  0  0  2  0  0  0  0  0  0
  157.6230  213.8970  153.2090 C   0  0  0  0  0  3  0  0  0  0  0  0
  158.1730  212.5050  153.0320 C   0  0  2  0  0  3  0  0  0  0  0  0
  157.6460  211.5780  153.9890 O   0  0  0  0  0  0  0  0  0  0  0  0
  155.7760  210.6680  155.3730 C   0  0  0  0  0  1  0  0  0  0  0  0
  155.8480  212.9880  154.6140 C   0  0  0  0  0  3  0  0  0  0  0  0
  156.4200  211.7840  154.6340 C   0  0  0  0  0  0  0  0  0  0  0  0
  156.5140  214.1020  153.9210 C   0  0  0  0  0  3  0  0  0  0  0  0
  161.9580  211.3680  147.8990 O   0  0  0  0  0  1  0  0  0  0  0  0
  162.6210  211.8640  148.9720 N   0  0  0  0  0  0  0  0  0  0  0  0
  162.3920  213.2000  149.0130 O   0  0  0  0  0  0  0  0  0  0  0  0
  162.6550  213.6490  147.7170 C   0  0  0  0  0  1  0  0  0  0  0  0
  161.5150  209.1860  148.8810 N   0  0  0  0  0  2  0  0  0  0  0  0
  162.3320  208.0850  148.5870 N   0  0  0  0  0  2  0  0  0  0  0  0
  161.6220  207.2790  147.6090 C   0  0  0  0  0  2  0  0  0  0  0  0
  162.3310  205.9530  147.4210 C   0  0  0  0  0  1  0  0  0  0  0  0
  1 17  1  0  0  0  0
  2 15  1  0  0  0  0
  3 14  1  0  0  0  0
  3  7  1  0  0  0  0
  4  8  1  0  0  0  0
  5  2  1  0  0  0  0
  6  2  1  0  0  0  0
  6  4  1  0  0  0  0
  7  5  1  0  0  0  0
  7 18  1  0  0  0  0
  8 12  1  0  0  0  0
  9  6  1  0  0  0  0
 10 19  1  0  0  0  0
 13 19  1  0  0  0  0
 13  9  1  0  0  0  0
 14  7  1  0  0  0  0
 15 11  1  0  0  0  0
 15 12  1  0  0  0  0
 16  9  1  0  0  0  0
 16  5  1  0  0  0  0
 17  4  1  0  0  0  0
 18 24  1  0  0  0  0
 18 22  1  0  0  0  0
 19  1  1  0  0  0  0
 20 14  1  0  0  0  0
 21 20  1  0  0  0  0
 21 16  1  0  0  0  0
 22 11  1  0  0  0  0
 23 29  2  0  0  0  0
 24 23  1  0  0  0  0
 24 25  1  0  0  0  0
 25 28  1  0  0  0  0
 27 28  2  0  0  0  0
 28 26  1  0  0  0  0
 29 27  1  0  0  0  0
 30 31  1  0  0  0  0
 31 32  1  0  0  0  0
 31 20  1  0  0  0  0
 33 32  1  0  0  0  0
 34 21  1  0  0  0  0
 35 34  1  0  0  0  0
 36 35  1  0  0  0  0
 37 36  1  0  0  0  0
M  END
>  <MODEL>
4

>  <REMARK>
 VINA RESULT:      -3.6      3.107      7.921
  Name = 
  6 active torsions:
  status: ('A' for Active; 'I' for Inactive)
    1  A    between atoms: N_1  and  N_23
    2  A    between atoms: N_1  and  C_36
    3  A    between atoms: C_5  and  N_23
    4  A    between atoms: C_6  and  C_31
    5  A    between atoms: O_11  and  N_26
    6  A    between atoms: N_26  and  C_33
                            x       y       z     vdW  Elec       q    Type
                         _______ _______ _______ _____ _____    ______ ____

>  <TORSDO>
F 6

$$$$
=
 OpenBabel11062409103D

 37 43  0  0  1  0  0  0  0  0999 V2000
  161.4190  206.5970  153.5220 C   0  0  0  0  0  2  0  0  0  0  0  0
  159.7270  210.7740  152.7150 C   0  0  1  0  0  3  0  0  0  0  0  0
  159.6270  212.0070  149.3660 O   0  0  0  0  0  0  0  0  0  0  0  0
  160.6020  208.8610  154.2930 C   0  0  2  0  0  3  0  0  0  0  0  0
  160.5620  211.3440  151.5850 C   0  0  2  0  0  3  0  0  0  0  0  0
  160.2630  209.3270  152.8600 C   0  0  2  0  0  3  0  0  0  0  0  0
  159.9160  212.4060  150.6900 C   0  0  1  0  0  0  0  0  0  0  0  0
  160.9200  210.0490  155.1810 C   0  0  0  0  0  2  0  0  0  0  0  0
  161.3760  209.1420  151.8280 C   0  0  1  0  0  3  0  0  0  0  0  0
  162.1110  205.5060  151.5220 O   0  0  0  0  0  1  0  0  0  0  0  0
  158.6970  212.9830  153.9970 S   0  0  0  0  0  0  0  0  0  0  0  0
  159.8270  210.9210  155.1490 O   0  0  0  0  0  0  0  0  0  0  0  0
  161.3110  207.7310  151.2620 C   0  0  0  0  0  2  0  0  0  0  0  0
  160.7570  212.8400  149.5360 C   0  0  1  0  0  3  0  0  0  0  0  0
  159.9460  211.6580  153.9590 C   0  0  1  0  0  3  0  0  0  0  0  0
  161.0230  210.1620  150.7780 C   0  0  2  0  0  3  0  0  0  0  0  0
  161.7120  207.8140  154.3900 C   0  0  0  0  0  2  0  0  0  0  0  0
  159.0280  213.5220  151.2390 C   0  0  2  0  0  3  0  0  0  0  0  0
  162.0690  206.7500  152.1500 C   0  0  1  0  0  3  0  0  0  0  0  0
  162.0880  212.0520  149.3930 C   0  0  1  0  0  3  0  0  0  0  0  0
  162.1480  210.5450  149.8160 C   0  0  2  0  0  3  0  0  0  0  0  0
  159.4290  213.9800  152.6510 C   0  0  0  0  0  2  0  0  0  0  0  0
  157.0470  213.9180  149.7180 C   0  0  0  0  0  3  0  0  0  0  0  0
  157.5310  213.2840  150.9960 C   0  0  2  0  0  3  0  0  0  0  0  0
  156.7340  213.6470  152.1290 O   0  0  0  0  0  0  0  0  0  0  0  0
  154.5340  214.1440  153.2040 C   0  0  0  0  0  1  0  0  0  0  0  0
  154.9350  214.4520  150.8150 C   0  0  0  0  0  3  0  0  0  0  0  0
  155.4060  214.0750  152.0040 C   0  0  0  0  0  0  0  0  0  0  0  0
  155.8170  214.4280  149.6380 C   0  0  0  0  0  3  0  0  0  0  0  0
  162.1410  211.9560  147.1040 O   0  0  0  0  0  1  0  0  0  0  0  0
  162.8230  212.4250  148.1780 N   0  0  0  0  0  0  0  0  0  0  0  0
  162.8570  213.7780  148.0820 O   0  0  0  0  0  0  0  0  0  0  0  0
  162.7490  214.0430  146.7150 C   0  0  0  0  0  1  0  0  0  0  0  0
  162.0960  209.6600  148.6610 N   0  0  0  0  0  2  0  0  0  0  0  0
  162.5770  208.4130  149.0810 N   0  0  0  0  0  2  0  0  0  0  0  0
  162.6420  207.5640  147.9040 C   0  0  0  0  0  2  0  0  0  0  0  0
  161.2480  207.1080  147.5200 C   0  0  0  0  0  1  0  0  0  0  0  0
  1 17  1  0  0  0  0
  2  6  1  0  0  0  0
  2 15  1  0  0  0  0
  3 14  1  0  0  0  0
  3  7  1  0  0  0  0
  4 17  1  0  0  0  0
  4  8  1  0  0  0  0
  5  2  1  0  0  0  0
  6  4  1  0  0  0  0
  7 18  1  0  0  0  0
  7  5  1  0  0  0  0
  9  6  1  0  0  0  0
 10 19  1  0  0  0  0
 12  8  1  0  0  0  0
 13  9  1  0  0  0  0
 13 19  1  0  0  0  0
 14  7  1  0  0  0  0
 15 11  1  0  0  0  0
 15 12  1  0  0  0  0
 16  5  1  0  0  0  0
 16  9  1  0  0  0  0
 18 22  1  0  0  0  0
 19  1  1  0  0  0  0
 20 14  1  0  0  0  0
 20 21  1  0  0  0  0
 21 16  1  0  0  0  0
 22 11  1  0  0  0  0
 23 24  1  0  0  0  0
 24 18  1  0  0  0  0
 24 25  1  0  0  0  0
 27 28  2  0  0  0  0
 28 25  1  0  0  0  0
 28 26  1  0  0  0  0
 29 23  2  0  0  0  0
 29 27  1  0  0  0  0
 30 31  1  0  0  0  0
 31 20  1  0  0  0  0
 32 31  1  0  0  0  0
 33 32  1  0  0  0  0
 34 35  1  0  0  0  0
 34 21  1  0  0  0  0
 36 35  1  0  0  0  0
 37 36  1  0  0  0  0
M  END
>  <MODEL>
5

>  <REMARK>
 VINA RESULT:      -2.6      3.321      8.059
  Name = 
  6 active torsions:
  status: ('A' for Active; 'I' for Inactive)
    1  A    between atoms: N_1  and  N_23
    2  A    between atoms: N_1  and  C_36
    3  A    between atoms: C_5  and  N_23
    4  A    between atoms: C_6  and  C_31
    5  A    between atoms: O_11  and  N_26
    6  A    between atoms: N_26  and  C_33
                            x       y       z     vdW  Elec       q    Type
                         _______ _______ _______ _____ _____    ______ ____

>  <TORSDO>
F 6

$$$$
