=
 OpenBabel11052421443D

 30 34  0  0  1  0  0  0  0  0999 V2000
  159.6190  212.4030  152.9400 C   0  0  2  0  0  3  0  0  0  0  0  0
  161.4940  210.4960  153.3530 C   0  0  1  0  0  3  0  0  0  0  0  0
  159.1010  212.1170  155.7600 C   0  0  2  0  0  0  0  0  0  0  0  0
  158.1400  212.2540  152.8500 N   0  0  2  0  0  0  0  0  0  0  0  0
  160.2140  212.6380  151.5670 C   0  0  0  0  0  2  0  0  0  0  0  0
  157.4630  213.5880  149.9900 N   0  0  0  0  0  2  0  0  0  0  0  0
  158.1200  214.1100  151.1800 C   0  0  2  0  0  3  0  0  0  0  0  0
  159.7740  213.7960  149.5000 N   0  0  0  0  0  2  0  0  0  0  0  0
  159.6480  213.9210  150.9440 C   0  0  2  0  0  3  0  0  0  0  0  0
  157.5570  213.5610  152.5120 C   0  0  1  0  0  3  0  0  0  0  0  0
  162.2800  209.8310  154.4740 C   0  0  0  0  0  3  0  0  0  0  0  0
  158.2480  213.2310  147.8070 O   0  0  0  0  0  0  0  0  0  0  0  0
  160.7840  209.2440  152.3020 Cl  0  0  0  0  0  0  0  0  0  0  0  0
  159.9300  210.9480  156.3930 C   0  0  2  0  0  3  0  0  0  0  0  0
  162.2680  210.1190  155.7980 C   0  0  0  0  0  3  0  0  0  0  0  0
  158.4780  213.5200  149.0100 C   0  0  0  0  0  0  0  0  0  0  0  0
  160.4200  211.4460  153.8640 C   0  0  2  0  0  3  0  0  0  0  0  0
  157.4780  211.6340  153.9000 O   0  0  0  0  0  0  0  0  0  0  0  0
  157.6710  212.2940  155.1640 C   0  0  1  0  0  3  0  0  0  0  0  0
  161.4500  211.1970  156.4840 C   0  0  0  0  0  2  0  0  0  0  0  0
  159.5680  210.8830  154.9620 C   0  0  2  0  0  3  0  0  0  0  0  0
  159.8790  213.2880  155.6140 O   0  0  0  0  0  0  0  0  0  0  0  0
  159.1070  214.3350  156.1230 C   0  0  0  0  0  1  0  0  0  0  0  0
  155.4890  214.4530  153.7030 C   0  0  0  0  0  1  0  0  0  0  0  0
  156.0220  213.5870  152.5720 C   0  0  0  0  0  2  0  0  0  0  0  0
  156.6050  211.8210  156.1590 C   0  0  1  0  0  3  0  0  0  0  0  0
  154.3620  212.6130  157.2610 C   0  0  0  0  0  1  0  0  0  0  0  0
  156.0850  213.1810  157.2550 S   0  0  0  0  0  0  0  0  0  0  0  0
  155.3830  211.2870  155.4270 C   0  0  0  0  0  2  0  0  0  0  0  0
  155.2090  209.9330  155.7150 O   0  0  0  0  0  1  0  0  0  0  0  0
  1  5  1  6  0  0  0
  1 17  1  0  0  0  0
  2 13  1  1  0  0  0
  2 17  1  0  0  0  0
  2 11  1  0  0  0  0
  3 22  1  6  0  0  0
  3 14  1  0  0  0  0
  4  1  1  0  0  0  0
  4 18  1  1  0  0  0
  7  6  1  6  0  0  0
  7 10  1  0  0  0  0
  8  9  1  0  0  0  0
  9  7  1  0  0  0  0
  9  5  1  1  0  0  0
 10 25  1  6  0  0  0
 10  4  1  0  0  0  0
 11 15  2  0  0  0  0
 12 16  2  0  0  0  0
 14 20  1  6  0  0  0
 15 20  1  0  0  0  0
 16  8  1  0  0  0  0
 16  6  1  0  0  0  0
 17 21  1  0  0  0  0
 18 19  1  0  0  0  0
 19  3  1  0  0  0  0
 19 26  1  0  0  0  0
 21  3  1  0  0  0  0
 21 14  1  0  0  0  0
 22 23  1  0  0  0  0
 25 24  1  0  0  0  0
 26 28  1  0  0  0  0
 28 27  1  0  0  0  0
 29 30  1  0  0  0  0
 29 26  1  0  0  0  0
M  END
>  <MODEL>
1

>  <REMARK>
 VINA RESULT:      -3.8      0.000      0.000
  Name = 
  5 active torsions:
  status: ('A' for Active; 'I' for Inactive)
    1  A    between atoms: C_3  and  O_11
    2  A    between atoms: C_10  and  C_15
    3  A    between atoms: C_10  and  C_25
    4  A    between atoms: C_10  and  S_26
    5  A    between atoms: C_13  and  C_30
                            x       y       z     vdW  Elec       q    Type
                         _______ _______ _______ _____ _____    ______ ____

>  <TORSDO>
F 5

$$$$
=
 OpenBabel11052421443D

 30 34  0  0  1  0  0  0  0  0999 V2000
  161.4200  207.8430  153.2840 C   0  0  2  0  0  3  0  0  0  0  0  0
  160.5270  207.8370  155.8380 C   0  0  1  0  0  3  0  0  0  0  0  0
  161.5800  210.6980  153.6340 C   0  0  2  0  0  0  0  0  0  0  0  0
  160.6940  208.2290  152.0420 N   0  0  2  0  0  0  0  0  0  0  0  0
  161.5610  206.3370  153.3690 C   0  0  0  0  0  2  0  0  0  0  0  0
  161.0020  205.6040  150.1900 N   0  0  0  0  0  2  0  0  0  0  0  0
  161.9840  206.4760  150.8190 C   0  0  2  0  0  3  0  0  0  0  0  0
  161.9760  204.4050  151.9900 N   0  0  0  0  0  2  0  0  0  0  0  0
  162.3550  205.7980  152.1720 C   0  0  2  0  0  3  0  0  0  0  0  0
  161.5650  207.9630  150.8880 C   0  0  1  0  0  3  0  0  0  0  0  0
  160.4800  208.7190  157.0790 C   0  0  0  0  0  3  0  0  0  0  0  0
  160.5100  203.3310  150.5030 O   0  0  0  0  0  0  0  0  0  0  0  0
  158.9010  207.1850  155.5130 Cl  0  0  0  0  0  0  0  0  0  0  0  0
  160.9910  211.1540  155.0130 C   0  0  2  0  0  3  0  0  0  0  0  0
  161.0230  209.9470  157.2600 C   0  0  0  0  0  3  0  0  0  0  0  0
  161.1200  204.3700  150.8660 C   0  0  0  0  0  0  0  0  0  0  0  0
  161.0740  208.5610  154.6160 C   0  0  2  0  0  3  0  0  0  0  0  0
  160.1120  209.4880  151.9880 O   0  0  0  0  0  0  0  0  0  0  0  0
  161.0540  210.5600  152.1720 C   0  0  1  0  0  3  0  0  0  0  0  0
  161.8220  210.7450  156.2470 C   0  0  0  0  0  2  0  0  0  0  0  0
  160.4800  209.9180  154.3830 C   0  0  2  0  0  3  0  0  0  0  0  0
  162.8970  210.2050  153.7670 O   0  0  0  0  0  0  0  0  0  0  0  0
  163.5450  210.4950  152.5630 C   0  0  0  0  0  1  0  0  0  0  0  0
  162.0970  208.8080  148.5440 C   0  0  0  0  0  1  0  0  0  0  0  0
  161.0080  208.4920  149.5580 C   0  0  0  0  0  2  0  0  0  0  0  0
  160.4350  211.8760  151.6900 C   0  0  1  0  0  3  0  0  0  0  0  0
  160.0350  213.8160  149.9730 C   0  0  0  0  0  1  0  0  0  0  0  0
  160.8910  212.2170  149.9580 S   0  0  0  0  0  0  0  0  0  0  0  0
  158.9190  211.8320  151.7980 C   0  0  0  0  0  2  0  0  0  0  0  0
  158.5020  212.5110  152.9430 O   0  0  0  0  0  1  0  0  0  0  0  0
  1  5  1  1  0  0  0
  1 17  1  0  0  0  0
  2 13  1  6  0  0  0
  2 11  1  0  0  0  0
  3 22  1  1  0  0  0
  3 21  1  0  0  0  0
  3 14  1  0  0  0  0
  4 18  1  1  0  0  0
  4  1  1  0  0  0  0
  6 16  1  0  0  0  0
  7  6  1  1  0  0  0
  7 10  1  0  0  0  0
  7  9  1  0  0  0  0
  8  9  1  0  0  0  0
  9  5  1  1  0  0  0
 10 25  1  6  0  0  0
 10  4  1  0  0  0  0
 11 15  2  0  0  0  0
 12 16  2  0  0  0  0
 14 20  1  1  0  0  0
 16  8  1  0  0  0  0
 17  2  1  0  0  0  0
 18 19  1  0  0  0  0
 19  3  1  0  0  0  0
 20 15  1  0  0  0  0
 21 17  1  0  0  0  0
 21 14  1  0  0  0  0
 23 22  1  0  0  0  0
 24 25  1  0  0  0  0
 26 29  1  0  0  0  0
 26 19  1  0  0  0  0
 28 27  1  0  0  0  0
 28 26  1  0  0  0  0
 29 30  1  0  0  0  0
M  END
>  <MODEL>
2

>  <REMARK>
 VINA RESULT:      -3.6      4.415      6.494
  Name = 
  5 active torsions:
  status: ('A' for Active; 'I' for Inactive)
    1  A    between atoms: C_3  and  O_11
    2  A    between atoms: C_10  and  C_15
    3  A    between atoms: C_10  and  C_25
    4  A    between atoms: C_10  and  S_26
    5  A    between atoms: C_13  and  C_30
                            x       y       z     vdW  Elec       q    Type
                         _______ _______ _______ _____ _____    ______ ____

>  <TORSDO>
F 5

$$$$
=
 OpenBabel11052421443D

 30 34  0  0  1  0  0  0  0  0999 V2000
  161.1790  210.1010  151.8510 C   0  0  2  0  0  3  0  0  0  0  0  0
  161.4680  207.4130  151.9520 C   0  0  1  0  0  3  0  0  0  0  0  0
  160.4100  209.8480  154.6160 C   0  0  2  0  0  0  0  0  0  0  0  0
  159.9260  210.9030  151.7760 N   0  0  2  0  0  0  0  0  0  0  0  0
  161.8820  210.0890  150.5090 C   0  0  0  0  0  2  0  0  0  0  0  0
  160.3940  212.7110  149.1430 N   0  0  0  0  0  2  0  0  0  0  0  0
  161.1530  212.5690  150.3780 C   0  0  2  0  0  3  0  0  0  0  0  0
  162.3780  211.5160  148.6320 N   0  0  0  0  0  2  0  0  0  0  0  0
  162.2590  211.5140  150.0820 C   0  0  2  0  0  3  0  0  0  0  0  0
  160.2860  212.3220  151.6340 C   0  0  1  0  0  3  0  0  0  0  0  0
  161.6080  206.2730  152.9520 C   0  0  0  0  0  3  0  0  0  0  0  0
  160.9400  212.2200  146.9140 O   0  0  0  0  0  0  0  0  0  0  0  0
  160.2120  207.0000  150.7560 Cl  0  0  0  0  0  0  0  0  0  0  0  0
  160.3080  208.3500  155.0620 C   0  0  2  0  0  3  0  0  0  0  0  0
  161.6870  206.3420  154.3030 C   0  0  0  0  0  3  0  0  0  0  0  0
  161.2180  212.1570  148.1400 C   0  0  0  0  0  0  0  0  0  0  0  0
  161.1660  208.7500  152.6140 C   0  0  2  0  0  3  0  0  0  0  0  0
  158.9560  210.6960  152.7460 O   0  0  0  0  0  0  0  0  0  0  0  0
  159.4280  210.9370  154.0840 C   0  0  1  0  0  3  0  0  0  0  0  0
  161.6540  207.6010  155.1500 C   0  0  0  0  0  2  0  0  0  0  0  0
  160.0770  208.6980  153.6440 C   0  0  2  0  0  3  0  0  0  0  0  0
  161.7480  210.3020  154.6130 O   0  0  0  0  0  0  0  0  0  0  0  0
  161.8970  211.0800  155.7650 C   0  0  0  0  0  1  0  0  0  0  0  0
  159.3310  214.4370  152.6860 C   0  0  0  0  0  1  0  0  0  0  0  0
  159.0860  213.2760  151.7340 C   0  0  0  0  0  2  0  0  0  0  0  0
  158.2320  211.1000  155.0290 C   0  0  1  0  0  3  0  0  0  0  0  0
  157.3790  213.5180  155.5730 C   0  0  0  0  0  1  0  0  0  0  0  0
  158.5710  212.3600  156.3010 S   0  0  0  0  0  0  0  0  0  0  0  0
  156.9850  211.5050  154.2570 C   0  0  0  0  0  2  0  0  0  0  0  0
  155.9080  210.7040  154.6370 O   0  0  0  0  0  1  0  0  0  0  0  0
  1  5  1  6  0  0  0
  1 17  1  0  0  0  0
  2 13  1  6  0  0  0
  2 17  1  0  0  0  0
  2 11  1  0  0  0  0
  3 22  1  6  0  0  0
  3 14  1  0  0  0  0
  4  1  1  0  0  0  0
  4 18  1  1  0  0  0
  7  6  1  6  0  0  0
  7 10  1  0  0  0  0
  8  9  1  0  0  0  0
  9  7  1  0  0  0  0
  9  5  1  6  0  0  0
 10 25  1  6  0  0  0
 10  4  1  0  0  0  0
 11 15  2  0  0  0  0
 12 16  2  0  0  0  0
 14 20  1  6  0  0  0
 15 20  1  0  0  0  0
 16  8  1  0  0  0  0
 16  6  1  0  0  0  0
 17 21  1  0  0  0  0
 18 19  1  0  0  0  0
 19  3  1  0  0  0  0
 19 26  1  0  0  0  0
 21  3  1  0  0  0  0
 21 14  1  0  0  0  0
 22 23  1  0  0  0  0
 25 24  1  0  0  0  0
 26 28  1  0  0  0  0
 27 28  1  0  0  0  0
 29 30  1  0  0  0  0
 29 26  1  0  0  0  0
M  END
>  <MODEL>
3

>  <REMARK>
 VINA RESULT:      -2.8      2.385      3.171
  Name = 
  5 active torsions:
  status: ('A' for Active; 'I' for Inactive)
    1  A    between atoms: C_3  and  O_11
    2  A    between atoms: C_10  and  C_15
    3  A    between atoms: C_10  and  C_25
    4  A    between atoms: C_10  and  S_26
    5  A    between atoms: C_13  and  C_30
                            x       y       z     vdW  Elec       q    Type
                         _______ _______ _______ _____ _____    ______ ____

>  <TORSDO>
F 5

$$$$
=
 OpenBabel11052421443D

 30 34  0  0  1  0  0  0  0  0999 V2000
  161.6100  213.5810  140.1700 C   0  0  2  0  0  3  0  0  0  0  0  0
  161.1580  213.8960  142.8190 C   0  0  1  0  0  3  0  0  0  0  0  0
  158.7700  213.1210  140.0180 C   0  0  2  0  0  0  0  0  0  0  0  0
  161.6620  212.3220  139.3750 N   0  0  2  0  0  0  0  0  0  0  0  0
  163.0050  214.1330  140.3800 C   0  0  0  0  0  2  0  0  0  0  0  0
  164.5610  212.4880  137.9650 N   0  0  0  0  0  2  0  0  0  0  0  0
  163.4090  213.3780  137.9370 C   0  0  2  0  0  3  0  0  0  0  0  0
  165.1100  214.4120  139.2400 N   0  0  0  0  0  2  0  0  0  0  0  0
  163.6700  214.4530  139.0340 C   0  0  2  0  0  3  0  0  0  0  0  0
  162.0430  212.6560  137.9940 C   0  0  1  0  0  3  0  0  0  0  0  0
  160.0270  214.1530  143.8050 C   0  0  0  0  0  3  0  0  0  0  0  0
  166.7430  212.7900  138.7750 O   0  0  0  0  0  0  0  0  0  0  0  0
  162.1380  212.5200  143.3860 Cl  0  0  0  0  0  0  0  0  0  0  0  0
  158.1060  213.0790  141.4360 C   0  0  2  0  0  3  0  0  0  0  0  0
  158.7160  214.3780  143.5440 C   0  0  0  0  0  3  0  0  0  0  0  0
  165.5590  213.2010  138.6650 C   0  0  0  0  0  0  0  0  0  0  0  0
  160.6650  213.6600  141.3980 C   0  0  2  0  0  3  0  0  0  0  0  0
  160.5720  211.4660  139.4320 O   0  0  0  0  0  0  0  0  0  0  0  0
  159.3420  212.0800  139.0070 C   0  0  1  0  0  3  0  0  0  0  0  0
  158.0590  214.4310  142.1780 C   0  0  0  0  0  2  0  0  0  0  0  0
  159.5250  212.6910  141.2920 C   0  0  2  0  0  3  0  0  0  0  0  0
  158.9840  214.4480  139.5810 O   0  0  0  0  0  0  0  0  0  0  0  0
  158.8110  214.4340  138.1940 C   0  0  0  0  0  1  0  0  0  0  0  0
  162.3610  210.1490  137.6620 C   0  0  0  0  0  1  0  0  0  0  0  0
  161.9500  211.4680  137.0240 C   0  0  0  0  0  2  0  0  0  0  0  0
  158.3050  210.9930  138.7000 C   0  0  1  0  0  3  0  0  0  0  0  0
  156.1060  211.9350  137.6270 C   0  0  0  0  0  1  0  0  0  0  0  0
  157.6390  211.1840  137.0140 S   0  0  0  0  0  0  0  0  0  0  0  0
  158.9180  209.6080  138.8320 C   0  0  0  0  0  2  0  0  0  0  0  0
  158.7290  208.8880  137.6520 O   0  0  0  0  0  1  0  0  0  0  0  0
  1  5  1  1  0  0  0
  1 17  1  0  0  0  0
  2 13  1  1  0  0  0
  2 11  1  0  0  0  0
  3 22  1  6  0  0  0
  3 21  1  0  0  0  0
  3 14  1  0  0  0  0
  4 18  1  6  0  0  0
  4  1  1  0  0  0  0
  6 16  1  0  0  0  0
  7  6  1  1  0  0  0
  7 10  1  0  0  0  0
  7  9  1  0  0  0  0
  9  8  1  0  0  0  0
  9  5  1  1  0  0  0
 10 25  1  6  0  0  0
 10  4  1  0  0  0  0
 14 20  1  1  0  0  0
 15 11  2  0  0  0  0
 16 12  2  0  0  0  0
 16  8  1  0  0  0  0
 17  2  1  0  0  0  0
 19 18  1  0  0  0  0
 19  3  1  0  0  0  0
 20 15  1  0  0  0  0
 21 17  1  0  0  0  0
 21 14  1  0  0  0  0
 23 22  1  0  0  0  0
 25 24  1  0  0  0  0
 26 29  1  0  0  0  0
 26 19  1  0  0  0  0
 28 27  1  0  0  0  0
 28 26  1  0  0  0  0
 30 29  1  0  0  0  0
M  END
>  <MODEL>
4

>  <REMARK>
 VINA RESULT:      -2.4     12.012     14.984
  Name = 
  5 active torsions:
  status: ('A' for Active; 'I' for Inactive)
    1  A    between atoms: C_3  and  O_11
    2  A    between atoms: C_10  and  C_15
    3  A    between atoms: C_10  and  C_25
    4  A    between atoms: C_10  and  S_26
    5  A    between atoms: C_13  and  C_30
                            x       y       z     vdW  Elec       q    Type
                         _______ _______ _______ _____ _____    ______ ____

>  <TORSDO>
F 5

$$$$
=
 OpenBabel11052421443D

 30 34  0  0  1  0  0  0  0  0999 V2000
  160.1010  211.8040  153.4850 C   0  0  2  0  0  3  0  0  0  0  0  0
  159.8330  212.9940  151.0700 C   0  0  1  0  0  3  0  0  0  0  0  0
  161.6660  209.8580  152.0480 C   0  0  2  0  0  0  0  0  0  0  0  0
  159.4190  210.5870  154.0070 N   0  0  2  0  0  0  0  0  0  0  0  0
  159.5210  213.0510  154.1220 C   0  0  0  0  0  2  0  0  0  0  0  0
  158.0710  211.6420  156.7430 N   0  0  0  0  0  2  0  0  0  0  0  0
  159.4510  211.6210  156.2800 C   0  0  2  0  0  3  0  0  0  0  0  0
  158.6870  213.8730  156.2280 N   0  0  0  0  0  2  0  0  0  0  0  0
  159.7110  213.0200  155.6450 C   0  0  2  0  0  3  0  0  0  0  0  0
  159.8140  210.3940  155.4100 C   0  0  1  0  0  3  0  0  0  0  0  0
  160.4550  213.0070  149.6810 C   0  0  0  0  0  3  0  0  0  0  0  0
  156.6280  213.4180  157.2600 O   0  0  0  0  0  0  0  0  0  0  0  0
  158.0640  212.8280  150.9260 Cl  0  0  0  0  0  0  0  0  0  0  0  0
  161.6480  210.1170  150.5030 C   0  0  2  0  0  3  0  0  0  0  0  0
  161.5400  212.3280  149.2370 C   0  0  0  0  0  3  0  0  0  0  0  0
  157.7170  213.0080  156.7820 C   0  0  0  0  0  0  0  0  0  0  0  0
  160.4070  211.9060  151.9670 C   0  0  2  0  0  3  0  0  0  0  0  0
  159.5090  209.4170  153.2660 O   0  0  0  0  0  0  0  0  0  0  0  0
  160.8630  208.9780  153.0560 C   0  0  1  0  0  3  0  0  0  0  0  0
  162.4070  211.3780  150.0420 C   0  0  0  0  0  2  0  0  0  0  0  0
  160.4980  210.5560  151.3210 C   0  0  2  0  0  3  0  0  0  0  0  0
  162.5860  210.7030  152.7080 O   0  0  0  0  0  0  0  0  0  0  0  0
  162.9060  210.0670  153.9110 C   0  0  0  0  0  1  0  0  0  0  0  0
  160.3630  208.4120  156.9150 C   0  0  0  0  0  1  0  0  0  0  0  0
  159.3280  209.0670  156.0130 C   0  0  0  0  0  2  0  0  0  0  0  0
  160.8650  207.5100  152.6160 C   0  0  1  0  0  3  0  0  0  0  0  0
  161.2590  206.5120  150.2250 C   0  0  0  0  0  1  0  0  0  0  0  0
  162.3080  207.1450  151.5640 S   0  0  0  0  0  0  0  0  0  0  0  0
  160.8920  206.5850  153.8240 C   0  0  0  0  0  2  0  0  0  0  0  0
  161.2050  205.2860  153.4230 O   0  0  0  0  0  1  0  0  0  0  0  0
  1  4  1  0  0  0  0
  1  5  1  6  0  0  0
  2 13  1  6  0  0  0
  2 17  1  0  0  0  0
  3 22  1  1  0  0  0
  3 19  1  0  0  0  0
  4 18  1  6  0  0  0
  4 10  1  0  0  0  0
  6 16  1  0  0  0  0
  7  6  1  6  0  0  0
  8 16  1  0  0  0  0
  9  5  1  6  0  0  0
  9  8  1  0  0  0  0
  9  7  1  0  0  0  0
 10 25  1  1  0  0  0
 10  7  1  0  0  0  0
 11  2  1  0  0  0  0
 14 20  1  1  0  0  0
 14 21  1  0  0  0  0
 14  3  1  0  0  0  0
 15 11  2  0  0  0  0
 15 20  1  0  0  0  0
 16 12  2  0  0  0  0
 17  1  1  0  0  0  0
 19 18  1  0  0  0  0
 21 17  1  0  0  0  0
 21  3  1  0  0  0  0
 22 23  1  0  0  0  0
 25 24  1  0  0  0  0
 26 19  1  0  0  0  0
 26 29  1  0  0  0  0
 27 28  1  0  0  0  0
 28 26  1  0  0  0  0
 30 29  1  0  0  0  0
M  END
>  <MODEL>
5

>  <REMARK>
 VINA RESULT:      -2.1      3.528      6.343
  Name = 
  5 active torsions:
  status: ('A' for Active; 'I' for Inactive)
    1  A    between atoms: C_3  and  O_11
    2  A    between atoms: C_10  and  C_15
    3  A    between atoms: C_10  and  C_25
    4  A    between atoms: C_10  and  S_26
    5  A    between atoms: C_13  and  C_30
                            x       y       z     vdW  Elec       q    Type
                         _______ _______ _______ _____ _____    ______ ____

>  <TORSDO>
F 5

$$$$
=
 OpenBabel11052421443D

 30 34  0  0  1  0  0  0  0  0999 V2000
  160.4710  209.6110  152.4310 C   0  0  2  0  0  3  0  0  0  0  0  0
  160.8560  211.4560  150.4900 C   0  0  1  0  0  3  0  0  0  0  0  0
  159.3230  211.8030  153.9070 C   0  0  2  0  0  0  0  0  0  0  0  0
  161.2340  209.4120  153.6940 N   0  0  2  0  0  0  0  0  0  0  0  0
  160.8200  208.5340  151.4250 C   0  0  0  0  0  2  0  0  0  0  0  0
  162.1330  206.3180  153.5030 N   0  0  0  0  0  2  0  0  0  0  0  0
  160.8260  206.9580  153.4780 C   0  0  2  0  0  3  0  0  0  0  0  0
  161.3100  206.1790  151.2830 N   0  0  0  0  0  2  0  0  0  0  0  0
  160.4690  207.1450  151.9730 C   0  0  2  0  0  3  0  0  0  0  0  0
  160.7140  208.2150  154.3720 C   0  0  1  0  0  3  0  0  0  0  0  0
  160.3940  212.8430  150.0660 C   0  0  0  0  0  3  0  0  0  0  0  0
  163.2830  205.0590  151.8900 O   0  0  0  0  0  0  0  0  0  0  0  0
  162.6370  211.3900  150.4580 Cl  0  0  0  0  0  0  0  0  0  0  0  0
  159.4800  213.1660  153.1510 C   0  0  2  0  0  3  0  0  0  0  0  0
  159.4550  213.6320  150.6430 C   0  0  0  0  0  3  0  0  0  0  0  0
  162.3120  205.7960  152.2040 C   0  0  0  0  0  0  0  0  0  0  0  0
  160.3240  211.0450  151.8550 C   0  0  2  0  0  3  0  0  0  0  0  0
  161.3700  210.4910  154.5550 O   0  0  0  0  0  0  0  0  0  0  0  0
  160.1110  211.0240  155.0050 C   0  0  1  0  0  3  0  0  0  0  0  0
  158.6270  213.3060  151.8720 C   0  0  0  0  0  2  0  0  0  0  0  0
  160.4700  212.0930  152.9180 C   0  0  2  0  0  3  0  0  0  0  0  0
  158.2390  211.0490  153.4050 O   0  0  0  0  0  0  0  0  0  0  0  0
  157.2480  211.0880  154.3900 C   0  0  0  0  0  1  0  0  0  0  0  0
  160.3020  207.3400  156.7300 C   0  0  0  0  0  1  0  0  0  0  0  0
  161.2890  208.0040  155.7810 C   0  0  0  0  0  2  0  0  0  0  0  0
  160.3370  211.9030  156.2400 C   0  0  1  0  0  3  0  0  0  0  0  0
  159.0570  214.1170  156.8130 C   0  0  0  0  0  1  0  0  0  0  0  0
  158.7540  212.3410  157.0290 S   0  0  0  0  0  0  0  0  0  0  0  0
  161.2120  211.1890  157.2590 C   0  0  0  0  0  2  0  0  0  0  0  0
  162.4930  211.7400  157.2580 O   0  0  0  0  0  1  0  0  0  0  0  0
  1  5  1  6  0  0  0
  1  4  1  0  0  0  0
  2 13  1  1  0  0  0
  2 17  1  0  0  0  0
  3 22  1  6  0  0  0
  3 19  1  0  0  0  0
  4 10  1  0  0  0  0
  4 18  1  1  0  0  0
  7  6  1  6  0  0  0
  7 10  1  0  0  0  0
  8  9  1  0  0  0  0
  8 16  1  0  0  0  0
  9  5  1  6  0  0  0
  9  7  1  0  0  0  0
 10 25  1  1  0  0  0
 11  2  1  0  0  0  0
 11 15  2  0  0  0  0
 12 16  2  0  0  0  0
 14 20  1  6  0  0  0
 14  3  1  0  0  0  0
 15 20  1  0  0  0  0
 16  6  1  0  0  0  0
 17  1  1  0  0  0  0
 17 21  1  0  0  0  0
 18 19  1  0  0  0  0
 19 26  1  0  0  0  0
 21 14  1  0  0  0  0
 21  3  1  0  0  0  0
 22 23  1  0  0  0  0
 25 24  1  0  0  0  0
 26 28  1  0  0  0  0
 26 29  1  0  0  0  0
 27 28  1  0  0  0  0
 30 29  1  0  0  0  0
M  END
>  <MODEL>
6

>  <REMARK>
 VINA RESULT:      -2.0      3.375      5.927
  Name = 
  5 active torsions:
  status: ('A' for Active; 'I' for Inactive)
    1  A    between atoms: C_3  and  O_11
    2  A    between atoms: C_10  and  C_15
    3  A    between atoms: C_10  and  C_25
    4  A    between atoms: C_10  and  S_26
    5  A    between atoms: C_13  and  C_30
                            x       y       z     vdW  Elec       q    Type
                         _______ _______ _______ _____ _____    ______ ____

>  <TORSDO>
F 5

$$$$
=
 OpenBabel11052421443D

 30 34  0  0  1  0  0  0  0  0999 V2000
  161.6310  204.3900  148.6660 C   0  0  2  0  0  3  0  0  0  0  0  0
  160.7080  201.9500  149.3840 C   0  0  1  0  0  3  0  0  0  0  0  0
  161.6190  204.9250  151.4970 C   0  0  2  0  0  0  0  0  0  0  0  0
  160.8990  205.6860  148.6140 N   0  0  2  0  0  0  0  0  0  0  0  0
  161.8580  203.8520  147.2680 C   0  0  0  0  0  2  0  0  0  0  0  0
  161.3830  206.6550  145.5730 N   0  0  0  0  0  2  0  0  0  0  0  0
  162.3040  206.3260  146.6510 C   0  0  2  0  0  3  0  0  0  0  0  0
  162.4020  204.5810  145.0370 N   0  0  0  0  0  2  0  0  0  0  0  0
  162.6970  204.8330  146.4390 C   0  0  2  0  0  3  0  0  0  0  0  0
  161.7980  206.7100  148.0620 C   0  0  1  0  0  3  0  0  0  0  0  0
  160.5940  201.0360  150.5960 C   0  0  0  0  0  3  0  0  0  0  0  0
  161.0200  205.6630  143.4770 O   0  0  0  0  0  0  0  0  0  0  0  0
  159.1270  202.0520  148.5680 Cl  0  0  0  0  0  0  0  0  0  0  0  0
  160.9880  203.7470  152.3140 C   0  0  2  0  0  3  0  0  0  0  0  0
  161.0610  201.2390  151.8520 C   0  0  0  0  0  3  0  0  0  0  0  0
  161.5640  205.6360  144.6120 C   0  0  0  0  0  0  0  0  0  0  0  0
  161.2270  203.3380  149.7330 C   0  0  2  0  0  3  0  0  0  0  0  0
  160.2450  206.1170  149.7590 O   0  0  0  0  0  0  0  0  0  0  0  0
  161.1210  206.2730  150.8900 C   0  0  1  0  0  3  0  0  0  0  0  0
  161.8260  202.4520  152.3500 C   0  0  0  0  0  2  0  0  0  0  0  0
  160.5570  203.9680  150.9180 C   0  0  2  0  0  3  0  0  0  0  0  0
  162.9610  204.6560  151.1470 O   0  0  0  0  0  0  0  0  0  0  0  0
  163.6640  205.8470  151.3540 C   0  0  0  0  0  1  0  0  0  0  0  0
  162.2650  209.1690  148.5380 C   0  0  0  0  0  1  0  0  0  0  0  0
  161.2280  208.1350  148.1280 C   0  0  0  0  0  2  0  0  0  0  0  0
  160.4320  207.1290  151.9590 C   0  0  1  0  0  3  0  0  0  0  0  0
  160.4830  208.2380  154.3330 C   0  0  0  0  0  1  0  0  0  0  0  0
  160.9590  206.6340  153.6320 S   0  0  0  0  0  0  0  0  0  0  0  0
  160.7530  208.6020  151.7600 C   0  0  0  0  0  2  0  0  0  0  0  0
  162.1350  208.7920  151.7420 O   0  0  0  0  0  1  0  0  0  0  0  0
  1  5  1  6  0  0  0
  1 17  1  0  0  0  0
  2 13  1  1  0  0  0
  2 17  1  0  0  0  0
  2 11  1  0  0  0  0
  3 22  1  6  0  0  0
  3 14  1  0  0  0  0
  4  1  1  0  0  0  0
  4 18  1  1  0  0  0
  7  6  1  6  0  0  0
  7 10  1  0  0  0  0
  8  9  1  0  0  0  0
  9  7  1  0  0  0  0
  9  5  1  1  0  0  0
 10 25  1  6  0  0  0
 10  4  1  0  0  0  0
 11 15  2  0  0  0  0
 12 16  2  0  0  0  0
 14 20  1  6  0  0  0
 15 20  1  0  0  0  0
 16  8  1  0  0  0  0
 16  6  1  0  0  0  0
 17 21  1  0  0  0  0
 18 19  1  0  0  0  0
 19  3  1  0  0  0  0
 19 26  1  0  0  0  0
 21  3  1  0  0  0  0
 21 14  1  0  0  0  0
 22 23  1  0  0  0  0
 25 24  1  0  0  0  0
 26 28  1  0  0  0  0
 28 27  1  0  0  0  0
 29 26  1  0  0  0  0
 30 29  1  0  0  0  0
M  END
>  <MODEL>
7

>  <REMARK>
 VINA RESULT:      -1.8      7.589      9.106
  Name = 
  5 active torsions:
  status: ('A' for Active; 'I' for Inactive)
    1  A    between atoms: C_3  and  O_11
    2  A    between atoms: C_10  and  C_15
    3  A    between atoms: C_10  and  C_25
    4  A    between atoms: C_10  and  S_26
    5  A    between atoms: C_13  and  C_30
                            x       y       z     vdW  Elec       q    Type
                         _______ _______ _______ _____ _____    ______ ____

>  <TORSDO>
F 5

$$$$
