=
 OpenBabel11052421553D

 30 34  0  0  1  0  0  0  0  0999 V2000
  161.0570  204.8300  149.8910 N   0  0  0  0  0  0  0  0  0  0  0  0
  160.6420  202.4890  150.6480 C   0  0  1  0  0  3  0  0  0  0  0  0
  161.5150  203.6490  145.8920 N   0  0  0  0  0  0  0  0  0  0  0  0
  161.2910  205.7880  148.9540 C   0  0  0  0  0  0  0  0  0  0  0  0
  161.6860  204.6110  144.8500 C   0  0  0  0  0  3  0  0  0  0  0  0
  161.2390  201.1150  150.3230 C   0  0  0  0  0  2  0  0  0  0  0  0
  161.1200  202.9180  152.0250 C   0  0  0  0  0  1  0  0  0  0  0  0
  161.3810  204.0480  147.2600 C   0  0  0  0  0  0  0  0  0  0  0  0
  161.0170  200.7340  148.8860 C   0  0  0  0  0  3  0  0  0  0  0  0
  161.0010  203.5050  149.5890 C   0  0  0  0  0  0  0  0  0  0  0  0
  161.4660  205.4120  147.6010 C   0  0  0  0  0  0  0  0  0  0  0  0
  161.7860  205.9090  145.1290 C   0  0  0  0  0  3  0  0  0  0  0  0
  161.7580  206.4430  146.5350 C   0  0  0  0  0  3  0  0  0  0  0  0
  161.0240  201.6580  147.9220 C   0  0  0  0  0  3  0  0  0  0  0  0
  161.1490  203.0900  148.2540 C   0  0  0  0  0  0  0  0  0  0  0  0
  161.3610  207.2190  149.4340 C   0  0  1  0  0  3  0  0  0  0  0  0
  160.5520  207.0990  151.7540 O   0  0  0  0  0  0  0  0  0  0  0  0
  162.8410  207.0500  151.4910 O   0  0  0  0  0  1  0  0  0  0  0  0
  161.5970  207.3890  150.9420 C   0  0  1  0  0  0  0  0  0  0  0  0
  160.8610  208.4500  151.6030 N   0  0  2  0  0  0  0  0  0  0  0  0
  161.4970  208.8680  152.8470 C   0  0  0  0  0  3  0  0  0  0  0  0
  160.4930  209.6260  153.6890 C   0  0  0  0  0  2  0  0  0  0  0  0
  161.5390  210.3810  152.8990 C   0  0  0  0  0  2  0  0  0  0  0  0
  162.2910  208.1050  148.6070 C   0  0  0  0  0  2  0  0  0  0  0  0
  161.6660  209.4680  148.3280 C   0  0  0  0  0  2  0  0  0  0  0  0
  162.3330  210.5740  149.1330 C   0  0  0  0  0  2  0  0  0  0  0  0
  162.4300  211.8480  148.3130 C   0  0  0  0  0  2  0  0  0  0  0  0
  160.3510  212.6350  147.2930 O   0  0  0  0  0  0  0  0  0  0  0  0
  161.1780  212.5790  148.3880 N   0  0  0  0  0  0  0  0  0  0  0  0
  160.7780  213.0120  149.4880 O   0  0  0  0  0  0  0  0  0  0  0  0
  2  7  1  1  0  0  0
  3  8  1  0  0  0  0
  4 16  1  0  0  0  0
  4  1  2  0  0  0  0
  5 12  1  0  0  0  0
  5  3  2  0  0  0  0
  6  2  1  0  0  0  0
  8 11  2  0  0  0  0
  8 15  1  0  0  0  0
  9  6  1  0  0  0  0
 10  1  1  0  0  0  0
 10  2  1  0  0  0  0
 11  4  1  0  0  0  0
 12 13  2  0  0  0  0
 13 11  1  0  0  0  0
 14 15  1  0  0  0  0
 14  9  2  0  0  0  0
 15 10  2  0  0  0  0
 16 24  1  6  0  0  0
 16 19  1  0  0  0  0
 19 18  1  1  0  0  0
 19 20  1  0  0  0  0
 19 17  1  0  0  0  0
 20 17  1  0  0  0  0
 20 21  1  1  0  0  0
 21 23  1  0  0  0  0
 21 22  1  0  0  0  0
 23 22  1  0  0  0  0
 25 24  1  0  0  0  0
 25 26  1  0  0  0  0
 27 29  1  0  0  0  0
 27 26  1  0  0  0  0
 28 29  2  0  0  0  0
 29 30  2  0  0  0  0
M  END
>  <MODEL>
1

>  <REMARK>
 VINA RESULT:      -8.6      0.000      0.000
  Name = 
  8 active torsions:
  status: ('A' for Active; 'I' for Inactive)
    1  A    between atoms: C_4  and  C_13
    2  A    between atoms: C_7  and  N_15
    3  A    between atoms: C_7  and  C_16
    4  A    between atoms: C_8  and  C_13
    5  A    between atoms: C_9  and  N_12
    6  A    between atoms: C_13  and  C_27
    7  A    between atoms: C_16  and  C_30
    8  A    between atoms: C_27  and  C_30
                            x       y       z     vdW  Elec       q    Type
                         _______ _______ _______ _____ _____    ______ ____

>  <TORSDO>
F 8

$$$$
=
 OpenBabel11052421553D

 30 34  0  0  1  0  0  0  0  0999 V2000
  161.2230  207.0080  152.1620 N   0  0  0  0  0  0  0  0  0  0  0  0
  161.1530  207.7620  154.5390 C   0  0  1  0  0  3  0  0  0  0  0  0
  161.9340  210.8970  150.7570 N   0  0  0  0  0  0  0  0  0  0  0  0
  161.3890  207.1960  150.8250 C   0  0  0  0  0  0  0  0  0  0  0  0
  162.1920  211.1510  149.3760 C   0  0  0  0  0  3  0  0  0  0  0  0
  160.5590  208.9630  155.2850 C   0  0  0  0  0  2  0  0  0  0  0  0
  160.3100  206.5340  154.8360 C   0  0  0  0  0  1  0  0  0  0  0  0
  161.6690  209.5740  151.2360 C   0  0  0  0  0  0  0  0  0  0  0  0
  161.1830  210.2580  154.8490 C   0  0  0  0  0  3  0  0  0  0  0  0
  161.2440  208.0330  153.0540 C   0  0  0  0  0  0  0  0  0  0  0  0
  161.6130  208.5010  150.3260 C   0  0  0  0  0  0  0  0  0  0  0  0
  162.1350  210.1690  148.4790 C   0  0  0  0  0  3  0  0  0  0  0  0
  161.7710  208.7550  148.8440 C   0  0  0  0  0  3  0  0  0  0  0  0
  161.5680  210.4430  153.5840 C   0  0  0  0  0  3  0  0  0  0  0  0
  161.4830  209.3430  152.6040 C   0  0  0  0  0  0  0  0  0  0  0  0
  161.3100  205.9720  149.9420 C   0  0  1  0  0  3  0  0  0  0  0  0
  162.0140  204.0160  151.2570 O   0  0  0  0  0  0  0  0  0  0  0  0
  159.7780  204.5550  151.3890 O   0  0  0  0  0  1  0  0  0  0  0  0
  160.9780  204.6620  150.6730 C   0  0  1  0  0  0  0  0  0  0  0  0
  161.5030  203.4400  150.0950 N   0  0  2  0  0  0  0  0  0  0  0  0
  160.7490  202.2650  150.5170 C   0  0  0  0  0  3  0  0  0  0  0  0
  161.2490  201.0540  149.7570 C   0  0  0  0  0  2  0  0  0  0  0  0
  159.9630  201.7300  149.3370 C   0  0  0  0  0  2  0  0  0  0  0  0
  160.4510  206.1620  148.6930 C   0  0  0  0  0  2  0  0  0  0  0  0
  160.9530  205.3110  147.5310 C   0  0  0  0  0  2  0  0  0  0  0  0
  162.3200  205.7660  147.0430 C   0  0  0  0  0  2  0  0  0  0  0  0
  162.8550  204.8150  145.9870 C   0  0  0  0  0  2  0  0  0  0  0  0
  161.3020  205.0930  144.1180 O   0  0  0  0  0  0  0  0  0  0  0  0
  161.7620  204.3300  145.1630 N   0  0  0  0  0  0  0  0  0  0  0  0
  161.3560  203.1570  145.3000 O   0  0  0  0  0  0  0  0  0  0  0  0
  1 10  1  0  0  0  0
  2  7  1  6  0  0  0
  2  6  1  0  0  0  0
  3  8  1  0  0  0  0
  4  1  2  0  0  0  0
  5  3  2  0  0  0  0
  8 15  1  0  0  0  0
  9  6  1  0  0  0  0
 10  2  1  0  0  0  0
 11  4  1  0  0  0  0
 11  8  2  0  0  0  0
 12 13  2  0  0  0  0
 12  5  1  0  0  0  0
 13 11  1  0  0  0  0
 14  9  2  0  0  0  0
 15 10  2  0  0  0  0
 15 14  1  0  0  0  0
 16 24  1  6  0  0  0
 16 19  1  0  0  0  0
 16  4  1  0  0  0  0
 19 17  1  0  0  0  0
 19 18  1  1  0  0  0
 20 21  1  1  0  0  0
 20 19  1  0  0  0  0
 20 17  1  0  0  0  0
 22 21  1  0  0  0  0
 23 22  1  0  0  0  0
 23 21  1  0  0  0  0
 25 24  1  0  0  0  0
 26 25  1  0  0  0  0
 27 26  1  0  0  0  0
 28 29  2  0  0  0  0
 29 30  2  0  0  0  0
 29 27  1  0  0  0  0
M  END
>  <MODEL>
2

>  <REMARK>
 VINA RESULT:      -7.9      2.633      6.833
  Name = 
  8 active torsions:
  status: ('A' for Active; 'I' for Inactive)
    1  A    between atoms: C_4  and  C_13
    2  A    between atoms: C_7  and  N_15
    3  A    between atoms: C_7  and  C_16
    4  A    between atoms: C_8  and  C_13
    5  A    between atoms: C_9  and  N_12
    6  A    between atoms: C_13  and  C_27
    7  A    between atoms: C_16  and  C_30
    8  A    between atoms: C_27  and  C_30
                            x       y       z     vdW  Elec       q    Type
                         _______ _______ _______ _____ _____    ______ ____

>  <TORSDO>
F 8

$$$$
=
 OpenBabel11052421553D

 30 34  0  0  1  0  0  0  0  0999 V2000
  161.6480  205.6230  147.9270 N   0  0  0  0  0  0  0  0  0  0  0  0
  161.6560  204.2450  145.8480 C   0  0  1  0  0  3  0  0  0  0  0  0
  160.8250  202.2980  150.3480 N   0  0  0  0  0  0  0  0  0  0  0  0
  161.5570  205.8060  149.2720 C   0  0  0  0  0  0  0  0  0  0  0  0
  160.7920  202.4070  151.7720 C   0  0  0  0  0  3  0  0  0  0  0  0
  160.8050  203.0940  145.2990 C   0  0  0  0  0  2  0  0  0  0  0  0
  161.3190  205.5130  145.0830 C   0  0  0  0  0  1  0  0  0  0  0  0
  161.0830  203.4360  149.5190 C   0  0  0  0  0  0  0  0  0  0  0  0
  160.8960  201.8680  146.1620 C   0  0  0  0  0  3  0  0  0  0  0  0
  161.4480  204.4160  147.3350 C   0  0  0  0  0  0  0  0  0  0  0  0
  161.2630  204.7020  150.1070 C   0  0  0  0  0  0  0  0  0  0  0  0
  160.9430  203.5870  152.3690 C   0  0  0  0  0  3  0  0  0  0  0  0
  161.1240  204.8690  151.6030 C   0  0  0  0  0  3  0  0  0  0  0  0
  161.0210  201.9690  147.4880 C   0  0  0  0  0  3  0  0  0  0  0  0
  161.1740  203.2890  148.1300 C   0  0  0  0  0  0  0  0  0  0  0  0
  161.7690  207.2080  149.7940 C   0  0  1  0  0  3  0  0  0  0  0  0
  163.0290  208.7570  148.3550 O   0  0  0  0  0  0  0  0  0  0  0  0
  160.8880  208.2640  147.6590 O   0  0  0  0  0  1  0  0  0  0  0  0
  161.8050  208.3040  148.7180 C   0  0  1  0  0  0  0  0  0  0  0  0
  162.2590  209.6170  149.1360 N   0  0  2  0  0  0  0  0  0  0  0  0
  161.7880  210.6710  148.2460 C   0  0  0  0  0  3  0  0  0  0  0  0
  162.7890  211.8070  148.2470 C   0  0  0  0  0  2  0  0  0  0  0  0
  161.5170  211.9210  149.0560 C   0  0  0  0  0  2  0  0  0  0  0  0
  160.8550  207.5820  150.9600 C   0  0  0  0  0  2  0  0  0  0  0  0
  161.6080  208.3530  152.0380 C   0  0  0  0  0  2  0  0  0  0  0  0
  160.8160  208.4350  153.3350 C   0  0  0  0  0  2  0  0  0  0  0  0
  161.1360  207.2540  154.2330 C   0  0  0  0  0  2  0  0  0  0  0  0
  159.5920  207.2830  156.1290 O   0  0  0  0  0  0  0  0  0  0  0  0
  160.8280  207.5860  155.6120 N   0  0  0  0  0  0  0  0  0  0  0  0
  161.7330  207.9920  156.3700 O   0  0  0  0  0  0  0  0  0  0  0  0
  1  4  1  0  0  0  0
  2  7  1  6  0  0  0
  2 10  1  0  0  0  0
  3  5  2  0  0  0  0
  4 16  1  0  0  0  0
  4 11  2  0  0  0  0
  5 12  1  0  0  0  0
  6  2  1  0  0  0  0
  6  9  1  0  0  0  0
  8 11  1  0  0  0  0
  8  3  1  0  0  0  0
  9 14  2  0  0  0  0
 10  1  2  0  0  0  0
 10 15  1  0  0  0  0
 11 13  1  0  0  0  0
 13 12  2  0  0  0  0
 14 15  1  0  0  0  0
 15  8  2  0  0  0  0
 16 24  1  1  0  0  0
 17 19  1  0  0  0  0
 17 20  1  0  0  0  0
 19 18  1  6  0  0  0
 19 20  1  0  0  0  0
 19 16  1  0  0  0  0
 20 21  1  6  0  0  0
 21 22  1  0  0  0  0
 21 23  1  0  0  0  0
 22 23  1  0  0  0  0
 24 25  1  0  0  0  0
 25 26  1  0  0  0  0
 26 27  1  0  0  0  0
 27 29  1  0  0  0  0
 29 28  2  0  0  0  0
 29 30  2  0  0  0  0
M  END
>  <MODEL>
3

>  <REMARK>
 VINA RESULT:      -7.6      2.145      5.188
  Name = 
  8 active torsions:
  status: ('A' for Active; 'I' for Inactive)
    1  A    between atoms: C_4  and  C_13
    2  A    between atoms: C_7  and  N_15
    3  A    between atoms: C_7  and  C_16
    4  A    between atoms: C_8  and  C_13
    5  A    between atoms: C_9  and  N_12
    6  A    between atoms: C_13  and  C_27
    7  A    between atoms: C_16  and  C_30
    8  A    between atoms: C_27  and  C_30
                            x       y       z     vdW  Elec       q    Type
                         _______ _______ _______ _____ _____    ______ ____

>  <TORSDO>
F 8

$$$$
=
 OpenBabel11052421553D

 30 34  0  0  1  0  0  0  0  0999 V2000
  161.1740  204.2630  150.0220 N   0  0  0  0  0  0  0  0  0  0  0  0
  160.7090  201.8140  150.1300 C   0  0  1  0  0  3  0  0  0  0  0  0
  161.5600  204.1920  145.8460 N   0  0  0  0  0  0  0  0  0  0  0  0
  161.4210  205.4330  149.3740 C   0  0  0  0  0  0  0  0  0  0  0  0
  161.7440  205.3950  145.0980 C   0  0  0  0  0  3  0  0  0  0  0  0
  161.2680  200.5670  149.4380 C   0  0  0  0  0  2  0  0  0  0  0  0
  161.2120  201.8480  151.5630 C   0  0  0  0  0  1  0  0  0  0  0  0
  161.4510  204.2120  147.2730 C   0  0  0  0  0  0  0  0  0  0  0  0
  161.0220  200.5910  147.9550 C   0  0  0  0  0  3  0  0  0  0  0  0
  161.0820  203.0710  149.3770 C   0  0  0  0  0  0  0  0  0  0  0  0
  161.5730  205.4310  147.9670 C   0  0  0  0  0  0  0  0  0  0  0  0
  161.8790  206.5680  145.7130 C   0  0  0  0  0  3  0  0  0  0  0  0
  161.8790  206.7050  147.2120 C   0  0  0  0  0  3  0  0  0  0  0  0
  161.0420  201.7390  147.2750 C   0  0  0  0  0  3  0  0  0  0  0  0
  161.2060  203.0270  147.9770 C   0  0  0  0  0  0  0  0  0  0  0  0
  161.5320  206.6810  150.2190 C   0  0  1  0  0  3  0  0  0  0  0  0
  160.7280  205.7720  152.3590 O   0  0  0  0  0  0  0  0  0  0  0  0
  163.0000  206.1300  152.2150 O   0  0  0  0  0  1  0  0  0  0  0  0
  161.7240  206.4330  151.7220 C   0  0  1  0  0  0  0  0  0  0  0  0
  160.8290  207.1380  152.6210 N   0  0  2  0  0  0  0  0  0  0  0  0
  161.3830  207.2590  153.9640 C   0  0  0  0  0  3  0  0  0  0  0  0
  160.4550  206.5790  154.9480 C   0  0  0  0  0  2  0  0  0  0  0  0
  160.4420  208.0860  154.8160 C   0  0  0  0  0  2  0  0  0  0  0  0
  162.5220  207.7110  149.6780 C   0  0  0  0  0  2  0  0  0  0  0  0
  161.9560  209.1250  149.7490 C   0  0  0  0  0  2  0  0  0  0  0  0
  162.2920  209.8050  151.0680 C   0  0  0  0  0  2  0  0  0  0  0  0
  161.0700  210.5050  151.6360 C   0  0  0  0  0  2  0  0  0  0  0  0
  160.4160  211.7110  153.6600 O   0  0  0  0  0  0  0  0  0  0  0  0
  161.3410  210.9460  152.9920 N   0  0  0  0  0  0  0  0  0  0  0  0
  162.3310  210.4960  153.6050 O   0  0  0  0  0  0  0  0  0  0  0  0
  2  7  1  1  0  0  0
  3  8  1  0  0  0  0
  4  1  2  0  0  0  0
  4 16  1  0  0  0  0
  5 12  1  0  0  0  0
  5  3  2  0  0  0  0
  6  2  1  0  0  0  0
  8 11  2  0  0  0  0
  8 15  1  0  0  0  0
  9  6  1  0  0  0  0
 10  1  1  0  0  0  0
 10  2  1  0  0  0  0
 11  4  1  0  0  0  0
 12 13  2  0  0  0  0
 13 11  1  0  0  0  0
 14  9  2  0  0  0  0
 14 15  1  0  0  0  0
 15 10  2  0  0  0  0
 16 24  1  6  0  0  0
 16 19  1  0  0  0  0
 17 20  1  0  0  0  0
 19 18  1  1  0  0  0
 19 17  1  0  0  0  0
 19 20  1  0  0  0  0
 20 21  1  1  0  0  0
 21 23  1  0  0  0  0
 21 22  1  0  0  0  0
 23 22  1  0  0  0  0
 24 25  1  0  0  0  0
 25 26  1  0  0  0  0
 26 27  1  0  0  0  0
 27 29  1  0  0  0  0
 29 30  2  0  0  0  0
 29 28  2  0  0  0  0
M  END
>  <MODEL>
4

>  <REMARK>
 VINA RESULT:      -7.2      2.039      2.274
  Name = 
  8 active torsions:
  status: ('A' for Active; 'I' for Inactive)
    1  A    between atoms: C_4  and  C_13
    2  A    between atoms: C_7  and  N_15
    3  A    between atoms: C_7  and  C_16
    4  A    between atoms: C_8  and  C_13
    5  A    between atoms: C_9  and  N_12
    6  A    between atoms: C_13  and  C_27
    7  A    between atoms: C_16  and  C_30
    8  A    between atoms: C_27  and  C_30
                            x       y       z     vdW  Elec       q    Type
                         _______ _______ _______ _____ _____    ______ ____

>  <TORSDO>
F 8

$$$$
=
 OpenBabel11052421553D

 30 34  0  0  1  0  0  0  0  0999 V2000
  161.3730  205.7870  147.7230 N   0  0  0  0  0  0  0  0  0  0  0  0
  161.5280  204.3110  145.7180 C   0  0  1  0  0  3  0  0  0  0  0  0
  160.8950  202.5240  150.3160 N   0  0  0  0  0  0  0  0  0  0  0  0
  161.2610  206.0290  149.0570 C   0  0  0  0  0  0  0  0  0  0  0  0
  160.8490  202.7030  151.7320 C   0  0  0  0  0  3  0  0  0  0  0  0
  160.8010  203.0520  145.2320 C   0  0  0  0  0  2  0  0  0  0  0  0
  161.0630  205.4970  144.8890 C   0  0  0  0  0  1  0  0  0  0  0  0
  161.0350  203.6380  149.4270 C   0  0  0  0  0  0  0  0  0  0  0  0
  161.0180  201.8880  146.1570 C   0  0  0  0  0  3  0  0  0  0  0  0
  161.3000  204.5370  147.1950 C   0  0  0  0  0  0  0  0  0  0  0  0
  161.0820  204.9450  149.9490 C   0  0  0  0  0  0  0  0  0  0  0  0
  160.8760  203.9210  152.2670 C   0  0  0  0  0  3  0  0  0  0  0  0
  160.9240  205.1740  151.4350 C   0  0  0  0  0  3  0  0  0  0  0  0
  161.1290  202.0700  147.4750 C   0  0  0  0  0  3  0  0  0  0  0  0
  161.1430  203.4300  148.0480 C   0  0  0  0  0  0  0  0  0  0  0  0
  161.3270  207.4710  149.5050 C   0  0  1  0  0  3  0  0  0  0  0  0
  160.5790  207.5220  151.8480 O   0  0  0  0  0  0  0  0  0  0  0  0
  162.8430  207.2360  151.5280 O   0  0  0  0  0  1  0  0  0  0  0  0
  161.6220  207.6750  150.9980 C   0  0  1  0  0  0  0  0  0  0  0  0
  161.0140  208.8290  151.6330 N   0  0  2  0  0  0  0  0  0  0  0  0
  161.7250  209.2300  152.8420 C   0  0  0  0  0  3  0  0  0  0  0  0
  160.7280  209.4280  153.9630 C   0  0  0  0  0  2  0  0  0  0  0  0
  161.2910  210.6270  153.2330 C   0  0  0  0  0  2  0  0  0  0  0  0
  162.2060  208.3550  148.6220 C   0  0  0  0  0  2  0  0  0  0  0  0
  161.5450  209.7000  148.3400 C   0  0  0  0  0  2  0  0  0  0  0  0
  162.4350  210.8670  148.7430 C   0  0  0  0  0  2  0  0  0  0  0  0
  161.6610  212.1720  148.6950 C   0  0  0  0  0  2  0  0  0  0  0  0
  160.4600  213.1170  146.7860 O   0  0  0  0  0  0  0  0  0  0  0  0
  161.6410  212.6820  147.3360 N   0  0  0  0  0  0  0  0  0  0  0  0
  162.7150  212.8790  146.7320 O   0  0  0  0  0  0  0  0  0  0  0  0
  1  4  1  0  0  0  0
  2  7  1  6  0  0  0
  2 10  1  0  0  0  0
  3  5  2  0  0  0  0
  4 16  1  0  0  0  0
  4 11  2  0  0  0  0
  5 12  1  0  0  0  0
  6  2  1  0  0  0  0
  6  9  1  0  0  0  0
  8 11  1  0  0  0  0
  8  3  1  0  0  0  0
  9 14  2  0  0  0  0
 10  1  2  0  0  0  0
 10 15  1  0  0  0  0
 11 13  1  0  0  0  0
 13 12  2  0  0  0  0
 14 15  1  0  0  0  0
 15  8  2  0  0  0  0
 16 24  1  6  0  0  0
 16 19  1  0  0  0  0
 19 18  1  1  0  0  0
 19 20  1  0  0  0  0
 19 17  1  0  0  0  0
 20 17  1  0  0  0  0
 20 21  1  1  0  0  0
 21 23  1  0  0  0  0
 21 22  1  0  0  0  0
 23 22  1  0  0  0  0
 25 24  1  0  0  0  0
 25 26  1  0  0  0  0
 27 26  1  0  0  0  0
 28 29  2  0  0  0  0
 29 27  1  0  0  0  0
 30 29  2  0  0  0  0
M  END
>  <MODEL>
5

>  <REMARK>
 VINA RESULT:      -7.2      1.191      3.262
  Name = 
  8 active torsions:
  status: ('A' for Active; 'I' for Inactive)
    1  A    between atoms: C_4  and  C_13
    2  A    between atoms: C_7  and  N_15
    3  A    between atoms: C_7  and  C_16
    4  A    between atoms: C_8  and  C_13
    5  A    between atoms: C_9  and  N_12
    6  A    between atoms: C_13  and  C_27
    7  A    between atoms: C_16  and  C_30
    8  A    between atoms: C_27  and  C_30
                            x       y       z     vdW  Elec       q    Type
                         _______ _______ _______ _____ _____    ______ ____

>  <TORSDO>
F 8

$$$$
=
 OpenBabel11052421553D

 30 34  0  0  1  0  0  0  0  0999 V2000
  160.9770  208.3530  151.6260 N   0  0  0  0  0  0  0  0  0  0  0  0
  160.6760  209.3510  153.8940 C   0  0  1  0  0  3  0  0  0  0  0  0
  160.8880  204.4400  153.1350 N   0  0  0  0  0  0  0  0  0  0  0  0
  161.0770  207.3180  150.7500 C   0  0  0  0  0  0  0  0  0  0  0  0
  160.9120  203.3080  152.2630 C   0  0  0  0  0  3  0  0  0  0  0  0
  161.2280  209.0610  155.2940 C   0  0  0  0  0  2  0  0  0  0  0  0
  161.3370  210.6090  153.3560 C   0  0  0  0  0  1  0  0  0  0  0  0
  160.9410  205.7760  152.6240 C   0  0  0  0  0  0  0  0  0  0  0  0
  160.8140  207.7040  155.7900 C   0  0  0  0  0  3  0  0  0  0  0  0
  160.8850  208.1720  152.9700 C   0  0  0  0  0  0  0  0  0  0  0  0
  161.0670  205.9890  151.2380 C   0  0  0  0  0  0  0  0  0  0  0  0
  161.0440  203.4630  150.9480 C   0  0  0  0  0  3  0  0  0  0  0  0
  161.2070  204.8120  150.3000 C   0  0  0  0  0  3  0  0  0  0  0  0
  160.6860  206.6750  154.9490 C   0  0  0  0  0  3  0  0  0  0  0  0
  160.8510  206.8680  153.4950 C   0  0  0  0  0  0  0  0  0  0  0  0
  161.2070  207.6640  149.2850 C   0  0  1  0  0  3  0  0  0  0  0  0
  162.3340  209.7280  150.0050 O   0  0  0  0  0  0  0  0  0  0  0  0
  163.1900  208.7310  148.1130 O   0  0  0  0  0  1  0  0  0  0  0  0
  162.0990  208.8760  148.9790 C   0  0  1  0  0  0  0  0  0  0  0  0
  161.4640  210.1800  149.0140 N   0  0  2  0  0  0  0  0  0  0  0  0
  162.2020  211.1710  148.2400 C   0  0  0  0  0  3  0  0  0  0  0  0
  161.8980  212.5520  148.7820 C   0  0  0  0  0  2  0  0  0  0  0  0
  161.2190  212.0700  147.5190 C   0  0  0  0  0  2  0  0  0  0  0  0
  161.5410  206.4690  148.3930 C   0  0  0  0  0  2  0  0  0  0  0  0
  160.8280  206.5560  147.0480 C   0  0  0  0  0  2  0  0  0  0  0  0
  161.6020  205.8450  145.9480 C   0  0  0  0  0  2  0  0  0  0  0  0
  162.3580  204.6540  146.5090 C   0  0  0  0  0  2  0  0  0  0  0  0
  161.2090  202.7230  147.4740 O   0  0  0  0  0  0  0  0  0  0  0  0
  161.5590  203.4510  146.3630 N   0  0  0  0  0  0  0  0  0  0  0  0
  161.0540  203.1720  145.2560 O   0  0  0  0  0  0  0  0  0  0  0  0
  1 10  1  0  0  0  0
  2  7  1  6  0  0  0
  2  6  1  0  0  0  0
  4 11  1  0  0  0  0
  4  1  2  0  0  0  0
  5  3  2  0  0  0  0
  6  9  1  0  0  0  0
  8  3  1  0  0  0  0
  8 15  1  0  0  0  0
 10 15  2  0  0  0  0
 10  2  1  0  0  0  0
 11  8  2  0  0  0  0
 12  5  1  0  0  0  0
 13 12  2  0  0  0  0
 13 11  1  0  0  0  0
 14  9  2  0  0  0  0
 15 14  1  0  0  0  0
 16 24  1  6  0  0  0
 16  4  1  0  0  0  0
 19 18  1  6  0  0  0
 19 20  1  0  0  0  0
 19 16  1  0  0  0  0
 19 17  1  0  0  0  0
 20 21  1  6  0  0  0
 20 17  1  0  0  0  0
 21 22  1  0  0  0  0
 23 21  1  0  0  0  0
 23 22  1  0  0  0  0
 25 24  1  0  0  0  0
 26 27  1  0  0  0  0
 26 25  1  0  0  0  0
 29 27  1  0  0  0  0
 29 28  2  0  0  0  0
 30 29  2  0  0  0  0
M  END
>  <MODEL>
6

>  <REMARK>
 VINA RESULT:      -7.2      2.483      6.400
  Name = 
  8 active torsions:
  status: ('A' for Active; 'I' for Inactive)
    1  A    between atoms: C_4  and  C_13
    2  A    between atoms: C_7  and  N_15
    3  A    between atoms: C_7  and  C_16
    4  A    between atoms: C_8  and  C_13
    5  A    between atoms: C_9  and  N_12
    6  A    between atoms: C_13  and  C_27
    7  A    between atoms: C_16  and  C_30
    8  A    between atoms: C_27  and  C_30
                            x       y       z     vdW  Elec       q    Type
                         _______ _______ _______ _____ _____    ______ ____

>  <TORSDO>
F 8

$$$$
=
 OpenBabel11052421553D

 30 34  0  0  1  0  0  0  0  0999 V2000
  161.6600  207.8480  151.0250 N   0  0  0  0  0  0  0  0  0  0  0  0
  161.0490  209.2480  152.9980 C   0  0  1  0  0  3  0  0  0  0  0  0
  160.7810  204.2820  153.0510 N   0  0  0  0  0  0  0  0  0  0  0  0
  161.7990  206.6720  150.3570 C   0  0  0  0  0  0  0  0  0  0  0  0
  160.8320  203.0190  152.3860 C   0  0  0  0  0  3  0  0  0  0  0  0
  161.2740  209.1560  154.5120 C   0  0  0  0  0  2  0  0  0  0  0  0
  161.9570  210.3270  152.4320 C   0  0  0  0  0  1  0  0  0  0  0  0
  161.1020  205.4990  152.3680 C   0  0  0  0  0  0  0  0  0  0  0  0
  160.6010  207.9510  155.1060 C   0  0  0  0  0  3  0  0  0  0  0  0
  161.2830  207.9120  152.3300 C   0  0  0  0  0  0  0  0  0  0  0  0
  161.5240  205.4550  151.0260 C   0  0  0  0  0  0  0  0  0  0  0  0
  161.2380  202.9300  151.1220 C   0  0  0  0  0  3  0  0  0  0  0  0
  161.6950  204.1240  150.3280 C   0  0  0  0  0  3  0  0  0  0  0  0
  160.5120  206.8080  154.4220 C   0  0  0  0  0  3  0  0  0  0  0  0
  160.9820  206.7290  153.0250 C   0  0  0  0  0  0  0  0  0  0  0  0
  162.2560  206.7440  148.9190 C   0  0  1  0  0  3  0  0  0  0  0  0
  161.6520  204.8780  147.4350 O   0  0  0  0  0  0  0  0  0  0  0  0
  159.9200  206.2710  148.0440 O   0  0  0  0  0  1  0  0  0  0  0  0
  161.3040  206.1010  147.9000 C   0  0  1  0  0  0  0  0  0  0  0  0
  161.8030  205.9420  146.5480 N   0  0  2  0  0  0  0  0  0  0  0  0
  160.7250  205.8230  145.5740 C   0  0  0  0  0  3  0  0  0  0  0  0
  160.8300  204.4830  144.8770 C   0  0  0  0  0  2  0  0  0  0  0  0
  161.3190  205.7340  144.1830 C   0  0  0  0  0  2  0  0  0  0  0  0
  162.7060  208.1370  148.4810 C   0  0  0  0  0  2  0  0  0  0  0  0
  161.5840  209.1600  148.6240 C   0  0  0  0  0  2  0  0  0  0  0  0
  162.1210  210.5780  148.7540 C   0  0  0  0  0  2  0  0  0  0  0  0
  161.3220  211.5340  147.8870 C   0  0  0  0  0  2  0  0  0  0  0  0
  163.4570  212.7260  147.8880 O   0  0  0  0  0  0  0  0  0  0  0  0
  162.1910  212.5780  147.3750 N   0  0  0  0  0  0  0  0  0  0  0  0
  161.8530  213.2270  146.3640 O   0  0  0  0  0  0  0  0  0  0  0  0
  1 10  1  0  0  0  0
  2  7  1  6  0  0  0
  2  6  1  0  0  0  0
  4  1  2  0  0  0  0
  4 11  1  0  0  0  0
  5  3  1  0  0  0  0
  6  9  1  0  0  0  0
  8 15  1  0  0  0  0
  8  3  2  0  0  0  0
 10  2  1  0  0  0  0
 10 15  2  0  0  0  0
 11  8  1  0  0  0  0
 12  5  2  0  0  0  0
 13 11  2  0  0  0  0
 13 12  1  0  0  0  0
 14  9  2  0  0  0  0
 15 14  1  0  0  0  0
 16 24  1  6  0  0  0
 16  4  1  0  0  0  0
 17 19  1  0  0  0  0
 19 18  1  1  0  0  0
 19 16  1  0  0  0  0
 20 21  1  6  0  0  0
 20 17  1  0  0  0  0
 20 19  1  0  0  0  0
 22 21  1  0  0  0  0
 23 22  1  0  0  0  0
 23 21  1  0  0  0  0
 24 25  1  0  0  0  0
 25 26  1  0  0  0  0
 27 26  1  0  0  0  0
 29 27  1  0  0  0  0
 29 28  2  0  0  0  0
 30 29  2  0  0  0  0
M  END
>  <MODEL>
7

>  <REMARK>
 VINA RESULT:      -7.1      1.991      5.842
  Name = 
  8 active torsions:
  status: ('A' for Active; 'I' for Inactive)
    1  A    between atoms: C_4  and  C_13
    2  A    between atoms: C_7  and  N_15
    3  A    between atoms: C_7  and  C_16
    4  A    between atoms: C_8  and  C_13
    5  A    between atoms: C_9  and  N_12
    6  A    between atoms: C_13  and  C_27
    7  A    between atoms: C_16  and  C_30
    8  A    between atoms: C_27  and  C_30
                            x       y       z     vdW  Elec       q    Type
                         _______ _______ _______ _____ _____    ______ ____

>  <TORSDO>
F 8

$$$$
=
 OpenBabel11052421553D

 30 34  0  0  1  0  0  0  0  0999 V2000
  161.4600  205.3070  148.3650 N   0  0  0  0  0  0  0  0  0  0  0  0
  161.4070  205.1650  145.8750 C   0  0  1  0  0  3  0  0  0  0  0  0
  160.8760  201.1750  148.7960 N   0  0  0  0  0  0  0  0  0  0  0  0
  161.4330  204.7830  149.6200 C   0  0  0  0  0  0  0  0  0  0  0  0
  160.9140  200.5510  150.0800 C   0  0  0  0  0  3  0  0  0  0  0  0
  160.5680  204.4020  144.8430 C   0  0  0  0  0  2  0  0  0  0  0  0
  160.9890  206.6260  145.8650 C   0  0  0  0  0  1  0  0  0  0  0  0
  161.0530  202.5890  148.6480 C   0  0  0  0  0  0  0  0  0  0  0  0
  160.7450  202.9150  144.9660 C   0  0  0  0  0  3  0  0  0  0  0  0
  161.2710  204.5530  147.2500 C   0  0  0  0  0  0  0  0  0  0  0  0
  161.2210  203.3940  149.7910 C   0  0  0  0  0  0  0  0  0  0  0  0
  161.0560  201.2760  151.1870 C   0  0  0  0  0  3  0  0  0  0  0  0
  161.1530  202.7780  151.1700 C   0  0  0  0  0  3  0  0  0  0  0  0
  160.9350  202.3420  146.1570 C   0  0  0  0  0  3  0  0  0  0  0  0
  161.0760  203.1660  147.3740 C   0  0  0  0  0  0  0  0  0  0  0  0
  161.6250  205.7410  150.7720 C   0  0  1  0  0  3  0  0  0  0  0  0
  162.9710  207.7110  150.1710 O   0  0  0  0  0  0  0  0  0  0  0  0
  160.7600  207.7770  149.5260 O   0  0  0  0  0  1  0  0  0  0  0  0
  161.7250  207.2220  150.3770 C   0  0  1  0  0  0  0  0  0  0  0  0
  162.3340  208.1170  151.3430 N   0  0  2  0  0  0  0  0  0  0  0  0
  161.9350  209.5040  151.1340 C   0  0  0  0  0  3  0  0  0  0  0  0
  162.2920  210.3140  152.3630 C   0  0  0  0  0  2  0  0  0  0  0  0
  160.8640  209.8690  152.1410 C   0  0  0  0  0  2  0  0  0  0  0  0
  160.6520  205.5230  151.9290 C   0  0  0  0  0  2  0  0  0  0  0  0
  161.3160  205.7820  153.2780 C   0  0  0  0  0  2  0  0  0  0  0  0
  160.5490  206.8060  154.1010 C   0  0  0  0  0  2  0  0  0  0  0  0
  161.4140  207.3440  155.2270 C   0  0  0  0  0  2  0  0  0  0  0  0
  159.7000  209.0090  155.7470 O   0  0  0  0  0  0  0  0  0  0  0  0
  161.0240  208.7070  155.5390 N   0  0  0  0  0  0  0  0  0  0  0  0
  161.8990  209.5630  155.7810 O   0  0  0  0  0  0  0  0  0  0  0  0
  1  4  1  0  0  0  0
  2  7  1  1  0  0  0
  2 10  1  0  0  0  0
  3  5  2  0  0  0  0
  4 11  2  0  0  0  0
  4 16  1  0  0  0  0
  5 12  1  0  0  0  0
  6  9  1  0  0  0  0
  6  2  1  0  0  0  0
  8  3  1  0  0  0  0
  8 11  1  0  0  0  0
  9 14  2  0  0  0  0
 10 15  1  0  0  0  0
 10  1  2  0  0  0  0
 11 13  1  0  0  0  0
 13 12  2  0  0  0  0
 14 15  1  0  0  0  0
 15  8  2  0  0  0  0
 16 24  1  1  0  0  0
 17 19  1  0  0  0  0
 17 20  1  0  0  0  0
 19 18  1  6  0  0  0
 19 16  1  0  0  0  0
 19 20  1  0  0  0  0
 20 21  1  6  0  0  0
 21 23  1  0  0  0  0
 21 22  1  0  0  0  0
 23 22  1  0  0  0  0
 24 25  1  0  0  0  0
 25 26  1  0  0  0  0
 26 27  1  0  0  0  0
 27 29  1  0  0  0  0
 29 28  2  0  0  0  0
 29 30  2  0  0  0  0
M  END
>  <MODEL>
8

>  <REMARK>
 VINA RESULT:      -6.9      2.289      4.945
  Name = 
  8 active torsions:
  status: ('A' for Active; 'I' for Inactive)
    1  A    between atoms: C_4  and  C_13
    2  A    between atoms: C_7  and  N_15
    3  A    between atoms: C_7  and  C_16
    4  A    between atoms: C_8  and  C_13
    5  A    between atoms: C_9  and  N_12
    6  A    between atoms: C_13  and  C_27
    7  A    between atoms: C_16  and  C_30
    8  A    between atoms: C_27  and  C_30
                            x       y       z     vdW  Elec       q    Type
                         _______ _______ _______ _____ _____    ______ ____

>  <TORSDO>
F 8

$$$$
=
 OpenBabel11052421553D

 30 34  0  0  1  0  0  0  0  0999 V2000
  161.1990  207.0510  151.9510 N   0  0  0  0  0  0  0  0  0  0  0  0
  161.2490  207.6570  154.3710 C   0  0  1  0  0  3  0  0  0  0  0  0
  161.9300  211.0050  150.7560 N   0  0  0  0  0  0  0  0  0  0  0  0
  161.3100  207.3170  150.6220 C   0  0  0  0  0  0  0  0  0  0  0  0
  162.1330  211.3390  149.3820 C   0  0  0  0  0  3  0  0  0  0  0  0
  160.7150  208.8200  155.2150 C   0  0  0  0  0  2  0  0  0  0  0  0
  160.3940  206.4280  154.6300 C   0  0  0  0  0  1  0  0  0  0  0  0
  161.6580  209.6600  151.1640 C   0  0  0  0  0  0  0  0  0  0  0  0
  161.3460  210.1280  154.8300 C   0  0  0  0  0  3  0  0  0  0  0  0
  161.2810  208.0180  152.9030 C   0  0  0  0  0  0  0  0  0  0  0  0
  161.5390  208.6460  150.1940 C   0  0  0  0  0  0  0  0  0  0  0  0
  162.0150  210.4150  148.4310 C   0  0  0  0  0  3  0  0  0  0  0  0
  161.6380  208.9880  148.7240 C   0  0  0  0  0  3  0  0  0  0  0  0
  161.6790  210.3840  153.5630 C   0  0  0  0  0  3  0  0  0  0  0  0
  161.5280  209.3480  152.5220 C   0  0  0  0  0  0  0  0  0  0  0  0
  161.1660  206.1520  149.6700 C   0  0  1  0  0  3  0  0  0  0  0  0
  160.9020  206.8090  147.3140 O   0  0  0  0  0  0  0  0  0  0  0  0
  163.0490  206.9060  148.1430 O   0  0  0  0  0  1  0  0  0  0  0  0
  161.7580  206.3780  148.2710 C   0  0  1  0  0  0  0  0  0  0  0  0
  161.3150  205.4810  147.2210 N   0  0  2  0  0  0  0  0  0  0  0  0
  162.2610  205.4210  146.1130 C   0  0  0  0  0  3  0  0  0  0  0  0
  161.4960  205.3790  144.8070 C   0  0  0  0  0  2  0  0  0  0  0  0
  162.0840  204.1090  145.3790 C   0  0  0  0  0  2  0  0  0  0  0  0
  161.5960  204.8110  150.2620 C   0  0  0  0  0  2  0  0  0  0  0  0
  160.4210  203.8450  150.3770 C   0  0  0  0  0  2  0  0  0  0  0  0
  160.8820  202.3990  150.4760 C   0  0  0  0  0  2  0  0  0  0  0  0
  160.0400  201.5070  149.5810 C   0  0  0  0  0  2  0  0  0  0  0  0
  160.6940  201.9740  147.2710 O   0  0  0  0  0  0  0  0  0  0  0  0
  160.7850  201.1700  148.3810 N   0  0  0  0  0  0  0  0  0  0  0  0
  161.6300  200.2520  148.4130 O   0  0  0  0  0  0  0  0  0  0  0  0
  1 10  1  0  0  0  0
  2  7  1  6  0  0  0
  2  6  1  0  0  0  0
  3  8  1  0  0  0  0
  4  1  2  0  0  0  0
  5  3  2  0  0  0  0
  8 15  1  0  0  0  0
  9  6  1  0  0  0  0
 10  2  1  0  0  0  0
 11  4  1  0  0  0  0
 11  8  2  0  0  0  0
 12 13  2  0  0  0  0
 12  5  1  0  0  0  0
 13 11  1  0  0  0  0
 14  9  2  0  0  0  0
 15 10  2  0  0  0  0
 15 14  1  0  0  0  0
 16 24  1  1  0  0  0
 16  4  1  0  0  0  0
 17 19  1  0  0  0  0
 19 18  1  6  0  0  0
 19 16  1  0  0  0  0
 20 21  1  6  0  0  0
 20 17  1  0  0  0  0
 20 19  1  0  0  0  0
 22 23  1  0  0  0  0
 22 21  1  0  0  0  0
 23 21  1  0  0  0  0
 24 25  1  0  0  0  0
 25 26  1  0  0  0  0
 27 26  1  0  0  0  0
 28 29  2  0  0  0  0
 29 30  2  0  0  0  0
 29 27  1  0  0  0  0
M  END
>  <MODEL>
9

>  <REMARK>
 VINA RESULT:      -6.4      2.594      7.519
  Name = 
  8 active torsions:
  status: ('A' for Active; 'I' for Inactive)
    1  A    between atoms: C_4  and  C_13
    2  A    between atoms: C_7  and  N_15
    3  A    between atoms: C_7  and  C_16
    4  A    between atoms: C_8  and  C_13
    5  A    between atoms: C_9  and  N_12
    6  A    between atoms: C_13  and  C_27
    7  A    between atoms: C_16  and  C_30
    8  A    between atoms: C_27  and  C_30
                            x       y       z     vdW  Elec       q    Type
                         _______ _______ _______ _____ _____    ______ ____

>  <TORSDO>
F 8

$$$$
