=
 OpenBabel11052422273D

 31 34  0  0  1  0  0  0  0  0999 V2000
  162.2290  209.3730  149.2700 C   0  0  2  0  0  3  0  0  0  0  0  0
  161.7740  209.4470  150.6580 N   0  0  0  0  0  0  0  0  0  0  0  0
  160.7000  210.6930  152.4160 C   0  0  0  0  0  0  0  0  0  0  0  0
  160.2150  211.9530  152.9970 C   0  0  0  0  0  3  0  0  0  0  0  0
  161.2320  210.6680  151.1920 C   0  0  0  0  0  3  0  0  0  0  0  0
  161.5050  208.4350  152.8630 O   0  0  0  0  0  0  0  0  0  0  0  0
  159.9210  212.0050  154.3000 C   0  0  0  0  0  3  0  0  0  0  0  0
  162.0110  208.3580  151.5640 C   0  0  0  0  0  0  0  0  0  0  0  0
  160.1010  210.8250  155.1730 C   0  0  0  0  0  3  0  0  0  0  0  0
  162.7330  207.3440  151.2140 N   0  0  0  0  0  2  0  0  0  0  0  0
  160.5050  209.4020  153.1820 C   0  0  1  0  0  3  0  0  0  0  0  0
  160.4150  209.6260  154.6680 C   0  0  0  0  0  3  0  0  0  0  0  0
  161.0910  212.2970  147.2530 C   0  0  2  0  0  3  0  0  0  0  0  0
  162.6350  213.1380  147.7660 S   0  0  0  0  0  0  0  0  0  0  0  0
  159.8910  213.1120  147.6930 C   0  0  0  0  0  1  0  0  0  0  0  0
  161.0580  210.9880  147.8880 N   0  0  0  0  0  0  0  0  0  0  0  0
  162.0940  210.7040  148.5960 C   0  0  0  0  0  0  0  0  0  0  0  0
  163.1100  211.6900  148.6470 N   0  0  0  0  0  2  0  0  0  0  0  0
  161.5010  208.2640  148.5180 C   0  0  0  0  0  2  0  0  0  0  0  0
  162.4890  207.3500  147.8100 C   0  0  0  0  0  2  0  0  0  0  0  0
  161.7140  204.8720  145.2620 O   0  0  0  0  0  0  0  0  0  0  0  0
  161.7750  206.2770  147.1390 N   0  0  0  0  0  0  0  0  0  0  0  0
  162.2000  205.8860  145.8300 C   0  0  0  0  0  3  0  0  0  0  0  0
  160.7990  205.5030  147.9000 C   0  0  0  0  0  2  0  0  0  0  0  0
  160.4230  203.3300  150.6850 C   0  0  1  0  0  3  0  0  0  0  0  0
  159.9900  201.3630  149.3460 O   0  0  0  0  0  0  0  0  0  0  0  0
  161.2980  202.6960  151.7500 C   0  0  0  0  0  1  0  0  0  0  0  0
  161.0500  204.6510  150.2390 C   0  0  0  0  0  2  0  0  0  0  0  0
  161.0750  203.1760  148.4030 O   0  0  0  0  0  0  0  0  0  0  0  0
  161.4930  204.4750  148.7790 C   0  0  1  0  0  3  0  0  0  0  0  0
  160.4690  202.5240  149.4510 C   0  0  0  0  0  0  0  0  0  0  0  0
  1 19  1  6  0  0  0
  1  2  1  0  0  0  0
  2  5  1  0  0  0  0
  2  8  1  0  0  0  0
  3  4  1  0  0  0  0
  3 11  1  0  0  0  0
  4  7  2  0  0  0  0
  5  3  2  0  0  0  0
  6 11  1  0  0  0  0
  7  9  1  0  0  0  0
  8  6  1  0  0  0  0
 10  8  2  0  0  0  0
 11 12  1  1  0  0  0
 12  9  2  0  0  0  0
 13 15  1  1  0  0  0
 13 14  1  0  0  0  0
 13 16  1  0  0  0  0
 14 18  1  0  0  0  0
 16 17  2  0  0  0  0
 17 18  1  0  0  0  0
 17  1  1  0  0  0  0
 20 19  1  0  0  0  0
 21 23  2  0  0  0  0
 22 20  1  0  0  0  0
 22 24  1  0  0  0  0
 23 22  1  0  0  0  0
 25 27  1  1  0  0  0
 26 31  2  0  0  0  0
 28 25  1  0  0  0  0
 29 30  1  0  0  0  0
 29 31  1  0  0  0  0
 30 24  1  6  0  0  0
 30 28  1  0  0  0  0
 31 25  1  0  0  0  0
M  END
>  <MODEL>
1

>  <REMARK>
 VINA RESULT:      -7.6      0.000      0.000
  Name = 
  7 active torsions:
  status: ('A' for Active; 'I' for Inactive)
    1  A    between atoms: C_3  and  N_9
    2  A    between atoms: C_3  and  C_22
    3  A    between atoms: N_4  and  C_12
    4  A    between atoms: N_9  and  C_15
    5  A    between atoms: C_12  and  C_20
    6  A    between atoms: C_12  and  C_27
    7  A    between atoms: C_15  and  C_20
                            x       y       z     vdW  Elec       q    Type
                         _______ _______ _______ _____ _____    ______ ____

>  <TORSDO>
F 7

$$$$
=
 OpenBabel11052422273D

 31 34  0  0  1  0  0  0  0  0999 V2000
  161.2320  209.6620  152.8640 C   0  0  2  0  0  3  0  0  0  0  0  0
  161.2600  208.4140  152.1020 N   0  0  0  0  0  0  0  0  0  0  0  0
  160.9950  206.0230  152.0450 C   0  0  0  0  0  0  0  0  0  0  0  0
  160.9080  204.7150  152.7110 C   0  0  0  0  0  3  0  0  0  0  0  0
  161.0990  207.1450  152.7590 C   0  0  0  0  0  3  0  0  0  0  0  0
  161.5680  207.2160  149.9980 O   0  0  0  0  0  0  0  0  0  0  0  0
  161.0560  203.5990  151.9910 C   0  0  0  0  0  3  0  0  0  0  0  0
  161.6160  208.4160  150.7100 C   0  0  0  0  0  0  0  0  0  0  0  0
  161.3340  203.6570  150.5400 C   0  0  0  0  0  3  0  0  0  0  0  0
  162.0340  209.4930  150.1300 N   0  0  0  0  0  2  0  0  0  0  0  0
  160.8720  206.0940  150.5380 C   0  0  1  0  0  3  0  0  0  0  0  0
  161.2950  204.8130  149.8680 C   0  0  0  0  0  3  0  0  0  0  0  0
  160.2670  208.6860  156.3320 C   0  0  2  0  0  3  0  0  0  0  0  0
  161.9210  209.2680  156.8600 S   0  0  0  0  0  0  0  0  0  0  0  0
  160.0970  207.2240  156.6980 C   0  0  0  0  0  1  0  0  0  0  0  0
  160.1720  208.8470  154.8890 N   0  0  0  0  0  0  0  0  0  0  0  0
  161.2020  209.3840  154.3350 C   0  0  0  0  0  0  0  0  0  0  0  0
  162.2640  209.7460  155.2010 N   0  0  0  0  0  2  0  0  0  0  0  0
  160.0740  210.5470  152.4160 C   0  0  0  0  0  2  0  0  0  0  0  0
  160.3880  212.0150  152.6570 C   0  0  0  0  0  2  0  0  0  0  0  0
  157.2830  213.6230  151.6530 O   0  0  0  0  0  0  0  0  0  0  0  0
  159.4840  212.8480  151.8810 N   0  0  0  0  0  0  0  0  0  0  0  0
  158.0890  212.8190  152.1940 C   0  0  0  0  0  3  0  0  0  0  0  0
  160.0530  213.8290  150.9630 C   0  0  0  0  0  2  0  0  0  0  0  0
  161.4930  214.1740  147.7330 C   0  0  1  0  0  3  0  0  0  0  0  0
  163.0880  212.3810  148.0340 O   0  0  0  0  0  0  0  0  0  0  0  0
  161.1110  213.9040  146.2900 C   0  0  0  0  0  1  0  0  0  0  0  0
  160.2280  214.4530  148.5450 C   0  0  0  0  0  2  0  0  0  0  0  0
  161.1910  212.4620  149.3560 O   0  0  0  0  0  0  0  0  0  0  0  0
  160.0610  213.2930  149.5400 C   0  0  1  0  0  3  0  0  0  0  0  0
  162.0060  212.9400  148.3570 C   0  0  0  0  0  0  0  0  0  0  0  0
  1 19  1  6  0  0  0
  1 17  1  0  0  0  0
  2  5  1  0  0  0  0
  2  1  1  0  0  0  0
  3  4  1  0  0  0  0
  3  5  2  0  0  0  0
  6 11  1  0  0  0  0
  6  8  1  0  0  0  0
  7  4  2  0  0  0  0
  8  2  1  0  0  0  0
  9  7  1  0  0  0  0
 10  8  2  0  0  0  0
 11 12  1  6  0  0  0
 11  3  1  0  0  0  0
 12  9  2  0  0  0  0
 13 15  1  6  0  0  0
 13 14  1  0  0  0  0
 16 13  1  0  0  0  0
 17 16  2  0  0  0  0
 17 18  1  0  0  0  0
 18 14  1  0  0  0  0
 19 20  1  0  0  0  0
 21 23  2  0  0  0  0
 22 23  1  0  0  0  0
 22 20  1  0  0  0  0
 24 22  1  0  0  0  0
 25 27  1  6  0  0  0
 25 31  1  0  0  0  0
 25 28  1  0  0  0  0
 26 31  2  0  0  0  0
 28 30  1  0  0  0  0
 29 30  1  0  0  0  0
 30 24  1  1  0  0  0
 31 29  1  0  0  0  0
M  END
>  <MODEL>
2

>  <REMARK>
 VINA RESULT:      -7.2      3.371      8.128
  Name = 
  7 active torsions:
  status: ('A' for Active; 'I' for Inactive)
    1  A    between atoms: C_3  and  N_9
    2  A    between atoms: C_3  and  C_22
    3  A    between atoms: N_4  and  C_12
    4  A    between atoms: N_9  and  C_15
    5  A    between atoms: C_12  and  C_20
    6  A    between atoms: C_12  and  C_27
    7  A    between atoms: C_15  and  C_20
                            x       y       z     vdW  Elec       q    Type
                         _______ _______ _______ _____ _____    ______ ____

>  <TORSDO>
F 7

$$$$
=
 OpenBabel11052422273D

 31 34  0  0  1  0  0  0  0  0999 V2000
  161.0230  209.3420  152.2560 C   0  0  2  0  0  3  0  0  0  0  0  0
  160.9670  210.5870  151.4910 N   0  0  0  0  0  0  0  0  0  0  0  0
  161.7200  211.8930  149.6140 C   0  0  0  0  0  0  0  0  0  0  0  0
  162.6770  212.1730  148.5340 C   0  0  0  0  0  3  0  0  0  0  0  0
  161.8620  210.8150  150.3880 C   0  0  0  0  0  3  0  0  0  0  0  0
  160.0560  212.8240  151.1340 O   0  0  0  0  0  0  0  0  0  0  0  0
  162.6660  213.3690  147.9400 C   0  0  0  0  0  3  0  0  0  0  0  0
  160.1360  211.6760  151.9250 C   0  0  0  0  0  0  0  0  0  0  0  0
  161.7270  214.4280  148.3680 C   0  0  0  0  0  3  0  0  0  0  0  0
  159.5150  211.6300  153.0580 N   0  0  0  0  0  2  0  0  0  0  0  0
  160.5140  212.7920  149.7830 C   0  0  1  0  0  3  0  0  0  0  0  0
  160.7550  214.1810  149.2540 C   0  0  0  0  0  3  0  0  0  0  0  0
  161.2420  209.4400  155.9790 C   0  0  2  0  0  3  0  0  0  0  0  0
  162.6330  210.6130  155.7770 S   0  0  0  0  0  0  0  0  0  0  0  0
  161.7060  208.2210  156.7520 C   0  0  0  0  0  1  0  0  0  0  0  0
  160.7930  209.0400  154.6530 N   0  0  0  0  0  0  0  0  0  0  0  0
  161.4090  209.6110  153.6780 C   0  0  0  0  0  0  0  0  0  0  0  0
  162.4170  210.5420  154.0310 N   0  0  0  0  0  2  0  0  0  0  0  0
  161.9490  208.3330  151.5850 C   0  0  0  0  0  2  0  0  0  0  0  0
  161.2030  207.0500  151.2530 C   0  0  0  0  0  2  0  0  0  0  0  0
  162.4780  207.1970  147.8500 O   0  0  0  0  0  0  0  0  0  0  0  0
  161.2880  206.7830  149.8270 N   0  0  0  0  0  0  0  0  0  0  0  0
  162.2630  207.4900  149.0560 C   0  0  0  0  0  3  0  0  0  0  0  0
  160.5290  205.6640  149.2790 C   0  0  0  0  0  2  0  0  0  0  0  0
  160.3430  202.1170  149.1900 C   0  0  1  0  0  3  0  0  0  0  0  0
  161.0250  201.9400  146.8760 O   0  0  0  0  0  0  0  0  0  0  0  0
  161.1070  200.9300  149.7470 C   0  0  0  0  0  1  0  0  0  0  0  0
  160.5100  203.3110  150.1300 C   0  0  0  0  0  2  0  0  0  0  0  0
  161.5350  203.8500  148.0790 O   0  0  0  0  0  0  0  0  0  0  0  0
  161.3260  204.3730  149.3770 C   0  0  1  0  0  3  0  0  0  0  0  0
  160.9880  202.5940  147.9520 C   0  0  0  0  0  0  0  0  0  0  0  0
  1 19  1  6  0  0  0
  1 17  1  0  0  0  0
  2  8  1  0  0  0  0
  2  1  1  0  0  0  0
  3 11  1  0  0  0  0
  3  5  2  0  0  0  0
  4  3  1  0  0  0  0
  5  2  1  0  0  0  0
  6  8  1  0  0  0  0
  7  9  1  0  0  0  0
  7  4  2  0  0  0  0
  8 10  2  0  0  0  0
  9 12  2  0  0  0  0
 11 12  1  1  0  0  0
 11  6  1  0  0  0  0
 13 15  1  1  0  0  0
 14 13  1  0  0  0  0
 16 13  1  0  0  0  0
 17 18  1  0  0  0  0
 17 16  2  0  0  0  0
 18 14  1  0  0  0  0
 20 19  1  0  0  0  0
 21 23  2  0  0  0  0
 22 20  1  0  0  0  0
 23 22  1  0  0  0  0
 24 22  1  0  0  0  0
 25 27  1  1  0  0  0
 25 28  1  0  0  0  0
 26 31  2  0  0  0  0
 29 30  1  0  0  0  0
 30 24  1  6  0  0  0
 30 28  1  0  0  0  0
 31 29  1  0  0  0  0
 31 25  1  0  0  0  0
M  END
>  <MODEL>
3

>  <REMARK>
 VINA RESULT:      -7.2      2.641      4.956
  Name = 
  7 active torsions:
  status: ('A' for Active; 'I' for Inactive)
    1  A    between atoms: C_3  and  N_9
    2  A    between atoms: C_3  and  C_22
    3  A    between atoms: N_4  and  C_12
    4  A    between atoms: N_9  and  C_15
    5  A    between atoms: C_12  and  C_20
    6  A    between atoms: C_12  and  C_27
    7  A    between atoms: C_15  and  C_20
                            x       y       z     vdW  Elec       q    Type
                         _______ _______ _______ _____ _____    ______ ____

>  <TORSDO>
F 7

$$$$
=
 OpenBabel11052422273D

 31 34  0  0  1  0  0  0  0  0999 V2000
  161.2710  209.8470  153.0890 C   0  0  2  0  0  3  0  0  0  0  0  0
  161.2880  208.6330  152.2750 N   0  0  0  0  0  0  0  0  0  0  0  0
  161.0470  206.2420  152.1270 C   0  0  0  0  0  0  0  0  0  0  0  0
  160.9940  204.9080  152.7400 C   0  0  0  0  0  3  0  0  0  0  0  0
  161.1600  207.3350  152.8830 C   0  0  0  0  0  3  0  0  0  0  0  0
  161.5420  207.5260  150.1140 O   0  0  0  0  0  0  0  0  0  0  0  0
  161.1320  203.8240  151.9700 C   0  0  0  0  0  3  0  0  0  0  0  0
  161.6000  208.6960  150.8740 C   0  0  0  0  0  0  0  0  0  0  0  0
  161.3640  203.9450  150.5140 C   0  0  0  0  0  3  0  0  0  0  0  0
  161.9890  209.8010  150.3270 N   0  0  0  0  0  2  0  0  0  0  0  0
  160.8760  206.3740  150.6290 C   0  0  1  0  0  3  0  0  0  0  0  0
  161.2920  205.1270  149.8930 C   0  0  0  0  0  3  0  0  0  0  0  0
  160.2650  208.7380  156.5050 C   0  0  2  0  0  3  0  0  0  0  0  0
  161.9210  209.2770  157.0700 S   0  0  0  0  0  0  0  0  0  0  0  0
  160.0740  207.2640  156.8080 C   0  0  0  0  0  1  0  0  0  0  0  0
  160.1840  208.9600  155.0690 N   0  0  0  0  0  0  0  0  0  0  0  0
  161.2250  209.5080  154.5470 C   0  0  0  0  0  0  0  0  0  0  0  0
  162.2840  209.8190  155.4350 N   0  0  0  0  0  2  0  0  0  0  0  0
  160.1280  210.7660  152.6700 C   0  0  0  0  0  2  0  0  0  0  0  0
  160.1670  212.0710  153.4490 C   0  0  0  0  0  2  0  0  0  0  0  0
  157.7590  213.5620  151.1670 O   0  0  0  0  0  0  0  0  0  0  0  0
  159.1160  212.9580  152.9820 N   0  0  0  0  0  0  0  0  0  0  0  0
  158.7550  212.9220  151.5980 C   0  0  0  0  0  3  0  0  0  0  0  0
  158.3300  213.6920  153.9680 C   0  0  0  0  0  2  0  0  0  0  0  0
  155.5570  212.5560  155.8770 C   0  0  1  0  0  3  0  0  0  0  0  0
  155.2480  210.5300  154.5910 O   0  0  0  0  0  0  0  0  0  0  0  0
  155.2920  211.9940  157.2610 C   0  0  0  0  0  1  0  0  0  0  0  0
  156.7900  213.4580  155.9270 C   0  0  0  0  0  2  0  0  0  0  0  0
  157.2930  211.6120  154.5520 O   0  0  0  0  0  0  0  0  0  0  0  0
  157.8890  212.7750  155.0970 C   0  0  1  0  0  3  0  0  0  0  0  0
  155.9900  211.4760  154.9700 C   0  0  0  0  0  0  0  0  0  0  0  0
  1 19  1  6  0  0  0
  1 17  1  0  0  0  0
  2  5  1  0  0  0  0
  2  1  1  0  0  0  0
  3  4  1  0  0  0  0
  3  5  2  0  0  0  0
  6 11  1  0  0  0  0
  6  8  1  0  0  0  0
  7  4  2  0  0  0  0
  8  2  1  0  0  0  0
  9  7  1  0  0  0  0
 10  8  2  0  0  0  0
 11 12  1  6  0  0  0
 11  3  1  0  0  0  0
 12  9  2  0  0  0  0
 13 15  1  6  0  0  0
 13 14  1  0  0  0  0
 16 13  1  0  0  0  0
 17 16  2  0  0  0  0
 17 18  1  0  0  0  0
 18 14  1  0  0  0  0
 19 20  1  0  0  0  0
 21 23  2  0  0  0  0
 22 20  1  0  0  0  0
 22 24  1  0  0  0  0
 23 22  1  0  0  0  0
 25 28  1  0  0  0  0
 25 27  1  1  0  0  0
 26 31  2  0  0  0  0
 29 31  1  0  0  0  0
 29 30  1  0  0  0  0
 30 24  1  6  0  0  0
 30 28  1  0  0  0  0
 31 25  1  0  0  0  0
M  END
>  <MODEL>
4

>  <REMARK>
 VINA RESULT:      -7.0      3.768      8.452
  Name = 
  7 active torsions:
  status: ('A' for Active; 'I' for Inactive)
    1  A    between atoms: C_3  and  N_9
    2  A    between atoms: C_3  and  C_22
    3  A    between atoms: N_4  and  C_12
    4  A    between atoms: N_9  and  C_15
    5  A    between atoms: C_12  and  C_20
    6  A    between atoms: C_12  and  C_27
    7  A    between atoms: C_15  and  C_20
                            x       y       z     vdW  Elec       q    Type
                         _______ _______ _______ _____ _____    ______ ____

>  <TORSDO>
F 7

$$$$
=
 OpenBabel11052422273D

 31 34  0  0  1  0  0  0  0  0999 V2000
  162.2210  208.9790  150.3990 C   0  0  2  0  0  3  0  0  0  0  0  0
  161.9000  207.5690  150.1820 N   0  0  0  0  0  0  0  0  0  0  0  0
  161.2750  205.4300  151.0920 C   0  0  0  0  0  0  0  0  0  0  0  0
  161.1380  204.4940  152.2170 C   0  0  0  0  0  3  0  0  0  0  0  0
  161.6950  206.6800  151.2940 C   0  0  0  0  0  3  0  0  0  0  0  0
  161.5680  205.6710  148.6840 O   0  0  0  0  0  0  0  0  0  0  0  0
  160.9610  203.1920  151.9700 C   0  0  0  0  0  3  0  0  0  0  0  0
  161.9460  207.0030  148.8620 C   0  0  0  0  0  0  0  0  0  0  0  0
  160.9290  202.6730  150.5860 C   0  0  0  0  0  3  0  0  0  0  0  0
  162.3870  207.6880  147.8580 N   0  0  0  0  0  2  0  0  0  0  0  0
  160.8460  204.9910  149.7090 C   0  0  1  0  0  3  0  0  0  0  0  0
  160.9200  203.4970  149.5320 C   0  0  0  0  0  3  0  0  0  0  0  0
  160.4380  209.6180  153.6120 C   0  0  2  0  0  3  0  0  0  0  0  0
  161.9330  210.5240  154.1570 S   0  0  0  0  0  0  0  0  0  0  0  0
  160.1510  208.4780  154.5690 C   0  0  0  0  0  1  0  0  0  0  0  0
  160.6920  209.0900  152.2790 N   0  0  0  0  0  0  0  0  0  0  0  0
  161.8370  209.4040  151.7820 C   0  0  0  0  0  0  0  0  0  0  0  0
  162.6710  210.2160  152.5890 N   0  0  0  0  0  2  0  0  0  0  0  0
  161.5840  209.8530  149.3240 C   0  0  0  0  0  2  0  0  0  0  0  0
  162.0030  211.3060  149.4870 C   0  0  0  0  0  2  0  0  0  0  0  0
  162.9650  213.3470  146.6340 O   0  0  0  0  0  0  0  0  0  0  0  0
  161.8770  212.0030  148.2180 N   0  0  0  0  0  0  0  0  0  0  0  0
  162.9570  212.8360  147.7850 C   0  0  0  0  0  3  0  0  0  0  0  0
  160.7600  211.6660  147.3430 C   0  0  0  0  0  2  0  0  0  0  0  0
  157.4410  212.7180  146.6320 C   0  0  1  0  0  3  0  0  0  0  0  0
  156.8610  213.1210  148.9460 O   0  0  0  0  0  0  0  0  0  0  0  0
  156.7430  213.9120  146.0080 C   0  0  0  0  0  1  0  0  0  0  0  0
  158.8370  212.5760  146.0250 C   0  0  0  0  0  2  0  0  0  0  0  0
  159.0860  213.0810  148.3120 O   0  0  0  0  0  0  0  0  0  0  0  0
  159.8520  212.8680  147.1410 C   0  0  1  0  0  3  0  0  0  0  0  0
  157.7390  212.9950  148.0510 C   0  0  0  0  0  0  0  0  0  0  0  0
  1 19  1  6  0  0  0
  1 17  1  0  0  0  0
  2  1  1  0  0  0  0
  2  5  1  0  0  0  0
  3  5  2  0  0  0  0
  3  4  1  0  0  0  0
  6  8  1  0  0  0  0
  6 11  1  0  0  0  0
  7  4  2  0  0  0  0
  8  2  1  0  0  0  0
  9  7  1  0  0  0  0
 10  8  2  0  0  0  0
 11 12  1  1  0  0  0
 11  3  1  0  0  0  0
 12  9  2  0  0  0  0
 13 14  1  0  0  0  0
 13 15  1  1  0  0  0
 16 13  1  0  0  0  0
 17 16  2  0  0  0  0
 17 18  1  0  0  0  0
 18 14  1  0  0  0  0
 19 20  1  0  0  0  0
 21 23  2  0  0  0  0
 22 20  1  0  0  0  0
 23 22  1  0  0  0  0
 24 22  1  0  0  0  0
 25 27  1  6  0  0  0
 25 31  1  0  0  0  0
 28 25  1  0  0  0  0
 28 30  1  0  0  0  0
 30 24  1  1  0  0  0
 30 29  1  0  0  0  0
 31 29  1  0  0  0  0
 31 26  2  0  0  0  0
M  END
>  <MODEL>
5

>  <REMARK>
 VINA RESULT:      -6.7      3.085      7.374
  Name = 
  7 active torsions:
  status: ('A' for Active; 'I' for Inactive)
    1  A    between atoms: C_3  and  N_9
    2  A    between atoms: C_3  and  C_22
    3  A    between atoms: N_4  and  C_12
    4  A    between atoms: N_9  and  C_15
    5  A    between atoms: C_12  and  C_20
    6  A    between atoms: C_12  and  C_27
    7  A    between atoms: C_15  and  C_20
                            x       y       z     vdW  Elec       q    Type
                         _______ _______ _______ _____ _____    ______ ____

>  <TORSDO>
F 7

$$$$
=
 OpenBabel11052422273D

 31 34  0  0  1  0  0  0  0  0999 V2000
  160.6550  209.4300  152.5620 C   0  0  2  0  0  3  0  0  0  0  0  0
  160.7360  210.6030  151.6920 N   0  0  0  0  0  0  0  0  0  0  0  0
  161.6300  211.6540  149.7190 C   0  0  0  0  0  0  0  0  0  0  0  0
  162.6140  211.7340  148.6310 C   0  0  0  0  0  3  0  0  0  0  0  0
  161.6530  210.6370  150.5840 C   0  0  0  0  0  3  0  0  0  0  0  0
  160.0740  212.8860  151.1350 O   0  0  0  0  0  0  0  0  0  0  0  0
  162.7350  212.8690  147.9360 C   0  0  0  0  0  3  0  0  0  0  0  0
  160.0270  211.8090  152.0220 C   0  0  0  0  0  0  0  0  0  0  0  0
  161.9160  214.0570  148.2620 C   0  0  0  0  0  3  0  0  0  0  0  0
  159.4020  211.9280  153.1480 N   0  0  0  0  0  2  0  0  0  0  0  0
  160.5290  212.6890  149.7970 C   0  0  1  0  0  3  0  0  0  0  0  0
  160.9210  213.9930  149.1550 C   0  0  0  0  0  3  0  0  0  0  0  0
  161.2160  209.7560  156.2350 C   0  0  2  0  0  3  0  0  0  0  0  0
  162.7320  210.7000  155.8280 S   0  0  0  0  0  0  0  0  0  0  0  0
  161.5760  208.5410  157.0660 C   0  0  0  0  0  1  0  0  0  0  0  0
  160.6000  209.3340  154.9860 N   0  0  0  0  0  0  0  0  0  0  0  0
  161.1990  209.7400  153.9220 C   0  0  0  0  0  0  0  0  0  0  0  0
  162.3530  210.5380  154.1160 N   0  0  0  0  0  2  0  0  0  0  0  0
  161.3430  208.2300  151.9200 C   0  0  0  0  0  2  0  0  0  0  0  0
  160.8300  206.9280  152.5160 C   0  0  0  0  0  2  0  0  0  0  0  0
  161.5750  203.4610  151.7050 O   0  0  0  0  0  0  0  0  0  0  0  0
  161.4260  205.7990  151.8220 N   0  0  0  0  0  0  0  0  0  0  0  0
  161.2060  204.4840  152.3420 C   0  0  0  0  0  3  0  0  0  0  0  0
  162.0420  206.0240  150.5190 C   0  0  0  0  0  2  0  0  0  0  0  0
  161.5700  205.9540  146.9980 C   0  0  1  0  0  3  0  0  0  0  0  0
  161.6830  203.5440  146.8300 O   0  0  0  0  0  0  0  0  0  0  0  0
  160.4530  206.2030  146.0020 C   0  0  0  0  0  1  0  0  0  0  0  0
  161.3270  206.7990  148.2490 C   0  0  0  0  0  2  0  0  0  0  0  0
  161.1710  204.5290  148.8600 O   0  0  0  0  0  0  0  0  0  0  0  0
  161.0280  205.8280  149.4030 C   0  0  1  0  0  3  0  0  0  0  0  0
  161.4810  204.5780  147.5210 C   0  0  0  0  0  0  0  0  0  0  0  0
  1 19  1  6  0  0  0
  1 17  1  0  0  0  0
  2  8  1  0  0  0  0
  2  1  1  0  0  0  0
  3 11  1  0  0  0  0
  3  5  2  0  0  0  0
  4  3  1  0  0  0  0
  5  2  1  0  0  0  0
  6  8  1  0  0  0  0
  7  9  1  0  0  0  0
  7  4  2  0  0  0  0
  8 10  2  0  0  0  0
  9 12  2  0  0  0  0
 11 12  1  1  0  0  0
 11  6  1  0  0  0  0
 13 15  1  1  0  0  0
 14 13  1  0  0  0  0
 16 13  1  0  0  0  0
 17 18  1  0  0  0  0
 17 16  2  0  0  0  0
 18 14  1  0  0  0  0
 19 20  1  0  0  0  0
 21 23  2  0  0  0  0
 22 23  1  0  0  0  0
 22 20  1  0  0  0  0
 24 22  1  0  0  0  0
 25 27  1  6  0  0  0
 25 31  1  0  0  0  0
 25 28  1  0  0  0  0
 26 31  2  0  0  0  0
 28 30  1  0  0  0  0
 29 30  1  0  0  0  0
 30 24  1  1  0  0  0
 31 29  1  0  0  0  0
M  END
>  <MODEL>
6

>  <REMARK>
 VINA RESULT:      -6.6      2.721      5.553
  Name = 
  7 active torsions:
  status: ('A' for Active; 'I' for Inactive)
    1  A    between atoms: C_3  and  N_9
    2  A    between atoms: C_3  and  C_22
    3  A    between atoms: N_4  and  C_12
    4  A    between atoms: N_9  and  C_15
    5  A    between atoms: C_12  and  C_20
    6  A    between atoms: C_12  and  C_27
    7  A    between atoms: C_15  and  C_20
                            x       y       z     vdW  Elec       q    Type
                         _______ _______ _______ _____ _____    ______ ____

>  <TORSDO>
F 7

$$$$
=
 OpenBabel11052422273D

 31 34  0  0  1  0  0  0  0  0999 V2000
  161.3240  210.0920  152.1140 C   0  0  2  0  0  3  0  0  0  0  0  0
  160.6230  210.4960  153.3330 N   0  0  0  0  0  0  0  0  0  0  0  0
  158.5620  211.0770  154.4330 C   0  0  0  0  0  0  0  0  0  0  0  0
  157.1550  211.5000  154.4030 C   0  0  0  0  0  3  0  0  0  0  0  0
  159.2250  210.8360  153.3000 C   0  0  0  0  0  3  0  0  0  0  0  0
  160.6380  211.0450  155.7110 O   0  0  0  0  0  0  0  0  0  0  0  0
  156.5870  211.9740  155.5160 C   0  0  0  0  0  3  0  0  0  0  0  0
  161.3480  210.7240  154.5520 C   0  0  0  0  0  0  0  0  0  0  0  0
  157.3580  212.1070  156.7720 C   0  0  0  0  0  3  0  0  0  0  0  0
  162.6400  210.6970  154.5740 N   0  0  0  0  0  2  0  0  0  0  0  0
  159.2300  210.8260  155.7680 C   0  0  1  0  0  3  0  0  0  0  0  0
  158.5980  211.6170  156.8830 C   0  0  0  0  0  3  0  0  0  0  0  0
  161.7020  212.2020  149.0610 C   0  0  2  0  0  3  0  0  0  0  0  0
  160.4590  213.3290  149.7960 S   0  0  0  0  0  0  0  0  0  0  0  0
  161.2090  211.7010  147.7170 C   0  0  0  0  0  1  0  0  0  0  0  0
  161.8840  211.0780  149.9690 N   0  0  0  0  0  0  0  0  0  0  0  0
  161.2030  211.1470  151.0580 C   0  0  0  0  0  0  0  0  0  0  0  0
  160.3900  212.2960  151.2210 N   0  0  0  0  0  2  0  0  0  0  0  0
  160.8360  208.7300  151.6330 C   0  0  0  0  0  2  0  0  0  0  0  0
  161.9900  207.9000  151.0930 C   0  0  0  0  0  2  0  0  0  0  0  0
  162.2030  207.2950  147.5120 O   0  0  0  0  0  0  0  0  0  0  0  0
  161.6440  207.3610  149.7890 N   0  0  0  0  0  0  0  0  0  0  0  0
  162.3610  207.8290  148.6430 C   0  0  0  0  0  3  0  0  0  0  0  0
  160.7340  206.2220  149.7220 C   0  0  0  0  0  2  0  0  0  0  0  0
  160.4340  202.6880  149.9250 C   0  0  1  0  0  3  0  0  0  0  0  0
  160.9130  202.3130  147.5840 O   0  0  0  0  0  0  0  0  0  0  0  0
  161.2060  201.5190  150.5090 C   0  0  0  0  0  1  0  0  0  0  0  0
  160.7160  203.9420  150.7530 C   0  0  0  0  0  2  0  0  0  0  0  0
  161.5800  204.2870  148.5890 O   0  0  0  0  0  0  0  0  0  0  0  0
  161.4970  204.9140  149.8550 C   0  0  1  0  0  3  0  0  0  0  0  0
  160.9860  203.0470  148.6050 C   0  0  0  0  0  0  0  0  0  0  0  0
  1 19  1  6  0  0  0
  1  2  1  0  0  0  0
  2  8  1  0  0  0  0
  3 11  1  0  0  0  0
  4  3  1  0  0  0  0
  4  7  2  0  0  0  0
  5  2  1  0  0  0  0
  5  3  2  0  0  0  0
  6 11  1  0  0  0  0
  7  9  1  0  0  0  0
  8 10  2  0  0  0  0
  8  6  1  0  0  0  0
  9 12  2  0  0  0  0
 11 12  1  1  0  0  0
 13 15  1  6  0  0  0
 13 14  1  0  0  0  0
 13 16  1  0  0  0  0
 14 18  1  0  0  0  0
 16 17  2  0  0  0  0
 17 18  1  0  0  0  0
 17  1  1  0  0  0  0
 20 19  1  0  0  0  0
 21 23  2  0  0  0  0
 22 20  1  0  0  0  0
 23 22  1  0  0  0  0
 24 22  1  0  0  0  0
 25 27  1  1  0  0  0
 25 28  1  0  0  0  0
 26 31  2  0  0  0  0
 29 31  1  0  0  0  0
 29 30  1  0  0  0  0
 30 24  1  6  0  0  0
 30 28  1  0  0  0  0
 31 25  1  0  0  0  0
M  END
>  <MODEL>
7

>  <REMARK>
 VINA RESULT:      -6.3      2.154      2.902
  Name = 
  7 active torsions:
  status: ('A' for Active; 'I' for Inactive)
    1  A    between atoms: C_3  and  N_9
    2  A    between atoms: C_3  and  C_22
    3  A    between atoms: N_4  and  C_12
    4  A    between atoms: N_9  and  C_15
    5  A    between atoms: C_12  and  C_20
    6  A    between atoms: C_12  and  C_27
    7  A    between atoms: C_15  and  C_20
                            x       y       z     vdW  Elec       q    Type
                         _______ _______ _______ _____ _____    ______ ____

>  <TORSDO>
F 7

$$$$
=
 OpenBabel11052422273D

 31 34  0  0  1  0  0  0  0  0999 V2000
  162.0280  209.2550  150.8650 C   0  0  2  0  0  3  0  0  0  0  0  0
  161.7560  207.8540  150.5440 N   0  0  0  0  0  0  0  0  0  0  0  0
  161.1380  205.6480  151.2850 C   0  0  0  0  0  0  0  0  0  0  0  0
  160.9650  204.6400  152.3410 C   0  0  0  0  0  3  0  0  0  0  0  0
  161.5130  206.8930  151.5870 C   0  0  0  0  0  3  0  0  0  0  0  0
  161.5570  206.0460  148.9170 O   0  0  0  0  0  0  0  0  0  0  0  0
  160.8360  203.3530  152.0060 C   0  0  0  0  0  3  0  0  0  0  0  0
  161.8890  207.3720  149.1970 C   0  0  0  0  0  0  0  0  0  0  0  0
  160.8930  202.9210  150.5930 C   0  0  0  0  0  3  0  0  0  0  0  0
  162.3660  208.1280  148.2630 N   0  0  0  0  0  2  0  0  0  0  0  0
  160.7970  205.2870  149.8560 C   0  0  1  0  0  3  0  0  0  0  0  0
  160.9200  203.8090  149.5930 C   0  0  0  0  0  3  0  0  0  0  0  0
  161.2790  209.7380  154.4870 C   0  0  2  0  0  3  0  0  0  0  0  0
  159.7170  210.5390  153.9640 S   0  0  0  0  0  0  0  0  0  0  0  0
  162.1000  210.7050  155.3170 C   0  0  0  0  0  1  0  0  0  0  0  0
  162.0180  209.3670  153.2890 N   0  0  0  0  0  0  0  0  0  0  0  0
  161.4170  209.6260  152.1810 C   0  0  0  0  0  0  0  0  0  0  0  0
  160.1350  210.2180  152.2840 N   0  0  0  0  0  2  0  0  0  0  0  0
  161.5710  210.1690  149.7330 C   0  0  0  0  0  2  0  0  0  0  0  0
  162.3400  211.4810  149.7520 C   0  0  0  0  0  2  0  0  0  0  0  0
  159.6770  213.9580  149.8240 O   0  0  0  0  0  0  0  0  0  0  0  0
  161.4850  212.5620  149.2930 N   0  0  0  0  0  0  0  0  0  0  0  0
  160.3650  212.9390  150.0990 C   0  0  0  0  0  3  0  0  0  0  0  0
  161.9150  213.3540  148.1450 C   0  0  0  0  0  2  0  0  0  0  0  0
  160.1710  213.2450  145.0510 C   0  0  1  0  0  3  0  0  0  0  0  0
  161.9750  214.2270  143.7720 O   0  0  0  0  0  0  0  0  0  0  0  0
  159.7170  212.2030  144.0460 C   0  0  0  0  0  1  0  0  0  0  0  0
  160.2420  212.6080  146.4400 C   0  0  0  0  0  2  0  0  0  0  0  0
  162.4260  213.2230  145.8080 O   0  0  0  0  0  0  0  0  0  0  0  0
  161.7220  212.5780  146.8520 C   0  0  1  0  0  3  0  0  0  0  0  0
  161.5780  213.6090  144.7960 C   0  0  0  0  0  0  0  0  0  0  0  0
  1 19  1  6  0  0  0
  1 17  1  0  0  0  0
  2  1  1  0  0  0  0
  2  5  1  0  0  0  0
  3  5  2  0  0  0  0
  3  4  1  0  0  0  0
  6  8  1  0  0  0  0
  6 11  1  0  0  0  0
  7  4  2  0  0  0  0
  8  2  1  0  0  0  0
  9  7  1  0  0  0  0
 10  8  2  0  0  0  0
 11 12  1  1  0  0  0
 11  3  1  0  0  0  0
 12  9  2  0  0  0  0
 13 15  1  1  0  0  0
 14 13  1  0  0  0  0
 16 13  1  0  0  0  0
 17 18  1  0  0  0  0
 17 16  2  0  0  0  0
 18 14  1  0  0  0  0
 19 20  1  0  0  0  0
 21 23  2  0  0  0  0
 22 20  1  0  0  0  0
 22 23  1  0  0  0  0
 24 22  1  0  0  0  0
 25 27  1  6  0  0  0
 25 28  1  0  0  0  0
 26 31  2  0  0  0  0
 28 30  1  0  0  0  0
 29 30  1  0  0  0  0
 30 24  1  1  0  0  0
 31 25  1  0  0  0  0
 31 29  1  0  0  0  0
M  END
>  <MODEL>
8

>  <REMARK>
 VINA RESULT:      -6.3      3.364      7.709
  Name = 
  7 active torsions:
  status: ('A' for Active; 'I' for Inactive)
    1  A    between atoms: C_3  and  N_9
    2  A    between atoms: C_3  and  C_22
    3  A    between atoms: N_4  and  C_12
    4  A    between atoms: N_9  and  C_15
    5  A    between atoms: C_12  and  C_20
    6  A    between atoms: C_12  and  C_27
    7  A    between atoms: C_15  and  C_20
                            x       y       z     vdW  Elec       q    Type
                         _______ _______ _______ _____ _____    ______ ____

>  <TORSDO>
F 7

$$$$
=
 OpenBabel11052422273D

 31 34  0  0  1  0  0  0  0  0999 V2000
  161.4890  210.1690  151.7280 C   0  0  2  0  0  3  0  0  0  0  0  0
  160.8070  210.4890  152.9820 N   0  0  0  0  0  0  0  0  0  0  0  0
  158.7700  211.0320  154.1440 C   0  0  0  0  0  0  0  0  0  0  0  0
  157.3750  211.4940  154.1600 C   0  0  0  0  0  3  0  0  0  0  0  0
  159.4190  210.8680  152.9900 C   0  0  0  0  0  3  0  0  0  0  0  0
  160.8520  210.8380  155.3970 O   0  0  0  0  0  0  0  0  0  0  0  0
  156.8270  211.8890  155.3140 C   0  0  0  0  0  3  0  0  0  0  0  0
  161.5450  210.5960  154.2100 C   0  0  0  0  0  0  0  0  0  0  0  0
  157.6080  211.8970  156.5690 C   0  0  0  0  0  3  0  0  0  0  0  0
  162.8360  210.5320  154.2190 N   0  0  0  0  0  2  0  0  0  0  0  0
  159.4380  210.6540  155.4480 C   0  0  1  0  0  3  0  0  0  0  0  0
  158.8350  211.3660  156.6290 C   0  0  0  0  0  3  0  0  0  0  0  0
  161.7070  212.4230  148.7640 C   0  0  2  0  0  3  0  0  0  0  0  0
  160.5030  213.5090  149.6150 S   0  0  0  0  0  0  0  0  0  0  0  0
  161.1480  211.9850  147.4250 C   0  0  0  0  0  1  0  0  0  0  0  0
  161.9370  211.2580  149.6070 N   0  0  0  0  0  0  0  0  0  0  0  0
  161.3130  211.2720  150.7320 C   0  0  0  0  0  0  0  0  0  0  0  0
  160.5080  212.4090  150.9900 N   0  0  0  0  0  2  0  0  0  0  0  0
  161.0280  208.8190  151.1890 C   0  0  0  0  0  2  0  0  0  0  0  0
  162.1800  207.8280  151.1490 C   0  0  0  0  0  2  0  0  0  0  0  0
  161.2970  204.3440  151.7100 O   0  0  0  0  0  0  0  0  0  0  0  0
  161.6780  206.4960  150.8590 N   0  0  0  0  0  0  0  0  0  0  0  0
  161.8380  205.4740  151.8470 C   0  0  0  0  0  3  0  0  0  0  0  0
  160.8500  206.3040  149.6730 C   0  0  0  0  0  2  0  0  0  0  0  0
  161.4060  204.7210  146.5400 C   0  0  1  0  0  3  0  0  0  0  0  0
  160.1760  206.3670  145.2650 O   0  0  0  0  0  0  0  0  0  0  0  0
  162.5560  204.4930  145.5770 C   0  0  0  0  0  1  0  0  0  0  0  0
  161.9570  204.8520  147.9610 C   0  0  0  0  0  2  0  0  0  0  0  0
  160.9920  206.9150  147.3600 O   0  0  0  0  0  0  0  0  0  0  0  0
  161.7050  206.2980  148.4150 C   0  0  1  0  0  3  0  0  0  0  0  0
  160.8090  206.0490  146.3070 C   0  0  0  0  0  0  0  0  0  0  0  0
  1 19  1  6  0  0  0
  1  2  1  0  0  0  0
  2  5  1  0  0  0  0
  2  8  1  0  0  0  0
  3  4  1  0  0  0  0
  3 11  1  0  0  0  0
  4  7  2  0  0  0  0
  5  3  2  0  0  0  0
  6 11  1  0  0  0  0
  7  9  1  0  0  0  0
  8 10  2  0  0  0  0
  8  6  1  0  0  0  0
  9 12  2  0  0  0  0
 11 12  1  1  0  0  0
 13 15  1  6  0  0  0
 13 16  1  0  0  0  0
 13 14  1  0  0  0  0
 14 18  1  0  0  0  0
 16 17  2  0  0  0  0
 17 18  1  0  0  0  0
 17  1  1  0  0  0  0
 20 19  1  0  0  0  0
 21 23  2  0  0  0  0
 22 20  1  0  0  0  0
 22 23  1  0  0  0  0
 24 22  1  0  0  0  0
 25 27  1  6  0  0  0
 25 28  1  0  0  0  0
 26 31  2  0  0  0  0
 28 30  1  0  0  0  0
 29 30  1  0  0  0  0
 30 24  1  1  0  0  0
 31 25  1  0  0  0  0
 31 29  1  0  0  0  0
M  END
>  <MODEL>
9

>  <REMARK>
 VINA RESULT:      -6.3      2.160      3.689
  Name = 
  7 active torsions:
  status: ('A' for Active; 'I' for Inactive)
    1  A    between atoms: C_3  and  N_9
    2  A    between atoms: C_3  and  C_22
    3  A    between atoms: N_4  and  C_12
    4  A    between atoms: N_9  and  C_15
    5  A    between atoms: C_12  and  C_20
    6  A    between atoms: C_12  and  C_27
    7  A    between atoms: C_15  and  C_20
                            x       y       z     vdW  Elec       q    Type
                         _______ _______ _______ _____ _____    ______ ____

>  <TORSDO>
F 7

$$$$
