=
 OpenBabel11062407523D

 34 39  0  0  1  0  0  0  0  0999 V2000
  161.0580  207.7600  154.5880 C   0  0  0  0  0  0  0  0  0  0  0  0
  161.4880  210.0570  153.6420 C   0  0  2  0  0  3  0  0  0  0  0  0
  161.1960  207.9880  152.1550 C   0  0  0  0  0  0  0  0  0  0  0  0
  161.3410  208.1130  149.6910 C   0  0  0  0  0  0  0  0  0  0  0  0
  160.8690  209.6930  156.0030 C   0  0  0  0  0  3  0  0  0  0  0  0
  161.0730  210.5480  155.0000 C   0  0  0  0  0  3  0  0  0  0  0  0
  161.5590  210.1200  150.8240 N   0  0  0  0  0  0  0  0  0  0  0  0
  161.2060  208.5810  153.4450 C   0  0  0  0  0  0  0  0  0  0  0  0
  162.2450  211.8180  149.3240 N   0  0  0  0  0  2  0  0  0  0  0  0
  161.6940  209.2070  148.3320 S   0  0  0  0  0  0  0  0  0  0  0  0
  160.9400  208.2800  155.7750 N   0  0  0  0  0  0  0  0  0  0  0  0
  161.1180  206.5730  152.0270 C   0  0  0  0  0  0  0  0  0  0  0  0
  160.9820  206.3770  154.4510 C   0  0  0  0  0  3  0  0  0  0  0  0
  163.2380  210.3590  153.4490 Cl  0  0  0  0  0  0  0  0  0  0  0  0
  161.3520  206.8210  149.6140 N   0  0  0  0  0  0  0  0  0  0  0  0
  161.1800  205.9980  150.7880 C   0  0  0  0  0  0  0  0  0  0  0  0
  161.8090  210.4880  149.6090 C   0  0  0  0  0  0  0  0  0  0  0  0
  161.2720  208.7600  150.9410 N   0  0  0  0  0  0  0  0  0  0  0  0
  161.0240  205.7910  153.1890 C   0  0  0  0  0  3  0  0  0  0  0  0
  160.8450  202.5780  149.1530 C   0  0  0  0  0  0  0  0  0  0  0  0
  161.2060  201.7420  150.2140 C   0  0  0  0  0  3  0  0  0  0  0  0
  161.1660  204.5290  150.5730 C   0  0  0  0  0  0  0  0  0  0  0  0
  161.5710  202.2960  151.4440 C   0  0  0  0  0  3  0  0  0  0  0  0
  160.8250  203.9650  149.3310 C   0  0  0  0  0  3  0  0  0  0  0  0
  161.5560  203.6820  151.6210 C   0  0  0  0  0  3  0  0  0  0  0  0
  160.5070  202.0420  147.9550 F   0  0  0  0  0  0  0  0  0  0  0  0
  162.6010  212.2140  148.0260 N   0  0  0  0  0  2  0  0  0  0  0  0
  159.7910  212.5580  147.5410 O   0  0  0  0  0  1  0  0  0  0  0  0
  161.9950  213.5180  147.7740 C   0  0  2  0  0  3  0  0  0  0  0  0
  160.7380  213.3670  146.9060 C   0  0  1  0  0  3  0  0  0  0  0  0
  162.4700  213.1130  145.0250 C   0  0  0  0  0  2  0  0  0  0  0  0
  162.9730  214.4470  145.5680 C   0  0  0  0  0  2  0  0  0  0  0  0
  163.0210  214.4530  147.1080 C   0  0  0  0  0  2  0  0  0  0  0  0
  161.0410  212.8180  145.5010 C   0  0  0  0  0  2  0  0  0  0  0  0
  1 11  2  0  0  0  0
  2 14  1  1  0  0  0
  2  6  1  0  0  0  0
  3  8  2  0  0  0  0
  4 18  1  0  0  0  0
  6  5  2  0  0  0  0
  7 18  1  0  0  0  0
  8  2  1  0  0  0  0
  8  1  1  0  0  0  0
  9 17  1  0  0  0  0
 10 17  1  0  0  0  0
 10  4  1  0  0  0  0
 11  5  1  0  0  0  0
 12  3  1  0  0  0  0
 12 19  1  0  0  0  0
 13  1  1  0  0  0  0
 15  4  2  0  0  0  0
 15 16  1  0  0  0  0
 16 12  2  0  0  0  0
 17  7  2  0  0  0  0
 18  3  1  0  0  0  0
 19 13  2  0  0  0  0
 20 24  2  0  0  0  0
 20 21  1  0  0  0  0
 21 23  2  0  0  0  0
 22 16  1  0  0  0  0
 22 25  2  0  0  0  0
 23 25  1  0  0  0  0
 24 22  1  0  0  0  0
 26 20  1  0  0  0  0
 27  9  1  0  0  0  0
 29 27  1  6  0  0  0
 30 28  1  1  0  0  0
 30 29  1  0  0  0  0
 31 34  1  0  0  0  0
 31 32  1  0  0  0  0
 32 33  1  0  0  0  0
 33 29  1  0  0  0  0
 34 30  1  0  0  0  0
M  END
>  <MODEL>
1

>  <REMARK>
 VINA RESULT:      -8.9      0.000      0.000
  Name = 
  3 active torsions:
  status: ('A' for Active; 'I' for Inactive)
    1  A    between atoms: N_3  and  C_13
    2  A    between atoms: N_3  and  N_17
    3  A    between atoms: C_12  and  C_28
                            x       y       z     vdW  Elec       q    Type
                         _______ _______ _______ _____ _____    ______ ____

>  <TORSDO>
F 3

$$$$
=
 OpenBabel11062407523D

 34 39  0  0  1  0  0  0  0  0999 V2000
  161.1390  206.3220  153.5070 C   0  0  0  0  0  0  0  0  0  0  0  0
  161.4080  208.7330  152.8180 C   0  0  2  0  0  3  0  0  0  0  0  0
  161.1130  206.8390  151.1140 C   0  0  0  0  0  0  0  0  0  0  0  0
  161.0960  207.2570  148.6790 C   0  0  0  0  0  0  0  0  0  0  0  0
  160.9560  208.0650  155.1500 C   0  0  0  0  0  3  0  0  0  0  0  0
  161.0600  209.0400  154.2470 C   0  0  0  0  0  3  0  0  0  0  0  0
  161.2980  209.1270  150.0290 N   0  0  0  0  0  0  0  0  0  0  0  0
  161.1790  207.2770  152.4630 C   0  0  0  0  0  0  0  0  0  0  0  0
  161.8130  211.0200  148.7050 N   0  0  0  0  0  2  0  0  0  0  0  0
  161.3150  208.5180  147.4420 S   0  0  0  0  0  0  0  0  0  0  0  0
  161.0740  206.6940  154.7520 N   0  0  0  0  0  0  0  0  0  0  0  0
  161.0890  205.4460  150.8230 C   0  0  0  0  0  0  0  0  0  0  0  0
  161.1150  204.9630  153.2100 C   0  0  0  0  0  3  0  0  0  0  0  0
  163.1270  209.1430  152.5620 Cl  0  0  0  0  0  0  0  0  0  0  0  0
  161.1580  205.9850  148.4480 N   0  0  0  0  0  0  0  0  0  0  0  0
  161.0970  205.0230  149.5230 C   0  0  0  0  0  0  0  0  0  0  0  0
  161.4540  209.6450  148.8530 C   0  0  0  0  0  0  0  0  0  0  0  0
  161.0790  207.7490  149.9980 N   0  0  0  0  0  0  0  0  0  0  0  0
  161.1030  204.5300  151.8870 C   0  0  0  0  0  3  0  0  0  0  0  0
  161.2410  201.8300  147.4570 C   0  0  0  0  0  0  0  0  0  0  0  0
  161.2510  200.8630  148.4670 C   0  0  0  0  0  3  0  0  0  0  0  0
  161.1330  203.5900  149.1360 C   0  0  0  0  0  0  0  0  0  0  0  0
  161.2280  201.2560  149.8080 C   0  0  0  0  0  3  0  0  0  0  0  0
  161.1830  203.1870  147.7890 C   0  0  0  0  0  3  0  0  0  0  0  0
  161.1750  202.6120  150.1400 C   0  0  0  0  0  3  0  0  0  0  0  0
  161.2800  201.4500  146.1570 F   0  0  0  0  0  0  0  0  0  0  0  0
  162.0690  211.5820  147.4450 N   0  0  0  0  0  2  0  0  0  0  0  0
  159.4760  211.9640  146.2710 O   0  0  0  0  0  1  0  0  0  0  0  0
  161.4070  212.8820  147.3920 C   0  0  2  0  0  3  0  0  0  0  0  0
  160.4590  212.9540  146.1870 C   0  0  1  0  0  3  0  0  0  0  0  0
  162.6530  213.3210  144.9020 C   0  0  0  0  0  2  0  0  0  0  0  0
  162.8330  214.4510  145.9100 C   0  0  0  0  0  2  0  0  0  0  0  0
  162.4600  214.0050  147.3380 C   0  0  0  0  0  2  0  0  0  0  0  0
  161.1920  212.8530  144.8390 C   0  0  0  0  0  2  0  0  0  0  0  0
  1 11  2  0  0  0  0
  2 14  1  1  0  0  0
  2  6  1  0  0  0  0
  3  8  2  0  0  0  0
  4 18  1  0  0  0  0
  6  5  2  0  0  0  0
  8  2  1  0  0  0  0
  8  1  1  0  0  0  0
  9 17  1  0  0  0  0
 10  4  1  0  0  0  0
 10 17  1  0  0  0  0
 11  5  1  0  0  0  0
 12  3  1  0  0  0  0
 12 19  1  0  0  0  0
 13  1  1  0  0  0  0
 15  4  2  0  0  0  0
 15 16  1  0  0  0  0
 16 12  2  0  0  0  0
 17  7  2  0  0  0  0
 18  7  1  0  0  0  0
 18  3  1  0  0  0  0
 19 13  2  0  0  0  0
 20 24  2  0  0  0  0
 20 21  1  0  0  0  0
 21 23  2  0  0  0  0
 22 16  1  0  0  0  0
 22 25  2  0  0  0  0
 23 25  1  0  0  0  0
 24 22  1  0  0  0  0
 26 20  1  0  0  0  0
 27  9  1  0  0  0  0
 29 27  1  6  0  0  0
 30 28  1  1  0  0  0
 30 29  1  0  0  0  0
 31 32  1  0  0  0  0
 32 33  1  0  0  0  0
 33 29  1  0  0  0  0
 34 31  1  0  0  0  0
 34 30  1  0  0  0  0
M  END
>  <MODEL>
2

>  <REMARK>
 VINA RESULT:      -6.4      1.135      1.510
  Name = 
  3 active torsions:
  status: ('A' for Active; 'I' for Inactive)
    1  A    between atoms: N_3  and  C_13
    2  A    between atoms: N_3  and  N_17
    3  A    between atoms: C_12  and  C_28
                            x       y       z     vdW  Elec       q    Type
                         _______ _______ _______ _____ _____    ______ ____

>  <TORSDO>
F 3

$$$$
=
 OpenBabel11062407523D

 34 39  0  0  1  0  0  0  0  0999 V2000
  161.9900  210.3180  148.6790 C   0  0  0  0  0  0  0  0  0  0  0  0
  161.4000  212.1790  150.2740 C   0  0  0  0  0  0  0  0  0  0  0  0
  161.4290  209.7150  150.9830 C   0  0  0  0  0  0  0  0  0  0  0  0
  160.8570  209.0040  153.2800 C   0  0  0  0  0  0  0  0  0  0  0  0
  162.4210  212.6010  148.0680 C   0  0  0  0  0  3  0  0  0  0  0  0
  162.0450  213.0760  149.2550 C   0  0  0  0  0  3  0  0  0  0  0  0
  160.8380  211.2860  152.8880 N   0  0  0  0  0  0  0  0  0  0  0  0
  161.6440  210.7100  149.9940 C   0  0  0  0  0  0  0  0  0  0  0  0
  159.9000  212.4120  154.7470 N   0  0  0  0  0  2  0  0  0  0  0  0
  160.2720  209.5910  154.8550 S   0  0  0  0  0  0  0  0  0  0  0  0
  162.3130  211.2020  147.7800 N   0  0  0  0  0  0  0  0  0  0  0  0
  161.4840  208.3390  150.6270 C   0  0  0  0  0  0  0  0  0  0  0  0
  162.0420  208.9690  148.3410 C   0  0  0  0  0  3  0  0  0  0  0  0
  159.6430  212.5010  150.2690 Cl  0  0  0  0  0  0  0  0  0  0  0  0
  160.8340  207.7660  152.9040 N   0  0  0  0  0  0  0  0  0  0  0  0
  161.2080  207.3820  151.5640 C   0  0  0  0  0  0  0  0  0  0  0  0
  160.3800  211.2330  154.0980 C   0  0  0  0  0  0  0  0  0  0  0  0
  161.1420  210.0310  152.3590 N   0  0  0  0  0  0  0  0  0  0  0  0
  161.7810  207.9930  149.2990 C   0  0  0  0  0  2  0  0  0  0  0  0
  161.1120  204.0770  149.6800 C   0  0  0  0  0  0  0  0  0  0  0  0
  161.1980  203.1670  150.7390 C   0  0  0  0  0  3  0  0  0  0  0  0
  161.1860  205.9290  151.2580 C   0  0  0  0  0  0  0  0  0  0  0  0
  161.3030  203.6350  152.0520 C   0  0  0  0  0  3  0  0  0  0  0  0
  161.1060  205.4510  149.9380 C   0  0  0  0  0  3  0  0  0  0  0  0
  161.3020  205.0080  152.3090 C   0  0  0  0  0  3  0  0  0  0  0  0
  161.0270  203.6240  148.4050 F   0  0  0  0  0  0  0  0  0  0  0  0
  159.3220  212.3640  156.0250 N   0  0  0  0  0  2  0  0  0  0  0  0
  156.7410  212.1010  157.2560 O   0  0  0  0  0  1  0  0  0  0  0  0
  158.3790  213.4730  156.1310 C   0  0  2  0  0  3  0  0  0  0  0  0
  156.9360  212.9490  156.1630 C   0  0  1  0  0  3  0  0  0  0  0  0
  157.3220  212.7000  153.6350 C   0  0  0  0  0  2  0  0  0  0  0  0
  157.6920  214.1760  153.7390 C   0  0  0  0  0  2  0  0  0  0  0  0
  158.5880  214.4530  154.9630 C   0  0  0  0  0  2  0  0  0  0  0  0
  156.5280  212.2340  154.8640 C   0  0  0  0  0  2  0  0  0  0  0  0
  1  8  1  0  0  0  0
  3 18  1  0  0  0  0
  4 10  1  0  0  0  0
  5  6  1  0  0  0  0
  6  2  2  0  0  0  0
  7 17  2  0  0  0  0
  8  2  1  0  0  0  0
  8  3  2  0  0  0  0
  9 27  1  0  0  0  0
 11  5  2  0  0  0  0
 11  1  1  0  0  0  0
 12  3  1  0  0  0  0
 12 16  2  0  0  0  0
 13  1  2  0  0  0  0
 13 19  1  0  0  0  0
 14  2  1  0  0  0  0
 15  4  2  0  0  0  0
 16 15  1  0  0  0  0
 17  9  1  0  0  0  0
 17 10  1  0  0  0  0
 18  7  1  0  0  0  0
 18  4  1  0  0  0  0
 19 12  1  0  0  0  0
 20 24  2  0  0  0  0
 20 21  1  0  0  0  0
 21 23  2  0  0  0  0
 22 16  1  0  0  0  0
 22 25  2  0  0  0  0
 23 25  1  0  0  0  0
 24 22  1  0  0  0  0
 26 20  1  0  0  0  0
 29 27  1  6  0  0  0
 29 30  1  0  0  0  0
 30 28  1  1  0  0  0
 31 32  1  0  0  0  0
 31 34  1  0  0  0  0
 32 33  1  0  0  0  0
 33 29  1  0  0  0  0
 34 30  1  0  0  0  0
M  END
>  <MODEL>
3

>  <REMARK>
 VINA RESULT:      -6.3      3.378      6.116
  Name = 
  3 active torsions:
  status: ('A' for Active; 'I' for Inactive)
    1  A    between atoms: N_3  and  C_13
    2  A    between atoms: N_3  and  N_17
    3  A    between atoms: C_12  and  C_28
                            x       y       z     vdW  Elec       q    Type
                         _______ _______ _______ _____ _____    ______ ____

>  <TORSDO>
F 3

$$$$
=
 OpenBabel11062407523D

 34 39  0  0  1  0  0  0  0  0999 V2000
  160.8230  210.4260  155.2210 C   0  0  0  0  0  0  0  0  0  0  0  0
  161.2460  207.9420  155.1380 C   0  0  2  0  0  3  0  0  0  0  0  0
  161.3630  209.4290  153.0520 C   0  0  0  0  0  0  0  0  0  0  0  0
  161.8790  208.5130  150.8160 C   0  0  0  0  0  0  0  0  0  0  0  0
  161.1380  209.1950  157.2610 C   0  0  0  0  0  3  0  0  0  0  0  0
  161.4170  208.0570  156.6260 C   0  0  0  0  0  3  0  0  0  0  0  0
  161.9030  206.9960  152.5650 N   0  0  0  0  0  0  0  0  0  0  0  0
  161.1810  209.2920  154.4530 C   0  0  0  0  0  0  0  0  0  0  0  0
  162.0720  204.7930  151.7150 N   0  0  0  0  0  2  0  0  0  0  0  0
  162.1690  207.0020  149.9210 S   0  0  0  0  0  0  0  0  0  0  0  0
  160.7680  210.3650  156.5200 N   0  0  0  0  0  0  0  0  0  0  0  0
  161.1070  210.6790  152.4240 C   0  0  0  0  0  0  0  0  0  0  0  0
  160.5760  211.6440  154.5960 C   0  0  0  0  0  3  0  0  0  0  0  0
  159.7370  207.0410  154.8170 Cl  0  0  0  0  0  0  0  0  0  0  0  0
  161.5580  209.6400  150.2670 N   0  0  0  0  0  0  0  0  0  0  0  0
  161.2130  210.7920  151.0650 C   0  0  0  0  0  0  0  0  0  0  0  0
  162.0680  206.2120  151.5480 C   0  0  0  0  0  0  0  0  0  0  0  0
  161.7940  208.3410  152.2110 N   0  0  0  0  0  0  0  0  0  0  0  0
  160.7030  211.7670  153.2150 C   0  0  0  0  0  3  0  0  0  0  0  0
  161.1510  213.5030  148.3950 C   0  0  0  0  0  0  0  0  0  0  0  0
  160.2450  214.4070  148.9580 C   0  0  0  0  0  3  0  0  0  0  0  0
  160.9060  212.0440  150.3280 C   0  0  0  0  0  0  0  0  0  0  0  0
  159.6510  214.1210  150.1900 C   0  0  0  0  0  3  0  0  0  0  0  0
  161.4800  212.3270  149.0760 C   0  0  0  0  0  3  0  0  0  0  0  0
  159.9750  212.9430  150.8680 C   0  0  0  0  0  3  0  0  0  0  0  0
  161.7160  213.7710  147.1920 F   0  0  0  0  0  0  0  0  0  0  0  0
  162.1660  203.9240  150.6170 N   0  0  0  0  0  2  0  0  0  0  0  0
  160.1460  202.4400  152.0190 O   0  0  0  0  0  1  0  0  0  0  0  0
  160.8200  203.7240  150.0880 C   0  0  2  0  0  3  0  0  0  0  0  0
  160.2220  202.4160  150.6230 C   0  0  1  0  0  3  0  0  0  0  0  0
  161.7510  201.3740  148.8420 C   0  0  0  0  0  2  0  0  0  0  0  0
  161.0080  202.3330  147.9170 C   0  0  0  0  0  2  0  0  0  0  0  0
  160.8560  203.7300  148.5490 C   0  0  0  0  0  2  0  0  0  0  0  0
  160.9940  201.1690  150.1610 C   0  0  0  0  0  2  0  0  0  0  0  0
  1 11  2  0  0  0  0
  2 14  1  1  0  0  0
  2  6  1  0  0  0  0
  3  8  2  0  0  0  0
  4 18  1  0  0  0  0
  6  5  2  0  0  0  0
  8  2  1  0  0  0  0
  8  1  1  0  0  0  0
 10  4  1  0  0  0  0
 10 17  1  0  0  0  0
 11  5  1  0  0  0  0
 12  3  1  0  0  0  0
 12 19  1  0  0  0  0
 13  1  1  0  0  0  0
 15  4  2  0  0  0  0
 15 16  1  0  0  0  0
 16 12  2  0  0  0  0
 17  9  1  0  0  0  0
 17  7  2  0  0  0  0
 18  7  1  0  0  0  0
 18  3  1  0  0  0  0
 19 13  2  0  0  0  0
 20 21  2  0  0  0  0
 20 24  1  0  0  0  0
 21 23  1  0  0  0  0
 22 25  1  0  0  0  0
 22 16  1  0  0  0  0
 23 25  2  0  0  0  0
 24 22  2  0  0  0  0
 26 20  1  0  0  0  0
 27  9  1  0  0  0  0
 29 27  1  1  0  0  0
 29 30  1  0  0  0  0
 30 28  1  1  0  0  0
 31 34  1  0  0  0  0
 32 33  1  0  0  0  0
 32 31  1  0  0  0  0
 33 29  1  0  0  0  0
 34 30  1  0  0  0  0
M  END
>  <MODEL>
4

>  <REMARK>
 VINA RESULT:      -5.9      3.437      7.821
  Name = 
  3 active torsions:
  status: ('A' for Active; 'I' for Inactive)
    1  A    between atoms: N_3  and  C_13
    2  A    between atoms: N_3  and  N_17
    3  A    between atoms: C_12  and  C_28
                            x       y       z     vdW  Elec       q    Type
                         _______ _______ _______ _____ _____    ______ ____

>  <TORSDO>
F 3

$$$$
