=
 OpenBabel11062410423D

 32 36  0  0  1  0  0  0  0  0999 V2000
  161.4700  209.2680  152.8480 C   0  0  1  0  0  3  0  0  0  0  0  0
  160.6670  212.9760  149.6780 C   0  0  0  0  0  2  0  0  0  0  0  0
  161.6590  212.3610  148.6840 C   0  0  0  0  0  2  0  0  0  0  0  0
  161.2490  206.9940  151.7940 C   0  0  0  0  0  0  0  0  0  0  0  0
  160.9980  206.4690  153.0790 C   0  0  0  0  0  0  0  0  0  0  0  0
  161.5160  204.7250  150.9550 C   0  0  0  0  0  0  0  0  0  0  0  0
  161.0170  212.6130  151.0480 N   0  0  0  0  0  2  0  0  0  0  0  0
  161.2580  210.7770  152.6510 C   0  0  0  0  0  2  0  0  0  0  0  0
  160.7590  211.1840  151.2550 C   0  0  2  0  0  3  0  0  0  0  0  0
  161.8620  209.0120  150.4890 N   0  0  0  0  0  2  0  0  0  0  0  0
  161.2920  204.2200  152.2370 C   0  0  0  0  0  3  0  0  0  0  0  0
  161.0270  205.0890  153.2960 C   0  0  0  0  0  3  0  0  0  0  0  0
  162.2740  211.0560  149.1990 C   0  0  0  0  0  2  0  0  0  0  0  0
  161.2850  210.2950  150.0760 C   0  0  2  0  0  3  0  0  0  0  0  0
  161.6380  206.5620  149.4540 F   0  0  0  0  0  0  0  0  0  0  0  0
  160.8470  208.6990  154.1100 C   0  0  0  0  0  0  0  0  0  0  0  0
  160.6940  207.3690  154.2060 C   0  0  0  0  0  3  0  0  0  0  0  0
  161.7520  203.8690  149.9300 F   0  0  0  0  0  0  0  0  0  0  0  0
  161.0750  208.4840  151.5940 C   0  0  2  0  0  3  0  0  0  0  0  0
  161.4770  206.1050  150.7230 C   0  0  0  0  0  0  0  0  0  0  0  0
  160.4450  212.1750  156.1930 C   0  0  0  0  0  2  0  0  0  0  0  0
  160.6050  209.5170  155.2700 N   0  0  0  0  0  0  0  0  0  0  0  0
  162.3440  208.9240  156.8910 C   0  0  0  0  0  1  0  0  0  0  0  0
  161.3010  211.1790  156.9740 C   0  0  0  0  0  2  0  0  0  0  0  0
  161.7340  210.0350  156.0570 C   0  0  2  0  0  3  0  0  0  0  0  0
  159.2530  209.9940  155.5580 C   0  0  0  0  0  2  0  0  0  0  0  0
  159.2110  211.5240  155.5410 C   0  0  1  0  0  3  0  0  0  0  0  0
  156.8460  211.3620  156.0230 N   0  0  0  0  0  0  0  0  0  0  0  0
  157.9630  211.9900  156.2080 C   0  0  0  0  0  3  0  0  0  0  0  0
  155.6280  211.7770  156.6450 C   0  0  0  0  0  0  0  0  0  0  0  0
  155.3120  213.2260  156.7420 C   0  0  0  0  0  1  0  0  0  0  0  0
  154.8170  210.9320  157.1130 O   0  0  0  0  0  0  0  0  0  0  0  0
  1  8  1  6  0  0  0
  1 16  1  0  0  0  0
  2  7  1  0  0  0  0
  3 13  1  0  0  0  0
  3  2  1  0  0  0  0
  4  5  1  0  0  0  0
  5 12  2  0  0  0  0
  5 17  1  0  0  0  0
  6 11  2  0  0  0  0
  7  9  1  0  0  0  0
  9  8  1  1  0  0  0
 11 12  1  0  0  0  0
 14 13  1  1  0  0  0
 14 10  1  0  0  0  0
 14  9  1  0  0  0  0
 15 20  1  0  0  0  0
 16 17  2  0  0  0  0
 16 22  1  0  0  0  0
 18  6  1  0  0  0  0
 19 10  1  6  0  0  0
 19  4  1  0  0  0  0
 19  1  1  0  0  0  0
 20  6  1  0  0  0  0
 20  4  2  0  0  0  0
 21 24  1  0  0  0  0
 22 26  1  0  0  0  0
 22 25  1  0  0  0  0
 25 23  1  1  0  0  0
 25 24  1  0  0  0  0
 27 26  1  0  0  0  0
 27 21  1  0  0  0  0
 27 29  1  1  0  0  0
 28 29  2  0  0  0  0
 28 30  1  0  0  0  0
 30 31  1  0  0  0  0
 30 32  2  0  0  0  0
M  END
>  <MODEL>
1

>  <REMARK>
 VINA RESULT:      -6.7      0.000      0.000
  Name = 
  3 active torsions:
  status: ('A' for Active; 'I' for Inactive)
    1  A    between atoms: C_1  and  N_10
    2  A    between atoms: N_8  and  C_28
    3  A    between atoms: C_19  and  C_24
                            x       y       z     vdW  Elec       q    Type
                         _______ _______ _______ _____ _____    ______ ____

>  <TORSDO>
F 3

$$$$
=
 OpenBabel11062410423D

 32 36  0  0  1  0  0  0  0  0999 V2000
  161.8360  208.8100  150.9780 C   0  0  1  0  0  3  0  0  0  0  0  0
  161.6200  213.1590  148.6350 C   0  0  0  0  0  2  0  0  0  0  0  0
  162.6160  212.6590  147.5830 C   0  0  0  0  0  2  0  0  0  0  0  0
  161.4740  206.8420  149.4530 C   0  0  0  0  0  0  0  0  0  0  0  0
  161.0830  206.0920  150.5830 C   0  0  0  0  0  0  0  0  0  0  0  0
  161.5810  204.7810  148.1630 C   0  0  0  0  0  0  0  0  0  0  0  0
  161.8360  212.4840  149.9130 N   0  0  0  0  0  2  0  0  0  0  0  0
  161.7850  210.3410  151.0970 C   0  0  0  0  0  2  0  0  0  0  0  0
  161.4280  211.0810  149.7970 C   0  0  2  0  0  3  0  0  0  0  0  0
  162.3690  209.0070  148.6400 N   0  0  0  0  0  2  0  0  0  0  0  0
  161.2180  204.0480  149.2960 C   0  0  0  0  0  3  0  0  0  0  0  0
  160.9640  204.7030  150.5010 C   0  0  0  0  0  3  0  0  0  0  0  0
  163.0650  211.2160  147.8370 C   0  0  0  0  0  2  0  0  0  0  0  0
  161.9480  210.4030  148.4830 C   0  0  2  0  0  3  0  0  0  0  0  0
  161.9840  206.8640  147.0970 F   0  0  0  0  0  0  0  0  0  0  0  0
  161.0740  208.0640  152.0570 C   0  0  0  0  0  0  0  0  0  0  0  0
  160.7880  206.7670  151.8600 C   0  0  0  0  0  3  0  0  0  0  0  0
  161.8050  204.1340  146.9930 F   0  0  0  0  0  0  0  0  0  0  0  0
  161.4580  208.3510  149.5680 C   0  0  2  0  0  3  0  0  0  0  0  0
  161.6910  206.1750  148.2290 C   0  0  0  0  0  0  0  0  0  0  0  0
  161.8240  210.4720  155.2530 C   0  0  0  0  0  2  0  0  0  0  0  0
  160.8310  208.6450  153.3520 N   0  0  0  0  0  0  0  0  0  0  0  0
  160.8460  206.7830  154.9450 C   0  0  0  0  0  1  0  0  0  0  0  0
  161.4310  209.0720  155.7190 C   0  0  0  0  0  2  0  0  0  0  0  0
  161.4930  208.0960  154.5440 C   0  0  2  0  0  3  0  0  0  0  0  0
  160.0820  209.8970  153.4610 C   0  0  0  0  0  2  0  0  0  0  0  0
  160.9510  210.9870  154.0930 C   0  0  1  0  0  3  0  0  0  0  0  0
  158.8030  212.0680  154.3500 N   0  0  0  0  0  0  0  0  0  0  0  0
  160.0810  212.1050  154.5520 C   0  0  0  0  0  3  0  0  0  0  0  0
  157.9340  213.1210  154.7740 C   0  0  0  0  0  0  0  0  0  0  0  0
  158.5120  214.4320  155.1680 C   0  0  0  0  0  1  0  0  0  0  0  0
  156.6850  212.9530  154.8200 O   0  0  0  0  0  0  0  0  0  0  0  0
  1  8  1  6  0  0  0
  1 16  1  0  0  0  0
  2  7  1  0  0  0  0
  3 13  1  0  0  0  0
  3  2  1  0  0  0  0
  4 19  1  0  0  0  0
  4  5  1  0  0  0  0
  5 17  1  0  0  0  0
  6 20  1  0  0  0  0
  6 11  2  0  0  0  0
  9  7  1  0  0  0  0
  9  8  1  1  0  0  0
 11 12  1  0  0  0  0
 12  5  2  0  0  0  0
 14 13  1  1  0  0  0
 14 10  1  0  0  0  0
 14  9  1  0  0  0  0
 15 20  1  0  0  0  0
 16 22  1  0  0  0  0
 17 16  2  0  0  0  0
 18  6  1  0  0  0  0
 19 10  1  6  0  0  0
 19  1  1  0  0  0  0
 20  4  2  0  0  0  0
 21 24  1  0  0  0  0
 22 26  1  0  0  0  0
 22 25  1  0  0  0  0
 25 23  1  1  0  0  0
 25 24  1  0  0  0  0
 26 27  1  0  0  0  0
 27 29  1  1  0  0  0
 27 21  1  0  0  0  0
 28 29  2  0  0  0  0
 28 30  1  0  0  0  0
 30 32  2  0  0  0  0
 30 31  1  0  0  0  0
M  END
>  <MODEL>
2

>  <REMARK>
 VINA RESULT:      -6.4      1.853      2.450
  Name = 
  3 active torsions:
  status: ('A' for Active; 'I' for Inactive)
    1  A    between atoms: C_1  and  N_10
    2  A    between atoms: N_8  and  C_28
    3  A    between atoms: C_19  and  C_24
                            x       y       z     vdW  Elec       q    Type
                         _______ _______ _______ _____ _____    ______ ____

>  <TORSDO>
F 3

$$$$
=
 OpenBabel11062410423D

 32 36  0  0  1  0  0  0  0  0999 V2000
  160.8300  208.2610  151.6420 C   0  0  1  0  0  3  0  0  0  0  0  0
  162.5960  211.6270  148.4790 C   0  0  0  0  0  2  0  0  0  0  0  0
  161.6620  212.6910  149.0680 C   0  0  0  0  0  2  0  0  0  0  0  0
  160.8410  209.0420  154.0340 C   0  0  0  0  0  0  0  0  0  0  0  0
  160.8390  207.6890  154.4320 C   0  0  0  0  0  0  0  0  0  0  0  0
  160.3480  209.6850  156.3280 C   0  0  0  0  0  0  0  0  0  0  0  0
  162.0160  210.2940  148.6270 N   0  0  0  0  0  2  0  0  0  0  0  0
  161.2920  208.5720  150.2100 C   0  0  0  0  0  2  0  0  0  0  0  0
  162.0270  209.9120  150.0420 C   0  0  2  0  0  3  0  0  0  0  0  0
  160.7190  210.6160  152.1200 N   0  0  0  0  0  2  0  0  0  0  0  0
  160.3220  208.3410  156.7040 C   0  0  0  0  0  3  0  0  0  0  0  0
  160.5730  207.3450  155.7600 C   0  0  0  0  0  3  0  0  0  0  0  0
  160.7950  212.1470  150.2070 C   0  0  0  0  0  2  0  0  0  0  0  0
  161.5320  211.0630  150.9850 C   0  0  2  0  0  3  0  0  0  0  0  0
  160.7050  211.3600  154.6830 F   0  0  0  0  0  0  0  0  0  0  0  0
  161.1880  206.8710  152.1370 C   0  0  0  0  0  0  0  0  0  0  0  0
  161.1240  206.6230  153.4540 C   0  0  0  0  0  3  0  0  0  0  0  0
  160.1230  210.6440  157.2600 F   0  0  0  0  0  0  0  0  0  0  0  0
  161.2640  209.3600  152.6150 C   0  0  2  0  0  3  0  0  0  0  0  0
  160.6260  210.0430  155.0040 C   0  0  0  0  0  0  0  0  0  0  0  0
  160.2790  204.3770  149.0490 C   0  0  0  0  0  2  0  0  0  0  0  0
  161.3940  205.7740  151.2270 N   0  0  0  0  0  0  0  0  0  0  0  0
  161.5300  203.7590  152.6140 C   0  0  0  0  0  1  0  0  0  0  0  0
  160.7790  203.5790  150.2510 C   0  0  0  0  0  2  0  0  0  0  0  0
  160.7840  204.4650  151.4980 C   0  0  2  0  0  3  0  0  0  0  0  0
  162.0480  206.0070  149.9390 C   0  0  0  0  0  2  0  0  0  0  0  0
  161.1030  205.6520  148.7880 C   0  0  1  0  0  3  0  0  0  0  0  0
  161.3460  205.0140  146.4680 N   0  0  0  0  0  0  0  0  0  0  0  0
  161.8890  205.5150  147.5310 C   0  0  0  0  0  3  0  0  0  0  0  0
  162.0660  204.8660  145.2420 C   0  0  0  0  0  0  0  0  0  0  0  0
  161.4870  205.4050  143.9840 C   0  0  0  0  0  1  0  0  0  0  0  0
  163.1840  204.2840  145.2120 O   0  0  0  0  0  0  0  0  0  0  0  0
  1  8  1  6  0  0  0
  1 16  1  0  0  0  0
  1 19  1  0  0  0  0
  2  7  1  0  0  0  0
  2  3  1  0  0  0  0
  3 13  1  0  0  0  0
  4  5  2  0  0  0  0
  4 20  1  0  0  0  0
  5 12  1  0  0  0  0
  6 11  1  0  0  0  0
  6 18  1  0  0  0  0
  7  9  1  0  0  0  0
  9  8  1  6  0  0  0
  9 14  1  0  0  0  0
 12 11  2  0  0  0  0
 14 13  1  6  0  0  0
 14 10  1  0  0  0  0
 15 20  1  0  0  0  0
 16 17  2  0  0  0  0
 17  5  1  0  0  0  0
 19 10  1  6  0  0  0
 19  4  1  0  0  0  0
 20  6  2  0  0  0  0
 21 24  1  0  0  0  0
 22 25  1  0  0  0  0
 22 16  1  0  0  0  0
 24 25  1  0  0  0  0
 25 23  1  1  0  0  0
 26 22  1  0  0  0  0
 27 29  1  6  0  0  0
 27 21  1  0  0  0  0
 27 26  1  0  0  0  0
 28 29  2  0  0  0  0
 30 28  1  0  0  0  0
 31 30  1  0  0  0  0
 32 30  2  0  0  0  0
M  END
>  <MODEL>
3

>  <REMARK>
 VINA RESULT:      -6.3      4.186      7.646
  Name = 
  3 active torsions:
  status: ('A' for Active; 'I' for Inactive)
    1  A    between atoms: C_1  and  N_10
    2  A    between atoms: N_8  and  C_28
    3  A    between atoms: C_19  and  C_24
                            x       y       z     vdW  Elec       q    Type
                         _______ _______ _______ _____ _____    ______ ____

>  <TORSDO>
F 3

$$$$
=
 OpenBabel11062410423D

 32 36  0  0  1  0  0  0  0  0999 V2000
  160.7780  209.2110  151.4940 C   0  0  1  0  0  3  0  0  0  0  0  0
  162.6430  212.4140  148.2210 C   0  0  0  0  0  2  0  0  0  0  0  0
  161.5810  213.4500  148.6070 C   0  0  0  0  0  2  0  0  0  0  0  0
  160.4770  210.1980  153.7890 C   0  0  0  0  0  0  0  0  0  0  0  0
  160.5230  208.8880  154.3120 C   0  0  0  0  0  0  0  0  0  0  0  0
  159.6950  210.9990  155.9500 C   0  0  0  0  0  0  0  0  0  0  0  0
  162.1430  211.0580  148.4350 N   0  0  0  0  0  2  0  0  0  0  0  0
  161.3700  209.4300  150.0930 C   0  0  0  0  0  2  0  0  0  0  0  0
  162.0260  210.8040  149.8740 C   0  0  2  0  0  3  0  0  0  0  0  0
  160.4560  211.5830  151.7320 N   0  0  0  0  0  2  0  0  0  0  0  0
  159.7200  209.6950  156.4470 C   0  0  0  0  0  3  0  0  0  0  0  0
  160.1390  208.6420  155.6330 C   0  0  0  0  0  3  0  0  0  0  0  0
  160.6340  212.9420  149.6990 C   0  0  0  0  0  2  0  0  0  0  0  0
  161.3550  211.9910  150.6480 C   0  0  2  0  0  3  0  0  0  0  0  0
  160.1140  212.5460  154.1970 F   0  0  0  0  0  0  0  0  0  0  0  0
  161.1740  207.9020  152.1530 C   0  0  0  0  0  0  0  0  0  0  0  0
  160.9840  207.7670  153.4740 C   0  0  0  0  0  3  0  0  0  0  0  0
  159.3060  212.0160  156.7590 F   0  0  0  0  0  0  0  0  0  0  0  0
  161.0280  210.4220  152.3970 C   0  0  2  0  0  3  0  0  0  0  0  0
  160.0900  211.2600  154.6320 C   0  0  0  0  0  0  0  0  0  0  0  0
  160.5640  204.4500  150.0810 C   0  0  0  0  0  2  0  0  0  0  0  0
  161.5520  206.7490  151.3780 N   0  0  0  0  0  0  0  0  0  0  0  0
  163.0780  205.4530  152.7900 C   0  0  0  0  0  1  0  0  0  0  0  0
  161.7530  204.3030  151.0280 C   0  0  0  0  0  2  0  0  0  0  0  0
  161.7610  205.4520  152.0370 C   0  0  2  0  0  3  0  0  0  0  0  0
  161.5410  206.8170  149.9160 C   0  0  0  0  0  2  0  0  0  0  0  0
  160.5500  205.8010  149.3420 C   0  0  1  0  0  3  0  0  0  0  0  0
  161.4870  204.5660  147.4860 N   0  0  0  0  0  0  0  0  0  0  0  0
  160.8310  205.6050  147.8930 C   0  0  0  0  0  3  0  0  0  0  0  0
  161.7780  204.3410  146.1050 C   0  0  0  0  0  0  0  0  0  0  0  0
  162.3180  205.4530  145.2800 C   0  0  0  0  0  1  0  0  0  0  0  0
  161.5810  203.2140  145.5750 O   0  0  0  0  0  0  0  0  0  0  0  0
  1  8  1  6  0  0  0
  1 16  1  0  0  0  0
  1 19  1  0  0  0  0
  2  7  1  0  0  0  0
  2  3  1  0  0  0  0
  3 13  1  0  0  0  0
  4  5  2  0  0  0  0
  4 20  1  0  0  0  0
  5 12  1  0  0  0  0
  6 11  1  0  0  0  0
  6 18  1  0  0  0  0
  7  9  1  0  0  0  0
  9  8  1  6  0  0  0
  9 14  1  0  0  0  0
 12 11  2  0  0  0  0
 14 13  1  6  0  0  0
 14 10  1  0  0  0  0
 15 20  1  0  0  0  0
 16 17  2  0  0  0  0
 17  5  1  0  0  0  0
 19 10  1  6  0  0  0
 19  4  1  0  0  0  0
 20  6  2  0  0  0  0
 21 24  1  0  0  0  0
 22 25  1  0  0  0  0
 22 16  1  0  0  0  0
 24 25  1  0  0  0  0
 25 23  1  6  0  0  0
 26 22  1  0  0  0  0
 27 29  1  6  0  0  0
 27 26  1  0  0  0  0
 27 21  1  0  0  0  0
 28 29  2  0  0  0  0
 30 28  1  0  0  0  0
 31 30  1  0  0  0  0
 32 30  2  0  0  0  0
M  END
>  <MODEL>
4

>  <REMARK>
 VINA RESULT:      -5.9      4.076      7.452
  Name = 
  3 active torsions:
  status: ('A' for Active; 'I' for Inactive)
    1  A    between atoms: C_1  and  N_10
    2  A    between atoms: N_8  and  C_28
    3  A    between atoms: C_19  and  C_24
                            x       y       z     vdW  Elec       q    Type
                         _______ _______ _______ _____ _____    ______ ____

>  <TORSDO>
F 3

$$$$
=
 OpenBabel11062410423D

 32 36  0  0  1  0  0  0  0  0999 V2000
  158.7700  211.3670  153.6190 C   0  0  1  0  0  3  0  0  0  0  0  0
  160.5940  213.7490  149.6880 C   0  0  0  0  0  2  0  0  0  0  0  0
  159.1750  214.0800  149.2120 C   0  0  0  0  0  2  0  0  0  0  0  0
  157.0830  212.7190  154.9050 C   0  0  0  0  0  0  0  0  0  0  0  0
  157.3660  211.9210  156.0340 C   0  0  0  0  0  0  0  0  0  0  0  0
  155.1430  213.6190  156.0680 C   0  0  0  0  0  0  0  0  0  0  0  0
  160.6030  212.5100  150.4610 N   0  0  0  0  0  2  0  0  0  0  0  0
  159.8180  211.3950  152.4960 C   0  0  0  0  0  2  0  0  0  0  0  0
  159.9300  212.7320  151.7450 C   0  0  2  0  0  3  0  0  0  0  0  0
  157.5100  213.0760  152.4890 N   0  0  0  0  0  2  0  0  0  0  0  0
  155.4200  212.8050  157.1680 C   0  0  0  0  0  3  0  0  0  0  0  0
  156.5320  211.9620  157.1540 C   0  0  0  0  0  3  0  0  0  0  0  0
  158.0970  213.5320  150.1520 C   0  0  0  0  0  2  0  0  0  0  0  0
  158.5850  213.5240  151.5970 C   0  0  2  0  0  3  0  0  0  0  0  0
  155.7190  214.4440  153.9170 F   0  0  0  0  0  0  0  0  0  0  0  0
  159.2690  210.8090  154.9390 C   0  0  0  0  0  0  0  0  0  0  0  0
  158.5480  211.0420  156.0470 C   0  0  0  0  0  3  0  0  0  0  0  0
  154.0710  214.4480  156.1030 F   0  0  0  0  0  0  0  0  0  0  0  0
  158.0920  212.7300  153.7770 C   0  0  2  0  0  3  0  0  0  0  0  0
  155.9790  213.5960  154.9450 C   0  0  0  0  0  0  0  0  0  0  0  0
  161.1480  207.3280  155.9070 C   0  0  0  0  0  2  0  0  0  0  0  0
  160.3680  209.8800  155.0010 N   0  0  0  0  0  0  0  0  0  0  0  0
  162.1400  211.0100  156.2600 C   0  0  0  0  0  1  0  0  0  0  0  0
  162.0370  208.5260  156.2370 C   0  0  0  0  0  2  0  0  0  0  0  0
  161.2110  209.8120  156.2030 C   0  0  2  0  0  3  0  0  0  0  0  0
  160.5310  208.8720  153.9530 C   0  0  0  0  0  2  0  0  0  0  0  0
  160.4380  207.4640  154.5470 C   0  0  1  0  0  3  0  0  0  0  0  0
  160.9340  206.7190  152.3000 N   0  0  0  0  0  0  0  0  0  0  0  0
  160.9880  206.4820  153.5720 C   0  0  0  0  0  3  0  0  0  0  0  0
  161.4500  205.8020  151.3330 C   0  0  0  0  0  0  0  0  0  0  0  0
  161.2030  206.0470  149.8880 C   0  0  0  0  0  1  0  0  0  0  0  0
  162.1100  204.7880  151.6860 O   0  0  0  0  0  0  0  0  0  0  0  0
  1  8  1  6  0  0  0
  1 19  1  0  0  0  0
  1 16  1  0  0  0  0
  2  7  1  0  0  0  0
  3  2  1  0  0  0  0
  3 13  1  0  0  0  0
  4 20  2  0  0  0  0
  4  5  1  0  0  0  0
  5 17  1  0  0  0  0
  5 12  2  0  0  0  0
  6 18  1  0  0  0  0
  6 11  2  0  0  0  0
  7  9  1  0  0  0  0
  9  8  1  6  0  0  0
 12 11  1  0  0  0  0
 14 13  1  6  0  0  0
 14  9  1  0  0  0  0
 14 10  1  0  0  0  0
 15 20  1  0  0  0  0
 16 22  1  0  0  0  0
 16 17  2  0  0  0  0
 19 10  1  6  0  0  0
 19  4  1  0  0  0  0
 20  6  1  0  0  0  0
 21 24  1  0  0  0  0
 22 25  1  0  0  0  0
 25 24  1  0  0  0  0
 25 23  1  6  0  0  0
 26 27  1  0  0  0  0
 26 22  1  0  0  0  0
 27 29  1  6  0  0  0
 27 21  1  0  0  0  0
 28 29  2  0  0  0  0
 30 32  2  0  0  0  0
 30 28  1  0  0  0  0
 31 30  1  0  0  0  0
M  END
>  <MODEL>
5

>  <REMARK>
 VINA RESULT:      -5.8      3.891      7.044
  Name = 
  3 active torsions:
  status: ('A' for Active; 'I' for Inactive)
    1  A    between atoms: C_1  and  N_10
    2  A    between atoms: N_8  and  C_28
    3  A    between atoms: C_19  and  C_24
                            x       y       z     vdW  Elec       q    Type
                         _______ _______ _______ _____ _____    ______ ____

>  <TORSDO>
F 3

$$$$
=
 OpenBabel11062410423D

 32 36  0  0  1  0  0  0  0  0999 V2000
  160.5770  211.4330  152.3990 C   0  0  1  0  0  3  0  0  0  0  0  0
  156.2850  212.5140  154.6030 C   0  0  0  0  0  2  0  0  0  0  0  0
  156.4540  213.9930  154.2390 C   0  0  0  0  0  2  0  0  0  0  0  0
  160.7510  212.3440  150.0600 C   0  0  0  0  0  0  0  0  0  0  0  0
  161.7190  211.3540  149.7910 C   0  0  0  0  0  0  0  0  0  0  0  0
  161.3490  213.4500  147.9770 C   0  0  0  0  0  0  0  0  0  0  0  0
  157.5860  211.8650  154.7440 N   0  0  0  0  0  2  0  0  0  0  0  0
  159.6430  211.1960  153.5960 C   0  0  0  0  0  2  0  0  0  0  0  0
  158.2190  211.7510  153.4270 C   0  0  2  0  0  3  0  0  0  0  0  0
  159.3070  213.3820  151.7890 N   0  0  0  0  0  2  0  0  0  0  0  0
  162.3220  212.4780  147.7360 C   0  0  0  0  0  3  0  0  0  0  0  0
  162.5030  211.4290  148.6370 C   0  0  0  0  0  3  0  0  0  0  0  0
  157.7450  214.2640  153.4610 C   0  0  0  0  0  2  0  0  0  0  0  0
  158.1160  213.0710  152.5870 C   0  0  2  0  0  3  0  0  0  0  0  0
  159.5700  214.3030  149.2980 F   0  0  0  0  0  0  0  0  0  0  0  0
  161.3350  210.2030  151.9330 C   0  0  0  0  0  0  0  0  0  0  0  0
  161.9100  210.2260  150.7200 C   0  0  0  0  0  3  0  0  0  0  0  0
  161.1690  214.4530  147.0820 F   0  0  0  0  0  0  0  0  0  0  0  0
  159.8450  212.1390  151.2560 C   0  0  2  0  0  3  0  0  0  0  0  0
  160.5490  213.3790  149.1230 C   0  0  0  0  0  0  0  0  0  0  0  0
  160.4580  207.0310  154.3300 C   0  0  0  0  0  2  0  0  0  0  0  0
  161.6220  209.1080  152.8230 N   0  0  0  0  0  0  0  0  0  0  0  0
  162.7080  210.0960  154.7850 C   0  0  0  0  0  1  0  0  0  0  0  0
  161.4670  207.9530  155.0120 C   0  0  0  0  0  2  0  0  0  0  0  0
  161.5240  209.2940  154.2780 C   0  0  2  0  0  3  0  0  0  0  0  0
  161.8220  207.7630  152.2840 C   0  0  0  0  0  2  0  0  0  0  0  0
  160.7660  206.8030  152.8380 C   0  0  1  0  0  3  0  0  0  0  0  0
  160.8480  204.7680  151.5340 N   0  0  0  0  0  0  0  0  0  0  0  0
  161.2070  205.4000  152.6050 C   0  0  0  0  0  3  0  0  0  0  0  0
  161.2490  203.4210  151.2740 C   0  0  0  0  0  0  0  0  0  0  0  0
  160.8300  202.7640  150.0090 C   0  0  0  0  0  1  0  0  0  0  0  0
  161.9520  202.7810  152.1020 O   0  0  0  0  0  0  0  0  0  0  0  0
  1  8  1  1  0  0  0
  2  7  1  0  0  0  0
  3  2  1  0  0  0  0
  5  4  1  0  0  0  0
  5 17  1  0  0  0  0
  6 20  1  0  0  0  0
  9  8  1  1  0  0  0
  9  7  1  0  0  0  0
 10 14  1  0  0  0  0
 11  6  2  0  0  0  0
 11 12  1  0  0  0  0
 12  5  2  0  0  0  0
 13  3  1  0  0  0  0
 14  9  1  0  0  0  0
 14 13  1  1  0  0  0
 16  1  1  0  0  0  0
 16 22  1  0  0  0  0
 17 16  2  0  0  0  0
 18  6  1  0  0  0  0
 19  4  1  6  0  0  0
 19 10  1  0  0  0  0
 19  1  1  0  0  0  0
 20 15  1  0  0  0  0
 20  4  2  0  0  0  0
 21 24  1  0  0  0  0
 22 25  1  0  0  0  0
 25 23  1  1  0  0  0
 25 24  1  0  0  0  0
 26 22  1  0  0  0  0
 26 27  1  0  0  0  0
 27 29  1  1  0  0  0
 27 21  1  0  0  0  0
 28 29  2  0  0  0  0
 30 28  1  0  0  0  0
 30 32  2  0  0  0  0
 31 30  1  0  0  0  0
M  END
>  <MODEL>
6

>  <REMARK>
 VINA RESULT:      -5.3      3.578      6.987
  Name = 
  3 active torsions:
  status: ('A' for Active; 'I' for Inactive)
    1  A    between atoms: C_1  and  N_10
    2  A    between atoms: N_8  and  C_28
    3  A    between atoms: C_19  and  C_24
                            x       y       z     vdW  Elec       q    Type
                         _______ _______ _______ _____ _____    ______ ____

>  <TORSDO>
F 3

$$$$
=
 OpenBabel11062410423D

 32 36  0  0  1  0  0  0  0  0999 V2000
  161.8130  209.4360  150.1780 C   0  0  1  0  0  3  0  0  0  0  0  0
  160.9800  205.7910  146.9430 C   0  0  0  0  0  2  0  0  0  0  0  0
  161.7820  204.8160  147.8130 C   0  0  0  0  0  2  0  0  0  0  0  0
  161.2560  208.8070  152.5500 C   0  0  0  0  0  0  0  0  0  0  0  0
  161.1140  210.1810  152.8370 C   0  0  0  0  0  0  0  0  0  0  0  0
  161.2060  208.3350  154.9370 C   0  0  0  0  0  0  0  0  0  0  0  0
  161.4590  207.1590  147.1250 N   0  0  0  0  0  2  0  0  0  0  0  0
  161.7200  209.0120  148.7040 C   0  0  0  0  0  2  0  0  0  0  0  0
  161.0960  207.6280  148.4660 C   0  0  2  0  0  3  0  0  0  0  0  0
  161.8900  207.1250  150.8410 N   0  0  0  0  0  2  0  0  0  0  0  0
  161.0930  209.7000  155.2080 C   0  0  0  0  0  3  0  0  0  0  0  0
  161.0400  210.6210  154.1610 C   0  0  0  0  0  3  0  0  0  0  0  0
  162.3310  205.4750  149.0820 C   0  0  0  0  0  2  0  0  0  0  0  0
  161.3900  206.5660  149.5810 C   0  0  2  0  0  3  0  0  0  0  0  0
  161.3150  206.5440  153.3810 F   0  0  0  0  0  0  0  0  0  0  0  0
  161.2980  210.8330  150.4710 C   0  0  0  0  0  0  0  0  0  0  0  0
  161.0350  211.1660  151.7440 C   0  0  0  0  0  3  0  0  0  0  0  0
  161.2350  207.4500  155.9630 F   0  0  0  0  0  0  0  0  0  0  0  0
  161.1980  208.3790  151.0990 C   0  0  2  0  0  3  0  0  0  0  0  0
  161.2680  207.8810  153.6140 C   0  0  0  0  0  0  0  0  0  0  0  0
  162.7260  214.0160  148.3700 C   0  0  0  0  0  2  0  0  0  0  0  0
  161.2770  211.8590  149.4600 N   0  0  0  0  0  0  0  0  0  0  0  0
  159.3220  213.2530  149.9490 C   0  0  0  0  0  1  0  0  0  0  0  0
  161.2570  214.2280  148.7300 C   0  0  0  0  0  2  0  0  0  0  0  0
  160.8310  213.2190  149.7970 C   0  0  2  0  0  3  0  0  0  0  0  0
  161.8770  211.6050  148.1500 C   0  0  0  0  0  2  0  0  0  0  0  0
  163.0250  212.5830  147.8900 C   0  0  1  0  0  3  0  0  0  0  0  0
  162.7070  213.3380  145.6150 N   0  0  0  0  0  0  0  0  0  0  0  0
  163.3560  212.5790  146.4380 C   0  0  0  0  0  3  0  0  0  0  0  0
  162.9930  213.3620  144.2150 C   0  0  0  0  0  0  0  0  0  0  0  0
  162.1450  212.5780  143.2800 C   0  0  0  0  0  1  0  0  0  0  0  0
  163.9560  214.0390  143.7610 O   0  0  0  0  0  0  0  0  0  0  0  0
  1  8  1  6  0  0  0
  1 16  1  0  0  0  0
  1 19  1  0  0  0  0
  2  7  1  0  0  0  0
  2  3  1  0  0  0  0
  3 13  1  0  0  0  0
  4  5  2  0  0  0  0
  4 20  1  0  0  0  0
  5 12  1  0  0  0  0
  6 11  1  0  0  0  0
  6 18  1  0  0  0  0
  7  9  1  0  0  0  0
  9  8  1  1  0  0  0
  9 14  1  0  0  0  0
 12 11  2  0  0  0  0
 14 13  1  6  0  0  0
 14 10  1  0  0  0  0
 15 20  1  0  0  0  0
 16 17  2  0  0  0  0
 17  5  1  0  0  0  0
 19 10  1  1  0  0  0
 19  4  1  0  0  0  0
 20  6  2  0  0  0  0
 21 24  1  0  0  0  0
 22 25  1  0  0  0  0
 22 16  1  0  0  0  0
 24 25  1  0  0  0  0
 25 23  1  6  0  0  0
 26 22  1  0  0  0  0
 27 29  1  6  0  0  0
 27 26  1  0  0  0  0
 27 21  1  0  0  0  0
 28 29  2  0  0  0  0
 30 28  1  0  0  0  0
 31 30  1  0  0  0  0
 32 30  2  0  0  0  0
M  END
>  <MODEL>
7

>  <REMARK>
 VINA RESULT:      -5.0      4.209      7.755
  Name = 
  3 active torsions:
  status: ('A' for Active; 'I' for Inactive)
    1  A    between atoms: C_1  and  N_10
    2  A    between atoms: N_8  and  C_28
    3  A    between atoms: C_19  and  C_24
                            x       y       z     vdW  Elec       q    Type
                         _______ _______ _______ _____ _____    ______ ____

>  <TORSDO>
F 3

$$$$
=
 OpenBabel11062410423D

 32 36  0  0  1  0  0  0  0  0999 V2000
  160.7730  208.5430  151.8040 C   0  0  1  0  0  3  0  0  0  0  0  0
  161.5530  208.2660  156.6780 C   0  0  0  0  0  2  0  0  0  0  0  0
  160.7780  206.9440  156.7420 C   0  0  0  0  0  2  0  0  0  0  0  0
  161.3910  206.4350  150.5770 C   0  0  0  0  0  0  0  0  0  0  0  0
  161.5300  207.2080  149.4050 C   0  0  0  0  0  0  0  0  0  0  0  0
  161.5010  204.4170  149.2210 C   0  0  0  0  0  0  0  0  0  0  0  0
  161.0690  209.0950  155.5770 N   0  0  0  0  0  2  0  0  0  0  0  0
  160.8330  209.2860  153.1470 C   0  0  0  0  0  2  0  0  0  0  0  0
  161.4610  208.4870  154.3010 C   0  0  2  0  0  3  0  0  0  0  0  0
  160.7270  206.4380  152.9660 N   0  0  0  0  0  2  0  0  0  0  0  0
  161.6110  205.1940  148.0660 C   0  0  0  0  0  3  0  0  0  0  0  0
  161.6320  206.5860  148.1580 C   0  0  0  0  0  3  0  0  0  0  0  0
  160.2550  206.5020  155.3720 C   0  0  0  0  0  2  0  0  0  0  0  0
  161.2010  206.9420  154.2590 C   0  0  2  0  0  3  0  0  0  0  0  0
  161.3670  204.2450  151.5860 F   0  0  0  0  0  0  0  0  0  0  0  0
  161.2850  209.3360  150.6160 C   0  0  0  0  0  0  0  0  0  0  0  0
  161.5760  208.6790  149.4830 C   0  0  0  0  0  3  0  0  0  0  0  0
  161.5020  203.0650  149.1200 F   0  0  0  0  0  0  0  0  0  0  0  0
  161.4160  207.1580  151.9060 C   0  0  2  0  0  3  0  0  0  0  0  0
  161.4100  205.0280  150.4770 C   0  0  0  0  0  0  0  0  0  0  0  0
  159.6860  213.0420  150.0770 C   0  0  0  0  0  2  0  0  0  0  0  0
  161.2750  210.7760  150.6070 N   0  0  0  0  0  0  0  0  0  0  0  0
  163.0020  211.4560  149.0070 C   0  0  0  0  0  1  0  0  0  0  0  0
  161.0820  212.9680  149.4630 C   0  0  0  0  0  2  0  0  0  0  0  0
  161.5270  211.5090  149.3570 C   0  0  2  0  0  3  0  0  0  0  0  0
  160.8270  211.5100  151.7900 C   0  0  0  0  0  2  0  0  0  0  0  0
  159.5990  212.3620  151.4570 C   0  0  1  0  0  3  0  0  0  0  0  0
  158.8420  213.0510  153.6480 N   0  0  0  0  0  0  0  0  0  0  0  0
  159.4000  213.3790  152.5270 C   0  0  0  0  0  3  0  0  0  0  0  0
  158.6330  213.9960  154.6990 C   0  0  0  0  0  0  0  0  0  0  0  0
  157.2530  214.4510  155.0110 C   0  0  0  0  0  1  0  0  0  0  0  0
  159.6020  214.4510  155.3660 O   0  0  0  0  0  0  0  0  0  0  0  0
  1 19  1  0  0  0  0
  1  8  1  1  0  0  0
  2  3  1  0  0  0  0
  5 17  1  0  0  0  0
  5  4  2  0  0  0  0
  6 20  2  0  0  0  0
  7  2  1  0  0  0  0
  9  8  1  6  0  0  0
  9  7  1  0  0  0  0
 10 14  1  0  0  0  0
 11 12  2  0  0  0  0
 11  6  1  0  0  0  0
 12  5  1  0  0  0  0
 13  3  1  0  0  0  0
 14  9  1  0  0  0  0
 14 13  1  1  0  0  0
 16  1  1  0  0  0  0
 17 16  2  0  0  0  0
 18  6  1  0  0  0  0
 19  4  1  6  0  0  0
 19 10  1  0  0  0  0
 20  4  1  0  0  0  0
 20 15  1  0  0  0  0
 21 27  1  0  0  0  0
 22 16  1  0  0  0  0
 22 26  1  0  0  0  0
 24 21  1  0  0  0  0
 25 23  1  1  0  0  0
 25 24  1  0  0  0  0
 25 22  1  0  0  0  0
 27 26  1  0  0  0  0
 27 29  1  1  0  0  0
 28 30  1  0  0  0  0
 29 28  2  0  0  0  0
 30 31  1  0  0  0  0
 30 32  2  0  0  0  0
M  END
>  <MODEL>
8

>  <REMARK>
 VINA RESULT:      -4.5      2.182      5.048
  Name = 
  3 active torsions:
  status: ('A' for Active; 'I' for Inactive)
    1  A    between atoms: C_1  and  N_10
    2  A    between atoms: N_8  and  C_28
    3  A    between atoms: C_19  and  C_24
                            x       y       z     vdW  Elec       q    Type
                         _______ _______ _______ _____ _____    ______ ____

>  <TORSDO>
F 3

$$$$
=
 OpenBabel11062410423D

 32 36  0  0  1  0  0  0  0  0999 V2000
  161.8200  208.3190  151.9210 C   0  0  1  0  0  3  0  0  0  0  0  0
  159.5290  208.2740  156.3020 C   0  0  0  0  0  2  0  0  0  0  0  0
  160.1080  209.6540  156.6360 C   0  0  0  0  0  2  0  0  0  0  0  0
  161.4090  210.4250  150.6060 C   0  0  0  0  0  0  0  0  0  0  0  0
  161.7220  209.7050  149.4340 C   0  0  0  0  0  0  0  0  0  0  0  0
  161.5270  212.4930  149.3280 C   0  0  0  0  0  0  0  0  0  0  0  0
  160.4140  207.5490  155.3940 N   0  0  0  0  0  2  0  0  0  0  0  0
  161.4170  207.5050  153.1600 C   0  0  0  0  0  2  0  0  0  0  0  0
  160.3820  208.1840  154.0720 C   0  0  2  0  0  3  0  0  0  0  0  0
  161.2880  210.3570  153.0820 N   0  0  0  0  0  2  0  0  0  0  0  0
  161.8630  211.7700  148.1820 C   0  0  0  0  0  3  0  0  0  0  0  0
  161.9540  210.3790  148.2330 C   0  0  0  0  0  3  0  0  0  0  0  0
  160.9870  210.2100  155.5110 C   0  0  0  0  0  2  0  0  0  0  0  0
  160.4860  209.7460  154.1470 C   0  0  2  0  0  3  0  0  0  0  0  0
  160.8960  212.5530  151.6170 F   0  0  0  0  0  0  0  0  0  0  0  0
  161.7870  207.5460  150.6150 C   0  0  0  0  0  0  0  0  0  0  0  0
  161.8010  208.2330  149.4620 C   0  0  0  0  0  3  0  0  0  0  0  0
  161.4220  213.8430  149.2600 F   0  0  0  0  0  0  0  0  0  0  0  0
  161.0410  209.6340  151.8430 C   0  0  2  0  0  3  0  0  0  0  0  0
  161.2800  211.8280  150.5350 C   0  0  0  0  0  0  0  0  0  0  0  0
  160.5460  203.6690  150.5170 C   0  0  0  0  0  2  0  0  0  0  0  0
  161.9440  206.1150  150.5790 N   0  0  0  0  0  0  0  0  0  0  0  0
  163.1600  205.5140  152.6190 C   0  0  0  0  0  1  0  0  0  0  0  0
  161.6660  203.8460  151.5400 C   0  0  0  0  0  2  0  0  0  0  0  0
  161.8820  205.3330  151.8220 C   0  0  2  0  0  3  0  0  0  0  0  0
  161.9720  205.4160  149.2940 C   0  0  0  0  0  2  0  0  0  0  0  0
  160.8100  204.4240  149.2000 C   0  0  1  0  0  3  0  0  0  0  0  0
  160.6890  202.2300  148.1890 N   0  0  0  0  0  0  0  0  0  0  0  0
  161.0720  203.4630  148.0930 C   0  0  0  0  0  3  0  0  0  0  0  0
  160.9210  201.2770  147.1500 C   0  0  0  0  0  0  0  0  0  0  0  0
  160.5270  201.6050  145.7550 C   0  0  0  0  0  1  0  0  0  0  0  0
  161.4550  200.1620  147.3980 O   0  0  0  0  0  0  0  0  0  0  0  0
  1  8  1  1  0  0  0
  2  3  1  0  0  0  0
  5 17  1  0  0  0  0
  5  4  2  0  0  0  0
  6 20  2  0  0  0  0
  7  2  1  0  0  0  0
  9  8  1  6  0  0  0
  9 14  1  0  0  0  0
  9  7  1  0  0  0  0
 10 14  1  0  0  0  0
 11 12  2  0  0  0  0
 11  6  1  0  0  0  0
 12  5  1  0  0  0  0
 13  3  1  0  0  0  0
 14 13  1  1  0  0  0
 16  1  1  0  0  0  0
 17 16  2  0  0  0  0
 18  6  1  0  0  0  0
 19  4  1  6  0  0  0
 19  1  1  0  0  0  0
 19 10  1  0  0  0  0
 20  4  1  0  0  0  0
 20 15  1  0  0  0  0
 21 24  1  0  0  0  0
 22 16  1  0  0  0  0
 22 25  1  0  0  0  0
 24 25  1  0  0  0  0
 25 23  1  6  0  0  0
 26 22  1  0  0  0  0
 27 29  1  6  0  0  0
 27 26  1  0  0  0  0
 27 21  1  0  0  0  0
 29 28  2  0  0  0  0
 30 32  2  0  0  0  0
 30 28  1  0  0  0  0
 31 30  1  0  0  0  0
M  END
>  <MODEL>
9

>  <REMARK>
 VINA RESULT:      -4.4      4.090      8.395
  Name = 
  3 active torsions:
  status: ('A' for Active; 'I' for Inactive)
    1  A    between atoms: C_1  and  N_10
    2  A    between atoms: N_8  and  C_28
    3  A    between atoms: C_19  and  C_24
                            x       y       z     vdW  Elec       q    Type
                         _______ _______ _______ _____ _____    ______ ____

>  <TORSDO>
F 3

$$$$
