=
 OpenBabel11062408153D

 32 36  0  0  1  0  0  0  0  0999 V2000
  160.6360  210.7850  154.7930 C   0  0  1  0  0  3  0  0  0  0  0  0
  159.8960  210.7140  152.4490 N   0  0  2  0  0  0  0  0  0  0  0  0
  160.8120  209.9930  156.0770 C   0  0  0  0  0  2  0  0  0  0  0  0
  159.8730  209.9990  153.7300 C   0  0  1  0  0  3  0  0  0  0  0  0
  161.2580  211.0650  151.9860 C   0  0  1  0  0  3  0  0  0  0  0  0
  159.1560  211.9710  152.6510 C   0  0  1  0  0  3  0  0  0  0  0  0
  160.3010  213.4890  149.4140 C   0  0  0  0  0  0  0  0  0  0  0  0
  160.2390  212.7430  150.4840 C   0  0  0  0  0  0  0  0  0  0  0  0
  162.3380  209.9930  152.2190 C   0  0  2  0  0  3  0  0  0  0  0  0
  160.2500  208.5110  153.6000 C   0  0  1  0  0  3  0  0  0  0  0  0
  161.2000  211.5910  150.5590 C   0  0  0  0  0  2  0  0  0  0  0  0
  160.6900  208.0140  152.2190 C   0  0  0  0  0  2  0  0  0  0  0  0
  160.8560  207.8100  154.8230 C   0  0  0  0  0  2  0  0  0  0  0  0
  159.8200  212.8420  153.6490 N   0  0  0  0  0  2  0  0  0  0  0  0
  163.5590  210.4100  151.7230 F   0  0  0  0  0  0  0  0  0  0  0  0
  159.9910  212.1680  154.9520 C   0  0  1  0  0  3  0  0  0  0  0  0
  158.9580  212.6930  151.3040 C   0  0  2  0  0  3  0  0  0  0  0  0
  162.0100  208.5940  151.7050 C   0  0  0  0  0  2  0  0  0  0  0  0
  161.6330  208.7520  155.7430 C   0  0  0  0  0  2  0  0  0  0  0  0
  160.3580  214.1960  148.4000 O   0  0  0  0  0  0  0  0  0  0  0  0
  156.2050  212.4240  155.2140 C   0  0  2  0  0  3  0  0  0  0  0  0
  156.2100  213.3430  154.1650 O   0  0  0  0  0  1  0  0  0  0  0  0
  157.1780  213.7120  157.0730 C   0  0  0  0  0  3  0  0  0  0  0  0
  158.7220  212.2170  155.8220 C   0  0  1  0  0  3  0  0  0  0  0  0
  156.0910  213.1510  156.5270 C   0  0  0  0  0  0  0  0  0  0  0  0
  158.4850  213.6400  156.3430 C   0  0  0  0  0  2  0  0  0  0  0  0
  157.4820  211.5700  155.1560 C   0  0  1  0  0  3  0  0  0  0  0  0
  157.2400  210.3240  155.7360 O   0  0  0  0  0  1  0  0  0  0  0  0
  154.7910  213.1580  157.2600 C   0  0  0  0  0  2  0  0  0  0  0  0
  154.0060  214.2280  156.8300 O   0  0  0  0  0  1  0  0  0  0  0  0
  157.0300  214.0730  150.9530 O   0  0  0  0  0  1  0  0  0  0  0  0
  158.3070  214.0600  151.5140 C   0  0  0  0  0  2  0  0  0  0  0  0
  1 16  1  0  0  0  0
  1  3  1  1  0  0  0
  2  6  1  0  0  0  0
  2  4  1  0  0  0  0
  4  1  1  0  0  0  0
  5  9  1  0  0  0  0
  5  2  1  0  0  0  0
  6 14  1  0  0  0  0
  7  8  2  0  0  0  0
  8 11  1  0  0  0  0
  8 17  1  0  0  0  0
 10  4  1  0  0  0  0
 10 13  1  0  0  0  0
 11  5  1  0  0  0  0
 12 10  1  0  0  0  0
 13 19  1  0  0  0  0
 14 16  1  0  0  0  0
 15  9  1  0  0  0  0
 16 24  1  0  0  0  0
 17 32  1  0  0  0  0
 17  6  1  0  0  0  0
 18  9  1  0  0  0  0
 18 12  1  0  0  0  0
 19  3  1  0  0  0  0
 20  7  2  0  0  0  0
 21 25  1  0  0  0  0
 22 21  1  0  0  0  0
 24 26  1  0  0  0  0
 25 23  2  0  0  0  0
 25 29  1  0  0  0  0
 26 23  1  0  0  0  0
 27 21  1  0  0  0  0
 27 28  1  0  0  0  0
 27 24  1  0  0  0  0
 30 29  1  0  0  0  0
 31 32  1  0  0  0  0
M  END
>  <MODEL>
1

>  <REMARK>
 VINA RESULT:      -4.1      0.000      0.000
  Name = 
  3 active torsions:
  status: ('A' for Active; 'I' for Inactive)
    1  A    between atoms: C_7  and  C_19
    2  A    between atoms: C_16  and  C_27
    3  A    between atoms: C_28  and  C_32
                            x       y       z     vdW  Elec       q    Type
                         _______ _______ _______ _____ _____    ______ ____

>  <TORSDO>
F 3

$$$$
=
 OpenBabel11062408153D

 32 36  0  0  1  0  0  0  0  0999 V2000
  162.2240  209.0960  151.3730 C   0  0  1  0  0  3  0  0  0  0  0  0
  160.8270  207.1050  151.0100 N   0  0  2  0  0  0  0  0  0  0  0  0
  162.4540  210.3270  152.2330 C   0  0  0  0  0  2  0  0  0  0  0  0
  160.9170  208.3870  151.7190 C   0  0  1  0  0  3  0  0  0  0  0  0
  161.9940  206.2200  151.2270 C   0  0  1  0  0  3  0  0  0  0  0  0
  160.7660  207.4180  149.5720 C   0  0  1  0  0  3  0  0  0  0  0  0
  161.3540  203.8700  148.4940 C   0  0  0  0  0  0  0  0  0  0  0  0
  161.3320  204.9670  149.2030 C   0  0  0  0  0  0  0  0  0  0  0  0
  162.5590  206.2010  152.6600 C   0  0  2  0  0  3  0  0  0  0  0  0
  160.5950  208.2740  153.2210 C   0  0  1  0  0  3  0  0  0  0  0  0
  161.7120  204.8410  150.6510 C   0  0  0  0  0  2  0  0  0  0  0  0
  160.3390  206.8710  153.7810 C   0  0  0  0  0  2  0  0  0  0  0  0
  161.2120  209.3080  154.1710 C   0  0  0  0  0  2  0  0  0  0  0  0
  162.0020  208.0870  149.1050 N   0  0  0  0  0  2  0  0  0  0  0  0
  163.6210  205.3220  152.7580 F   0  0  0  0  0  0  0  0  0  0  0  0
  162.2830  209.3280  149.8570 C   0  0  1  0  0  3  0  0  0  0  0  0
  160.4690  206.1400  148.7640 C   0  0  2  0  0  3  0  0  0  0  0  0
  161.5470  205.9310  153.7710 C   0  0  0  0  0  2  0  0  0  0  0  0
  162.5500  209.8640  153.6820 C   0  0  0  0  0  2  0  0  0  0  0  0
  161.3740  202.8310  147.8220 O   0  0  0  0  0  0  0  0  0  0  0  0
  162.1020  212.4410  147.6780 C   0  0  2  0  0  3  0  0  0  0  0  0
  163.4240  212.7330  148.0140 O   0  0  0  0  0  1  0  0  0  0  0  0
  160.8910  212.9120  149.7690 C   0  0  0  0  0  3  0  0  0  0  0  0
  161.4850  210.5370  149.3350 C   0  0  1  0  0  3  0  0  0  0  0  0
  161.1690  213.2780  148.5110 C   0  0  0  0  0  0  0  0  0  0  0  0
  161.5490  211.6940  150.3410 C   0  0  0  0  0  2  0  0  0  0  0  0
  161.8400  210.9400  147.8810 C   0  0  1  0  0  3  0  0  0  0  0  0
  160.8230  210.5200  147.0230 O   0  0  0  0  0  1  0  0  0  0  0  0
  160.4820  214.4530  147.8980 C   0  0  0  0  0  2  0  0  0  0  0  0
  160.6020  214.4050  146.5090 O   0  0  0  0  0  1  0  0  0  0  0  0
  161.8260  206.2030  146.7890 O   0  0  0  0  0  1  0  0  0  0  0  0
  160.5320  206.4230  147.2630 C   0  0  0  0  0  2  0  0  0  0  0  0
  1  4  1  0  0  0  0
  1  3  1  1  0  0  0
  2  5  1  0  0  0  0
  2  4  1  0  0  0  0
  3 19  1  0  0  0  0
  4 10  1  0  0  0  0
  5  9  1  0  0  0  0
  6  2  1  0  0  0  0
  7  8  2  0  0  0  0
  8 11  1  0  0  0  0
  9 15  1  0  0  0  0
  9 18  1  0  0  0  0
 10 12  1  0  0  0  0
 10 13  1  0  0  0  0
 11  5  1  0  0  0  0
 14  6  1  0  0  0  0
 14 16  1  0  0  0  0
 16  1  1  0  0  0  0
 17  8  1  0  0  0  0
 17  6  1  0  0  0  0
 18 12  1  0  0  0  0
 19 13  1  0  0  0  0
 20  7  2  0  0  0  0
 21 27  1  0  0  0  0
 21 22  1  0  0  0  0
 21 25  1  0  0  0  0
 23 26  1  0  0  0  0
 24 16  1  0  0  0  0
 24 26  1  0  0  0  0
 25 23  2  0  0  0  0
 27 24  1  0  0  0  0
 28 27  1  0  0  0  0
 29 25  1  0  0  0  0
 30 29  1  0  0  0  0
 31 32  1  0  0  0  0
 32 17  1  0  0  0  0
M  END
>  <MODEL>
2

>  <REMARK>
 VINA RESULT:      -3.6      4.864      7.317
  Name = 
  3 active torsions:
  status: ('A' for Active; 'I' for Inactive)
    1  A    between atoms: C_7  and  C_19
    2  A    between atoms: C_16  and  C_27
    3  A    between atoms: C_28  and  C_32
                            x       y       z     vdW  Elec       q    Type
                         _______ _______ _______ _____ _____    ______ ____

>  <TORSDO>
F 3

$$$$
=
 OpenBabel11062408153D

 32 36  0  0  1  0  0  0  0  0999 V2000
  160.3840  207.9060  154.5020 C   0  0  1  0  0  3  0  0  0  0  0  0
  161.7030  209.7460  153.5430 N   0  0  2  0  0  0  0  0  0  0  0  0
  160.2420  206.9390  155.6640 C   0  0  0  0  0  2  0  0  0  0  0  0
  161.6910  208.6920  154.5630 C   0  0  1  0  0  3  0  0  0  0  0  0
  160.5290  210.6470  153.6020 C   0  0  1  0  0  3  0  0  0  0  0  0
  161.6810  209.0710  152.2340 C   0  0  1  0  0  3  0  0  0  0  0  0
  160.9330  212.2120  150.3170 C   0  0  0  0  0  0  0  0  0  0  0  0
  161.0280  211.3370  151.2820 C   0  0  0  0  0  0  0  0  0  0  0  0
  160.0560  211.0320  155.0160 C   0  0  2  0  0  3  0  0  0  0  0  0
  162.1050  209.1940  155.9590 C   0  0  1  0  0  3  0  0  0  0  0  0
  160.7380  211.8320  152.6710 C   0  0  0  0  0  2  0  0  0  0  0  0
  162.3590  210.6970  156.1190 C   0  0  0  0  0  2  0  0  0  0  0  0
  161.5760  208.4380  157.1840 C   0  0  0  0  0  2  0  0  0  0  0  0
  160.4360  208.2920  152.0410 N   0  0  0  0  0  2  0  0  0  0  0  0
  158.9790  211.8970  154.9550 F   0  0  0  0  0  0  0  0  0  0  0  0
  160.2360  207.2870  153.1050 C   0  0  1  0  0  3  0  0  0  0  0  0
  161.8930  210.0980  151.1040 C   0  0  2  0  0  3  0  0  0  0  0  0
  161.1280  211.5910  155.9480 C   0  0  0  0  0  2  0  0  0  0  0  0
  160.2250  207.7610  156.9480 C   0  0  0  0  0  2  0  0  0  0  0  0
  160.8440  213.0400  149.4020 O   0  0  0  0  0  0  0  0  0  0  0  0
  161.5770  204.6700  150.6920 C   0  0  2  0  0  3  0  0  0  0  0  0
  160.3880  204.7530  149.9660 O   0  0  0  0  0  1  0  0  0  0  0  0
  160.8790  203.5120  152.7490 C   0  0  0  0  0  3  0  0  0  0  0  0
  161.0300  205.9910  152.8610 C   0  0  1  0  0  3  0  0  0  0  0  0
  161.5420  203.4600  151.5870 C   0  0  0  0  0  0  0  0  0  0  0  0
  160.1460  204.7650  153.1210 C   0  0  0  0  0  2  0  0  0  0  0  0
  161.7760  205.9610  151.5030 C   0  0  1  0  0  3  0  0  0  0  0  0
  163.1380  206.1760  151.7160 O   0  0  0  0  0  1  0  0  0  0  0  0
  162.3280  202.2450  151.2210 C   0  0  0  0  0  2  0  0  0  0  0  0
  161.5320  201.3660  150.4850 O   0  0  0  0  0  1  0  0  0  0  0  0
  162.6690  208.3990  149.6020 O   0  0  0  0  0  1  0  0  0  0  0  0
  161.7430  209.4340  149.7350 C   0  0  0  0  0  2  0  0  0  0  0  0
  1  4  1  0  0  0  0
  1  3  1  1  0  0  0
  2  5  1  0  0  0  0
  2  4  1  0  0  0  0
  3 19  1  0  0  0  0
  4 10  1  0  0  0  0
  5  9  1  0  0  0  0
  6  2  1  0  0  0  0
  7  8  2  0  0  0  0
  8 11  1  0  0  0  0
  9 18  1  0  0  0  0
 10 12  1  0  0  0  0
 10 13  1  0  0  0  0
 11  5  1  0  0  0  0
 14  6  1  0  0  0  0
 14 16  1  0  0  0  0
 15  9  1  0  0  0  0
 16  1  1  0  0  0  0
 17  8  1  0  0  0  0
 17  6  1  0  0  0  0
 18 12  1  0  0  0  0
 19 13  1  0  0  0  0
 20  7  2  0  0  0  0
 21 27  1  0  0  0  0
 21 25  1  0  0  0  0
 22 21  1  0  0  0  0
 23 26  1  0  0  0  0
 24 16  1  0  0  0  0
 24 26  1  0  0  0  0
 25 23  2  0  0  0  0
 27 28  1  0  0  0  0
 27 24  1  0  0  0  0
 29 25  1  0  0  0  0
 30 29  1  0  0  0  0
 31 32  1  0  0  0  0
 32 17  1  0  0  0  0
M  END
>  <MODEL>
3

>  <REMARK>
 VINA RESULT:      -3.4      3.955      7.081
  Name = 
  3 active torsions:
  status: ('A' for Active; 'I' for Inactive)
    1  A    between atoms: C_7  and  C_19
    2  A    between atoms: C_16  and  C_27
    3  A    between atoms: C_28  and  C_32
                            x       y       z     vdW  Elec       q    Type
                         _______ _______ _______ _____ _____    ______ ____

>  <TORSDO>
F 3

$$$$
=
 OpenBabel11062408153D

 32 36  0  0  1  0  0  0  0  0999 V2000
  161.8410  207.3160  151.8470 C   0  0  1  0  0  3  0  0  0  0  0  0
  161.0900  208.5340  149.8480 N   0  0  2  0  0  0  0  0  0  0  0  0
  161.6450  206.0820  152.7100 C   0  0  0  0  0  2  0  0  0  0  0  0
  160.7600  207.4490  150.7790 C   0  0  1  0  0  3  0  0  0  0  0  0
  162.4350  208.4100  149.2410 C   0  0  1  0  0  3  0  0  0  0  0  0
  161.0670  209.7840  150.6260 C   0  0  1  0  0  3  0  0  0  0  0  0
  162.7090  211.8180  147.9310 C   0  0  0  0  0  0  0  0  0  0  0  0
  162.3230  210.8120  148.6690 C   0  0  0  0  0  0  0  0  0  0  0  0
  162.8600  206.9830  148.8470 C   0  0  2  0  0  3  0  0  0  0  0  0
  160.3560  206.1430  150.0690 C   0  0  1  0  0  3  0  0  0  0  0  0
  162.5990  209.4360  148.1300 C   0  0  0  0  0  2  0  0  0  0  0  0
  160.4550  206.1140  148.5400 C   0  0  0  0  0  2  0  0  0  0  0  0
  160.5780  204.8200  150.8120 C   0  0  0  0  0  2  0  0  0  0  0  0
  162.1020  209.7880  151.6860 N   0  0  0  0  0  2  0  0  0  0  0  0
  164.1130  206.9860  148.2640 F   0  0  0  0  0  0  0  0  0  0  0  0
  161.9600  208.6430  152.6080 C   0  0  1  0  0  3  0  0  0  0  0  0
  161.2070  210.9970  149.6860 C   0  0  2  0  0  3  0  0  0  0  0  0
  161.8730  206.2120  147.9740 C   0  0  0  0  0  2  0  0  0  0  0  0
  161.7440  204.8630  151.8000 C   0  0  0  0  0  2  0  0  0  0  0  0
  163.0740  212.7720  147.2330 O   0  0  0  0  0  0  0  0  0  0  0  0
  160.3980  210.9380  155.2080 C   0  0  2  0  0  3  0  0  0  0  0  0
  161.6700  211.4110  155.5320 O   0  0  0  0  0  1  0  0  0  0  0  0
  160.4140  208.6560  156.1300 C   0  0  0  0  0  3  0  0  0  0  0  0
  160.9050  208.8830  153.7020 C   0  0  1  0  0  3  0  0  0  0  0  0
  159.9630  209.9140  156.2210 C   0  0  0  0  0  0  0  0  0  0  0  0
  161.3790  208.3000  155.0390 C   0  0  0  0  0  2  0  0  0  0  0  0
  160.4140  210.3500  153.7880 C   0  0  1  0  0  3  0  0  0  0  0  0
  159.1410  210.4470  153.2250 O   0  0  0  0  0  1  0  0  0  0  0  0
  158.9570  210.2800  157.2610 C   0  0  0  0  0  2  0  0  0  0  0  0
  158.3210  211.4720  156.9110 O   0  0  0  0  0  1  0  0  0  0  0  0
  160.0490  212.7020  150.9110 O   0  0  0  0  0  1  0  0  0  0  0  0
  161.3150  212.2930  150.4890 C   0  0  0  0  0  2  0  0  0  0  0  0
  1 16  1  0  0  0  0
  1  3  1  1  0  0  0
  2  6  1  0  0  0  0
  2  4  1  0  0  0  0
  4  1  1  0  0  0  0
  5  2  1  0  0  0  0
  6 14  1  0  0  0  0
  7  8  2  0  0  0  0
  8 17  1  0  0  0  0
  9  5  1  0  0  0  0
 10  4  1  0  0  0  0
 10 13  1  0  0  0  0
 11  8  1  0  0  0  0
 11  5  1  0  0  0  0
 12 10  1  0  0  0  0
 13 19  1  0  0  0  0
 14 16  1  0  0  0  0
 15  9  1  0  0  0  0
 16 24  1  0  0  0  0
 17 32  1  0  0  0  0
 17  6  1  0  0  0  0
 18 12  1  0  0  0  0
 18  9  1  0  0  0  0
 19  3  1  0  0  0  0
 20  7  2  0  0  0  0
 21 22  1  0  0  0  0
 21 25  1  0  0  0  0
 23 25  2  0  0  0  0
 24 27  1  0  0  0  0
 24 26  1  0  0  0  0
 25 29  1  0  0  0  0
 26 23  1  0  0  0  0
 27 21  1  0  0  0  0
 28 27  1  0  0  0  0
 30 29  1  0  0  0  0
 32 31  1  0  0  0  0
M  END
>  <MODEL>
4

>  <REMARK>
 VINA RESULT:      -3.0      2.835      4.448
  Name = 
  3 active torsions:
  status: ('A' for Active; 'I' for Inactive)
    1  A    between atoms: C_7  and  C_19
    2  A    between atoms: C_16  and  C_27
    3  A    between atoms: C_28  and  C_32
                            x       y       z     vdW  Elec       q    Type
                         _______ _______ _______ _____ _____    ______ ____

>  <TORSDO>
F 3

$$$$
=
 OpenBabel11062408153D

 32 36  0  0  1  0  0  0  0  0999 V2000
  160.0540  210.9440  153.3460 C   0  0  1  0  0  3  0  0  0  0  0  0
  158.7440  212.8490  154.1830 N   0  0  2  0  0  0  0  0  0  0  0  0
  161.3420  210.1500  153.4850 C   0  0  0  0  0  2  0  0  0  0  0  0
  160.0680  212.2160  154.1890 C   0  0  1  0  0  3  0  0  0  0  0  0
  157.6470  211.9410  154.5930 C   0  0  1  0  0  3  0  0  0  0  0  0
  158.4800  213.2680  152.7960 C   0  0  1  0  0  3  0  0  0  0  0  0
  154.8450  213.9790  153.4100 C   0  0  0  0  0  0  0  0  0  0  0  0
  156.0530  213.4970  153.5210 C   0  0  0  0  0  0  0  0  0  0  0  0
  157.9720  210.9870  155.7560 C   0  0  2  0  0  3  0  0  0  0  0  0
  160.6660  212.0760  155.6020 C   0  0  1  0  0  3  0  0  0  0  0  0
  156.3620  212.7340  154.7780 C   0  0  0  0  0  2  0  0  0  0  0  0
  159.7870  212.4990  156.7830 C   0  0  0  0  0  2  0  0  0  0  0  0
  161.6780  210.9500  155.8480 C   0  0  0  0  0  2  0  0  0  0  0  0
  158.4130  212.1080  151.8770 N   0  0  0  0  0  2  0  0  0  0  0  0
  156.8740  210.2110  156.0770 F   0  0  0  0  0  0  0  0  0  0  0  0
  159.6480  211.2990  151.9090 C   0  0  1  0  0  3  0  0  0  0  0  0
  157.1970  214.1200  152.7350 C   0  0  2  0  0  3  0  0  0  0  0  0
  158.5420  211.6390  157.0130 C   0  0  0  0  0  2  0  0  0  0  0  0
  161.4690  209.7330  154.9460 C   0  0  0  0  0  2  0  0  0  0  0  0
  153.7000  214.4370  153.3040 O   0  0  0  0  0  0  0  0  0  0  0  0
  160.7210  213.0020  148.6810 C   0  0  2  0  0  3  0  0  0  0  0  0
  159.7820  212.2400  147.9860 O   0  0  0  0  0  1  0  0  0  0  0  0
  162.4430  211.3420  149.2670 C   0  0  0  0  0  3  0  0  0  0  0  0
  160.7660  211.8780  151.0230 C   0  0  1  0  0  3  0  0  0  0  0  0
  162.0890  212.3950  148.5180 C   0  0  0  0  0  0  0  0  0  0  0  0
  161.4520  210.7600  150.2280 C   0  0  0  0  0  2  0  0  0  0  0  0
  160.3190  213.0870  150.1630 C   0  0  1  0  0  3  0  0  0  0  0  0
  160.8230  214.2630  150.7190 O   0  0  0  0  0  1  0  0  0  0  0  0
  163.0760  213.0300  147.5960 C   0  0  0  0  0  2  0  0  0  0  0  0
  162.5890  213.0120  146.2890 O   0  0  0  0  0  1  0  0  0  0  0  0
  155.8230  213.6080  150.8380 O   0  0  0  0  0  1  0  0  0  0  0  0
  156.8380  214.4530  151.2860 C   0  0  0  0  0  2  0  0  0  0  0  0
  1  3  1  6  0  0  0
  1  4  1  0  0  0  0
  2  4  1  0  0  0  0
  2  5  1  0  0  0  0
  3 19  1  0  0  0  0
  4 10  1  0  0  0  0
  5 11  1  0  0  0  0
  5  9  1  0  0  0  0
  6  2  1  0  0  0  0
  7  8  2  0  0  0  0
  8 11  1  0  0  0  0
  9 15  1  0  0  0  0
  9 18  1  0  0  0  0
 10 13  1  0  0  0  0
 10 12  1  0  0  0  0
 12 18  1  0  0  0  0
 14 16  1  0  0  0  0
 14  6  1  0  0  0  0
 16  1  1  0  0  0  0
 17  6  1  0  0  0  0
 17  8  1  0  0  0  0
 19 13  1  0  0  0  0
 20  7  2  0  0  0  0
 21 27  1  0  0  0  0
 22 21  1  0  0  0  0
 23 26  1  0  0  0  0
 24 16  1  0  0  0  0
 25 21  1  0  0  0  0
 25 23  2  0  0  0  0
 26 24  1  0  0  0  0
 27 28  1  0  0  0  0
 27 24  1  0  0  0  0
 29 25  1  0  0  0  0
 30 29  1  0  0  0  0
 31 32  1  0  0  0  0
 32 17  1  0  0  0  0
M  END
>  <MODEL>
5

>  <REMARK>
 VINA RESULT:      -2.8      2.472      6.385
  Name = 
  3 active torsions:
  status: ('A' for Active; 'I' for Inactive)
    1  A    between atoms: C_7  and  C_19
    2  A    between atoms: C_16  and  C_27
    3  A    between atoms: C_28  and  C_32
                            x       y       z     vdW  Elec       q    Type
                         _______ _______ _______ _____ _____    ______ ____

>  <TORSDO>
F 3

$$$$
=
 OpenBabel11062408153D

 32 36  0  0  1  0  0  0  0  0999 V2000
  161.0320  208.0200  150.3300 C   0  0  1  0  0  3  0  0  0  0  0  0
  161.9700  205.8580  149.6290 N   0  0  2  0  0  0  0  0  0  0  0  0
  161.2460  209.5230  150.3760 C   0  0  0  0  0  2  0  0  0  0  0  0
  162.2750  207.2760  149.8470 C   0  0  1  0  0  3  0  0  0  0  0  0
  160.8190  205.6270  148.7260 C   0  0  1  0  0  3  0  0  0  0  0  0
  161.6250  205.2900  150.9430 C   0  0  1  0  0  3  0  0  0  0  0  0
  160.2640  202.0950  149.5150 C   0  0  0  0  0  0  0  0  0  0  0  0
  160.6500  203.3370  149.6390 C   0  0  0  0  0  0  0  0  0  0  0  0
  160.7260  206.5680  147.5110 C   0  0  2  0  0  3  0  0  0  0  0  0
  163.0260  207.9230  148.6690 C   0  0  1  0  0  3  0  0  0  0  0  0
  160.7220  204.1490  148.3780 C   0  0  0  0  0  2  0  0  0  0  0  0
  163.2520  207.0630  147.4210 C   0  0  0  0  0  2  0  0  0  0  0  0
  162.8760  209.4360  148.4600 C   0  0  0  0  0  2  0  0  0  0  0  0
  160.4070  205.9150  151.5080 N   0  0  0  0  0  2  0  0  0  0  0  0
  159.6380  206.2460  146.7220 F   0  0  0  0  0  0  0  0  0  0  0  0
  160.5410  207.3810  151.6360 C   0  0  1  0  0  3  0  0  0  0  0  0
  161.4850  203.7580  150.8390 C   0  0  2  0  0  3  0  0  0  0  0  0
  161.9850  206.6760  146.6550 C   0  0  0  0  0  2  0  0  0  0  0  0
  161.5400  209.9900  148.9560 C   0  0  0  0  0  2  0  0  0  0  0  0
  159.9000  200.9190  149.3990 O   0  0  0  0  0  0  0  0  0  0  0  0
  160.8480  207.3350  155.4270 C   0  0  2  0  0  3  0  0  0  0  0  0
  159.4610  207.4380  155.5250 O   0  0  0  0  0  1  0  0  0  0  0  0
  161.5070  209.5740  154.6440 C   0  0  0  0  0  3  0  0  0  0  0  0
  161.2930  207.8040  152.9100 C   0  0  1  0  0  3  0  0  0  0  0  0
  161.4750  208.6860  155.6460 C   0  0  0  0  0  0  0  0  0  0  0  0
  160.8790  209.2200  153.3300 C   0  0  0  0  0  2  0  0  0  0  0  0
  161.2260  206.7590  154.0520 C   0  0  1  0  0  3  0  0  0  0  0  0
  162.4480  206.0920  154.1420 O   0  0  0  0  0  1  0  0  0  0  0  0
  162.1440  208.9910  156.9450 C   0  0  0  0  0  2  0  0  0  0  0  0
  163.0020  210.0800  156.7950 O   0  0  0  0  0  1  0  0  0  0  0  0
  161.6570  201.9640  152.4200 O   0  0  0  0  0  1  0  0  0  0  0  0
  161.0010  203.1690  152.1640 C   0  0  0  0  0  2  0  0  0  0  0  0
  1  3  1  1  0  0  0
  1 16  1  0  0  0  0
  2  4  1  0  0  0  0
  2  6  1  0  0  0  0
  4  1  1  0  0  0  0
  5  2  1  0  0  0  0
  6 14  1  0  0  0  0
  7  8  2  0  0  0  0
  8 17  1  0  0  0  0
  9  5  1  0  0  0  0
 10  4  1  0  0  0  0
 11  5  1  0  0  0  0
 11  8  1  0  0  0  0
 12 10  1  0  0  0  0
 13 10  1  0  0  0  0
 13 19  1  0  0  0  0
 14 16  1  0  0  0  0
 15  9  1  0  0  0  0
 16 24  1  0  0  0  0
 17  6  1  0  0  0  0
 17 32  1  0  0  0  0
 18 12  1  0  0  0  0
 18  9  1  0  0  0  0
 19  3  1  0  0  0  0
 20  7  2  0  0  0  0
 21 22  1  0  0  0  0
 21 25  1  0  0  0  0
 23 25  2  0  0  0  0
 24 26  1  0  0  0  0
 24 27  1  0  0  0  0
 25 29  1  0  0  0  0
 26 23  1  0  0  0  0
 27 28  1  0  0  0  0
 27 21  1  0  0  0  0
 30 29  1  0  0  0  0
 32 31  1  0  0  0  0
M  END
>  <MODEL>
6

>  <REMARK>
 VINA RESULT:      -2.7      5.025      7.782
  Name = 
  3 active torsions:
  status: ('A' for Active; 'I' for Inactive)
    1  A    between atoms: C_7  and  C_19
    2  A    between atoms: C_16  and  C_27
    3  A    between atoms: C_28  and  C_32
                            x       y       z     vdW  Elec       q    Type
                         _______ _______ _______ _____ _____    ______ ____

>  <TORSDO>
F 3

$$$$
=
 OpenBabel11062408153D

 32 36  0  0  1  0  0  0  0  0999 V2000
  161.6310  209.9050  152.7400 C   0  0  1  0  0  3  0  0  0  0  0  0
  160.4400  207.7540  152.7410 N   0  0  2  0  0  0  0  0  0  0  0  0
  161.5660  211.3750  153.1190 C   0  0  0  0  0  2  0  0  0  0  0  0
  160.2900  209.2020  152.9270 C   0  0  1  0  0  3  0  0  0  0  0  0
  161.4890  207.1500  153.5940 C   0  0  1  0  0  3  0  0  0  0  0  0
  160.8310  207.5450  151.3370 C   0  0  1  0  0  3  0  0  0  0  0  0
  161.7650  203.9440  151.8470 C   0  0  0  0  0  0  0  0  0  0  0  0
  161.5110  205.2060  152.0680 C   0  0  0  0  0  0  0  0  0  0  0  0
  161.5750  207.6940  155.0320 C   0  0  2  0  0  3  0  0  0  0  0  0
  159.5130  209.5720  154.2050 C   0  0  1  0  0  3  0  0  0  0  0  0
  161.4170  205.6320  153.5050 C   0  0  0  0  0  2  0  0  0  0  0  0
  159.1080  208.4260  155.1390 C   0  0  0  0  0  2  0  0  0  0  0  0
  159.7890  210.9370  154.8470 C   0  0  0  0  0  2  0  0  0  0  0  0
  162.1440  208.1610  151.0370 N   0  0  0  0  0  2  0  0  0  0  0  0
  162.5620  207.0400  155.7460 F   0  0  0  0  0  0  0  0  0  0  0  0
  162.1610  209.6090  151.3310 C   0  0  1  0  0  3  0  0  0  0  0  0
  160.8160  206.0400  151.0020 C   0  0  2  0  0  3  0  0  0  0  0  0
  160.2680  207.6980  155.8210 C   0  0  0  0  0  2  0  0  0  0  0  0
  161.2070  211.4530  154.5980 C   0  0  0  0  0  2  0  0  0  0  0  0
  162.0060  202.7490  151.6360 O   0  0  0  0  0  0  0  0  0  0  0  0
  162.6350  211.6760  148.1740 C   0  0  2  0  0  3  0  0  0  0  0  0
  163.8080  212.2040  148.7140 O   0  0  0  0  0  1  0  0  0  0  0  0
  160.8800  212.7530  149.5240 C   0  0  0  0  0  3  0  0  0  0  0  0
  161.5550  210.4570  150.1980 C   0  0  1  0  0  3  0  0  0  0  0  0
  161.5090  212.6600  148.3440 C   0  0  0  0  0  0  0  0  0  0  0  0
  161.3380  211.9000  150.6680 C   0  0  0  0  0  2  0  0  0  0  0  0
  162.3140  210.3340  148.8520 C   0  0  1  0  0  3  0  0  0  0  0  0
  161.5810  209.5300  147.9780 O   0  0  0  0  0  1  0  0  0  0  0  0
  161.0350  213.4550  147.1730 C   0  0  0  0  0  2  0  0  0  0  0  0
  160.5370  212.6020  146.1880 O   0  0  0  0  0  1  0  0  0  0  0  0
  160.4890  206.3750  148.6510 O   0  0  0  0  0  1  0  0  0  0  0  0
  161.3450  205.7970  149.5880 C   0  0  0  0  0  2  0  0  0  0  0  0
  1  4  1  0  0  0  0
  1  3  1  6  0  0  0
  2  4  1  0  0  0  0
  2  5  1  0  0  0  0
  3 19  1  0  0  0  0
  4 10  1  0  0  0  0
  5  9  1  0  0  0  0
  6  2  1  0  0  0  0
  7  8  2  0  0  0  0
  8 11  1  0  0  0  0
  9 15  1  0  0  0  0
  9 18  1  0  0  0  0
 10 13  1  0  0  0  0
 10 12  1  0  0  0  0
 11  5  1  0  0  0  0
 12 18  1  0  0  0  0
 14 16  1  0  0  0  0
 14  6  1  0  0  0  0
 16  1  1  0  0  0  0
 17  6  1  0  0  0  0
 17  8  1  0  0  0  0
 19 13  1  0  0  0  0
 20  7  2  0  0  0  0
 21 25  1  0  0  0  0
 21 22  1  0  0  0  0
 21 27  1  0  0  0  0
 23 26  1  0  0  0  0
 24 26  1  0  0  0  0
 24 16  1  0  0  0  0
 25 23  2  0  0  0  0
 27 24  1  0  0  0  0
 28 27  1  0  0  0  0
 29 25  1  0  0  0  0
 30 29  1  0  0  0  0
 31 32  1  0  0  0  0
 32 17  1  0  0  0  0
M  END
>  <MODEL>
7

>  <REMARK>
 VINA RESULT:      -2.5      4.255      7.195
  Name = 
  3 active torsions:
  status: ('A' for Active; 'I' for Inactive)
    1  A    between atoms: C_7  and  C_19
    2  A    between atoms: C_16  and  C_27
    3  A    between atoms: C_28  and  C_32
                            x       y       z     vdW  Elec       q    Type
                         _______ _______ _______ _____ _____    ______ ____

>  <TORSDO>
F 3

$$$$
=
 OpenBabel11062408153D

 32 36  0  0  1  0  0  0  0  0999 V2000
  160.6360  207.5450  151.8710 C   0  0  1  0  0  3  0  0  0  0  0  0
  161.7670  209.7270  151.9260 N   0  0  2  0  0  0  0  0  0  0  0  0
  160.5790  206.1470  152.4630 C   0  0  0  0  0  2  0  0  0  0  0  0
  161.8510  208.3280  152.3600 C   0  0  1  0  0  3  0  0  0  0  0  0
  160.5030  210.3960  152.3120 C   0  0  1  0  0  3  0  0  0  0  0  0
  161.8360  209.7210  150.4550 C   0  0  1  0  0  3  0  0  0  0  0  0
  160.7890  213.3100  150.1140 C   0  0  0  0  0  0  0  0  0  0  0  0
  160.9620  212.1050  150.5860 C   0  0  0  0  0  0  0  0  0  0  0  0
  159.9700  210.0550  153.7150 C   0  0  2  0  0  3  0  0  0  0  0  0
  162.1880  208.1770  153.8550 C   0  0  1  0  0  3  0  0  0  0  0  0
  160.5990  211.8880  152.0280 C   0  0  0  0  0  2  0  0  0  0  0  0
  162.2780  209.4590  154.6900 C   0  0  0  0  0  2  0  0  0  0  0  0
  161.7240  206.9030  154.5740 C   0  0  0  0  0  2  0  0  0  0  0  0
  160.6840  209.0080  149.8560 N   0  0  0  0  0  2  0  0  0  0  0  0
  158.8080  210.7550  153.9830 F   0  0  0  0  0  0  0  0  0  0  0  0
  160.5760  207.6170  150.3390 C   0  0  1  0  0  3  0  0  0  0  0  0
  161.9560  211.1630  149.9230 C   0  0  2  0  0  3  0  0  0  0  0  0
  160.9630  210.2210  154.8630 C   0  0  0  0  0  2  0  0  0  0  0  0
  160.4560  206.2930  153.9760 C   0  0  0  0  0  2  0  0  0  0  0  0
  160.6260  214.4520  149.6650 O   0  0  0  0  0  0  0  0  0  0  0  0
  161.9580  206.2840  147.0560 C   0  0  2  0  0  3  0  0  0  0  0  0
  160.6880  206.4060  146.4900 O   0  0  0  0  0  1  0  0  0  0  0  0
  161.6900  204.3780  148.5910 C   0  0  0  0  0  3  0  0  0  0  0  0
  161.5070  206.6480  149.5880 C   0  0  1  0  0  3  0  0  0  0  0  0
  162.2040  204.8520  147.4480 C   0  0  0  0  0  0  0  0  0  0  0  0
  160.8420  205.2740  149.4400 C   0  0  0  0  0  2  0  0  0  0  0  0
  162.0740  207.2240  148.2660 C   0  0  1  0  0  3  0  0  0  0  0  0
  163.4090  207.5860  148.4530 O   0  0  0  0  0  1  0  0  0  0  0  0
  163.1010  203.9990  146.6130 C   0  0  0  0  0  2  0  0  0  0  0  0
  162.8250  204.1980  145.2600 O   0  0  0  0  0  1  0  0  0  0  0  0
  163.0150  211.8420  147.8830 O   0  0  0  0  0  1  0  0  0  0  0  0
  161.8980  211.1820  148.3960 C   0  0  0  0  0  2  0  0  0  0  0  0
  1  4  1  0  0  0  0
  1  3  1  6  0  0  0
  2  5  1  0  0  0  0
  2  4  1  0  0  0  0
  3 19  1  0  0  0  0
  4 10  1  0  0  0  0
  5  9  1  0  0  0  0
  6  2  1  0  0  0  0
  7  8  2  0  0  0  0
  8 11  1  0  0  0  0
  9 15  1  0  0  0  0
  9 18  1  0  0  0  0
 10 13  1  0  0  0  0
 10 12  1  0  0  0  0
 11  5  1  0  0  0  0
 12 18  1  0  0  0  0
 14 16  1  0  0  0  0
 14  6  1  0  0  0  0
 16  1  1  0  0  0  0
 17  6  1  0  0  0  0
 17  8  1  0  0  0  0
 19 13  1  0  0  0  0
 20  7  2  0  0  0  0
 21 25  1  0  0  0  0
 21 27  1  0  0  0  0
 22 21  1  0  0  0  0
 23 26  1  0  0  0  0
 24 16  1  0  0  0  0
 25 23  2  0  0  0  0
 26 24  1  0  0  0  0
 27 28  1  0  0  0  0
 27 24  1  0  0  0  0
 29 25  1  0  0  0  0
 30 29  1  0  0  0  0
 31 32  1  0  0  0  0
 32 17  1  0  0  0  0
M  END
>  <MODEL>
8

>  <REMARK>
 VINA RESULT:      -2.0      3.929      7.756
  Name = 
  3 active torsions:
  status: ('A' for Active; 'I' for Inactive)
    1  A    between atoms: C_7  and  C_19
    2  A    between atoms: C_16  and  C_27
    3  A    between atoms: C_28  and  C_32
                            x       y       z     vdW  Elec       q    Type
                         _______ _______ _______ _____ _____    ______ ____

>  <TORSDO>
F 3

$$$$
