=
 OpenBabel11062408353D

 32 33  0  0  1  0  0  0  0  0999 V2000
  162.1870  206.1190  152.3800 C   0  0  0  0  0  2  0  0  0  0  0  0
  161.7910  205.2590  151.2780 N   0  0  0  0  0  2  0  0  0  0  0  0
  160.8920  204.2500  151.8240 C   0  0  1  0  0  3  0  0  0  0  0  0
  160.4490  203.2190  150.7790 C   0  0  2  0  0  3  0  0  0  0  0  0
  161.5580  202.8930  151.7560 C   0  0  0  0  0  2  0  0  0  0  0  0
  161.0410  203.4410  149.3890 C   0  0  0  0  0  2  0  0  0  0  0  0
  160.6380  202.3170  148.4470 C   0  0  2  0  0  3  0  0  0  0  0  0
  160.9920  200.9610  149.0480 C   0  0  0  0  0  1  0  0  0  0  0  0
  161.2580  202.5380  147.0610 C   0  0  1  0  0  3  0  0  0  0  0  0
  159.7900  202.1240  145.0600 O   0  0  0  0  0  0  0  0  0  0  0  0
  160.7260  201.6500  145.9720 C   0  0  0  0  0  0  0  0  0  0  0  0
  161.1300  200.4620  145.8880 O   0  0  0  0  0  1  0  0  0  0  0  0
  161.3770  204.0070  146.6530 C   0  0  0  0  0  2  0  0  0  0  0  0
  162.2360  204.2120  145.4110 C   0  0  0  0  0  2  0  0  0  0  0  0
  160.3590  205.8210  145.1270 C   0  0  0  0  0  1  0  0  0  0  0  0
  161.5790  205.2060  144.4710 C   0  0  0  0  0  2  0  0  0  0  0  0
  161.9330  207.5810  152.0240 C   0  0  2  0  0  3  0  0  0  0  0  0
  161.2180  208.2870  153.1360 C   0  0  0  0  0  0  0  0  0  0  0  0
  160.9820  207.6560  154.3660 C   0  0  0  0  0  3  0  0  0  0  0  0
  160.8020  209.6100  152.9490 C   0  0  0  0  0  3  0  0  0  0  0  0
  159.2630  210.3280  156.2350 O   0  0  0  0  0  1  0  0  0  0  0  0
  159.9110  209.6600  155.2040 C   0  0  0  0  0  0  0  0  0  0  0  0
  160.3300  208.3410  155.3940 C   0  0  0  0  0  3  0  0  0  0  0  0
  160.1440  210.3030  153.9780 C   0  0  0  0  0  0  0  0  0  0  0  0
  159.7150  211.6570  153.7950 N   0  0  0  0  0  2  0  0  0  0  0  0
  158.5890  212.0420  152.9540 C   0  0  0  0  0  2  0  0  0  0  0  0
  158.6880  213.5120  152.5950 C   0  0  0  0  0  1  0  0  0  0  0  0
  161.1480  207.7000  150.7220 C   0  0  0  0  0  2  0  0  0  0  0  0
  162.0560  208.0890  149.5650 C   0  0  2  0  0  3  0  0  0  0  0  0
  161.9620  209.5870  149.3480 C   0  0  0  0  0  1  0  0  0  0  0  0
  160.4000  206.7390  148.4910 O   0  0  0  0  0  1  0  0  0  0  0  0
  161.6330  207.3610  148.2980 C   0  0  0  0  0  2  0  0  0  0  0  0
  2  1  1  0  0  0  0
  3  2  1  6  0  0  0
  4  6  1  6  0  0  0
  4  5  1  0  0  0  0
  4  3  1  0  0  0  0
  5  3  1  0  0  0  0
  7  8  1  1  0  0  0
  7  6  1  0  0  0  0
  9 13  1  6  0  0  0
  9  7  1  0  0  0  0
 10 11  2  0  0  0  0
 11  9  1  0  0  0  0
 12 11  1  0  0  0  0
 14 13  1  0  0  0  0
 16 15  1  0  0  0  0
 16 14  1  0  0  0  0
 17 28  1  6  0  0  0
 17  1  1  0  0  0  0
 17 18  1  0  0  0  0
 18 19  1  0  0  0  0
 19 23  2  0  0  0  0
 20 18  2  0  0  0  0
 20 24  1  0  0  0  0
 22 23  1  0  0  0  0
 22 21  1  0  0  0  0
 24 22  2  0  0  0  0
 25 24  1  0  0  0  0
 26 25  1  0  0  0  0
 27 26  1  0  0  0  0
 29 30  1  6  0  0  0
 29 28  1  0  0  0  0
 32 31  1  0  0  0  0
 32 29  1  0  0  0  0
M  END
>  <MODEL>
1

>  <REMARK>
 VINA RESULT:      -7.4      0.000      0.000
  Name = 
  16 active torsions:
  status: ('A' for Active; 'I' for Inactive)
    1  A    between atoms: N_1  and  C_4
    2  A    between atoms: N_1  and  C_5
    3  A    between atoms: C_2  and  C_14
    4  A    between atoms: C_3  and  C_15
    5  A    between atoms: C_3  and  C_20
    6  A    between atoms: C_3  and  C_22
    7  A    between atoms: C_5  and  C_14
    8  A    between atoms: C_9  and  N_28
    9  A    between atoms: C_13  and  C_29
   10  A    between atoms: C_13  and  C_30
   11  A    between atoms: C_14  and  C_30
   12  A    between atoms: C_15  and  C_26
   13  A    between atoms: C_16  and  C_20
   14  A    between atoms: C_16  and  C_24
   15  A    between atoms: C_19  and  C_26
   16  A    between atoms: N_28  and  C_32
                            x       y       z     vdW  Elec       q    Type
                         _______ _______ _______ _____ _____    ______ ____

>  <TORSDO>
F 16

$$$$
=
 OpenBabel11062408353D

 32 33  0  0  1  0  0  0  0  0999 V2000
  161.8600  207.7980  150.8110 C   0  0  0  0  0  2  0  0  0  0  0  0
  162.7230  207.0740  149.8920 N   0  0  0  0  0  2  0  0  0  0  0  0
  162.6020  207.7220  148.5930 C   0  0  1  0  0  3  0  0  0  0  0  0
  162.1570  206.7580  147.4860 C   0  0  2  0  0  3  0  0  0  0  0  0
  161.1560  207.6840  148.1440 C   0  0  0  0  0  2  0  0  0  0  0  0
  161.9170  205.3270  147.9600 C   0  0  0  0  0  2  0  0  0  0  0  0
  162.2250  204.3330  146.8510 C   0  0  2  0  0  3  0  0  0  0  0  0
  163.4420  204.7840  146.0510 C   0  0  0  0  0  1  0  0  0  0  0  0
  160.9830  204.1120  145.9770 C   0  0  1  0  0  3  0  0  0  0  0  0
  159.9340  206.2340  145.1260 O   0  0  0  0  0  1  0  0  0  0  0  0
  160.7620  205.1400  144.9040 C   0  0  0  0  0  0  0  0  0  0  0  0
  161.3300  205.0050  143.7900 O   0  0  0  0  0  0  0  0  0  0  0  0
  160.8050  202.6720  145.4940 C   0  0  0  0  0  2  0  0  0  0  0  0
  161.2400  201.6400  146.5290 C   0  0  0  0  0  2  0  0  0  0  0  0
  161.0750  201.0880  148.9500 C   0  0  0  0  0  1  0  0  0  0  0  0
  160.3790  201.7430  147.7740 C   0  0  0  0  0  2  0  0  0  0  0  0
  161.2210  206.8330  151.8050 C   0  0  2  0  0  3  0  0  0  0  0  0
  160.9270  207.5180  153.1050 C   0  0  0  0  0  0  0  0  0  0  0  0
  160.6750  206.7840  154.2740 C   0  0  0  0  0  3  0  0  0  0  0  0
  160.9310  208.9150  153.1560 C   0  0  0  0  0  3  0  0  0  0  0  0
  160.1690  209.4850  156.7310 O   0  0  0  0  0  1  0  0  0  0  0  0
  160.4220  208.8420  155.5260 C   0  0  0  0  0  0  0  0  0  0  0  0
  160.4220  207.4450  155.4780 C   0  0  0  0  0  3  0  0  0  0  0  0
  160.6760  209.5860  154.3630 C   0  0  0  0  0  0  0  0  0  0  0  0
  160.6780  211.0170  154.4240 N   0  0  0  0  0  2  0  0  0  0  0  0
  160.0050  211.8700  153.4530 C   0  0  0  0  0  2  0  0  0  0  0  0
  158.5160  211.5840  153.4560 C   0  0  0  0  0  1  0  0  0  0  0  0
  162.1070  205.6130  152.0310 C   0  0  0  0  0  2  0  0  0  0  0  0
  161.6130  204.4170  151.2310 C   0  0  2  0  0  3  0  0  0  0  0  0
  160.1480  204.6200  150.8970 C   0  0  0  0  0  1  0  0  0  0  0  0
  160.5900  202.4130  152.0430 O   0  0  0  0  0  1  0  0  0  0  0  0
  161.7800  203.1390  152.0400 C   0  0  0  0  0  2  0  0  0  0  0  0
  2  1  1  0  0  0  0
  3  2  1  1  0  0  0
  4  6  1  1  0  0  0
  4  5  1  0  0  0  0
  4  3  1  0  0  0  0
  5  3  1  0  0  0  0
  7  8  1  6  0  0  0
  7  6  1  0  0  0  0
  9 13  1  6  0  0  0
  9  7  1  0  0  0  0
 11 10  1  0  0  0  0
 11  9  1  0  0  0  0
 12 11  2  0  0  0  0
 13 14  1  0  0  0  0
 14 16  1  0  0  0  0
 16 15  1  0  0  0  0
 17  1  1  6  0  0  0
 17 28  1  0  0  0  0
 17 18  1  0  0  0  0
 18 20  2  0  0  0  0
 18 19  1  0  0  0  0
 19 23  2  0  0  0  0
 20 24  1  0  0  0  0
 22 21  1  0  0  0  0
 23 22  1  0  0  0  0
 24 25  1  0  0  0  0
 24 22  2  0  0  0  0
 26 27  1  0  0  0  0
 26 25  1  0  0  0  0
 29 30  1  1  0  0  0
 29 28  1  0  0  0  0
 29 32  1  0  0  0  0
 32 31  1  0  0  0  0
M  END
>  <MODEL>
2

>  <REMARK>
 VINA RESULT:      -7.0      1.680      3.584
  Name = 
  16 active torsions:
  status: ('A' for Active; 'I' for Inactive)
    1  A    between atoms: N_1  and  C_4
    2  A    between atoms: N_1  and  C_5
    3  A    between atoms: C_2  and  C_14
    4  A    between atoms: C_3  and  C_15
    5  A    between atoms: C_3  and  C_20
    6  A    between atoms: C_3  and  C_22
    7  A    between atoms: C_5  and  C_14
    8  A    between atoms: C_9  and  N_28
    9  A    between atoms: C_13  and  C_29
   10  A    between atoms: C_13  and  C_30
   11  A    between atoms: C_14  and  C_30
   12  A    between atoms: C_15  and  C_26
   13  A    between atoms: C_16  and  C_20
   14  A    between atoms: C_16  and  C_24
   15  A    between atoms: C_19  and  C_26
   16  A    between atoms: N_28  and  C_32
                            x       y       z     vdW  Elec       q    Type
                         _______ _______ _______ _____ _____    ______ ____

>  <TORSDO>
F 16

$$$$
=
 OpenBabel11062408353D

 32 33  0  0  1  0  0  0  0  0999 V2000
  162.0870  206.4790  153.5220 C   0  0  0  0  0  2  0  0  0  0  0  0
  162.2140  205.4380  152.5160 N   0  0  0  0  0  2  0  0  0  0  0  0
  160.8850  204.8780  152.3090 C   0  0  1  0  0  3  0  0  0  0  0  0
  160.6190  204.5010  150.8470 C   0  0  2  0  0  3  0  0  0  0  0  0
  161.0100  203.4400  151.8540 C   0  0  0  0  0  2  0  0  0  0  0  0
  161.7920  204.7690  149.9070 C   0  0  0  0  0  2  0  0  0  0  0  0
  161.3660  205.6710  148.7590 C   0  0  2  0  0  3  0  0  0  0  0  0
  160.1120  206.4550  149.1310 C   0  0  0  0  0  1  0  0  0  0  0  0
  161.1990  204.8510  147.4720 C   0  0  1  0  0  3  0  0  0  0  0  0
  162.5980  205.7300  145.5760 O   0  0  0  0  0  0  0  0  0  0  0  0
  161.3580  205.6230  146.1940 C   0  0  0  0  0  0  0  0  0  0  0  0
  160.3560  206.1850  145.6810 O   0  0  0  0  0  1  0  0  0  0  0  0
  161.9420  203.5140  147.4800 C   0  0  0  0  0  2  0  0  0  0  0  0
  161.0100  202.3150  147.3490 C   0  0  0  0  0  2  0  0  0  0  0  0
  159.6690  201.3530  149.2120 C   0  0  0  0  0  1  0  0  0  0  0  0
  161.0540  201.4700  148.6080 C   0  0  0  0  0  2  0  0  0  0  0  0
  160.8270  207.3020  153.2730 C   0  0  2  0  0  3  0  0  0  0  0  0
  161.1140  208.4620  152.3680 C   0  0  0  0  0  0  0  0  0  0  0  0
  161.9280  208.3170  151.2350 C   0  0  0  0  0  3  0  0  0  0  0  0
  160.5380  209.7050  152.6470 C   0  0  0  0  0  3  0  0  0  0  0  0
  161.8400  211.7260  149.8360 O   0  0  0  0  0  1  0  0  0  0  0  0
  161.5930  210.6500  150.6790 C   0  0  0  0  0  0  0  0  0  0  0  0
  162.1670  209.4070  150.3960 C   0  0  0  0  0  3  0  0  0  0  0  0
  160.7740  210.8060  151.8090 C   0  0  0  0  0  0  0  0  0  0  0  0
  160.1880  212.0830  152.0880 N   0  0  0  0  0  2  0  0  0  0  0  0
  158.7560  212.2960  152.2550 C   0  0  0  0  0  2  0  0  0  0  0  0
  158.5110  213.4850  153.1630 C   0  0  0  0  0  1  0  0  0  0  0  0
  160.2190  207.7850  154.5850 C   0  0  0  0  0  2  0  0  0  0  0  0
  161.1990  207.6220  155.7380 C   0  0  2  0  0  3  0  0  0  0  0  0
  160.4640  207.0420  156.9300 C   0  0  0  0  0  1  0  0  0  0  0  0
  160.7920  209.9340  156.1980 O   0  0  0  0  0  1  0  0  0  0  0  0
  161.7960  208.9710  156.1130 C   0  0  0  0  0  2  0  0  0  0  0  0
  2  1  1  0  0  0  0
  3  2  1  6  0  0  0
  4  6  1  6  0  0  0
  4  5  1  0  0  0  0
  4  3  1  0  0  0  0
  5  3  1  0  0  0  0
  7  8  1  1  0  0  0
  7  6  1  0  0  0  0
  9 13  1  1  0  0  0
  9  7  1  0  0  0  0
 10 11  2  0  0  0  0
 11  9  1  0  0  0  0
 12 11  1  0  0  0  0
 14 13  1  0  0  0  0
 14 16  1  0  0  0  0
 16 15  1  0  0  0  0
 17  1  1  1  0  0  0
 17 28  1  0  0  0  0
 18 20  1  0  0  0  0
 18 17  1  0  0  0  0
 19 18  2  0  0  0  0
 21 22  1  0  0  0  0
 22 24  1  0  0  0  0
 23 22  2  0  0  0  0
 23 19  1  0  0  0  0
 24 25  1  0  0  0  0
 24 20  2  0  0  0  0
 25 26  1  0  0  0  0
 26 27  1  0  0  0  0
 28 29  1  0  0  0  0
 29 32  1  0  0  0  0
 29 30  1  1  0  0  0
 32 31  1  0  0  0  0
M  END
>  <MODEL>
3

>  <REMARK>
 VINA RESULT:      -6.9      1.790      4.289
  Name = 
  16 active torsions:
  status: ('A' for Active; 'I' for Inactive)
    1  A    between atoms: N_1  and  C_4
    2  A    between atoms: N_1  and  C_5
    3  A    between atoms: C_2  and  C_14
    4  A    between atoms: C_3  and  C_15
    5  A    between atoms: C_3  and  C_20
    6  A    between atoms: C_3  and  C_22
    7  A    between atoms: C_5  and  C_14
    8  A    between atoms: C_9  and  N_28
    9  A    between atoms: C_13  and  C_29
   10  A    between atoms: C_13  and  C_30
   11  A    between atoms: C_14  and  C_30
   12  A    between atoms: C_15  and  C_26
   13  A    between atoms: C_16  and  C_20
   14  A    between atoms: C_16  and  C_24
   15  A    between atoms: C_19  and  C_26
   16  A    between atoms: N_28  and  C_32
                            x       y       z     vdW  Elec       q    Type
                         _______ _______ _______ _____ _____    ______ ____

>  <TORSDO>
F 16

$$$$
=
 OpenBabel11062408353D

 32 33  0  0  1  0  0  0  0  0999 V2000
  161.0280  209.2450  152.1570 C   0  0  0  0  0  2  0  0  0  0  0  0
  160.7130  207.8310  152.0310 N   0  0  0  0  0  2  0  0  0  0  0  0
  161.9350  207.0940  152.3260 C   0  0  1  0  0  3  0  0  0  0  0  0
  161.9490  205.6930  151.7020 C   0  0  2  0  0  3  0  0  0  0  0  0
  162.6890  206.8360  151.0390 C   0  0  0  0  0  2  0  0  0  0  0  0
  160.7000  205.3550  150.8920 C   0  0  0  0  0  2  0  0  0  0  0  0
  160.5150  203.8480  150.7920 C   0  0  2  0  0  3  0  0  0  0  0  0
  161.1400  203.1510  151.9950 C   0  0  0  0  0  1  0  0  0  0  0  0
  161.0600  203.3340  149.4530 C   0  0  1  0  0  3  0  0  0  0  0  0
  161.5040  201.0190  148.5730 O   0  0  0  0  0  0  0  0  0  0  0  0
  160.6030  201.9570  149.0610 C   0  0  0  0  0  0  0  0  0  0  0  0
  159.3870  201.6530  149.1720 O   0  0  0  0  0  1  0  0  0  0  0  0
  160.9900  204.3520  148.3140 C   0  0  0  0  0  2  0  0  0  0  0  0
  162.1230  204.1960  147.3070 C   0  0  0  0  0  2  0  0  0  0  0  0
  161.9380  206.6740  147.4600 C   0  0  0  0  0  1  0  0  0  0  0  0
  162.3830  205.5110  146.5950 C   0  0  0  0  0  2  0  0  0  0  0  0
  160.5080  209.7840  153.4870 C   0  0  2  0  0  3  0  0  0  0  0  0
  159.6730  211.0100  153.2780 C   0  0  0  0  0  0  0  0  0  0  0  0
  160.0740  212.0230  152.3950 C   0  0  0  0  0  3  0  0  0  0  0  0
  158.4570  211.1320  153.9590 C   0  0  0  0  0  3  0  0  0  0  0  0
  157.2670  214.3950  152.6860 O   0  0  0  0  0  1  0  0  0  0  0  0
  158.0570  213.2700  152.8870 C   0  0  0  0  0  0  0  0  0  0  0  0
  159.2690  213.1480  152.2020 C   0  0  0  0  0  3  0  0  0  0  0  0
  157.6440  212.2610  153.7720 C   0  0  0  0  0  0  0  0  0  0  0  0
  156.3970  212.3930  154.4650 N   0  0  0  0  0  2  0  0  0  0  0  0
  156.0220  211.5830  155.6160 C   0  0  0  0  0  2  0  0  0  0  0  0
  155.2140  210.3820  155.1640 C   0  0  0  0  0  1  0  0  0  0  0  0
  161.6580  210.0760  154.4450 C   0  0  0  0  0  2  0  0  0  0  0  0
  161.5820  209.1910  155.6810 C   0  0  2  0  0  3  0  0  0  0  0  0
  160.3110  208.3670  155.6190 C   0  0  0  0  0  1  0  0  0  0  0  0
  161.0900  211.3200  156.6520 O   0  0  0  0  0  1  0  0  0  0  0  0
  161.5770  210.0460  156.9400 C   0  0  0  0  0  2  0  0  0  0  0  0
  2  1  1  0  0  0  0
  3  2  1  6  0  0  0
  4  6  1  6  0  0  0
  4  3  1  0  0  0  0
  5  4  1  0  0  0  0
  5  3  1  0  0  0  0
  7  6  1  0  0  0  0
  7  8  1  1  0  0  0
  9 13  1  6  0  0  0
  9  7  1  0  0  0  0
 10 11  2  0  0  0  0
 11 12  1  0  0  0  0
 11  9  1  0  0  0  0
 14 13  1  0  0  0  0
 16 14  1  0  0  0  0
 16 15  1  0  0  0  0
 17  1  1  6  0  0  0
 17 28  1  0  0  0  0
 18 17  1  0  0  0  0
 18 20  1  0  0  0  0
 19 18  2  0  0  0  0
 21 22  1  0  0  0  0
 22 24  1  0  0  0  0
 23 19  1  0  0  0  0
 23 22  2  0  0  0  0
 24 20  2  0  0  0  0
 24 25  1  0  0  0  0
 25 26  1  0  0  0  0
 27 26  1  0  0  0  0
 28 29  1  0  0  0  0
 29 30  1  6  0  0  0
 29 32  1  0  0  0  0
 31 32  1  0  0  0  0
M  END
>  <MODEL>
4

>  <REMARK>
 VINA RESULT:      -6.9      2.152      4.432
  Name = 
  16 active torsions:
  status: ('A' for Active; 'I' for Inactive)
    1  A    between atoms: N_1  and  C_4
    2  A    between atoms: N_1  and  C_5
    3  A    between atoms: C_2  and  C_14
    4  A    between atoms: C_3  and  C_15
    5  A    between atoms: C_3  and  C_20
    6  A    between atoms: C_3  and  C_22
    7  A    between atoms: C_5  and  C_14
    8  A    between atoms: C_9  and  N_28
    9  A    between atoms: C_13  and  C_29
   10  A    between atoms: C_13  and  C_30
   11  A    between atoms: C_14  and  C_30
   12  A    between atoms: C_15  and  C_26
   13  A    between atoms: C_16  and  C_20
   14  A    between atoms: C_16  and  C_24
   15  A    between atoms: C_19  and  C_26
   16  A    between atoms: N_28  and  C_32
                            x       y       z     vdW  Elec       q    Type
                         _______ _______ _______ _____ _____    ______ ____

>  <TORSDO>
F 16

$$$$
=
 OpenBabel11062408353D

 32 33  0  0  1  0  0  0  0  0999 V2000
  161.4750  205.9970  152.8430 C   0  0  0  0  0  2  0  0  0  0  0  0
  160.5710  206.8590  153.5860 N   0  0  0  0  0  2  0  0  0  0  0  0
  161.1940  207.1200  154.8770 C   0  0  1  0  0  3  0  0  0  0  0  0
  161.1480  208.6010  155.2700 C   0  0  2  0  0  3  0  0  0  0  0  0
  160.1470  207.6230  155.8480 C   0  0  0  0  0  2  0  0  0  0  0  0
  160.4530  209.5000  154.2500 C   0  0  0  0  0  2  0  0  0  0  0  0
  160.7790  210.9630  154.5110 C   0  0  2  0  0  3  0  0  0  0  0  0
  161.5750  211.1120  155.8030 C   0  0  0  0  0  1  0  0  0  0  0  0
  159.4950  211.8040  154.4980 C   0  0  1  0  0  3  0  0  0  0  0  0
  158.1790  213.4640  153.1430 O   0  0  0  0  0  1  0  0  0  0  0  0
  159.2680  212.6070  153.2500 C   0  0  0  0  0  0  0  0  0  0  0  0
  160.0710  212.4980  152.2870 O   0  0  0  0  0  0  0  0  0  0  0  0
  158.2520  211.0580  154.9850 C   0  0  0  0  0  2  0  0  0  0  0  0
  157.6280  211.6880  156.2240 C   0  0  0  0  0  2  0  0  0  0  0  0
  155.5760  210.5610  155.3780 C   0  0  0  0  0  1  0  0  0  0  0  0
  156.1230  211.7990  156.0600 C   0  0  0  0  0  2  0  0  0  0  0  0
  161.2130  206.1250  151.3450 C   0  0  2  0  0  3  0  0  0  0  0  0
  161.1270  204.7760  150.6980 C   0  0  0  0  0  0  0  0  0  0  0  0
  160.9370  203.6140  151.4610 C   0  0  0  0  0  3  0  0  0  0  0  0
  161.2120  204.6790  149.3060 C   0  0  0  0  0  3  0  0  0  0  0  0
  160.8340  201.0300  148.8350 O   0  0  0  0  0  1  0  0  0  0  0  0
  160.9300  202.2750  149.4440 C   0  0  0  0  0  0  0  0  0  0  0  0
  160.8400  202.3690  150.8350 C   0  0  0  0  0  3  0  0  0  0  0  0
  161.1180  203.4310  148.6700 C   0  0  0  0  0  0  0  0  0  0  0  0
  161.2040  203.3230  147.2440 N   0  0  0  0  0  2  0  0  0  0  0  0
  161.9850  204.2270  146.4100 C   0  0  0  0  0  2  0  0  0  0  0  0
  161.3260  204.3800  145.0530 C   0  0  0  0  0  1  0  0  0  0  0  0
  162.2860  206.9730  150.6720 C   0  0  0  0  0  2  0  0  0  0  0  0
  161.6670  208.0850  149.8380 C   0  0  2  0  0  3  0  0  0  0  0  0
  162.2620  208.0440  148.4440 C   0  0  0  0  0  1  0  0  0  0  0  0
  162.6630  209.2720  151.6590 O   0  0  0  0  0  1  0  0  0  0  0  0
  161.9480  209.4380  150.4740 C   0  0  0  0  0  2  0  0  0  0  0  0
  1  2  1  0  0  0  0
  3  2  1  6  0  0  0
  3  4  1  0  0  0  0
  3  5  1  0  0  0  0
  4  6  1  6  0  0  0
  4  5  1  0  0  0  0
  6  7  1  0  0  0  0
  7  8  1  1  0  0  0
  9  7  1  0  0  0  0
  9 13  1  6  0  0  0
 10 11  1  0  0  0  0
 11  9  1  0  0  0  0
 12 11  2  0  0  0  0
 13 14  1  0  0  0  0
 15 16  1  0  0  0  0
 16 14  1  0  0  0  0
 17 28  1  6  0  0  0
 17  1  1  0  0  0  0
 18 17  1  0  0  0  0
 18 19  1  0  0  0  0
 20 18  2  0  0  0  0
 21 22  1  0  0  0  0
 22 23  1  0  0  0  0
 23 19  2  0  0  0  0
 24 20  1  0  0  0  0
 24 22  2  0  0  0  0
 25 24  1  0  0  0  0
 26 25  1  0  0  0  0
 27 26  1  0  0  0  0
 29 30  1  6  0  0  0
 29 32  1  0  0  0  0
 29 28  1  0  0  0  0
 32 31  1  0  0  0  0
M  END
>  <MODEL>
5

>  <REMARK>
 VINA RESULT:      -6.9      2.356      9.162
  Name = 
  16 active torsions:
  status: ('A' for Active; 'I' for Inactive)
    1  A    between atoms: N_1  and  C_4
    2  A    between atoms: N_1  and  C_5
    3  A    between atoms: C_2  and  C_14
    4  A    between atoms: C_3  and  C_15
    5  A    between atoms: C_3  and  C_20
    6  A    between atoms: C_3  and  C_22
    7  A    between atoms: C_5  and  C_14
    8  A    between atoms: C_9  and  N_28
    9  A    between atoms: C_13  and  C_29
   10  A    between atoms: C_13  and  C_30
   11  A    between atoms: C_14  and  C_30
   12  A    between atoms: C_15  and  C_26
   13  A    between atoms: C_16  and  C_20
   14  A    between atoms: C_16  and  C_24
   15  A    between atoms: C_19  and  C_26
   16  A    between atoms: N_28  and  C_32
                            x       y       z     vdW  Elec       q    Type
                         _______ _______ _______ _____ _____    ______ ____

>  <TORSDO>
F 16

$$$$
=
 OpenBabel11062408353D

 32 33  0  0  1  0  0  0  0  0999 V2000
  161.3760  207.8950  149.6630 C   0  0  0  0  0  2  0  0  0  0  0  0
  161.3130  208.3780  151.0320 N   0  0  0  0  0  2  0  0  0  0  0  0
  161.9120  209.7060  151.0450 C   0  0  1  0  0  3  0  0  0  0  0  0
  161.2090  210.6660  152.0130 C   0  0  2  0  0  3  0  0  0  0  0  0
  162.4980  209.9800  152.4140 C   0  0  0  0  0  2  0  0  0  0  0  0
  160.0410  210.0440  152.7750 C   0  0  0  0  0  2  0  0  0  0  0  0
  159.1230  211.1240  153.3270 C   0  0  2  0  0  3  0  0  0  0  0  0
  159.6220  212.5080  152.9250 C   0  0  0  0  0  1  0  0  0  0  0  0
  158.9670  210.9620  154.8450 C   0  0  1  0  0  3  0  0  0  0  0  0
  157.4340  211.6000  156.7350 O   0  0  0  0  0  1  0  0  0  0  0  0
  157.6080  211.3020  155.3890 C   0  0  0  0  0  0  0  0  0  0  0  0
  156.6160  211.3110  154.6160 O   0  0  0  0  0  0  0  0  0  0  0  0
  159.5430  209.6590  155.4000 C   0  0  0  0  0  2  0  0  0  0  0  0
  160.5230  209.8830  156.5460 C   0  0  0  0  0  2  0  0  0  0  0  0
  162.7990  210.7010  155.9610 C   0  0  0  0  0  1  0  0  0  0  0  0
  161.3750  211.1100  156.2820 C   0  0  0  0  0  2  0  0  0  0  0  0
  161.6170  206.3880  149.6460 C   0  0  2  0  0  3  0  0  0  0  0  0
  161.3790  205.8230  148.2780 C   0  0  0  0  0  0  0  0  0  0  0  0
  161.0390  206.6500  147.1970 C   0  0  0  0  0  3  0  0  0  0  0  0
  161.5240  204.4470  148.0730 C   0  0  0  0  0  3  0  0  0  0  0  0
  160.7810  204.1970  144.4580 O   0  0  0  0  0  1  0  0  0  0  0  0
  160.9820  204.7270  145.7270 C   0  0  0  0  0  0  0  0  0  0  0  0
  160.8410  206.1030  145.9280 C   0  0  0  0  0  3  0  0  0  0  0  0
  161.3250  203.8900  146.8000 C   0  0  0  0  0  0  0  0  0  0  0  0
  161.4720  202.4820  146.5820 N   0  0  0  0  0  2  0  0  0  0  0  0
  160.6160  201.4740  147.1950 C   0  0  0  0  0  2  0  0  0  0  0  0
  161.3970  200.6910  148.2320 C   0  0  0  0  0  1  0  0  0  0  0  0
  160.7430  205.6820  150.6760 C   0  0  0  0  0  2  0  0  0  0  0  0
  161.5820  204.8420  151.6270 C   0  0  2  0  0  3  0  0  0  0  0  0
  161.2940  203.3750  151.3720 C   0  0  0  0  0  1  0  0  0  0  0  0
  161.1430  206.5670  153.2240 O   0  0  0  0  0  1  0  0  0  0  0  0
  161.2430  205.1850  153.0710 C   0  0  0  0  0  2  0  0  0  0  0  0
  1  2  1  0  0  0  0
  3  2  1  1  0  0  0
  3  4  1  0  0  0  0
  3  5  1  0  0  0  0
  4  5  1  0  0  0  0
  4  6  1  1  0  0  0
  6  7  1  0  0  0  0
  7  8  1  1  0  0  0
  7  9  1  0  0  0  0
  9 11  1  0  0  0  0
  9 13  1  6  0  0  0
 11 10  1  0  0  0  0
 12 11  2  0  0  0  0
 13 14  1  0  0  0  0
 15 16  1  0  0  0  0
 16 14  1  0  0  0  0
 17  1  1  6  0  0  0
 17 28  1  0  0  0  0
 18 17  1  0  0  0  0
 19 18  2  0  0  0  0
 20 18  1  0  0  0  0
 21 22  1  0  0  0  0
 22 23  2  0  0  0  0
 22 24  1  0  0  0  0
 23 19  1  0  0  0  0
 24 20  2  0  0  0  0
 25 24  1  0  0  0  0
 25 26  1  0  0  0  0
 26 27  1  0  0  0  0
 28 29  1  0  0  0  0
 29 30  1  1  0  0  0
 29 32  1  0  0  0  0
 32 31  1  0  0  0  0
M  END
>  <MODEL>
6

>  <REMARK>
 VINA RESULT:      -6.7      2.134      9.769
  Name = 
  16 active torsions:
  status: ('A' for Active; 'I' for Inactive)
    1  A    between atoms: N_1  and  C_4
    2  A    between atoms: N_1  and  C_5
    3  A    between atoms: C_2  and  C_14
    4  A    between atoms: C_3  and  C_15
    5  A    between atoms: C_3  and  C_20
    6  A    between atoms: C_3  and  C_22
    7  A    between atoms: C_5  and  C_14
    8  A    between atoms: C_9  and  N_28
    9  A    between atoms: C_13  and  C_29
   10  A    between atoms: C_13  and  C_30
   11  A    between atoms: C_14  and  C_30
   12  A    between atoms: C_15  and  C_26
   13  A    between atoms: C_16  and  C_20
   14  A    between atoms: C_16  and  C_24
   15  A    between atoms: C_19  and  C_26
   16  A    between atoms: N_28  and  C_32
                            x       y       z     vdW  Elec       q    Type
                         _______ _______ _______ _____ _____    ______ ____

>  <TORSDO>
F 16

$$$$
=
 OpenBabel11062408353D

 32 33  0  0  1  0  0  0  0  0999 V2000
  162.0690  206.8730  151.2100 C   0  0  0  0  0  2  0  0  0  0  0  0
  161.6560  207.8840  152.1710 N   0  0  0  0  0  2  0  0  0  0  0  0
  162.1570  209.1630  151.6860 C   0  0  1  0  0  3  0  0  0  0  0  0
  161.2130  210.3300  152.0030 C   0  0  2  0  0  3  0  0  0  0  0  0
  162.4330  210.0740  152.8630 C   0  0  0  0  0  2  0  0  0  0  0  0
  159.9550  209.9280  152.7680 C   0  0  0  0  0  2  0  0  0  0  0  0
  159.0700  211.1390  153.0220 C   0  0  2  0  0  3  0  0  0  0  0  0
  159.6650  212.3830  152.3730 C   0  0  0  0  0  1  0  0  0  0  0  0
  158.8210  211.3090  154.5270 C   0  0  1  0  0  3  0  0  0  0  0  0
  157.1660  213.1060  155.1260 O   0  0  0  0  0  1  0  0  0  0  0  0
  157.4390  211.7620  154.9010 C   0  0  0  0  0  0  0  0  0  0  0  0
  156.5190  210.9130  155.0180 O   0  0  0  0  0  0  0  0  0  0  0  0
  159.3430  210.1550  155.3830 C   0  0  0  0  0  2  0  0  0  0  0  0
  160.3200  210.6100  156.4620 C   0  0  0  0  0  2  0  0  0  0  0  0
  161.5250  208.4600  156.1130 C   0  0  0  0  0  1  0  0  0  0  0  0
  161.6760  209.9620  156.2550 C   0  0  0  0  0  2  0  0  0  0  0  0
  160.8470  206.2650  150.5280 C   0  0  2  0  0  3  0  0  0  0  0  0
  160.9360  204.7690  150.5030 C   0  0  0  0  0  0  0  0  0  0  0  0
  161.2250  204.0380  151.6640 C   0  0  0  0  0  3  0  0  0  0  0  0
  160.6990  204.0910  149.3030 C   0  0  0  0  0  3  0  0  0  0  0  0
  161.1140  200.5810  150.3900 O   0  0  0  0  0  1  0  0  0  0  0  0
  161.0520  201.9680  150.4180 C   0  0  0  0  0  0  0  0  0  0  0  0
  161.2840  202.6430  151.6200 C   0  0  0  0  0  3  0  0  0  0  0  0
  160.7580  202.6900  149.2500 C   0  0  0  0  0  0  0  0  0  0  0  0
  160.5170  201.9880  148.0260 N   0  0  0  0  0  2  0  0  0  0  0  0
  160.8690  202.5100  146.7110 C   0  0  0  0  0  2  0  0  0  0  0  0
  160.4580  201.5250  145.6350 C   0  0  0  0  0  1  0  0  0  0  0  0
  160.6780  206.8150  149.1160 C   0  0  0  0  0  2  0  0  0  0  0  0
  162.0120  207.2620  148.5360 C   0  0  2  0  0  3  0  0  0  0  0  0
  161.9620  208.7560  148.2800 C   0  0  0  0  0  1  0  0  0  0  0  0
  161.0920  206.2600  146.5690 O   0  0  0  0  0  1  0  0  0  0  0  0
  162.2890  206.5290  147.2310 C   0  0  0  0  0  2  0  0  0  0  0  0
  1  2  1  0  0  0  0
  3  4  1  0  0  0  0
  3  2  1  1  0  0  0
  3  5  1  0  0  0  0
  4  6  1  1  0  0  0
  4  5  1  0  0  0  0
  6  7  1  0  0  0  0
  7  8  1  1  0  0  0
  7  9  1  0  0  0  0
  9 11  1  0  0  0  0
  9 13  1  1  0  0  0
 11 12  2  0  0  0  0
 11 10  1  0  0  0  0
 13 14  1  0  0  0  0
 15 16  1  0  0  0  0
 16 14  1  0  0  0  0
 17 28  1  6  0  0  0
 17  1  1  0  0  0  0
 18 17  1  0  0  0  0
 18 19  1  0  0  0  0
 20 18  2  0  0  0  0
 21 22  1  0  0  0  0
 22 23  1  0  0  0  0
 23 19  2  0  0  0  0
 24 20  1  0  0  0  0
 24 22  2  0  0  0  0
 25 24  1  0  0  0  0
 26 25  1  0  0  0  0
 27 26  1  0  0  0  0
 29 30  1  6  0  0  0
 29 28  1  0  0  0  0
 31 32  1  0  0  0  0
 32 29  1  0  0  0  0
M  END
>  <MODEL>
7

>  <REMARK>
 VINA RESULT:      -6.7      2.111      9.177
  Name = 
  16 active torsions:
  status: ('A' for Active; 'I' for Inactive)
    1  A    between atoms: N_1  and  C_4
    2  A    between atoms: N_1  and  C_5
    3  A    between atoms: C_2  and  C_14
    4  A    between atoms: C_3  and  C_15
    5  A    between atoms: C_3  and  C_20
    6  A    between atoms: C_3  and  C_22
    7  A    between atoms: C_5  and  C_14
    8  A    between atoms: C_9  and  N_28
    9  A    between atoms: C_13  and  C_29
   10  A    between atoms: C_13  and  C_30
   11  A    between atoms: C_14  and  C_30
   12  A    between atoms: C_15  and  C_26
   13  A    between atoms: C_16  and  C_20
   14  A    between atoms: C_16  and  C_24
   15  A    between atoms: C_19  and  C_26
   16  A    between atoms: N_28  and  C_32
                            x       y       z     vdW  Elec       q    Type
                         _______ _______ _______ _____ _____    ______ ____

>  <TORSDO>
F 16

$$$$
=
 OpenBabel11062408353D

 32 33  0  0  1  0  0  0  0  0999 V2000
  161.1920  209.2320  152.3030 C   0  0  0  0  0  2  0  0  0  0  0  0
  160.8610  207.8530  151.9820 N   0  0  0  0  0  2  0  0  0  0  0  0
  161.9780  207.0310  152.4300 C   0  0  1  0  0  3  0  0  0  0  0  0
  161.8980  205.5890  151.9140 C   0  0  2  0  0  3  0  0  0  0  0  0
  162.7960  206.5990  151.2310 C   0  0  0  0  0  2  0  0  0  0  0  0
  160.6850  205.3040  151.0310 C   0  0  0  0  0  2  0  0  0  0  0  0
  160.4970  203.8070  150.8410 C   0  0  2  0  0  3  0  0  0  0  0  0
  161.1080  203.0380  152.0070 C   0  0  0  0  0  1  0  0  0  0  0  0
  161.0550  203.3710  149.4790 C   0  0  1  0  0  3  0  0  0  0  0  0
  161.2120  200.8870  149.8420 O   0  0  0  0  0  1  0  0  0  0  0  0
  160.7470  201.9540  149.0840 C   0  0  0  0  0  0  0  0  0  0  0  0
  160.0640  201.7340  148.0510 O   0  0  0  0  0  0  0  0  0  0  0  0
  160.8310  204.3850  148.3560 C   0  0  0  0  0  2  0  0  0  0  0  0
  162.0540  204.5600  147.4620 C   0  0  0  0  0  2  0  0  0  0  0  0
  161.4410  206.9500  147.7860 C   0  0  0  0  0  1  0  0  0  0  0  0
  162.0590  205.9420  146.8370 C   0  0  0  0  0  2  0  0  0  0  0  0
  160.4940  209.6550  153.5920 C   0  0  2  0  0  3  0  0  0  0  0  0
  159.6850  210.8990  153.3800 C   0  0  0  0  0  0  0  0  0  0  0  0
  158.5650  211.1830  154.1750 C   0  0  0  0  0  3  0  0  0  0  0  0
  160.0730  211.8050  152.3870 C   0  0  0  0  0  3  0  0  0  0  0  0
  157.4910  214.4240  152.7840 O   0  0  0  0  0  1  0  0  0  0  0  0
  158.2250  213.2590  152.9750 C   0  0  0  0  0  0  0  0  0  0  0  0
  157.8380  212.3590  153.9710 C   0  0  0  0  0  3  0  0  0  0  0  0
  159.3460  212.9870  152.1750 C   0  0  0  0  0  0  0  0  0  0  0  0
  159.7360  213.9190  151.1610 N   0  0  0  0  0  2  0  0  0  0  0  0
  159.4830  213.7210  149.7390 C   0  0  0  0  0  2  0  0  0  0  0  0
  160.7850  213.4390  149.0150 C   0  0  0  0  0  1  0  0  0  0  0  0
  161.5000  209.8570  154.7190 C   0  0  0  0  0  2  0  0  0  0  0  0
  161.3500  208.7860  155.7900 C   0  0  2  0  0  3  0  0  0  0  0  0
  160.0940  207.9840  155.5100 C   0  0  0  0  0  1  0  0  0  0  0  0
  160.7630  210.7320  157.0520 O   0  0  0  0  0  1  0  0  0  0  0  0
  161.2490  209.4300  157.1660 C   0  0  0  0  0  2  0  0  0  0  0  0
  2  1  1  0  0  0  0
  3  2  1  6  0  0  0
  4  6  1  6  0  0  0
  4  3  1  0  0  0  0
  5  4  1  0  0  0  0
  5  3  1  0  0  0  0
  7  6  1  0  0  0  0
  7  8  1  1  0  0  0
  9 13  1  6  0  0  0
  9  7  1  0  0  0  0
 11  9  1  0  0  0  0
 11 10  1  0  0  0  0
 12 11  2  0  0  0  0
 14 13  1  0  0  0  0
 16 14  1  0  0  0  0
 16 15  1  0  0  0  0
 17  1  1  6  0  0  0
 17 28  1  0  0  0  0
 18 17  1  0  0  0  0
 18 19  1  0  0  0  0
 20 18  2  0  0  0  0
 21 22  1  0  0  0  0
 22 23  1  0  0  0  0
 23 19  2  0  0  0  0
 24 20  1  0  0  0  0
 24 22  2  0  0  0  0
 25 24  1  0  0  0  0
 26 25  1  0  0  0  0
 27 26  1  0  0  0  0
 28 29  1  0  0  0  0
 29 30  1  6  0  0  0
 29 32  1  0  0  0  0
 31 32  1  0  0  0  0
M  END
>  <MODEL>
8

>  <REMARK>
 VINA RESULT:      -6.5      2.068      4.345
  Name = 
  16 active torsions:
  status: ('A' for Active; 'I' for Inactive)
    1  A    between atoms: N_1  and  C_4
    2  A    between atoms: N_1  and  C_5
    3  A    between atoms: C_2  and  C_14
    4  A    between atoms: C_3  and  C_15
    5  A    between atoms: C_3  and  C_20
    6  A    between atoms: C_3  and  C_22
    7  A    between atoms: C_5  and  C_14
    8  A    between atoms: C_9  and  N_28
    9  A    between atoms: C_13  and  C_29
   10  A    between atoms: C_13  and  C_30
   11  A    between atoms: C_14  and  C_30
   12  A    between atoms: C_15  and  C_26
   13  A    between atoms: C_16  and  C_20
   14  A    between atoms: C_16  and  C_24
   15  A    between atoms: C_19  and  C_26
   16  A    between atoms: N_28  and  C_32
                            x       y       z     vdW  Elec       q    Type
                         _______ _______ _______ _____ _____    ______ ____

>  <TORSDO>
F 16

$$$$
=
 OpenBabel11062408353D

 32 33  0  0  1  0  0  0  0  0999 V2000
  161.3720  209.4630  152.4830 C   0  0  0  0  0  2  0  0  0  0  0  0
  160.8580  208.4440  151.5820 N   0  0  0  0  0  2  0  0  0  0  0  0
  161.1560  207.1510  152.1840 C   0  0  1  0  0  3  0  0  0  0  0  0
  161.0090  205.9880  151.1960 C   0  0  2  0  0  3  0  0  0  0  0  0
  162.3760  206.5550  151.5150 C   0  0  0  0  0  2  0  0  0  0  0  0
  160.5970  206.4090  149.7870 C   0  0  0  0  0  2  0  0  0  0  0  0
  161.6960  206.0870  148.7860 C   0  0  2  0  0  3  0  0  0  0  0  0
  162.2310  207.3650  148.1490 C   0  0  0  0  0  1  0  0  0  0  0  0
  161.1930  205.0690  147.7540 C   0  0  1  0  0  3  0  0  0  0  0  0
  162.5390  205.1250  145.6300 O   0  0  0  0  0  0  0  0  0  0  0  0
  161.3810  205.4660  146.3180 C   0  0  0  0  0  0  0  0  0  0  0  0
  160.4790  206.1210  145.7330 O   0  0  0  0  0  1  0  0  0  0  0  0
  161.5970  203.6240  148.0500 C   0  0  0  0  0  2  0  0  0  0  0  0
  160.8170  203.0150  149.2100 C   0  0  0  0  0  2  0  0  0  0  0  0
  161.2320  201.0530  147.7350 C   0  0  0  0  0  1  0  0  0  0  0  0
  160.8520  201.4990  149.1320 C   0  0  0  0  0  2  0  0  0  0  0  0
  160.4260  209.6430  153.6680 C   0  0  2  0  0  3  0  0  0  0  0  0
  159.5760  210.8640  153.4940 C   0  0  0  0  0  0  0  0  0  0  0  0
  159.8500  211.8050  152.4900 C   0  0  0  0  0  3  0  0  0  0  0  0
  158.4730  211.0540  154.3330 C   0  0  0  0  0  3  0  0  0  0  0  0
  157.1290  214.2370  153.0110 O   0  0  0  0  0  1  0  0  0  0  0  0
  157.9330  213.1160  153.1770 C   0  0  0  0  0  0  0  0  0  0  0  0
  159.0320  212.9260  152.3340 C   0  0  0  0  0  3  0  0  0  0  0  0
  157.6480  212.1800  154.1840 C   0  0  0  0  0  0  0  0  0  0  0  0
  156.5170  212.3810  155.0390 N   0  0  0  0  0  2  0  0  0  0  0  0
  156.6080  212.9370  156.3830 C   0  0  0  0  0  2  0  0  0  0  0  0
  155.8070  214.2220  156.4680 C   0  0  0  0  0  1  0  0  0  0  0  0
  161.2000  209.7120  154.9800 C   0  0  0  0  0  2  0  0  0  0  0  0
  161.2540  208.3510  155.6590 C   0  0  2  0  0  3  0  0  0  0  0  0
  159.8560  207.7650  155.6970 C   0  0  0  0  0  1  0  0  0  0  0  0
  162.4260  209.7230  157.2290 O   0  0  0  0  0  1  0  0  0  0  0  0
  161.7870  208.4940  157.0780 C   0  0  0  0  0  2  0  0  0  0  0  0
  2  1  1  0  0  0  0
  3  2  1  6  0  0  0
  4  6  1  6  0  0  0
  4  5  1  0  0  0  0
  4  3  1  0  0  0  0
  5  3  1  0  0  0  0
  7  8  1  6  0  0  0
  7  6  1  0  0  0  0
  9 13  1  6  0  0  0
  9  7  1  0  0  0  0
 10 11  2  0  0  0  0
 11  9  1  0  0  0  0
 12 11  1  0  0  0  0
 13 14  1  0  0  0  0
 15 16  1  0  0  0  0
 16 14  1  0  0  0  0
 17  1  1  6  0  0  0
 17 28  1  0  0  0  0
 18 17  1  0  0  0  0
 18 20  1  0  0  0  0
 19 18  2  0  0  0  0
 21 22  1  0  0  0  0
 22 24  1  0  0  0  0
 23 19  1  0  0  0  0
 23 22  2  0  0  0  0
 24 20  2  0  0  0  0
 24 25  1  0  0  0  0
 25 26  1  0  0  0  0
 26 27  1  0  0  0  0
 28 29  1  0  0  0  0
 29 30  1  1  0  0  0
 29 32  1  0  0  0  0
 32 31  1  0  0  0  0
M  END
>  <MODEL>
9

>  <REMARK>
 VINA RESULT:      -6.5      2.281      4.842
  Name = 
  16 active torsions:
  status: ('A' for Active; 'I' for Inactive)
    1  A    between atoms: N_1  and  C_4
    2  A    between atoms: N_1  and  C_5
    3  A    between atoms: C_2  and  C_14
    4  A    between atoms: C_3  and  C_15
    5  A    between atoms: C_3  and  C_20
    6  A    between atoms: C_3  and  C_22
    7  A    between atoms: C_5  and  C_14
    8  A    between atoms: C_9  and  N_28
    9  A    between atoms: C_13  and  C_29
   10  A    between atoms: C_13  and  C_30
   11  A    between atoms: C_14  and  C_30
   12  A    between atoms: C_15  and  C_26
   13  A    between atoms: C_16  and  C_20
   14  A    between atoms: C_16  and  C_24
   15  A    between atoms: C_19  and  C_26
   16  A    between atoms: N_28  and  C_32
                            x       y       z     vdW  Elec       q    Type
                         _______ _______ _______ _____ _____    ______ ____

>  <TORSDO>
F 16

$$$$
