=
 OpenBabel11062409473D

 34 40  0  0  1  0  0  0  0  0999 V2000
  159.4780  214.4360  147.0610 C   0  0  1  0  0  3  0  0  0  0  0  0
  158.3920  214.1490  150.6450 C   0  0  0  0  0  3  0  0  0  0  0  0
  163.0590  213.9840  143.2120 C   0  0  0  0  0  2  0  0  0  0  0  0
  157.0030  214.4510  148.6730 C   0  0  0  0  0  2  0  0  0  0  0  0
  160.9420  211.8810  142.7550 C   0  0  0  0  0  2  0  0  0  0  0  0
  163.0860  213.6250  139.4380 C   0  0  0  0  0  0  0  0  0  0  0  0
  160.2260  213.0380  145.0030 C   0  0  2  0  0  0  0  0  0  0  0  0
  160.6190  214.0720  146.0810 C   0  0  0  0  0  2  0  0  0  0  0  0
  157.8500  213.5650  145.2240 C   0  0  0  0  0  0  0  0  0  0  0  0
  156.3830  213.3340  145.1160 C   0  0  0  0  0  3  0  0  0  0  0  0
  163.4030  214.0180  140.7440 C   0  0  0  0  0  3  0  0  0  0  0  0
  162.7270  213.4710  141.8390 C   0  0  0  0  0  0  0  0  0  0  0  0
  158.8010  212.9720  144.5140 C   0  0  0  0  0  2  0  0  0  0  0  0
  160.8020  211.6580  145.2860 C   0  0  0  0  0  2  0  0  0  0  0  0
  157.0090  214.2180  147.1880 C   0  0  0  0  0  0  0  0  0  0  0  0
  158.1190  214.2110  146.4820 C   0  0  1  0  0  3  0  0  0  0  0  0
  155.8980  213.7210  146.4440 N   0  0  0  0  0  0  0  0  0  0  0  0
  159.6530  213.9680  151.4210 C   0  0  0  0  0  2  0  0  0  0  0  0
  160.2290  212.6030  151.2200 C   0  0  0  0  0  0  0  0  0  0  0  0
  161.3790  212.1400  140.3180 C   0  0  0  0  0  3  0  0  0  0  0  0
  160.6620  212.2080  150.0190 C   0  0  0  0  0  3  0  0  0  0  0  0
  161.6900  212.5310  141.6220 C   0  0  0  0  0  0  0  0  0  0  0  0
  162.0700  212.6830  139.2320 C   0  0  0  0  0  3  0  0  0  0  0  0
  161.3220  212.4670  144.1130 C   0  0  1  0  0  0  0  0  0  0  0  0
  162.7500  212.9580  144.2960 C   0  0  0  0  0  2  0  0  0  0  0  0
  158.3320  214.0970  149.3130 C   0  0  0  0  0  0  0  0  0  0  0  0
  160.5070  212.9600  148.7580 C   0  0  0  0  0  3  0  0  0  0  0  0
  159.5280  213.8260  148.4440 C   0  0  0  0  0  0  0  0  0  0  0  0
  160.4140  211.7300  152.3920 C   0  0  0  0  0  0  0  0  0  0  0  0
  160.8810  210.4320  152.2250 O   0  0  0  0  0  0  0  0  0  0  0  0
  160.1570  212.1480  153.5530 O   0  0  0  0  0  1  0  0  0  0  0  0
  163.7910  214.1840  138.3230 N   0  0  0  0  0  0  0  0  0  0  0  0
  165.1150  214.4520  138.4130 O   0  0  0  0  0  0  0  0  0  0  0  0
  163.1410  214.4530  137.1650 O   0  0  0  0  0  0  0  0  0  0  0  0
  1  8  1  6  0  0  0
  1 28  1  0  0  0  0
  2 18  1  0  0  0  0
  3 25  1  0  0  0  0
  4 26  1  0  0  0  0
  6 11  1  0  0  0  0
  7 13  1  6  0  0  0
  7 14  1  0  0  0  0
  7  8  1  0  0  0  0
 10  9  2  0  0  0  0
 10 17  1  0  0  0  0
 11 12  2  0  0  0  0
 12  3  1  0  0  0  0
 13  9  1  0  0  0  0
 15  4  1  0  0  0  0
 16  9  1  1  0  0  0
 16  1  1  0  0  0  0
 16 15  1  0  0  0  0
 17 15  2  0  0  0  0
 19 18  1  0  0  0  0
 19 29  1  0  0  0  0
 20 22  2  0  0  0  0
 21 19  2  0  0  0  0
 22 12  1  0  0  0  0
 22  5  1  0  0  0  0
 23  6  2  0  0  0  0
 23 20  1  0  0  0  0
 24  5  1  6  0  0  0
 24 25  1  0  0  0  0
 24  7  1  0  0  0  0
 24 14  1  0  0  0  0
 26  2  2  0  0  0  0
 27 21  1  0  0  0  0
 28 27  2  0  0  0  0
 28 26  1  0  0  0  0
 29 31  1  0  0  0  0
 30 29  2  0  0  0  0
 32 33  2  0  0  0  0
 32  6  1  0  0  0  0
 34 32  2  0  0  0  0
M  END
>  <MODEL>
1

>  <REMARK>
 VINA RESULT:      -2.8      0.000      0.000
  Name = 
  2 active torsions:
  status: ('A' for Active; 'I' for Inactive)
    1  A    between atoms: C_3  and  C_25
    2  A    between atoms: C_7  and  N_11
                            x       y       z     vdW  Elec       q    Type
                         _______ _______ _______ _____ _____    ______ ____

>  <TORSDO>
F 2

$$$$
=
 OpenBabel11062409473D

 34 40  0  0  1  0  0  0  0  0999 V2000
  162.3520  206.2820  151.0580 C   0  0  1  0  0  3  0  0  0  0  0  0
  162.1190  208.9460  153.6940 C   0  0  0  0  0  3  0  0  0  0  0  0
  161.8520  201.3010  149.3890 C   0  0  0  0  0  2  0  0  0  0  0  0
  162.3830  209.2260  151.2940 C   0  0  0  0  0  2  0  0  0  0  0  0
  159.7340  202.9530  148.0110 C   0  0  0  0  0  2  0  0  0  0  0  0
  161.4320  199.4800  146.0900 C   0  0  0  0  0  0  0  0  0  0  0  0
  160.9240  204.6490  149.6280 C   0  0  2  0  0  0  0  0  0  0  0  0
  161.9770  204.8130  150.7450 C   0  0  0  0  0  2  0  0  0  0  0  0
  161.4450  206.8410  148.6810 C   0  0  0  0  0  0  0  0  0  0  0  0
  161.2060  208.0800  147.8900 C   0  0  0  0  0  3  0  0  0  0  0  0
  161.8470  199.8230  147.3830 C   0  0  0  0  0  3  0  0  0  0  0  0
  161.3160  200.9410  148.0320 C   0  0  0  0  0  0  0  0  0  0  0  0
  160.8440  205.6690  148.5190 C   0  0  0  0  0  2  0  0  0  0  0  0
  159.5510  204.2830  150.1730 C   0  0  0  0  0  2  0  0  0  0  0  0
  162.1260  208.5140  149.9960 C   0  0  0  0  0  0  0  0  0  0  0  0
  162.1120  207.2020  149.9040 C   0  0  1  0  0  3  0  0  0  0  0  0
  161.6120  209.1380  148.8200 N   0  0  0  0  0  0  0  0  0  0  0  0
  161.9560  208.2080  154.9800 C   0  0  0  0  0  2  0  0  0  0  0  0
  160.5900  207.6120  155.1000 C   0  0  0  0  0  0  0  0  0  0  0  0
  159.9550  201.4070  146.0740 C   0  0  0  0  0  3  0  0  0  0  0  0
  160.1770  206.6610  154.2570 C   0  0  0  0  0  3  0  0  0  0  0  0
  160.3680  201.7530  147.3620 C   0  0  0  0  0  0  0  0  0  0  0  0
  160.4830  200.2790  145.4400 C   0  0  0  0  0  3  0  0  0  0  0  0
  160.3430  203.2640  149.3770 C   0  0  1  0  0  0  0  0  0  0  0  0
  160.8430  202.0940  150.2100 C   0  0  0  0  0  2  0  0  0  0  0  0
  162.0450  208.3640  152.4960 C   0  0  0  0  0  0  0  0  0  0  0  0
  160.9080  206.1920  153.0630 C   0  0  0  0  0  3  0  0  0  0  0  0
  161.7650  206.8990  152.3060 C   0  0  0  0  0  0  0  0  0  0  0  0
  159.7370  208.0110  156.2330 C   0  0  0  0  0  0  0  0  0  0  0  0
  159.0120  209.1950  156.1740 O   0  0  0  0  0  0  0  0  0  0  0  0
  159.6510  207.2850  157.2600 O   0  0  0  0  0  1  0  0  0  0  0  0
  161.9760  198.3270  145.4370 N   0  0  0  0  0  0  0  0  0  0  0  0
  161.2060  197.5780  144.6130 O   0  0  0  0  0  0  0  0  0  0  0  0
  163.2680  197.9710  145.6360 O   0  0  0  0  0  0  0  0  0  0  0  0
  1  8  1  6  0  0  0
  1 28  1  0  0  0  0
  2 18  1  0  0  0  0
  3 25  1  0  0  0  0
  4 26  1  0  0  0  0
  6 11  1  0  0  0  0
  7 13  1  6  0  0  0
  7 14  1  0  0  0  0
  7  8  1  0  0  0  0
 10  9  2  0  0  0  0
 10 17  1  0  0  0  0
 11 12  2  0  0  0  0
 12  3  1  0  0  0  0
 13  9  1  0  0  0  0
 15  4  1  0  0  0  0
 16  9  1  1  0  0  0
 16 15  1  0  0  0  0
 16  1  1  0  0  0  0
 17 15  2  0  0  0  0
 18 19  1  0  0  0  0
 19 29  1  0  0  0  0
 20 22  2  0  0  0  0
 21 19  2  0  0  0  0
 22  5  1  0  0  0  0
 22 12  1  0  0  0  0
 23 20  1  0  0  0  0
 23  6  2  0  0  0  0
 24  5  1  6  0  0  0
 24  7  1  0  0  0  0
 24 14  1  0  0  0  0
 24 25  1  0  0  0  0
 26  2  2  0  0  0  0
 27 21  1  0  0  0  0
 28 26  1  0  0  0  0
 28 27  2  0  0  0  0
 29 31  1  0  0  0  0
 30 29  2  0  0  0  0
 32 34  2  0  0  0  0
 32  6  1  0  0  0  0
 33 32  2  0  0  0  0
M  END
>  <MODEL>
2

>  <REMARK>
 VINA RESULT:      -1.2      8.572     10.930
  Name = 
  2 active torsions:
  status: ('A' for Active; 'I' for Inactive)
    1  A    between atoms: C_3  and  C_25
    2  A    between atoms: C_7  and  N_11
                            x       y       z     vdW  Elec       q    Type
                         _______ _______ _______ _____ _____    ______ ____

>  <TORSDO>
F 2

$$$$
=
 OpenBabel11062409473D

 34 40  0  0  1  0  0  0  0  0999 V2000
  158.4600  211.0710  152.2710 C   0  0  1  0  0  3  0  0  0  0  0  0
  156.7070  210.8640  155.5850 C   0  0  0  0  0  3  0  0  0  0  0  0
  159.0760  213.0670  147.4250 C   0  0  0  0  0  2  0  0  0  0  0  0
  158.8730  209.9470  154.9710 C   0  0  0  0  0  2  0  0  0  0  0  0
  161.4170  213.9750  149.1010 C   0  0  0  0  0  2  0  0  0  0  0  0
  161.8410  213.3660  144.8480 C   0  0  0  0  0  0  0  0  0  0  0  0
  159.9010  212.6390  150.7810 C   0  0  2  0  0  0  0  0  0  0  0  0
  158.5550  211.9050  150.9700 C   0  0  0  0  0  2  0  0  0  0  0  0
  161.0650  211.0920  152.2730 C   0  0  0  0  0  0  0  0  0  0  0  0
  162.1390  210.6300  153.1960 C   0  0  0  0  0  2  0  0  0  0  0  0
  160.5910  213.1710  145.4490 C   0  0  0  0  0  3  0  0  0  0  0  0
  160.4220  213.3610  146.8240 C   0  0  0  0  0  0  0  0  0  0  0  0
  161.1630  212.0460  151.3560 C   0  0  0  0  0  2  0  0  0  0  0  0
  159.7900  214.1320  151.0520 C   0  0  0  0  0  2  0  0  0  0  0  0
  159.9930  210.1450  153.9900 C   0  0  0  0  0  0  0  0  0  0  0  0
  159.7970  210.6490  152.7900 C   0  0  0  0  0  0  0  0  0  0  0  0
  161.3800  210.0770  154.3210 N   0  0  0  0  0  0  0  0  0  0  0  0
  155.4260  211.6040  155.3950 C   0  0  0  0  0  2  0  0  0  0  0  0
  155.6520  213.0800  155.3190 C   0  0  0  0  0  0  0  0  0  0  0  0
  162.7780  213.9220  147.0180 C   0  0  0  0  0  3  0  0  0  0  0  0
  156.3570  213.6190  154.3200 C   0  0  0  0  0  3  0  0  0  0  0  0
  161.5330  213.7250  147.6220 C   0  0  0  0  0  0  0  0  0  0  0  0
  162.9330  213.7420  145.6410 C   0  0  0  0  0  3  0  0  0  0  0  0
  160.0270  213.6370  149.6380 C   0  0  1  0  0  0  0  0  0  0  0  0
  158.8400  213.8490  148.7110 C   0  0  0  0  0  2  0  0  0  0  0  0
  157.7020  210.8720  154.6960 C   0  0  0  0  0  0  0  0  0  0  0  0
  157.0990  212.8680  153.2870 C   0  0  0  0  0  3  0  0  0  0  0  0
  157.6520  211.6490  153.4100 C   0  0  0  0  0  0  0  0  0  0  0  0
  154.9940  213.9530  156.3070 C   0  0  0  0  0  0  0  0  0  0  0  0
  153.6370  214.2290  156.1970 O   0  0  0  0  0  0  0  0  0  0  0  0
  155.6490  214.4530  157.2610 O   0  0  0  0  0  1  0  0  0  0  0  0
  162.0020  213.1780  143.4370 N   0  0  0  0  0  0  0  0  0  0  0  0
  161.3280  212.1950  142.7940 O   0  0  0  0  0  0  0  0  0  0  0  0
  162.8320  213.9810  142.7280 O   0  0  0  0  0  0  0  0  0  0  0  0
  1  8  1  6  0  0  0
  1 16  1  0  0  0  0
  1 28  1  0  0  0  0
  3 25  1  0  0  0  0
  5 24  1  0  0  0  0
  6 11  2  0  0  0  0
  6 23  1  0  0  0  0
  7  8  1  1  0  0  0
  7 14  1  0  0  0  0
  7 13  1  0  0  0  0
  9 16  2  0  0  0  0
  9 10  1  0  0  0  0
 10 17  1  0  0  0  0
 11 12  1  0  0  0  0
 12  3  1  0  0  0  0
 12 22  2  0  0  0  0
 13  9  1  0  0  0  0
 15 17  2  0  0  0  0
 15  4  1  0  0  0  0
 16 15  1  0  0  0  0
 18  2  1  0  0  0  0
 19 18  1  0  0  0  0
 19 29  1  0  0  0  0
 20 22  1  0  0  0  0
 21 19  2  0  0  0  0
 22  5  1  0  0  0  0
 23 20  2  0  0  0  0
 24 25  1  6  0  0  0
 24  7  1  0  0  0  0
 24 14  1  0  0  0  0
 26  4  1  0  0  0  0
 26  2  2  0  0  0  0
 27 28  2  0  0  0  0
 27 21  1  0  0  0  0
 28 26  1  0  0  0  0
 29 31  1  0  0  0  0
 30 29  2  0  0  0  0
 32  6  1  0  0  0  0
 33 32  2  0  0  0  0
 34 32  2  0  0  0  0
M  END
>  <MODEL>
3

>  <REMARK>
 VINA RESULT:      -1.2      3.942      6.794
  Name = 
  2 active torsions:
  status: ('A' for Active; 'I' for Inactive)
    1  A    between atoms: C_3  and  C_25
    2  A    between atoms: C_7  and  N_11
                            x       y       z     vdW  Elec       q    Type
                         _______ _______ _______ _____ _____    ______ ____

>  <TORSDO>
F 2

$$$$
=
 OpenBabel11062409473D

 34 40  0  0  1  0  0  0  0  0999 V2000
  160.3970  206.3730  149.5270 C   0  0  1  0  0  3  0  0  0  0  0  0
  160.8570  203.4550  147.2090 C   0  0  0  0  0  3  0  0  0  0  0  0
  159.1520  208.4770  154.2030 C   0  0  0  0  0  2  0  0  0  0  0  0
  161.6150  205.7440  146.9100 C   0  0  0  0  0  2  0  0  0  0  0  0
  162.1200  208.8420  153.7880 C   0  0  0  0  0  2  0  0  0  0  0  0
  159.8420  211.6830  156.1060 C   0  0  0  0  0  0  0  0  0  0  0  0
  161.3380  207.4770  151.6830 C   0  0  2  0  0  0  0  0  0  0  0  0
  160.1530  206.7520  151.0080 C   0  0  0  0  0  2  0  0  0  0  0  0
  162.2340  208.2210  149.5340 C   0  0  0  0  0  0  0  0  0  0  0  0
  163.2680  208.7070  148.5790 C   0  0  0  0  0  3  0  0  0  0  0  0
  159.1990  210.5610  155.5690 C   0  0  0  0  0  3  0  0  0  0  0  0
  159.9090  209.6230  154.8140 C   0  0  0  0  0  0  0  0  0  0  0  0
  162.2550  208.3420  150.8560 C   0  0  0  0  0  2  0  0  0  0  0  0
  162.1050  206.5730  152.6360 C   0  0  0  0  0  2  0  0  0  0  0  0
  161.9650  206.9760  147.6990 C   0  0  0  0  0  0  0  0  0  0  0  0
  161.4160  207.2440  148.8640 C   0  0  1  0  0  3  0  0  0  0  0  0
  163.0820  207.8200  147.4260 N   0  0  0  0  0  0  0  0  0  0  0  0
  160.2030  202.3040  147.8970 C   0  0  0  0  0  2  0  0  0  0  0  0
  161.0110  201.8320  149.0630 C   0  0  0  0  0  0  0  0  0  0  0  0
  161.9270  210.9440  155.1050 C   0  0  0  0  0  3  0  0  0  0  0  0
  161.2190  202.6200  150.1210 C   0  0  0  0  0  3  0  0  0  0  0  0
  161.2880  209.8250  154.5660 C   0  0  0  0  0  0  0  0  0  0  0  0
  161.2100  211.8690  155.8690 C   0  0  0  0  0  3  0  0  0  0  0  0
  161.2770  207.7190  153.1850 C   0  0  1  0  0  0  0  0  0  0  0  0
  160.0460  207.2690  153.9550 C   0  0  0  0  0  2  0  0  0  0  0  0
  161.0790  204.6340  147.7930 C   0  0  0  0  0  0  0  0  0  0  0  0
  160.8310  204.0410  150.2260 C   0  0  0  0  0  3  0  0  0  0  0  0
  160.7150  204.9270  149.2220 C   0  0  0  0  0  0  0  0  0  0  0  0
  161.4900  200.4390  149.0790 C   0  0  0  0  0  0  0  0  0  0  0  0
  161.8580  199.8150  147.8930 O   0  0  0  0  0  0  0  0  0  0  0  0
  161.5760  199.8020  150.1630 O   0  0  0  0  0  1  0  0  0  0  0  0
  159.1070  212.6340  156.8850 N   0  0  0  0  0  0  0  0  0  0  0  0
  157.8310  212.3770  157.2580 O   0  0  0  0  0  0  0  0  0  0  0  0
  159.6790  213.8040  157.2590 O   0  0  0  0  0  0  0  0  0  0  0  0
  1  8  1  1  0  0  0
  2 26  2  0  0  0  0
  2 18  1  0  0  0  0
  3 12  1  0  0  0  0
  4 15  1  0  0  0  0
  4 26  1  0  0  0  0
  5 22  1  0  0  0  0
  6 32  1  0  0  0  0
  7 13  1  6  0  0  0
  7 14  1  0  0  0  0
  7 24  1  0  0  0  0
  8  7  1  0  0  0  0
  9 13  1  0  0  0  0
 10  9  2  0  0  0  0
 11  6  2  0  0  0  0
 12 11  1  0  0  0  0
 16 15  1  1  0  0  0
 16  1  1  0  0  0  0
 16  9  1  0  0  0  0
 17 15  2  0  0  0  0
 17 10  1  0  0  0  0
 18 19  1  0  0  0  0
 19 29  1  0  0  0  0
 19 21  2  0  0  0  0
 20 23  2  0  0  0  0
 21 27  1  0  0  0  0
 22 12  2  0  0  0  0
 22 20  1  0  0  0  0
 23  6  1  0  0  0  0
 24 14  1  1  0  0  0
 24  5  1  0  0  0  0
 24 25  1  0  0  0  0
 25  3  1  0  0  0  0
 26 28  1  0  0  0  0
 28  1  1  0  0  0  0
 28 27  2  0  0  0  0
 29 31  1  0  0  0  0
 30 29  2  0  0  0  0
 32 33  2  0  0  0  0
 32 34  2  0  0  0  0
M  END
>  <MODEL>
4

>  <REMARK>
 VINA RESULT:      -0.5      8.379     12.360
  Name = 
  2 active torsions:
  status: ('A' for Active; 'I' for Inactive)
    1  A    between atoms: C_3  and  C_25
    2  A    between atoms: C_7  and  N_11
                            x       y       z     vdW  Elec       q    Type
                         _______ _______ _______ _____ _____    ______ ____

>  <TORSDO>
F 2

$$$$
=
 OpenBabel11062409473D

 34 40  0  0  1  0  0  0  0  0999 V2000
  160.6360  209.0930  151.0460 C   0  0  1  0  0  3  0  0  0  0  0  0
  161.3150  207.7740  154.4960 C   0  0  0  0  0  3  0  0  0  0  0  0
  159.3730  212.9590  147.6850 C   0  0  0  0  0  2  0  0  0  0  0  0
  161.7990  206.7170  152.3620 C   0  0  0  0  0  2  0  0  0  0  0  0
  162.2610  212.2220  147.2020 C   0  0  0  0  0  2  0  0  0  0  0  0
  159.7850  213.7060  143.9910 C   0  0  0  0  0  0  0  0  0  0  0  0
  161.5430  210.7160  149.2320 C   0  0  2  0  0  0  0  0  0  0  0  0
  160.4170  210.3950  150.2400 C   0  0  0  0  0  2  0  0  0  0  0  0
  162.2530  208.3800  149.1330 C   0  0  0  0  0  0  0  0  0  0  0  0
  163.1830  207.2430  148.8840 C   0  0  0  0  0  3  0  0  0  0  0  0
  159.2480  213.5980  145.2800 C   0  0  0  0  0  3  0  0  0  0  0  0
  160.0240  213.1210  146.3400 C   0  0  0  0  0  0  0  0  0  0  0  0
  162.3190  209.5910  148.5950 C   0  0  0  0  0  2  0  0  0  0  0  0
  162.4470  211.8420  149.7110 C   0  0  0  0  0  2  0  0  0  0  0  0
  162.0440  207.0520  150.9170 C   0  0  0  0  0  0  0  0  0  0  0  0
  161.5210  208.1140  150.3430 C   0  0  1  0  0  3  0  0  0  0  0  0
  163.0470  206.4440  150.1050 N   0  0  0  0  0  0  0  0  0  0  0  0
  160.8240  208.8360  155.4230 C   0  0  0  0  0  2  0  0  0  0  0  0
  161.7320  210.0240  155.4220 C   0  0  0  0  0  0  0  0  0  0  0  0
  161.8930  212.8280  144.8160 C   0  0  0  0  0  3  0  0  0  0  0  0
  161.8970  210.7640  154.3220 C   0  0  0  0  0  3  0  0  0  0  0  0
  161.3600  212.7160  146.1020 C   0  0  0  0  0  0  0  0  0  0  0  0
  161.1120  213.3180  143.7660 C   0  0  0  0  0  3  0  0  0  0  0  0
  161.5220  212.0670  148.5300 C   0  0  1  0  0  0  0  0  0  0  0  0
  160.3840  213.0330  148.8220 C   0  0  0  0  0  2  0  0  0  0  0  0
  161.4300  207.9420  153.1780 C   0  0  0  0  0  0  0  0  0  0  0  0
  161.3580  210.4490  152.9840 C   0  0  0  0  0  3  0  0  0  0  0  0
  161.0990  209.2300  152.4790 C   0  0  0  0  0  0  0  0  0  0  0  0
  162.3630  210.4370  156.6870 C   0  0  0  0  0  0  0  0  0  0  0  0
  163.3540  209.6500  157.2600 O   0  0  0  0  0  1  0  0  0  0  0  0
  162.0170  211.5070  157.2590 O   0  0  0  0  0  0  0  0  0  0  0  0
  158.9840  214.2040  142.9130 N   0  0  0  0  0  0  0  0  0  0  0  0
  159.5400  214.4500  141.7030 O   0  0  0  0  0  0  0  0  0  0  0  0
  157.6610  214.4340  143.0890 O   0  0  0  0  0  0  0  0  0  0  0  0
  1  8  1  6  0  0  0
  1 28  1  0  0  0  0
  2 18  1  0  0  0  0
  3 25  1  0  0  0  0
  4 26  1  0  0  0  0
  6 11  1  0  0  0  0
  7 13  1  6  0  0  0
  7 14  1  0  0  0  0
  7  8  1  0  0  0  0
 10  9  2  0  0  0  0
 10 17  1  0  0  0  0
 11 12  2  0  0  0  0
 12  3  1  0  0  0  0
 13  9  1  0  0  0  0
 15  4  1  0  0  0  0
 16  9  1  1  0  0  0
 16 15  1  0  0  0  0
 16  1  1  0  0  0  0
 17 15  2  0  0  0  0
 19 18  1  0  0  0  0
 19 29  1  0  0  0  0
 20 22  2  0  0  0  0
 21 19  2  0  0  0  0
 22 12  1  0  0  0  0
 22  5  1  0  0  0  0
 23  6  2  0  0  0  0
 23 20  1  0  0  0  0
 24  5  1  6  0  0  0
 24 25  1  0  0  0  0
 24  7  1  0  0  0  0
 24 14  1  0  0  0  0
 26  2  2  0  0  0  0
 27 21  1  0  0  0  0
 28 27  2  0  0  0  0
 28 26  1  0  0  0  0
 29 31  2  0  0  0  0
 29 30  1  0  0  0  0
 32 34  2  0  0  0  0
 32  6  1  0  0  0  0
 33 32  2  0  0  0  0
M  END
>  <MODEL>
5

>  <REMARK>
 VINA RESULT:      -0.4      4.076      6.559
  Name = 
  2 active torsions:
  status: ('A' for Active; 'I' for Inactive)
    1  A    between atoms: C_3  and  C_25
    2  A    between atoms: C_7  and  N_11
                            x       y       z     vdW  Elec       q    Type
                         _______ _______ _______ _____ _____    ______ ____

>  <TORSDO>
F 2

$$$$
=
 OpenBabel11062409473D

 34 40  0  0  1  0  0  0  0  0999 V2000
  162.3330  205.0010  149.8180 C   0  0  1  0  0  3  0  0  0  0  0  0
  162.0050  202.9490  146.6900 C   0  0  0  0  0  3  0  0  0  0  0  0
  162.8590  209.5950  152.3600 C   0  0  0  0  0  2  0  0  0  0  0  0
  161.5950  202.2640  148.9860 C   0  0  0  0  0  2  0  0  0  0  0  0
  160.0970  208.5270  152.9460 C   0  0  0  0  0  2  0  0  0  0  0  0
  162.1850  210.9720  155.8280 C   0  0  0  0  0  0  0  0  0  0  0  0
  161.1170  206.7850  151.2640 C   0  0  2  0  0  0  0  0  0  0  0  0
  162.3200  206.4540  150.3530 C   0  0  0  0  0  2  0  0  0  0  0  0
  160.7610  204.4310  151.8160 C   0  0  0  0  0  0  0  0  0  0  0  0
  160.0030  203.2340  152.2740 C   0  0  0  0  0  2  0  0  0  0  0  0
  162.7860  210.7000  154.5930 C   0  0  0  0  0  3  0  0  0  0  0  0
  162.1350  209.9120  153.6390 C   0  0  0  0  0  0  0  0  0  0  0  0
  160.4920  205.6990  152.1020 C   0  0  0  0  0  2  0  0  0  0  0  0
  160.0750  207.6420  150.5610 C   0  0  0  0  0  2  0  0  0  0  0  0
  161.2420  202.8310  150.3330 C   0  0  0  0  0  0  0  0  0  0  0  0
  161.5750  204.0530  150.6910 C   0  0  0  0  0  0  0  0  0  0  0  0
  160.3080  202.2440  151.2370 N   0  0  0  0  0  0  0  0  0  0  0  0
  162.3690  203.8740  145.5780 C   0  0  0  0  0  2  0  0  0  0  0  0
  161.2950  204.8840  145.3320 C   0  0  0  0  0  0  0  0  0  0  0  0
  160.2690  209.6340  155.1690 C   0  0  0  0  0  3  0  0  0  0  0  0
  160.9750  205.7890  146.2610 C   0  0  0  0  0  3  0  0  0  0  0  0
  160.8660  209.3590  153.9370 C   0  0  0  0  0  0  0  0  0  0  0  0
  160.9220  210.4330  156.1100 C   0  0  0  0  0  3  0  0  0  0  0  0
  160.9050  208.2340  151.6840 C   0  0  1  0  0  0  0  0  0  0  0  0
  161.8970  209.2890  151.2190 C   0  0  0  0  0  2  0  0  0  0  0  0
  161.8110  203.3490  147.9480 C   0  0  0  0  0  0  0  0  0  0  0  0
  161.4980  205.8270  147.6420 C   0  0  0  0  0  3  0  0  0  0  0  0
  161.9150  204.7850  148.3810 C   0  0  0  0  0  0  0  0  0  0  0  0
  160.6630  204.9410  144.0030 C   0  0  0  0  0  0  0  0  0  0  0  0
  161.1900  205.7650  143.0160 O   0  0  0  0  0  0  0  0  0  0  0  0
  159.6450  204.2440  143.7450 O   0  0  0  0  0  1  0  0  0  0  0  0
  162.8560  211.7870  156.7950 N   0  0  0  0  0  0  0  0  0  0  0  0
  162.2750  212.9190  157.2600 O   0  0  0  0  0  0  0  0  0  0  0  0
  164.0800  211.4380  157.2580 O   0  0  0  0  0  0  0  0  0  0  0  0
  1  8  1  1  0  0  0
  1 16  1  0  0  0  0
  2 26  2  0  0  0  0
  3 12  1  0  0  0  0
  4 15  1  0  0  0  0
  5 22  1  0  0  0  0
  6 23  1  0  0  0  0
  6 32  1  0  0  0  0
  7  8  1  6  0  0  0
  7 24  1  0  0  0  0
  7 13  1  0  0  0  0
  9 13  1  0  0  0  0
  9 10  1  0  0  0  0
 11  6  2  0  0  0  0
 12 22  2  0  0  0  0
 12 11  1  0  0  0  0
 14  7  1  0  0  0  0
 15 16  1  0  0  0  0
 15 17  2  0  0  0  0
 16  9  2  0  0  0  0
 17 10  1  0  0  0  0
 18  2  1  0  0  0  0
 19 18  1  0  0  0  0
 19 21  2  0  0  0  0
 20 23  2  0  0  0  0
 21 27  1  0  0  0  0
 22 20  1  0  0  0  0
 24 14  1  6  0  0  0
 24  5  1  0  0  0  0
 25 24  1  0  0  0  0
 25  3  1  0  0  0  0
 26 28  1  0  0  0  0
 26  4  1  0  0  0  0
 27 28  2  0  0  0  0
 28  1  1  0  0  0  0
 29 19  1  0  0  0  0
 30 29  2  0  0  0  0
 31 29  1  0  0  0  0
 32 34  2  0  0  0  0
 32 33  2  0  0  0  0
M  END
>  <MODEL>
6

>  <REMARK>
 VINA RESULT:      -0.2      8.159     12.431
  Name = 
  2 active torsions:
  status: ('A' for Active; 'I' for Inactive)
    1  A    between atoms: C_3  and  C_25
    2  A    between atoms: C_7  and  N_11
                            x       y       z     vdW  Elec       q    Type
                         _______ _______ _______ _____ _____    ______ ____

>  <TORSDO>
F 2

$$$$
