=
 OpenBabel11062407583D

 34 39  0  0  1  0  0  0  0  0999 V2000
  159.1960  212.1800  150.6500 C   0  0  2  0  0  3  0  0  0  0  0  0
  161.6090  212.2330  149.8530 C   0  0  0  0  0  0  0  0  0  0  0  0
  161.0570  211.1790  152.0530 C   0  0  1  0  0  3  0  0  0  0  0  0
  160.8820  207.6290  153.2450 C   0  0  0  0  0  2  0  0  0  0  0  0
  160.1250  214.0950  149.2600 C   0  0  0  0  0  2  0  0  0  0  0  0
  161.2640  213.2130  148.7820 C   0  0  0  0  0  2  0  0  0  0  0  0
  161.2950  208.9810  150.6150 C   0  0  0  0  0  2  0  0  0  0  0  0
  160.6090  211.7980  150.7960 N   0  0  0  0  0  0  0  0  0  0  0  0
  160.9100  206.8150  151.9430 C   0  0  0  0  0  2  0  0  0  0  0  0
  158.9180  213.2180  149.5540 C   0  0  0  0  0  2  0  0  0  0  0  0
  160.0830  211.3660  153.2600 C   0  0  2  0  0  3  0  0  0  0  0  0
  158.6770  212.6470  151.9930 C   0  0  0  0  0  2  0  0  0  0  0  0
  162.7870  211.7920  149.9210 O   0  0  0  0  0  0  0  0  0  0  0  0
  160.3990  209.0280  152.9010 C   0  0  1  0  0  3  0  0  0  0  0  0
  160.1430  210.0350  154.0130 C   0  0  1  0  0  3  0  0  0  0  0  0
  161.7210  207.5170  150.8290 C   0  0  1  0  0  3  0  0  0  0  0  0
  161.3660  209.6870  151.9600 C   0  0  2  0  0  3  0  0  0  0  0  0
  158.7390  211.5570  152.8690 O   0  0  0  0  0  0  0  0  0  0  0  0
  163.3100  210.7630  156.0310 C   0  0  0  0  0  0  0  0  0  0  0  0
  163.0930  209.9630  157.1550 C   0  0  0  0  0  3  0  0  0  0  0  0
  161.1870  210.0340  155.1000 C   0  0  0  0  0  0  0  0  0  0  0  0
  161.9280  209.1980  157.2550 C   0  0  0  0  0  3  0  0  0  0  0  0
  162.3610  210.7990  155.0050 C   0  0  0  0  0  3  0  0  0  0  0  0
  160.9780  209.2330  156.2290 C   0  0  0  0  0  3  0  0  0  0  0  0
  164.4400  211.5030  155.9330 F   0  0  0  0  0  0  0  0  0  0  0  0
  160.7410  205.7910  149.3440 C   0  0  0  0  0  3  0  0  0  0  0  0
  161.6540  206.7450  149.5470 C   0  0  0  0  0  3  0  0  0  0  0  0
  160.8700  206.9950  146.6740 O   0  0  0  0  0  1  0  0  0  0  0  0
  160.6940  205.0310  148.0570 C   0  0  1  0  0  3  0  0  0  0  0  0
  161.4670  205.7650  146.9500 C   0  0  1  0  0  3  0  0  0  0  0  0
  162.1020  203.5600  145.9340 C   0  0  0  0  0  2  0  0  0  0  0  0
  161.2980  202.8330  147.0070 C   0  0  0  0  0  2  0  0  0  0  0  0
  161.2960  203.6470  148.2950 C   0  0  0  0  0  2  0  0  0  0  0  0
  161.4920  204.9320  145.6700 C   0  0  0  0  0  2  0  0  0  0  0  0
  1 10  1  6  0  0  0
  1  8  1  0  0  0  0
  1 12  1  0  0  0  0
  2 13  2  0  0  0  0
  2  8  1  0  0  0  0
  3  8  1  6  0  0  0
  3 11  1  0  0  0  0
  5 10  1  0  0  0  0
  6  5  1  0  0  0  0
  6  2  1  0  0  0  0
  7 16  1  0  0  0  0
  9  4  1  0  0  0  0
 11 18  1  6  0  0  0
 11 15  1  0  0  0  0
 12 18  1  0  0  0  0
 14  4  1  1  0  0  0
 14 15  1  0  0  0  0
 15 21  1  1  0  0  0
 16 27  1  6  0  0  0
 16  9  1  0  0  0  0
 17  7  1  6  0  0  0
 17  3  1  0  0  0  0
 17 14  1  0  0  0  0
 19 20  1  0  0  0  0
 20 22  2  0  0  0  0
 21 24  2  0  0  0  0
 23 21  1  0  0  0  0
 23 19  2  0  0  0  0
 24 22  1  0  0  0  0
 25 19  1  0  0  0  0
 26 27  2  0  0  0  0
 29 33  1  0  0  0  0
 29 26  1  1  0  0  0
 30 28  1  6  0  0  0
 30 29  1  0  0  0  0
 31 32  1  0  0  0  0
 32 33  1  0  0  0  0
 34 31  1  0  0  0  0
 34 30  1  0  0  0  0
M  END
>  <MODEL>
1

>  <REMARK>
 VINA RESULT:      -5.9      0.000      0.000
  Name = 
  3 active torsions:
  status: ('A' for Active; 'I' for Inactive)
    1  A    between atoms: C_3  and  C_13
    2  A    between atoms: C_12  and  C_28
    3  A    between atoms: C_17  and  C_29
                            x       y       z     vdW  Elec       q    Type
                         _______ _______ _______ _____ _____    ______ ____

>  <TORSDO>
F 3

$$$$
=
 OpenBabel11062407583D

 34 39  0  0  1  0  0  0  0  0999 V2000
  162.1160  208.9620  155.3360 C   0  0  2  0  0  3  0  0  0  0  0  0
  159.9530  207.6710  154.9970 C   0  0  0  0  0  0  0  0  0  0  0  0
  160.4500  209.6520  153.5520 C   0  0  1  0  0  3  0  0  0  0  0  0
  161.4990  210.0430  149.9750 C   0  0  0  0  0  2  0  0  0  0  0  0
  160.8800  207.8530  157.2610 C   0  0  0  0  0  2  0  0  0  0  0  0
  160.1480  206.9480  156.2870 C   0  0  0  0  0  2  0  0  0  0  0  0
  161.1100  207.7510  151.8490 C   0  0  0  0  0  2  0  0  0  0  0  0
  160.8790  208.6960  154.5850 N   0  0  0  0  0  0  0  0  0  0  0  0
  161.9190  208.6220  149.5710 C   0  0  0  0  0  2  0  0  0  0  0  0
  162.2340  208.2130  156.6700 C   0  0  0  0  0  2  0  0  0  0  0  0
  161.1220  211.0590  153.6400 C   0  0  2  0  0  3  0  0  0  0  0  0
  162.2560  210.4560  155.5300 C   0  0  0  0  0  2  0  0  0  0  0  0
  158.9670  207.3720  154.2720 O   0  0  0  0  0  0  0  0  0  0  0  0
  161.5850  210.1330  151.4890 C   0  0  1  0  0  3  0  0  0  0  0  0
  161.3510  211.4680  152.1820 C   0  0  1  0  0  3  0  0  0  0  0  0
  161.1160  207.5360  150.3230 C   0  0  1  0  0  3  0  0  0  0  0  0
  160.6220  209.1660  152.1160 C   0  0  2  0  0  3  0  0  0  0  0  0
  162.3910  211.0350  154.2620 O   0  0  0  0  0  0  0  0  0  0  0  0
  159.2150  213.6960  149.9230 C   0  0  0  0  0  0  0  0  0  0  0  0
  158.0250  213.7420  150.6510 C   0  0  0  0  0  3  0  0  0  0  0  0
  160.2010  212.2630  151.6200 C   0  0  0  0  0  0  0  0  0  0  0  0
  157.9180  213.0520  151.8630 C   0  0  0  0  0  3  0  0  0  0  0  0
  160.3020  212.9600  150.4050 C   0  0  0  0  0  3  0  0  0  0  0  0
  159.0050  212.3160  152.3450 C   0  0  0  0  0  3  0  0  0  0  0  0
  159.3190  214.3660  148.7510 F   0  0  0  0  0  0  0  0  0  0  0  0
  160.8090  205.0970  150.0050 C   0  0  0  0  0  3  0  0  0  0  0  0
  161.6110  206.1650  149.9770 C   0  0  0  0  0  3  0  0  0  0  0  0
  161.1080  202.8780  151.8970 O   0  0  0  0  0  1  0  0  0  0  0  0
  161.3240  203.7370  149.6570 C   0  0  1  0  0  3  0  0  0  0  0  0
  160.7180  202.6630  150.5750 C   0  0  1  0  0  3  0  0  0  0  0  0
  160.8080  201.0060  148.6930 C   0  0  0  0  0  2  0  0  0  0  0  0
  161.4500  202.0590  147.7950 C   0  0  0  0  0  2  0  0  0  0  0  0
  160.9700  203.4480  148.2000 C   0  0  0  0  0  2  0  0  0  0  0  0
  161.1780  201.2700  150.1480 C   0  0  0  0  0  2  0  0  0  0  0  0
  1 12  1  1  0  0  0
  1 10  1  0  0  0  0
  2  6  1  0  0  0  0
  3 11  1  0  0  0  0
  3  8  1  1  0  0  0
  6  5  1  0  0  0  0
  8  2  1  0  0  0  0
  8  1  1  0  0  0  0
  9  4  1  0  0  0  0
  9 16  1  0  0  0  0
 10  5  1  0  0  0  0
 11 18  1  1  0  0  0
 13  2  2  0  0  0  0
 14  4  1  6  0  0  0
 14 17  1  0  0  0  0
 14 15  1  0  0  0  0
 15 21  1  6  0  0  0
 15 11  1  0  0  0  0
 16 27  1  1  0  0  0
 16  7  1  0  0  0  0
 17  7  1  1  0  0  0
 17  3  1  0  0  0  0
 18 12  1  0  0  0  0
 19 23  2  0  0  0  0
 19 20  1  0  0  0  0
 20 22  2  0  0  0  0
 21 24  2  0  0  0  0
 22 24  1  0  0  0  0
 23 21  1  0  0  0  0
 25 19  1  0  0  0  0
 27 26  2  0  0  0  0
 29 26  1  1  0  0  0
 29 30  1  0  0  0  0
 30 28  1  1  0  0  0
 31 34  1  0  0  0  0
 32 33  1  0  0  0  0
 32 31  1  0  0  0  0
 33 29  1  0  0  0  0
 34 30  1  0  0  0  0
M  END
>  <MODEL>
2

>  <REMARK>
 VINA RESULT:      -5.3      2.702      5.535
  Name = 
  3 active torsions:
  status: ('A' for Active; 'I' for Inactive)
    1  A    between atoms: C_3  and  C_13
    2  A    between atoms: C_12  and  C_28
    3  A    between atoms: C_17  and  C_29
                            x       y       z     vdW  Elec       q    Type
                         _______ _______ _______ _____ _____    ______ ____

>  <TORSDO>
F 3

$$$$
=
 OpenBabel11062407583D

 34 39  0  0  1  0  0  0  0  0999 V2000
  158.5460  211.8710  138.1870 C   0  0  2  0  0  3  0  0  0  0  0  0
  159.5150  209.6790  139.0310 C   0  0  0  0  0  0  0  0  0  0  0  0
  161.0090  211.6650  138.7550 C   0  0  1  0  0  3  0  0  0  0  0  0
  162.6410  214.0260  141.1670 C   0  0  0  0  0  2  0  0  0  0  0  0
  157.6650  209.6130  137.4210 C   0  0  0  0  0  2  0  0  0  0  0  0
  158.2750  208.9470  138.6400 C   0  0  0  0  0  2  0  0  0  0  0  0
  160.6720  211.7900  141.3670 C   0  0  0  0  0  2  0  0  0  0  0  0
  159.6590  211.0820  138.7390 N   0  0  0  0  0  0  0  0  0  0  0  0
  161.9220  213.7330  142.4920 C   0  0  0  0  0  2  0  0  0  0  0  0
  157.3170  211.0510  137.7730 C   0  0  0  0  0  2  0  0  0  0  0  0
  161.2050  212.8930  137.8110 C   0  0  2  0  0  3  0  0  0  0  0  0
  159.0640  212.7050  137.0360 C   0  0  0  0  0  2  0  0  0  0  0  0
  160.4340  209.0510  139.6210 O   0  0  0  0  0  0  0  0  0  0  0  0
  161.7330  213.5630  140.0400 C   0  0  1  0  0  3  0  0  0  0  0  0
  162.1200  213.8390  138.5950 C   0  0  1  0  0  3  0  0  0  0  0  0
  161.4670  212.2590  142.6000 C   0  0  1  0  0  3  0  0  0  0  0  0
  161.5130  212.0810  140.1340 C   0  0  2  0  0  3  0  0  0  0  0  0
  160.0080  213.5990  137.5550 O   0  0  0  0  0  0  0  0  0  0  0  0
  165.6760  212.4320  138.6170 C   0  0  0  0  0  0  0  0  0  0  0  0
  166.2950  213.2720  137.6890 C   0  0  0  0  0  3  0  0  0  0  0  0
  163.5780  213.6140  138.2900 C   0  0  0  0  0  0  0  0  0  0  0  0
  165.5620  214.2830  137.0620 C   0  0  0  0  0  3  0  0  0  0  0  0
  164.3220  212.6010  138.9180 C   0  0  0  0  0  3  0  0  0  0  0  0
  164.2060  214.4530  137.3630 C   0  0  0  0  0  3  0  0  0  0  0  0
  166.3870  211.4530  139.2260 F   0  0  0  0  0  0  0  0  0  0  0  0
  160.2990  213.0360  144.6440 C   0  0  0  0  0  3  0  0  0  0  0  0
  160.6900  212.0280  143.8600 C   0  0  0  0  0  3  0  0  0  0  0  0
  161.0910  213.9390  147.3180 O   0  0  0  0  0  1  0  0  0  0  0  0
  159.5270  212.7810  145.8990 C   0  0  1  0  0  3  0  0  0  0  0  0
  159.7520  213.9030  146.9270 C   0  0  1  0  0  3  0  0  0  0  0  0
  157.4120  213.5920  147.7760 C   0  0  0  0  0  2  0  0  0  0  0  0
  157.2030  212.4510  146.7870 C   0  0  0  0  0  2  0  0  0  0  0  0
  158.0450  212.6850  145.5390 C   0  0  0  0  0  2  0  0  0  0  0  0
  158.8840  213.6800  148.1640 C   0  0  0  0  0  2  0  0  0  0  0  0
  1 12  1  6  0  0  0
  1  8  1  0  0  0  0
  2 13  2  0  0  0  0
  3  8  1  1  0  0  0
  3 17  1  0  0  0  0
  4  9  1  0  0  0  0
  5 10  1  0  0  0  0
  5  6  1  0  0  0  0
  6  2  1  0  0  0  0
  7 16  1  0  0  0  0
  8  2  1  0  0  0  0
  9 16  1  0  0  0  0
 10  1  1  0  0  0  0
 11 18  1  1  0  0  0
 11 15  1  0  0  0  0
 11  3  1  0  0  0  0
 12 18  1  0  0  0  0
 14 17  1  0  0  0  0
 14  4  1  1  0  0  0
 15 21  1  1  0  0  0
 15 14  1  0  0  0  0
 16 27  1  1  0  0  0
 17  7  1  1  0  0  0
 19 23  1  0  0  0  0
 19 25  1  0  0  0  0
 20 19  2  0  0  0  0
 21 23  2  0  0  0  0
 22 24  2  0  0  0  0
 22 20  1  0  0  0  0
 24 21  1  0  0  0  0
 27 26  2  0  0  0  0
 29 26  1  6  0  0  0
 29 30  1  0  0  0  0
 30 28  1  1  0  0  0
 30 34  1  0  0  0  0
 31 34  1  0  0  0  0
 32 31  1  0  0  0  0
 33 29  1  0  0  0  0
 33 32  1  0  0  0  0
M  END
>  <MODEL>
3

>  <REMARK>
 VINA RESULT:      -3.7      9.084     13.421
  Name = 
  3 active torsions:
  status: ('A' for Active; 'I' for Inactive)
    1  A    between atoms: C_3  and  C_13
    2  A    between atoms: C_12  and  C_28
    3  A    between atoms: C_17  and  C_29
                            x       y       z     vdW  Elec       q    Type
                         _______ _______ _______ _____ _____    ______ ____

>  <TORSDO>
F 3

$$$$
