=
 OpenBabel11052422053D

 25 27  0  0  1  0  0  0  0  0999 V2000
  161.7720  206.4470  148.3880 N   0  0  0  0  0  0  0  0  0  0  0  0
  161.1870  205.8430  149.5440 C   0  0  0  0  0  0  0  0  0  0  0  0
  162.3750  208.9300  150.7670 N   0  0  0  0  0  2  0  0  0  0  0  0
  162.2000  207.7920  150.1840 C   0  0  0  0  0  0  0  0  0  0  0  0
  161.9790  205.9200  151.8580 C   0  0  1  0  0  3  0  0  0  0  0  0
  162.1830  206.7020  152.9770 F   0  0  0  0  0  0  0  0  0  0  0  0
  160.9170  204.5400  149.6500 C   0  0  0  0  0  3  0  0  0  0  0  0
  162.3930  207.6350  148.7800 N   0  0  0  0  0  2  0  0  0  0  0  0
  161.0870  204.7260  152.2170 C   0  0  0  0  0  2  0  0  0  0  0  0
  160.5500  203.9410  150.9890 C   0  0  2  0  0  3  0  0  0  0  0  0
  161.3110  206.7270  150.7470 C   0  0  2  0  0  3  0  0  0  0  0  0
  161.5720  206.0620  147.0110 C   0  0  0  0  0  0  0  0  0  0  0  0
  161.1370  205.3520  144.3220 C   0  0  0  0  0  3  0  0  0  0  0  0
  162.5290  205.2930  146.3070 C   0  0  0  0  0  0  0  0  0  0  0  0
  162.3070  204.9510  144.9710 C   0  0  0  0  0  3  0  0  0  0  0  0
  160.1830  206.1040  145.0070 C   0  0  0  0  0  3  0  0  0  0  0  0
  163.7270  204.8410  146.9340 N   0  0  0  0  0  1  0  0  0  0  0  0
  160.4000  206.4550  146.3400 C   0  0  0  0  0  3  0  0  0  0  0  0
  160.9860  202.6120  151.0440 O   0  0  0  0  0  0  0  0  0  0  0  0
  161.3500  202.2880  149.7340 C   0  0  0  0  0  2  0  0  0  0  0  0
  160.1350  201.7600  148.9640 C   0  0  2  0  0  3  0  0  0  0  0  0
  159.4010  200.8980  149.7760 O   0  0  0  0  0  1  0  0  0  0  0  0
  160.4840  201.0900  147.7060 N   0  0  0  0  0  0  0  0  0  0  0  0
  160.8250  202.0960  146.7110 C   0  0  0  0  0  1  0  0  0  0  0  0
  161.6480  200.2270  147.8810 C   0  0  0  0  0  1  0  0  0  0  0  0
  1  8  1  0  0  0  0
  1  2  1  0  0  0  0
  2  7  2  0  0  0  0
  4 11  1  0  0  0  0
  4  3  2  0  0  0  0
  5  9  1  0  0  0  0
  5  6  1  1  0  0  0
  7 10  1  0  0  0  0
  8  4  1  0  0  0  0
 10 19  1  6  0  0  0
 10  9  1  0  0  0  0
 11  2  1  6  0  0  0
 11  5  1  0  0  0  0
 12  1  1  0  0  0  0
 13 15  2  0  0  0  0
 13 16  1  0  0  0  0
 14 17  1  0  0  0  0
 14 12  2  0  0  0  0
 15 14  1  0  0  0  0
 16 18  2  0  0  0  0
 18 12  1  0  0  0  0
 20 19  1  0  0  0  0
 21 20  1  0  0  0  0
 21 22  1  1  0  0  0
 23 25  1  0  0  0  0
 23 21  1  0  0  0  0
 24 23  1  0  0  0  0
M  END
>  <MODEL>
1

>  <REMARK>
 VINA RESULT:      -7.7      0.000      0.000
  Name = 
  5 active torsions:
  status: ('A' for Active; 'I' for Inactive)
    1  A    between atoms: N_1  and  C_5
    2  A    between atoms: N_2  and  C_21
    3  A    between atoms: O_6  and  C_15
    4  A    between atoms: O_6  and  C_23
    5  A    between atoms: C_15  and  C_21
                            x       y       z     vdW  Elec       q    Type
                         _______ _______ _______ _____ _____    ______ ____

>  <TORSDO>
F 5

$$$$
=
 OpenBabel11052422053D

 25 27  0  0  1  0  0  0  0  0999 V2000
  160.9910  205.5240  149.1000 N   0  0  0  0  0  0  0  0  0  0  0  0
  161.6230  206.5660  149.8470 C   0  0  0  0  0  0  0  0  0  0  0  0
  160.9440  204.1210  152.2970 N   0  0  0  0  0  2  0  0  0  0  0  0
  160.9210  204.9540  151.3110 C   0  0  0  0  0  0  0  0  0  0  0  0
  161.1010  207.3380  152.1100 C   0  0  1  0  0  3  0  0  0  0  0  0
  161.1120  207.0390  153.4570 F   0  0  0  0  0  0  0  0  0  0  0  0
  161.7490  207.8230  149.4170 C   0  0  0  0  0  3  0  0  0  0  0  0
  160.5600  204.5420  149.9940 N   0  0  0  0  0  2  0  0  0  0  0  0
  161.8800  208.6340  151.8620 C   0  0  0  0  0  2  0  0  0  0  0  0
  162.1860  208.9170  150.3650 C   0  0  2  0  0  3  0  0  0  0  0  0
  161.7350  206.2100  151.2980 C   0  0  2  0  0  3  0  0  0  0  0  0
  160.9950  205.3580  147.6660 C   0  0  0  0  0  0  0  0  0  0  0  0
  160.9930  205.0910  144.8630 C   0  0  0  0  0  3  0  0  0  0  0  0
  161.4900  204.1800  147.0560 C   0  0  0  0  0  0  0  0  0  0  0  0
  161.4900  204.0600  145.6630 C   0  0  0  0  0  3  0  0  0  0  0  0
  160.4970  206.2540  145.4540 C   0  0  0  0  0  3  0  0  0  0  0  0
  161.9850  203.0920  147.8310 N   0  0  0  0  0  1  0  0  0  0  0  0
  160.4990  206.3840  146.8430 C   0  0  0  0  0  3  0  0  0  0  0  0
  161.6060  210.1310  149.9810 O   0  0  0  0  0  0  0  0  0  0  0  0
  162.1850  210.4430  148.7480 C   0  0  0  0  0  2  0  0  0  0  0  0
  162.0380  211.9410  148.4610 C   0  0  2  0  0  3  0  0  0  0  0  0
  161.2020  212.5230  149.4110 O   0  0  0  0  0  1  0  0  0  0  0  0
  161.5440  212.2340  147.1100 N   0  0  0  0  0  0  0  0  0  0  0  0
  160.1440  212.6230  147.1910 C   0  0  0  0  0  1  0  0  0  0  0  0
  162.2790  213.3450  146.5150 C   0  0  0  0  0  1  0  0  0  0  0  0
  1  2  1  0  0  0  0
  1  8  1  0  0  0  0
  4  3  2  0  0  0  0
  5  6  1  1  0  0  0
  7  2  2  0  0  0  0
  7 10  1  0  0  0  0
  8  4  1  0  0  0  0
  9  5  1  0  0  0  0
 10 19  1  6  0  0  0
 10  9  1  0  0  0  0
 11  2  1  6  0  0  0
 11  4  1  0  0  0  0
 11  5  1  0  0  0  0
 12  1  1  0  0  0  0
 13 16  2  0  0  0  0
 13 15  1  0  0  0  0
 14 12  1  0  0  0  0
 14 17  1  0  0  0  0
 15 14  2  0  0  0  0
 16 18  1  0  0  0  0
 18 12  2  0  0  0  0
 20 19  1  0  0  0  0
 21 20  1  0  0  0  0
 21 22  1  1  0  0  0
 23 24  1  0  0  0  0
 23 21  1  0  0  0  0
 25 23  1  0  0  0  0
M  END
>  <MODEL>
2

>  <REMARK>
 VINA RESULT:      -7.5      3.740      6.046
  Name = 
  5 active torsions:
  status: ('A' for Active; 'I' for Inactive)
    1  A    between atoms: N_1  and  C_5
    2  A    between atoms: N_2  and  C_21
    3  A    between atoms: O_6  and  C_15
    4  A    between atoms: O_6  and  C_23
    5  A    between atoms: C_15  and  C_21
                            x       y       z     vdW  Elec       q    Type
                         _______ _______ _______ _____ _____    ______ ____

>  <TORSDO>
F 5

$$$$
=
 OpenBabel11052422053D

 25 27  0  0  1  0  0  0  0  0999 V2000
  161.0240  204.8410  149.2960 N   0  0  0  0  0  0  0  0  0  0  0  0
  161.6260  205.7410  150.2290 C   0  0  0  0  0  0  0  0  0  0  0  0
  161.0070  202.8650  152.1750 N   0  0  0  0  0  2  0  0  0  0  0  0
  160.9630  203.8660  151.3620 C   0  0  0  0  0  0  0  0  0  0  0  0
  161.0780  206.0640  152.5920 C   0  0  1  0  0  3  0  0  0  0  0  0
  161.0940  205.5180  153.8600 F   0  0  0  0  0  0  0  0  0  0  0  0
  161.7200  207.0590  150.0420 C   0  0  0  0  0  3  0  0  0  0  0  0
  160.6170  203.6980  149.9890 N   0  0  0  0  0  2  0  0  0  0  0  0
  161.8240  207.4030  152.5960 C   0  0  0  0  0  2  0  0  0  0  0  0
  162.1250  207.9680  151.1800 C   0  0  2  0  0  3  0  0  0  0  0  0
  161.7440  205.1230  151.5890 C   0  0  2  0  0  3  0  0  0  0  0  0
  161.0360  204.9450  147.8570 C   0  0  0  0  0  0  0  0  0  0  0  0
  161.0550  205.2080  145.0540 C   0  0  0  0  0  3  0  0  0  0  0  0
  161.4120  203.8550  147.0350 C   0  0  0  0  0  0  0  0  0  0  0  0
  161.4240  203.9970  145.6450 C   0  0  0  0  0  3  0  0  0  0  0  0
  160.6770  206.2860  145.8530 C   0  0  0  0  0  3  0  0  0  0  0  0
  161.7740  202.5940  147.5920 N   0  0  0  0  0  1  0  0  0  0  0  0
  160.6670  206.1540  147.2420 C   0  0  0  0  0  3  0  0  0  0  0  0
  161.5140  209.2160  151.0250 O   0  0  0  0  0  0  0  0  0  0  0  0
  161.8190  209.9260  152.1900 C   0  0  0  0  0  2  0  0  0  0  0  0
  160.5970  210.7210  152.6590 C   0  0  2  0  0  3  0  0  0  0  0  0
  160.3930  211.8110  151.8150 O   0  0  0  0  0  1  0  0  0  0  0  0
  160.6920  211.1750  154.0520 N   0  0  0  0  0  0  0  0  0  0  0  0
  159.5250  210.7080  154.7840 C   0  0  0  0  0  1  0  0  0  0  0  0
  161.8750  210.6190  154.7010 C   0  0  0  0  0  1  0  0  0  0  0  0
  1  8  1  0  0  0  0
  1  2  1  0  0  0  0
  4 11  1  0  0  0  0
  4  3  2  0  0  0  0
  5  9  1  0  0  0  0
  5  6  1  1  0  0  0
  7  2  2  0  0  0  0
  7 10  1  0  0  0  0
  8  4  1  0  0  0  0
 10 19  1  6  0  0  0
 10  9  1  0  0  0  0
 11  2  1  6  0  0  0
 11  5  1  0  0  0  0
 12  1  1  0  0  0  0
 13 15  2  0  0  0  0
 13 16  1  0  0  0  0
 14 17  1  0  0  0  0
 14 12  2  0  0  0  0
 15 14  1  0  0  0  0
 16 18  2  0  0  0  0
 18 12  1  0  0  0  0
 19 20  1  0  0  0  0
 20 21  1  0  0  0  0
 21 22  1  6  0  0  0
 21 23  1  0  0  0  0
 23 25  1  0  0  0  0
 23 24  1  0  0  0  0
M  END
>  <MODEL>
3

>  <REMARK>
 VINA RESULT:      -7.3      3.473      6.034
  Name = 
  5 active torsions:
  status: ('A' for Active; 'I' for Inactive)
    1  A    between atoms: N_1  and  C_5
    2  A    between atoms: N_2  and  C_21
    3  A    between atoms: O_6  and  C_15
    4  A    between atoms: O_6  and  C_23
    5  A    between atoms: C_15  and  C_21
                            x       y       z     vdW  Elec       q    Type
                         _______ _______ _______ _____ _____    ______ ____

>  <TORSDO>
F 5

$$$$
=
 OpenBabel11052422053D

 25 27  0  0  1  0  0  0  0  0999 V2000
  161.4930  205.5170  149.5590 N   0  0  0  0  0  0  0  0  0  0  0  0
  161.0920  206.4390  150.5760 C   0  0  0  0  0  0  0  0  0  0  0  0
  161.9710  208.5440  147.8860 N   0  0  0  0  0  2  0  0  0  0  0  0
  161.8960  207.6330  148.7970 C   0  0  0  0  0  0  0  0  0  0  0  0
  162.0630  208.6210  151.1100 C   0  0  1  0  0  3  0  0  0  0  0  0
  162.2600  209.9230  150.6970 F   0  0  0  0  0  0  0  0  0  0  0  0
  161.0020  206.1310  151.8720 C   0  0  0  0  0  3  0  0  0  0  0  0
  161.9860  206.2460  148.4750 N   0  0  0  0  0  2  0  0  0  0  0  0
  161.3670  208.6110  152.4760 C   0  0  0  0  0  2  0  0  0  0  0  0
  160.8330  207.2180  152.9080 C   0  0  2  0  0  3  0  0  0  0  0  0
  161.2030  207.8570  150.1050 C   0  0  2  0  0  3  0  0  0  0  0  0
  161.2260  204.0990  149.5180 C   0  0  0  0  0  0  0  0  0  0  0  0
  160.6870  201.3360  149.4940 C   0  0  0  0  0  3  0  0  0  0  0  0
  161.2000  203.3830  148.2970 C   0  0  0  0  0  0  0  0  0  0  0  0
  160.9250  202.0130  148.2960 C   0  0  0  0  0  3  0  0  0  0  0  0
  160.7180  202.0300  150.7030 C   0  0  0  0  0  3  0  0  0  0  0  0
  161.4590  204.0260  147.0520 N   0  0  0  0  0  1  0  0  0  0  0  0
  160.9850  203.4000  150.7140 C   0  0  0  0  0  3  0  0  0  0  0  0
  161.4400  206.8240  154.1050 O   0  0  0  0  0  0  0  0  0  0  0  0
  160.6630  207.3920  155.1190 C   0  0  0  0  0  2  0  0  0  0  0  0
  161.5300  208.2860  156.0100 C   0  0  2  0  0  3  0  0  0  0  0  0
  161.6880  207.6930  157.2610 O   0  0  0  0  0  1  0  0  0  0  0  0
  161.0040  209.6480  156.1630 N   0  0  0  0  0  0  0  0  0  0  0  0
  161.9190  210.5850  155.5270 C   0  0  0  0  0  1  0  0  0  0  0  0
  159.7060  209.7820  155.5090 C   0  0  0  0  0  1  0  0  0  0  0  0
  1  2  1  0  0  0  0
  2  7  2  0  0  0  0
  3  4  2  0  0  0  0
  5  6  1  6  0  0  0
  5  9  1  0  0  0  0
  7 10  1  0  0  0  0
  8  4  1  0  0  0  0
  8  1  1  0  0  0  0
  9 10  1  0  0  0  0
 10 19  1  1  0  0  0
 11  4  1  6  0  0  0
 11  2  1  0  0  0  0
 11  5  1  0  0  0  0
 12  1  1  0  0  0  0
 12 18  1  0  0  0  0
 13 16  1  0  0  0  0
 14 12  2  0  0  0  0
 15 14  1  0  0  0  0
 15 13  2  0  0  0  0
 16 18  2  0  0  0  0
 17 14  1  0  0  0  0
 19 20  1  0  0  0  0
 20 21  1  0  0  0  0
 21 23  1  0  0  0  0
 21 22  1  1  0  0  0
 24 23  1  0  0  0  0
 25 23  1  0  0  0  0
M  END
>  <MODEL>
4

>  <REMARK>
 VINA RESULT:      -7.2      3.343      6.264
  Name = 
  5 active torsions:
  status: ('A' for Active; 'I' for Inactive)
    1  A    between atoms: N_1  and  C_5
    2  A    between atoms: N_2  and  C_21
    3  A    between atoms: O_6  and  C_15
    4  A    between atoms: O_6  and  C_23
    5  A    between atoms: C_15  and  C_21
                            x       y       z     vdW  Elec       q    Type
                         _______ _______ _______ _____ _____    ______ ____

>  <TORSDO>
F 5

$$$$
=
 OpenBabel11052422053D

 25 27  0  0  1  0  0  0  0  0999 V2000
  161.2180  205.1460  150.0190 N   0  0  0  0  0  0  0  0  0  0  0  0
  161.8240  206.4300  150.1880 C   0  0  0  0  0  0  0  0  0  0  0  0
  161.2110  205.3900  153.5020 N   0  0  0  0  0  2  0  0  0  0  0  0
  161.1650  205.6680  152.2430 C   0  0  0  0  0  0  0  0  0  0  0  0
  161.2860  208.1540  151.8390 C   0  0  1  0  0  3  0  0  0  0  0  0
  161.3070  208.5160  153.1720 F   0  0  0  0  0  0  0  0  0  0  0  0
  161.9180  207.3460  149.2220 C   0  0  0  0  0  3  0  0  0  0  0  0
  160.8130  204.6840  151.2730 N   0  0  0  0  0  2  0  0  0  0  0  0
  162.0330  209.2030  151.0070 C   0  0  0  0  0  2  0  0  0  0  0  0
  162.3290  208.7640  149.5470 C   0  0  2  0  0  3  0  0  0  0  0  0
  161.9470  206.7920  151.6370 C   0  0  2  0  0  3  0  0  0  0  0  0
  161.2240  204.3330  148.8270 C   0  0  0  0  0  0  0  0  0  0  0  0
  161.2640  202.7900  146.4730 C   0  0  0  0  0  3  0  0  0  0  0  0
  160.9370  202.9470  148.8710 C   0  0  0  0  0  0  0  0  0  0  0  0
  160.9660  202.1890  147.6980 C   0  0  0  0  0  3  0  0  0  0  0  0
  161.5410  204.1550  146.4160 C   0  0  0  0  0  3  0  0  0  0  0  0
  160.6060  202.2950  150.0940 N   0  0  0  0  0  1  0  0  0  0  0  0
  161.5200  204.9190  147.5840 C   0  0  0  0  0  3  0  0  0  0  0  0
  161.7180  209.6470  148.6500 O   0  0  0  0  0  0  0  0  0  0  0  0
  161.9900  210.9250  149.1460 C   0  0  0  0  0  2  0  0  0  0  0  0
  162.1110  211.9240  147.9910 C   0  0  2  0  0  3  0  0  0  0  0  0
  163.3970  212.4570  147.9620 O   0  0  0  0  0  1  0  0  0  0  0  0
  161.1190  213.0060  148.0460 N   0  0  0  0  0  0  0  0  0  0  0  0
  161.8130  214.2850  148.0460 C   0  0  0  0  0  1  0  0  0  0  0  0
  160.2470  212.9730  146.8770 C   0  0  0  0  0  1  0  0  0  0  0  0
  1  2  1  0  0  0  0
  1  8  1  0  0  0  0
  4  3  2  0  0  0  0
  5  6  1  1  0  0  0
  7 10  1  0  0  0  0
  7  2  2  0  0  0  0
  8  4  1  0  0  0  0
  9  5  1  0  0  0  0
 10 19  1  6  0  0  0
 10  9  1  0  0  0  0
 11  2  1  6  0  0  0
 11  5  1  0  0  0  0
 11  4  1  0  0  0  0
 12 14  1  0  0  0  0
 12  1  1  0  0  0  0
 13 15  1  0  0  0  0
 14 17  1  0  0  0  0
 15 14  2  0  0  0  0
 16 13  2  0  0  0  0
 16 18  1  0  0  0  0
 18 12  2  0  0  0  0
 19 20  1  0  0  0  0
 21 22  1  1  0  0  0
 21 23  1  0  0  0  0
 21 20  1  0  0  0  0
 24 23  1  0  0  0  0
 25 23  1  0  0  0  0
M  END
>  <MODEL>
5

>  <REMARK>
 VINA RESULT:      -7.2      3.915      6.526
  Name = 
  5 active torsions:
  status: ('A' for Active; 'I' for Inactive)
    1  A    between atoms: N_1  and  C_5
    2  A    between atoms: N_2  and  C_21
    3  A    between atoms: O_6  and  C_15
    4  A    between atoms: O_6  and  C_23
    5  A    between atoms: C_15  and  C_21
                            x       y       z     vdW  Elec       q    Type
                         _______ _______ _______ _____ _____    ______ ____

>  <TORSDO>
F 5

$$$$
=
 OpenBabel11052422053D

 25 27  0  0  1  0  0  0  0  0999 V2000
  161.1560  208.5590  153.0120 N   0  0  0  0  0  0  0  0  0  0  0  0
  161.5950  207.5790  152.0680 C   0  0  0  0  0  0  0  0  0  0  0  0
  161.9700  210.6130  150.3080 N   0  0  0  0  0  2  0  0  0  0  0  0
  161.5770  209.6200  151.0320 C   0  0  0  0  0  0  0  0  0  0  0  0
  161.2380  207.5410  149.6470 C   0  0  1  0  0  3  0  0  0  0  0  0
  161.5330  208.1270  148.4330 F   0  0  0  0  0  0  0  0  0  0  0  0
  161.3160  206.2770  152.1580 C   0  0  0  0  0  3  0  0  0  0  0  0
  161.1420  209.8030  152.3780 N   0  0  0  0  0  2  0  0  0  0  0  0
  161.5990  206.0520  149.6040 C   0  0  0  0  0  2  0  0  0  0  0  0
  161.5860  205.3530  150.9920 C   0  0  2  0  0  3  0  0  0  0  0  0
  162.0170  208.2120  150.7770 C   0  0  2  0  0  3  0  0  0  0  0  0
  160.9850  208.3800  154.4340 C   0  0  0  0  0  0  0  0  0  0  0  0
  160.6330  207.9770  157.1980 C   0  0  0  0  0  3  0  0  0  0  0  0
  161.5540  209.2780  155.3690 C   0  0  0  0  0  0  0  0  0  0  0  0
  161.3780  209.0650  156.7390 C   0  0  0  0  0  3  0  0  0  0  0  0
  160.0630  207.0890  156.2850 C   0  0  0  0  0  3  0  0  0  0  0  0
  162.3020  210.4160  154.9490 N   0  0  0  0  0  1  0  0  0  0  0  0
  160.2380  207.2910  154.9150 C   0  0  0  0  0  3  0  0  0  0  0  0
  160.6540  204.3110  150.9930 O   0  0  0  0  0  0  0  0  0  0  0  0
  160.5900  203.8700  149.6680 C   0  0  0  0  0  2  0  0  0  0  0  0
  160.3600  202.3560  149.6270 C   0  0  2  0  0  3  0  0  0  0  0  0
  161.2020  201.7270  150.5400 O   0  0  0  0  0  1  0  0  0  0  0  0
  160.5410  201.7720  148.2910 N   0  0  0  0  0  0  0  0  0  0  0  0
  161.2070  202.7430  147.4360 C   0  0  0  0  0  1  0  0  0  0  0  0
  161.3820  200.5820  148.3520 C   0  0  0  0  0  1  0  0  0  0  0  0
  1 12  1  0  0  0  0
  2  7  2  0  0  0  0
  2  1  1  0  0  0  0
  3  4  2  0  0  0  0
  4  8  1  0  0  0  0
  5  6  1  6  0  0  0
  5 11  1  0  0  0  0
  8  1  1  0  0  0  0
  9  5  1  0  0  0  0
  9 10  1  0  0  0  0
 10 19  1  6  0  0  0
 10  7  1  0  0  0  0
 11  4  1  1  0  0  0
 11  2  1  0  0  0  0
 12 18  2  0  0  0  0
 12 14  1  0  0  0  0
 14 15  2  0  0  0  0
 15 13  1  0  0  0  0
 16 13  2  0  0  0  0
 17 14  1  0  0  0  0
 18 16  1  0  0  0  0
 20 19  1  0  0  0  0
 21 20  1  0  0  0  0
 21 22  1  1  0  0  0
 23 25  1  0  0  0  0
 23 21  1  0  0  0  0
 24 23  1  0  0  0  0
M  END
>  <MODEL>
6

>  <REMARK>
 VINA RESULT:      -7.1      2.965      6.068
  Name = 
  5 active torsions:
  status: ('A' for Active; 'I' for Inactive)
    1  A    between atoms: N_1  and  C_5
    2  A    between atoms: N_2  and  C_21
    3  A    between atoms: O_6  and  C_15
    4  A    between atoms: O_6  and  C_23
    5  A    between atoms: C_15  and  C_21
                            x       y       z     vdW  Elec       q    Type
                         _______ _______ _______ _____ _____    ______ ____

>  <TORSDO>
F 5

$$$$
=
 OpenBabel11052422053D

 25 27  0  0  1  0  0  0  0  0999 V2000
  161.6690  207.1150  151.1610 N   0  0  0  0  0  0  0  0  0  0  0  0
  161.0910  205.8930  150.6950 C   0  0  0  0  0  0  0  0  0  0  0  0
  161.1090  205.4880  154.1990 N   0  0  0  0  0  2  0  0  0  0  0  0
  161.3730  205.7400  152.9610 C   0  0  0  0  0  0  0  0  0  0  0  0
  161.4130  203.6330  151.5770 C   0  0  1  0  0  3  0  0  0  0  0  0
  161.1850  202.7660  152.6270 F   0  0  0  0  0  0  0  0  0  0  0  0
  161.1930  205.4480  149.4410 C   0  0  0  0  0  3  0  0  0  0  0  0
  161.8440  207.0200  152.5430 N   0  0  0  0  0  2  0  0  0  0  0  0
  160.8540  203.0340  150.2810 C   0  0  0  0  0  2  0  0  0  0  0  0
  160.7870  204.0340  149.0940 C   0  0  2  0  0  3  0  0  0  0  0  0
  160.7440  204.9820  151.8330 C   0  0  2  0  0  3  0  0  0  0  0  0
  161.8300  208.3400  150.4140 C   0  0  0  0  0  0  0  0  0  0  0  0
  162.1300  210.7000  148.9090 C   0  0  0  0  0  3  0  0  0  0  0  0
  161.8970  209.5990  151.0580 C   0  0  0  0  0  0  0  0  0  0  0  0
  162.0400  210.7650  150.3010 C   0  0  0  0  0  3  0  0  0  0  0  0
  162.0720  209.4640  148.2640 C   0  0  0  0  0  3  0  0  0  0  0  0
  161.8330  209.7140  152.4770 N   0  0  0  0  0  1  0  0  0  0  0  0
  161.9240  208.2950  149.0120 C   0  0  0  0  0  3  0  0  0  0  0  0
  161.5710  203.5680  148.0330 O   0  0  0  0  0  0  0  0  0  0  0  0
  161.7700  204.6760  147.2050 C   0  0  0  0  0  2  0  0  0  0  0  0
  161.7160  204.2520  145.7340 C   0  0  2  0  0  3  0  0  0  0  0  0
  162.9940  204.3010  145.1830 O   0  0  0  0  0  1  0  0  0  0  0  0
  160.7890  205.0550  144.9270 N   0  0  0  0  0  0  0  0  0  0  0  0
  160.3900  206.2280  145.6900 C   0  0  0  0  0  1  0  0  0  0  0  0
  161.4320  205.5190  143.7020 C   0  0  0  0  0  1  0  0  0  0  0  0
  1  8  1  0  0  0  0
  2  1  1  0  0  0  0
  4  3  2  0  0  0  0
  5 11  1  0  0  0  0
  5  6  1  1  0  0  0
  7  2  2  0  0  0  0
  8  4  1  0  0  0  0
  9  5  1  0  0  0  0
 10 19  1  6  0  0  0
 10  7  1  0  0  0  0
 10  9  1  0  0  0  0
 11  2  1  6  0  0  0
 11  4  1  0  0  0  0
 12 14  1  0  0  0  0
 12  1  1  0  0  0  0
 13 15  1  0  0  0  0
 14 17  1  0  0  0  0
 15 14  2  0  0  0  0
 16 13  2  0  0  0  0
 16 18  1  0  0  0  0
 18 12  2  0  0  0  0
 20 19  1  0  0  0  0
 21 22  1  6  0  0  0
 21 20  1  0  0  0  0
 23 24  1  0  0  0  0
 23 21  1  0  0  0  0
 25 23  1  0  0  0  0
M  END
>  <MODEL>
7

>  <REMARK>
 VINA RESULT:      -7.1      2.551      4.658
  Name = 
  5 active torsions:
  status: ('A' for Active; 'I' for Inactive)
    1  A    between atoms: N_1  and  C_5
    2  A    between atoms: N_2  and  C_21
    3  A    between atoms: O_6  and  C_15
    4  A    between atoms: O_6  and  C_23
    5  A    between atoms: C_15  and  C_21
                            x       y       z     vdW  Elec       q    Type
                         _______ _______ _______ _____ _____    ______ ____

>  <TORSDO>
F 5

$$$$
=
 OpenBabel11052422053D

 25 27  0  0  1  0  0  0  0  0999 V2000
  161.2490  206.4340  152.0790 N   0  0  0  0  0  0  0  0  0  0  0  0
  160.7900  206.0660  150.7770 C   0  0  0  0  0  0  0  0  0  0  0  0
  160.8790  202.9870  152.4940 N   0  0  0  0  0  2  0  0  0  0  0  0
  161.1060  204.1550  151.9950 C   0  0  0  0  0  0  0  0  0  0  0  0
  161.3390  204.0610  149.4860 C   0  0  1  0  0  3  0  0  0  0  0  0
  161.2080  202.6910  149.3800 F   0  0  0  0  0  0  0  0  0  0  0  0
  160.9230  206.8340  149.6930 C   0  0  0  0  0  3  0  0  0  0  0  0
  161.4450  205.2670  152.8210 N   0  0  0  0  0  2  0  0  0  0  0  0
  160.8300  204.7300  148.2050 C   0  0  0  0  0  2  0  0  0  0  0  0
  160.6550  206.2690  148.3160 C   0  0  2  0  0  3  0  0  0  0  0  0
  160.5440  204.5910  150.6780 C   0  0  2  0  0  3  0  0  0  0  0  0
  161.2820  207.7610  152.6470 C   0  0  0  0  0  0  0  0  0  0  0  0
  161.3540  210.3710  153.6990 C   0  0  0  0  0  3  0  0  0  0  0  0
  160.8830  208.0080  153.9820 C   0  0  0  0  0  0  0  0  0  0  0  0
  160.9160  209.3090  154.4930 C   0  0  0  0  0  3  0  0  0  0  0  0
  161.7570  210.1380  152.3840 C   0  0  0  0  0  3  0  0  0  0  0  0
  160.4500  206.9530  154.8370 N   0  0  0  0  0  1  0  0  0  0  0  0
  161.7210  208.8430  151.8640 C   0  0  0  0  0  3  0  0  0  0  0  0
  161.4700  206.9120  147.3780 O   0  0  0  0  0  0  0  0  0  0  0  0
  162.0260  205.8870  146.6080 C   0  0  0  0  0  2  0  0  0  0  0  0
  161.4180  205.8950  145.2020 C   0  0  2  0  0  3  0  0  0  0  0  0
  160.1160  206.3860  145.2550 O   0  0  0  0  0  1  0  0  0  0  0  0
  161.4340  204.5800  144.5490 N   0  0  0  0  0  0  0  0  0  0  0  0
  162.2810  203.6790  145.3170 C   0  0  0  0  0  1  0  0  0  0  0  0
  160.0940  204.0030  144.5080 C   0  0  0  0  0  1  0  0  0  0  0  0
  1 12  1  0  0  0  0
  1  8  1  0  0  0  0
  2  1  1  0  0  0  0
  4  3  2  0  0  0  0
  4  8  1  0  0  0  0
  5  6  1  6  0  0  0
  5 11  1  0  0  0  0
  7  2  2  0  0  0  0
  9 10  1  0  0  0  0
  9  5  1  0  0  0  0
 10 19  1  6  0  0  0
 10  7  1  0  0  0  0
 11  2  1  1  0  0  0
 11  4  1  0  0  0  0
 12 14  1  0  0  0  0
 13 15  1  0  0  0  0
 14 15  2  0  0  0  0
 14 17  1  0  0  0  0
 16 13  2  0  0  0  0
 18 16  1  0  0  0  0
 18 12  2  0  0  0  0
 20 19  1  0  0  0  0
 21 22  1  1  0  0  0
 21 20  1  0  0  0  0
 23 21  1  0  0  0  0
 23 24  1  0  0  0  0
 25 23  1  0  0  0  0
M  END
>  <MODEL>
8

>  <REMARK>
 VINA RESULT:      -6.9      3.360      5.965
  Name = 
  5 active torsions:
  status: ('A' for Active; 'I' for Inactive)
    1  A    between atoms: N_1  and  C_5
    2  A    between atoms: N_2  and  C_21
    3  A    between atoms: O_6  and  C_15
    4  A    between atoms: O_6  and  C_23
    5  A    between atoms: C_15  and  C_21
                            x       y       z     vdW  Elec       q    Type
                         _______ _______ _______ _____ _____    ______ ____

>  <TORSDO>
F 5

$$$$
=
 OpenBabel11052422053D

 25 27  0  0  1  0  0  0  0  0999 V2000
  161.0860  204.8400  149.5760 N   0  0  0  0  0  0  0  0  0  0  0  0
  161.5880  205.7960  150.5130 C   0  0  0  0  0  0  0  0  0  0  0  0
  160.9110  202.9810  152.5270 N   0  0  0  0  0  2  0  0  0  0  0  0
  160.8990  203.9470  151.6710 C   0  0  0  0  0  0  0  0  0  0  0  0
  160.8530  206.1950  152.8130 C   0  0  1  0  0  3  0  0  0  0  0  0
  160.7900  205.7010  154.1000 F   0  0  0  0  0  0  0  0  0  0  0  0
  161.6550  207.1080  150.2770 C   0  0  0  0  0  3  0  0  0  0  0  0
  160.6630  203.7130  150.2850 N   0  0  0  0  0  2  0  0  0  0  0  0
  161.5550  207.5570  152.8150 C   0  0  0  0  0  2  0  0  0  0  0  0
  161.9450  208.0750  151.4030 C   0  0  2  0  0  3  0  0  0  0  0  0
  161.6210  205.2380  151.9030 C   0  0  2  0  0  3  0  0  0  0  0  0
  161.2030  204.8870  148.1390 C   0  0  0  0  0  0  0  0  0  0  0  0
  161.4420  205.0370  145.3380 C   0  0  0  0  0  3  0  0  0  0  0  0
  161.3520  203.7100  147.3660 C   0  0  0  0  0  0  0  0  0  0  0  0
  161.4760  203.7950  145.9770 C   0  0  0  0  0  3  0  0  0  0  0  0
  161.2900  206.2020  146.0880 C   0  0  0  0  0  3  0  0  0  0  0  0
  161.3690  202.4190  147.9710 N   0  0  0  0  0  1  0  0  0  0  0  0
  161.1710  206.1260  147.4760 C   0  0  0  0  0  3  0  0  0  0  0  0
  161.3100  209.2950  151.1500 O   0  0  0  0  0  0  0  0  0  0  0  0
  162.3070  210.1340  150.6450 C   0  0  0  0  0  2  0  0  0  0  0  0
  161.8930  210.6810  149.2750 C   0  0  2  0  0  3  0  0  0  0  0  0
  162.3680  209.8410  148.2700 O   0  0  0  0  0  1  0  0  0  0  0  0
  162.3430  212.0580  149.0340 N   0  0  0  0  0  0  0  0  0  0  0  0
  163.1100  212.0960  147.7970 C   0  0  0  0  0  1  0  0  0  0  0  0
  161.2050  212.9580  148.8780 C   0  0  0  0  0  1  0  0  0  0  0  0
  1  8  1  0  0  0  0
  1  2  1  0  0  0  0
  4 11  1  0  0  0  0
  4  3  2  0  0  0  0
  5  9  1  0  0  0  0
  5  6  1  1  0  0  0
  7  2  2  0  0  0  0
  7 10  1  0  0  0  0
  8  4  1  0  0  0  0
 10 19  1  6  0  0  0
 10  9  1  0  0  0  0
 11  2  1  6  0  0  0
 11  5  1  0  0  0  0
 12  1  1  0  0  0  0
 13 15  2  0  0  0  0
 13 16  1  0  0  0  0
 14 17  1  0  0  0  0
 14 12  2  0  0  0  0
 15 14  1  0  0  0  0
 16 18  2  0  0  0  0
 18 12  1  0  0  0  0
 20 19  1  0  0  0  0
 21 22  1  6  0  0  0
 21 20  1  0  0  0  0
 23 21  1  0  0  0  0
 24 23  1  0  0  0  0
 25 23  1  0  0  0  0
M  END
>  <MODEL>
9

>  <REMARK>
 VINA RESULT:      -6.8      3.230      5.786
  Name = 
  5 active torsions:
  status: ('A' for Active; 'I' for Inactive)
    1  A    between atoms: N_1  and  C_5
    2  A    between atoms: N_2  and  C_21
    3  A    between atoms: O_6  and  C_15
    4  A    between atoms: O_6  and  C_23
    5  A    between atoms: C_15  and  C_21
                            x       y       z     vdW  Elec       q    Type
                         _______ _______ _______ _____ _____    ______ ____

>  <TORSDO>
F 5

$$$$
