=
 OpenBabel11052422043D

 30 32  0  0  1  0  0  0  0  0999 V2000
  162.2580  205.4390  151.6380 C   0  0  2  0  0  3  0  0  0  0  0  0
  161.0330  203.9700  149.0700 C   0  0  2  0  0  3  0  0  0  0  0  0
  159.8720  206.6010  149.1030 O   0  0  0  0  0  1  0  0  0  0  0  0
  161.8110  205.2180  148.9700 N   0  0  0  0  0  0  0  0  0  0  0  0
  161.5220  204.1090  151.7830 C   0  0  0  0  0  2  0  0  0  0  0  0
  162.8050  205.7990  153.0120 C   0  0  0  0  0  1  0  0  0  0  0  0
  159.8290  203.9630  150.0070 C   0  0  0  0  0  2  0  0  0  0  0  0
  161.1430  203.3890  150.4830 C   0  0  1  0  0  0  0  0  0  0  0  0
  161.1950  206.4350  149.5280 C   0  0  2  0  0  3  0  0  0  0  0  0
  161.0520  202.0000  150.5650 O   0  0  0  0  0  1  0  0  0  0  0  0
  161.3200  206.5270  151.0600 C   0  0  2  0  0  3  0  0  0  0  0  0
  161.7280  207.9520  151.4880 C   0  0  1  0  0  3  0  0  0  0  0  0
  162.3120  208.6550  150.4310 O   0  0  0  0  0  1  0  0  0  0  0  0
  160.6120  208.7760  152.1400 C   0  0  2  0  0  3  0  0  0  0  0  0
  161.1840  211.2450  151.2240 O   0  0  0  0  0  0  0  0  0  0  0  0
  162.4920  210.4350  153.1210 O   0  0  0  0  0  0  0  0  0  0  0  0
  161.1250  210.4520  152.5000 S   0  0  0  0  0  0  0  0  0  0  0  0
  159.9940  211.2160  153.6090 C   0  0  0  0  0  0  0  0  0  0  0  0
  160.4130  211.6500  154.7940 C   0  0  0  0  0  2  0  0  0  0  0  0
  158.2960  211.3560  153.1860 Cl  0  0  0  0  0  0  0  0  0  0  0  0
  160.1240  208.1590  153.2950 O   0  0  0  0  0  0  0  0  0  0  0  0
  161.1960  208.1660  154.1860 C   0  0  0  0  0  2  0  0  0  0  0  0
  161.8490  208.6610  156.7810 S   0  0  0  0  0  1  0  0  0  0  0  0
  160.6820  207.9450  155.5930 C   0  0  0  0  0  2  0  0  0  0  0  0
  162.0770  205.4490  147.5580 C   0  0  0  0  0  2  0  0  0  0  0  0
  162.1520  204.1450  146.8380 C   0  0  0  0  0  3  0  0  0  0  0  0
  161.1410  203.7510  146.0710 C   0  0  0  0  0  3  0  0  0  0  0  0
  161.2140  202.4490  145.3500 C   0  0  0  0  0  3  0  0  0  0  0  0
  160.5780  201.3710  146.2040 C   0  0  0  0  0  2  0  0  0  0  0  0
  159.8100  201.9720  145.0480 C   0  0  0  0  0  2  0  0  0  0  0  0
  1  5  1  0  0  0  0
  1  6  1  1  0  0  0
  2  7  1  1  0  0  0
  2  8  1  0  0  0  0
  4  2  1  0  0  0  0
  4  9  1  0  0  0  0
  7  8  1  0  0  0  0
  8 10  1  1  0  0  0
  8  5  1  0  0  0  0
  9  3  1  1  0  0  0
  9 11  1  0  0  0  0
 11 12  1  6  0  0  0
 11  1  1  0  0  0  0
 12 13  1  6  0  0  0
 12 14  1  0  0  0  0
 14 17  1  0  0  0  0
 14 21  1  1  0  0  0
 15 17  2  0  0  0  0
 17 16  2  0  0  0  0
 17 18  1  0  0  0  0
 18 19  2  0  0  0  0
 20 18  1  0  0  0  0
 21 22  1  0  0  0  0
 22 24  1  0  0  0  0
 24 23  1  0  0  0  0
 25  4  1  0  0  0  0
 26 25  1  0  0  0  0
 27 26  2  0  0  0  0
 28 27  1  0  0  0  0
 28 29  1  0  0  0  0
 30 28  1  0  0  0  0
 30 29  1  0  0  0  0
M  END
>  <MODEL>
1

>  <REMARK>
 VINA RESULT:      -5.5      0.000      0.000
  Name = 
  10 active torsions:
  status: ('A' for Active; 'I' for Inactive)
    1  A    between atoms: C_1  and  C_4
    2  A    between atoms: C_1  and  C_29
    3  A    between atoms: C_4  and  O_5
    4  A    between atoms: C_4  and  S_12
    5  A    between atoms: O_5  and  C_21
    6  A    between atoms: C_10  and  C_25
    7  A    between atoms: N_11  and  C_24
    8  A    between atoms: S_12  and  C_13
    9  A    between atoms: C_15  and  C_24
   10  A    between atoms: C_17  and  C_21
                            x       y       z     vdW  Elec       q    Type
                         _______ _______ _______ _____ _____    ______ ____

>  <TORSDO>
F 10

$$$$
=
 OpenBabel11052422043D

 30 32  0  0  1  0  0  0  0  0999 V2000
  160.3160  204.7720  150.9440 C   0  0  2  0  0  3  0  0  0  0  0  0
  161.7430  207.2180  152.4390 C   0  0  2  0  0  3  0  0  0  0  0  0
  162.8650  207.1480  149.7910 O   0  0  0  0  0  1  0  0  0  0  0  0
  160.9580  207.3970  151.2040 N   0  0  0  0  0  0  0  0  0  0  0  0
  161.0560  204.5510  152.2610 C   0  0  0  0  0  2  0  0  0  0  0  0
  159.6660  203.4480  150.5680 C   0  0  0  0  0  1  0  0  0  0  0  0
  162.8760  206.1970  152.4130 C   0  0  0  0  0  2  0  0  0  0  0  0
  161.5380  205.8060  152.9970 C   0  0  1  0  0  0  0  0  0  0  0  0
  161.5160  206.8180  149.9690 C   0  0  2  0  0  3  0  0  0  0  0  0
  161.6410  205.6930  154.3830 O   0  0  0  0  0  1  0  0  0  0  0  0
  161.2790  205.3010  149.8530 C   0  0  2  0  0  3  0  0  0  0  0  0
  160.8230  204.9290  148.4270 C   0  0  1  0  0  3  0  0  0  0  0  0
  160.4480  206.0610  147.6990 O   0  0  0  0  0  1  0  0  0  0  0  0
  161.8170  204.0740  147.6310 C   0  0  2  0  0  3  0  0  0  0  0  0
  163.7700  204.3400  145.7930 O   0  0  0  0  0  0  0  0  0  0  0  0
  162.6290  206.3800  146.5020 O   0  0  0  0  0  0  0  0  0  0  0  0
  162.4410  204.9240  146.1850 S   0  0  0  0  0  0  0  0  0  0  0  0
  161.3140  204.7630  144.8450 C   0  0  0  0  0  0  0  0  0  0  0  0
  161.2390  205.7150  143.9200 C   0  0  0  0  0  2  0  0  0  0  0  0
  160.2420  203.3760  144.7500 Cl  0  0  0  0  0  0  0  0  0  0  0  0
  161.2630  202.8430  147.2700 O   0  0  0  0  0  0  0  0  0  0  0  0
  161.3120  202.0740  148.4330 C   0  0  0  0  0  2  0  0  0  0  0  0
  160.9980  200.4240  146.2930 S   0  0  0  0  0  1  0  0  0  0  0  0
  161.3380  200.6060  148.0630 C   0  0  0  0  0  2  0  0  0  0  0  0
  160.7920  208.8280  151.0010 C   0  0  0  0  0  2  0  0  0  0  0  0
  160.8800  209.5380  152.3100 C   0  0  0  0  0  3  0  0  0  0  0  0
  160.1510  210.6280  152.5230 C   0  0  0  0  0  3  0  0  0  0  0  0
  160.2360  211.3390  153.8300 C   0  0  0  0  0  3  0  0  0  0  0  0
  159.3800  212.5870  153.7740 C   0  0  0  0  0  2  0  0  0  0  0  0
  158.8680  211.3500  154.4770 C   0  0  0  0  0  2  0  0  0  0  0  0
  1  6  1  6  0  0  0
  1  5  1  0  0  0  0
  2  7  1  6  0  0  0
  2  8  1  0  0  0  0
  4  2  1  0  0  0  0
  5  8  1  0  0  0  0
  7  8  1  0  0  0  0
  8 10  1  1  0  0  0
  9  3  1  1  0  0  0
  9  4  1  0  0  0  0
 11 12  1  6  0  0  0
 11  9  1  0  0  0  0
 11  1  1  0  0  0  0
 12 13  1  6  0  0  0
 14 21  1  6  0  0  0
 14 12  1  0  0  0  0
 15 17  2  0  0  0  0
 17 16  2  0  0  0  0
 17 14  1  0  0  0  0
 18 17  1  0  0  0  0
 19 18  2  0  0  0  0
 20 18  1  0  0  0  0
 21 22  1  0  0  0  0
 23 24  1  0  0  0  0
 24 22  1  0  0  0  0
 25  4  1  0  0  0  0
 25 26  1  0  0  0  0
 26 27  2  0  0  0  0
 27 28  1  0  0  0  0
 28 30  1  0  0  0  0
 29 28  1  0  0  0  0
 29 30  1  0  0  0  0
M  END
>  <MODEL>
2

>  <REMARK>
 VINA RESULT:      -5.4      3.965      8.081
  Name = 
  10 active torsions:
  status: ('A' for Active; 'I' for Inactive)
    1  A    between atoms: C_1  and  C_4
    2  A    between atoms: C_1  and  C_29
    3  A    between atoms: C_4  and  O_5
    4  A    between atoms: C_4  and  S_12
    5  A    between atoms: O_5  and  C_21
    6  A    between atoms: C_10  and  C_25
    7  A    between atoms: N_11  and  C_24
    8  A    between atoms: S_12  and  C_13
    9  A    between atoms: C_15  and  C_24
   10  A    between atoms: C_17  and  C_21
                            x       y       z     vdW  Elec       q    Type
                         _______ _______ _______ _____ _____    ______ ____

>  <TORSDO>
F 10

$$$$
=
 OpenBabel11052422043D

 30 32  0  0  1  0  0  0  0  0999 V2000
  159.5490  210.6640  152.5490 C   0  0  2  0  0  3  0  0  0  0  0  0
  161.9660  208.6030  152.1380 C   0  0  2  0  0  3  0  0  0  0  0  0
  161.8710  209.1550  154.9590 O   0  0  0  0  0  1  0  0  0  0  0  0
  160.8100  208.3020  153.0000 N   0  0  0  0  0  0  0  0  0  0  0  0
  160.6910  210.9890  151.5880 C   0  0  0  0  0  2  0  0  0  0  0  0
  158.5260  211.7830  152.4220 C   0  0  0  0  0  1  0  0  0  0  0  0
  162.7320  209.8940  152.4110 C   0  0  0  0  0  2  0  0  0  0  0  0
  161.6970  209.8650  151.3110 C   0  0  1  0  0  0  0  0  0  0  0  0
  160.6740  209.0930  154.2360 C   0  0  2  0  0  3  0  0  0  0  0  0
  162.3250  209.9080  150.0670 O   0  0  0  0  0  1  0  0  0  0  0  0
  160.0790  210.4930  153.9940 C   0  0  2  0  0  3  0  0  0  0  0  0
  159.0130  210.8220  155.0600 C   0  0  1  0  0  3  0  0  0  0  0  0
  158.6200  209.6780  155.7600 O   0  0  0  0  0  1  0  0  0  0  0  0
  159.3910  211.9500  156.0280 C   0  0  2  0  0  3  0  0  0  0  0  0
  158.7890  214.0490  154.4500 O   0  0  0  0  0  0  0  0  0  0  0  0
  158.6980  214.4130  156.8640 O   0  0  0  0  0  0  0  0  0  0  0  0
  158.4160  213.4270  155.7660 S   0  0  0  0  0  0  0  0  0  0  0  0
  156.7010  213.0380  155.7630 C   0  0  0  0  0  0  0  0  0  0  0  0
  155.9130  213.5090  154.8020 C   0  0  0  0  0  2  0  0  0  0  0  0
  156.0090  212.0750  157.0590 Cl  0  0  0  0  0  0  0  0  0  0  0  0
  160.7550  212.2490  155.9620 O   0  0  0  0  0  0  0  0  0  0  0  0
  161.2310  212.0380  157.2550 C   0  0  0  0  0  2  0  0  0  0  0  0
  163.5800  211.1740  156.1880 S   0  0  0  0  0  1  0  0  0  0  0  0
  162.1580  210.8410  157.2600 C   0  0  0  0  0  2  0  0  0  0  0  0
  160.8990  206.8970  153.3670 C   0  0  0  0  0  2  0  0  0  0  0  0
  161.5070  206.1200  152.2480 C   0  0  0  0  0  3  0  0  0  0  0  0
  161.1360  204.8610  152.0370 C   0  0  0  0  0  3  0  0  0  0  0  0
  161.7420  204.0830  150.9200 C   0  0  0  0  0  3  0  0  0  0  0  0
  160.7880  202.9800  150.5080 C   0  0  0  0  0  2  0  0  0  0  0  0
  160.8840  204.2440  149.6830 C   0  0  0  0  0  2  0  0  0  0  0  0
  1  6  1  1  0  0  0
  1 11  1  0  0  0  0
  2  7  1  1  0  0  0
  2  4  1  0  0  0  0
  4 25  1  0  0  0  0
  4  9  1  0  0  0  0
  5  1  1  0  0  0  0
  8 10  1  6  0  0  0
  8  5  1  0  0  0  0
  8  2  1  0  0  0  0
  8  7  1  0  0  0  0
  9  3  1  6  0  0  0
 11  9  1  0  0  0  0
 11 12  1  1  0  0  0
 12 13  1  1  0  0  0
 12 14  1  0  0  0  0
 14 21  1  6  0  0  0
 15 17  2  0  0  0  0
 17 14  1  0  0  0  0
 17 16  2  0  0  0  0
 18 17  1  0  0  0  0
 18 20  1  0  0  0  0
 19 18  2  0  0  0  0
 21 22  1  0  0  0  0
 22 24  1  0  0  0  0
 23 24  1  0  0  0  0
 26 25  1  0  0  0  0
 27 26  2  0  0  0  0
 28 27  1  0  0  0  0
 29 28  1  0  0  0  0
 30 29  1  0  0  0  0
 30 28  1  0  0  0  0
M  END
>  <MODEL>
3

>  <REMARK>
 VINA RESULT:      -5.3      3.172      5.692
  Name = 
  10 active torsions:
  status: ('A' for Active; 'I' for Inactive)
    1  A    between atoms: C_1  and  C_4
    2  A    between atoms: C_1  and  C_29
    3  A    between atoms: C_4  and  O_5
    4  A    between atoms: C_4  and  S_12
    5  A    between atoms: O_5  and  C_21
    6  A    between atoms: C_10  and  C_25
    7  A    between atoms: N_11  and  C_24
    8  A    between atoms: S_12  and  C_13
    9  A    between atoms: C_15  and  C_24
   10  A    between atoms: C_17  and  C_21
                            x       y       z     vdW  Elec       q    Type
                         _______ _______ _______ _____ _____    ______ ____

>  <TORSDO>
F 10

$$$$
=
 OpenBabel11052422043D

 30 32  0  0  1  0  0  0  0  0999 V2000
  162.0490  205.6080  152.0620 C   0  0  2  0  0  3  0  0  0  0  0  0
  161.2870  204.4510  149.1740 C   0  0  2  0  0  3  0  0  0  0  0  0
  160.2330  207.1260  149.2560 O   0  0  0  0  0  1  0  0  0  0  0  0
  162.1120  205.6600  149.3480 N   0  0  0  0  0  0  0  0  0  0  0  0
  161.2530  204.3120  151.9310 C   0  0  0  0  0  2  0  0  0  0  0  0
  162.3360  205.8100  153.5420 C   0  0  0  0  0  1  0  0  0  0  0  0
  159.9260  204.4220  149.8640 C   0  0  0  0  0  2  0  0  0  0  0  0
  161.1040  203.7370  150.5170 C   0  0  1  0  0  0  0  0  0  0  0  0
  161.4440  206.8510  149.9010 C   0  0  2  0  0  3  0  0  0  0  0  0
  160.9510  202.3530  150.4400 O   0  0  0  0  0  1  0  0  0  0  0  0
  161.2770  206.7940  151.4310 C   0  0  2  0  0  3  0  0  0  0  0  0
  161.6450  208.1490  152.0690 C   0  0  1  0  0  3  0  0  0  0  0  0
  162.3600  208.9560  151.1800 O   0  0  0  0  0  1  0  0  0  0  0  0
  160.4680  208.9200  152.6780 C   0  0  2  0  0  3  0  0  0  0  0  0
  160.9060  211.3610  151.6250 O   0  0  0  0  0  0  0  0  0  0  0  0
  162.1900  210.7650  153.6160 O   0  0  0  0  0  0  0  0  0  0  0  0
  160.8500  210.6470  152.9470 S   0  0  0  0  0  0  0  0  0  0  0  0
  159.6260  211.3950  153.9640 C   0  0  0  0  0  0  0  0  0  0  0  0
  158.3650  211.4630  153.5490 C   0  0  0  0  0  2  0  0  0  0  0  0
  160.0700  212.1070  155.5060 Cl  0  0  0  0  0  0  0  0  0  0  0  0
  160.0240  208.3290  153.8640 O   0  0  0  0  0  0  0  0  0  0  0  0
  161.1360  208.3380  154.7070 C   0  0  0  0  0  2  0  0  0  0  0  0
  161.9510  209.2570  157.1340 S   0  0  0  0  0  1  0  0  0  0  0  0
  160.6740  208.4340  156.1460 C   0  0  0  0  0  2  0  0  0  0  0  0
  162.6510  206.0060  148.0420 C   0  0  0  0  0  2  0  0  0  0  0  0
  161.7830  205.4380  146.9700 C   0  0  0  0  0  3  0  0  0  0  0  0
  161.2310  206.2420  146.0670 C   0  0  0  0  0  3  0  0  0  0  0  0
  160.3640  205.6770  144.9960 C   0  0  0  0  0  3  0  0  0  0  0  0
  161.2010  205.4220  143.7590 C   0  0  0  0  0  2  0  0  0  0  0  0
  160.8300  204.2740  144.6710 C   0  0  0  0  0  2  0  0  0  0  0  0
  1  6  1  1  0  0  0
  2  4  1  0  0  0  0
  2  7  1  1  0  0  0
  2  8  1  0  0  0  0
  4  9  1  0  0  0  0
  5  1  1  0  0  0  0
  7  8  1  0  0  0  0
  8 10  1  6  0  0  0
  8  5  1  0  0  0  0
  9  3  1  6  0  0  0
  9 11  1  0  0  0  0
 11  1  1  0  0  0  0
 11 12  1  1  0  0  0
 12 13  1  6  0  0  0
 12 14  1  0  0  0  0
 14 17  1  0  0  0  0
 14 21  1  1  0  0  0
 15 17  2  0  0  0  0
 17 16  2  0  0  0  0
 17 18  1  0  0  0  0
 18 20  1  0  0  0  0
 19 18  2  0  0  0  0
 21 22  1  0  0  0  0
 22 24  1  0  0  0  0
 24 23  1  0  0  0  0
 25  4  1  0  0  0  0
 26 25  1  0  0  0  0
 27 26  2  0  0  0  0
 28 27  1  0  0  0  0
 29 30  1  0  0  0  0
 29 28  1  0  0  0  0
 30 28  1  0  0  0  0
M  END
>  <MODEL>
4

>  <REMARK>
 VINA RESULT:      -5.3      1.209      1.547
  Name = 
  10 active torsions:
  status: ('A' for Active; 'I' for Inactive)
    1  A    between atoms: C_1  and  C_4
    2  A    between atoms: C_1  and  C_29
    3  A    between atoms: C_4  and  O_5
    4  A    between atoms: C_4  and  S_12
    5  A    between atoms: O_5  and  C_21
    6  A    between atoms: C_10  and  C_25
    7  A    between atoms: N_11  and  C_24
    8  A    between atoms: S_12  and  C_13
    9  A    between atoms: C_15  and  C_24
   10  A    between atoms: C_17  and  C_21
                            x       y       z     vdW  Elec       q    Type
                         _______ _______ _______ _____ _____    ______ ____

>  <TORSDO>
F 10

$$$$
=
 OpenBabel11052422043D

 30 32  0  0  1  0  0  0  0  0999 V2000
  161.8790  206.7040  152.3080 C   0  0  2  0  0  3  0  0  0  0  0  0
  161.2670  205.9480  149.2560 C   0  0  2  0  0  3  0  0  0  0  0  0
  160.8300  208.7830  149.4700 O   0  0  0  0  0  1  0  0  0  0  0  0
  162.3090  206.9180  149.6360 N   0  0  0  0  0  0  0  0  0  0  0  0
  160.8400  205.6390  151.9660 C   0  0  0  0  0  2  0  0  0  0  0  0
  162.0060  206.7360  153.8240 C   0  0  0  0  0  1  0  0  0  0  0  0
  159.8550  206.1890  149.7820 C   0  0  0  0  0  2  0  0  0  0  0  0
  160.7560  205.2080  150.4970 C   0  0  1  0  0  0  0  0  0  0  0  0
  161.8540  208.1930  150.2190 C   0  0  2  0  0  3  0  0  0  0  0  0
  160.3110  203.9060  150.2730 O   0  0  0  0  0  1  0  0  0  0  0  0
  161.4790  208.0750  151.7080 C   0  0  2  0  0  3  0  0  0  0  0  0
  162.0510  209.2640  152.5090 C   0  0  1  0  0  3  0  0  0  0  0  0
  163.0320  209.9430  151.7840 O   0  0  0  0  0  1  0  0  0  0  0  0
  161.0030  210.2400  153.0550 C   0  0  2  0  0  3  0  0  0  0  0  0
  161.0430  211.8310  155.2300 O   0  0  0  0  0  0  0  0  0  0  0  0
  162.3380  209.7630  155.3440 O   0  0  0  0  0  0  0  0  0  0  0  0
  161.0660  210.3800  154.8380 S   0  0  0  0  0  0  0  0  0  0  0  0
  159.6930  209.5560  155.5670 C   0  0  0  0  0  0  0  0  0  0  0  0
  159.7850  208.2720  155.8960 C   0  0  0  0  0  2  0  0  0  0  0  0
  158.1770  210.4070  155.8100 Cl  0  0  0  0  0  0  0  0  0  0  0  0
  159.7130  209.8970  152.6390 O   0  0  0  0  0  0  0  0  0  0  0  0
  159.0500  211.1150  152.4870 C   0  0  0  0  0  2  0  0  0  0  0  0
  159.1520  213.7250  151.7250 S   0  0  0  0  0  1  0  0  0  0  0  0
  159.9860  212.1210  151.8520 C   0  0  0  0  0  2  0  0  0  0  0  0
  163.0780  207.2160  148.4370 C   0  0  0  0  0  2  0  0  0  0  0  0
  162.4220  206.5980  147.2490 C   0  0  0  0  0  3  0  0  0  0  0  0
  162.9530  205.5190  146.6840 C   0  0  0  0  0  3  0  0  0  0  0  0
  162.2990  204.9000  145.4970 C   0  0  0  0  0  3  0  0  0  0  0  0
  161.5210  203.6770  145.9380 C   0  0  0  0  0  2  0  0  0  0  0  0
  160.7960  204.9760  145.6640 C   0  0  0  0  0  2  0  0  0  0  0  0
  1  6  1  1  0  0  0
  2  4  1  0  0  0  0
  2  7  1  1  0  0  0
  2  8  1  0  0  0  0
  4  9  1  0  0  0  0
  5  1  1  0  0  0  0
  7  8  1  0  0  0  0
  8 10  1  6  0  0  0
  8  5  1  0  0  0  0
  9  3  1  6  0  0  0
  9 11  1  0  0  0  0
 11  1  1  0  0  0  0
 11 12  1  1  0  0  0
 12 13  1  6  0  0  0
 12 14  1  0  0  0  0
 14 21  1  1  0  0  0
 14 17  1  0  0  0  0
 17 15  2  0  0  0  0
 17 16  2  0  0  0  0
 17 18  1  0  0  0  0
 18 20  1  0  0  0  0
 18 19  2  0  0  0  0
 22 21  1  0  0  0  0
 23 24  1  0  0  0  0
 24 22  1  0  0  0  0
 25  4  1  0  0  0  0
 26 25  1  0  0  0  0
 27 26  2  0  0  0  0
 28 30  1  0  0  0  0
 28 29  1  0  0  0  0
 28 27  1  0  0  0  0
 30 29  1  0  0  0  0
M  END
>  <MODEL>
5

>  <REMARK>
 VINA RESULT:      -5.1      1.820      2.927
  Name = 
  10 active torsions:
  status: ('A' for Active; 'I' for Inactive)
    1  A    between atoms: C_1  and  C_4
    2  A    between atoms: C_1  and  C_29
    3  A    between atoms: C_4  and  O_5
    4  A    between atoms: C_4  and  S_12
    5  A    between atoms: O_5  and  C_21
    6  A    between atoms: C_10  and  C_25
    7  A    between atoms: N_11  and  C_24
    8  A    between atoms: S_12  and  C_13
    9  A    between atoms: C_15  and  C_24
   10  A    between atoms: C_17  and  C_21
                            x       y       z     vdW  Elec       q    Type
                         _______ _______ _______ _____ _____    ______ ____

>  <TORSDO>
F 10

$$$$
=
 OpenBabel11052422043D

 30 32  0  0  1  0  0  0  0  0999 V2000
  160.2390  212.4920  155.9550 C   0  0  2  0  0  3  0  0  0  0  0  0
  160.6510  209.6720  154.4920 C   0  0  2  0  0  3  0  0  0  0  0  0
  158.4400  210.9390  153.1570 O   0  0  0  0  0  1  0  0  0  0  0  0
  160.7450  210.9560  153.7740 N   0  0  0  0  0  0  0  0  0  0  0  0
  160.2060  211.1910  156.7540 C   0  0  0  0  0  2  0  0  0  0  0  0
  160.1280  213.6340  156.9540 C   0  0  0  0  0  1  0  0  0  0  0  0
  159.3770  209.4010  155.2860 C   0  0  0  0  0  2  0  0  0  0  0  0
  160.6050  209.9140  156.0040 C   0  0  1  0  0  0  0  0  0  0  0  0
  159.4990  211.7280  153.6210 C   0  0  2  0  0  3  0  0  0  0  0  0
  161.1550  208.9000  156.7860 O   0  0  0  0  0  1  0  0  0  0  0  0
  159.1150  212.5120  154.8900 C   0  0  2  0  0  3  0  0  0  0  0  0
  158.6640  213.9420  154.5290 C   0  0  1  0  0  3  0  0  0  0  0  0
  159.3690  214.4400  153.4310 O   0  0  0  0  0  1  0  0  0  0  0  0
  157.1530  214.1140  154.3300 C   0  0  2  0  0  3  0  0  0  0  0  0
  154.8070  214.2200  155.6510 O   0  0  0  0  0  0  0  0  0  0  0  0
  156.8420  214.4530  156.9830 O   0  0  0  0  0  0  0  0  0  0  0  0
  156.2240  213.7420  155.8120 S   0  0  0  0  0  0  0  0  0  0  0  0
  156.2250  212.0110  156.1200 C   0  0  0  0  0  0  0  0  0  0  0  0
  156.7200  211.5370  157.2590 C   0  0  0  0  0  2  0  0  0  0  0  0
  155.6290  210.8950  154.9030 Cl  0  0  0  0  0  0  0  0  0  0  0  0
  156.6860  213.3500  153.2580 O   0  0  0  0  0  0  0  0  0  0  0  0
  156.3250  214.2810  152.2840 C   0  0  0  0  0  2  0  0  0  0  0  0
  156.2340  213.8020  149.6070 S   0  0  0  0  0  1  0  0  0  0  0  0
  157.2340  214.1290  151.0820 C   0  0  0  0  0  2  0  0  0  0  0  0
  161.2690  210.6710  152.4470 C   0  0  0  0  0  2  0  0  0  0  0  0
  161.9090  209.3240  152.4340 C   0  0  0  0  0  3  0  0  0  0  0  0
  161.4320  208.3700  151.6420 C   0  0  0  0  0  3  0  0  0  0  0  0
  162.0700  207.0230  151.6280 C   0  0  0  0  0  3  0  0  0  0  0  0
  161.1450  206.0270  152.2970 C   0  0  0  0  0  2  0  0  0  0  0  0
  161.2280  206.0860  150.7880 C   0  0  0  0  0  2  0  0  0  0  0  0
  1  5  1  0  0  0  0
  1  6  1  1  0  0  0
  2  7  1  6  0  0  0
  2  8  1  0  0  0  0
  4  2  1  0  0  0  0
  7  8  1  0  0  0  0
  8  5  1  0  0  0  0
  8 10  1  1  0  0  0
  9  3  1  1  0  0  0
  9  4  1  0  0  0  0
  9 11  1  0  0  0  0
 11 12  1  6  0  0  0
 11  1  1  0  0  0  0
 12 13  1  6  0  0  0
 14 21  1  6  0  0  0
 14 12  1  0  0  0  0
 14 17  1  0  0  0  0
 15 17  2  0  0  0  0
 17 18  1  0  0  0  0
 17 16  2  0  0  0  0
 18 19  2  0  0  0  0
 20 18  1  0  0  0  0
 22 21  1  0  0  0  0
 23 24  1  0  0  0  0
 24 22  1  0  0  0  0
 25  4  1  0  0  0  0
 26 25  1  0  0  0  0
 27 26  2  0  0  0  0
 28 27  1  0  0  0  0
 28 29  1  0  0  0  0
 30 28  1  0  0  0  0
 30 29  1  0  0  0  0
M  END
>  <MODEL>
6

>  <REMARK>
 VINA RESULT:      -4.9      4.476      7.545
  Name = 
  10 active torsions:
  status: ('A' for Active; 'I' for Inactive)
    1  A    between atoms: C_1  and  C_4
    2  A    between atoms: C_1  and  C_29
    3  A    between atoms: C_4  and  O_5
    4  A    between atoms: C_4  and  S_12
    5  A    between atoms: O_5  and  C_21
    6  A    between atoms: C_10  and  C_25
    7  A    between atoms: N_11  and  C_24
    8  A    between atoms: S_12  and  C_13
    9  A    between atoms: C_15  and  C_24
   10  A    between atoms: C_17  and  C_21
                            x       y       z     vdW  Elec       q    Type
                         _______ _______ _______ _____ _____    ______ ____

>  <TORSDO>
F 10

$$$$
=
 OpenBabel11052422043D

 30 32  0  0  1  0  0  0  0  0999 V2000
  161.3390  211.4000  150.8470 C   0  0  2  0  0  3  0  0  0  0  0  0
  159.7060  212.3300  153.4410 C   0  0  2  0  0  3  0  0  0  0  0  0
  159.5370  209.4590  153.3880 O   0  0  0  0  0  1  0  0  0  0  0  0
  160.8720  211.4320  153.5210 N   0  0  0  0  0  0  0  0  0  0  0  0
  160.1840  212.3900  150.7230 C   0  0  0  0  0  2  0  0  0  0  0  0
  161.9630  211.2640  149.4660 C   0  0  0  0  0  1  0  0  0  0  0  0
  158.5660  211.9230  152.5130 C   0  0  0  0  0  2  0  0  0  0  0  0
  159.5910  212.9230  152.0330 C   0  0  1  0  0  0  0  0  0  0  0  0
  160.7140  210.0810  152.9560 C   0  0  2  0  0  3  0  0  0  0  0  0
  159.0200  214.1930  151.9660 O   0  0  0  0  0  1  0  0  0  0  0  0
  160.8470  210.0490  151.4220 C   0  0  2  0  0  3  0  0  0  0  0  0
  161.7220  208.8590  150.9760 C   0  0  1  0  0  3  0  0  0  0  0  0
  162.8720  208.7480  151.7610 O   0  0  0  0  0  1  0  0  0  0  0  0
  160.9900  207.5150  150.8860 C   0  0  2  0  0  3  0  0  0  0  0  0
  161.8020  206.4330  153.2170 O   0  0  0  0  0  0  0  0  0  0  0  0
  163.3070  206.2090  151.3060 O   0  0  0  0  0  0  0  0  0  0  0  0
  161.8670  206.2050  151.7320 S   0  0  0  0  0  0  0  0  0  0  0  0
  161.1540  204.6430  151.3500 C   0  0  0  0  0  0  0  0  0  0  0  0
  160.8230  203.8050  152.3280 C   0  0  0  0  0  2  0  0  0  0  0  0
  160.9300  204.1570  149.6780 Cl  0  0  0  0  0  0  0  0  0  0  0  0
  160.7380  207.1540  149.5600 O   0  0  0  0  0  0  0  0  0  0  0  0
  161.6820  207.8550  148.8110 C   0  0  0  0  0  2  0  0  0  0  0  0
  161.1230  206.2450  146.6910 S   0  0  0  0  0  1  0  0  0  0  0  0
  162.3570  206.9100  147.8400 C   0  0  0  0  0  2  0  0  0  0  0  0
  161.2180  211.2980  154.9280 C   0  0  0  0  0  2  0  0  0  0  0  0
  161.4130  209.8580  155.2660 C   0  0  0  0  0  3  0  0  0  0  0  0
  161.2100  209.4350  156.5090 C   0  0  0  0  0  3  0  0  0  0  0  0
  161.4040  207.9980  156.8500 C   0  0  0  0  0  3  0  0  0  0  0  0
  160.0740  207.4000  157.2610 C   0  0  0  0  0  2  0  0  0  0  0  0
  160.6190  207.1490  155.8730 C   0  0  0  0  0  2  0  0  0  0  0  0
  1  6  1  6  0  0  0
  1 11  1  0  0  0  0
  2  7  1  6  0  0  0
  2  4  1  0  0  0  0
  4 25  1  0  0  0  0
  5  1  1  0  0  0  0
  5  8  1  0  0  0  0
  8 10  1  6  0  0  0
  8  7  1  0  0  0  0
  8  2  1  0  0  0  0
  9  3  1  6  0  0  0
  9  4  1  0  0  0  0
 11 12  1  1  0  0  0
 11  9  1  0  0  0  0
 12 13  1  1  0  0  0
 14 21  1  6  0  0  0
 14 12  1  0  0  0  0
 14 17  1  0  0  0  0
 16 17  2  0  0  0  0
 17 15  2  0  0  0  0
 18 17  1  0  0  0  0
 18 19  2  0  0  0  0
 20 18  1  0  0  0  0
 22 21  1  0  0  0  0
 23 24  1  0  0  0  0
 24 22  1  0  0  0  0
 25 26  1  0  0  0  0
 26 27  2  0  0  0  0
 27 28  1  0  0  0  0
 28 29  1  0  0  0  0
 30 28  1  0  0  0  0
 30 29  1  0  0  0  0
M  END
>  <MODEL>
7

>  <REMARK>
 VINA RESULT:      -4.7      3.599      8.105
  Name = 
  10 active torsions:
  status: ('A' for Active; 'I' for Inactive)
    1  A    between atoms: C_1  and  C_4
    2  A    between atoms: C_1  and  C_29
    3  A    between atoms: C_4  and  O_5
    4  A    between atoms: C_4  and  S_12
    5  A    between atoms: O_5  and  C_21
    6  A    between atoms: C_10  and  C_25
    7  A    between atoms: N_11  and  C_24
    8  A    between atoms: S_12  and  C_13
    9  A    between atoms: C_15  and  C_24
   10  A    between atoms: C_17  and  C_21
                            x       y       z     vdW  Elec       q    Type
                         _______ _______ _______ _____ _____    ______ ____

>  <TORSDO>
F 10

$$$$
=
 OpenBabel11052422043D

 30 32  0  0  1  0  0  0  0  0999 V2000
  160.4890  211.0580  152.9530 C   0  0  2  0  0  3  0  0  0  0  0  0
  159.8480  210.9380  156.0890 C   0  0  2  0  0  3  0  0  0  0  0  0
  160.3130  208.2190  155.2730 O   0  0  0  0  0  1  0  0  0  0  0  0
  161.1190  210.4510  155.5230 N   0  0  0  0  0  0  0  0  0  0  0  0
  159.1900  211.6420  153.5030 C   0  0  0  0  0  2  0  0  0  0  0  0
  160.5310  211.3790  151.4660 C   0  0  0  0  0  1  0  0  0  0  0  0
  158.5560  210.3720  155.5090 C   0  0  0  0  0  2  0  0  0  0  0  0
  159.0590  211.7130  155.0290 C   0  0  1  0  0  0  0  0  0  0  0  0
  161.0550  209.2460  154.6780 C   0  0  2  0  0  3  0  0  0  0  0  0
  158.2420  212.7300  155.5190 O   0  0  0  0  0  1  0  0  0  0  0  0
  160.5760  209.5390  153.2440 C   0  0  2  0  0  3  0  0  0  0  0  0
  161.4440  208.7860  152.2150 C   0  0  1  0  0  3  0  0  0  0  0  0
  162.7440  208.5890  152.6900 O   0  0  0  0  0  1  0  0  0  0  0  0
  160.8470  207.4710  151.7020 C   0  0  2  0  0  3  0  0  0  0  0  0
  161.6470  205.9460  153.7740 O   0  0  0  0  0  0  0  0  0  0  0  0
  163.2020  206.1810  151.9040 O   0  0  0  0  0  0  0  0  0  0  0  0
  161.7530  206.0400  152.2770 S   0  0  0  0  0  0  0  0  0  0  0  0
  161.1090  204.5730  151.5520 C   0  0  0  0  0  0  0  0  0  0  0  0
  160.6270  203.6040  152.3240 C   0  0  0  0  0  2  0  0  0  0  0  0
  161.1530  204.3530  149.8110 Cl  0  0  0  0  0  0  0  0  0  0  0  0
  160.7520  207.4580  150.3070 O   0  0  0  0  0  0  0  0  0  0  0  0
  161.8210  208.2390  149.8680 C   0  0  0  0  0  2  0  0  0  0  0  0
  161.7960  206.7120  147.6170 S   0  0  0  0  0  1  0  0  0  0  0  0
  161.7650  208.3640  148.3600 C   0  0  0  0  0  2  0  0  0  0  0  0
  162.0110  210.1760  156.6390 C   0  0  0  0  0  2  0  0  0  0  0  0
  162.9520  211.3180  156.8280 C   0  0  0  0  0  3  0  0  0  0  0  0
  164.2370  211.0860  157.0720 C   0  0  0  0  0  3  0  0  0  0  0  0
  165.1780  212.2260  157.2610 C   0  0  0  0  0  3  0  0  0  0  0  0
  166.6000  211.7020  157.2610 C   0  0  0  0  0  2  0  0  0  0  0  0
  166.0390  212.3660  156.0230 C   0  0  0  0  0  2  0  0  0  0  0  0
  1  6  1  6  0  0  0
  1 11  1  0  0  0  0
  1  5  1  0  0  0  0
  2  7  1  6  0  0  0
  4  2  1  0  0  0  0
  4 25  1  0  0  0  0
  5  8  1  0  0  0  0
  8  7  1  0  0  0  0
  8 10  1  1  0  0  0
  8  2  1  0  0  0  0
  9  3  1  1  0  0  0
  9  4  1  0  0  0  0
 11 12  1  6  0  0  0
 11  9  1  0  0  0  0
 12 13  1  1  0  0  0
 14 21  1  6  0  0  0
 14 12  1  0  0  0  0
 14 17  1  0  0  0  0
 16 17  2  0  0  0  0
 17 15  2  0  0  0  0
 18 17  1  0  0  0  0
 18 19  2  0  0  0  0
 20 18  1  0  0  0  0
 22 21  1  0  0  0  0
 23 24  1  0  0  0  0
 24 22  1  0  0  0  0
 25 26  1  0  0  0  0
 26 27  2  0  0  0  0
 27 28  1  0  0  0  0
 28 29  1  0  0  0  0
 30 28  1  0  0  0  0
 30 29  1  0  0  0  0
M  END
>  <MODEL>
8

>  <REMARK>
 VINA RESULT:      -4.3      3.924      8.915
  Name = 
  10 active torsions:
  status: ('A' for Active; 'I' for Inactive)
    1  A    between atoms: C_1  and  C_4
    2  A    between atoms: C_1  and  C_29
    3  A    between atoms: C_4  and  O_5
    4  A    between atoms: C_4  and  S_12
    5  A    between atoms: O_5  and  C_21
    6  A    between atoms: C_10  and  C_25
    7  A    between atoms: N_11  and  C_24
    8  A    between atoms: S_12  and  C_13
    9  A    between atoms: C_15  and  C_24
   10  A    between atoms: C_17  and  C_21
                            x       y       z     vdW  Elec       q    Type
                         _______ _______ _______ _____ _____    ______ ____

>  <TORSDO>
F 10

$$$$
=
 OpenBabel11052422043D

 30 32  0  0  1  0  0  0  0  0999 V2000
  160.1120  212.5330  151.8070 C   0  0  2  0  0  3  0  0  0  0  0  0
  158.8260  211.8460  154.6590 C   0  0  2  0  0  3  0  0  0  0  0  0
  160.1720  209.4530  153.8030 O   0  0  0  0  0  1  0  0  0  0  0  0
  160.2750  211.7590  154.4050 N   0  0  0  0  0  0  0  0  0  0  0  0
  158.6140  212.7080  152.0460 C   0  0  0  0  0  2  0  0  0  0  0  0
  160.4060  213.0490  150.4060 C   0  0  0  0  0  1  0  0  0  0  0  0
  157.8990  211.0680  153.7310 C   0  0  0  0  0  2  0  0  0  0  0  0
  158.1230  212.5420  153.4890 C   0  0  1  0  0  0  0  0  0  0  0  0
  160.7290  210.6970  153.4890 C   0  0  2  0  0  3  0  0  0  0  0  0
  156.9750  213.2580  153.8240 O   0  0  0  0  0  1  0  0  0  0  0  0
  160.5300  211.0550  152.0050 C   0  0  2  0  0  3  0  0  0  0  0  0
  161.7800  210.6760  151.1820 C   0  0  1  0  0  3  0  0  0  0  0  0
  162.7940  210.1670  151.9970 O   0  0  0  0  0  1  0  0  0  0  0  0
  161.5150  209.7430  149.9950 C   0  0  2  0  0  3  0  0  0  0  0  0
  160.7370  207.7030  151.5730 O   0  0  0  0  0  0  0  0  0  0  0  0
  163.0790  207.7380  150.8790 O   0  0  0  0  0  0  0  0  0  0  0  0
  161.6710  208.0160  150.4370 S   0  0  0  0  0  0  0  0  0  0  0  0
  161.2820  206.9930  149.0610 C   0  0  0  0  0  0  0  0  0  0  0  0
  160.2130  206.2030  149.0990 C   0  0  0  0  0  2  0  0  0  0  0  0
  162.3320  206.9630  147.6540 Cl  0  0  0  0  0  0  0  0  0  0  0  0
  162.3430  210.0440  148.9100 O   0  0  0  0  0  0  0  0  0  0  0  0
  161.8240  211.2240  148.3790 C   0  0  0  0  0  2  0  0  0  0  0  0
  162.3310  213.3280  146.7300 S   0  0  0  0  0  1  0  0  0  0  0  0
  162.9610  212.1080  147.9120 C   0  0  0  0  0  2  0  0  0  0  0  0
  160.9280  211.5610  155.6890 C   0  0  0  0  0  2  0  0  0  0  0  0
  161.2790  210.1220  155.8620 C   0  0  0  0  0  3  0  0  0  0  0  0
  160.9930  209.5020  157.0020 C   0  0  0  0  0  3  0  0  0  0  0  0
  161.3420  208.0640  157.1780 C   0  0  0  0  0  3  0  0  0  0  0  0
  160.0820  207.2290  157.0740 C   0  0  0  0  0  2  0  0  0  0  0  0
  161.0280  207.3200  155.8970 C   0  0  0  0  0  2  0  0  0  0  0  0
  1  6  1  6  0  0  0
  1 11  1  0  0  0  0
  1  5  1  0  0  0  0
  2  7  1  6  0  0  0
  4  2  1  0  0  0  0
  4 25  1  0  0  0  0
  5  8  1  0  0  0  0
  8  7  1  0  0  0  0
  8 10  1  1  0  0  0
  8  2  1  0  0  0  0
  9  3  1  1  0  0  0
  9  4  1  0  0  0  0
 11 12  1  6  0  0  0
 11  9  1  0  0  0  0
 12 13  1  1  0  0  0
 14 21  1  6  0  0  0
 14 17  1  0  0  0  0
 14 12  1  0  0  0  0
 17 16  2  0  0  0  0
 17 15  2  0  0  0  0
 18 19  2  0  0  0  0
 18 17  1  0  0  0  0
 20 18  1  0  0  0  0
 22 21  1  0  0  0  0
 23 24  1  0  0  0  0
 24 22  1  0  0  0  0
 25 26  1  0  0  0  0
 26 27  2  0  0  0  0
 27 28  1  0  0  0  0
 29 28  1  0  0  0  0
 30 29  1  0  0  0  0
 30 28  1  0  0  0  0
M  END
>  <MODEL>
9

>  <REMARK>
 VINA RESULT:      -4.3      3.890      8.430
  Name = 
  10 active torsions:
  status: ('A' for Active; 'I' for Inactive)
    1  A    between atoms: C_1  and  C_4
    2  A    between atoms: C_1  and  C_29
    3  A    between atoms: C_4  and  O_5
    4  A    between atoms: C_4  and  S_12
    5  A    between atoms: O_5  and  C_21
    6  A    between atoms: C_10  and  C_25
    7  A    between atoms: N_11  and  C_24
    8  A    between atoms: S_12  and  C_13
    9  A    between atoms: C_15  and  C_24
   10  A    between atoms: C_17  and  C_21
                            x       y       z     vdW  Elec       q    Type
                         _______ _______ _______ _____ _____    ______ ____

>  <TORSDO>
F 10

$$$$
