=
 OpenBabel11052423033D

 28 30  0  0  1  0  0  0  0  0999 V2000
  160.1170  208.8430  138.5390 O   0  0  0  0  0  0  0  0  0  0  0  0
  158.2230  211.8580  139.0450 C   0  0  2  0  0  3  0  0  0  0  0  0
  157.4500  209.4840  138.8640 C   0  0  0  0  0  1  0  0  0  0  0  0
  160.9630  211.0620  138.3280 C   0  0  1  0  0  0  0  0  0  0  0  0
  159.4060  212.8350  138.9060 C   0  0  0  0  0  2  0  0  0  0  0  0
  160.9560  211.5380  137.0120 O   0  0  0  0  0  1  0  0  0  0  0  0
  159.8610  210.0370  138.4550 C   0  0  0  0  0  0  0  0  0  0  0  0
  162.3470  210.4520  138.5500 C   0  0  0  0  0  1  0  0  0  0  0  0
  158.4340  210.5150  138.3250 C   0  0  2  0  0  3  0  0  0  0  0  0
  160.6960  212.1980  139.2490 N   0  0  1  0  0  0  0  0  0  0  0  0
  160.9470  212.0050  140.7240 C   0  0  1  0  0  0  0  0  0  0  0  0
  161.5950  214.4530  141.0000 C   0  0  0  0  0  1  0  0  0  0  0  0
  162.0480  213.0090  141.1840 C   0  0  0  0  0  0  0  0  0  0  0  0
  160.8530  212.9900  143.6230 C   0  0  1  0  0  3  0  0  0  0  0  0
  163.3120  212.8270  140.3600 C   0  0  0  0  0  1  0  0  0  0  0  0
  159.9080  211.9460  143.0640 C   0  0  0  0  0  2  0  0  0  0  0  0
  159.6730  212.2020  141.5830 C   0  0  0  0  0  2  0  0  0  0  0  0
  160.9100  212.8610  145.1300 C   0  0  0  0  0  1  0  0  0  0  0  0
  161.3880  210.7140  140.9890 F   0  0  0  0  0  0  0  0  0  0  0  0
  162.5200  212.7410  142.9360 S   0  0  0  0  0  0  0  0  0  0  0  0
  156.3200  212.1530  137.4250 C   0  0  0  0  0  3  0  0  0  0  0  0
  156.3610  213.5310  139.4250 C   0  0  0  0  0  0  0  0  0  0  0  0
  154.5600  213.7660  137.8160 C   0  0  0  0  0  0  0  0  0  0  0  0
  156.9420  212.5250  138.6280 C   0  0  0  0  0  0  0  0  0  0  0  0
  155.1730  214.1440  139.0140 C   0  0  0  0  0  3  0  0  0  0  0  0
  156.9840  213.9670  140.7080 C   0  0  0  0  0  1  0  0  0  0  0  0
  153.4110  214.3670  137.4250 F   0  0  0  0  0  0  0  0  0  0  0  0
  155.1340  212.7710  137.0220 C   0  0  0  0  0  3  0  0  0  0  0  0
  2 24  1  6  0  0  0
  4  7  1  0  0  0  0
  4  8  1  1  0  0  0
  4 10  1  0  0  0  0
  5  2  1  0  0  0  0
  6  4  1  0  0  0  0
  7  1  2  0  0  0  0
  9  7  1  0  0  0  0
  9  3  1  1  0  0  0
  9  2  1  0  0  0  0
 10  5  1  1  0  0  0
 10 11  1  0  0  0  0
 11 19  1  1  0  0  0
 11 13  1  0  0  0  0
 11 17  1  0  0  0  0
 12 13  1  0  0  0  0
 13 20  1  0  0  0  0
 14 18  1  1  0  0  0
 15 13  1  0  0  0  0
 16 14  1  0  0  0  0
 17 16  1  0  0  0  0
 20 14  1  0  0  0  0
 21 24  1  0  0  0  0
 22 26  1  0  0  0  0
 23 25  2  0  0  0  0
 24 22  2  0  0  0  0
 25 22  1  0  0  0  0
 27 23  1  0  0  0  0
 28 21  2  0  0  0  0
 28 23  1  0  0  0  0
M  END
>  <MODEL>
1

>  <REMARK>
 VINA RESULT:      -5.6      0.000      0.000
  Name = 
  2 active torsions:
  status: ('A' for Active; 'I' for Inactive)
    1  A    between atoms: C_1  and  N_27
    2  A    between atoms: C_10  and  C_13
                            x       y       z     vdW  Elec       q    Type
                         _______ _______ _______ _____ _____    ______ ____

>  <TORSDO>
F 2

$$$$
=
 OpenBabel11052423033D

 28 30  0  0  1  0  0  0  0  0999 V2000
  160.9710  207.9800  154.8930 O   0  0  0  0  0  0  0  0  0  0  0  0
  160.6920  210.7310  152.5930 C   0  0  2  0  0  3  0  0  0  0  0  0
  160.4940  208.2690  152.1880 C   0  0  0  0  0  1  0  0  0  0  0  0
  161.5420  210.2460  155.3670 C   0  0  1  0  0  0  0  0  0  0  0  0
  161.0610  211.8390  153.5980 C   0  0  0  0  0  2  0  0  0  0  0  0
  162.9030  210.5250  155.1960 O   0  0  0  0  0  1  0  0  0  0  0  0
  161.1860  209.1010  154.4500 C   0  0  0  0  0  0  0  0  0  0  0  0
  161.3690  209.8800  156.8410 C   0  0  0  0  0  1  0  0  0  0  0  0
  161.2480  209.3440  152.9610 C   0  0  2  0  0  3  0  0  0  0  0  0
  160.7560  211.4510  154.9910 N   0  0  1  0  0  0  0  0  0  0  0  0
  159.2970  211.5070  155.3700 C   0  0  1  0  0  0  0  0  0  0  0  0
  159.2600  214.0400  155.1100 C   0  0  0  0  0  1  0  0  0  0  0  0
  159.0070  212.8750  156.0600 C   0  0  0  0  0  0  0  0  0  0  0  0
  156.4830  212.6790  155.0790 C   0  0  1  0  0  3  0  0  0  0  0  0
  159.9180  213.0700  157.2610 C   0  0  0  0  0  1  0  0  0  0  0  0
  156.8810  211.3180  154.5440 C   0  0  0  0  0  2  0  0  0  0  0  0
  158.3520  211.3260  154.1570 C   0  0  0  0  0  2  0  0  0  0  0  0
  154.9800  212.7290  155.2560 C   0  0  0  0  0  1  0  0  0  0  0  0
  158.9750  210.4880  156.2590 F   0  0  0  0  0  0  0  0  0  0  0  0
  157.2860  212.9670  156.6870 S   0  0  0  0  0  0  0  0  0  0  0  0
  161.9950  210.3670  150.4720 C   0  0  0  0  0  3  0  0  0  0  0  0
  160.5310  212.2990  150.6120 C   0  0  0  0  0  0  0  0  0  0  0  0
  161.8220  211.8900  148.6000 C   0  0  0  0  0  0  0  0  0  0  0  0
  161.0750  211.1390  151.1980 C   0  0  0  0  0  0  0  0  0  0  0  0
  160.9070  212.6660  149.3170 C   0  0  0  0  0  3  0  0  0  0  0  0
  159.5540  213.1580  151.3430 C   0  0  0  0  0  1  0  0  0  0  0  0
  162.1830  212.2530  147.3460 F   0  0  0  0  0  0  0  0  0  0  0  0
  162.3660  210.7410  149.1780 C   0  0  0  0  0  3  0  0  0  0  0  0
  2 24  1  6  0  0  0
  2  9  1  0  0  0  0
  2  5  1  0  0  0  0
  4  8  1  1  0  0  0
  6  4  1  0  0  0  0
  7  1  2  0  0  0  0
  7  4  1  0  0  0  0
  9  3  1  6  0  0  0
  9  7  1  0  0  0  0
 10  5  1  6  0  0  0
 10  4  1  0  0  0  0
 10 11  1  0  0  0  0
 11 13  1  0  0  0  0
 11 19  1  1  0  0  0
 12 13  1  0  0  0  0
 13 20  1  0  0  0  0
 13 15  1  0  0  0  0
 14 18  1  1  0  0  0
 14 20  1  0  0  0  0
 16 14  1  0  0  0  0
 17 16  1  0  0  0  0
 17 11  1  0  0  0  0
 21 24  1  0  0  0  0
 22 24  2  0  0  0  0
 22 26  1  0  0  0  0
 23 28  1  0  0  0  0
 23 25  2  0  0  0  0
 25 22  1  0  0  0  0
 27 23  1  0  0  0  0
 28 21  2  0  0  0  0
M  END
>  <MODEL>
2

>  <REMARK>
 VINA RESULT:      -5.1     11.045     14.517
  Name = 
  2 active torsions:
  status: ('A' for Active; 'I' for Inactive)
    1  A    between atoms: C_1  and  N_27
    2  A    between atoms: C_10  and  C_13
                            x       y       z     vdW  Elec       q    Type
                         _______ _______ _______ _____ _____    ______ ____

>  <TORSDO>
F 2

$$$$
=
 OpenBabel11052423033D

 28 30  0  0  1  0  0  0  0  0999 V2000
  160.6050  212.1850  150.9620 O   0  0  0  0  0  0  0  0  0  0  0  0
  161.0240  208.8830  152.3270 C   0  0  2  0  0  3  0  0  0  0  0  0
  161.9620  209.8910  150.2360 C   0  0  0  0  0  1  0  0  0  0  0  0
  159.3560  211.2650  152.7730 C   0  0  1  0  0  0  0  0  0  0  0  0
  160.0460  209.0540  153.5050 C   0  0  0  0  0  2  0  0  0  0  0  0
  158.1320  210.7110  152.3810 O   0  0  0  0  0  1  0  0  0  0  0  0
  160.2990  211.1830  151.5970 C   0  0  0  0  0  0  0  0  0  0  0  0
  159.0570  212.7090  153.1740 C   0  0  0  0  0  1  0  0  0  0  0  0
  160.7340  209.8130  151.1350 C   0  0  2  0  0  3  0  0  0  0  0  0
  159.9000  210.4700  153.9060 N   0  0  1  0  0  0  0  0  0  0  0  0
  161.0520  211.0370  154.6970 C   0  0  1  0  0  0  0  0  0  0  0  0
  160.6870  209.3440  156.5650 C   0  0  0  0  0  1  0  0  0  0  0  0
  160.7730  210.8260  156.2170 C   0  0  0  0  0  0  0  0  0  0  0  0
  163.4640  210.7050  156.5550 C   0  0  1  0  0  3  0  0  0  0  0  0
  159.4460  211.4560  156.6070 C   0  0  0  0  0  1  0  0  0  0  0  0
  163.5850  211.0100  155.0760 C   0  0  0  0  0  2  0  0  0  0  0  0
  162.4120  210.3960  154.3260 C   0  0  0  0  0  2  0  0  0  0  0  0
  164.7360  211.1280  157.2600 C   0  0  0  0  0  1  0  0  0  0  0  0
  161.1960  212.3980  154.4600 F   0  0  0  0  0  0  0  0  0  0  0  0
  162.0560  211.6200  157.2590 S   0  0  0  0  0  0  0  0  0  0  0  0
  160.9270  207.0930  150.5610 C   0  0  0  0  0  3  0  0  0  0  0  0
  161.3170  206.4260  152.8630 C   0  0  0  0  0  0  0  0  0  0  0  0
  161.2060  204.7540  151.1090 C   0  0  0  0  0  0  0  0  0  0  0  0
  161.0960  207.4410  151.9100 C   0  0  0  0  0  0  0  0  0  0  0  0
  161.3720  205.0900  152.4560 C   0  0  0  0  0  3  0  0  0  0  0  0
  161.4960  206.7410  154.3100 C   0  0  0  0  0  1  0  0  0  0  0  0
  161.2580  203.4560  150.7240 F   0  0  0  0  0  0  0  0  0  0  0  0
  160.9830  205.7560  150.1620 C   0  0  0  0  0  3  0  0  0  0  0  0
  1  7  2  0  0  0  0
  2 24  1  6  0  0  0
  2  5  1  0  0  0  0
  4  8  1  1  0  0  0
  4 10  1  0  0  0  0
  6  4  1  0  0  0  0
  7  4  1  0  0  0  0
  9  3  1  1  0  0  0
  9  7  1  0  0  0  0
  9  2  1  0  0  0  0
 10  5  1  6  0  0  0
 10 11  1  0  0  0  0
 11 19  1  6  0  0  0
 11 13  1  0  0  0  0
 13 12  1  0  0  0  0
 13 15  1  0  0  0  0
 13 20  1  0  0  0  0
 14 20  1  0  0  0  0
 14 18  1  1  0  0  0
 16 14  1  0  0  0  0
 17 11  1  0  0  0  0
 17 16  1  0  0  0  0
 21 24  1  0  0  0  0
 22 26  1  0  0  0  0
 23 25  2  0  0  0  0
 24 22  2  0  0  0  0
 25 22  1  0  0  0  0
 27 23  1  0  0  0  0
 28 21  2  0  0  0  0
 28 23  1  0  0  0  0
M  END
>  <MODEL>
3

>  <REMARK>
 VINA RESULT:      -4.1     12.316     14.880
  Name = 
  2 active torsions:
  status: ('A' for Active; 'I' for Inactive)
    1  A    between atoms: C_1  and  N_27
    2  A    between atoms: C_10  and  C_13
                            x       y       z     vdW  Elec       q    Type
                         _______ _______ _______ _____ _____    ______ ____

>  <TORSDO>
F 2

$$$$
=
 OpenBabel11052423033D

 28 30  0  0  1  0  0  0  0  0999 V2000
  160.8770  212.9680  156.6820 O   0  0  0  0  0  0  0  0  0  0  0  0
  159.8750  210.2200  154.5890 C   0  0  2  0  0  3  0  0  0  0  0  0
  161.6330  210.3300  156.3670 C   0  0  0  0  0  1  0  0  0  0  0  0
  159.4360  213.1220  154.7890 C   0  0  1  0  0  0  0  0  0  0  0  0
  158.8710  211.0110  153.7280 C   0  0  0  0  0  2  0  0  0  0  0  0
  160.0980  213.4920  153.6130 O   0  0  0  0  0  1  0  0  0  0  0  0
  160.4330  212.4220  155.6810 C   0  0  0  0  0  0  0  0  0  0  0  0
  158.9200  214.4210  155.4090 C   0  0  0  0  0  1  0  0  0  0  0  0
  160.9760  211.0900  155.2210 C   0  0  2  0  0  3  0  0  0  0  0  0
  158.3320  212.1880  154.4430 N   0  0  1  0  0  0  0  0  0  0  0  0
  157.2900  211.8830  155.4900 C   0  0  1  0  0  0  0  0  0  0  0  0
  155.4360  212.8020  154.0060 C   0  0  0  0  0  1  0  0  0  0  0  0
  156.1270  212.9140  155.3600 C   0  0  0  0  0  0  0  0  0  0  0  0
  154.4830  210.9730  156.3110 C   0  0  1  0  0  3  0  0  0  0  0  0
  156.6580  214.3330  155.4770 C   0  0  0  0  0  1  0  0  0  0  0  0
  155.7210  210.1130  156.4710 C   0  0  0  0  0  2  0  0  0  0  0  0
  156.7250  210.4460  155.3780 C   0  0  0  0  0  2  0  0  0  0  0  0
  153.4090  210.4880  157.2610 C   0  0  0  0  0  1  0  0  0  0  0  0
  157.8260  211.9820  156.7680 F   0  0  0  0  0  0  0  0  0  0  0  0
  154.8850  212.7060  156.6930 S   0  0  0  0  0  0  0  0  0  0  0  0
  160.9020  209.2780  152.4940 C   0  0  0  0  0  3  0  0  0  0  0  0
  160.5160  207.7810  154.3670 C   0  0  0  0  0  0  0  0  0  0  0  0
  161.4980  206.9400  152.3140 C   0  0  0  0  0  0  0  0  0  0  0  0
  160.4450  209.0720  153.8050 C   0  0  0  0  0  0  0  0  0  0  0  0
  161.0430  206.7240  153.6180 C   0  0  0  0  0  3  0  0  0  0  0  0
  160.0380  207.5060  155.7530 C   0  0  0  0  0  1  0  0  0  0  0  0
  162.0040  205.9110  151.5950 F   0  0  0  0  0  0  0  0  0  0  0  0
  161.4270  208.2170  151.7520 C   0  0  0  0  0  3  0  0  0  0  0  0
  2 24  1  6  0  0  0
  2  9  1  0  0  0  0
  4  8  1  1  0  0  0
  4  7  1  0  0  0  0
  5  2  1  0  0  0  0
  6  4  1  0  0  0  0
  7  1  2  0  0  0  0
  9  7  1  0  0  0  0
  9  3  1  1  0  0  0
 10  5  1  1  0  0  0
 10  4  1  0  0  0  0
 10 11  1  0  0  0  0
 11 19  1  1  0  0  0
 12 13  1  0  0  0  0
 13 15  1  0  0  0  0
 13 11  1  0  0  0  0
 13 20  1  0  0  0  0
 14 16  1  0  0  0  0
 14 20  1  0  0  0  0
 14 18  1  1  0  0  0
 17 11  1  0  0  0  0
 17 16  1  0  0  0  0
 21 24  1  0  0  0  0
 22 26  1  0  0  0  0
 23 25  2  0  0  0  0
 24 22  2  0  0  0  0
 25 22  1  0  0  0  0
 27 23  1  0  0  0  0
 28 23  1  0  0  0  0
 28 21  2  0  0  0  0
M  END
>  <MODEL>
4

>  <REMARK>
 VINA RESULT:      -3.5     13.830     16.275
  Name = 
  2 active torsions:
  status: ('A' for Active; 'I' for Inactive)
    1  A    between atoms: C_1  and  N_27
    2  A    between atoms: C_10  and  C_13
                            x       y       z     vdW  Elec       q    Type
                         _______ _______ _______ _____ _____    ______ ____

>  <TORSDO>
F 2

$$$$
=
 OpenBabel11052423033D

 28 30  0  0  1  0  0  0  0  0999 V2000
  157.8600  212.7320  140.1960 O   0  0  0  0  0  0  0  0  0  0  0  0
  160.8950  212.4960  142.1110 C   0  0  2  0  0  3  0  0  0  0  0  0
  158.5100  212.5020  142.8710 C   0  0  0  0  0  1  0  0  0  0  0  0
  160.0600  213.1040  139.3560 C   0  0  1  0  0  0  0  0  0  0  0  0
  161.8650  212.6920  140.9300 C   0  0  0  0  0  2  0  0  0  0  0  0
  160.4320  214.4530  139.3430 O   0  0  0  0  0  1  0  0  0  0  0  0
  159.0420  212.9150  140.4550 C   0  0  0  0  0  0  0  0  0  0  0  0
  159.4780  212.8130  137.9730 C   0  0  0  0  0  1  0  0  0  0  0  0
  159.5010  213.1050  141.8820 C   0  0  2  0  0  3  0  0  0  0  0  0
  161.2640  212.2790  139.6430 N   0  0  1  0  0  0  0  0  0  0  0  0
  161.1900  210.7900  139.4160 C   0  0  1  0  0  0  0  0  0  0  0  0
  163.6320  210.7110  138.6990 C   0  0  0  0  0  1  0  0  0  0  0  0
  162.1960  210.4000  138.2910 C   0  0  0  0  0  0  0  0  0  0  0  0
  162.4180  207.9860  139.5150 C   0  0  1  0  0  3  0  0  0  0  0  0
  161.9100  211.1870  137.0230 C   0  0  0  0  0  1  0  0  0  0  0  0
  161.3580  208.4690  140.4840 C   0  0  0  0  0  2  0  0  0  0  0  0
  161.4940  209.9690  140.6930 C   0  0  0  0  0  2  0  0  0  0  0  0
  162.4140  206.4730  139.4800 C   0  0  0  0  0  1  0  0  0  0  0  0
  159.9130  210.4120  139.0160 F   0  0  0  0  0  0  0  0  0  0  0  0
  162.0640  208.6250  137.8480 S   0  0  0  0  0  0  0  0  0  0  0  0
  161.0110  212.5550  144.6240 C   0  0  0  0  0  3  0  0  0  0  0  0
  162.6050  213.8830  143.3610 C   0  0  0  0  0  0  0  0  0  0  0  0
  162.6540  213.8970  145.7860 C   0  0  0  0  0  0  0  0  0  0  0  0
  161.5190  212.9850  143.3880 C   0  0  0  0  0  0  0  0  0  0  0  0
  163.1660  214.3330  144.5600 C   0  0  0  0  0  3  0  0  0  0  0  0
  163.1780  214.3760  142.0750 C   0  0  0  0  0  1  0  0  0  0  0  0
  163.2020  214.3390  146.9440 F   0  0  0  0  0  0  0  0  0  0  0  0
  161.5770  213.0090  145.8180 C   0  0  0  0  0  3  0  0  0  0  0  0
  1  7  2  0  0  0  0
  2 24  1  1  0  0  0
  4  8  1  6  0  0  0
  4 10  1  0  0  0  0
  4  7  1  0  0  0  0
  5  2  1  0  0  0  0
  6  4  1  0  0  0  0
  7  9  1  0  0  0  0
  9  2  1  0  0  0  0
  9  3  1  1  0  0  0
 10  5  1  1  0  0  0
 11 19  1  6  0  0  0
 11 10  1  0  0  0  0
 11 17  1  0  0  0  0
 13 12  1  0  0  0  0
 13 11  1  0  0  0  0
 14 18  1  6  0  0  0
 14 16  1  0  0  0  0
 15 13  1  0  0  0  0
 16 17  1  0  0  0  0
 20 13  1  0  0  0  0
 20 14  1  0  0  0  0
 21 28  1  0  0  0  0
 22 24  1  0  0  0  0
 22 25  2  0  0  0  0
 23 28  2  0  0  0  0
 23 27  1  0  0  0  0
 24 21  2  0  0  0  0
 25 23  1  0  0  0  0
 26 22  1  0  0  0  0
M  END
>  <MODEL>
5

>  <REMARK>
 VINA RESULT:      -2.6      3.191      6.389
  Name = 
  2 active torsions:
  status: ('A' for Active; 'I' for Inactive)
    1  A    between atoms: C_1  and  N_27
    2  A    between atoms: C_10  and  C_13
                            x       y       z     vdW  Elec       q    Type
                         _______ _______ _______ _____ _____    ______ ____

>  <TORSDO>
F 2

$$$$
