=
 OpenBabel11062410443D

 32 36  0  0  1  0  0  0  0  0999 V2000
  161.4530  209.7400  153.5940 C   0  0  1  0  0  3  0  0  0  0  0  0
  161.4240  206.3460  149.7330 C   0  0  0  0  0  0  0  0  0  0  0  0
  160.7010  202.0790  151.7910 C   0  0  0  0  0  3  0  0  0  0  0  0
  160.6540  201.4930  150.5670 N   0  0  0  0  0  0  0  0  0  0  0  0
  161.6910  208.3550  151.0640 C   0  0  0  0  0  0  0  0  0  0  0  0
  161.3210  206.2160  152.1580 C   0  0  0  0  0  3  0  0  0  0  0  0
  161.6370  208.2190  153.6070 C   0  0  0  0  0  2  0  0  0  0  0  0
  160.9030  203.4180  151.9010 N   0  0  0  0  0  0  0  0  0  0  0  0
  161.2680  205.5810  150.9100 C   0  0  0  0  0  0  0  0  0  0  0  0
  161.0620  204.1980  150.7960 C   0  0  0  0  0  0  0  0  0  0  0  0
  161.1840  204.4030  148.3750 C   0  0  0  0  0  0  0  0  0  0  0  0
  162.2840  210.3600  152.4710 C   0  0  0  0  0  2  0  0  0  0  0  0
  161.5160  207.5970  152.2440 C   0  0  0  0  0  0  0  0  0  0  0  0
  161.8330  209.8490  151.1020 C   0  0  0  0  0  2  0  0  0  0  0  0
  160.8080  202.2270  149.4350 C   0  0  0  0  0  3  0  0  0  0  0  0
  161.0170  203.6060  149.5170 C   0  0  0  0  0  0  0  0  0  0  0  0
  161.1170  203.8100  147.0690 N   0  0  0  0  0  2  0  0  0  0  0  0
  161.6270  207.7250  149.8190 C   0  0  0  0  0  3  0  0  0  0  0  0
  161.3730  205.7450  148.5150 N   0  0  0  0  0  0  0  0  0  0  0  0
  160.4970  204.9270  144.8760 C   0  0  1  0  0  3  0  0  0  0  0  0
  162.7970  204.8130  145.5660 C   0  0  0  0  0  0  0  0  0  0  0  0
  162.9720  205.4050  144.4040 C   0  0  0  0  0  3  0  0  0  0  0  0
  161.4570  205.6010  143.4670 S   0  0  0  0  0  0  0  0  0  0  0  0
  164.1330  204.4930  146.6570 Cl  0  0  0  0  0  0  0  0  0  0  0  0
  161.4570  204.4640  145.8700 N   0  0  0  0  0  0  0  0  0  0  0  0
  159.6000  206.0140  145.4580 C   0  0  0  0  0  2  0  0  0  0  0  0
  160.3550  207.0250  146.0270 F   0  0  0  0  0  0  0  0  0  0  0  0
  159.6080  211.2490  153.8270 C   0  0  0  0  0  3  0  0  0  0  0  0
  160.0480  210.0950  153.4450 N   0  0  0  0  0  0  0  0  0  0  0  0
  158.1950  211.6040  153.6800 C   0  0  0  0  0  0  0  0  0  0  0  0
  157.7890  212.2100  152.6530 O   0  0  0  0  0  0  0  0  0  0  0  0
  157.2330  211.2430  154.7520 C   0  0  0  0  0  1  0  0  0  0  0  0
  1 29  1  6  0  0  0
  1  7  1  0  0  0  0
  2 18  2  0  0  0  0
  2  9  1  0  0  0  0
  3  8  1  0  0  0  0
  4  3  2  0  0  0  0
  5 14  1  0  0  0  0
  5 13  2  0  0  0  0
  6 13  1  0  0  0  0
  9  6  2  0  0  0  0
 10  9  1  0  0  0  0
 10  8  2  0  0  0  0
 11 19  2  0  0  0  0
 11 16  1  0  0  0  0
 12  1  1  0  0  0  0
 13  7  1  0  0  0  0
 14 12  1  0  0  0  0
 15 16  2  0  0  0  0
 15  4  1  0  0  0  0
 16 10  1  0  0  0  0
 17 11  1  0  0  0  0
 18  5  1  0  0  0  0
 19  2  1  0  0  0  0
 20 26  1  1  0  0  0
 20 25  1  0  0  0  0
 21 25  1  0  0  0  0
 21 24  1  0  0  0  0
 22 21  2  0  0  0  0
 23 22  1  0  0  0  0
 23 20  1  0  0  0  0
 25 17  1  0  0  0  0
 26 27  1  0  0  0  0
 29 28  2  0  0  0  0
 30 28  1  0  0  0  0
 30 32  1  0  0  0  0
 31 30  2  0  0  0  0
M  END
>  <MODEL>
1

>  <REMARK>
 VINA RESULT:      -6.7      0.000      0.000
  Name = 
  4 active torsions:
  status: ('A' for Active; 'I' for Inactive)
    1  A    between atoms: C_1  and  C_10
    2  A    between atoms: C_2  and  N_24
    3  A    between atoms: C_6  and  C_7
    4  A    between atoms: N_27  and  N_32
                            x       y       z     vdW  Elec       q    Type
                         _______ _______ _______ _____ _____    ______ ____

>  <TORSDO>
F 4

$$$$
=
 OpenBabel11062410443D

 32 36  0  0  1  0  0  0  0  0999 V2000
  161.5840  212.8970  149.3680 C   0  0  1  0  0  3  0  0  0  0  0  0
  161.4230  207.7600  149.2450 C   0  0  0  0  0  0  0  0  0  0  0  0
  161.4240  206.3730  153.8320 C   0  0  0  0  0  3  0  0  0  0  0  0
  161.2850  205.0790  153.4440 N   0  0  0  0  0  0  0  0  0  0  0  0
  161.6430  210.0970  148.6380 C   0  0  0  0  0  0  0  0  0  0  0  0
  161.6440  209.4470  150.9800 C   0  0  0  0  0  3  0  0  0  0  0  0
  161.9280  211.8650  150.4480 C   0  0  0  0  0  2  0  0  0  0  0  0
  161.4960  207.3620  152.9030 N   0  0  0  0  0  0  0  0  0  0  0  0
  161.5000  208.1030  150.6130 C   0  0  0  0  0  0  0  0  0  0  0  0
  161.4290  207.0820  151.5720 C   0  0  0  0  0  0  0  0  0  0  0  0
  161.2190  205.4470  149.7810 C   0  0  0  0  0  0  0  0  0  0  0  0
  162.1940  212.4800  148.0310 C   0  0  0  0  0  2  0  0  0  0  0  0
  161.7010  210.4470  150.0050 C   0  0  0  0  0  0  0  0  0  0  0  0
  161.6290  211.1400  147.5580 C   0  0  0  0  0  2  0  0  0  0  0  0
  161.2140  204.7480  152.1290 C   0  0  0  0  0  3  0  0  0  0  0  0
  161.2840  205.7440  151.1520 C   0  0  0  0  0  0  0  0  0  0  0  0
  161.0490  204.0900  149.3480 N   0  0  0  0  0  2  0  0  0  0  0  0
  161.4880  208.7580  148.2710 C   0  0  0  0  0  3  0  0  0  0  0  0
  161.2810  206.4600  148.8740 N   0  0  0  0  0  0  0  0  0  0  0  0
  161.5470  204.4960  146.8920 C   0  0  1  0  0  3  0  0  0  0  0  0
  160.9870  202.2880  147.6630 C   0  0  0  0  0  0  0  0  0  0  0  0
  161.1050  202.0240  146.3790 C   0  0  0  0  0  3  0  0  0  0  0  0
  161.4310  203.4730  145.3770 S   0  0  0  0  0  0  0  0  0  0  0  0
  160.6510  201.0370  148.8440 Cl  0  0  0  0  0  0  0  0  0  0  0  0
  161.1620  203.6510  148.0150 N   0  0  0  0  0  0  0  0  0  0  0  0
  162.9750  205.0040  147.0660 C   0  0  0  0  0  2  0  0  0  0  0  0
  163.7600  204.6500  145.9820 F   0  0  0  0  0  0  0  0  0  0  0  0
  159.4290  213.4750  150.2390 C   0  0  0  0  0  3  0  0  0  0  0  0
  160.1410  213.0590  149.2430 N   0  0  0  0  0  0  0  0  0  0  0  0
  157.9790  213.6350  150.1130 C   0  0  0  0  0  0  0  0  0  0  0  0
  157.2940  214.0640  151.0790 O   0  0  0  0  0  0  0  0  0  0  0  0
  157.3110  213.2880  148.8320 C   0  0  0  0  0  1  0  0  0  0  0  0
  1 29  1  6  0  0  0
  1  7  1  0  0  0  0
  2  9  1  0  0  0  0
  4  3  1  0  0  0  0
  5 13  2  0  0  0  0
  8  3  2  0  0  0  0
  9  6  2  0  0  0  0
  9 10  1  0  0  0  0
 10  8  1  0  0  0  0
 11 16  1  0  0  0  0
 12  1  1  0  0  0  0
 13  7  1  0  0  0  0
 13  6  1  0  0  0  0
 14 12  1  0  0  0  0
 14  5  1  0  0  0  0
 15  4  2  0  0  0  0
 16 10  2  0  0  0  0
 16 15  1  0  0  0  0
 17 11  1  0  0  0  0
 18  5  1  0  0  0  0
 18  2  2  0  0  0  0
 19  2  1  0  0  0  0
 19 11  2  0  0  0  0
 20 26  1  1  0  0  0
 20 25  1  0  0  0  0
 21 25  1  0  0  0  0
 21 24  1  0  0  0  0
 22 21  2  0  0  0  0
 23 22  1  0  0  0  0
 23 20  1  0  0  0  0
 25 17  1  0  0  0  0
 27 26  1  0  0  0  0
 29 28  2  0  0  0  0
 30 28  1  0  0  0  0
 30 31  2  0  0  0  0
 32 30  1  0  0  0  0
M  END
>  <MODEL>
2

>  <REMARK>
 VINA RESULT:      -5.9      2.804      3.775
  Name = 
  4 active torsions:
  status: ('A' for Active; 'I' for Inactive)
    1  A    between atoms: C_1  and  C_10
    2  A    between atoms: C_2  and  N_24
    3  A    between atoms: C_6  and  C_7
    4  A    between atoms: N_27  and  N_32
                            x       y       z     vdW  Elec       q    Type
                         _______ _______ _______ _____ _____    ______ ____

>  <TORSDO>
F 4

$$$$
=
 OpenBabel11062410443D

 32 36  0  0  1  0  0  0  0  0999 V2000
  162.6080  206.2340  151.7260 C   0  0  1  0  0  3  0  0  0  0  0  0
  159.8770  210.3910  153.0280 C   0  0  0  0  0  0  0  0  0  0  0  0
  160.6660  213.5800  149.5390 C   0  0  0  0  0  3  0  0  0  0  0  0
  159.7830  214.4350  150.1170 N   0  0  0  0  0  0  0  0  0  0  0  0
  161.0240  208.2550  153.0610 C   0  0  0  0  0  0  0  0  0  0  0  0
  161.4560  209.8350  151.2660 C   0  0  0  0  0  3  0  0  0  0  0  0
  162.7190  207.6860  151.2480 C   0  0  0  0  0  2  0  0  0  0  0  0
  160.9170  212.3700  150.1050 N   0  0  0  0  0  0  0  0  0  0  0  0
  160.5510  210.7400  151.8370 C   0  0  0  0  0  0  0  0  0  0  0  0
  160.2950  211.9900  151.2540 C   0  0  0  0  0  0  0  0  0  0  0  0
  158.7330  212.4800  153.0550 C   0  0  0  0  0  0  0  0  0  0  0  0
  162.4600  206.1920  153.2460 C   0  0  0  0  0  2  0  0  0  0  0  0
  161.6860  208.5910  151.8600 C   0  0  0  0  0  0  0  0  0  0  0  0
  161.1850  206.9040  153.6980 C   0  0  0  0  0  2  0  0  0  0  0  0
  159.1370  214.1020  151.2640 C   0  0  0  0  0  3  0  0  0  0  0  0
  159.3750  212.8650  151.8680 C   0  0  0  0  0  0  0  0  0  0  0  0
  157.7790  213.3580  153.6720 N   0  0  0  0  0  2  0  0  0  0  0  0
  160.1130  209.1510  153.6260 C   0  0  0  0  0  3  0  0  0  0  0  0
  158.9950  211.2570  153.5920 N   0  0  0  0  0  0  0  0  0  0  0  0
  155.8630  212.7040  155.2040 C   0  0  1  0  0  3  0  0  0  0  0  0
  157.9900  213.3370  156.1300 C   0  0  0  0  0  0  0  0  0  0  0  0
  157.3360  213.1440  157.2560 C   0  0  0  0  0  3  0  0  0  0  0  0
  155.6070  212.7390  157.0180 S   0  0  0  0  0  0  0  0  0  0  0  0
  159.6910  213.7610  156.1030 Cl  0  0  0  0  0  0  0  0  0  0  0  0
  157.2210  213.1680  154.9500 N   0  0  0  0  0  0  0  0  0  0  0  0
  155.6740  211.2840  154.6810 C   0  0  0  0  0  2  0  0  0  0  0  0
  156.4390  210.3860  155.4050 F   0  0  0  0  0  0  0  0  0  0  0  0
  161.5960  204.3380  150.6690 C   0  0  0  0  0  3  0  0  0  0  0  0
  161.4880  205.5580  151.0850 N   0  0  0  0  0  0  0  0  0  0  0  0
  160.4710  203.6600  150.0230 C   0  0  0  0  0  0  0  0  0  0  0  0
  159.3130  203.7240  150.5140 O   0  0  0  0  0  0  0  0  0  0  0  0
  160.7000  202.8900  148.7730 C   0  0  0  0  0  1  0  0  0  0  0  0
  1 29  1  6  0  0  0
  1 12  1  0  0  0  0
  2 19  1  0  0  0  0
  2 18  1  0  0  0  0
  3  8  2  0  0  0  0
  3  4  1  0  0  0  0
  4 15  2  0  0  0  0
  5 18  2  0  0  0  0
  5 14  1  0  0  0  0
  6  9  1  0  0  0  0
  6 13  2  0  0  0  0
  7  1  1  0  0  0  0
  7 13  1  0  0  0  0
  8 10  1  0  0  0  0
  9  2  2  0  0  0  0
 10  9  1  0  0  0  0
 10 16  2  0  0  0  0
 11 19  2  0  0  0  0
 11 17  1  0  0  0  0
 12 14  1  0  0  0  0
 13  5  1  0  0  0  0
 15 16  1  0  0  0  0
 16 11  1  0  0  0  0
 17 25  1  0  0  0  0
 20 26  1  1  0  0  0
 20 23  1  0  0  0  0
 21 22  2  0  0  0  0
 23 22  1  0  0  0  0
 24 21  1  0  0  0  0
 25 20  1  0  0  0  0
 25 21  1  0  0  0  0
 26 27  1  0  0  0  0
 28 29  2  0  0  0  0
 30 31  2  0  0  0  0
 30 28  1  0  0  0  0
 32 30  1  0  0  0  0
M  END
>  <MODEL>
3

>  <REMARK>
 VINA RESULT:      -4.7      5.189      9.763
  Name = 
  4 active torsions:
  status: ('A' for Active; 'I' for Inactive)
    1  A    between atoms: C_1  and  C_10
    2  A    between atoms: C_2  and  N_24
    3  A    between atoms: C_6  and  C_7
    4  A    between atoms: N_27  and  N_32
                            x       y       z     vdW  Elec       q    Type
                         _______ _______ _______ _____ _____    ______ ____

>  <TORSDO>
F 4

$$$$
=
 OpenBabel11062410443D

 32 36  0  0  1  0  0  0  0  0999 V2000
  162.7430  206.1400  151.6540 C   0  0  1  0  0  3  0  0  0  0  0  0
  160.1110  210.4570  152.5790 C   0  0  0  0  0  0  0  0  0  0  0  0
  161.2850  213.4530  149.0280 C   0  0  0  0  0  3  0  0  0  0  0  0
  160.4010  214.3690  149.5040 N   0  0  0  0  0  0  0  0  0  0  0  0
  161.1580  208.2800  152.7850 C   0  0  0  0  0  0  0  0  0  0  0  0
  161.7860  209.7600  150.9620 C   0  0  0  0  0  3  0  0  0  0  0  0
  162.9520  207.5630  151.1260 C   0  0  0  0  0  2  0  0  0  0  0  0
  161.4420  212.2610  149.6600 N   0  0  0  0  0  0  0  0  0  0  0  0
  160.8830  210.7250  151.4270 C   0  0  0  0  0  0  0  0  0  0  0  0
  160.7230  211.9580  150.7760 C   0  0  0  0  0  0  0  0  0  0  0  0
  159.0610  212.5910  152.4360 C   0  0  0  0  0  0  0  0  0  0  0  0
  162.4860  206.1710  153.1600 C   0  0  0  0  0  2  0  0  0  0  0  0
  161.9180  208.5350  151.6220 C   0  0  0  0  0  0  0  0  0  0  0  0
  161.2140  206.9540  153.4870 C   0  0  0  0  0  2  0  0  0  0  0  0
  159.6620  214.1140  150.6130 C   0  0  0  0  0  3  0  0  0  0  0  0
  159.8020  212.8960  151.2840 C   0  0  0  0  0  0  0  0  0  0  0  0
  158.1040  213.5330  152.9450 N   0  0  0  0  0  2  0  0  0  0  0  0
  160.2490  209.2370  153.2440 C   0  0  0  0  0  3  0  0  0  0  0  0
  159.2300  211.3830  153.0410 N   0  0  0  0  0  0  0  0  0  0  0  0
  158.1210  213.2420  155.4660 C   0  0  1  0  0  3  0  0  0  0  0  0
  156.0440  213.5730  154.3020 C   0  0  0  0  0  0  0  0  0  0  0  0
  155.5650  213.4280  155.5190 C   0  0  0  0  0  3  0  0  0  0  0  0
  156.8190  213.0460  156.7400 S   0  0  0  0  0  0  0  0  0  0  0  0
  155.0110  213.9340  152.9310 Cl  0  0  0  0  0  0  0  0  0  0  0  0
  157.4500  213.4240  154.1860 N   0  0  0  0  0  0  0  0  0  0  0  0
  158.9890  214.4520  155.7950 C   0  0  0  0  0  2  0  0  0  0  0  0
  160.0980  214.0780  156.5330 F   0  0  0  0  0  0  0  0  0  0  0  0
  161.8260  204.3700  150.3270 C   0  0  0  0  0  3  0  0  0  0  0  0
  161.6430  205.4820  150.9610 N   0  0  0  0  0  0  0  0  0  0  0  0
  160.7210  203.7110  149.6290 C   0  0  0  0  0  0  0  0  0  0  0  0
  159.6010  203.5680  150.1880 O   0  0  0  0  0  0  0  0  0  0  0  0
  160.9240  203.2060  148.2470 C   0  0  0  0  0  1  0  0  0  0  0  0
  1 29  1  6  0  0  0
  1 12  1  0  0  0  0
  2 19  1  0  0  0  0
  2 18  1  0  0  0  0
  3  4  2  0  0  0  0
  3  8  1  0  0  0  0
  4 15  1  0  0  0  0
  5 18  2  0  0  0  0
  5 14  1  0  0  0  0
  6  9  1  0  0  0  0
  6 13  2  0  0  0  0
  7 13  1  0  0  0  0
  7  1  1  0  0  0  0
  8 10  2  0  0  0  0
  9  2  2  0  0  0  0
 10 16  1  0  0  0  0
 10  9  1  0  0  0  0
 11 17  1  0  0  0  0
 11 19  2  0  0  0  0
 12 14  1  0  0  0  0
 13  5  1  0  0  0  0
 15 16  2  0  0  0  0
 16 11  1  0  0  0  0
 17 25  1  0  0  0  0
 20 26  1  1  0  0  0
 20 23  1  0  0  0  0
 21 22  2  0  0  0  0
 22 23  1  0  0  0  0
 24 21  1  0  0  0  0
 25 21  1  0  0  0  0
 25 20  1  0  0  0  0
 26 27  1  0  0  0  0
 28 29  2  0  0  0  0
 30 31  2  0  0  0  0
 30 28  1  0  0  0  0
 32 30  1  0  0  0  0
M  END
>  <MODEL>
4

>  <REMARK>
 VINA RESULT:      -4.4      5.339      9.835
  Name = 
  4 active torsions:
  status: ('A' for Active; 'I' for Inactive)
    1  A    between atoms: C_1  and  C_10
    2  A    between atoms: C_2  and  N_24
    3  A    between atoms: C_6  and  C_7
    4  A    between atoms: N_27  and  N_32
                            x       y       z     vdW  Elec       q    Type
                         _______ _______ _______ _____ _____    ______ ____

>  <TORSDO>
F 4

$$$$
=
 OpenBabel11062410443D

 32 36  0  0  1  0  0  0  0  0999 V2000
  160.0500  211.4210  156.4900 C   0  0  1  0  0  3  0  0  0  0  0  0
  160.8870  208.2680  152.5170 C   0  0  0  0  0  0  0  0  0  0  0  0
  162.3060  211.0980  148.9200 C   0  0  0  0  0  3  0  0  0  0  0  0
  162.5160  210.0060  148.1390 N   0  0  0  0  0  0  0  0  0  0  0  0
  160.1880  209.1960  154.6460 C   0  0  0  0  0  0  0  0  0  0  0  0
  160.9050  210.6750  152.8550 C   0  0  0  0  0  3  0  0  0  0  0  0
  160.1540  211.7190  154.9900 C   0  0  0  0  0  2  0  0  0  0  0  0
  161.8520  210.9520  150.1920 N   0  0  0  0  0  0  0  0  0  0  0  0
  161.1310  209.5690  152.0250 C   0  0  0  0  0  0  0  0  0  0  0  0
  161.5980  209.7190  150.7100 C   0  0  0  0  0  0  0  0  0  0  0  0
  161.5470  207.3010  150.4420 C   0  0  0  0  0  0  0  0  0  0  0  0
  159.1680  210.1950  156.7220 C   0  0  0  0  0  2  0  0  0  0  0  0
  160.4500  210.4980  154.1650 C   0  0  0  0  0  0  0  0  0  0  0  0
  159.7670  208.9510  156.0660 C   0  0  0  0  0  2  0  0  0  0  0  0
  162.2770  208.7550  148.6100 C   0  0  0  0  0  3  0  0  0  0  0  0
  161.8100  208.5750  149.9150 C   0  0  0  0  0  0  0  0  0  0  0  0
  161.7830  206.1310  149.6440 N   0  0  0  0  0  2  0  0  0  0  0  0
  160.4250  208.0910  153.8230 C   0  0  0  0  0  3  0  0  0  0  0  0
  161.1040  207.1860  151.7240 N   0  0  0  0  0  0  0  0  0  0  0  0
  160.6410  203.9270  149.1140 C   0  0  1  0  0  3  0  0  0  0  0  0
  161.7460  204.2380  151.2270 C   0  0  0  0  0  0  0  0  0  0  0  0
  161.2860  203.0210  151.4250 C   0  0  0  0  0  3  0  0  0  0  0  0
  160.2720  202.4130  150.0780 S   0  0  0  0  0  0  0  0  0  0  0  0
  162.7500  205.0570  152.4090 Cl  0  0  0  0  0  0  0  0  0  0  0  0
  161.3790  204.8280  149.9900 N   0  0  0  0  0  0  0  0  0  0  0  0
  161.4730  203.5690  147.8870 C   0  0  0  0  0  2  0  0  0  0  0  0
  161.1520  204.3870  146.8180 F   0  0  0  0  0  0  0  0  0  0  0  0
  162.4420  211.4520  156.3930 C   0  0  0  0  0  3  0  0  0  0  0  0
  161.3690  211.2200  157.0750 N   0  0  0  0  0  0  0  0  0  0  0  0
  163.7670  211.2470  156.9810 C   0  0  0  0  0  0  0  0  0  0  0  0
  164.1750  210.0890  157.2590 O   0  0  0  0  0  0  0  0  0  0  0  0
  164.6390  212.4200  157.2510 C   0  0  0  0  0  1  0  0  0  0  0  0
  1 12  1  0  0  0  0
  1 29  1  6  0  0  0
  2 18  1  0  0  0  0
  3  8  1  0  0  0  0
  4 15  1  0  0  0  0
  4  3  2  0  0  0  0
  5 14  1  0  0  0  0
  6 13  2  0  0  0  0
  7  1  1  0  0  0  0
  8 10  2  0  0  0  0
  9  2  2  0  0  0  0
  9  6  1  0  0  0  0
 10  9  1  0  0  0  0
 11 19  2  0  0  0  0
 13  5  1  0  0  0  0
 13  7  1  0  0  0  0
 14 12  1  0  0  0  0
 15 16  2  0  0  0  0
 16 11  1  0  0  0  0
 16 10  1  0  0  0  0
 17 25  1  0  0  0  0
 17 11  1  0  0  0  0
 18  5  2  0  0  0  0
 19  2  1  0  0  0  0
 20 26  1  6  0  0  0
 20 25  1  0  0  0  0
 20 23  1  0  0  0  0
 21 22  2  0  0  0  0
 21 24  1  0  0  0  0
 23 22  1  0  0  0  0
 25 21  1  0  0  0  0
 27 26  1  0  0  0  0
 28 30  1  0  0  0  0
 28 29  2  0  0  0  0
 30 32  1  0  0  0  0
 30 31  2  0  0  0  0
M  END
>  <MODEL>
5

>  <REMARK>
 VINA RESULT:      -3.9      3.289      5.592
  Name = 
  4 active torsions:
  status: ('A' for Active; 'I' for Inactive)
    1  A    between atoms: C_1  and  C_10
    2  A    between atoms: C_2  and  N_24
    3  A    between atoms: C_6  and  C_7
    4  A    between atoms: N_27  and  N_32
                            x       y       z     vdW  Elec       q    Type
                         _______ _______ _______ _____ _____    ______ ____

>  <TORSDO>
F 4

$$$$
