=
 OpenBabel11062408343D

 32 33  0  0  1  0  0  0  0  0999 V2000
  160.5270  207.3610  154.7910 C   0  0  0  0  0  0  0  0  0  0  0  0
  159.9630  206.9040  155.8190 O   0  0  0  0  0  0  0  0  0  0  0  0
  161.6870  208.4530  152.4780 C   0  0  0  0  0  3  0  0  0  0  0  0
  160.9770  206.4150  153.7130 C   0  0  0  0  0  2  0  0  0  0  0  0
  161.3000  209.2940  153.6210 C   0  0  0  0  0  0  0  0  0  0  0  0
  160.7520  208.7700  154.6750 N   0  0  0  0  0  0  0  0  0  0  0  0
  161.5120  207.1290  152.4990 C   0  0  0  0  0  0  0  0  0  0  0  0
  161.4880  210.7710  153.5510 C   0  0  0  0  0  2  0  0  0  0  0  0
  160.3080  212.1560  151.5630 O   0  0  0  0  0  0  0  0  0  0  0  0
  158.9230  210.5490  152.7850 O   0  0  0  0  0  0  0  0  0  0  0  0
  160.0210  211.5690  152.9170 S   0  0  0  0  0  0  0  0  0  0  0  0
  159.5220  212.8320  153.9920 N   0  0  0  0  0  2  0  0  0  0  0  0
  158.0730  212.9760  153.8700 C   0  0  2  0  0  3  0  0  0  0  0  0
  157.6990  214.1960  153.0320 C   0  0  0  0  0  2  0  0  0  0  0  0
  157.0140  213.7940  151.8860 O   0  0  0  0  0  1  0  0  0  0  0  0
  157.4310  212.9580  155.1290 O   0  0  0  0  0  0  0  0  0  0  0  0
  156.1690  212.3570  154.9940 C   0  0  0  0  0  3  0  0  0  0  0  0
  156.2820  210.8790  155.3050 C   0  0  0  0  0  2  0  0  0  0  0  0
  155.7220  211.8270  156.3410 C   0  0  0  0  0  2  0  0  0  0  0  0
  161.9110  206.3130  151.3090 C   0  0  0  0  0  2  0  0  0  0  0  0
  160.7320  205.9670  150.3960 C   0  0  1  0  0  3  0  0  0  0  0  0
  160.6790  206.8460  149.3060 O   0  0  0  0  0  0  0  0  0  0  0  0
  161.6370  206.4420  148.4970 O   0  0  0  0  0  0  0  0  0  0  0  0
  161.1020  206.5790  147.2150 C   0  0  0  0  0  2  0  0  0  0  0  0
  161.0860  205.5940  144.9470 C   0  0  0  0  0  1  0  0  0  0  0  0
  161.4110  205.3380  146.4040 C   0  0  0  0  0  2  0  0  0  0  0  0
  160.8050  204.5250  149.9150 C   0  0  0  0  0  2  0  0  0  0  0  0
  161.1600  203.5970  151.0630 C   0  0  0  0  0  2  0  0  0  0  0  0
  160.8850  202.1550  150.6780 C   0  0  0  0  0  2  0  0  0  0  0  0
  160.3190  202.0830  149.2730 C   0  0  0  0  0  2  0  0  0  0  0  0
  160.9100  201.5000  146.6840 S   0  0  0  0  0  1  0  0  0  0  0  0
  161.1490  201.1290  148.4420 C   0  0  0  0  0  2  0  0  0  0  0  0
  1  2  2  0  0  0  0
  3  7  2  0  0  0  0
  3  5  1  0  0  0  0
  4  1  1  0  0  0  0
  5  6  2  0  0  0  0
  6  1  1  0  0  0  0
  7  4  1  0  0  0  0
  8  5  1  0  0  0  0
  9 11  2  0  0  0  0
 10 11  2  0  0  0  0
 11  8  1  0  0  0  0
 11 12  1  0  0  0  0
 13 14  1  1  0  0  0
 13 12  1  0  0  0  0
 13 16  1  0  0  0  0
 15 14  1  0  0  0  0
 17 16  1  0  0  0  0
 17 18  1  0  0  0  0
 17 19  1  0  0  0  0
 18 19  1  0  0  0  0
 20  7  1  0  0  0  0
 21 27  1  6  0  0  0
 21 20  1  0  0  0  0
 22 21  1  0  0  0  0
 23 22  1  0  0  0  0
 24 23  1  0  0  0  0
 25 26  1  0  0  0  0
 26 24  1  0  0  0  0
 27 28  1  0  0  0  0
 29 28  1  0  0  0  0
 30 29  1  0  0  0  0
 31 32  1  0  0  0  0
 32 30  1  0  0  0  0
M  END
>  <MODEL>
1

>  <REMARK>
 VINA RESULT:      -6.0      0.000      0.000
  Name = 
  18 active torsions:
  status: ('A' for Active; 'I' for Inactive)
    1  A    between atoms: C_1  and  O_30
    2  A    between atoms: N_2  and  C_5
    3  A    between atoms: N_2  and  S_27
    4  A    between atoms: C_5  and  C_14
    5  A    between atoms: C_5  and  O_30
    6  A    between atoms: C_6  and  C_17
    7  A    between atoms: C_6  and  C_31
    8  A    between atoms: C_7  and  C_26
    9  A    between atoms: C_7  and  C_31
   10  A    between atoms: O_9  and  C_31
   11  A    between atoms: O_9  and  O_32
   12  A    between atoms: C_12  and  C_28
   13  A    between atoms: C_12  and  O_32
   14  A    between atoms: C_16  and  C_20
   15  A    between atoms: C_16  and  S_27
   16  A    between atoms: C_17  and  C_29
   17  A    between atoms: C_18  and  C_25
   18  A    between atoms: C_18  and  C_29
                            x       y       z     vdW  Elec       q    Type
                         _______ _______ _______ _____ _____    ______ ____

>  <TORSDO>
F 18

$$$$
=
 OpenBabel11062408343D

 32 33  0  0  1  0  0  0  0  0999 V2000
  161.2880  206.6970  153.2780 C   0  0  0  0  0  0  0  0  0  0  0  0
  161.2260  205.8220  154.1800 O   0  0  0  0  0  0  0  0  0  0  0  0
  161.3030  208.6580  151.2670 C   0  0  0  0  0  3  0  0  0  0  0  0
  162.0070  206.3880  151.9950 C   0  0  0  0  0  2  0  0  0  0  0  0
  160.7020  208.9070  152.5870 C   0  0  0  0  0  0  0  0  0  0  0  0
  160.6940  207.9810  153.4970 N   0  0  0  0  0  0  0  0  0  0  0  0
  161.8780  207.4880  150.9750 C   0  0  0  0  0  0  0  0  0  0  0  0
  160.0480  210.2170  152.8670 C   0  0  0  0  0  2  0  0  0  0  0  0
  159.8950  210.0210  155.5500 O   0  0  0  0  0  0  0  0  0  0  0  0
  162.0320  210.7430  154.5990 O   0  0  0  0  0  0  0  0  0  0  0  0
  160.5370  210.8420  154.4670 S   0  0  0  0  0  0  0  0  0  0  0  0
  160.0420  212.4930  154.6340 N   0  0  0  0  0  2  0  0  0  0  0  0
  158.6240  212.5720  154.2870 C   0  0  2  0  0  3  0  0  0  0  0  0
  158.3470  213.7210  153.3200 C   0  0  0  0  0  2  0  0  0  0  0  0
  159.1450  213.5890  152.1840 O   0  0  0  0  0  1  0  0  0  0  0  0
  157.7990  212.6090  155.4340 O   0  0  0  0  0  0  0  0  0  0  0  0
  156.4660  212.3880  155.0490 C   0  0  0  0  0  3  0  0  0  0  0  0
  155.9660  211.1090  155.6900 C   0  0  0  0  0  2  0  0  0  0  0  0
  155.5780  212.4480  156.2760 C   0  0  0  0  0  2  0  0  0  0  0  0
  162.4690  207.2750  149.6160 C   0  0  0  0  0  2  0  0  0  0  0  0
  161.4110  207.1200  148.5210 C   0  0  1  0  0  3  0  0  0  0  0  0
  162.0150  207.0620  147.2580 O   0  0  0  0  0  0  0  0  0  0  0  0
  161.2860  206.2070  146.5710 O   0  0  0  0  0  0  0  0  0  0  0  0
  162.0880  205.8440  145.4870 C   0  0  0  0  0  2  0  0  0  0  0  0
  161.3360  203.4910  145.5910 C   0  0  0  0  0  1  0  0  0  0  0  0
  162.5400  204.4080  145.6530 C   0  0  0  0  0  2  0  0  0  0  0  0
  160.5430  205.8910  148.7540 C   0  0  0  0  0  2  0  0  0  0  0  0
  161.4020  204.6960  149.1250 C   0  0  0  0  0  2  0  0  0  0  0  0
  160.5340  203.4670  149.3270 C   0  0  0  0  0  2  0  0  0  0  0  0
  161.0520  202.6400  150.4880 C   0  0  0  0  0  2  0  0  0  0  0  0
  161.2000  200.8780  148.4230 S   0  0  0  0  0  1  0  0  0  0  0  0
  160.8720  201.1690  150.1820 C   0  0  0  0  0  2  0  0  0  0  0  0
  1  6  1  0  0  0  0
  1  2  2  0  0  0  0
  3  5  1  0  0  0  0
  4  1  1  0  0  0  0
  5  8  1  0  0  0  0
  5  6  2  0  0  0  0
  7  3  2  0  0  0  0
  7  4  1  0  0  0  0
  8 11  1  0  0  0  0
 11 10  2  0  0  0  0
 11 12  1  0  0  0  0
 11  9  2  0  0  0  0
 13 14  1  1  0  0  0
 13 12  1  0  0  0  0
 13 16  1  0  0  0  0
 15 14  1  0  0  0  0
 17 16  1  0  0  0  0
 17 18  1  0  0  0  0
 17 19  1  0  0  0  0
 18 19  1  0  0  0  0
 20  7  1  0  0  0  0
 21 27  1  1  0  0  0
 21 20  1  0  0  0  0
 22 21  1  0  0  0  0
 23 22  1  0  0  0  0
 24 26  1  0  0  0  0
 24 23  1  0  0  0  0
 25 26  1  0  0  0  0
 27 28  1  0  0  0  0
 28 29  1  0  0  0  0
 29 30  1  0  0  0  0
 31 32  1  0  0  0  0
 32 30  1  0  0  0  0
M  END
>  <MODEL>
2

>  <REMARK>
 VINA RESULT:      -5.8      1.564      1.941
  Name = 
  18 active torsions:
  status: ('A' for Active; 'I' for Inactive)
    1  A    between atoms: C_1  and  O_30
    2  A    between atoms: N_2  and  C_5
    3  A    between atoms: N_2  and  S_27
    4  A    between atoms: C_5  and  C_14
    5  A    between atoms: C_5  and  O_30
    6  A    between atoms: C_6  and  C_17
    7  A    between atoms: C_6  and  C_31
    8  A    between atoms: C_7  and  C_26
    9  A    between atoms: C_7  and  C_31
   10  A    between atoms: O_9  and  C_31
   11  A    between atoms: O_9  and  O_32
   12  A    between atoms: C_12  and  C_28
   13  A    between atoms: C_12  and  O_32
   14  A    between atoms: C_16  and  C_20
   15  A    between atoms: C_16  and  S_27
   16  A    between atoms: C_17  and  C_29
   17  A    between atoms: C_18  and  C_25
   18  A    between atoms: C_18  and  C_29
                            x       y       z     vdW  Elec       q    Type
                         _______ _______ _______ _____ _____    ______ ____

>  <TORSDO>
F 18

$$$$
=
 OpenBabel11062408343D

 32 33  0  0  1  0  0  0  0  0999 V2000
  160.3900  207.6970  156.2700 C   0  0  0  0  0  0  0  0  0  0  0  0
  160.0760  206.9130  157.2040 O   0  0  0  0  0  0  0  0  0  0  0  0
  160.9940  209.5180  154.2190 C   0  0  0  0  0  3  0  0  0  0  0  0
  160.4930  207.1710  154.8660 C   0  0  0  0  0  2  0  0  0  0  0  0
  160.9610  209.9270  155.6320 C   0  0  0  0  0  0  0  0  0  0  0  0
  160.6650  209.0710  156.5620 N   0  0  0  0  0  0  0  0  0  0  0  0
  160.7480  208.2570  153.8540 C   0  0  0  0  0  0  0  0  0  0  0  0
  161.2170  211.3490  155.9980 C   0  0  0  0  0  2  0  0  0  0  0  0
  158.8700  211.7450  157.2610 O   0  0  0  0  0  0  0  0  0  0  0  0
  159.9940  213.7160  156.3410 O   0  0  0  0  0  0  0  0  0  0  0  0
  159.6860  212.2610  156.1090 S   0  0  0  0  0  0  0  0  0  0  0  0
  158.7810  212.0800  154.6430 N   0  0  0  0  0  2  0  0  0  0  0  0
  158.2400  213.3910  154.2870 C   0  0  2  0  0  3  0  0  0  0  0  0
  156.7130  213.3890  154.2990 C   0  0  0  0  0  2  0  0  0  0  0  0
  156.2430  212.1740  154.7960 O   0  0  0  0  0  1  0  0  0  0  0  0
  158.7790  213.8730  153.0720 O   0  0  0  0  0  0  0  0  0  0  0  0
  158.7790  212.8360  152.1250 C   0  0  0  0  0  3  0  0  0  0  0  0
  158.3810  213.3920  150.7740 C   0  0  0  0  0  2  0  0  0  0  0  0
  159.8360  213.1190  151.0770 C   0  0  0  0  0  2  0  0  0  0  0  0
  160.7830  207.8880  152.4040 C   0  0  0  0  0  2  0  0  0  0  0  0
  161.7810  206.7700  152.0940 C   0  0  1  0  0  3  0  0  0  0  0  0
  161.1160  205.5490  151.9240 O   0  0  0  0  0  0  0  0  0  0  0  0
  162.0730  204.6470  151.8460 O   0  0  0  0  0  0  0  0  0  0  0  0
  161.4300  203.4780  151.4370 C   0  0  0  0  0  2  0  0  0  0  0  0
  160.8060  202.4380  149.2820 C   0  0  0  0  0  1  0  0  0  0  0  0
  160.7610  203.7130  150.0980 C   0  0  0  0  0  2  0  0  0  0  0  0
  162.6180  207.0960  150.8650 C   0  0  0  0  0  2  0  0  0  0  0  0
  161.7380  207.6210  149.7450 C   0  0  0  0  0  2  0  0  0  0  0  0
  161.9600  206.8120  148.4790 C   0  0  0  0  0  2  0  0  0  0  0  0
  160.6300  206.4270  147.8600 C   0  0  0  0  0  2  0  0  0  0  0  0
  161.9220  204.7340  146.1680 S   0  0  0  0  0  1  0  0  0  0  0  0
  160.8200  206.1570  146.3820 C   0  0  0  0  0  2  0  0  0  0  0  0
  1  6  1  0  0  0  0
  1  2  2  0  0  0  0
  3  5  1  0  0  0  0
  4  1  1  0  0  0  0
  5  8  1  0  0  0  0
  5  6  2  0  0  0  0
  7  3  2  0  0  0  0
  7  4  1  0  0  0  0
  8 11  1  0  0  0  0
 11 10  2  0  0  0  0
 11  9  2  0  0  0  0
 12 11  1  0  0  0  0
 13 14  1  6  0  0  0
 13 12  1  0  0  0  0
 14 15  1  0  0  0  0
 16 13  1  0  0  0  0
 17 16  1  0  0  0  0
 18 19  1  0  0  0  0
 18 17  1  0  0  0  0
 19 17  1  0  0  0  0
 20  7  1  0  0  0  0
 21 27  1  6  0  0  0
 21 20  1  0  0  0  0
 22 21  1  0  0  0  0
 23 22  1  0  0  0  0
 24 23  1  0  0  0  0
 25 26  1  0  0  0  0
 26 24  1  0  0  0  0
 28 27  1  0  0  0  0
 29 28  1  0  0  0  0
 30 29  1  0  0  0  0
 31 32  1  0  0  0  0
 32 30  1  0  0  0  0
M  END
>  <MODEL>
3

>  <REMARK>
 VINA RESULT:      -5.7      1.969      3.709
  Name = 
  18 active torsions:
  status: ('A' for Active; 'I' for Inactive)
    1  A    between atoms: C_1  and  O_30
    2  A    between atoms: N_2  and  C_5
    3  A    between atoms: N_2  and  S_27
    4  A    between atoms: C_5  and  C_14
    5  A    between atoms: C_5  and  O_30
    6  A    between atoms: C_6  and  C_17
    7  A    between atoms: C_6  and  C_31
    8  A    between atoms: C_7  and  C_26
    9  A    between atoms: C_7  and  C_31
   10  A    between atoms: O_9  and  C_31
   11  A    between atoms: O_9  and  O_32
   12  A    between atoms: C_12  and  C_28
   13  A    between atoms: C_12  and  O_32
   14  A    between atoms: C_16  and  C_20
   15  A    between atoms: C_16  and  S_27
   16  A    between atoms: C_17  and  C_29
   17  A    between atoms: C_18  and  C_25
   18  A    between atoms: C_18  and  C_29
                            x       y       z     vdW  Elec       q    Type
                         _______ _______ _______ _____ _____    ______ ____

>  <TORSDO>
F 18

$$$$
=
 OpenBabel11062408343D

 32 33  0  0  1  0  0  0  0  0999 V2000
  160.8210  207.5750  154.2620 C   0  0  0  0  0  0  0  0  0  0  0  0
  160.4200  206.8890  155.2380 O   0  0  0  0  0  0  0  0  0  0  0  0
  161.6020  209.1520  152.0720 C   0  0  0  0  0  3  0  0  0  0  0  0
  161.4430  206.8850  153.0800 C   0  0  0  0  0  2  0  0  0  0  0  0
  161.0680  209.7500  153.3070 C   0  0  0  0  0  0  0  0  0  0  0  0
  160.7000  209.0000  154.3000 N   0  0  0  0  0  0  0  0  0  0  0  0
  161.7480  207.8300  151.9480 C   0  0  0  0  0  0  0  0  0  0  0  0
  160.8970  211.2280  153.3990 C   0  0  0  0  0  2  0  0  0  0  0  0
  159.0660  210.4840  155.2310 O   0  0  0  0  0  0  0  0  0  0  0  0
  159.7340  212.8390  155.2060 O   0  0  0  0  0  0  0  0  0  0  0  0
  159.4400  211.6400  154.3460 S   0  0  0  0  0  0  0  0  0  0  0  0
  158.1210  211.9910  153.2800 N   0  0  0  0  0  2  0  0  0  0  0  0
  157.8330  213.4210  153.3820 C   0  0  2  0  0  3  0  0  0  0  0  0
  156.5250  213.6780  154.1270 C   0  0  0  0  0  2  0  0  0  0  0  0
  155.7910  212.4960  154.2190 O   0  0  0  0  0  1  0  0  0  0  0  0
  157.8830  214.0620  152.1230 O   0  0  0  0  0  0  0  0  0  0  0  0
  158.1780  213.1090  151.1340 C   0  0  0  0  0  3  0  0  0  0  0  0
  157.3980  213.4340  149.8770 C   0  0  0  0  0  2  0  0  0  0  0  0
  158.8630  213.7960  149.9700 C   0  0  0  0  0  2  0  0  0  0  0  0
  162.2870  207.2650  150.6710 C   0  0  0  0  0  2  0  0  0  0  0  0
  161.2430  207.2110  149.5520 C   0  0  1  0  0  3  0  0  0  0  0  0
  161.8590  207.3310  148.2990 O   0  0  0  0  0  0  0  0  0  0  0  0
  161.1160  206.6100  147.4840 O   0  0  0  0  0  0  0  0  0  0  0  0
  161.9660  206.2760  146.4280 C   0  0  0  0  0  2  0  0  0  0  0  0
  161.7350  203.9260  145.6970 C   0  0  0  0  0  1  0  0  0  0  0  0
  162.4800  204.8650  146.6220 C   0  0  0  0  0  2  0  0  0  0  0  0
  160.4180  205.9330  149.6200 C   0  0  0  0  0  2  0  0  0  0  0  0
  161.2270  204.8100  150.2450 C   0  0  0  0  0  2  0  0  0  0  0  0
  160.8360  203.4770  149.6320 C   0  0  0  0  0  2  0  0  0  0  0  0
  160.9170  202.3760  150.6710 C   0  0  0  0  0  2  0  0  0  0  0  0
  161.0040  201.2810  148.1830 S   0  0  0  0  0  1  0  0  0  0  0  0
  160.9720  201.0310  149.9780 C   0  0  0  0  0  2  0  0  0  0  0  0
  1  6  1  0  0  0  0
  1  2  2  0  0  0  0
  3  5  1  0  0  0  0
  4  1  1  0  0  0  0
  5  8  1  0  0  0  0
  5  6  2  0  0  0  0
  7  3  2  0  0  0  0
  7  4  1  0  0  0  0
  8 11  1  0  0  0  0
 11 10  2  0  0  0  0
 11  9  2  0  0  0  0
 12 13  1  0  0  0  0
 12 11  1  0  0  0  0
 13 14  1  6  0  0  0
 14 15  1  0  0  0  0
 16 13  1  0  0  0  0
 17 16  1  0  0  0  0
 18 19  1  0  0  0  0
 18 17  1  0  0  0  0
 19 17  1  0  0  0  0
 20  7  1  0  0  0  0
 21 27  1  6  0  0  0
 21 20  1  0  0  0  0
 22 21  1  0  0  0  0
 23 22  1  0  0  0  0
 24 26  1  0  0  0  0
 24 23  1  0  0  0  0
 25 26  1  0  0  0  0
 27 28  1  0  0  0  0
 29 28  1  0  0  0  0
 29 30  1  0  0  0  0
 31 32  1  0  0  0  0
 32 30  1  0  0  0  0
M  END
>  <MODEL>
4

>  <REMARK>
 VINA RESULT:      -5.7      1.508      2.512
  Name = 
  18 active torsions:
  status: ('A' for Active; 'I' for Inactive)
    1  A    between atoms: C_1  and  O_30
    2  A    between atoms: N_2  and  C_5
    3  A    between atoms: N_2  and  S_27
    4  A    between atoms: C_5  and  C_14
    5  A    between atoms: C_5  and  O_30
    6  A    between atoms: C_6  and  C_17
    7  A    between atoms: C_6  and  C_31
    8  A    between atoms: C_7  and  C_26
    9  A    between atoms: C_7  and  C_31
   10  A    between atoms: O_9  and  C_31
   11  A    between atoms: O_9  and  O_32
   12  A    between atoms: C_12  and  C_28
   13  A    between atoms: C_12  and  O_32
   14  A    between atoms: C_16  and  C_20
   15  A    between atoms: C_16  and  S_27
   16  A    between atoms: C_17  and  C_29
   17  A    between atoms: C_18  and  C_25
   18  A    between atoms: C_18  and  C_29
                            x       y       z     vdW  Elec       q    Type
                         _______ _______ _______ _____ _____    ______ ____

>  <TORSDO>
F 18

$$$$
=
 OpenBabel11062408343D

 32 33  0  0  1  0  0  0  0  0999 V2000
  160.2120  207.5680  155.2900 C   0  0  0  0  0  0  0  0  0  0  0  0
  159.5380  207.1560  156.2700 O   0  0  0  0  0  0  0  0  0  0  0  0
  161.6170  208.5520  153.0660 C   0  0  0  0  0  3  0  0  0  0  0  0
  160.8370  206.5730  154.3530 C   0  0  0  0  0  2  0  0  0  0  0  0
  161.0500  209.4510  154.0830 C   0  0  0  0  0  0  0  0  0  0  0  0
  160.3910  208.9750  155.0960 N   0  0  0  0  0  0  0  0  0  0  0  0
  161.4960  207.2250  153.1660 C   0  0  0  0  0  0  0  0  0  0  0  0
  161.1840  210.9270  153.9250 C   0  0  0  0  0  2  0  0  0  0  0  0
  159.8960  212.9060  152.6250 O   0  0  0  0  0  0  0  0  0  0  0  0
  158.8900  210.6750  152.5500 O   0  0  0  0  0  0  0  0  0  0  0  0
  159.6340  211.6550  153.4160 S   0  0  0  0  0  0  0  0  0  0  0  0
  158.6810  212.0490  154.8070 N   0  0  0  0  0  2  0  0  0  0  0  0
  158.8120  213.4850  155.0460 C   0  0  2  0  0  3  0  0  0  0  0  0
  159.2440  213.7780  156.4810 C   0  0  0  0  0  2  0  0  0  0  0  0
  160.4860  213.1950  156.7320 O   0  0  0  0  0  1  0  0  0  0  0  0
  157.6480  214.1930  154.6680 O   0  0  0  0  0  0  0  0  0  0  0  0
  156.5160  213.4700  155.0810 C   0  0  0  0  0  3  0  0  0  0  0  0
  155.3790  214.4340  155.3510 C   0  0  0  0  0  2  0  0  0  0  0  0
  155.4120  213.6500  154.0580 C   0  0  0  0  0  2  0  0  0  0  0  0
  162.0800  206.3500  152.1020 C   0  0  0  0  0  2  0  0  0  0  0  0
  161.0730  205.9770  151.0110 C   0  0  1  0  0  3  0  0  0  0  0  0
  161.5980  206.2530  149.7420 O   0  0  0  0  0  0  0  0  0  0  0  0
  161.6080  207.5680  149.6560 O   0  0  0  0  0  0  0  0  0  0  0  0
  161.5220  207.8370  148.2900 C   0  0  0  0  0  2  0  0  0  0  0  0
  160.8300  206.2220  146.5510 C   0  0  0  0  0  1  0  0  0  0  0  0
  161.9380  206.6100  147.5060 C   0  0  0  0  0  2  0  0  0  0  0  0
  160.6590  204.5150  151.1110 C   0  0  0  0  0  2  0  0  0  0  0  0
  160.9490  203.7900  149.8090 C   0  0  0  0  0  2  0  0  0  0  0  0
  160.6220  202.3140  149.9460 C   0  0  0  0  0  2  0  0  0  0  0  0
  160.9970  201.5710  148.6780 C   0  0  0  0  0  2  0  0  0  0  0  0
  160.6930  201.7480  145.9820 S   0  0  0  0  0  1  0  0  0  0  0  0
  161.1450  202.5570  147.5400 C   0  0  0  0  0  2  0  0  0  0  0  0
  1  2  2  0  0  0  0
  3  7  2  0  0  0  0
  3  5  1  0  0  0  0
  4  1  1  0  0  0  0
  5  6  2  0  0  0  0
  6  1  1  0  0  0  0
  7  4  1  0  0  0  0
  8  5  1  0  0  0  0
  9 11  2  0  0  0  0
 10 11  2  0  0  0  0
 11  8  1  0  0  0  0
 11 12  1  0  0  0  0
 12 13  1  0  0  0  0
 13 14  1  1  0  0  0
 14 15  1  0  0  0  0
 16 13  1  0  0  0  0
 16 17  1  0  0  0  0
 17 18  1  0  0  0  0
 19 17  1  0  0  0  0
 19 18  1  0  0  0  0
 20  7  1  0  0  0  0
 21 27  1  6  0  0  0
 21 20  1  0  0  0  0
 22 21  1  0  0  0  0
 23 22  1  0  0  0  0
 24 23  1  0  0  0  0
 25 26  1  0  0  0  0
 26 24  1  0  0  0  0
 28 29  1  0  0  0  0
 28 27  1  0  0  0  0
 30 29  1  0  0  0  0
 31 32  1  0  0  0  0
 32 30  1  0  0  0  0
M  END
>  <MODEL>
5

>  <REMARK>
 VINA RESULT:      -5.7      1.323      1.834
  Name = 
  18 active torsions:
  status: ('A' for Active; 'I' for Inactive)
    1  A    between atoms: C_1  and  O_30
    2  A    between atoms: N_2  and  C_5
    3  A    between atoms: N_2  and  S_27
    4  A    between atoms: C_5  and  C_14
    5  A    between atoms: C_5  and  O_30
    6  A    between atoms: C_6  and  C_17
    7  A    between atoms: C_6  and  C_31
    8  A    between atoms: C_7  and  C_26
    9  A    between atoms: C_7  and  C_31
   10  A    between atoms: O_9  and  C_31
   11  A    between atoms: O_9  and  O_32
   12  A    between atoms: C_12  and  C_28
   13  A    between atoms: C_12  and  O_32
   14  A    between atoms: C_16  and  C_20
   15  A    between atoms: C_16  and  S_27
   16  A    between atoms: C_17  and  C_29
   17  A    between atoms: C_18  and  C_25
   18  A    between atoms: C_18  and  C_29
                            x       y       z     vdW  Elec       q    Type
                         _______ _______ _______ _____ _____    ______ ____

>  <TORSDO>
F 18

$$$$
=
 OpenBabel11062408343D

 32 33  0  0  1  0  0  0  0  0999 V2000
  160.8200  205.1950  150.5790 C   0  0  0  0  0  0  0  0  0  0  0  0
  160.6330  204.0510  151.0680 O   0  0  0  0  0  0  0  0  0  0  0  0
  161.3270  207.7020  149.4170 C   0  0  0  0  0  3  0  0  0  0  0  0
  161.1010  206.3540  151.4940 C   0  0  0  0  0  2  0  0  0  0  0  0
  160.9540  206.5330  148.6040 C   0  0  0  0  0  0  0  0  0  0  0  0
  160.7390  205.3800  149.1610 N   0  0  0  0  0  0  0  0  0  0  0  0
  161.4280  207.6200  150.7460 C   0  0  0  0  0  0  0  0  0  0  0  0
  160.8760  206.6570  147.1210 C   0  0  0  0  0  2  0  0  0  0  0  0
  162.3620  205.8180  145.0360 O   0  0  0  0  0  0  0  0  0  0  0  0
  162.8690  204.8600  147.2310 O   0  0  0  0  0  0  0  0  0  0  0  0
  161.7630  205.3270  146.3250 S   0  0  0  0  0  0  0  0  0  0  0  0
  160.6850  204.0140  145.9880 N   0  0  0  0  0  2  0  0  0  0  0  0
  161.3300  202.7810  146.4360 C   0  0  2  0  0  3  0  0  0  0  0  0
  160.7960  201.5640  145.6850 C   0  0  0  0  0  2  0  0  0  0  0  0
  159.8220  201.9600  144.7690 O   0  0  0  0  0  1  0  0  0  0  0  0
  161.2680  202.6300  147.8400 O   0  0  0  0  0  0  0  0  0  0  0  0
  160.7920  201.3440  148.1440 C   0  0  0  0  0  3  0  0  0  0  0  0
  161.1820  200.9890  149.5640 C   0  0  0  0  0  2  0  0  0  0  0  0
  159.7720  201.4420  149.2600 C   0  0  0  0  0  2  0  0  0  0  0  0
  161.8190  208.8330  151.5320 C   0  0  0  0  0  2  0  0  0  0  0  0
  160.7170  209.3140  152.4790 C   0  0  1  0  0  3  0  0  0  0  0  0
  160.8820  208.7510  153.7510 O   0  0  0  0  0  0  0  0  0  0  0  0
  161.5570  209.6510  154.4370 O   0  0  0  0  0  0  0  0  0  0  0  0
  161.2610  209.3780  155.7740 C   0  0  0  0  0  2  0  0  0  0  0  0
  160.2030  207.4280  156.8650 C   0  0  0  0  0  1  0  0  0  0  0  0
  160.0060  208.5330  155.8500 C   0  0  0  0  0  2  0  0  0  0  0  0
  160.6840  210.8330  152.5690 C   0  0  0  0  0  2  0  0  0  0  0  0
  159.2510  211.3340  152.6070 C   0  0  0  0  0  2  0  0  0  0  0  0
  158.9350  211.9180  153.9720 C   0  0  0  0  0  2  0  0  0  0  0  0
  157.5970  211.4050  154.4690 C   0  0  0  0  0  2  0  0  0  0  0  0
  156.3490  212.8300  156.4190 S   0  0  0  0  0  1  0  0  0  0  0  0
  157.5340  211.5320  155.9750 C   0  0  0  0  0  2  0  0  0  0  0  0
  1  2  2  0  0  0  0
  1  4  1  0  0  0  0
  3  7  2  0  0  0  0
  5  6  2  0  0  0  0
  5  3  1  0  0  0  0
  6  1  1  0  0  0  0
  7  4  1  0  0  0  0
  7 20  1  0  0  0  0
  8  5  1  0  0  0  0
  9 11  2  0  0  0  0
 11  8  1  0  0  0  0
 11 10  2  0  0  0  0
 12 11  1  0  0  0  0
 12 13  1  0  0  0  0
 13 14  1  6  0  0  0
 13 16  1  0  0  0  0
 15 14  1  0  0  0  0
 16 17  1  0  0  0  0
 17 19  1  0  0  0  0
 17 18  1  0  0  0  0
 19 18  1  0  0  0  0
 21 20  1  6  0  0  0
 21 27  1  0  0  0  0
 21 22  1  0  0  0  0
 22 23  1  0  0  0  0
 23 24  1  0  0  0  0
 24 26  1  0  0  0  0
 26 25  1  0  0  0  0
 27 28  1  0  0  0  0
 28 29  1  0  0  0  0
 29 30  1  0  0  0  0
 30 32  1  0  0  0  0
 32 31  1  0  0  0  0
M  END
>  <MODEL>
6

>  <REMARK>
 VINA RESULT:      -5.7      3.253      9.795
  Name = 
  18 active torsions:
  status: ('A' for Active; 'I' for Inactive)
    1  A    between atoms: C_1  and  O_30
    2  A    between atoms: N_2  and  C_5
    3  A    between atoms: N_2  and  S_27
    4  A    between atoms: C_5  and  C_14
    5  A    between atoms: C_5  and  O_30
    6  A    between atoms: C_6  and  C_17
    7  A    between atoms: C_6  and  C_31
    8  A    between atoms: C_7  and  C_26
    9  A    between atoms: C_7  and  C_31
   10  A    between atoms: O_9  and  C_31
   11  A    between atoms: O_9  and  O_32
   12  A    between atoms: C_12  and  C_28
   13  A    between atoms: C_12  and  O_32
   14  A    between atoms: C_16  and  C_20
   15  A    between atoms: C_16  and  S_27
   16  A    between atoms: C_17  and  C_29
   17  A    between atoms: C_18  and  C_25
   18  A    between atoms: C_18  and  C_29
                            x       y       z     vdW  Elec       q    Type
                         _______ _______ _______ _____ _____    ______ ____

>  <TORSDO>
F 18

$$$$
=
 OpenBabel11062408343D

 32 33  0  0  1  0  0  0  0  0999 V2000
  160.5330  207.3900  154.9250 C   0  0  0  0  0  0  0  0  0  0  0  0
  160.1950  206.9820  156.0660 O   0  0  0  0  0  0  0  0  0  0  0  0
  161.1690  208.3300  152.3550 C   0  0  0  0  0  3  0  0  0  0  0  0
  161.2690  206.4650  153.9960 C   0  0  0  0  0  2  0  0  0  0  0  0
  160.5310  209.1950  153.3610 C   0  0  0  0  0  0  0  0  0  0  0  0
  160.2330  208.7350  154.5370 N   0  0  0  0  0  0  0  0  0  0  0  0
  161.4830  207.0610  152.6300 C   0  0  0  0  0  0  0  0  0  0  0  0
  160.1730  210.5990  153.0090 C   0  0  0  0  0  2  0  0  0  0  0  0
  158.5460  210.9500  155.1280 O   0  0  0  0  0  0  0  0  0  0  0  0
  160.9180  211.4690  155.4390 O   0  0  0  0  0  0  0  0  0  0  0  0
  159.7660  211.5360  154.4740 S   0  0  0  0  0  0  0  0  0  0  0  0
  159.4490  213.1860  154.0520 N   0  0  0  0  0  2  0  0  0  0  0  0
  158.0500  213.2800  153.6370 C   0  0  2  0  0  3  0  0  0  0  0  0
  157.9200  213.8760  152.2380 C   0  0  0  0  0  2  0  0  0  0  0  0
  158.1960  212.9010  151.2790 O   0  0  0  0  0  1  0  0  0  0  0  0
  157.2580  213.9530  154.5960 O   0  0  0  0  0  0  0  0  0  0  0  0
  155.9650  213.4040  154.5910 C   0  0  0  0  0  3  0  0  0  0  0  0
  155.6750  212.7950  155.9470 C   0  0  0  0  0  2  0  0  0  0  0  0
  155.1040  214.1490  155.5910 C   0  0  0  0  0  2  0  0  0  0  0  0
  162.1220  206.2150  151.5730 C   0  0  0  0  0  2  0  0  0  0  0  0
  161.1660  205.1800  150.9740 C   0  0  1  0  0  3  0  0  0  0  0  0
  161.1560  205.2720  149.5760 O   0  0  0  0  0  0  0  0  0  0  0  0
  160.5580  206.4170  149.3150 O   0  0  0  0  0  0  0  0  0  0  0  0
  161.0570  206.8040  148.0700 C   0  0  0  0  0  2  0  0  0  0  0  0
  161.9620  208.9960  148.7670 C   0  0  0  0  0  1  0  0  0  0  0  0
  162.3210  207.6150  148.2630 C   0  0  0  0  0  2  0  0  0  0  0  0
  161.5280  203.7680  151.4130 C   0  0  0  0  0  2  0  0  0  0  0  0
  160.4610  202.7830  150.9710 C   0  0  0  0  0  2  0  0  0  0  0  0
  161.0990  201.5950  150.2730 C   0  0  0  0  0  2  0  0  0  0  0  0
  160.4860  201.3990  148.9000 C   0  0  0  0  0  2  0  0  0  0  0  0
  160.8320  201.7040  146.2190 S   0  0  0  0  0  1  0  0  0  0  0  0
  161.1990  202.2820  147.8980 C   0  0  0  0  0  2  0  0  0  0  0  0
  1  2  2  0  0  0  0
  3  7  2  0  0  0  0
  3  5  1  0  0  0  0
  4  1  1  0  0  0  0
  5  6  2  0  0  0  0
  6  1  1  0  0  0  0
  7  4  1  0  0  0  0
  8  5  1  0  0  0  0
  8 11  1  0  0  0  0
 11  9  2  0  0  0  0
 11 10  2  0  0  0  0
 12 11  1  0  0  0  0
 13 14  1  6  0  0  0
 13 12  1  0  0  0  0
 13 16  1  0  0  0  0
 15 14  1  0  0  0  0
 17 16  1  0  0  0  0
 17 19  1  0  0  0  0
 17 18  1  0  0  0  0
 19 18  1  0  0  0  0
 20  7  1  0  0  0  0
 21 27  1  6  0  0  0
 21 20  1  0  0  0  0
 22 21  1  0  0  0  0
 23 22  1  0  0  0  0
 24 26  1  0  0  0  0
 24 23  1  0  0  0  0
 26 25  1  0  0  0  0
 28 27  1  0  0  0  0
 29 28  1  0  0  0  0
 30 29  1  0  0  0  0
 31 32  1  0  0  0  0
 32 30  1  0  0  0  0
M  END
>  <MODEL>
7

>  <REMARK>
 VINA RESULT:      -5.5      1.334      1.793
  Name = 
  18 active torsions:
  status: ('A' for Active; 'I' for Inactive)
    1  A    between atoms: C_1  and  O_30
    2  A    between atoms: N_2  and  C_5
    3  A    between atoms: N_2  and  S_27
    4  A    between atoms: C_5  and  C_14
    5  A    between atoms: C_5  and  O_30
    6  A    between atoms: C_6  and  C_17
    7  A    between atoms: C_6  and  C_31
    8  A    between atoms: C_7  and  C_26
    9  A    between atoms: C_7  and  C_31
   10  A    between atoms: O_9  and  C_31
   11  A    between atoms: O_9  and  O_32
   12  A    between atoms: C_12  and  C_28
   13  A    between atoms: C_12  and  O_32
   14  A    between atoms: C_16  and  C_20
   15  A    between atoms: C_16  and  S_27
   16  A    between atoms: C_17  and  C_29
   17  A    between atoms: C_18  and  C_25
   18  A    between atoms: C_18  and  C_29
                            x       y       z     vdW  Elec       q    Type
                         _______ _______ _______ _____ _____    ______ ____

>  <TORSDO>
F 18

$$$$
=
 OpenBabel11062408343D

 32 33  0  0  1  0  0  0  0  0999 V2000
  160.7070  207.3560  154.6410 C   0  0  0  0  0  0  0  0  0  0  0  0
  160.4670  206.8800  155.7810 O   0  0  0  0  0  0  0  0  0  0  0  0
  161.1190  208.4260  152.0770 C   0  0  0  0  0  3  0  0  0  0  0  0
  161.5550  206.5740  153.6770 C   0  0  0  0  0  2  0  0  0  0  0  0
  160.3790  209.1630  153.1140 C   0  0  0  0  0  0  0  0  0  0  0  0
  160.1870  208.6420  154.2870 N   0  0  0  0  0  0  0  0  0  0  0  0
  161.6370  207.2190  152.3180 C   0  0  0  0  0  0  0  0  0  0  0  0
  159.7940  210.4970  152.7990 C   0  0  0  0  0  2  0  0  0  0  0  0
  158.7680  211.0620  155.2260 O   0  0  0  0  0  0  0  0  0  0  0  0
  161.1540  211.4950  154.8900 O   0  0  0  0  0  0  0  0  0  0  0  0
  159.7970  211.5480  154.2430 S   0  0  0  0  0  0  0  0  0  0  0  0
  159.4260  213.1780  153.7900 N   0  0  0  0  0  2  0  0  0  0  0  0
  157.9990  213.2430  153.4790 C   0  0  2  0  0  3  0  0  0  0  0  0
  157.7530  213.8340  152.0930 C   0  0  0  0  0  2  0  0  0  0  0  0
  158.1950  212.9450  151.1130 O   0  0  0  0  0  1  0  0  0  0  0  0
  157.2660  213.8990  154.4940 O   0  0  0  0  0  0  0  0  0  0  0  0
  155.9930  213.3130  154.5940 C   0  0  0  0  0  3  0  0  0  0  0  0
  155.8150  212.7380  155.9840 C   0  0  0  0  0  2  0  0  0  0  0  0
  155.1800  214.0640  155.6290 C   0  0  0  0  0  2  0  0  0  0  0  0
  162.3740  206.5020  151.2310 C   0  0  0  0  0  2  0  0  0  0  0  0
  161.5340  205.4170  150.5510 C   0  0  1  0  0  3  0  0  0  0  0  0
  161.1590  204.4350  151.4770 O   0  0  0  0  0  0  0  0  0  0  0  0
  160.4060  203.5950  150.7960 O   0  0  0  0  0  0  0  0  0  0  0  0
  161.1160  202.3930  150.8030 C   0  0  0  0  0  2  0  0  0  0  0  0
  161.1540  201.5540  148.4780 C   0  0  0  0  0  1  0  0  0  0  0  0
  160.4800  201.4250  149.8280 C   0  0  0  0  0  2  0  0  0  0  0  0
  160.3070  206.0070  149.8720 C   0  0  0  0  0  2  0  0  0  0  0  0
  160.5910  206.2870  148.4070 C   0  0  0  0  0  2  0  0  0  0  0  0
  161.4710  205.1960  147.8250 C   0  0  0  0  0  2  0  0  0  0  0  0
  162.4140  205.7770  146.7880 C   0  0  0  0  0  2  0  0  0  0  0  0
  161.3580  203.5880  145.5670 S   0  0  0  0  0  1  0  0  0  0  0  0
  162.7650  204.7120  145.7720 C   0  0  0  0  0  2  0  0  0  0  0  0
  1  2  2  0  0  0  0
  3  7  2  0  0  0  0
  3  5  1  0  0  0  0
  4  1  1  0  0  0  0
  5  6  2  0  0  0  0
  6  1  1  0  0  0  0
  7  4  1  0  0  0  0
  8  5  1  0  0  0  0
  8 11  1  0  0  0  0
 11 10  2  0  0  0  0
 11  9  2  0  0  0  0
 12 11  1  0  0  0  0
 13 14  1  6  0  0  0
 13 12  1  0  0  0  0
 13 16  1  0  0  0  0
 15 14  1  0  0  0  0
 16 17  1  0  0  0  0
 17 19  1  0  0  0  0
 17 18  1  0  0  0  0
 19 18  1  0  0  0  0
 20  7  1  0  0  0  0
 21 27  1  1  0  0  0
 21 20  1  0  0  0  0
 21 22  1  0  0  0  0
 23 24  1  0  0  0  0
 23 22  1  0  0  0  0
 25 26  1  0  0  0  0
 26 24  1  0  0  0  0
 28 27  1  0  0  0  0
 29 28  1  0  0  0  0
 30 29  1  0  0  0  0
 31 32  1  0  0  0  0
 32 30  1  0  0  0  0
M  END
>  <MODEL>
8

>  <REMARK>
 VINA RESULT:      -5.5      1.537      2.813
  Name = 
  18 active torsions:
  status: ('A' for Active; 'I' for Inactive)
    1  A    between atoms: C_1  and  O_30
    2  A    between atoms: N_2  and  C_5
    3  A    between atoms: N_2  and  S_27
    4  A    between atoms: C_5  and  C_14
    5  A    between atoms: C_5  and  O_30
    6  A    between atoms: C_6  and  C_17
    7  A    between atoms: C_6  and  C_31
    8  A    between atoms: C_7  and  C_26
    9  A    between atoms: C_7  and  C_31
   10  A    between atoms: O_9  and  C_31
   11  A    between atoms: O_9  and  O_32
   12  A    between atoms: C_12  and  C_28
   13  A    between atoms: C_12  and  O_32
   14  A    between atoms: C_16  and  C_20
   15  A    between atoms: C_16  and  S_27
   16  A    between atoms: C_17  and  C_29
   17  A    between atoms: C_18  and  C_25
   18  A    between atoms: C_18  and  C_29
                            x       y       z     vdW  Elec       q    Type
                         _______ _______ _______ _____ _____    ______ ____

>  <TORSDO>
F 18

$$$$
=
 OpenBabel11062408343D

 32 33  0  0  1  0  0  0  0  0999 V2000
  161.2970  205.9720  153.2320 C   0  0  0  0  0  0  0  0  0  0  0  0
  161.2240  204.7370  153.4600 O   0  0  0  0  0  0  0  0  0  0  0  0
  161.3360  208.7360  152.7270 C   0  0  0  0  0  3  0  0  0  0  0  0
  162.0150  206.4560  152.0030 C   0  0  0  0  0  2  0  0  0  0  0  0
  160.7360  208.1800  153.9510 C   0  0  0  0  0  0  0  0  0  0  0  0
  160.7160  206.8990  154.1560 N   0  0  0  0  0  0  0  0  0  0  0  0
  161.8990  207.9450  151.8090 C   0  0  0  0  0  0  0  0  0  0  0  0
  160.0950  209.0920  154.9400 C   0  0  0  0  0  2  0  0  0  0  0  0
  160.8790  211.0900  156.5700 O   0  0  0  0  0  0  0  0  0  0  0  0
  162.5290  210.2260  154.9810 O   0  0  0  0  0  0  0  0  0  0  0  0
  161.0760  210.5650  155.1750 S   0  0  0  0  0  0  0  0  0  0  0  0
  160.6010  211.7810  154.0370 N   0  0  0  0  0  2  0  0  0  0  0  0
  159.1890  211.5710  153.7220 C   0  0  2  0  0  3  0  0  0  0  0  0
  158.8790  211.9320  152.2710 C   0  0  0  0  0  2  0  0  0  0  0  0
  159.5300  213.1160  151.9260 O   0  0  0  0  0  1  0  0  0  0  0  0
  158.3390  212.2230  154.6440 O   0  0  0  0  0  0  0  0  0  0  0  0
  157.1440  211.4930  154.7620 C   0  0  0  0  0  3  0  0  0  0  0  0
  156.5350  211.7480  156.1260 C   0  0  0  0  0  2  0  0  0  0  0  0
  155.9850  212.4570  154.9090 C   0  0  0  0  0  2  0  0  0  0  0  0
  162.4900  208.5530  150.5750 C   0  0  0  0  0  2  0  0  0  0  0  0
  161.5780  208.4310  149.3520 C   0  0  1  0  0  3  0  0  0  0  0  0
  161.7730  209.5130  148.4840 O   0  0  0  0  0  0  0  0  0  0  0  0
  162.2430  210.4800  149.2450 O   0  0  0  0  0  0  0  0  0  0  0  0
  161.8490  211.6590  148.6090 C   0  0  0  0  0  2  0  0  0  0  0  0
  162.6620  213.6930  147.4650 C   0  0  0  0  0  1  0  0  0  0  0  0
  163.0630  212.3410  148.0140 C   0  0  0  0  0  2  0  0  0  0  0  0
  161.8000  207.1140  148.6210 C   0  0  0  0  0  2  0  0  0  0  0  0
  160.5790  206.2220  148.7470 C   0  0  0  0  0  2  0  0  0  0  0  0
  160.8840  204.8340  148.2120 C   0  0  0  0  0  2  0  0  0  0  0  0
  162.0010  204.8980  147.1880 C   0  0  0  0  0  2  0  0  0  0  0  0
  161.1860  205.1320  144.6040 S   0  0  0  0  0  1  0  0  0  0  0  0
  161.6360  204.0510  145.9880 C   0  0  0  0  0  2  0  0  0  0  0  0
  1  2  2  0  0  0  0
  1  6  1  0  0  0  0
  3  5  1  0  0  0  0
  4  1  1  0  0  0  0
  5  6  2  0  0  0  0
  5  8  1  0  0  0  0
  7  4  1  0  0  0  0
  7  3  2  0  0  0  0
  8 11  1  0  0  0  0
 10 11  2  0  0  0  0
 11  9  2  0  0  0  0
 12 11  1  0  0  0  0
 13 14  1  6  0  0  0
 13 12  1  0  0  0  0
 13 16  1  0  0  0  0
 15 14  1  0  0  0  0
 16 17  1  0  0  0  0
 17 19  1  0  0  0  0
 17 18  1  0  0  0  0
 19 18  1  0  0  0  0
 20  7  1  0  0  0  0
 21 27  1  6  0  0  0
 21 20  1  0  0  0  0
 22 23  1  0  0  0  0
 22 21  1  0  0  0  0
 24 23  1  0  0  0  0
 25 26  1  0  0  0  0
 26 24  1  0  0  0  0
 27 28  1  0  0  0  0
 29 28  1  0  0  0  0
 30 29  1  0  0  0  0
 31 32  1  0  0  0  0
 32 30  1  0  0  0  0
M  END
>  <MODEL>
9

>  <REMARK>
 VINA RESULT:      -5.4      2.796      3.503
  Name = 
  18 active torsions:
  status: ('A' for Active; 'I' for Inactive)
    1  A    between atoms: C_1  and  O_30
    2  A    between atoms: N_2  and  C_5
    3  A    between atoms: N_2  and  S_27
    4  A    between atoms: C_5  and  C_14
    5  A    between atoms: C_5  and  O_30
    6  A    between atoms: C_6  and  C_17
    7  A    between atoms: C_6  and  C_31
    8  A    between atoms: C_7  and  C_26
    9  A    between atoms: C_7  and  C_31
   10  A    between atoms: O_9  and  C_31
   11  A    between atoms: O_9  and  O_32
   12  A    between atoms: C_12  and  C_28
   13  A    between atoms: C_12  and  O_32
   14  A    between atoms: C_16  and  C_20
   15  A    between atoms: C_16  and  S_27
   16  A    between atoms: C_17  and  C_29
   17  A    between atoms: C_18  and  C_25
   18  A    between atoms: C_18  and  C_29
                            x       y       z     vdW  Elec       q    Type
                         _______ _______ _______ _____ _____    ______ ____

>  <TORSDO>
F 18

$$$$
