=
 OpenBabel11062407533D

 34 40  0  0  1  0  0  0  0  0999 V2000
  161.0010  206.5130  153.7170 C   0  0  0  0  0  0  0  0  0  0  0  0
  161.4600  208.7220  152.7910 C   0  0  0  0  0  0  0  0  0  0  0  0
  161.1950  206.7910  151.3100 C   0  0  0  0  0  0  0  0  0  0  0  0
  161.3640  206.9820  148.9040 C   0  0  0  0  0  0  0  0  0  0  0  0
  161.2570  208.4140  155.1900 C   0  0  0  0  0  3  0  0  0  0  0  0
  161.4760  209.2460  154.0880 C   0  0  0  0  0  3  0  0  0  0  0  0
  161.6480  208.9710  150.2820 C   0  0  0  0  0  0  0  0  0  0  0  0
  161.2200  207.3460  152.5990 C   0  0  0  0  0  0  0  0  0  0  0  0
  161.8450  209.7160  149.1040 C   0  0  0  0  0  0  0  0  0  0  0  0
  161.5660  207.7640  147.7680 C   0  0  0  0  0  2  0  0  0  0  0  0
  161.0200  207.0490  155.0060 C   0  0  0  0  0  3  0  0  0  0  0  0
  160.9520  205.4070  151.1610 C   0  0  0  0  0  0  0  0  0  0  0  0
  160.7650  205.1520  153.5220 C   0  0  0  0  0  3  0  0  0  0  0  0
  161.7060  209.6490  151.6330 C   0  0  0  0  0  3  0  0  0  0  0  0
  161.1300  205.6500  148.7850 N   0  0  0  0  0  0  0  0  0  0  0  0
  160.9240  204.8480  149.8650 C   0  0  0  0  0  0  0  0  0  0  0  0
  161.7970  209.0970  147.8910 N   0  0  0  0  0  0  0  0  0  0  0  0
  161.4040  207.5880  150.1730 C   0  0  0  0  0  0  0  0  0  0  0  0
  160.7460  204.6340  152.2650 N   0  0  0  0  0  0  0  0  0  0  0  0
  160.6980  201.5220  147.9460 C   0  0  1  0  0  3  0  0  0  0  0  0
  161.4960  200.6650  148.9260 C   0  0  0  0  0  2  0  0  0  0  0  0
  160.6730  203.3880  149.6200 C   0  0  1  0  0  3  0  0  0  0  0  0
  161.1390  201.0400  150.3610 C   0  0  0  0  0  2  0  0  0  0  0  0
  160.9930  203.0010  148.1750 C   0  0  0  0  0  2  0  0  0  0  0  0
  161.4410  202.5140  150.6130 C   0  0  0  0  0  2  0  0  0  0  0  0
  161.0390  201.1760  146.6400 O   0  0  0  0  0  1  0  0  0  0  0  0
  162.0880  211.1910  149.1520 C   0  0  0  0  0  2  0  0  0  0  0  0
  163.9680  212.2100  147.1140 N   0  0  0  0  0  1  0  0  0  0  0  0
  161.6410  211.8700  147.8560 C   0  0  2  0  0  3  0  0  0  0  0  0
  162.6930  212.8670  147.3500 C   0  0  1  0  0  3  0  0  0  0  0  0
  161.5960  214.4530  149.0390 C   0  0  0  0  0  2  0  0  0  0  0  0
  160.3500  214.0700  148.2460 C   0  0  0  0  0  2  0  0  0  0  0  0
  160.2710  212.5510  148.0420 C   0  0  0  0  0  2  0  0  0  0  0  0
  162.8780  214.0690  148.2890 C   0  0  0  0  0  2  0  0  0  0  0  0
  1 11  2  0  0  0  0
  2  6  1  0  0  0  0
  3  8  2  0  0  0  0
  4 18  1  0  0  0  0
  6  5  2  0  0  0  0
  7 14  1  0  0  0  0
  8  2  1  0  0  0  0
  8  1  1  0  0  0  0
  9 27  1  0  0  0  0
  9  7  1  0  0  0  0
 10 17  1  0  0  0  0
 10  4  1  0  0  0  0
 11  5  1  0  0  0  0
 12  3  1  0  0  0  0
 12 19  1  0  0  0  0
 13  1  1  0  0  0  0
 14  2  2  0  0  0  0
 15  4  2  0  0  0  0
 15 16  1  0  0  0  0
 16 12  2  0  0  0  0
 17  9  2  0  0  0  0
 18  7  2  0  0  0  0
 18  3  1  0  0  0  0
 19 13  2  0  0  0  0
 20 26  1  6  0  0  0
 20 24  1  0  0  0  0
 20 21  1  0  0  0  0
 21 23  1  0  0  0  0
 22 16  1  6  0  0  0
 22 25  1  0  0  0  0
 23 25  1  0  0  0  0
 24 22  1  0  0  0  0
 29 33  1  0  0  0  0
 29 27  1  1  0  0  0
 30 28  1  1  0  0  0
 30 29  1  0  0  0  0
 30 34  1  0  0  0  0
 32 31  1  0  0  0  0
 33 32  1  0  0  0  0
 34 31  1  0  0  0  0
M  END
>  <MODEL>
1

>  <REMARK>
 VINA RESULT:      -9.4      0.000      0.000
  Name = 
  3 active torsions:
  status: ('A' for Active; 'I' for Inactive)
    1  A    between atoms: C_3  and  C_13
    2  A    between atoms: C_3  and  C_17
    3  A    between atoms: C_12  and  C_28
                            x       y       z     vdW  Elec       q    Type
                         _______ _______ _______ _____ _____    ______ ____

>  <TORSDO>
F 3

$$$$
=
 OpenBabel11062407533D

 34 40  0  0  1  0  0  0  0  0999 V2000
  161.1360  208.8280  153.3660 C   0  0  0  0  0  0  0  0  0  0  0  0
  161.2600  206.5470  152.5120 C   0  0  0  0  0  0  0  0  0  0  0  0
  161.5610  208.4510  151.0020 C   0  0  0  0  0  0  0  0  0  0  0  0
  161.9950  208.1630  148.6390 C   0  0  0  0  0  0  0  0  0  0  0  0
  160.8410  206.9560  154.8670 C   0  0  0  0  0  3  0  0  0  0  0  0
  161.0220  206.0660  153.8030 C   0  0  0  0  0  3  0  0  0  0  0  0
  161.7100  206.1960  150.0480 C   0  0  0  0  0  0  0  0  0  0  0  0
  161.3200  207.9370  152.2870 C   0  0  0  0  0  0  0  0  0  0  0  0
  161.9160  205.3950  148.9090 C   0  0  0  0  0  0  0  0  0  0  0  0
  162.1930  207.3260  147.5430 C   0  0  0  0  0  2  0  0  0  0  0  0
  160.8990  208.3350  154.6500 C   0  0  0  0  0  3  0  0  0  0  0  0
  161.6120  209.8500  150.8190 C   0  0  0  0  0  0  0  0  0  0  0  0
  161.1960  210.2030  153.1370 C   0  0  0  0  0  3  0  0  0  0  0  0
  161.4420  205.5580  151.3930 C   0  0  0  0  0  3  0  0  0  0  0  0
  162.0400  209.5120  148.4870 N   0  0  0  0  0  0  0  0  0  0  0  0
  161.8570  210.3680  149.5280 C   0  0  0  0  0  0  0  0  0  0  0  0
  162.1510  205.9770  147.7000 N   0  0  0  0  0  0  0  0  0  0  0  0
  161.7530  207.5970  149.9040 C   0  0  0  0  0  0  0  0  0  0  0  0
  161.4290  210.6790  151.8860 N   0  0  0  0  0  0  0  0  0  0  0  0
  162.3850  213.6180  147.5400 C   0  0  1  0  0  3  0  0  0  0  0  0
  161.0710  214.3020  147.9110 C   0  0  0  0  0  2  0  0  0  0  0  0
  161.9270  211.8410  149.2490 C   0  0  1  0  0  3  0  0  0  0  0  0
  160.7430  214.0460  149.3790 C   0  0  0  0  0  2  0  0  0  0  0  0
  162.2890  212.1170  147.7870 C   0  0  0  0  0  2  0  0  0  0  0  0
  160.6290  212.5480  149.6420 C   0  0  0  0  0  2  0  0  0  0  0  0
  162.6680  213.8510  146.1950 O   0  0  0  0  0  1  0  0  0  0  0  0
  161.9020  203.9010  149.0010 C   0  0  0  0  0  2  0  0  0  0  0  0
  159.9380  202.6020  150.7830 N   0  0  0  0  0  1  0  0  0  0  0  0
  160.5700  203.3280  148.5130 C   0  0  2  0  0  3  0  0  0  0  0  0
  160.0950  202.1710  149.4040 C   0  0  1  0  0  3  0  0  0  0  0  0
  161.6910  200.7750  147.9630 C   0  0  0  0  0  2  0  0  0  0  0  0
  160.8470  201.3780  146.8450 C   0  0  0  0  0  2  0  0  0  0  0  0
  160.6730  202.8900  147.0390 C   0  0  0  0  0  2  0  0  0  0  0  0
  161.0150  200.9430  149.3300 C   0  0  0  0  0  2  0  0  0  0  0  0
  1 11  2  0  0  0  0
  2  6  1  0  0  0  0
  3  8  2  0  0  0  0
  4 18  1  0  0  0  0
  6  5  2  0  0  0  0
  7 14  1  0  0  0  0
  8  2  1  0  0  0  0
  8  1  1  0  0  0  0
  9 27  1  0  0  0  0
  9  7  1  0  0  0  0
 10 17  1  0  0  0  0
 10  4  1  0  0  0  0
 11  5  1  0  0  0  0
 12  3  1  0  0  0  0
 12 19  1  0  0  0  0
 13  1  1  0  0  0  0
 14  2  2  0  0  0  0
 15  4  2  0  0  0  0
 15 16  1  0  0  0  0
 16 12  2  0  0  0  0
 17  9  2  0  0  0  0
 18  7  2  0  0  0  0
 18  3  1  0  0  0  0
 19 13  2  0  0  0  0
 20 26  1  6  0  0  0
 20 24  1  0  0  0  0
 20 21  1  0  0  0  0
 21 23  1  0  0  0  0
 22 16  1  6  0  0  0
 22 25  1  0  0  0  0
 23 25  1  0  0  0  0
 24 22  1  0  0  0  0
 29 27  1  1  0  0  0
 29 30  1  0  0  0  0
 30 28  1  1  0  0  0
 31 34  1  0  0  0  0
 32 33  1  0  0  0  0
 32 31  1  0  0  0  0
 33 29  1  0  0  0  0
 34 30  1  0  0  0  0
M  END
>  <MODEL>
2

>  <REMARK>
 VINA RESULT:      -9.3      2.540      7.940
  Name = 
  3 active torsions:
  status: ('A' for Active; 'I' for Inactive)
    1  A    between atoms: C_3  and  C_13
    2  A    between atoms: C_3  and  C_17
    3  A    between atoms: C_12  and  C_28
                            x       y       z     vdW  Elec       q    Type
                         _______ _______ _______ _____ _____    ______ ____

>  <TORSDO>
F 3

$$$$
=
 OpenBabel11062407533D

 34 40  0  0  1  0  0  0  0  0999 V2000
  162.0980  208.9590  148.6390 C   0  0  0  0  0  0  0  0  0  0  0  0
  161.7310  210.2430  150.6790 C   0  0  0  0  0  0  0  0  0  0  0  0
  161.5840  207.8000  150.7130 C   0  0  0  0  0  0  0  0  0  0  0  0
  161.0850  206.5690  152.7350 C   0  0  0  0  0  0  0  0  0  0  0  0
  162.2500  211.3720  148.5940 C   0  0  0  0  0  3  0  0  0  0  0  0
  161.9560  211.4220  149.9600 C   0  0  0  0  0  3  0  0  0  0  0  0
  161.2040  209.0010  152.8170 C   0  0  0  0  0  0  0  0  0  0  0  0
  161.8030  209.0010  150.0180 C   0  0  0  0  0  0  0  0  0  0  0  0
  160.9120  208.9330  154.1930 C   0  0  0  0  0  0  0  0  0  0  0  0
  160.7990  206.5560  154.0990 C   0  0  0  0  0  3  0  0  0  0  0  0
  162.3210  210.1430  147.9330 C   0  0  0  0  0  3  0  0  0  0  0  0
  161.6640  206.5750  150.0130 C   0  0  0  0  0  0  0  0  0  0  0  0
  162.1680  207.7260  147.9890 C   0  0  0  0  0  3  0  0  0  0  0  0
  161.4110  210.3400  152.1450 C   0  0  0  0  0  3  0  0  0  0  0  0
  161.1670  205.4040  152.0420 N   0  0  0  0  0  2  0  0  0  0  0  0
  161.4470  205.3680  150.7110 C   0  0  0  0  0  0  0  0  0  0  0  0
  160.7220  207.7230  154.7890 N   0  0  0  0  0  0  0  0  0  0  0  0
  161.2910  207.8000  152.0860 C   0  0  0  0  0  0  0  0  0  0  0  0
  161.9510  206.5760  148.6800 N   0  0  0  0  0  0  0  0  0  0  0  0
  160.8170  201.6180  150.1270 C   0  0  1  0  0  3  0  0  0  0  0  0
  160.3460  201.7120  148.6780 C   0  0  0  0  0  2  0  0  0  0  0  0
  161.5140  204.0250  150.0430 C   0  0  1  0  0  3  0  0  0  0  0  0
  161.1860  202.7350  147.9190 C   0  0  0  0  0  2  0  0  0  0  0  0
  160.7050  202.9770  150.8100 C   0  0  0  0  0  2  0  0  0  0  0  0
  161.0740  204.1060  148.5800 C   0  0  0  0  0  2  0  0  0  0  0  0
  160.0360  200.6880  150.8120 O   0  0  0  0  0  1  0  0  0  0  0  0
  160.8260  210.1710  155.0280 C   0  0  0  0  0  2  0  0  0  0  0  0
  158.6510  211.0930  153.2550 N   0  0  0  0  0  1  0  0  0  0  0  0
  159.3950  210.4190  155.5070 C   0  0  2  0  0  3  0  0  0  0  0  0
  158.6910  211.4840  154.6540 C   0  0  1  0  0  3  0  0  0  0  0  0
  159.9230  213.1270  156.1890 C   0  0  0  0  0  2  0  0  0  0  0  0
  159.2150  212.3040  157.2610 C   0  0  0  0  0  2  0  0  0  0  0  0
  159.3790  210.8010  157.0000 C   0  0  0  0  0  2  0  0  0  0  0  0
  159.3190  212.8780  154.8000 C   0  0  0  0  0  2  0  0  0  0  0  0
  1  8  2  0  0  0  0
  2 14  1  0  0  0  0
  3 18  2  0  0  0  0
  4 10  2  0  0  0  0
  5  6  1  0  0  0  0
  6  2  2  0  0  0  0
  7  9  1  0  0  0  0
  8  2  1  0  0  0  0
  8  3  1  0  0  0  0
  9 17  2  0  0  0  0
  9 27  1  0  0  0  0
 10 17  1  0  0  0  0
 11  5  2  0  0  0  0
 11  1  1  0  0  0  0
 12 16  2  0  0  0  0
 12  3  1  0  0  0  0
 13  1  1  0  0  0  0
 13 19  2  0  0  0  0
 14  7  2  0  0  0  0
 15  4  1  0  0  0  0
 16 15  1  0  0  0  0
 18  4  1  0  0  0  0
 18  7  1  0  0  0  0
 19 12  1  0  0  0  0
 20 24  1  0  0  0  0
 20 26  1  1  0  0  0
 21 20  1  0  0  0  0
 22 16  1  1  0  0  0
 22 24  1  0  0  0  0
 23 25  1  0  0  0  0
 23 21  1  0  0  0  0
 25 22  1  0  0  0  0
 29 27  1  6  0  0  0
 29 33  1  0  0  0  0
 30 28  1  6  0  0  0
 30 34  1  0  0  0  0
 30 29  1  0  0  0  0
 31 32  1  0  0  0  0
 33 32  1  0  0  0  0
 34 31  1  0  0  0  0
M  END
>  <MODEL>
3

>  <REMARK>
 VINA RESULT:      -8.3      2.386      5.367
  Name = 
  3 active torsions:
  status: ('A' for Active; 'I' for Inactive)
    1  A    between atoms: C_3  and  C_13
    2  A    between atoms: C_3  and  C_17
    3  A    between atoms: C_12  and  C_28
                            x       y       z     vdW  Elec       q    Type
                         _______ _______ _______ _____ _____    ______ ____

>  <TORSDO>
F 3

$$$$
=
 OpenBabel11062407533D

 34 40  0  0  1  0  0  0  0  0999 V2000
  161.7210  208.4210  148.7730 C   0  0  0  0  0  0  0  0  0  0  0  0
  161.8260  209.3270  151.0340 C   0  0  0  0  0  0  0  0  0  0  0  0
  161.3160  206.9600  150.6730 C   0  0  0  0  0  0  0  0  0  0  0  0
  160.9080  205.4360  152.5080 C   0  0  0  0  0  0  0  0  0  0  0  0
  162.2290  210.7600  149.1170 C   0  0  0  0  0  3  0  0  0  0  0  0
  162.1300  210.5830  150.5010 C   0  0  0  0  0  3  0  0  0  0  0  0
  161.4040  207.7730  152.9840 C   0  0  0  0  0  0  0  0  0  0  0  0
  161.6200  208.2340  150.1680 C   0  0  0  0  0  0  0  0  0  0  0  0
  161.2900  207.4810  154.3570 C   0  0  0  0  0  0  0  0  0  0  0  0
  160.8060  205.1990  153.8770 C   0  0  0  0  0  3  0  0  0  0  0  0
  162.0260  209.6800  148.2530 C   0  0  0  0  0  3  0  0  0  0  0  0
  161.1160  205.8910  149.7710 C   0  0  0  0  0  0  0  0  0  0  0  0
  161.5160  207.3360  147.9190 C   0  0  0  0  0  3  0  0  0  0  0  0
  161.7220  209.1800  152.5270 C   0  0  0  0  0  3  0  0  0  0  0  0
  160.7200  204.4250  151.6220 N   0  0  0  0  0  2  0  0  0  0  0  0
  160.8120  204.6090  150.2770 C   0  0  0  0  0  0  0  0  0  0  0  0
  160.9990  206.2120  154.7610 N   0  0  0  0  0  0  0  0  0  0  0  0
  161.2110  206.7330  152.0550 C   0  0  0  0  0  0  0  0  0  0  0  0
  161.2210  206.1110  148.4290 N   0  0  0  0  0  0  0  0  0  0  0  0
  160.9440  202.4220  147.1150 C   0  0  1  0  0  3  0  0  0  0  0  0
  161.4740  201.1480  147.7690 C   0  0  0  0  0  2  0  0  0  0  0  0
  160.5860  203.4220  149.3870 C   0  0  1  0  0  3  0  0  0  0  0  0
  160.8090  200.9390  149.1260 C   0  0  0  0  0  2  0  0  0  0  0  0
  161.2170  203.6280  148.0080 C   0  0  0  0  0  2  0  0  0  0  0  0
  161.0840  202.1300  150.0390 C   0  0  0  0  0  2  0  0  0  0  0  0
  161.5670  202.6060  145.8820 O   0  0  0  0  0  1  0  0  0  0  0  0
  161.5050  208.5370  155.3940 C   0  0  0  0  0  2  0  0  0  0  0  0
  163.1200  210.9820  155.7650 N   0  0  0  0  0  1  0  0  0  0  0  0
  161.0820  209.9140  154.8790 C   0  0  2  0  0  3  0  0  0  0  0  0
  161.6680  211.0420  155.7390 C   0  0  1  0  0  3  0  0  0  0  0  0
  159.6660  210.5450  157.2610 C   0  0  0  0  0  2  0  0  0  0  0  0
  158.9070  210.7870  155.9600 C   0  0  0  0  0  2  0  0  0  0  0  0
  159.5460  210.0170  154.7970 C   0  0  0  0  0  2  0  0  0  0  0  0
  161.1100  211.0550  157.1710 C   0  0  0  0  0  2  0  0  0  0  0  0
  1  8  2  0  0  0  0
  2 14  1  0  0  0  0
  3 18  2  0  0  0  0
  4 10  2  0  0  0  0
  5  6  1  0  0  0  0
  6  2  2  0  0  0  0
  7  9  1  0  0  0  0
  8  3  1  0  0  0  0
  8  2  1  0  0  0  0
  9 17  2  0  0  0  0
  9 27  1  0  0  0  0
 10 17  1  0  0  0  0
 11  1  1  0  0  0  0
 11  5  2  0  0  0  0
 12 16  2  0  0  0  0
 12  3  1  0  0  0  0
 13 19  2  0  0  0  0
 13  1  1  0  0  0  0
 14  7  2  0  0  0  0
 15  4  1  0  0  0  0
 16 15  1  0  0  0  0
 18  4  1  0  0  0  0
 18  7  1  0  0  0  0
 19 12  1  0  0  0  0
 20 26  1  6  0  0  0
 20 21  1  0  0  0  0
 20 24  1  0  0  0  0
 21 23  1  0  0  0  0
 22 25  1  0  0  0  0
 22 16  1  1  0  0  0
 23 25  1  0  0  0  0
 24 22  1  0  0  0  0
 29 27  1  1  0  0  0
 29 30  1  0  0  0  0
 30 28  1  1  0  0  0
 30 34  1  0  0  0  0
 32 31  1  0  0  0  0
 33 29  1  0  0  0  0
 33 32  1  0  0  0  0
 34 31  1  0  0  0  0
M  END
>  <MODEL>
4

>  <REMARK>
 VINA RESULT:      -8.0      1.987      5.269
  Name = 
  3 active torsions:
  status: ('A' for Active; 'I' for Inactive)
    1  A    between atoms: C_3  and  C_13
    2  A    between atoms: C_3  and  C_17
    3  A    between atoms: C_12  and  C_28
                            x       y       z     vdW  Elec       q    Type
                         _______ _______ _______ _____ _____    ______ ____

>  <TORSDO>
F 3

$$$$
=
 OpenBabel11062407533D

 34 40  0  0  1  0  0  0  0  0999 V2000
  161.0540  204.3250  151.2040 C   0  0  0  0  0  0  0  0  0  0  0  0
  161.0860  206.1460  152.8250 C   0  0  0  0  0  0  0  0  0  0  0  0
  161.4050  206.6060  150.4420 C   0  0  0  0  0  0  0  0  0  0  0  0
  161.7520  208.8480  149.6000 C   0  0  0  0  0  0  0  0  0  0  0  0
  160.7340  203.8580  153.5550 C   0  0  0  0  0  3  0  0  0  0  0  0
  160.8610  205.2190  153.8490 C   0  0  0  0  0  3  0  0  0  0  0  0
  161.4480  208.5060  151.9930 C   0  0  0  0  0  0  0  0  0  0  0  0
  161.1820  205.7000  151.4920 C   0  0  0  0  0  0  0  0  0  0  0  0
  161.5810  209.8960  152.1720 C   0  0  0  0  0  0  0  0  0  0  0  0
  161.8770  210.2170  149.8310 C   0  0  0  0  0  3  0  0  0  0  0  0
  160.8290  203.4100  152.2350 C   0  0  0  0  0  3  0  0  0  0  0  0
  161.4960  206.1190  149.1200 C   0  0  0  0  0  0  0  0  0  0  0  0
  161.1500  203.8890  149.8820 C   0  0  0  0  0  3  0  0  0  0  0  0
  161.2240  207.6000  153.1830 C   0  0  0  0  0  3  0  0  0  0  0  0
  161.8360  208.3560  148.3370 N   0  0  0  0  0  2  0  0  0  0  0  0
  161.7170  207.0290  148.0630 C   0  0  0  0  0  0  0  0  0  0  0  0
  161.7880  210.7040  151.0950 N   0  0  0  0  0  0  0  0  0  0  0  0
  161.5340  207.9830  150.6880 C   0  0  0  0  0  0  0  0  0  0  0  0
  161.3670  204.7820  148.8820 N   0  0  0  0  0  0  0  0  0  0  0  0
  162.9320  205.0370  145.0050 C   0  0  1  0  0  3  0  0  0  0  0  0
  161.5610  204.6560  144.4500 C   0  0  0  0  0  2  0  0  0  0  0  0
  161.8260  206.5930  146.6310 C   0  0  1  0  0  3  0  0  0  0  0  0
  160.5960  205.8310  144.5850 C   0  0  0  0  0  2  0  0  0  0  0  0
  162.8170  205.4370  146.4720 C   0  0  0  0  0  2  0  0  0  0  0  0
  160.4570  206.2360  146.0480 C   0  0  0  0  0  2  0  0  0  0  0  0
  163.8000  203.9530  144.8860 O   0  0  0  0  0  1  0  0  0  0  0  0
  161.4790  210.5150  153.5310 C   0  0  0  0  0  2  0  0  0  0  0  0
  159.3220  212.4660  153.0160 N   0  0  0  0  0  1  0  0  0  0  0  0
  160.0650  210.3780  154.0970 C   0  0  2  0  0  3  0  0  0  0  0  0
  159.3950  211.7480  154.2770 C   0  0  1  0  0  3  0  0  0  0  0  0
  160.7120  211.7900  156.4770 C   0  0  0  0  0  2  0  0  0  0  0  0
  159.9830  210.4650  156.6750 C   0  0  0  0  0  2  0  0  0  0  0  0
  160.0820  209.5880  155.4200 C   0  0  0  0  0  2  0  0  0  0  0  0
  160.0810  212.6130  155.3450 C   0  0  0  0  0  2  0  0  0  0  0  0
  1  8  2  0  0  0  0
  1 11  1  0  0  0  0
  2 14  1  0  0  0  0
  2  6  2  0  0  0  0
  3 18  2  0  0  0  0
  3  8  1  0  0  0  0
  4 10  2  0  0  0  0
  4 18  1  0  0  0  0
  5  6  1  0  0  0  0
  7  9  1  0  0  0  0
  7 14  2  0  0  0  0
  8  2  1  0  0  0  0
  9 27  1  0  0  0  0
 10 17  1  0  0  0  0
 11  5  2  0  0  0  0
 12  3  1  0  0  0  0
 13  1  1  0  0  0  0
 15  4  1  0  0  0  0
 16 15  1  0  0  0  0
 16 12  2  0  0  0  0
 17  9  2  0  0  0  0
 18  7  1  0  0  0  0
 19 12  1  0  0  0  0
 19 13  2  0  0  0  0
 20 26  1  1  0  0  0
 20 24  1  0  0  0  0
 21 23  1  0  0  0  0
 21 20  1  0  0  0  0
 22 16  1  1  0  0  0
 23 25  1  0  0  0  0
 24 22  1  0  0  0  0
 25 22  1  0  0  0  0
 29 27  1  1  0  0  0
 29 30  1  0  0  0  0
 29 33  1  0  0  0  0
 30 28  1  6  0  0  0
 30 34  1  0  0  0  0
 31 32  1  0  0  0  0
 33 32  1  0  0  0  0
 34 31  1  0  0  0  0
M  END
>  <MODEL>
5

>  <REMARK>
 VINA RESULT:      -7.8      2.494      4.958
  Name = 
  3 active torsions:
  status: ('A' for Active; 'I' for Inactive)
    1  A    between atoms: C_3  and  C_13
    2  A    between atoms: C_3  and  C_17
    3  A    between atoms: C_12  and  C_28
                            x       y       z     vdW  Elec       q    Type
                         _______ _______ _______ _____ _____    ______ ____

>  <TORSDO>
F 3

$$$$
=
 OpenBabel11062407533D

 34 40  0  0  1  0  0  0  0  0999 V2000
  161.9630  210.3720  150.4240 C   0  0  0  0  0  0  0  0  0  0  0  0
  161.6620  208.7070  148.6680 C   0  0  0  0  0  0  0  0  0  0  0  0
  161.4730  208.0670  151.0240 C   0  0  0  0  0  0  0  0  0  0  0  0
  160.9800  205.7990  151.7060 C   0  0  0  0  0  0  0  0  0  0  0  0
  162.1490  211.0160  148.1000 C   0  0  0  0  0  3  0  0  0  0  0  0
  161.8870  209.6990  147.7090 C   0  0  0  0  0  3  0  0  0  0  0  0
  161.1480  206.3220  149.3330 C   0  0  0  0  0  0  0  0  0  0  0  0
  161.6980  209.0410  150.0370 C   0  0  0  0  0  0  0  0  0  0  0  0
  160.8660  204.9710  149.0520 C   0  0  0  0  0  0  0  0  0  0  0  0
  160.7050  204.4730  151.3750 C   0  0  0  0  0  3  0  0  0  0  0  0
  162.1860  211.3530  149.4560 C   0  0  0  0  0  3  0  0  0  0  0  0
  161.5190  208.4430  152.3850 C   0  0  0  0  0  0  0  0  0  0  0  0
  161.9980  210.6970  151.7800 C   0  0  0  0  0  3  0  0  0  0  0  0
  161.3910  207.3010  148.2060 C   0  0  0  0  0  3  0  0  0  0  0  0
  161.0290  206.1840  153.0080 N   0  0  0  0  0  0  0  0  0  0  0  0
  161.2910  207.4660  153.3780 C   0  0  0  0  0  0  0  0  0  0  0  0
  160.6530  204.0940  150.0720 N   0  0  0  0  0  0  0  0  0  0  0  0
  161.2020  206.7330  150.6790 C   0  0  1  0  0  3  0  0  0  0  0  0
  161.7790  209.7400  152.7190 N   0  0  0  0  0  0  0  0  0  0  0  0
  161.6510  209.5560  156.5870 C   0  0  1  0  0  3  0  0  0  0  0  0
  160.3500  209.1250  157.2600 C   0  0  0  0  0  2  0  0  0  0  0  0
  161.3210  207.7830  154.8450 C   0  0  1  0  0  3  0  0  0  0  0  0
  160.1120  207.6340  157.0350 C   0  0  0  0  0  2  0  0  0  0  0  0
  161.5930  209.2690  155.0910 C   0  0  0  0  0  2  0  0  0  0  0  0
  160.0370  207.3300  155.5420 C   0  0  0  0  0  2  0  0  0  0  0  0
  161.8510  210.9200  156.7920 O   0  0  0  0  0  1  0  0  0  0  0  0
  160.7750  204.4760  147.6430 C   0  0  0  0  0  2  0  0  0  0  0  0
  163.0710  204.8300  145.8190 N   0  0  0  0  0  1  0  0  0  0  0  0
  161.8120  203.3850  147.3700 C   0  0  2  0  0  3  0  0  0  0  0  0
  162.4320  203.5330  145.9740 C   0  0  1  0  0  3  0  0  0  0  0  0
  160.3240  202.2910  145.2100 C   0  0  0  0  0  2  0  0  0  0  0  0
  160.8150  201.2860  146.2460 C   0  0  0  0  0  2  0  0  0  0  0  0
  161.1930  201.9860  147.5580 C   0  0  0  0  0  2  0  0  0  0  0  0
  161.4210  203.2990  144.8410 C   0  0  0  0  0  2  0  0  0  0  0  0
  1 13  1  0  0  0  0
  2  8  1  0  0  0  0
  3 12  1  0  0  0  0
  4 15  2  0  0  0  0
  5 11  1  0  0  0  0
  6  5  2  0  0  0  0
  6  2  1  0  0  0  0
  8  1  1  0  0  0  0
  8  3  2  0  0  0  0
  9  7  2  0  0  0  0
  9 17  1  0  0  0  0
 10  4  1  0  0  0  0
 11  1  2  0  0  0  0
 12 19  1  0  0  0  0
 12 16  2  0  0  0  0
 13 19  2  0  0  0  0
 14  2  2  0  0  0  0
 14  7  1  0  0  0  0
 15 16  1  0  0  0  0
 17 10  2  0  0  0  0
 18  7  1  6  0  0  0
 18  3  1  0  0  0  0
 18  4  1  0  0  0  0
 20 26  1  6  0  0  0
 20 21  1  0  0  0  0
 22 16  1  6  0  0  0
 22 24  1  0  0  0  0
 22 25  1  0  0  0  0
 23 21  1  0  0  0  0
 24 20  1  0  0  0  0
 25 23  1  0  0  0  0
 27  9  1  0  0  0  0
 29 33  1  0  0  0  0
 29 27  1  6  0  0  0
 30 28  1  1  0  0  0
 30 29  1  0  0  0  0
 31 32  1  0  0  0  0
 32 33  1  0  0  0  0
 34 31  1  0  0  0  0
 34 30  1  0  0  0  0
M  END
>  <MODEL>
6

>  <REMARK>
 VINA RESULT:      -7.4      3.214      7.721
  Name = 
  3 active torsions:
  status: ('A' for Active; 'I' for Inactive)
    1  A    between atoms: C_3  and  C_13
    2  A    between atoms: C_3  and  C_17
    3  A    between atoms: C_12  and  C_28
                            x       y       z     vdW  Elec       q    Type
                         _______ _______ _______ _____ _____    ______ ____

>  <TORSDO>
F 3

$$$$
=
 OpenBabel11062407533D

 34 40  0  0  1  0  0  0  0  0999 V2000
  160.8750  205.6960  153.5280 C   0  0  0  0  0  0  0  0  0  0  0  0
  161.2950  205.1880  151.1810 C   0  0  0  0  0  0  0  0  0  0  0  0
  161.3400  207.5040  151.9710 C   0  0  0  0  0  0  0  0  0  0  0  0
  161.8030  209.3600  150.4900 C   0  0  0  0  0  0  0  0  0  0  0  0
  160.8310  203.4040  152.7610 C   0  0  0  0  0  3  0  0  0  0  0  0
  161.1250  203.8280  151.4610 C   0  0  0  0  0  3  0  0  0  0  0  0
  161.7820  207.0950  149.5940 C   0  0  0  0  0  0  0  0  0  0  0  0
  161.1720  206.1320  152.2190 C   0  0  0  0  0  0  0  0  0  0  0  0
  162.0890  207.6310  148.3280 C   0  0  0  0  0  0  0  0  0  0  0  0
  162.1060  209.8400  149.2170 C   0  0  0  0  0  2  0  0  0  0  0  0
  160.7070  204.3360  153.7940 C   0  0  0  0  0  3  0  0  0  0  0  0
  161.2070  208.4190  153.0390 C   0  0  0  0  0  0  0  0  0  0  0  0
  160.7520  206.6360  154.5530 C   0  0  0  0  0  3  0  0  0  0  0  0
  161.6030  205.6030  149.7690 C   0  0  0  0  0  3  0  0  0  0  0  0
  161.6700  210.2210  151.5320 N   0  0  0  0  0  0  0  0  0  0  0  0
  161.3780  209.7980  152.7910 C   0  0  0  0  0  0  0  0  0  0  0  0
  162.2430  208.9760  148.1780 N   0  0  0  0  0  0  0  0  0  0  0  0
  161.6400  207.9770  150.6830 C   0  0  0  0  0  0  0  0  0  0  0  0
  160.9180  207.9590  154.2900 N   0  0  0  0  0  0  0  0  0  0  0  0
  159.7060  212.3450  155.1400 C   0  0  1  0  0  3  0  0  0  0  0  0
  160.2960  211.8320  156.4520 C   0  0  0  0  0  2  0  0  0  0  0  0
  161.2530  210.8340  153.8700 C   0  0  1  0  0  3  0  0  0  0  0  0
  161.7560  211.4360  156.2510 C   0  0  0  0  0  2  0  0  0  0  0  0
  159.7990  211.2700  154.0630 C   0  0  0  0  0  2  0  0  0  0  0  0
  161.8670  210.3500  155.1860 C   0  0  0  0  0  2  0  0  0  0  0  0
  158.3710  212.6940  155.3350 O   0  0  0  0  0  1  0  0  0  0  0  0
  162.2720  206.7450  147.1360 C   0  0  0  0  0  2  0  0  0  0  0  0
  162.3640  203.8170  147.5090 N   0  0  0  0  0  1  0  0  0  0  0  0
  161.0620  205.8300  146.9350 C   0  0  2  0  0  3  0  0  0  0  0  0
  161.4890  204.4160  146.5160 C   0  0  1  0  0  3  0  0  0  0  0  0
  161.6130  205.4490  144.1730 C   0  0  0  0  0  2  0  0  0  0  0  0
  160.1750  205.8280  144.5110 C   0  0  0  0  0  2  0  0  0  0  0  0
  160.0820  206.4410  145.9150 C   0  0  0  0  0  2  0  0  0  0  0  0
  162.1510  204.3770  145.1300 C   0  0  0  0  0  2  0  0  0  0  0  0
  1 11  2  0  0  0  0
  1 13  1  0  0  0  0
  2  6  1  0  0  0  0
  2  8  1  0  0  0  0
  3  8  2  0  0  0  0
  3 12  1  0  0  0  0
  4 18  1  0  0  0  0
  4 15  2  0  0  0  0
  5 11  1  0  0  0  0
  6  5  2  0  0  0  0
  7 14  1  0  0  0  0
  7 18  2  0  0  0  0
  8  1  1  0  0  0  0
  9  7  1  0  0  0  0
 10  4  1  0  0  0  0
 12 19  1  0  0  0  0
 14  2  2  0  0  0  0
 15 16  1  0  0  0  0
 16 12  2  0  0  0  0
 17  9  2  0  0  0  0
 17 10  1  0  0  0  0
 18  3  1  0  0  0  0
 19 13  2  0  0  0  0
 20 26  1  1  0  0  0
 20 21  1  0  0  0  0
 22 16  1  6  0  0  0
 22 24  1  0  0  0  0
 22 25  1  0  0  0  0
 23 21  1  0  0  0  0
 24 20  1  0  0  0  0
 25 23  1  0  0  0  0
 27  9  1  0  0  0  0
 29 27  1  6  0  0  0
 30 29  1  0  0  0  0
 30 28  1  1  0  0  0
 31 32  1  0  0  0  0
 31 34  1  0  0  0  0
 32 33  1  0  0  0  0
 33 29  1  0  0  0  0
 34 30  1  0  0  0  0
M  END
>  <MODEL>
7

>  <REMARK>
 VINA RESULT:      -7.3      3.469      7.166
  Name = 
  3 active torsions:
  status: ('A' for Active; 'I' for Inactive)
    1  A    between atoms: C_3  and  C_13
    2  A    between atoms: C_3  and  C_17
    3  A    between atoms: C_12  and  C_28
                            x       y       z     vdW  Elec       q    Type
                         _______ _______ _______ _____ _____    ______ ____

>  <TORSDO>
F 3

$$$$
=
 OpenBabel11062407533D

 34 40  0  0  1  0  0  0  0  0999 V2000
  161.5880  206.9230  147.6760 C   0  0  0  0  0  0  0  0  0  0  0  0
  161.7580  207.7370  149.9680 C   0  0  0  0  0  0  0  0  0  0  0  0
  161.2730  205.3790  149.5270 C   0  0  0  0  0  0  0  0  0  0  0  0
  160.9540  203.7750  151.3110 C   0  0  0  0  0  0  0  0  0  0  0  0
  162.0710  209.2540  148.1000 C   0  0  0  0  0  3  0  0  0  0  0  0
  162.0240  209.0200  149.4770 C   0  0  0  0  0  3  0  0  0  0  0  0
  161.4300  206.0990  151.8660 C   0  0  0  0  0  0  0  0  0  0  0  0
  161.5390  206.6780  149.0650 C   0  0  0  0  0  0  0  0  0  0  0  0
  161.3690  205.7480  153.2280 C   0  0  0  0  0  0  0  0  0  0  0  0
  160.9040  203.4800  152.6720 C   0  0  0  0  0  3  0  0  0  0  0  0
  161.8540  208.2080  147.1990 C   0  0  0  0  0  3  0  0  0  0  0  0
  161.0580  204.3450  148.5890 C   0  0  0  0  0  0  0  0  0  0  0  0
  161.3700  205.8710  146.7860 C   0  0  0  0  0  3  0  0  0  0  0  0
  161.7090  207.5280  151.4570 C   0  0  0  0  0  3  0  0  0  0  0  0
  160.7500  202.7970  150.3900 N   0  0  0  0  0  2  0  0  0  0  0  0
  160.7920  203.0380  149.0520 C   0  0  0  0  0  0  0  0  0  0  0  0
  161.1120  204.4600  153.5890 N   0  0  0  0  0  0  0  0  0  0  0  0
  161.2200  205.0940  150.9010 C   0  0  0  0  0  0  0  0  0  0  0  0
  161.1120  204.6220  147.2550 N   0  0  0  0  0  0  0  0  0  0  0  0
  160.1260  201.1690  145.7570 C   0  0  1  0  0  3  0  0  0  0  0  0
  161.2460  200.1390  145.8750 C   0  0  0  0  0  2  0  0  0  0  0  0
  160.5530  201.8840  148.1220 C   0  0  1  0  0  3  0  0  0  0  0  0
  161.3620  199.6530  147.3170 C   0  0  0  0  0  2  0  0  0  0  0  0
  160.4000  202.3560  146.6740 C   0  0  0  0  0  2  0  0  0  0  0  0
  161.6510  200.8260  148.2480 C   0  0  0  0  0  2  0  0  0  0  0  0
  160.0360  201.6110  144.4380 O   0  0  0  0  0  1  0  0  0  0  0  0
  161.6030  206.7650  154.3010 C   0  0  0  0  0  2  0  0  0  0  0  0
  160.8940  209.5180  153.5000 N   0  0  0  0  0  1  0  0  0  0  0  0
  160.2990  207.4520  154.7070 C   0  0  2  0  0  3  0  0  0  0  0  0
  160.4630  208.9770  154.7780 C   0  0  1  0  0  3  0  0  0  0  0  0
  161.4090  208.4870  157.1100 C   0  0  0  0  0  2  0  0  0  0  0  0
  160.0670  207.7780  157.2570 C   0  0  0  0  0  2  0  0  0  0  0  0
  159.7780  206.8860  156.0430 C   0  0  0  0  0  2  0  0  0  0  0  0
  161.4190  209.4250  155.8950 C   0  0  0  0  0  2  0  0  0  0  0  0
  1  8  2  0  0  0  0
  2 14  1  0  0  0  0
  3 18  2  0  0  0  0
  4 10  2  0  0  0  0
  5  6  1  0  0  0  0
  6  2  2  0  0  0  0
  7  9  1  0  0  0  0
  8  3  1  0  0  0  0
  8  2  1  0  0  0  0
  9 17  2  0  0  0  0
  9 27  1  0  0  0  0
 10 17  1  0  0  0  0
 11  1  1  0  0  0  0
 11  5  2  0  0  0  0
 12 16  2  0  0  0  0
 12  3  1  0  0  0  0
 13 19  2  0  0  0  0
 13  1  1  0  0  0  0
 14  7  2  0  0  0  0
 15  4  1  0  0  0  0
 16 15  1  0  0  0  0
 18  4  1  0  0  0  0
 18  7  1  0  0  0  0
 19 12  1  0  0  0  0
 20 26  1  6  0  0  0
 20 21  1  0  0  0  0
 20 24  1  0  0  0  0
 21 23  1  0  0  0  0
 22 25  1  0  0  0  0
 22 16  1  1  0  0  0
 23 25  1  0  0  0  0
 24 22  1  0  0  0  0
 29 27  1  1  0  0  0
 29 30  1  0  0  0  0
 29 33  1  0  0  0  0
 30 28  1  6  0  0  0
 30 34  1  0  0  0  0
 31 32  1  0  0  0  0
 33 32  1  0  0  0  0
 34 31  1  0  0  0  0
M  END
>  <MODEL>
8

>  <REMARK>
 VINA RESULT:      -7.2      2.631      5.837
  Name = 
  3 active torsions:
  status: ('A' for Active; 'I' for Inactive)
    1  A    between atoms: C_3  and  C_13
    2  A    between atoms: C_3  and  C_17
    3  A    between atoms: C_12  and  C_28
                            x       y       z     vdW  Elec       q    Type
                         _______ _______ _______ _____ _____    ______ ____

>  <TORSDO>
F 3

$$$$
=
 OpenBabel11062407533D

 34 40  0  0  1  0  0  0  0  0999 V2000
  160.9070  213.0100  149.8340 C   0  0  0  0  0  0  0  0  0  0  0  0
  161.6160  210.9790  148.6860 C   0  0  0  0  0  0  0  0  0  0  0  0
  160.9290  210.8960  151.0350 C   0  0  0  0  0  0  0  0  0  0  0  0
  160.9150  208.8330  152.3000 C   0  0  0  0  0  0  0  0  0  0  0  0
  161.5800  213.1030  147.5130 C   0  0  0  0  0  3  0  0  0  0  0  0
  161.8260  211.7260  147.5230 C   0  0  0  0  0  3  0  0  0  0  0  0
  161.6200  208.7990  149.9680 C   0  0  0  0  0  0  0  0  0  0  0  0
  161.1520  211.6200  149.8520 C   0  0  0  0  0  0  0  0  0  0  0  0
  161.8250  207.4110  150.0880 C   0  0  0  0  0  0  0  0  0  0  0  0
  161.1330  207.4590  152.3660 C   0  0  0  0  0  3  0  0  0  0  0  0
  161.1200  213.7450  148.6660 C   0  0  0  0  0  3  0  0  0  0  0  0
  160.4650  211.5770  152.1820 C   0  0  0  0  0  0  0  0  0  0  0  0
  160.4480  213.6400  150.9910 C   0  0  0  0  0  3  0  0  0  0  0  0
  161.8990  209.5020  148.6580 C   0  0  0  0  0  3  0  0  0  0  0  0
  160.4690  209.5090  153.3900 N   0  0  0  0  0  0  0  0  0  0  0  0
  160.2380  210.8500  153.3700 C   0  0  0  0  0  0  0  0  0  0  0  0
  161.5760  206.7860  151.2730 N   0  0  0  0  0  0  0  0  0  0  0  0
  161.1580  209.5120  151.0920 C   0  0  1  0  0  3  0  0  0  0  0  0
  160.2400  212.9210  152.1250 N   0  0  0  0  0  0  0  0  0  0  0  0
  157.7500  212.0700  156.0380 C   0  0  1  0  0  3  0  0  0  0  0  0
  158.4500  211.4780  157.2580 C   0  0  0  0  0  2  0  0  0  0  0  0
  159.7450  211.4980  154.6320 C   0  0  1  0  0  3  0  0  0  0  0  0
  159.9620  211.6380  157.1250 C   0  0  0  0  0  2  0  0  0  0  0  0
  158.2260  211.3760  154.7660 C   0  0  0  0  0  2  0  0  0  0  0  0
  160.4590  210.9380  155.8640 C   0  0  0  0  0  2  0  0  0  0  0  0
  156.3720  211.9080  156.1680 O   0  0  0  0  0  1  0  0  0  0  0  0
  162.2950  206.5940  148.9260 C   0  0  0  0  0  2  0  0  0  0  0  0
  161.2660  203.8770  149.4550 N   0  0  0  0  0  1  0  0  0  0  0  0
  161.1170  205.9760  148.1700 C   0  0  2  0  0  3  0  0  0  0  0  0
  161.2220  204.4450  148.1180 C   0  0  1  0  0  3  0  0  0  0  0  0
  162.7840  204.8980  146.1360 C   0  0  0  0  0  2  0  0  0  0  0  0
  161.5670  205.6750  145.6460 C   0  0  0  0  0  2  0  0  0  0  0  0
  161.0040  206.5750  146.7540 C   0  0  0  0  0  2  0  0  0  0  0  0
  162.4220  203.9560  147.2920 C   0  0  0  0  0  2  0  0  0  0  0  0
  1  8  1  0  0  0  0
  1 13  1  0  0  0  0
  2  8  1  0  0  0  0
  3 18  1  0  0  0  0
  3 12  1  0  0  0  0
  4 10  1  0  0  0  0
  4 15  2  0  0  0  0
  5  6  2  0  0  0  0
  5 11  1  0  0  0  0
  6  2  1  0  0  0  0
  7  9  2  0  0  0  0
  8  3  2  0  0  0  0
  9 17  1  0  0  0  0
 11  1  2  0  0  0  0
 12 16  2  0  0  0  0
 13 19  2  0  0  0  0
 14  2  2  0  0  0  0
 14  7  1  0  0  0  0
 16 15  1  0  0  0  0
 17 10  2  0  0  0  0
 18  7  1  6  0  0  0
 18  4  1  0  0  0  0
 19 12  1  0  0  0  0
 20 26  1  1  0  0  0
 20 21  1  0  0  0  0
 22 16  1  6  0  0  0
 22 24  1  0  0  0  0
 22 25  1  0  0  0  0
 23 21  1  0  0  0  0
 24 20  1  0  0  0  0
 25 23  1  0  0  0  0
 27  9  1  0  0  0  0
 29 27  1  6  0  0  0
 30 29  1  0  0  0  0
 30 28  1  1  0  0  0
 31 34  1  0  0  0  0
 32 31  1  0  0  0  0
 32 33  1  0  0  0  0
 33 29  1  0  0  0  0
 34 30  1  0  0  0  0
M  END
>  <MODEL>
9

>  <REMARK>
 VINA RESULT:      -7.1      3.641      8.220
  Name = 
  3 active torsions:
  status: ('A' for Active; 'I' for Inactive)
    1  A    between atoms: C_3  and  C_13
    2  A    between atoms: C_3  and  C_17
    3  A    between atoms: C_12  and  C_28
                            x       y       z     vdW  Elec       q    Type
                         _______ _______ _______ _____ _____    ______ ____

>  <TORSDO>
F 3

$$$$
