=
 OpenBabel11062409423D

 34 41  0  0  1  0  0  0  0  0999 V2000
  161.2090  210.4630  150.9700 C   0  0  2  0  0  0  0  0  0  0  0  0
  160.4510  208.9620  154.5540 C   0  0  0  0  0  2  0  0  0  0  0  0
  159.8660  212.9580  153.7220 N   0  0  0  0  0  2  0  0  0  0  0  0
  160.8280  207.9230  152.3450 C   0  0  0  0  0  3  0  0  0  0  0  0
  158.4910  213.0270  151.1240 C   0  0  1  0  0  3  0  0  0  0  0  0
  156.7960  212.3300  155.0240 C   0  0  1  0  0  3  0  0  0  0  0  0
  160.6110  211.6990  150.2200 C   0  0  1  0  0  0  0  0  0  0  0  0
  162.1240  211.4200  150.3090 C   0  0  0  0  0  2  0  0  0  0  0  0
  161.7010  208.9340  149.0710 O   0  0  0  0  0  0  0  0  0  0  0  0
  161.8970  207.5240  149.0150 C   0  0  0  0  0  2  0  0  0  0  0  0
  157.8000  213.4870  154.9250 C   0  0  0  0  0  2  0  0  0  0  0  0
  158.5410  213.5600  153.5810 C   0  0  2  0  0  3  0  0  0  0  0  0
  157.8640  212.2920  150.1120 O   0  0  0  0  0  1  0  0  0  0  0  0
  160.7470  213.2130  150.1410 C   0  0  0  0  0  2  0  0  0  0  0  0
  161.0490  207.9720  151.0350 C   0  0  0  0  0  0  0  0  0  0  0  0
  160.8820  209.1640  150.2000 C   0  0  1  0  0  3  0  0  0  0  0  0
  161.5920  206.9770  150.2870 O   0  0  0  0  0  0  0  0  0  0  0  0
  160.4610  210.2560  155.3730 C   0  0  0  0  0  2  0  0  0  0  0  0
  161.7770  211.0520  155.2840 C   0  0  2  0  0  3  0  0  0  0  0  0
  157.4590  211.3850  152.7750 C   0  0  0  0  0  2  0  0  0  0  0  0
  162.9000  210.3220  154.5420 C   0  0  0  0  0  2  0  0  0  0  0  0
  157.7500  212.8650  152.4540 C   0  0  2  0  0  3  0  0  0  0  0  0
  157.3030  211.1010  154.2730 C   0  0  0  0  0  2  0  0  0  0  0  0
  159.9730  212.6580  151.2770 C   0  0  1  0  0  0  0  0  0  0  0  0
  160.6610  213.2270  152.5250 C   0  0  0  0  0  2  0  0  0  0  0  0
  160.4180  209.1870  153.0400 C   0  0  2  0  0  3  0  0  0  0  0  0
  162.7310  210.3540  153.0180 C   0  0  0  0  0  2  0  0  0  0  0  0
  161.2700  210.3830  152.5250 C   0  0  1  0  0  3  0  0  0  0  0  0
  162.2250  211.4450  156.6500 C   0  0  0  0  0  0  0  0  0  0  0  0
  163.2940  210.7930  157.2550 O   0  0  0  0  0  0  0  0  0  0  0  0
  161.6300  212.3700  157.2610 O   0  0  0  0  0  1  0  0  0  0  0  0
  156.5510  211.9850  156.4820 C   0  0  0  0  0  3  0  0  0  0  0  0
  155.2540  212.6210  156.9420 C   0  0  0  0  0  2  0  0  0  0  0  0
  155.2930  211.1470  156.6010 C   0  0  0  0  0  2  0  0  0  0  0  0
  1  8  1  6  0  0  0
  1 28  1  0  0  0  0
  2 18  1  0  0  0  0
  5 13  1  6  0  0  0
  5 24  1  0  0  0  0
  5 22  1  0  0  0  0
  6 32  1  1  0  0  0
  7 14  1  6  0  0  0
  7  8  1  0  0  0  0
  7  1  1  0  0  0  0
  7 24  1  0  0  0  0
 10  9  1  0  0  0  0
 10 17  1  0  0  0  0
 11  6  1  0  0  0  0
 12  3  1  0  0  0  0
 12 11  1  1  0  0  0
 15  4  2  0  0  0  0
 16  9  1  6  0  0  0
 16  1  1  0  0  0  0
 16 15  1  0  0  0  0
 17 15  1  0  0  0  0
 19 18  1  0  0  0  0
 19 29  1  1  0  0  0
 20 23  1  0  0  0  0
 21 19  1  0  0  0  0
 22 20  1  1  0  0  0
 22 12  1  0  0  0  0
 23  6  1  0  0  0  0
 24 14  1  6  0  0  0
 24 25  1  0  0  0  0
 25  3  1  0  0  0  0
 26  4  1  6  0  0  0
 26  2  1  0  0  0  0
 27 21  1  0  0  0  0
 28 27  1  6  0  0  0
 28 26  1  0  0  0  0
 29 30  2  0  0  0  0
 29 31  1  0  0  0  0
 32 34  1  0  0  0  0
 32 33  1  0  0  0  0
 34 33  1  0  0  0  0
M  END
>  <MODEL>
1

>  <REMARK>
 VINA RESULT:       2.4      0.000      0.000
  Name = 
  2 active torsions:
  status: ('A' for Active; 'I' for Inactive)
    1  A    between atoms: C_3  and  C_25
    2  A    between atoms: C_7  and  C_11
                            x       y       z     vdW  Elec       q    Type
                         _______ _______ _______ _____ _____    ______ ____

>  <TORSDO>
F 2

$$$$
=
 OpenBabel11062409423D

 34 41  0  0  1  0  0  0  0  0999 V2000
  161.6620  210.4640  150.2090 C   0  0  2  0  0  0  0  0  0  0  0  0
  159.7650  209.5570  153.5630 C   0  0  0  0  0  2  0  0  0  0  0  0
  160.1540  213.4610  152.2930 N   0  0  0  0  0  2  0  0  0  0  0  0
  160.4870  208.2050  151.6250 C   0  0  0  0  0  3  0  0  0  0  0  0
  159.5120  213.4220  149.4240 C   0  0  1  0  0  3  0  0  0  0  0  0
  156.7940  213.4890  152.7680 C   0  0  1  0  0  3  0  0  0  0  0  0
  161.5090  211.6750  149.2310 C   0  0  1  0  0  0  0  0  0  0  0  0
  162.8730  211.1750  149.7450 C   0  0  0  0  0  2  0  0  0  0  0  0
  162.3240  208.6520  148.6370 O   0  0  0  0  0  0  0  0  0  0  0  0
  162.2650  207.2340  148.7470 C   0  0  0  0  0  2  0  0  0  0  0  0
  157.9860  214.4530  152.8520 C   0  0  0  0  0  2  0  0  0  0  0  0
  159.0410  214.2420  151.7550 C   0  0  2  0  0  3  0  0  0  0  0  0
  159.0350  212.6750  148.3420 O   0  0  0  0  0  1  0  0  0  0  0  0
  161.9370  213.1280  149.0730 C   0  0  0  0  0  2  0  0  0  0  0  0
  161.0340  208.0570  150.4230 C   0  0  0  0  0  0  0  0  0  0  0  0
  161.3050  209.1470  149.4830 C   0  0  1  0  0  3  0  0  0  0  0  0
  161.5550  206.9030  149.9300 O   0  0  0  0  0  0  0  0  0  0  0  0
  159.8080  210.9250  154.2500 C   0  0  0  0  0  2  0  0  0  0  0  0
  161.2270  211.4870  154.4570 C   0  0  2  0  0  3  0  0  0  0  0  0
  157.8140  212.1800  150.8610 C   0  0  0  0  0  2  0  0  0  0  0  0
  162.3460  210.5040  154.1030 C   0  0  0  0  0  2  0  0  0  0  0  0
  158.4440  213.5440  150.5150 C   0  0  2  0  0  3  0  0  0  0  0  0
  157.2380  212.1120  152.2800 C   0  0  0  0  0  2  0  0  0  0  0  0
  160.8140  212.8460  149.9990 C   0  0  1  0  0  0  0  0  0  0  0  0
  161.2590  213.4510  151.3370 C   0  0  0  0  0  2  0  0  0  0  0  0
  160.1550  209.5950  152.0830 C   0  0  2  0  0  3  0  0  0  0  0  0
  162.5730  210.3720  152.5920 C   0  0  0  0  0  2  0  0  0  0  0  0
  161.3150  210.5680  151.7240 C   0  0  1  0  0  3  0  0  0  0  0  0
  161.3830  211.9710  155.8570 C   0  0  0  0  0  0  0  0  0  0  0  0
  162.4310  211.5150  156.6480 O   0  0  0  0  0  1  0  0  0  0  0  0
  160.5570  212.7950  156.3290 O   0  0  0  0  0  0  0  0  0  0  0  0
  156.1320  213.3700  154.1280 C   0  0  0  0  0  3  0  0  0  0  0  0
  155.0360  214.4120  154.2510 C   0  0  0  0  0  2  0  0  0  0  0  0
  154.6790  212.9710  153.9530 C   0  0  0  0  0  2  0  0  0  0  0  0
  1  8  1  1  0  0  0
  1 28  1  0  0  0  0
  2 18  1  0  0  0  0
  5 13  1  6  0  0  0
  5 24  1  0  0  0  0
  5 22  1  0  0  0  0
  6 11  1  0  0  0  0
  6 32  1  1  0  0  0
  7 14  1  6  0  0  0
  7  8  1  0  0  0  0
  7 24  1  0  0  0  0
  7  1  1  0  0  0  0
  9 10  1  0  0  0  0
 10 17  1  0  0  0  0
 12  3  1  0  0  0  0
 12 11  1  1  0  0  0
 15  4  2  0  0  0  0
 16  9  1  6  0  0  0
 16  1  1  0  0  0  0
 16 15  1  0  0  0  0
 17 15  1  0  0  0  0
 18 19  1  0  0  0  0
 19 29  1  1  0  0  0
 20 23  1  0  0  0  0
 21 19  1  0  0  0  0
 22 20  1  1  0  0  0
 22 12  1  0  0  0  0
 23  6  1  0  0  0  0
 24 14  1  6  0  0  0
 24 25  1  0  0  0  0
 25  3  1  0  0  0  0
 26  4  1  1  0  0  0
 26  2  1  0  0  0  0
 27 21  1  0  0  0  0
 28 26  1  0  0  0  0
 28 27  1  1  0  0  0
 29 31  2  0  0  0  0
 29 30  1  0  0  0  0
 32 33  1  0  0  0  0
 34 32  1  0  0  0  0
 34 33  1  0  0  0  0
M  END
>  <MODEL>
2

>  <REMARK>
 VINA RESULT:       5.2      1.453      1.681
  Name = 
  2 active torsions:
  status: ('A' for Active; 'I' for Inactive)
    1  A    between atoms: C_3  and  C_25
    2  A    between atoms: C_7  and  C_11
                            x       y       z     vdW  Elec       q    Type
                         _______ _______ _______ _____ _____    ______ ____

>  <TORSDO>
F 2

$$$$
=
 OpenBabel11062409423D

 34 41  0  0  1  0  0  0  0  0999 V2000
  159.4190  211.2070  155.7500 C   0  0  2  0  0  0  0  0  0  0  0  0
  158.6460  210.3300  151.9680 C   0  0  0  0  0  2  0  0  0  0  0  0
  162.1320  209.1020  153.7970 N   0  0  0  0  0  2  0  0  0  0  0  0
  157.2360  211.1540  153.8210 C   0  0  0  0  0  3  0  0  0  0  0  0
  161.3150  208.0540  156.4200 C   0  0  1  0  0  3  0  0  0  0  0  0
  161.1810  206.0750  152.5940 C   0  0  1  0  0  3  0  0  0  0  0  0
  160.2960  210.4790  156.8210 C   0  0  1  0  0  0  0  0  0  0  0  0
  160.3710  211.9960  156.5620 C   0  0  0  0  0  2  0  0  0  0  0  0
  157.6370  212.1990  157.1750 O   0  0  0  0  0  0  0  0  0  0  0  0
  156.3260  212.6630  156.8680 C   0  0  0  0  0  2  0  0  0  0  0  0
  162.4710  206.8470  152.9060 C   0  0  0  0  0  2  0  0  0  0  0  0
  162.3920  207.7130  154.1730 C   0  0  2  0  0  3  0  0  0  0  0  0
  160.2540  207.7010  157.2610 O   0  0  0  0  0  1  0  0  0  0  0  0
  161.7460  210.3340  157.2610 C   0  0  0  0  0  2  0  0  0  0  0  0
  157.0320  211.5140  155.0850 C   0  0  0  0  0  0  0  0  0  0  0  0
  157.9400  211.2240  156.1970 C   0  0  1  0  0  3  0  0  0  0  0  0
  156.0310  212.3200  155.5240 O   0  0  0  0  0  0  0  0  0  0  0  0
  160.0650  210.0000  151.4940 C   0  0  0  0  0  2  0  0  0  0  0  0
  161.0800  211.1420  151.6860 C   0  0  2  0  0  3  0  0  0  0  0  0
  159.9110  207.1640  154.4900 C   0  0  0  0  0  2  0  0  0  0  0  0
  160.4550  212.4620  152.1460 C   0  0  0  0  0  2  0  0  0  0  0  0
  161.3070  207.2070  155.1450 C   0  0  2  0  0  3  0  0  0  0  0  0
  159.9500  206.8900  152.9830 C   0  0  0  0  0  2  0  0  0  0  0  0
  161.3130  209.5510  156.0790 C   0  0  1  0  0  0  0  0  0  0  0  0
  162.2840  209.9670  154.9660 C   0  0  0  0  0  2  0  0  0  0  0  0
  158.5090  210.4330  153.4890 C   0  0  2  0  0  3  0  0  0  0  0  0
  160.1030  212.4700  153.6390 C   0  0  0  0  0  2  0  0  0  0  0  0
  159.7090  211.0990  154.2230 C   0  0  1  0  0  3  0  0  0  0  0  0
  161.8590  211.3450  150.4320 C   0  0  0  0  0  0  0  0  0  0  0  0
  161.3780  212.1810  149.4300 O   0  0  0  0  0  0  0  0  0  0  0  0
  162.9580  210.7520  150.2760 O   0  0  0  0  0  1  0  0  0  0  0  0
  161.1320  205.7300  151.1170 C   0  0  0  0  0  3  0  0  0  0  0  0
  161.7390  204.3580  150.8970 C   0  0  0  0  0  2  0  0  0  0  0  0
  160.2350  204.5260  150.9060 C   0  0  0  0  0  2  0  0  0  0  0  0
  1 16  1  0  0  0  0
  1  8  1  1  0  0  0
  1  7  1  0  0  0  0
  3 12  1  0  0  0  0
  3 25  1  0  0  0  0
  4 15  2  0  0  0  0
  5 13  1  1  0  0  0
  6 32  1  6  0  0  0
  6 11  1  0  0  0  0
  6 23  1  0  0  0  0
  7  8  1  6  0  0  0
  7 14  1  0  0  0  0
 10  9  1  0  0  0  0
 12 11  1  6  0  0  0
 12 22  1  0  0  0  0
 15 17  1  0  0  0  0
 16 15  1  6  0  0  0
 16  9  1  0  0  0  0
 17 10  1  0  0  0  0
 18 19  1  0  0  0  0
 18  2  1  0  0  0  0
 19 29  1  6  0  0  0
 19 21  1  0  0  0  0
 21 27  1  0  0  0  0
 22 20  1  6  0  0  0
 22  5  1  0  0  0  0
 23 20  1  0  0  0  0
 24 25  1  6  0  0  0
 24  5  1  0  0  0  0
 24  7  1  0  0  0  0
 24 14  1  0  0  0  0
 26  2  1  6  0  0  0
 26  4  1  0  0  0  0
 26 28  1  0  0  0  0
 28 27  1  6  0  0  0
 28  1  1  0  0  0  0
 30 29  2  0  0  0  0
 31 29  1  0  0  0  0
 33 34  1  0  0  0  0
 33 32  1  0  0  0  0
 34 32  1  0  0  0  0
M  END
>  <MODEL>
3

>  <REMARK>
 VINA RESULT:       5.3      2.392      7.006
  Name = 
  2 active torsions:
  status: ('A' for Active; 'I' for Inactive)
    1  A    between atoms: C_3  and  C_25
    2  A    between atoms: C_7  and  C_11
                            x       y       z     vdW  Elec       q    Type
                         _______ _______ _______ _____ _____    ______ ____

>  <TORSDO>
F 2

$$$$
