=
 OpenBabel11062410543D

 32 36  0  0  1  0  0  0  0  0999 V2000
  160.9790  202.9680  150.2380 C   0  0  0  0  0  3  0  0  0  0  0  0
  161.1980  202.9090  151.6130 C   0  0  0  0  0  3  0  0  0  0  0  0
  160.7980  204.2020  149.6140 C   0  0  0  0  0  3  0  0  0  0  0  0
  160.8280  205.3940  150.3560 C   0  0  0  0  0  0  0  0  0  0  0  0
  161.2300  204.0850  152.3640 C   0  0  0  0  0  3  0  0  0  0  0  0
  161.0400  205.3390  151.7590 C   0  0  0  0  0  0  0  0  0  0  0  0
  161.2160  208.9960  152.8640 C   0  0  0  0  0  0  0  0  0  0  0  0
  161.0430  208.8290  154.2380 C   0  0  0  0  0  0  0  0  0  0  0  0
  160.7370  207.7720  156.1330 C   0  0  0  0  0  0  0  0  0  0  0  0
  161.0600  206.5530  152.6190 C   0  0  0  0  0  0  0  0  0  0  0  0
  160.8180  209.1400  156.3560 C   0  0  0  0  0  3  0  0  0  0  0  0
  161.0080  209.7920  155.1800 N   0  0  0  0  0  2  0  0  0  0  0  0
  160.8800  206.4270  154.0150 C   0  0  0  0  0  3  0  0  0  0  0  0
  161.3880  210.3440  152.2550 C   0  0  0  0  0  1  0  0  0  0  0  0
  160.5480  206.8100  157.0700 F   0  0  0  0  0  0  0  0  0  0  0  0
  161.2180  207.8460  152.0580 C   0  0  0  0  0  3  0  0  0  0  0  0
  160.8820  207.5880  154.7850 C   0  0  0  0  0  0  0  0  0  0  0  0
  160.6930  206.6530  149.6850 N   0  0  0  0  0  2  0  0  0  0  0  0
  161.3070  205.3020  144.1280 C   0  0  0  0  0  2  0  0  0  0  0  0
  162.2480  205.7310  146.6980 C   0  0  2  0  0  3  0  0  0  0  0  0
  160.6270  207.3300  147.3500 C   0  0  0  0  0  2  0  0  0  0  0  0
  160.5380  206.3190  145.0020 C   0  0  0  0  0  2  0  0  0  0  0  0
  161.5200  207.0720  148.5620 C   0  0  2  0  0  3  0  0  0  0  0  0
  161.7380  204.0170  144.8810 C   0  0  1  0  0  3  0  0  0  0  0  0
  160.8130  206.1100  146.4870 C   0  0  1  0  0  3  0  0  0  0  0  0
  162.4770  204.3040  146.2080 C   0  0  0  0  0  2  0  0  0  0  0  0
  162.4710  205.9360  148.1750 C   0  0  0  0  0  2  0  0  0  0  0  0
  160.5440  203.1120  145.1480 C   0  0  0  0  0  2  0  0  0  0  0  0
  160.9050  202.0430  146.1610 C   0  0  0  0  0  2  0  0  0  0  0  0
  160.6030  200.7340  145.6100 N   0  0  0  0  0  2  0  0  0  0  0  0
  161.5770  200.4030  148.0870 S   0  0  0  0  0  1  0  0  0  0  0  0
  161.3240  199.7580  146.4080 C   0  0  0  0  0  2  0  0  0  0  0  0
  1  2  1  0  0  0  0
  2  5  2  0  0  0  0
  3  1  2  0  0  0  0
  3  4  1  0  0  0  0
  4  6  2  0  0  0  0
  6  5  1  0  0  0  0
  6 10  1  0  0  0  0
  7  8  1  0  0  0  0
  8 17  2  0  0  0  0
  8 12  1  0  0  0  0
  9 11  2  0  0  0  0
  9 15  1  0  0  0  0
 10 13  2  0  0  0  0
 12 11  1  0  0  0  0
 13 17  1  0  0  0  0
 14  7  1  0  0  0  0
 16 10  1  0  0  0  0
 16  7  2  0  0  0  0
 17  9  1  0  0  0  0
 18  4  1  0  0  0  0
 19 24  1  0  0  0  0
 19 22  1  0  0  0  0
 20 26  1  1  0  0  0
 20 27  1  0  0  0  0
 21 23  1  0  0  0  0
 23 18  1  1  0  0  0
 24 28  1  1  0  0  0
 24 26  1  0  0  0  0
 25 22  1  6  0  0  0
 25 20  1  0  0  0  0
 25 21  1  0  0  0  0
 27 23  1  0  0  0  0
 28 29  1  0  0  0  0
 30 29  1  0  0  0  0
 30 32  1  0  0  0  0
 32 31  1  0  0  0  0
M  END
>  <MODEL>
1

>  <REMARK>
 VINA RESULT:      -9.3      0.000      0.000
  Name = 
  7 active torsions:
  status: ('A' for Active; 'I' for Inactive)
    1  A    between atoms: N_3  and  C_14
    2  A    between atoms: N_3  and  C_15
    3  A    between atoms: C_10  and  N_20
    4  A    between atoms: C_10  and  C_24
    5  A    between atoms: C_16  and  C_26
    6  A    between atoms: C_17  and  N_20
    7  A    between atoms: C_19  and  C_24
                            x       y       z     vdW  Elec       q    Type
                         _______ _______ _______ _____ _____    ______ ____

>  <TORSDO>
F 7

$$$$
=
 OpenBabel11062410543D

 32 36  0  0  1  0  0  0  0  0999 V2000
  161.0080  202.9430  150.2220 C   0  0  0  0  0  3  0  0  0  0  0  0
  161.1870  202.8850  151.6030 C   0  0  0  0  0  3  0  0  0  0  0  0
  160.8250  204.1750  149.5950 C   0  0  0  0  0  3  0  0  0  0  0  0
  160.8120  205.3650  150.3400 C   0  0  0  0  0  0  0  0  0  0  0  0
  161.1760  204.0600  152.3570 C   0  0  0  0  0  3  0  0  0  0  0  0
  160.9830  205.3120  151.7480 C   0  0  0  0  0  0  0  0  0  0  0  0
  160.7750  207.5620  154.8340 C   0  0  0  0  0  0  0  0  0  0  0  0
  160.9640  208.8030  154.2260 C   0  0  0  0  0  0  0  0  0  0  0  0
  161.3050  210.2410  152.6090 C   0  0  0  0  0  0  0  0  0  0  0  0
  160.9570  206.5240  152.6100 C   0  0  0  0  0  0  0  0  0  0  0  0
  161.2100  210.9030  153.8260 C   0  0  0  0  0  3  0  0  0  0  0  0
  160.9980  210.0090  154.8250 N   0  0  0  0  0  2  0  0  0  0  0  0
  161.1550  207.8000  152.0340 C   0  0  0  0  0  3  0  0  0  0  0  0
  160.5780  207.4310  156.3040 C   0  0  0  0  0  1  0  0  0  0  0  0
  161.5150  210.8080  151.3950 F   0  0  0  0  0  0  0  0  0  0  0  0
  160.7780  206.4210  154.0130 C   0  0  0  0  0  3  0  0  0  0  0  0
  161.1470  208.9090  152.8760 C   0  0  0  0  0  0  0  0  0  0  0  0
  160.6760  206.6230  149.6660 N   0  0  0  0  0  2  0  0  0  0  0  0
  161.2910  205.2990  144.1030 C   0  0  0  0  0  2  0  0  0  0  0  0
  162.2300  205.7100  146.6770 C   0  0  2  0  0  3  0  0  0  0  0  0
  160.6170  207.3140  147.3350 C   0  0  0  0  0  2  0  0  0  0  0  0
  160.5260  206.3160  144.9810 C   0  0  0  0  0  2  0  0  0  0  0  0
  161.5070  207.0450  148.5470 C   0  0  2  0  0  3  0  0  0  0  0  0
  161.7140  204.0080  144.8500 C   0  0  1  0  0  3  0  0  0  0  0  0
  160.7970  206.0970  146.4660 C   0  0  1  0  0  3  0  0  0  0  0  0
  162.4530  204.2840  146.1800 C   0  0  0  0  0  2  0  0  0  0  0  0
  162.4530  205.9060  148.1550 C   0  0  0  0  0  2  0  0  0  0  0  0
  160.5150  203.1080  145.1100 C   0  0  0  0  0  2  0  0  0  0  0  0
  160.8770  202.0150  146.0970 C   0  0  0  0  0  2  0  0  0  0  0  0
  160.5720  200.7190  145.5150 N   0  0  0  0  0  2  0  0  0  0  0  0
  161.5620  200.3630  147.9830 S   0  0  0  0  0  1  0  0  0  0  0  0
  161.2670  199.7220  146.3100 C   0  0  0  0  0  2  0  0  0  0  0  0
  1  2  1  0  0  0  0
  2  5  2  0  0  0  0
  3  1  2  0  0  0  0
  3  4  1  0  0  0  0
  4  6  2  0  0  0  0
  6  5  1  0  0  0  0
  6 10  1  0  0  0  0
  7 14  1  0  0  0  0
  8 12  1  0  0  0  0
  8  7  1  0  0  0  0
  9 17  1  0  0  0  0
  9 11  2  0  0  0  0
 10 16  1  0  0  0  0
 11 12  1  0  0  0  0
 13 10  2  0  0  0  0
 13 17  1  0  0  0  0
 15  9  1  0  0  0  0
 16  7  2  0  0  0  0
 17  8  2  0  0  0  0
 18  4  1  0  0  0  0
 19 24  1  0  0  0  0
 19 22  1  0  0  0  0
 20 26  1  1  0  0  0
 20 27  1  0  0  0  0
 21 23  1  0  0  0  0
 23 18  1  1  0  0  0
 24 28  1  1  0  0  0
 24 26  1  0  0  0  0
 25 22  1  6  0  0  0
 25 20  1  0  0  0  0
 25 21  1  0  0  0  0
 27 23  1  0  0  0  0
 28 29  1  0  0  0  0
 30 29  1  0  0  0  0
 30 32  1  0  0  0  0
 32 31  1  0  0  0  0
M  END
>  <MODEL>
2

>  <REMARK>
 VINA RESULT:      -9.3      1.284      1.992
  Name = 
  7 active torsions:
  status: ('A' for Active; 'I' for Inactive)
    1  A    between atoms: N_3  and  C_14
    2  A    between atoms: N_3  and  C_15
    3  A    between atoms: C_10  and  N_20
    4  A    between atoms: C_10  and  C_24
    5  A    between atoms: C_16  and  C_26
    6  A    between atoms: C_17  and  N_20
    7  A    between atoms: C_19  and  C_24
                            x       y       z     vdW  Elec       q    Type
                         _______ _______ _______ _____ _____    ______ ____

>  <TORSDO>
F 7

$$$$
=
 OpenBabel11062410543D

 32 36  0  0  1  0  0  0  0  0999 V2000
  160.9710  208.2550  154.6800 C   0  0  0  0  0  3  0  0  0  0  0  0
  160.9140  206.8630  154.6720 C   0  0  0  0  0  3  0  0  0  0  0  0
  161.0600  208.9550  153.4770 C   0  0  0  0  0  3  0  0  0  0  0  0
  161.0980  208.2730  152.2500 C   0  0  0  0  0  0  0  0  0  0  0  0
  160.9520  206.1710  153.4610 C   0  0  0  0  0  3  0  0  0  0  0  0
  161.0520  206.8540  152.2370 C   0  0  0  0  0  0  0  0  0  0  0  0
  161.5150  205.9130  148.5590 C   0  0  0  0  0  0  0  0  0  0  0  0
  161.2780  204.5410  148.6420 C   0  0  0  0  0  0  0  0  0  0  0  0
  160.8120  202.6130  149.5720 C   0  0  0  0  0  0  0  0  0  0  0  0
  161.1130  206.0570  150.9820 C   0  0  0  0  0  0  0  0  0  0  0  0
  161.0200  202.4480  148.2090 C   0  0  0  0  0  3  0  0  0  0  0  0
  161.3090  203.6450  147.6360 N   0  0  0  0  0  0  0  0  0  0  0  0
  160.8900  204.6620  151.0250 C   0  0  0  0  0  3  0  0  0  0  0  0
  161.8470  206.5740  147.2670 C   0  0  0  0  0  1  0  0  0  0  0  0
  160.5050  201.6400  150.4660 F   0  0  0  0  0  0  0  0  0  0  0  0
  161.4340  206.6660  149.7420 C   0  0  0  0  0  2  0  0  0  0  0  0
  160.9780  203.9450  149.8340 C   0  0  0  0  0  0  0  0  0  0  0  0
  161.1360  209.0150  151.0250 N   0  0  0  0  0  2  0  0  0  0  0  0
  160.6240  214.2210  148.6320 C   0  0  0  0  0  2  0  0  0  0  0  0
  161.8440  211.7590  148.9860 C   0  0  2  0  0  3  0  0  0  0  0  0
  161.2240  211.4350  151.2490 C   0  0  0  0  0  2  0  0  0  0  0  0
  160.4940  213.5600  150.0240 C   0  0  0  0  0  2  0  0  0  0  0  0
  161.9770  210.1830  150.8030 C   0  0  2  0  0  3  0  0  0  0  0  0
  160.4520  213.2390  147.4460 C   0  0  1  0  0  3  0  0  0  0  0  0
  160.7470  212.0570  149.9620 C   0  0  1  0  0  3  0  0  0  0  0  0
  161.3360  211.9750  147.5630 C   0  0  0  0  0  2  0  0  0  0  0  0
  162.2470  210.3410  149.3040 C   0  0  0  0  0  2  0  0  0  0  0  0
  158.9960  212.8290  147.2800 C   0  0  0  0  0  2  0  0  0  0  0  0
  158.4430  213.3520  145.9690 C   0  0  0  0  0  2  0  0  0  0  0  0
  158.7420  212.4060  144.9080 N   0  0  0  0  0  2  0  0  0  0  0  0
  161.0100  212.6040  143.4880 S   0  0  0  0  0  1  0  0  0  0  0  0
  159.3130  213.1650  143.8090 C   0  0  0  0  0  2  0  0  0  0  0  0
  2  1  1  0  0  0  0
  3  1  2  0  0  0  0
  4  3  1  0  0  0  0
  5  2  2  0  0  0  0
  6  4  2  0  0  0  0
  6  5  1  0  0  0  0
  7  8  2  0  0  0  0
  7 16  1  0  0  0  0
  8 17  1  0  0  0  0
  9 17  2  0  0  0  0
  9 15  1  0  0  0  0
 10 13  2  0  0  0  0
 10  6  1  0  0  0  0
 11  9  1  0  0  0  0
 12 11  2  0  0  0  0
 12  8  1  0  0  0  0
 14  7  1  0  0  0  0
 16 10  1  0  0  0  0
 17 13  1  0  0  0  0
 18  4  1  0  0  0  0
 19 22  1  0  0  0  0
 20 26  1  6  0  0  0
 20 27  1  0  0  0  0
 20 25  1  0  0  0  0
 23 18  1  6  0  0  0
 23 21  1  0  0  0  0
 24 28  1  1  0  0  0
 24 26  1  0  0  0  0
 24 19  1  0  0  0  0
 25 22  1  1  0  0  0
 25 21  1  0  0  0  0
 27 23  1  0  0  0  0
 29 28  1  0  0  0  0
 30 29  1  0  0  0  0
 31 32  1  0  0  0  0
 32 30  1  0  0  0  0
M  END
>  <MODEL>
3

>  <REMARK>
 VINA RESULT:      -8.6      4.311      7.681
  Name = 
  7 active torsions:
  status: ('A' for Active; 'I' for Inactive)
    1  A    between atoms: N_3  and  C_14
    2  A    between atoms: N_3  and  C_15
    3  A    between atoms: C_10  and  N_20
    4  A    between atoms: C_10  and  C_24
    5  A    between atoms: C_16  and  C_26
    6  A    between atoms: C_17  and  N_20
    7  A    between atoms: C_19  and  C_24
                            x       y       z     vdW  Elec       q    Type
                         _______ _______ _______ _____ _____    ______ ____

>  <TORSDO>
F 7

$$$$
=
 OpenBabel11062410543D

 32 36  0  0  1  0  0  0  0  0999 V2000
  161.9500  210.0070  149.8500 C   0  0  0  0  0  3  0  0  0  0  0  0
  162.2500  209.4490  148.6090 C   0  0  0  0  0  3  0  0  0  0  0  0
  161.4920  209.1950  150.8860 C   0  0  0  0  0  3  0  0  0  0  0  0
  161.3210  207.8140  150.6950 C   0  0  0  0  0  0  0  0  0  0  0  0
  162.0840  208.0790  148.4030 C   0  0  0  0  0  3  0  0  0  0  0  0
  161.6130  207.2420  149.4290 C   0  0  0  0  0  0  0  0  0  0  0  0
  161.3830  203.9250  147.5380 C   0  0  0  0  0  0  0  0  0  0  0  0
  161.1520  203.0650  148.6110 C   0  0  0  0  0  0  0  0  0  0  0  0
  160.8440  202.4500  150.6910 C   0  0  0  0  0  0  0  0  0  0  0  0
  161.4350  205.7930  149.1390 C   0  0  0  0  0  0  0  0  0  0  0  0
  160.7960  201.3440  149.8540 C   0  0  0  0  0  3  0  0  0  0  0  0
  160.9870  201.7280  148.5660 N   0  0  0  0  0  0  0  0  0  0  0  0
  161.2080  204.8870  150.1990 C   0  0  0  0  0  3  0  0  0  0  0  0
  161.4790  203.4240  146.1390 C   0  0  0  0  0  1  0  0  0  0  0  0
  160.6960  202.4490  152.0390 F   0  0  0  0  0  0  0  0  0  0  0  0
  161.5290  205.2960  147.8140 C   0  0  0  0  0  3  0  0  0  0  0  0
  161.0700  203.5360  149.8910 C   0  0  1  0  0  3  0  0  0  0  0  0
  160.8990  206.9920  151.7900 N   0  0  0  0  0  2  0  0  0  0  0  0
  160.0730  208.5640  157.2610 C   0  0  0  0  0  2  0  0  0  0  0  0
  161.5300  208.4290  154.9090 C   0  0  2  0  0  3  0  0  0  0  0  0
  160.6560  206.3700  154.1290 C   0  0  0  0  0  2  0  0  0  0  0  0
  159.8400  207.3330  156.3540 C   0  0  0  0  0  2  0  0  0  0  0  0
  161.6110  206.8900  153.0560 C   0  0  2  0  0  3  0  0  0  0  0  0
  160.1850  209.9050  156.4930 C   0  0  1  0  0  3  0  0  0  0  0  0
  160.2830  207.5970  154.9190 C   0  0  1  0  0  3  0  0  0  0  0  0
  161.1950  209.8590  155.3230 C   0  0  0  0  0  2  0  0  0  0  0  0
  162.0590  208.2850  153.5040 C   0  0  0  0  0  2  0  0  0  0  0  0
  158.8270  210.3560  155.9760 C   0  0  0  0  0  2  0  0  0  0  0  0
  158.9730  211.0540  154.6370 C   0  0  0  0  0  2  0  0  0  0  0  0
  157.8370  211.9320  154.4240 N   0  0  0  0  0  2  0  0  0  0  0  0
  159.7120  212.2280  152.5280 S   0  0  0  0  0  1  0  0  0  0  0  0
  158.1650  212.7880  153.2980 C   0  0  0  0  0  2  0  0  0  0  0  0
  1  3  1  0  0  0  0
  2  1  2  0  0  0  0
  4  3  2  0  0  0  0
  4 18  1  0  0  0  0
  5  2  1  0  0  0  0
  5  6  2  0  0  0  0
  6  4  1  0  0  0  0
  7 16  2  0  0  0  0
  7  8  1  0  0  0  0
  8 17  1  0  0  0  0
  9 15  1  0  0  0  0
 10  6  1  0  0  0  0
 10 13  2  0  0  0  0
 11  9  2  0  0  0  0
 12  8  2  0  0  0  0
 12 11  1  0  0  0  0
 14  7  1  0  0  0  0
 16 10  1  0  0  0  0
 17 13  1  1  0  0  0
 17  9  1  0  0  0  0
 20 27  1  6  0  0  0
 20 25  1  0  0  0  0
 20 26  1  0  0  0  0
 22 19  1  0  0  0  0
 23 18  1  6  0  0  0
 23 27  1  0  0  0  0
 23 21  1  0  0  0  0
 24 28  1  6  0  0  0
 24 19  1  0  0  0  0
 25 21  1  1  0  0  0
 25 22  1  0  0  0  0
 26 24  1  0  0  0  0
 29 28  1  0  0  0  0
 30 29  1  0  0  0  0
 31 32  1  0  0  0  0
 32 30  1  0  0  0  0
M  END
>  <MODEL>
4

>  <REMARK>
 VINA RESULT:      -8.4      3.128      8.978
  Name = 
  7 active torsions:
  status: ('A' for Active; 'I' for Inactive)
    1  A    between atoms: N_3  and  C_14
    2  A    between atoms: N_3  and  C_15
    3  A    between atoms: C_10  and  N_20
    4  A    between atoms: C_10  and  C_24
    5  A    between atoms: C_16  and  C_26
    6  A    between atoms: C_17  and  N_20
    7  A    between atoms: C_19  and  C_24
                            x       y       z     vdW  Elec       q    Type
                         _______ _______ _______ _____ _____    ______ ____

>  <TORSDO>
F 7

$$$$
=
 OpenBabel11062410543D

 32 36  0  0  1  0  0  0  0  0999 V2000
  162.2340  211.0210  149.9240 C   0  0  0  0  0  3  0  0  0  0  0  0
  162.0910  210.4700  148.6520 C   0  0  0  0  0  3  0  0  0  0  0  0
  162.1730  210.2010  151.0490 C   0  0  0  0  0  3  0  0  0  0  0  0
  161.9630  208.8180  150.9200 C   0  0  0  0  0  0  0  0  0  0  0  0
  161.8820  209.0980  148.5080 C   0  0  0  0  0  3  0  0  0  0  0  0
  161.8060  208.2530  149.6280 C   0  0  0  0  0  0  0  0  0  0  0  0
  161.4410  204.8580  147.9050 C   0  0  0  0  0  0  0  0  0  0  0  0
  161.1360  204.0690  149.0140 C   0  0  0  0  0  0  0  0  0  0  0  0
  160.7440  203.5830  151.1140 C   0  0  0  0  0  0  0  0  0  0  0  0
  161.5560  206.8020  149.4080 C   0  0  0  0  0  0  0  0  0  0  0  0
  160.6560  202.4370  150.3340 C   0  0  0  0  0  3  0  0  0  0  0  0
  160.9000  202.7420  149.0330 N   0  0  0  0  0  0  0  0  0  0  0  0
  161.2540  205.9670  150.5070 C   0  0  0  0  0  3  0  0  0  0  0  0
  161.5440  204.2790  146.5370 C   0  0  0  0  0  1  0  0  0  0  0  0
  160.5630  203.6610  152.4560 F   0  0  0  0  0  0  0  0  0  0  0  0
  161.6550  206.2310  148.1140 C   0  0  0  0  0  3  0  0  0  0  0  0
  161.0480  204.6110  150.2650 C   0  0  1  0  0  3  0  0  0  0  0  0
  161.9570  207.9880  152.0880 N   0  0  0  0  0  2  0  0  0  0  0  0
  159.5690  210.6430  156.5970 C   0  0  0  0  0  2  0  0  0  0  0  0
  160.5910  208.4370  155.2700 C   0  0  2  0  0  3  0  0  0  0  0  0
  160.0460  209.1280  153.0700 C   0  0  0  0  0  2  0  0  0  0  0  0
  159.4460  210.6260  155.0550 C   0  0  0  0  0  2  0  0  0  0  0  0
  160.8010  207.8050  152.9540 C   0  0  2  0  0  3  0  0  0  0  0  0
  160.9360  210.1460  157.1300 C   0  0  1  0  0  3  0  0  0  0  0  0
  160.4450  209.6640  154.4200 C   0  0  1  0  0  3  0  0  0  0  0  0
  161.3650  208.7830  156.5390 C   0  0  0  0  0  2  0  0  0  0  0  0
  161.2720  207.4410  154.3660 C   0  0  0  0  0  2  0  0  0  0  0  0
  162.0290  211.1760  156.8820 C   0  0  0  0  0  2  0  0  0  0  0  0
  163.3980  210.5350  157.0000 C   0  0  0  0  0  2  0  0  0  0  0  0
  164.3690  211.3350  156.2730 N   0  0  0  0  0  2  0  0  0  0  0  0
  166.6060  212.8000  156.4850 S   0  0  0  0  0  1  0  0  0  0  0  0
  165.1280  212.0830  157.2600 C   0  0  0  0  0  2  0  0  0  0  0  0
  1  3  1  0  0  0  0
  2  1  2  0  0  0  0
  4  3  2  0  0  0  0
  4 18  1  0  0  0  0
  5  2  1  0  0  0  0
  5  6  2  0  0  0  0
  6  4  1  0  0  0  0
  7 16  2  0  0  0  0
  7  8  1  0  0  0  0
  8 12  2  0  0  0  0
  8 17  1  0  0  0  0
  9 15  1  0  0  0  0
 10  6  1  0  0  0  0
 10 13  2  0  0  0  0
 11  9  2  0  0  0  0
 12 11  1  0  0  0  0
 14  7  1  0  0  0  0
 16 10  1  0  0  0  0
 17 13  1  1  0  0  0
 17  9  1  0  0  0  0
 19 24  1  0  0  0  0
 20 27  1  6  0  0  0
 20 26  1  0  0  0  0
 22 19  1  0  0  0  0
 23 18  1  6  0  0  0
 23 21  1  0  0  0  0
 23 27  1  0  0  0  0
 24 28  1  6  0  0  0
 25 21  1  6  0  0  0
 25 22  1  0  0  0  0
 25 20  1  0  0  0  0
 26 24  1  0  0  0  0
 28 29  1  0  0  0  0
 30 29  1  0  0  0  0
 30 32  1  0  0  0  0
 31 32  1  0  0  0  0
M  END
>  <MODEL>
5

>  <REMARK>
 VINA RESULT:      -8.3      3.615      9.323
  Name = 
  7 active torsions:
  status: ('A' for Active; 'I' for Inactive)
    1  A    between atoms: N_3  and  C_14
    2  A    between atoms: N_3  and  C_15
    3  A    between atoms: C_10  and  N_20
    4  A    between atoms: C_10  and  C_24
    5  A    between atoms: C_16  and  C_26
    6  A    between atoms: C_17  and  N_20
    7  A    between atoms: C_19  and  C_24
                            x       y       z     vdW  Elec       q    Type
                         _______ _______ _______ _____ _____    ______ ____

>  <TORSDO>
F 7

$$$$
=
 OpenBabel11062410543D

 32 36  0  0  1  0  0  0  0  0999 V2000
  162.0120  209.6670  149.1350 C   0  0  0  0  0  3  0  0  0  0  0  0
  162.2620  208.7590  148.1090 C   0  0  0  0  0  3  0  0  0  0  0  0
  161.5530  209.2120  150.3710 C   0  0  0  0  0  3  0  0  0  0  0  0
  161.3310  207.8440  150.5960 C   0  0  0  0  0  0  0  0  0  0  0  0
  162.0460  207.3960  148.3170 C   0  0  0  0  0  3  0  0  0  0  0  0
  161.5730  206.9150  149.5500 C   0  0  0  0  0  0  0  0  0  0  0  0
  160.8670  203.4990  151.1180 C   0  0  0  0  0  0  0  0  0  0  0  0
  160.8480  202.7160  149.9630 C   0  0  0  0  0  0  0  0  0  0  0  0
  160.9710  202.2450  147.8270 C   0  0  0  0  0  0  0  0  0  0  0  0
  161.3390  205.4530  149.7000 C   0  0  0  0  0  0  0  0  0  0  0  0
  160.7070  201.0930  148.5560 C   0  0  0  0  0  3  0  0  0  0  0  0
  160.6320  201.3890  149.8790 N   0  0  0  0  0  0  0  0  0  0  0  0
  161.3030  204.6270  148.5530 C   0  0  0  0  0  3  0  0  0  0  0  0
  160.6340  202.9110  152.4650 C   0  0  0  0  0  1  0  0  0  0  0  0
  161.1120  202.3340  146.4810 F   0  0  0  0  0  0  0  0  0  0  0  0
  161.1100  204.8760  150.9740 C   0  0  0  0  0  2  0  0  0  0  0  0
  161.0580  203.2680  148.7310 C   0  0  0  0  0  0  0  0  0  0  0  0
  160.9100  207.3960  151.8900 N   0  0  0  0  0  2  0  0  0  0  0  0
  159.9410  209.4950  157.1560 C   0  0  0  0  0  2  0  0  0  0  0  0
  161.3220  209.3400  154.7600 C   0  0  2  0  0  3  0  0  0  0  0  0
  160.8740  207.0610  154.2990 C   0  0  0  0  0  2  0  0  0  0  0  0
  159.9420  208.1310  156.4270 C   0  0  0  0  0  2  0  0  0  0  0  0
  161.6660  207.6140  153.1150 C   0  0  2  0  0  3  0  0  0  0  0  0
  159.7470  210.7140  156.2200 C   0  0  1  0  0  3  0  0  0  0  0  0
  160.2770  208.2830  154.9470 C   0  0  1  0  0  3  0  0  0  0  0  0
  160.7090  210.7160  155.0080 C   0  0  0  0  0  2  0  0  0  0  0  0
  161.8270  209.1180  153.3560 C   0  0  0  0  0  2  0  0  0  0  0  0
  158.3100  210.8060  155.7300 C   0  0  0  0  0  2  0  0  0  0  0  0
  158.2550  211.4630  154.3640 C   0  0  0  0  0  2  0  0  0  0  0  0
  157.3800  212.6210  154.4200 N   0  0  0  0  0  2  0  0  0  0  0  0
  158.7340  212.5430  152.1050 S   0  0  0  0  0  1  0  0  0  0  0  0
  157.7320  213.4750  153.2990 C   0  0  0  0  0  2  0  0  0  0  0  0
  1  3  1  0  0  0  0
  2  5  1  0  0  0  0
  2  1  2  0  0  0  0
  3  4  2  0  0  0  0
  4 18  1  0  0  0  0
  5  6  2  0  0  0  0
  6 10  1  0  0  0  0
  6  4  1  0  0  0  0
  7 14  1  0  0  0  0
  8  7  2  0  0  0  0
  9 11  1  0  0  0  0
  9 17  2  0  0  0  0
 10 16  1  0  0  0  0
 11 12  2  0  0  0  0
 12  8  1  0  0  0  0
 13 17  1  0  0  0  0
 13 10  2  0  0  0  0
 15  9  1  0  0  0  0
 16  7  1  0  0  0  0
 17  8  1  0  0  0  0
 20 27  1  6  0  0  0
 20 25  1  0  0  0  0
 20 26  1  0  0  0  0
 22 19  1  0  0  0  0
 23 18  1  6  0  0  0
 23 27  1  0  0  0  0
 23 21  1  0  0  0  0
 24 28  1  6  0  0  0
 24 19  1  0  0  0  0
 25 21  1  1  0  0  0
 25 22  1  0  0  0  0
 26 24  1  0  0  0  0
 29 30  1  0  0  0  0
 29 28  1  0  0  0  0
 31 32  1  0  0  0  0
 32 30  1  0  0  0  0
M  END
>  <MODEL>
6

>  <REMARK>
 VINA RESULT:      -8.3      3.752      9.273
  Name = 
  7 active torsions:
  status: ('A' for Active; 'I' for Inactive)
    1  A    between atoms: N_3  and  C_14
    2  A    between atoms: N_3  and  C_15
    3  A    between atoms: C_10  and  N_20
    4  A    between atoms: C_10  and  C_24
    5  A    between atoms: C_16  and  C_26
    6  A    between atoms: C_17  and  N_20
    7  A    between atoms: C_19  and  C_24
                            x       y       z     vdW  Elec       q    Type
                         _______ _______ _______ _____ _____    ______ ____

>  <TORSDO>
F 7

$$$$
=
 OpenBabel11062410543D

 32 36  0  0  1  0  0  0  0  0999 V2000
  161.0590  208.0340  154.4400 C   0  0  0  0  0  3  0  0  0  0  0  0
  160.9710  206.6440  154.4810 C   0  0  0  0  0  3  0  0  0  0  0  0
  161.1760  208.6880  153.2140 C   0  0  0  0  0  3  0  0  0  0  0  0
  161.2120  207.9620  152.0130 C   0  0  0  0  0  0  0  0  0  0  0  0
  161.0060  205.9080  153.2960 C   0  0  0  0  0  3  0  0  0  0  0  0
  161.1340  206.5450  152.0490 C   0  0  0  0  0  0  0  0  0  0  0  0
  160.8550  203.5390  149.7010 C   0  0  0  0  0  0  0  0  0  0  0  0
  161.2490  204.1440  148.5070 C   0  0  0  0  0  0  0  0  0  0  0  0
  161.9210  205.7390  147.1630 C   0  0  0  0  0  0  0  0  0  0  0  0
  161.1910  205.7020  150.8240 C   0  0  0  0  0  0  0  0  0  0  0  0
  161.7600  204.5540  146.4560 C   0  0  0  0  0  3  0  0  0  0  0  0
  161.3440  203.5680  147.2920 N   0  0  0  0  0  0  0  0  0  0  0  0
  161.5750  206.2800  149.5920 C   0  0  0  0  0  3  0  0  0  0  0  0
  160.4730  202.1020  149.7610 C   0  0  0  0  0  1  0  0  0  0  0  0
  162.3220  206.9320  146.6590 F   0  0  0  0  0  0  0  0  0  0  0  0
  160.8240  204.3330  150.8600 C   0  0  0  0  0  2  0  0  0  0  0  0
  161.5940  205.4650  148.4630 C   0  0  0  0  0  0  0  0  0  0  0  0
  161.2790  208.6590  150.7630 N   0  0  0  0  0  2  0  0  0  0  0  0
  160.8540  214.0020  148.6760 C   0  0  0  0  0  2  0  0  0  0  0  0
  161.9420  211.4570  148.7820 C   0  0  2  0  0  3  0  0  0  0  0  0
  161.5480  211.0550  151.0830 C   0  0  0  0  0  2  0  0  0  0  0  0
  160.8310  213.2800  150.0430 C   0  0  0  0  0  2  0  0  0  0  0  0
  162.1650  209.7840  150.5020 C   0  0  2  0  0  3  0  0  0  0  0  0
  160.4910  213.0950  147.4740 C   0  0  1  0  0  3  0  0  0  0  0  0
  160.9770  211.7700  149.8870 C   0  0  1  0  0  3  0  0  0  0  0  0
  161.2980  211.7760  147.4360 C   0  0  0  0  0  2  0  0  0  0  0  0
  162.2830  210.0030  148.9900 C   0  0  0  0  0  2  0  0  0  0  0  0
  159.0020  212.7820  147.4520 C   0  0  0  0  0  2  0  0  0  0  0  0
  158.4930  212.7200  146.0250 C   0  0  0  0  0  2  0  0  0  0  0  0
  158.4610  214.0600  145.4650 N   0  0  0  0  0  2  0  0  0  0  0  0
  159.7620  212.5780  143.6460 S   0  0  0  0  0  1  0  0  0  0  0  0
  158.6040  213.9250  144.0260 C   0  0  0  0  0  2  0  0  0  0  0  0
  1  2  1  0  0  0  0
  3  1  2  0  0  0  0
  4  6  2  0  0  0  0
  4  3  1  0  0  0  0
  5  2  2  0  0  0  0
  6  5  1  0  0  0  0
  7 14  1  0  0  0  0
  7 16  1  0  0  0  0
  8  7  2  0  0  0  0
  9 17  2  0  0  0  0
 10 16  1  0  0  0  0
 10  6  1  0  0  0  0
 11  9  1  0  0  0  0
 11 12  2  0  0  0  0
 12  8  1  0  0  0  0
 13 10  2  0  0  0  0
 15  9  1  0  0  0  0
 17  8  1  0  0  0  0
 17 13  1  0  0  0  0
 18  4  1  0  0  0  0
 19 22  1  0  0  0  0
 20 26  1  6  0  0  0
 20 27  1  0  0  0  0
 20 25  1  0  0  0  0
 23 18  1  6  0  0  0
 23 21  1  0  0  0  0
 24 28  1  1  0  0  0
 24 19  1  0  0  0  0
 25 22  1  1  0  0  0
 25 21  1  0  0  0  0
 26 24  1  0  0  0  0
 27 23  1  0  0  0  0
 29 28  1  0  0  0  0
 30 29  1  0  0  0  0
 31 32  1  0  0  0  0
 32 30  1  0  0  0  0
M  END
>  <MODEL>
7

>  <REMARK>
 VINA RESULT:      -8.3      4.482      7.979
  Name = 
  7 active torsions:
  status: ('A' for Active; 'I' for Inactive)
    1  A    between atoms: N_3  and  C_14
    2  A    between atoms: N_3  and  C_15
    3  A    between atoms: C_10  and  N_20
    4  A    between atoms: C_10  and  C_24
    5  A    between atoms: C_16  and  C_26
    6  A    between atoms: C_17  and  N_20
    7  A    between atoms: C_19  and  C_24
                            x       y       z     vdW  Elec       q    Type
                         _______ _______ _______ _____ _____    ______ ____

>  <TORSDO>
F 7

$$$$
=
 OpenBabel11062410543D

 32 36  0  0  1  0  0  0  0  0999 V2000
  161.1870  207.6200  154.2220 C   0  0  0  0  0  3  0  0  0  0  0  0
  161.1480  206.2270  154.2470 C   0  0  0  0  0  3  0  0  0  0  0  0
  161.2200  208.2940  153.0020 C   0  0  0  0  0  3  0  0  0  0  0  0
  161.2190  207.5860  151.7900 C   0  0  0  0  0  0  0  0  0  0  0  0
  161.1480  205.5090  153.0500 C   0  0  0  0  0  3  0  0  0  0  0  0
  161.1910  206.1670  151.8080 C   0  0  0  0  0  0  0  0  0  0  0  0
  160.8290  203.2030  149.4190 C   0  0  0  0  0  0  0  0  0  0  0  0
  161.2090  203.8210  148.2270 C   0  0  0  0  0  0  0  0  0  0  0  0
  161.8770  205.4280  146.8960 C   0  0  0  0  0  0  0  0  0  0  0  0
  161.2140  205.3430  150.5690 C   0  0  0  0  0  0  0  0  0  0  0  0
  161.6870  204.2570  146.1740 C   0  0  0  0  0  3  0  0  0  0  0  0
  161.2730  203.2630  147.0020 N   0  0  0  0  0  0  0  0  0  0  0  0
  161.5840  205.9340  149.3400 C   0  0  0  0  0  3  0  0  0  0  0  0
  160.4280  201.7700  149.4640 C   0  0  0  0  0  1  0  0  0  0  0  0
  162.2850  206.6230  146.4030 F   0  0  0  0  0  0  0  0  0  0  0  0
  160.8300  203.9780  150.5910 C   0  0  0  0  0  2  0  0  0  0  0  0
  161.5700  205.1380  148.1970 C   0  0  0  0  0  0  0  0  0  0  0  0
  161.1990  208.3020  150.5480 N   0  0  0  0  0  2  0  0  0  0  0  0
  161.2430  213.7090  148.5880 C   0  0  0  0  0  2  0  0  0  0  0  0
  161.9550  211.0330  148.5100 C   0  0  2  0  0  3  0  0  0  0  0  0
  161.8570  210.6250  150.8410 C   0  0  0  0  0  2  0  0  0  0  0  0
  161.3210  212.9580  149.9380 C   0  0  0  0  0  2  0  0  0  0  0  0
  162.1900  209.2970  150.1630 C   0  0  2  0  0  3  0  0  0  0  0  0
  160.5780  212.8970  147.4480 C   0  0  1  0  0  3  0  0  0  0  0  0
  161.2220  211.4470  149.7500 C   0  0  1  0  0  3  0  0  0  0  0  0
  161.1710  211.4790  147.2790 C   0  0  0  0  0  2  0  0  0  0  0  0
  162.1100  209.5400  148.6530 C   0  0  0  0  0  2  0  0  0  0  0  0
  159.0730  212.7990  147.6510 C   0  0  0  0  0  2  0  0  0  0  0  0
  158.3470  213.7340  146.7030 C   0  0  0  0  0  2  0  0  0  0  0  0
  157.0940  214.1550  147.3050 N   0  0  0  0  0  2  0  0  0  0  0  0
  156.0160  214.1460  149.7610 S   0  0  0  0  0  1  0  0  0  0  0  0
  156.8240  213.2470  148.4060 C   0  0  0  0  0  2  0  0  0  0  0  0
  1  2  1  0  0  0  0
  3  1  2  0  0  0  0
  4  6  2  0  0  0  0
  4  3  1  0  0  0  0
  5  2  2  0  0  0  0
  6  5  1  0  0  0  0
  7 14  1  0  0  0  0
  7 16  1  0  0  0  0
  8  7  2  0  0  0  0
  9 17  2  0  0  0  0
 10 16  1  0  0  0  0
 10  6  1  0  0  0  0
 11  9  1  0  0  0  0
 11 12  2  0  0  0  0
 12  8  1  0  0  0  0
 13 10  2  0  0  0  0
 15  9  1  0  0  0  0
 17  8  1  0  0  0  0
 17 13  1  0  0  0  0
 18  4  1  0  0  0  0
 19 22  1  0  0  0  0
 20 26  1  6  0  0  0
 20 27  1  0  0  0  0
 20 25  1  0  0  0  0
 23 18  1  1  0  0  0
 23 21  1  0  0  0  0
 24 28  1  1  0  0  0
 24 19  1  0  0  0  0
 25 22  1  1  0  0  0
 25 21  1  0  0  0  0
 26 24  1  0  0  0  0
 27 23  1  0  0  0  0
 29 30  1  0  0  0  0
 29 28  1  0  0  0  0
 30 32  1  0  0  0  0
 32 31  1  0  0  0  0
M  END
>  <MODEL>
8

>  <REMARK>
 VINA RESULT:      -8.3      4.630      8.132
  Name = 
  7 active torsions:
  status: ('A' for Active; 'I' for Inactive)
    1  A    between atoms: N_3  and  C_14
    2  A    between atoms: N_3  and  C_15
    3  A    between atoms: C_10  and  N_20
    4  A    between atoms: C_10  and  C_24
    5  A    between atoms: C_16  and  C_26
    6  A    between atoms: C_17  and  N_20
    7  A    between atoms: C_19  and  C_24
                            x       y       z     vdW  Elec       q    Type
                         _______ _______ _______ _____ _____    ______ ____

>  <TORSDO>
F 7

$$$$
=
 OpenBabel11062410543D

 32 36  0  0  1  0  0  0  0  0999 V2000
  157.9750  212.6860  155.3970 C   0  0  0  0  0  3  0  0  0  0  0  0
  157.5800  213.8560  154.7520 C   0  0  0  0  0  3  0  0  0  0  0  0
  158.5970  211.6690  154.6740 C   0  0  0  0  0  3  0  0  0  0  0  0
  158.8280  211.8050  153.2960 C   0  0  0  0  0  0  0  0  0  0  0  0
  157.8020  214.0060  153.3830 C   0  0  0  0  0  3  0  0  0  0  0  0
  158.4170  212.9900  152.6310 C   0  0  0  0  0  0  0  0  0  0  0  0
  157.6780  213.7370  148.9540 C   0  0  0  0  0  0  0  0  0  0  0  0
  158.9710  213.6490  148.4370 C   0  0  0  0  0  0  0  0  0  0  0  0
  161.1410  213.3490  148.4360 C   0  0  0  0  0  0  0  0  0  0  0  0
  158.6030  213.2010  151.1700 C   0  0  0  0  0  0  0  0  0  0  0  0
  160.6980  213.6420  147.1530 C   0  0  0  0  0  3  0  0  0  0  0  0
  159.3530  213.8270  147.1580 N   0  0  0  0  0  0  0  0  0  0  0  0
  159.8980  213.1290  150.6090 C   0  0  0  0  0  3  0  0  0  0  0  0
  156.5100  214.0600  148.0890 C   0  0  0  0  0  1  0  0  0  0  0  0
  162.4210  213.1060  148.8130 F   0  0  0  0  0  0  0  0  0  0  0  0
  157.5040  213.5160  150.3310 C   0  0  0  0  0  2  0  0  0  0  0  0
  160.0360  213.3560  149.2420 C   0  0  0  0  0  0  0  0  0  0  0  0
  159.5170  210.7690  152.5850 N   0  0  0  0  0  2  0  0  0  0  0  0
  162.8360  206.2330  151.3620 C   0  0  0  0  0  2  0  0  0  0  0  0
  161.5770  207.9960  153.0890 C   0  0  2  0  0  3  0  0  0  0  0  0
  161.5800  209.8800  151.6540 C   0  0  0  0  0  2  0  0  0  0  0  0
  162.5960  207.6740  150.8520 C   0  0  0  0  0  2  0  0  0  0  0  0
  160.8460  210.2860  152.9300 C   0  0  2  0  0  3  0  0  0  0  0  0
  161.6400  205.6300  152.1410 C   0  0  1  0  0  3  0  0  0  0  0  0
  161.4970  208.3760  151.6410 C   0  0  1  0  0  3  0  0  0  0  0  0
  161.1130  206.5530  153.2650 C   0  0  0  0  0  2  0  0  0  0  0  0
  160.7240  209.0240  153.7890 C   0  0  0  0  0  2  0  0  0  0  0  0
  160.4990  205.2680  151.2020 C   0  0  0  0  0  2  0  0  0  0  0  0
  160.8590  204.0480  150.3760 C   0  0  0  0  0  2  0  0  0  0  0  0
  160.8500  204.3990  148.9670 N   0  0  0  0  0  2  0  0  0  0  0  0
  160.4570  201.7490  148.8270 S   0  0  0  0  0  1  0  0  0  0  0  0
  161.3160  203.2350  148.2340 C   0  0  0  0  0  2  0  0  0  0  0  0
  2  1  1  0  0  0  0
  3  1  2  0  0  0  0
  4  3  1  0  0  0  0
  5  2  2  0  0  0  0
  6  4  2  0  0  0  0
  6  5  1  0  0  0  0
  7 16  1  0  0  0  0
  8  7  2  0  0  0  0
  8 17  1  0  0  0  0
  9 15  1  0  0  0  0
  9 17  2  0  0  0  0
 10  6  1  0  0  0  0
 11 12  2  0  0  0  0
 11  9  1  0  0  0  0
 12  8  1  0  0  0  0
 13 10  2  0  0  0  0
 14  7  1  0  0  0  0
 16 10  1  0  0  0  0
 17 13  1  0  0  0  0
 18  4  1  0  0  0  0
 19 24  1  0  0  0  0
 20 26  1  6  0  0  0
 20 27  1  0  0  0  0
 21 23  1  0  0  0  0
 22 19  1  0  0  0  0
 23 18  1  6  0  0  0
 23 27  1  0  0  0  0
 24 28  1  6  0  0  0
 24 26  1  0  0  0  0
 25 22  1  6  0  0  0
 25 21  1  0  0  0  0
 25 20  1  0  0  0  0
 29 28  1  0  0  0  0
 30 29  1  0  0  0  0
 32 31  1  0  0  0  0
 32 30  1  0  0  0  0
M  END
>  <MODEL>
9

>  <REMARK>
 VINA RESULT:      -7.8      4.297      7.686
  Name = 
  7 active torsions:
  status: ('A' for Active; 'I' for Inactive)
    1  A    between atoms: N_3  and  C_14
    2  A    between atoms: N_3  and  C_15
    3  A    between atoms: C_10  and  N_20
    4  A    between atoms: C_10  and  C_24
    5  A    between atoms: C_16  and  C_26
    6  A    between atoms: C_17  and  N_20
    7  A    between atoms: C_19  and  C_24
                            x       y       z     vdW  Elec       q    Type
                         _______ _______ _______ _____ _____    ______ ____

>  <TORSDO>
F 7

$$$$
