=
 OpenBabel11052423173D

 27 31  0  0  1  0  0  0  0  0999 V2000
  160.7280  210.5820  151.4530 N   0  0  0  0  0  2  0  0  0  0  0  0
  161.5990  208.8720  149.9820 C   0  0  0  0  0  0  0  0  0  0  0  0
  161.6800  207.8220  152.2390 N   0  0  0  0  0  2  0  0  0  0  0  0
  161.2190  205.1440  148.1830 C   0  0  0  0  0  3  0  0  0  0  0  0
  161.2140  203.9780  148.9510 C   0  0  0  0  0  0  0  0  0  0  0  0
  161.4780  208.7210  148.6320 N   0  0  0  0  0  0  0  0  0  0  0  0
  161.4540  205.2990  150.9690 C   0  0  0  0  0  3  0  0  0  0  0  0
  160.4210  209.2130  155.4400 C   0  0  0  0  0  0  0  0  0  0  0  0
  161.3320  204.0550  150.3430 C   0  0  0  0  0  3  0  0  0  0  0  0
  160.3320  208.7030  157.1120 Cl  0  0  0  0  0  0  0  0  0  0  0  0
  161.4620  206.4760  150.2050 C   0  0  0  0  0  0  0  0  0  0  0  0
  161.8250  210.2280  150.5750 C   0  0  1  0  0  3  0  0  0  0  0  0
  161.0610  202.4190  148.1720 Cl  0  0  0  0  0  0  0  0  0  0  0  0
  161.3420  206.3900  148.8040 C   0  0  0  0  0  0  0  0  0  0  0  0
  160.5750  210.0340  152.7620 C   0  0  0  0  0  0  0  0  0  0  0  0
  161.5680  207.7380  150.8090 C   0  0  0  0  0  0  0  0  0  0  0  0
  161.0570  208.4060  154.4960 C   0  0  0  0  0  3  0  0  0  0  0  0
  161.3480  207.5240  148.0620 N   0  0  0  0  0  0  0  0  0  0  0  0
  159.8330  210.4130  155.0440 C   0  0  0  0  0  3  0  0  0  0  0  0
  159.9150  210.8200  153.7130 C   0  0  0  0  0  3  0  0  0  0  0  0
  161.1350  208.7900  153.1520 C   0  0  0  0  0  0  0  0  0  0  0  0
  162.4790  213.3670  147.7060 C   0  0  0  0  0  3  0  0  0  0  0  0
  162.0590  211.3070  149.5580 C   0  0  0  0  0  0  0  0  0  0  0  0
  161.1620  212.3780  149.4810 C   0  0  0  0  0  3  0  0  0  0  0  0
  161.3700  213.4050  148.5550 C   0  0  0  0  0  3  0  0  0  0  0  0
  163.3830  212.3020  147.7830 C   0  0  0  0  0  3  0  0  0  0  0  0
  163.1760  211.2750  148.7080 C   0  0  0  0  0  3  0  0  0  0  0  0
  1 15  1  0  0  0  0
  2 12  1  0  0  0  0
  2 16  1  0  0  0  0
  3 21  1  0  0  0  0
  4 14  1  0  0  0  0
  4  5  2  0  0  0  0
  5  9  1  0  0  0  0
  6  2  2  0  0  0  0
  8 10  1  0  0  0  0
  9  7  2  0  0  0  0
 11 16  2  0  0  0  0
 11  7  1  0  0  0  0
 12 23  1  6  0  0  0
 12  1  1  0  0  0  0
 13  5  1  0  0  0  0
 14 11  1  0  0  0  0
 15 21  2  0  0  0  0
 15 20  1  0  0  0  0
 16  3  1  0  0  0  0
 17  8  2  0  0  0  0
 18  6  1  0  0  0  0
 18 14  2  0  0  0  0
 19  8  1  0  0  0  0
 20 19  2  0  0  0  0
 21 17  1  0  0  0  0
 22 26  2  0  0  0  0
 22 25  1  0  0  0  0
 24 23  1  0  0  0  0
 25 24  2  0  0  0  0
 26 27  1  0  0  0  0
 27 23  2  0  0  0  0
M  END
>  <MODEL>
1

>  <REMARK>
 VINA RESULT:      -8.3      0.000      0.000
  Name = 
  1 active torsions:
  status: ('A' for Active; 'I' for Inactive)
    1  A    between atoms: C_9  and  C_15
                            x       y       z     vdW  Elec       q    Type
                         _______ _______ _______ _____ _____    ______ ____

>  <TORSDO>
F 1

$$$$
=
 OpenBabel11052423173D

 27 31  0  0  1  0  0  0  0  0999 V2000
  162.5000  208.4070  148.3160 N   0  0  0  0  0  2  0  0  0  0  0  0
  161.6550  209.2530  150.4180 C   0  0  0  0  0  0  0  0  0  0  0  0
  160.7950  206.9170  150.3190 N   0  0  0  0  0  2  0  0  0  0  0  0
  161.6200  209.1650  154.5740 C   0  0  0  0  0  3  0  0  0  0  0  0
  161.1780  208.0320  155.2600 C   0  0  0  0  0  0  0  0  0  0  0  0
  162.0630  210.3110  151.1750 N   0  0  0  0  0  0  0  0  0  0  0  0
  160.7550  206.9120  153.1530 C   0  0  0  0  0  3  0  0  0  0  0  0
  161.5160  204.3360  147.7520 C   0  0  0  0  0  0  0  0  0  0  0  0
  160.7460  206.9070  154.5510 C   0  0  0  0  0  3  0  0  0  0  0  0
  161.0800  202.6680  147.4550 Cl  0  0  0  0  0  0  0  0  0  0  0  0
  161.1960  208.0470  152.4540 C   0  0  0  0  0  0  0  0  0  0  0  0
  161.5980  209.3640  148.9260 C   0  0  1  0  0  3  0  0  0  0  0  0
  161.1650  208.0200  157.0100 Cl  0  0  0  0  0  0  0  0  0  0  0  0
  161.6310  209.1760  153.1760 C   0  0  0  0  0  0  0  0  0  0  0  0
  162.2040  207.0140  148.2230 C   0  0  0  0  0  0  0  0  0  0  0  0
  161.2310  208.0740  151.0520 C   0  0  0  0  0  0  0  0  0  0  0  0
  160.9650  205.0200  148.8370 C   0  0  0  0  0  3  0  0  0  0  0  0
  162.0570  210.2730  152.5060 N   0  0  0  0  0  0  0  0  0  0  0  0
  162.4350  204.9760  146.9220 C   0  0  0  0  0  3  0  0  0  0  0  0
  162.7710  206.3090  147.1560 C   0  0  0  0  0  3  0  0  0  0  0  0
  161.3040  206.3530  149.0980 C   0  0  0  0  0  0  0  0  0  0  0  0
  162.4150  213.3060  147.4070 C   0  0  0  0  0  3  0  0  0  0  0  0
  161.8660  210.7480  148.4080 C   0  0  0  0  0  0  0  0  0  0  0  0
  163.1810  211.2220  148.3750 C   0  0  0  0  0  3  0  0  0  0  0  0
  163.4560  212.5000  147.8770 C   0  0  0  0  0  3  0  0  0  0  0  0
  161.0990  212.8350  147.4320 C   0  0  0  0  0  3  0  0  0  0  0  0
  160.8230  211.5580  147.9290 C   0  0  0  0  0  3  0  0  0  0  0  0
  1 12  1  0  0  0  0
  2 16  2  0  0  0  0
  2  6  1  0  0  0  0
  3 16  1  0  0  0  0
  4  5  1  0  0  0  0
  5 13  1  0  0  0  0
  6 18  2  0  0  0  0
  7  9  1  0  0  0  0
  8 17  1  0  0  0  0
  9  5  2  0  0  0  0
 10  8  1  0  0  0  0
 11  7  2  0  0  0  0
 11 14  1  0  0  0  0
 12 23  1  1  0  0  0
 12  2  1  0  0  0  0
 14  4  2  0  0  0  0
 15  1  1  0  0  0  0
 15 21  1  0  0  0  0
 16 11  1  0  0  0  0
 17 21  2  0  0  0  0
 18 14  1  0  0  0  0
 19 20  1  0  0  0  0
 19  8  2  0  0  0  0
 20 15  2  0  0  0  0
 21  3  1  0  0  0  0
 22 26  2  0  0  0  0
 22 25  1  0  0  0  0
 24 23  1  0  0  0  0
 25 24  2  0  0  0  0
 26 27  1  0  0  0  0
 27 23  2  0  0  0  0
M  END
>  <MODEL>
2

>  <REMARK>
 VINA RESULT:      -7.9      1.331      5.670
  Name = 
  1 active torsions:
  status: ('A' for Active; 'I' for Inactive)
    1  A    between atoms: C_9  and  C_15
                            x       y       z     vdW  Elec       q    Type
                         _______ _______ _______ _____ _____    ______ ____

>  <TORSDO>
F 1

$$$$
=
 OpenBabel11052423173D

 27 31  0  0  1  0  0  0  0  0999 V2000
  161.4800  206.6720  153.0560 N   0  0  0  0  0  2  0  0  0  0  0  0
  161.3540  207.6150  150.8330 C   0  0  0  0  0  0  0  0  0  0  0  0
  160.4770  209.4240  152.3050 N   0  0  0  0  0  2  0  0  0  0  0  0
  162.6340  210.4130  148.0380 C   0  0  0  0  0  3  0  0  0  0  0  0
  162.4180  211.7780  148.2430 C   0  0  0  0  0  0  0  0  0  0  0  0
  161.9940  207.2600  149.6830 N   0  0  0  0  0  0  0  0  0  0  0  0
  161.3360  211.2950  150.3570 C   0  0  0  0  0  3  0  0  0  0  0  0
  160.3170  209.4590  156.0120 C   0  0  0  0  0  0  0  0  0  0  0  0
  161.7690  212.2190  149.4010 C   0  0  0  0  0  3  0  0  0  0  0  0
  159.7880  210.5660  157.2600 Cl  0  0  0  0  0  0  0  0  0  0  0  0
  161.5470  209.9220  150.1590 C   0  0  0  0  0  0  0  0  0  0  0  0
  160.8300  206.5670  151.7650 C   0  0  1  0  0  3  0  0  0  0  0  0
  162.9580  212.9380  147.0490 Cl  0  0  0  0  0  0  0  0  0  0  0  0
  162.2020  209.4870  148.9900 C   0  0  0  0  0  0  0  0  0  0  0  0
  161.1520  207.6830  154.0080 C   0  0  0  0  0  0  0  0  0  0  0  0
  161.1370  208.9740  151.1100 C   0  0  0  0  0  0  0  0  0  0  0  0
  160.1460  209.7910  154.6670 C   0  0  0  0  0  3  0  0  0  0  0  0
  162.4090  208.1620  148.7950 N   0  0  0  0  0  0  0  0  0  0  0  0
  160.9340  208.2590  156.3580 C   0  0  0  0  0  3  0  0  0  0  0  0
  161.3440  207.3760  155.3600 C   0  0  0  0  0  3  0  0  0  0  0  0
  160.5670  208.9250  153.6500 C   0  0  0  0  0  0  0  0  0  0  0  0
  161.1020  202.5360  150.2850 C   0  0  0  0  0  3  0  0  0  0  0  0
  160.9370  205.1680  151.2310 C   0  0  0  0  0  0  0  0  0  0  0  0
  161.2090  204.1190  152.1150 C   0  0  0  0  0  3  0  0  0  0  0  0
  161.2930  202.8050  151.6430 C   0  0  0  0  0  3  0  0  0  0  0  0
  160.8250  203.5800  149.3970 C   0  0  0  0  0  3  0  0  0  0  0  0
  160.7400  204.8940  149.8680 C   0  0  0  0  0  3  0  0  0  0  0  0
  1 15  1  0  0  0  0
  2 16  1  0  0  0  0
  2 12  1  0  0  0  0
  3 21  1  0  0  0  0
  4  5  2  0  0  0  0
  4 14  1  0  0  0  0
  5  9  1  0  0  0  0
  6  2  2  0  0  0  0
  8 19  1  0  0  0  0
  8 10  1  0  0  0  0
  9  7  2  0  0  0  0
 11  7  1  0  0  0  0
 11 16  2  0  0  0  0
 12 23  1  6  0  0  0
 12  1  1  0  0  0  0
 13  5  1  0  0  0  0
 14 11  1  0  0  0  0
 15 20  1  0  0  0  0
 16  3  1  0  0  0  0
 17  8  2  0  0  0  0
 18 14  2  0  0  0  0
 18  6  1  0  0  0  0
 20 19  2  0  0  0  0
 21 15  2  0  0  0  0
 21 17  1  0  0  0  0
 22 25  1  0  0  0  0
 23 24  1  0  0  0  0
 25 24  2  0  0  0  0
 26 27  1  0  0  0  0
 26 22  2  0  0  0  0
 27 23  2  0  0  0  0
M  END
>  <MODEL>
3

>  <REMARK>
 VINA RESULT:      -7.2      2.395      5.835
  Name = 
  1 active torsions:
  status: ('A' for Active; 'I' for Inactive)
    1  A    between atoms: C_9  and  C_15
                            x       y       z     vdW  Elec       q    Type
                         _______ _______ _______ _____ _____    ______ ____

>  <TORSDO>
F 1

$$$$
=
 OpenBabel11052423173D

 27 31  0  0  1  0  0  0  0  0999 V2000
  161.9530  208.4850  152.6080 N   0  0  0  0  0  2  0  0  0  0  0  0
  161.0390  206.2650  152.3210 C   0  0  0  0  0  0  0  0  0  0  0  0
  160.8270  207.2990  150.0650 N   0  0  0  0  0  2  0  0  0  0  0  0
  161.2740  202.4710  150.6390 C   0  0  0  0  0  3  0  0  0  0  0  0
  161.1900  202.2970  149.2550 C   0  0  0  0  0  0  0  0  0  0  0  0
  161.1940  205.1400  153.0750 N   0  0  0  0  0  0  0  0  0  0  0  0
  160.9570  204.6910  148.9620 C   0  0  0  0  0  3  0  0  0  0  0  0
  162.0570  210.6230  148.9630 C   0  0  0  0  0  0  0  0  0  0  0  0
  161.0320  203.4060  148.4180 C   0  0  0  0  0  3  0  0  0  0  0  0
  162.0640  211.5600  147.4860 Cl  0  0  0  0  0  0  0  0  0  0  0  0
  161.0380  204.8760  150.3510 C   0  0  0  0  0  0  0  0  0  0  0  0
  160.8670  207.6000  152.9780 C   0  0  1  0  0  3  0  0  0  0  0  0
  161.2830  200.6900  148.5700 Cl  0  0  0  0  0  0  0  0  0  0  0  0
  161.1980  203.7540  151.1880 C   0  0  0  0  0  0  0  0  0  0  0  0
  162.0330  209.1220  151.3330 C   0  0  0  0  0  0  0  0  0  0  0  0
  160.9820  206.1570  150.9230 C   0  0  0  0  0  0  0  0  0  0  0  0
  161.4080  209.3870  149.0030 C   0  0  0  0  0  3  0  0  0  0  0  0
  161.2780  203.9280  152.5290 N   0  0  0  0  0  0  0  0  0  0  0  0
  162.7220  211.0950  150.0930 C   0  0  0  0  0  3  0  0  0  0  0  0
  162.7050  210.3490  151.2710 C   0  0  0  0  0  3  0  0  0  0  0  0
  161.3950  208.6160  150.1720 C   0  0  0  0  0  0  0  0  0  0  0  0
  160.4810  207.4650  157.2610 C   0  0  0  0  0  3  0  0  0  0  0  0
  160.7250  207.5310  154.4710 C   0  0  0  0  0  0  0  0  0  0  0  0
  161.7230  208.0880  155.2770 C   0  0  0  0  0  3  0  0  0  0  0  0
  161.6030  208.0530  156.6700 C   0  0  0  0  0  3  0  0  0  0  0  0
  159.4780  206.9120  156.4600 C   0  0  0  0  0  3  0  0  0  0  0  0
  159.5970  206.9470  155.0670 C   0  0  0  0  0  3  0  0  0  0  0  0
  1 12  1  0  0  0  0
  2 12  1  0  0  0  0
  2  6  1  0  0  0  0
  3 21  1  0  0  0  0
  3 16  1  0  0  0  0
  4 14  1  0  0  0  0
  5  4  2  0  0  0  0
  7 11  1  0  0  0  0
  8 17  2  0  0  0  0
  8 19  1  0  0  0  0
  9  7  2  0  0  0  0
  9  5  1  0  0  0  0
 10  8  1  0  0  0  0
 11 16  1  0  0  0  0
 11 14  2  0  0  0  0
 12 23  1  1  0  0  0
 13  5  1  0  0  0  0
 14 18  1  0  0  0  0
 15  1  1  0  0  0  0
 16  2  2  0  0  0  0
 17 21  1  0  0  0  0
 18  6  2  0  0  0  0
 19 20  2  0  0  0  0
 20 15  1  0  0  0  0
 21 15  2  0  0  0  0
 23 27  2  0  0  0  0
 23 24  1  0  0  0  0
 24 25  2  0  0  0  0
 25 22  1  0  0  0  0
 26 22  2  0  0  0  0
 27 26  1  0  0  0  0
M  END
>  <MODEL>
4

>  <REMARK>
 VINA RESULT:      -7.1      2.686      5.782
  Name = 
  1 active torsions:
  status: ('A' for Active; 'I' for Inactive)
    1  A    between atoms: C_9  and  C_15
                            x       y       z     vdW  Elec       q    Type
                         _______ _______ _______ _____ _____    ______ ____

>  <TORSDO>
F 1

$$$$
=
 OpenBabel11052423173D

 27 31  0  0  1  0  0  0  0  0999 V2000
  160.5310  211.7990  150.9930 N   0  0  0  0  0  2  0  0  0  0  0  0
  161.5550  209.7030  150.3570 C   0  0  0  0  0  0  0  0  0  0  0  0
  161.5190  209.6240  152.8470 N   0  0  0  0  0  2  0  0  0  0  0  0
  161.4220  205.5530  150.1530 C   0  0  0  0  0  3  0  0  0  0  0  0
  161.4040  204.7810  151.3180 C   0  0  0  0  0  0  0  0  0  0  0  0
  161.5320  209.0300  149.1720 N   0  0  0  0  0  0  0  0  0  0  0  0
  161.4630  206.7970  152.6620 C   0  0  0  0  0  3  0  0  0  0  0  0
  160.0000  212.0810  155.1760 C   0  0  0  0  0  0  0  0  0  0  0  0
  161.4250  205.4020  152.5710 C   0  0  0  0  0  3  0  0  0  0  0  0
  159.8150  212.2600  156.9070 Cl  0  0  0  0  0  0  0  0  0  0  0  0
  161.4830  207.5810  151.4980 C   0  0  0  0  0  0  0  0  0  0  0  0
  161.6960  211.1930  150.3800 C   0  0  1  0  0  3  0  0  0  0  0  0
  161.3560  203.0360  151.2080 Cl  0  0  0  0  0  0  0  0  0  0  0  0
  161.4610  206.9470  150.2400 C   0  0  0  0  0  0  0  0  0  0  0  0
  160.3080  211.7980  152.4030 C   0  0  0  0  0  0  0  0  0  0  0  0
  161.5060  208.9820  151.5610 C   0  0  0  0  0  0  0  0  0  0  0  0
  160.7250  211.0070  154.6590 C   0  0  0  0  0  3  0  0  0  0  0  0
  161.4800  207.7000  149.1130 N   0  0  0  0  0  0  0  0  0  0  0  0
  159.4000  212.9950  154.3120 C   0  0  0  0  0  3  0  0  0  0  0  0
  159.5590  212.8540  152.9340 C   0  0  0  0  0  3  0  0  0  0  0  0
  160.8810  210.8390  153.2770 C   0  0  0  0  0  0  0  0  0  0  0  0
  162.4200  212.9870  146.5370 C   0  0  0  0  0  3  0  0  0  0  0  0
  161.9620  211.8010  149.0330 C   0  0  0  0  0  0  0  0  0  0  0  0
  160.9020  212.3730  148.3210 C   0  0  0  0  0  3  0  0  0  0  0  0
  161.1300  212.9630  147.0740 C   0  0  0  0  0  3  0  0  0  0  0  0
  163.4840  212.4220  147.2470 C   0  0  0  0  0  3  0  0  0  0  0  0
  163.2580  211.8330  148.4930 C   0  0  0  0  0  3  0  0  0  0  0  0
  1 15  1  0  0  0  0
  2 12  1  0  0  0  0
  2 16  1  0  0  0  0
  3 21  1  0  0  0  0
  4 14  1  0  0  0  0
  4  5  2  0  0  0  0
  5  9  1  0  0  0  0
  6  2  2  0  0  0  0
  8 10  1  0  0  0  0
  9  7  2  0  0  0  0
 11 16  2  0  0  0  0
 11  7  1  0  0  0  0
 12 23  1  6  0  0  0
 12  1  1  0  0  0  0
 13  5  1  0  0  0  0
 14 11  1  0  0  0  0
 15 20  2  0  0  0  0
 15 21  1  0  0  0  0
 16  3  1  0  0  0  0
 17  8  1  0  0  0  0
 18  6  1  0  0  0  0
 18 14  2  0  0  0  0
 19  8  2  0  0  0  0
 20 19  1  0  0  0  0
 21 17  2  0  0  0  0
 22 25  2  0  0  0  0
 22 26  1  0  0  0  0
 24 23  2  0  0  0  0
 25 24  1  0  0  0  0
 26 27  2  0  0  0  0
 27 23  1  0  0  0  0
M  END
>  <MODEL>
5

>  <REMARK>
 VINA RESULT:      -6.9      1.565      1.952
  Name = 
  1 active torsions:
  status: ('A' for Active; 'I' for Inactive)
    1  A    between atoms: C_9  and  C_15
                            x       y       z     vdW  Elec       q    Type
                         _______ _______ _______ _____ _____    ______ ____

>  <TORSDO>
F 1

$$$$
=
 OpenBabel11052423173D

 27 31  0  0  1  0  0  0  0  0999 V2000
  161.5710  208.7070  153.3140 N   0  0  0  0  0  2  0  0  0  0  0  0
  161.3280  209.3640  151.0000 C   0  0  0  0  0  0  0  0  0  0  0  0
  160.3900  211.2890  152.2730 N   0  0  0  0  0  2  0  0  0  0  0  0
  162.3670  211.8650  147.8460 C   0  0  0  0  0  3  0  0  0  0  0  0
  162.0770  213.2310  147.8930 C   0  0  0  0  0  0  0  0  0  0  0  0
  161.9560  208.9060  149.8800 N   0  0  0  0  0  0  0  0  0  0  0  0
  161.0850  212.9520  150.0860 C   0  0  0  0  0  3  0  0  0  0  0  0
  160.3310  211.7670  155.9520 C   0  0  0  0  0  0  0  0  0  0  0  0
  161.4370  213.7740  149.0110 C   0  0  0  0  0  3  0  0  0  0  0  0
  159.7740  212.9880  157.0760 Cl  0  0  0  0  0  0  0  0  0  0  0  0
  161.3690  211.5780  150.0470 C   0  0  0  0  0  0  0  0  0  0  0  0
  160.8920  208.4110  152.0680 C   0  0  1  0  0  3  0  0  0  0  0  0
  162.5160  214.2640  146.5510 Cl  0  0  0  0  0  0  0  0  0  0  0  0
  162.0160  211.0390  148.9180 C   0  0  0  0  0  0  0  0  0  0  0  0
  161.2120  209.8080  154.1490 C   0  0  0  0  0  0  0  0  0  0  0  0
  161.0410  210.7330  151.1180 C   0  0  0  0  0  0  0  0  0  0  0  0
  160.1030  211.9230  154.5840 C   0  0  0  0  0  3  0  0  0  0  0  0
  162.2940  209.7140  148.8760 N   0  0  0  0  0  0  0  0  0  0  0  0
  161.0260  210.6530  156.4190 C   0  0  0  0  0  3  0  0  0  0  0  0
  161.4580  209.6790  155.5210 C   0  0  0  0  0  3  0  0  0  0  0  0
  160.5450  210.9630  153.6650 C   0  0  0  0  0  0  0  0  0  0  0  0
  161.3570  204.2500  151.0760 C   0  0  0  0  0  3  0  0  0  0  0  0
  161.0650  206.9650  151.7030 C   0  0  0  0  0  0  0  0  0  0  0  0
  161.4370  206.0500  152.6940 C   0  0  0  0  0  3  0  0  0  0  0  0
  161.5850  204.6950  152.3810 C   0  0  0  0  0  3  0  0  0  0  0  0
  160.9790  205.1580  150.0830 C   0  0  0  0  0  3  0  0  0  0  0  0
  160.8310  206.5130  150.3950 C   0  0  0  0  0  3  0  0  0  0  0  0
  1 15  1  0  0  0  0
  2 16  1  0  0  0  0
  2 12  1  0  0  0  0
  3 21  1  0  0  0  0
  4  5  2  0  0  0  0
  4 14  1  0  0  0  0
  5  9  1  0  0  0  0
  6  2  2  0  0  0  0
  8 19  1  0  0  0  0
  8 10  1  0  0  0  0
  9  7  2  0  0  0  0
 11  7  1  0  0  0  0
 11 16  2  0  0  0  0
 12 23  1  6  0  0  0
 12  1  1  0  0  0  0
 13  5  1  0  0  0  0
 14 11  1  0  0  0  0
 15 20  1  0  0  0  0
 16  3  1  0  0  0  0
 17  8  2  0  0  0  0
 18 14  2  0  0  0  0
 18  6  1  0  0  0  0
 20 19  2  0  0  0  0
 21 15  2  0  0  0  0
 21 17  1  0  0  0  0
 22 25  1  0  0  0  0
 23 24  1  0  0  0  0
 25 24  2  0  0  0  0
 26 27  1  0  0  0  0
 26 22  2  0  0  0  0
 27 23  2  0  0  0  0
M  END
>  <MODEL>
6

>  <REMARK>
 VINA RESULT:      -6.7      2.746      5.903
  Name = 
  1 active torsions:
  status: ('A' for Active; 'I' for Inactive)
    1  A    between atoms: C_9  and  C_15
                            x       y       z     vdW  Elec       q    Type
                         _______ _______ _______ _____ _____    ______ ____

>  <TORSDO>
F 1

$$$$
=
 OpenBabel11052423173D

 27 31  0  0  1  0  0  0  0  0999 V2000
  160.5710  206.7620  152.1690 N   0  0  0  0  0  2  0  0  0  0  0  0
  161.2760  209.0660  151.9750 C   0  0  0  0  0  0  0  0  0  0  0  0
  162.1340  207.9970  149.8950 N   0  0  0  0  0  2  0  0  0  0  0  0
  161.0320  212.7500  150.0650 C   0  0  0  0  0  3  0  0  0  0  0  0
  161.4250  212.8910  148.7320 C   0  0  0  0  0  0  0  0  0  0  0  0
  160.8210  210.1870  152.6040 N   0  0  0  0  0  0  0  0  0  0  0  0
  161.9840  210.5350  148.6420 C   0  0  0  0  0  3  0  0  0  0  0  0
  161.5780  204.5170  148.7330 C   0  0  0  0  0  0  0  0  0  0  0  0
  161.9000  211.7840  148.0210 C   0  0  0  0  0  3  0  0  0  0  0  0
  162.0290  203.5400  147.3520 Cl  0  0  0  0  0  0  0  0  0  0  0  0
  161.5940  210.3840  149.9820 C   0  0  0  0  0  0  0  0  0  0  0  0
  161.4320  207.7830  152.7300 C   0  0  1  0  0  3  0  0  0  0  0  0
  161.3210  214.4530  147.9500 Cl  0  0  0  0  0  0  0  0  0  0  0  0
  161.1160  211.5040  150.6900 C   0  0  0  0  0  0  0  0  0  0  0  0
  160.8680  206.0810  150.9500 C   0  0  0  0  0  0  0  0  0  0  0  0
  161.6530  209.1380  150.6250 C   0  0  0  0  0  0  0  0  0  0  0  0
  162.0580  205.8220  148.8510 C   0  0  0  0  0  3  0  0  0  0  0  0
  160.7370  211.3630  151.9840 N   0  0  0  0  0  0  0  0  0  0  0  0
  160.7190  204.0030  149.7020 C   0  0  0  0  0  3  0  0  0  0  0  0
  160.3710  204.7810  150.8050 C   0  0  0  0  0  3  0  0  0  0  0  0
  161.7060  206.6250  149.9430 C   0  0  0  0  0  0  0  0  0  0  0  0
  160.7890  208.0950  156.9730 C   0  0  0  0  0  3  0  0  0  0  0  0
  161.2040  207.9140  154.2080 C   0  0  0  0  0  0  0  0  0  0  0  0
  160.4310  206.9530  154.8670 C   0  0  0  0  0  3  0  0  0  0  0  0
  160.2220  207.0430  156.2470 C   0  0  0  0  0  3  0  0  0  0  0  0
  161.5670  209.0550  156.3200 C   0  0  0  0  0  3  0  0  0  0  0  0
  161.7770  208.9660  154.9420 C   0  0  0  0  0  3  0  0  0  0  0  0
  1 12  1  0  0  0  0
  2  6  1  0  0  0  0
  2 12  1  0  0  0  0
  3 21  1  0  0  0  0
  3 16  1  0  0  0  0
  4 14  1  0  0  0  0
  5  4  2  0  0  0  0
  7 11  1  0  0  0  0
  8 17  2  0  0  0  0
  8 19  1  0  0  0  0
  9  7  2  0  0  0  0
  9  5  1  0  0  0  0
 10  8  1  0  0  0  0
 11 16  1  0  0  0  0
 11 14  2  0  0  0  0
 12 23  1  1  0  0  0
 13  5  1  0  0  0  0
 14 18  1  0  0  0  0
 15  1  1  0  0  0  0
 16  2  2  0  0  0  0
 17 21  1  0  0  0  0
 18  6  2  0  0  0  0
 19 20  2  0  0  0  0
 20 15  1  0  0  0  0
 21 15  2  0  0  0  0
 23 24  2  0  0  0  0
 23 27  1  0  0  0  0
 24 25  1  0  0  0  0
 25 22  2  0  0  0  0
 26 22  1  0  0  0  0
 27 26  2  0  0  0  0
M  END
>  <MODEL>
7

>  <REMARK>
 VINA RESULT:      -6.5      2.482      7.050
  Name = 
  1 active torsions:
  status: ('A' for Active; 'I' for Inactive)
    1  A    between atoms: C_9  and  C_15
                            x       y       z     vdW  Elec       q    Type
                         _______ _______ _______ _____ _____    ______ ____

>  <TORSDO>
F 1

$$$$
=
 OpenBabel11052423173D

 27 31  0  0  1  0  0  0  0  0999 V2000
  161.2060  208.6000  148.1100 N   0  0  0  0  0  2  0  0  0  0  0  0
  161.6180  207.5080  150.2270 C   0  0  0  0  0  0  0  0  0  0  0  0
  162.3170  209.8660  150.6210 N   0  0  0  0  0  2  0  0  0  0  0  0
  160.7210  207.0270  154.2580 C   0  0  0  0  0  3  0  0  0  0  0  0
  160.9210  208.0720  155.1630 C   0  0  0  0  0  0  0  0  0  0  0  0
  161.1250  206.3410  150.7320 N   0  0  0  0  0  0  0  0  0  0  0  0
  161.7250  209.4840  153.3660 C   0  0  0  0  0  3  0  0  0  0  0  0
  162.0110  212.7440  148.2990 C   0  0  0  0  0  0  0  0  0  0  0  0
  161.4230  209.2990  154.7180 C   0  0  0  0  0  3  0  0  0  0  0  0
  162.3870  214.4530  148.3210 Cl  0  0  0  0  0  0  0  0  0  0  0  0
  161.5290  208.4400  152.4490 C   0  0  0  0  0  0  0  0  0  0  0  0
  162.0120  207.6030  148.7870 C   0  0  1  0  0  3  0  0  0  0  0  0
  160.5440  207.8440  156.8570 Cl  0  0  0  0  0  0  0  0  0  0  0  0
  161.0220  207.2070  152.9050 C   0  0  0  0  0  0  0  0  0  0  0  0
  161.4200  210.0030  148.2620 C   0  0  0  0  0  0  0  0  0  0  0  0
  161.8090  208.6040  151.0830 C   0  0  0  0  0  0  0  0  0  0  0  0
  162.3520  211.9400  149.3870 C   0  0  0  0  0  3  0  0  0  0  0  0
  160.8310  206.1960  152.0240 N   0  0  0  0  0  0  0  0  0  0  0  0
  161.3460  212.1900  147.2070 C   0  0  0  0  0  3  0  0  0  0  0  0
  161.0570  210.8260  147.1900 C   0  0  0  0  0  3  0  0  0  0  0  0
  162.0560  210.5720  149.3950 C   0  0  0  0  0  0  0  0  0  0  0  0
  161.9250  203.8670  146.6550 C   0  0  0  0  0  3  0  0  0  0  0  0
  161.9620  206.2950  148.0520 C   0  0  0  0  0  0  0  0  0  0  0  0
  162.3310  206.2540  146.7040 C   0  0  0  0  0  3  0  0  0  0  0  0
  162.3110  205.0430  146.0050 C   0  0  0  0  0  3  0  0  0  0  0  0
  161.5610  203.9010  148.0040 C   0  0  0  0  0  3  0  0  0  0  0  0
  161.5810  205.1100  148.7040 C   0  0  0  0  0  3  0  0  0  0  0  0
  1 15  1  0  0  0  0
  1 12  1  0  0  0  0
  2  6  2  0  0  0  0
  2 16  1  0  0  0  0
  3 16  1  0  0  0  0
  4  5  2  0  0  0  0
  5 13  1  0  0  0  0
  6 18  1  0  0  0  0
  7  9  2  0  0  0  0
  8 10  1  0  0  0  0
  8 17  1  0  0  0  0
  9  5  1  0  0  0  0
 11 14  1  0  0  0  0
 11  7  1  0  0  0  0
 12 23  1  6  0  0  0
 12  2  1  0  0  0  0
 14  4  1  0  0  0  0
 15 21  1  0  0  0  0
 16 11  2  0  0  0  0
 17 21  2  0  0  0  0
 18 14  2  0  0  0  0
 19  8  2  0  0  0  0
 20 19  1  0  0  0  0
 20 15  2  0  0  0  0
 21  3  1  0  0  0  0
 22 26  1  0  0  0  0
 23 27  1  0  0  0  0
 24 23  2  0  0  0  0
 25 22  2  0  0  0  0
 25 24  1  0  0  0  0
 26 27  2  0  0  0  0
M  END
>  <MODEL>
8

>  <REMARK>
 VINA RESULT:      -5.7      2.522      6.352
  Name = 
  1 active torsions:
  status: ('A' for Active; 'I' for Inactive)
    1  A    between atoms: C_9  and  C_15
                            x       y       z     vdW  Elec       q    Type
                         _______ _______ _______ _____ _____    ______ ____

>  <TORSDO>
F 1

$$$$
