=
 OpenBabel11062408513D

 55 61  0  0  1  0  0  0  0  0999 V2000
  161.5100  207.1840  148.4680 C   0  0  0  0  0  0  0  0  0  0  0  0
  161.2100  206.7200  152.5480 C   0  0  0  0  0  2  0  0  0  0  0  0
  160.5150  203.8040  152.3020 O   0  0  0  0  0  1  0  0  0  0  0  0
  160.5810  201.4880  149.9920 C   0  0  0  0  0  3  0  0  0  0  0  0
  160.7170  200.1680  149.8870 C   0  0  0  0  0  3  0  0  0  0  0  0
  161.7930  201.7930  147.8200 C   0  0  2  0  0  3  0  0  0  0  0  0
  161.3530  200.3620  147.5170 C   0  0  0  0  0  2  0  0  0  0  0  0
  160.0790  204.1930  150.0960 O   0  0  0  0  0  0  0  0  0  0  0  0
  161.2420  199.6060  148.7200 O   0  0  0  0  0  0  0  0  0  0  0  0
  161.3280  209.5960  148.0240 C   0  0  0  0  0  3  0  0  0  0  0  0
  161.0020  202.3580  148.9270 N   0  0  0  0  0  0  0  0  0  0  0  0
  162.5370  210.1410  150.4890 C   0  0  0  0  0  0  0  0  0  0  0  0
  161.2780  206.0330  148.2000 C   0  0  0  0  0  0  0  0  0  0  0  0
  162.3710  208.8210  150.0640 C   0  0  0  0  0  3  0  0  0  0  0  0
  161.9230  204.0850  146.8260 C   0  0  2  0  0  3  0  0  0  0  0  0
  160.8400  208.1840  152.7020 C   0  0  0  0  0  2  0  0  0  0  0  0
  161.6150  202.6200  146.5560 C   0  0  0  0  0  2  0  0  0  0  0  0
  160.2590  206.0590  151.5700 C   0  0  0  0  0  2  0  0  0  0  0  0
  160.7530  204.6630  151.2280 C   0  0  1  0  0  3  0  0  0  0  0  0
  161.5040  210.9200  148.4390 C   0  0  0  0  0  3  0  0  0  0  0  0
  161.9390  208.9150  153.4540 C   0  0  1  0  0  3  0  0  0  0  0  0
  161.7620  208.5460  148.8390 C   0  0  0  0  0  0  0  0  0  0  0  0
  161.0870  203.8010  149.2000 C   0  0  1  0  0  3  0  0  0  0  0  0
  160.9760  204.6230  147.9060 C   0  0  1  0  0  3  0  0  0  0  0  0
  162.0760  210.3440  152.9300 C   0  0  0  0  0  2  0  0  0  0  0  0
  163.1300  210.4260  151.8290 C   0  0  0  0  0  2  0  0  0  0  0  0
  162.1020  211.1920  149.6750 C   0  0  0  0  0  3  0  0  0  0  0  0
  162.6940  205.7920  145.2520 C   0  0  0  0  0  3  0  0  0  0  0  0
  161.8770  205.7980  142.8940 C   0  0  2  0  0  3  0  0  0  0  0  0
  160.7710  204.5330  144.6370 O   0  0  0  0  0  0  0  0  0  0  0  0
  160.5480  205.2920  143.4470 C   0  0  0  0  0  2  0  0  0  0  0  0
  162.5800  206.5970  143.9910 C   0  0  0  0  0  2  0  0  0  0  0  0
  161.7940  204.8490  145.5460 C   0  0  0  0  0  0  0  0  0  0  0  0
  161.6350  206.6840  141.6850 C   0  0  0  0  0  3  0  0  0  0  0  0
  162.3160  206.0830  140.4710 C   0  0  0  0  0  2  0  0  0  0  0  0
  162.9560  207.2460  141.1990 C   0  0  0  0  0  2  0  0  0  0  0  0
  160.6200  207.9890  155.2740 O   0  0  0  0  0  1  0  0  0  0  0  0
  161.6570  208.8730  154.9600 C   0  0  2  0  0  3  0  0  0  0  0  0
  161.4170  210.2610  155.5580 C   0  0  0  0  0  2  0  0  0  0  0  0
  160.0370  210.4090  156.2030 C   0  0  1  0  0  3  0  0  0  0  0  0
  160.0800  211.3870  157.2000 O   0  0  0  0  0  1  0  0  0  0  0  0
  156.2730  212.6760  156.0300 N   0  0  0  0  0  0  0  0  0  0  0  0
  158.2220  211.6710  152.0190 O   0  0  0  0  0  1  0  0  0  0  0  0
  158.9340  210.6870  155.1550 C   0  0  1  0  0  0  0  0  0  0  0  0
  159.8510  212.9430  154.8220 O   0  0  0  0  0  1  0  0  0  0  0  0
  159.2840  211.8400  154.1710 C   0  0  2  0  0  3  0  0  0  0  0  0
  157.5330  212.0780  156.4070 C   0  0  0  0  0  2  0  0  0  0  0  0
  157.7050  213.7040  153.2060 C   0  0  1  0  0  3  0  0  0  0  0  0
  156.1770  213.6680  155.2110 C   0  0  0  0  0  3  0  0  0  0  0  0
  158.0720  212.2130  153.2960 C   0  0  1  0  0  3  0  0  0  0  0  0
  158.8520  209.5450  154.3760 F   0  0  0  0  0  0  0  0  0  0  0  0
  157.3670  214.3210  154.5680 C   0  0  0  0  0  2  0  0  0  0  0  0
  157.6620  210.8300  155.7740 O   0  0  0  0  0  0  0  0  0  0  0  0
  158.7600  214.4470  152.5600 N   0  0  0  0  0  0  0  0  0  0  0  0
  159.0380  214.2540  151.3230 C   0  0  0  0  0  2  0  0  0  0  0  0
  1 22  1  0  0  0  0
  2 16  1  0  0  0  0
  5  4  2  0  0  0  0
  6 17  1  6  0  0  0
  6 11  1  0  0  0  0
  7  6  1  0  0  0  0
  7  9  1  0  0  0  0
  8 19  1  0  0  0  0
  9  5  1  0  0  0  0
 10 20  2  0  0  0  0
 10 22  1  0  0  0  0
 11 23  1  0  0  0  0
 11  4  1  0  0  0  0
 12 26  1  0  0  0  0
 13  1  3  0  0  0  0
 14 12  1  0  0  0  0
 15 33  1  6  0  0  0
 15 24  1  0  0  0  0
 16 21  1  0  0  0  0
 17 15  1  0  0  0  0
 18  2  1  0  0  0  0
 19 18  1  0  0  0  0
 19  3  1  1  0  0  0
 20 27  1  0  0  0  0
 21 38  1  1  0  0  0
 22 14  2  0  0  0  0
 23  8  1  1  0  0  0
 24 13  1  1  0  0  0
 24 23  1  0  0  0  0
 25 21  1  0  0  0  0
 26 25  1  0  0  0  0
 27 12  2  0  0  0  0
 28 33  2  0  0  0  0
 29 34  1  6  0  0  0
 29 31  1  0  0  0  0
 29 32  1  0  0  0  0
 30 33  1  0  0  0  0
 31 30  1  0  0  0  0
 32 28  1  0  0  0  0
 35 36  1  0  0  0  0
 35 34  1  0  0  0  0
 36 34  1  0  0  0  0
 38 37  1  6  0  0  0
 38 39  1  0  0  0  0
 39 40  1  0  0  0  0
 40 41  1  1  0  0  0
 42 47  1  0  0  0  0
 44 51  1  6  0  0  0
 44 53  1  0  0  0  0
 44 40  1  0  0  0  0
 46 45  1  1  0  0  0
 46 44  1  0  0  0  0
 48 54  1  1  0  0  0
 48 50  1  0  0  0  0
 48 52  1  0  0  0  0
 49 42  2  0  0  0  0
 50 43  1  6  0  0  0
 50 46  1  0  0  0  0
 52 49  1  0  0  0  0
 53 47  1  0  0  0  0
 55 54  2  0  0  0  0
M  END
>  <MODEL>
1

>  <REMARK>
 VINA RESULT:       1.6      0.000      0.000
  Name = 
  7 active torsions:
  status: ('A' for Active; 'I' for Inactive)
    1  A    between atoms: C_6  and  C_20
    2  A    between atoms: C_8  and  C_22
    3  A    between atoms: C_8  and  C_43
    4  A    between atoms: C_10  and  C_32
    5  A    between atoms: N_11  and  C_29
    6  A    between atoms: C_20  and  C_22
    7  A    between atoms: C_33  and  C_52
                            x       y       z     vdW  Elec       q    Type
                         _______ _______ _______ _____ _____    ______ ____

>  <TORSDO>
F 7

$$$$
=
 OpenBabel11062408513D

 55 61  0  0  1  0  0  0  0  0999 V2000
  161.5070  207.0900  148.3790 C   0  0  0  0  0  0  0  0  0  0  0  0
  161.1720  206.6000  152.4530 C   0  0  0  0  0  2  0  0  0  0  0  0
  160.5040  203.6790  152.1840 O   0  0  0  0  0  1  0  0  0  0  0  0
  160.6130  201.3770  149.8610 C   0  0  0  0  0  3  0  0  0  0  0  0
  160.7610  200.0590  149.7490 C   0  0  0  0  0  3  0  0  0  0  0  0
  161.8430  201.7050  147.7030 C   0  0  2  0  0  3  0  0  0  0  0  0
  161.4190  200.2720  147.3880 C   0  0  0  0  0  2  0  0  0  0  0  0
  160.0860  204.0770  149.9760 O   0  0  0  0  0  0  0  0  0  0  0  0
  161.3020  199.5080  148.5850 O   0  0  0  0  0  0  0  0  0  0  0  0
  161.3090  209.5030  147.9470 C   0  0  0  0  0  3  0  0  0  0  0  0
  161.0360  202.2570  148.8060 N   0  0  0  0  0  0  0  0  0  0  0  0
  162.4890  210.0430  150.4270 C   0  0  0  0  0  0  0  0  0  0  0  0
  161.2880  205.9380  148.1030 C   0  0  0  0  0  0  0  0  0  0  0  0
  162.3390  208.7240  149.9930 C   0  0  0  0  0  3  0  0  0  0  0  0
  161.9630  204.0040  146.7240 C   0  0  2  0  0  3  0  0  0  0  0  0
  160.7870  208.0590  152.6120 C   0  0  0  0  0  2  0  0  0  0  0  0
  161.6700  202.5380  146.4420 C   0  0  0  0  0  2  0  0  0  0  0  0
  160.2360  205.9360  151.4620 C   0  0  0  0  0  2  0  0  0  0  0  0
  160.7450  204.5460  151.1170 C   0  0  1  0  0  3  0  0  0  0  0  0
  161.4690  210.8250  148.3720 C   0  0  0  0  0  3  0  0  0  0  0  0
  161.8730  208.7950  153.3780 C   0  0  1  0  0  3  0  0  0  0  0  0
  161.7440  208.4510  148.7600 C   0  0  0  0  0  0  0  0  0  0  0  0
  161.1060  203.6990  149.0870 C   0  0  1  0  0  3  0  0  0  0  0  0
  161.0010  204.5280  147.7970 C   0  0  1  0  0  3  0  0  0  0  0  0
  162.0030  210.2280  152.8640 C   0  0  0  0  0  2  0  0  0  0  0  0
  163.0660  210.3260  151.7740 C   0  0  0  0  0  2  0  0  0  0  0  0
  162.0530  211.0960  149.6150 C   0  0  0  0  0  3  0  0  0  0  0  0
  162.7620  205.6940  145.1440 C   0  0  0  0  0  3  0  0  0  0  0  0
  161.9180  205.7270  142.7950 C   0  0  2  0  0  3  0  0  0  0  0  0
  160.7980  204.4880  144.5490 O   0  0  0  0  0  0  0  0  0  0  0  0
  160.5810  205.2560  143.3640 C   0  0  0  0  0  2  0  0  0  0  0  0
  162.6550  206.5040  143.8860 C   0  0  0  0  0  2  0  0  0  0  0  0
  161.8400  204.7750  145.4460 C   0  0  0  0  0  0  0  0  0  0  0  0
  161.6850  206.6220  141.5920 C   0  0  0  0  0  3  0  0  0  0  0  0
  162.3160  205.9950  140.3640 C   0  0  0  0  0  2  0  0  0  0  0  0
  163.0170  207.1310  141.0770 C   0  0  0  0  0  2  0  0  0  0  0  0
  160.4980  207.9020  155.1730 O   0  0  0  0  0  1  0  0  0  0  0  0
  161.5770  208.7420  154.8820 C   0  0  2  0  0  3  0  0  0  0  0  0
  161.3960  210.1300  155.5010 C   0  0  0  0  0  2  0  0  0  0  0  0
  159.9640  210.4000  155.9650 C   0  0  1  0  0  3  0  0  0  0  0  0
  159.7810  209.9080  157.2610 O   0  0  0  0  0  1  0  0  0  0  0  0
  158.5620  213.1240  152.8100 N   0  0  0  0  0  0  0  0  0  0  0  0
  157.8120  214.4530  157.1190 O   0  0  0  0  0  1  0  0  0  0  0  0
  159.5890  211.8970  155.8490 C   0  0  1  0  0  0  0  0  0  0  0  0
  157.2110  211.2760  155.8260 O   0  0  0  0  0  1  0  0  0  0  0  0
  158.1360  212.2130  156.3040 C   0  0  2  0  0  3  0  0  0  0  0  0
  158.9840  211.9860  153.5930 C   0  0  0  0  0  2  0  0  0  0  0  0
  156.4150  213.8870  155.2380 C   0  0  1  0  0  3  0  0  0  0  0  0
  157.3990  213.6710  152.9260 C   0  0  0  0  0  3  0  0  0  0  0  0
  157.7510  213.6670  155.9680 C   0  0  1  0  0  3  0  0  0  0  0  0
  160.4120  212.5660  156.7410 F   0  0  0  0  0  0  0  0  0  0  0  0
  156.3500  213.1760  153.8810 C   0  0  0  0  0  2  0  0  0  0  0  0
  159.9100  212.4080  154.5620 O   0  0  0  0  0  0  0  0  0  0  0  0
  155.3090  213.4870  156.0740 N   0  0  0  0  0  0  0  0  0  0  0  0
  154.4730  214.3530  156.5170 C   0  0  0  0  0  2  0  0  0  0  0  0
  1 22  1  0  0  0  0
  2 16  1  0  0  0  0
  5  4  2  0  0  0  0
  6 17  1  6  0  0  0
  6 11  1  0  0  0  0
  7  6  1  0  0  0  0
  7  9  1  0  0  0  0
  8 19  1  0  0  0  0
  9  5  1  0  0  0  0
 10 20  2  0  0  0  0
 10 22  1  0  0  0  0
 11 23  1  0  0  0  0
 11  4  1  0  0  0  0
 12 26  1  0  0  0  0
 13  1  3  0  0  0  0
 14 12  1  0  0  0  0
 15 33  1  6  0  0  0
 15 24  1  0  0  0  0
 16 21  1  0  0  0  0
 17 15  1  0  0  0  0
 18  2  1  0  0  0  0
 19 18  1  0  0  0  0
 19  3  1  1  0  0  0
 20 27  1  0  0  0  0
 21 38  1  1  0  0  0
 22 14  2  0  0  0  0
 23  8  1  1  0  0  0
 24 13  1  1  0  0  0
 24 23  1  0  0  0  0
 25 21  1  0  0  0  0
 26 25  1  0  0  0  0
 27 12  2  0  0  0  0
 28 33  2  0  0  0  0
 29 34  1  6  0  0  0
 29 31  1  0  0  0  0
 29 32  1  0  0  0  0
 30 33  1  0  0  0  0
 31 30  1  0  0  0  0
 32 28  1  0  0  0  0
 35 36  1  0  0  0  0
 35 34  1  0  0  0  0
 36 34  1  0  0  0  0
 38 37  1  6  0  0  0
 38 39  1  0  0  0  0
 39 40  1  0  0  0  0
 40 41  1  1  0  0  0
 42 49  2  0  0  0  0
 42 47  1  0  0  0  0
 44 40  1  0  0  0  0
 44 46  1  0  0  0  0
 44 51  1  1  0  0  0
 46 45  1  6  0  0  0
 47 53  1  0  0  0  0
 48 50  1  0  0  0  0
 48 54  1  1  0  0  0
 49 52  1  0  0  0  0
 50 46  1  0  0  0  0
 50 43  1  1  0  0  0
 52 48  1  0  0  0  0
 53 44  1  0  0  0  0
 54 55  2  0  0  0  0
M  END
>  <MODEL>
2

>  <REMARK>
 VINA RESULT:       1.7      0.948      1.935
  Name = 
  7 active torsions:
  status: ('A' for Active; 'I' for Inactive)
    1  A    between atoms: C_6  and  C_20
    2  A    between atoms: C_8  and  C_22
    3  A    between atoms: C_8  and  C_43
    4  A    between atoms: C_10  and  C_32
    5  A    between atoms: N_11  and  C_29
    6  A    between atoms: C_20  and  C_22
    7  A    between atoms: C_33  and  C_52
                            x       y       z     vdW  Elec       q    Type
                         _______ _______ _______ _____ _____    ______ ____

>  <TORSDO>
F 7

$$$$
=
 OpenBabel11062408513D

 55 61  0  0  1  0  0  0  0  0999 V2000
  160.6960  210.3470  150.8810 C   0  0  0  0  0  0  0  0  0  0  0  0
  160.4770  210.6850  146.7840 C   0  0  0  0  0  2  0  0  0  0  0  0
  161.3530  207.8370  146.3660 O   0  0  0  0  0  1  0  0  0  0  0  0
  161.7180  205.1300  148.1670 C   0  0  0  0  0  3  0  0  0  0  0  0
  161.6680  203.8070  148.0250 C   0  0  0  0  0  3  0  0  0  0  0  0
  160.7900  204.9250  150.4850 C   0  0  2  0  0  3  0  0  0  0  0  0
  161.3410  203.5010  150.4450 C   0  0  0  0  0  2  0  0  0  0  0  0
  162.0560  207.8370  148.5370 O   0  0  0  0  0  0  0  0  0  0  0  0
  161.3320  202.9960  149.1120 O   0  0  0  0  0  0  0  0  0  0  0  0
  160.8060  212.6390  151.7660 C   0  0  0  0  0  3  0  0  0  0  0  0
  161.3950  205.7490  149.4240 N   0  0  0  0  0  0  0  0  0  0  0  0
  159.2530  213.5420  149.6190 C   0  0  0  0  0  0  0  0  0  0  0  0
  161.0220  209.1880  150.8870 C   0  0  0  0  0  0  0  0  0  0  0  0
  159.5450  212.1830  149.7530 C   0  0  0  0  0  3  0  0  0  0  0  0
  160.6700  206.9710  151.9180 C   0  0  2  0  0  3  0  0  0  0  0  0
  160.7450  212.1760  146.8780 C   0  0  0  0  0  2  0  0  0  0  0  0
  161.0890  205.5100  151.8560 C   0  0  0  0  0  2  0  0  0  0  0  0
  161.5830  209.9270  147.4920 C   0  0  0  0  0  2  0  0  0  0  0  0
  161.2140  208.4580  147.6090 C   0  0  1  0  0  3  0  0  0  0  0  0
  160.5060  213.9990  151.6430 C   0  0  0  0  0  3  0  0  0  0  0  0
  159.5180  212.9480  146.4220 C   0  0  1  0  0  3  0  0  0  0  0  0
  160.3240  211.7300  150.8180 C   0  0  0  0  0  0  0  0  0  0  0  0
  161.1980  207.2060  149.4530 C   0  0  1  0  0  3  0  0  0  0  0  0
  161.4360  207.7760  150.8600 C   0  0  1  0  0  3  0  0  0  0  0  0
  159.3760  214.2370  147.2290 C   0  0  0  0  0  2  0  0  0  0  0  0
  158.4750  214.0280  148.4420 C   0  0  0  0  0  2  0  0  0  0  0  0
  159.7370  214.4520  150.5660 C   0  0  0  0  0  3  0  0  0  0  0  0
  161.4190  208.7210  153.4560 C   0  0  0  0  0  3  0  0  0  0  0  0
  160.7960  208.6330  155.8710 C   0  0  2  0  0  3  0  0  0  0  0  0
  160.5930  206.7070  154.4170 O   0  0  0  0  0  0  0  0  0  0  0  0
  160.9040  207.1150  155.7510 C   0  0  0  0  0  2  0  0  0  0  0  0
  161.7150  209.2620  154.8240 C   0  0  0  0  0  2  0  0  0  0  0  0
  160.9270  207.4890  153.2990 C   0  0  0  0  0  0  0  0  0  0  0  0
  161.2180  209.0760  157.2610 C   0  0  0  0  0  3  0  0  0  0  0  0
  161.6900  210.5150  157.2120 C   0  0  0  0  0  2  0  0  0  0  0  0
  162.7010  209.3900  157.2610 C   0  0  0  0  0  2  0  0  0  0  0  0
  158.3410  213.1790  144.3070 O   0  0  0  0  0  1  0  0  0  0  0  0
  159.6000  213.2120  144.9140 C   0  0  2  0  0  3  0  0  0  0  0  0
  160.5960  212.2930  144.2030 C   0  0  0  0  0  2  0  0  0  0  0  0
  161.4320  213.0140  143.1440 C   0  0  1  0  0  3  0  0  0  0  0  0
  162.7660  213.0820  143.5550 O   0  0  0  0  0  1  0  0  0  0  0  0
  159.5950  214.0810  139.2930 N   0  0  0  0  0  0  0  0  0  0  0  0
  162.8260  210.8490  139.1740 O   0  0  0  0  0  1  0  0  0  0  0  0
  161.2820  212.3670  141.7460 C   0  0  1  0  0  0  0  0  0  0  0  0
  163.0230  213.8740  140.8880 O   0  0  0  0  0  1  0  0  0  0  0  0
  162.5220  212.5680  140.8300 C   0  0  2  0  0  3  0  0  0  0  0  0
  160.1000  214.0580  140.6460 C   0  0  0  0  0  2  0  0  0  0  0  0
  162.5890  213.0630  138.2520 C   0  0  1  0  0  3  0  0  0  0  0  0
  160.3510  214.2250  138.2580 C   0  0  0  0  0  3  0  0  0  0  0  0
  162.2340  212.0940  139.3920 C   0  0  1  0  0  3  0  0  0  0  0  0
  161.1970  211.0020  141.9660 F   0  0  0  0  0  0  0  0  0  0  0  0
  161.8410  214.3980  138.3450 C   0  0  0  0  0  2  0  0  0  0  0  0
  160.0530  212.7420  141.1370 O   0  0  0  0  0  0  0  0  0  0  0  0
  164.0150  213.2820  138.1980 N   0  0  0  0  0  0  0  0  0  0  0  0
  164.4930  214.3870  137.7570 C   0  0  0  0  0  2  0  0  0  0  0  0
  1 13  3  0  0  0  0
  2 16  1  0  0  0  0
  2 18  1  0  0  0  0
  4 11  1  0  0  0  0
  5  4  2  0  0  0  0
  5  9  1  0  0  0  0
  6  7  1  1  0  0  0
  6 17  1  0  0  0  0
  9  7  1  0  0  0  0
 11 23  1  0  0  0  0
 11  6  1  0  0  0  0
 12 14  2  0  0  0  0
 12 27  1  0  0  0  0
 14 22  1  0  0  0  0
 15 33  1  1  0  0  0
 17 15  1  0  0  0  0
 18 19  1  0  0  0  0
 19  3  1  6  0  0  0
 19  8  1  0  0  0  0
 20 10  1  0  0  0  0
 21 38  1  6  0  0  0
 21 16  1  0  0  0  0
 21 25  1  0  0  0  0
 22  1  1  0  0  0  0
 22 10  2  0  0  0  0
 23  8  1  6  0  0  0
 23 24  1  0  0  0  0
 24 13  1  6  0  0  0
 24 15  1  0  0  0  0
 25 26  1  0  0  0  0
 26 12  1  0  0  0  0
 27 20  2  0  0  0  0
 28 32  1  0  0  0  0
 29 34  1  1  0  0  0
 30 31  1  0  0  0  0
 31 29  1  0  0  0  0
 32 29  1  0  0  0  0
 33 28  2  0  0  0  0
 33 30  1  0  0  0  0
 35 36  1  0  0  0  0
 35 34  1  0  0  0  0
 36 34  1  0  0  0  0
 38 37  1  6  0  0  0
 39 38  1  0  0  0  0
 40 41  1  1  0  0  0
 40 39  1  0  0  0  0
 42 47  1  0  0  0  0
 44 51  1  1  0  0  0
 44 40  1  0  0  0  0
 46 45  1  6  0  0  0
 46 44  1  0  0  0  0
 47 53  1  0  0  0  0
 48 54  1  1  0  0  0
 48 52  1  0  0  0  0
 48 50  1  0  0  0  0
 49 52  1  0  0  0  0
 49 42  2  0  0  0  0
 50 43  1  6  0  0  0
 50 46  1  0  0  0  0
 53 44  1  0  0  0  0
 55 54  2  0  0  0  0
M  END
>  <MODEL>
3

>  <REMARK>
 VINA RESULT:       2.7      5.362     10.669
  Name = 
  7 active torsions:
  status: ('A' for Active; 'I' for Inactive)
    1  A    between atoms: C_6  and  C_20
    2  A    between atoms: C_8  and  C_22
    3  A    between atoms: C_8  and  C_43
    4  A    between atoms: C_10  and  C_32
    5  A    between atoms: N_11  and  C_29
    6  A    between atoms: C_20  and  C_22
    7  A    between atoms: C_33  and  C_52
                            x       y       z     vdW  Elec       q    Type
                         _______ _______ _______ _____ _____    ______ ____

>  <TORSDO>
F 7

$$$$
=
 OpenBabel11062408513D

 55 61  0  0  1  0  0  0  0  0999 V2000
  160.6610  210.3470  150.9540 C   0  0  0  0  0  0  0  0  0  0  0  0
  160.5140  210.7120  146.8550 C   0  0  0  0  0  2  0  0  0  0  0  0
  161.4000  207.8680  146.4340 O   0  0  0  0  0  1  0  0  0  0  0  0
  161.7350  205.1490  148.2220 C   0  0  0  0  0  3  0  0  0  0  0  0
  161.6880  203.8270  148.0710 C   0  0  0  0  0  3  0  0  0  0  0  0
  160.7660  204.9280  150.5220 C   0  0  2  0  0  3  0  0  0  0  0  0
  161.3190  203.5040  150.4820 C   0  0  0  0  0  2  0  0  0  0  0  0
  162.0640  207.8540  148.6170 O   0  0  0  0  0  0  0  0  0  0  0  0
  161.3340  203.0090  149.1460 O   0  0  0  0  0  0  0  0  0  0  0  0
  160.7540  212.6320  151.8560 C   0  0  0  0  0  3  0  0  0  0  0  0
  161.3900  205.7590  149.4780 N   0  0  0  0  0  0  0  0  0  0  0  0
  159.2380  213.5490  149.6880 C   0  0  0  0  0  0  0  0  0  0  0  0
  160.9880  209.1870  150.9580 C   0  0  0  0  0  0  0  0  0  0  0  0
  159.5280  212.1890  149.8180 C   0  0  0  0  0  3  0  0  0  0  0  0
  160.6190  206.9640  151.9670 C   0  0  2  0  0  3  0  0  0  0  0  0
  160.7790  212.2030  146.9650 C   0  0  0  0  0  2  0  0  0  0  0  0
  161.0410  205.5030  151.9030 C   0  0  0  0  0  2  0  0  0  0  0  0
  161.6080  209.9500  147.5780 C   0  0  0  0  0  2  0  0  0  0  0  0
  161.2380  208.4800  147.6780 C   0  0  1  0  0  3  0  0  0  0  0  0
  160.4550  213.9930  151.7380 C   0  0  0  0  0  3  0  0  0  0  0  0
  159.5590  212.9770  146.4920 C   0  0  1  0  0  3  0  0  0  0  0  0
  160.2890  211.7300  150.8940 C   0  0  0  0  0  0  0  0  0  0  0  0
  161.1910  207.2160  149.5130 C   0  0  1  0  0  3  0  0  0  0  0  0
  161.4030  207.7760  150.9290 C   0  0  1  0  0  3  0  0  0  0  0  0
  159.4020  214.2600  147.3060 C   0  0  0  0  0  2  0  0  0  0  0  0
  158.4800  214.0420  148.5010 C   0  0  0  0  0  2  0  0  0  0  0  0
  159.7040  214.4530  150.6500 C   0  0  0  0  0  3  0  0  0  0  0  0
  160.8280  206.6140  154.3800 C   0  0  0  0  0  3  0  0  0  0  0  0
  161.9020  208.3470  155.8200 C   0  0  2  0  0  3  0  0  0  0  0  0
  161.1510  208.8270  153.5690 O   0  0  0  0  0  0  0  0  0  0  0  0
  161.2880  209.3800  154.8790 C   0  0  0  0  0  2  0  0  0  0  0  0
  161.0290  207.0920  155.7880 C   0  0  0  0  0  2  0  0  0  0  0  0
  160.8510  207.4720  153.3560 C   0  0  0  0  0  0  0  0  0  0  0  0
  161.9600  208.8990  157.2330 C   0  0  0  0  0  3  0  0  0  0  0  0
  161.3510  210.2870  157.2610 C   0  0  0  0  0  2  0  0  0  0  0  0
  162.8550  210.1220  157.2590 C   0  0  0  0  0  2  0  0  0  0  0  0
  158.6990  212.5570  144.2570 O   0  0  0  0  0  1  0  0  0  0  0  0
  159.6680  213.2520  144.9880 C   0  0  2  0  0  3  0  0  0  0  0  0
  161.0750  213.0050  144.4390 C   0  0  0  0  0  2  0  0  0  0  0  0
  161.0830  212.1950  143.1420 C   0  0  1  0  0  3  0  0  0  0  0  0
  160.0970  211.2040  143.1930 O   0  0  0  0  0  1  0  0  0  0  0  0
  163.3070  212.8770  139.4100 N   0  0  0  0  0  0  0  0  0  0  0  0
  158.9300  214.1970  139.4340 O   0  0  0  0  0  1  0  0  0  0  0  0
  160.9430  213.0970  141.8920 C   0  0  1  0  0  0  0  0  0  0  0  0
  160.1540  211.1560  140.6080 O   0  0  0  0  0  1  0  0  0  0  0  0
  159.9730  212.5280  140.8180 C   0  0  2  0  0  3  0  0  0  0  0  0
  162.8160  212.3980  140.6810 C   0  0  0  0  0  2  0  0  0  0  0  0
  160.2180  212.5740  138.2040 C   0  0  1  0  0  3  0  0  0  0  0  0
  162.7390  212.6050  138.2840 C   0  0  0  0  0  3  0  0  0  0  0  0
  160.0380  213.3520  139.5180 C   0  0  1  0  0  3  0  0  0  0  0  0
  160.3600  214.2730  142.3350 F   0  0  0  0  0  0  0  0  0  0  0  0
  161.5100  211.7480  138.1690 C   0  0  0  0  0  2  0  0  0  0  0  0
  162.2170  213.4610  141.3780 O   0  0  0  0  0  0  0  0  0  0  0  0
  159.0720  211.7340  137.9500 N   0  0  0  0  0  0  0  0  0  0  0  0
  159.2190  210.5110  137.5930 C   0  0  0  0  0  2  0  0  0  0  0  0
  1 13  3  0  0  0  0
  2 16  1  0  0  0  0
  2 18  1  0  0  0  0
  4 11  1  0  0  0  0
  5  4  2  0  0  0  0
  5  9  1  0  0  0  0
  6  7  1  1  0  0  0
  6 17  1  0  0  0  0
  9  7  1  0  0  0  0
 11 23  1  0  0  0  0
 11  6  1  0  0  0  0
 12 14  2  0  0  0  0
 12 27  1  0  0  0  0
 14 22  1  0  0  0  0
 15 33  1  1  0  0  0
 17 15  1  0  0  0  0
 18 19  1  0  0  0  0
 19  3  1  6  0  0  0
 19  8  1  0  0  0  0
 20 10  1  0  0  0  0
 21 38  1  6  0  0  0
 21 16  1  0  0  0  0
 21 25  1  0  0  0  0
 22  1  1  0  0  0  0
 22 10  2  0  0  0  0
 23  8  1  6  0  0  0
 23 24  1  0  0  0  0
 24 13  1  6  0  0  0
 24 15  1  0  0  0  0
 25 26  1  0  0  0  0
 26 12  1  0  0  0  0
 27 20  2  0  0  0  0
 28 32  1  0  0  0  0
 29 34  1  1  0  0  0
 30 31  1  0  0  0  0
 31 29  1  0  0  0  0
 32 29  1  0  0  0  0
 33 30  1  0  0  0  0
 33 28  2  0  0  0  0
 34 36  1  0  0  0  0
 34 35  1  0  0  0  0
 36 35  1  0  0  0  0
 38 37  1  6  0  0  0
 39 38  1  0  0  0  0
 40 41  1  1  0  0  0
 40 39  1  0  0  0  0
 42 47  1  0  0  0  0
 44 51  1  1  0  0  0
 44 40  1  0  0  0  0
 46 45  1  6  0  0  0
 46 44  1  0  0  0  0
 47 53  1  0  0  0  0
 48 54  1  1  0  0  0
 48 50  1  0  0  0  0
 49 42  2  0  0  0  0
 50 43  1  6  0  0  0
 50 46  1  0  0  0  0
 52 48  1  0  0  0  0
 52 49  1  0  0  0  0
 53 44  1  0  0  0  0
 55 54  2  0  0  0  0
M  END
>  <MODEL>
4

>  <REMARK>
 VINA RESULT:       3.2      5.222     10.682
  Name = 
  7 active torsions:
  status: ('A' for Active; 'I' for Inactive)
    1  A    between atoms: C_6  and  C_20
    2  A    between atoms: C_8  and  C_22
    3  A    between atoms: C_8  and  C_43
    4  A    between atoms: C_10  and  C_32
    5  A    between atoms: N_11  and  C_29
    6  A    between atoms: C_20  and  C_22
    7  A    between atoms: C_33  and  C_52
                            x       y       z     vdW  Elec       q    Type
                         _______ _______ _______ _____ _____    ______ ____

>  <TORSDO>
F 7

$$$$
=
 OpenBabel11062408513D

 55 61  0  0  1  0  0  0  0  0999 V2000
  161.3580  208.8200  149.9830 C   0  0  0  0  0  0  0  0  0  0  0  0
  160.8810  205.4700  152.3290 C   0  0  0  0  0  2  0  0  0  0  0  0
  160.6240  207.1010  154.8440 O   0  0  0  0  0  1  0  0  0  0  0  0
  160.1560  210.2360  155.6560 C   0  0  0  0  0  3  0  0  0  0  0  0
  159.6170  210.9570  156.6370 C   0  0  0  0  0  3  0  0  0  0  0  0
  159.4450  211.9640  153.9860 C   0  0  2  0  0  3  0  0  0  0  0  0
  159.4380  212.9260  155.1720 C   0  0  0  0  0  2  0  0  0  0  0  0
  161.4850  208.8620  153.6740 O   0  0  0  0  0  0  0  0  0  0  0  0
  159.1180  212.2360  156.3770 O   0  0  0  0  0  0  0  0  0  0  0  0
  162.3750  208.0590  147.8770 C   0  0  0  0  0  3  0  0  0  0  0  0
  160.2020  210.7420  154.3110 N   0  0  0  0  0  0  0  0  0  0  0  0
  161.0540  205.6030  148.1280 C   0  0  0  0  0  0  0  0  0  0  0  0
  161.2420  209.6120  150.8830 C   0  0  0  0  0  0  0  0  0  0  0  0
  160.8450  206.6130  149.0700 C   0  0  0  0  0  3  0  0  0  0  0  0
  160.2130  211.7340  151.6170 C   0  0  2  0  0  3  0  0  0  0  0  0
  161.6780  204.6440  151.3360 C   0  0  0  0  0  2  0  0  0  0  0  0
  160.0670  212.6810  152.7980 C   0  0  0  0  0  2  0  0  0  0  0  0
  161.7010  206.6700  152.7610 C   0  0  0  0  0  2  0  0  0  0  0  0
  160.8390  207.6260  153.5680 C   0  0  1  0  0  3  0  0  0  0  0  0
  162.5770  207.0560  146.9240 C   0  0  0  0  0  3  0  0  0  0  0  0
  160.7760  203.6050  150.6920 C   0  0  1  0  0  3  0  0  0  0  0  0
  161.5080  207.8360  148.9520 C   0  0  0  0  0  0  0  0  0  0  0  0
  160.5500  209.8090  153.2280 C   0  0  1  0  0  3  0  0  0  0  0  0
  161.1120  210.5540  152.0060 C   0  0  1  0  0  3  0  0  0  0  0  0
  161.1880  203.3770  149.2390 C   0  0  0  0  0  2  0  0  0  0  0  0
  160.3940  204.2750  148.2950 C   0  0  0  0  0  2  0  0  0  0  0  0
  161.9230  205.8250  147.0530 C   0  0  0  0  0  3  0  0  0  0  0  0
  161.8680  212.0400  149.8390 C   0  0  0  0  0  3  0  0  0  0  0  0
  161.4040  213.5820  147.9330 C   0  0  2  0  0  3  0  0  0  0  0  0
  160.1120  213.6400  149.9800 O   0  0  0  0  0  0  0  0  0  0  0  0
  160.6530  214.4530  148.9370 C   0  0  0  0  0  2  0  0  0  0  0  0
  162.4710  212.7910  148.6890 C   0  0  0  0  0  2  0  0  0  0  0  0
  160.7720  212.4950  150.4550 C   0  0  0  0  0  0  0  0  0  0  0  0
  162.0590  214.4530  146.8770 C   0  0  0  0  0  3  0  0  0  0  0  0
  161.2530  214.3890  145.5950 C   0  0  0  0  0  2  0  0  0  0  0  0
  162.5270  213.5840  145.7260 C   0  0  0  0  0  2  0  0  0  0  0  0
  161.1840  202.5400  152.8390 O   0  0  0  0  0  1  0  0  0  0  0  0
  160.8020  202.3110  151.5140 C   0  0  2  0  0  3  0  0  0  0  0  0
  161.6450  201.2120  150.8640 C   0  0  0  0  0  2  0  0  0  0  0  0
  160.9180  200.4860  149.7300 C   0  0  1  0  0  3  0  0  0  0  0  0
  159.5480  200.7570  149.7920 O   0  0  0  0  0  1  0  0  0  0  0  0
  161.5880  198.3840  145.9260 N   0  0  0  0  0  0  0  0  0  0  0  0
  161.5630  202.9520  145.7440 O   0  0  0  0  0  1  0  0  0  0  0  0
  161.5200  200.8220  148.3450 C   0  0  1  0  0  0  0  0  0  0  0  0
  159.2480  200.9600  147.4170 O   0  0  0  0  0  1  0  0  0  0  0  0
  160.5230  201.5370  147.3890 C   0  0  2  0  0  3  0  0  0  0  0  0
  161.2050  198.7740  147.2630 C   0  0  0  0  0  2  0  0  0  0  0  0
  160.2040  201.1970  144.8050 C   0  0  1  0  0  3  0  0  0  0  0  0
  160.9800  198.7980  144.8670 C   0  0  0  0  0  3  0  0  0  0  0  0
  161.1030  201.6530  145.9660 C   0  0  1  0  0  3  0  0  0  0  0  0
  162.5320  201.7370  148.5820 F   0  0  0  0  0  0  0  0  0  0  0  0
  159.7960  199.7230  144.9060 C   0  0  0  0  0  2  0  0  0  0  0  0
  162.1480  199.6840  147.7700 O   0  0  0  0  0  0  0  0  0  0  0  0
  159.0380  202.0410  144.7050 N   0  0  0  0  0  0  0  0  0  0  0  0
  159.1310  203.2420  144.2670 C   0  0  0  0  0  2  0  0  0  0  0  0
  1 13  3  0  0  0  0
  2 18  1  0  0  0  0
  4  5  2  0  0  0  0
  6 17  1  6  0  0  0
  6 11  1  0  0  0  0
  6  7  1  0  0  0  0
  7  9  1  0  0  0  0
  9  5  1  0  0  0  0
 10 22  1  0  0  0  0
 11  4  1  0  0  0  0
 12 26  1  0  0  0  0
 12 14  1  0  0  0  0
 15 33  1  6  0  0  0
 15 24  1  0  0  0  0
 15 17  1  0  0  0  0
 16  2  1  0  0  0  0
 18 19  1  0  0  0  0
 19  8  1  0  0  0  0
 19  3  1  1  0  0  0
 20 27  1  0  0  0  0
 20 10  2  0  0  0  0
 21 16  1  0  0  0  0
 21 38  1  1  0  0  0
 22 14  2  0  0  0  0
 22  1  1  0  0  0  0
 23  8  1  1  0  0  0
 23 11  1  0  0  0  0
 24 13  1  6  0  0  0
 24 23  1  0  0  0  0
 25 21  1  0  0  0  0
 26 25  1  0  0  0  0
 27 12  2  0  0  0  0
 28 33  2  0  0  0  0
 29 34  1  6  0  0  0
 29 32  1  0  0  0  0
 29 31  1  0  0  0  0
 30 33  1  0  0  0  0
 31 30  1  0  0  0  0
 32 28  1  0  0  0  0
 35 36  1  0  0  0  0
 35 34  1  0  0  0  0
 36 34  1  0  0  0  0
 38 37  1  1  0  0  0
 39 38  1  0  0  0  0
 40 41  1  6  0  0  0
 40 39  1  0  0  0  0
 42 47  1  0  0  0  0
 44 51  1  1  0  0  0
 44 40  1  0  0  0  0
 46 45  1  6  0  0  0
 46 44  1  0  0  0  0
 47 53  1  0  0  0  0
 48 54  1  1  0  0  0
 48 52  1  0  0  0  0
 48 50  1  0  0  0  0
 49 52  1  0  0  0  0
 49 42  2  0  0  0  0
 50 43  1  6  0  0  0
 50 46  1  0  0  0  0
 53 44  1  0  0  0  0
 55 54  2  0  0  0  0
M  END
>  <MODEL>
5

>  <REMARK>
 VINA RESULT:       3.8      2.772     10.391
  Name = 
  7 active torsions:
  status: ('A' for Active; 'I' for Inactive)
    1  A    between atoms: C_6  and  C_20
    2  A    between atoms: C_8  and  C_22
    3  A    between atoms: C_8  and  C_43
    4  A    between atoms: C_10  and  C_32
    5  A    between atoms: N_11  and  C_29
    6  A    between atoms: C_20  and  C_22
    7  A    between atoms: C_33  and  C_52
                            x       y       z     vdW  Elec       q    Type
                         _______ _______ _______ _____ _____    ______ ____

>  <TORSDO>
F 7

$$$$
