=
 OpenBabel11062408283D

 32 37  0  0  1  0  0  0  0  0999 V2000
  161.5060  208.4870  150.9560 C   0  0  0  0  0  0  0  0  0  0  0  0
  161.1320  206.4670  149.6420 C   0  0  0  0  0  0  0  0  0  0  0  0
  161.9140  209.7620  150.9830 C   0  0  0  0  0  3  0  0  0  0  0  0
  161.3950  207.7840  149.6620 C   0  0  0  0  0  0  0  0  0  0  0  0
  160.9030  205.7530  148.3310 C   0  0  2  0  0  3  0  0  0  0  0  0
  160.8860  201.9780  151.9230 C   0  0  0  0  0  2  0  0  0  0  0  0
  160.9170  205.7130  150.9000 C   0  0  0  0  0  0  0  0  0  0  0  0
  161.2630  202.2490  149.4910 O   0  0  0  0  0  0  0  0  0  0  0  0
  161.0130  203.6220  149.5210 C   0  0  0  0  0  0  0  0  0  0  0  0
  161.4970  208.5500  148.3660 C   0  0  2  0  0  3  0  0  0  0  0  0
  161.1880  204.3230  148.4400 N   0  0  0  0  0  0  0  0  0  0  0  0
  162.2910  207.7340  147.3540 C   0  0  0  0  0  2  0  0  0  0  0  0
  162.1080  209.9150  148.5410 C   0  0  0  0  0  3  0  0  0  0  0  0
  160.9250  206.3540  152.0780 C   0  0  0  0  0  3  0  0  0  0  0  0
  161.2160  207.7610  152.1640 N   0  0  0  0  0  0  0  0  0  0  0  0
  160.5720  204.2440  150.8260 C   0  0  1  0  0  3  0  0  0  0  0  0
  161.6630  206.3470  147.1260 C   0  0  2  0  0  3  0  0  0  0  0  0
  162.2680  210.4790  149.7430 C   0  0  0  0  0  3  0  0  0  0  0  0
  160.7690  201.3800  150.5110 C   0  0  0  0  0  2  0  0  0  0  0  0
  161.2610  203.4610  151.9460 C   0  0  0  0  0  2  0  0  0  0  0  0
  159.8040  208.0790  155.5600 C   0  0  1  0  0  3  0  0  0  0  0  0
  161.3320  211.3340  156.7020 N   0  0  0  0  0  1  0  0  0  0  0  0
  159.2210  207.0300  156.4890 C   0  0  0  0  0  1  0  0  0  0  0  0
  160.8930  210.6090  154.5170 N   0  0  0  0  0  0  0  0  0  0  0  0
  161.2500  208.4180  153.4700 C   0  0  1  0  0  3  0  0  0  0  0  0
  160.4020  209.1250  156.3180 O   0  0  0  0  0  0  0  0  0  0  0  0
  160.4610  209.7280  153.4380 C   0  0  0  0  0  2  0  0  0  0  0  0
  160.7980  207.4520  154.5720 C   0  0  1  0  0  3  0  0  0  0  0  0
  162.0190  206.8780  155.2750 C   0  0  0  0  0  1  0  0  0  0  0  0
  160.8610  210.3460  155.7930 C   0  0  0  0  0  0  0  0  0  0  0  0
  160.7920  206.3380  145.8760 C   0  0  0  0  0  2  0  0  0  0  0  0
  161.4090  205.6220  144.8480 O   0  0  0  0  0  1  0  0  0  0  0  0
  1  3  2  0  0  0  0
  1 15  1  0  0  0  0
  2  4  2  0  0  0  0
  2  7  1  0  0  0  0
  4  1  1  0  0  0  0
  5 11  1  1  0  0  0
  5  2  1  0  0  0  0
  6 20  1  0  0  0  0
  7 14  2  0  0  0  0
  8  9  1  0  0  0  0
  8 19  1  0  0  0  0
  9 16  1  0  0  0  0
 10 12  1  6  0  0  0
 10 13  1  0  0  0  0
 10  4  1  0  0  0  0
 11  9  2  0  0  0  0
 13 18  2  0  0  0  0
 14 15  1  0  0  0  0
 16  7  1  0  0  0  0
 16 20  1  1  0  0  0
 17 31  1  6  0  0  0
 17 12  1  0  0  0  0
 17  5  1  0  0  0  0
 18  3  1  0  0  0  0
 19  6  1  0  0  0  0
 21 26  1  0  0  0  0
 21 23  1  1  0  0  0
 24 30  2  0  0  0  0
 25 15  1  6  0  0  0
 25 28  1  0  0  0  0
 27 25  1  0  0  0  0
 27 24  1  0  0  0  0
 28 29  1  1  0  0  0
 28 21  1  0  0  0  0
 30 26  1  0  0  0  0
 30 22  1  0  0  0  0
 32 31  1  0  0  0  0
M  END
>  <MODEL>
1

>  <REMARK>
 VINA RESULT:      -7.9      0.000      0.000
  Name = 
  2 active torsions:
  status: ('A' for Active; 'I' for Inactive)
    1  A    between atoms: C_13  and  C_29
    2  A    between atoms: C_16  and  N_27
                            x       y       z     vdW  Elec       q    Type
                         _______ _______ _______ _____ _____    ______ ____

>  <TORSDO>
F 2

$$$$
=
 OpenBabel11062408283D

 32 37  0  0  1  0  0  0  0  0999 V2000
  161.2320  204.4750  150.3690 C   0  0  1  0  0  3  0  0  0  0  0  0
  161.1510  206.7800  151.1610 C   0  0  0  0  0  0  0  0  0  0  0  0
  161.3150  203.1740  150.6750 C   0  0  0  0  0  3  0  0  0  0  0  0
  161.0850  205.4710  151.4500 C   0  0  0  0  0  0  0  0  0  0  0  0
  160.8920  207.8150  152.2300 C   0  0  2  0  0  3  0  0  0  0  0  0
  162.3810  210.5600  148.0590 C   0  0  0  0  0  2  0  0  0  0  0  0
  161.3350  207.2450  149.7650 C   0  0  0  0  0  0  0  0  0  0  0  0
  162.2790  210.7990  150.5220 O   0  0  0  0  0  0  0  0  0  0  0  0
  161.7110  209.5370  150.7040 C   0  0  0  0  0  0  0  0  0  0  0  0
  160.7850  205.0270  152.8610 C   0  0  0  0  0  0  0  0  0  0  0  0
  161.5310  209.0910  151.9120 N   0  0  0  0  0  0  0  0  0  0  0  0
  161.5780  205.8810  153.8420 C   0  0  0  0  0  2  0  0  0  0  0  0
  161.0660  203.5650  153.0850 C   0  0  0  0  0  3  0  0  0  0  0  0
  161.3780  206.3560  148.7610 C   0  0  0  0  0  3  0  0  0  0  0  0
  161.3270  204.9390  149.0100 N   0  0  0  0  0  0  0  0  0  0  0  0
  161.3500  208.7280  149.4790 C   0  0  1  0  0  3  0  0  0  0  0  0
  161.2780  207.3800  153.6610 C   0  0  2  0  0  3  0  0  0  0  0  0
  161.2770  202.7140  152.0760 C   0  0  0  0  0  3  0  0  0  0  0  0
  162.1840  211.4850  149.2730 C   0  0  0  0  0  2  0  0  0  0  0  0
  162.3830  209.0690  148.4020 C   0  0  0  0  0  2  0  0  0  0  0  0
  160.8090  204.2760  145.4170 C   0  0  1  0  0  3  0  0  0  0  0  0
  161.0900  200.5150  145.3040 N   0  0  0  0  0  1  0  0  0  0  0  0
  160.9640  205.1860  144.2120 C   0  0  0  0  0  1  0  0  0  0  0  0
  160.4580  201.8830  147.0980 N   0  0  0  0  0  0  0  0  0  0  0  0
  161.4130  204.0000  147.8930 C   0  0  1  0  0  3  0  0  0  0  0  0
  161.0910  202.9290  145.0510 O   0  0  0  0  0  0  0  0  0  0  0  0
  160.1740  203.1060  147.8410 C   0  0  0  0  0  2  0  0  0  0  0  0
  161.6920  204.7450  146.5820 C   0  0  1  0  0  3  0  0  0  0  0  0
  163.1740  204.6530  146.2510 C   0  0  0  0  0  1  0  0  0  0  0  0
  160.8580  201.8040  145.8600 C   0  0  0  0  0  0  0  0  0  0  0  0
  160.2440  207.8590  154.6710 C   0  0  0  0  0  2  0  0  0  0  0  0
  160.2310  207.0340  155.7970 O   0  0  0  0  0  1  0  0  0  0  0  0
  1  3  1  1  0  0  0
  1  4  1  0  0  0  0
  2  4  2  0  0  0  0
  3 18  2  0  0  0  0
  4 10  1  0  0  0  0
  5  2  1  6  0  0  0
  5 17  1  0  0  0  0
  6 20  1  0  0  0  0
  6 19  1  0  0  0  0
  7  2  1  0  0  0  0
  8  9  1  0  0  0  0
  9 11  2  0  0  0  0
 10 13  2  0  0  0  0
 10 12  1  0  0  0  0
 11  5  1  0  0  0  0
 14 15  1  0  0  0  0
 14  7  2  0  0  0  0
 15  1  1  0  0  0  0
 16 20  1  6  0  0  0
 16  7  1  0  0  0  0
 16  9  1  0  0  0  0
 17 12  1  0  0  0  0
 17 31  1  1  0  0  0
 18 13  1  0  0  0  0
 19  8  1  0  0  0  0
 21 23  1  6  0  0  0
 21 28  1  0  0  0  0
 22 30  1  0  0  0  0
 24 27  1  0  0  0  0
 25 27  1  6  0  0  0
 25 15  1  0  0  0  0
 26 21  1  0  0  0  0
 26 30  1  0  0  0  0
 28 29  1  6  0  0  0
 28 25  1  0  0  0  0
 30 24  2  0  0  0  0
 31 32  1  0  0  0  0
M  END
>  <MODEL>
2

>  <REMARK>
 VINA RESULT:      -7.6      2.151      8.417
  Name = 
  2 active torsions:
  status: ('A' for Active; 'I' for Inactive)
    1  A    between atoms: C_13  and  C_29
    2  A    between atoms: C_16  and  N_27
                            x       y       z     vdW  Elec       q    Type
                         _______ _______ _______ _____ _____    ______ ____

>  <TORSDO>
F 2

$$$$
=
 OpenBabel11062408283D

 32 37  0  0  1  0  0  0  0  0999 V2000
  161.6520  208.6640  151.0850 C   0  0  0  0  0  0  0  0  0  0  0  0
  161.1600  206.6460  149.8060 C   0  0  0  0  0  0  0  0  0  0  0  0
  162.0740  209.9350  151.0790 C   0  0  0  0  0  3  0  0  0  0  0  0
  161.4380  207.9600  149.8040 C   0  0  0  0  0  0  0  0  0  0  0  0
  160.8290  205.9320  148.5180 C   0  0  2  0  0  3  0  0  0  0  0  0
  161.0320  202.1640  152.1110 C   0  0  0  0  0  2  0  0  0  0  0  0
  161.0300  205.8960  151.0790 C   0  0  0  0  0  0  0  0  0  0  0  0
  161.2340  202.4270  149.6570 O   0  0  0  0  0  0  0  0  0  0  0  0
  161.0020  203.8020  149.7020 C   0  0  0  0  0  0  0  0  0  0  0  0
  161.4550  208.7230  148.5020 C   0  0  2  0  0  3  0  0  0  0  0  0
  161.1050  204.4990  148.6090 N   0  0  0  0  0  0  0  0  0  0  0  0
  162.1640  207.8960  147.4380 C   0  0  0  0  0  2  0  0  0  0  0  0
  162.0920  210.0810  148.6290 C   0  0  0  0  0  3  0  0  0  0  0  0
  161.1300  206.5400  152.2520 C   0  0  0  0  0  3  0  0  0  0  0  0
  161.4410  207.9430  152.3130 N   0  0  0  0  0  0  0  0  0  0  0  0
  160.6640  204.4310  151.0340 C   0  0  1  0  0  3  0  0  0  0  0  0
  161.5060  206.5160  147.2590 C   0  0  2  0  0  3  0  0  0  0  0  0
  162.3450  210.6450  149.8150 C   0  0  0  0  0  3  0  0  0  0  0  0
  160.8050  201.5650  150.7130 C   0  0  0  0  0  2  0  0  0  0  0  0
  161.4240  203.6430  152.1030 C   0  0  0  0  0  2  0  0  0  0  0  0
  159.9180  210.0190  154.9570 C   0  0  1  0  0  3  0  0  0  0  0  0
  162.9480  210.9860  156.9860 N   0  0  0  0  0  1  0  0  0  0  0  0
  158.4890  210.0810  155.4640 C   0  0  0  0  0  1  0  0  0  0  0  0
  162.8290  210.3990  154.7210 N   0  0  0  0  0  0  0  0  0  0  0  0
  161.5780  208.6030  153.6110 C   0  0  1  0  0  3  0  0  0  0  0  0
  160.8230  210.3380  156.0090 O   0  0  0  0  0  0  0  0  0  0  0  0
  162.2410  209.9710  153.4560 C   0  0  0  0  0  2  0  0  0  0  0  0
  160.2270  208.6500  154.3350 C   0  0  1  0  0  3  0  0  0  0  0  0
  160.1620  207.5290  155.3610 C   0  0  0  0  0  1  0  0  0  0  0  0
  162.2010  210.5670  155.8500 C   0  0  0  0  0  0  0  0  0  0  0  0
  160.5470  206.5140  146.0760 C   0  0  0  0  0  2  0  0  0  0  0  0
  160.9910  205.6430  145.0790 O   0  0  0  0  0  1  0  0  0  0  0  0
  1 15  1  0  0  0  0
  2  7  1  0  0  0  0
  3  1  2  0  0  0  0
  4  2  2  0  0  0  0
  4  1  1  0  0  0  0
  5 11  1  1  0  0  0
  5  2  1  0  0  0  0
  7 14  2  0  0  0  0
  8  9  1  0  0  0  0
  8 19  1  0  0  0  0
  9 16  1  0  0  0  0
 10 12  1  6  0  0  0
 10 13  1  0  0  0  0
 10  4  1  0  0  0  0
 11  9  2  0  0  0  0
 13 18  2  0  0  0  0
 14 15  1  0  0  0  0
 16  7  1  0  0  0  0
 16 20  1  1  0  0  0
 17 31  1  6  0  0  0
 17 12  1  0  0  0  0
 17  5  1  0  0  0  0
 18  3  1  0  0  0  0
 19  6  1  0  0  0  0
 20  6  1  0  0  0  0
 21 23  1  1  0  0  0
 21 26  1  0  0  0  0
 24 30  2  0  0  0  0
 25 15  1  6  0  0  0
 25 28  1  0  0  0  0
 27 25  1  0  0  0  0
 27 24  1  0  0  0  0
 28 21  1  0  0  0  0
 28 29  1  1  0  0  0
 30 26  1  0  0  0  0
 30 22  1  0  0  0  0
 32 31  1  0  0  0  0
M  END
>  <MODEL>
3

>  <REMARK>
 VINA RESULT:      -7.3      0.886      1.062
  Name = 
  2 active torsions:
  status: ('A' for Active; 'I' for Inactive)
    1  A    between atoms: C_13  and  C_29
    2  A    between atoms: C_16  and  N_27
                            x       y       z     vdW  Elec       q    Type
                         _______ _______ _______ _____ _____    ______ ____

>  <TORSDO>
F 2

$$$$
=
 OpenBabel11062408283D

 32 37  0  0  1  0  0  0  0  0999 V2000
  161.2710  207.6490  150.5380 C   0  0  0  0  0  0  0  0  0  0  0  0
  161.1870  205.7340  149.0290 C   0  0  0  0  0  0  0  0  0  0  0  0
  161.6150  208.9290  150.7260 C   0  0  0  0  0  3  0  0  0  0  0  0
  161.3870  207.0520  149.1920 C   0  0  0  0  0  0  0  0  0  0  0  0
  161.1910  205.1240  147.6480 C   0  0  2  0  0  3  0  0  0  0  0  0
  160.7870  201.0660  150.8920 C   0  0  0  0  0  2  0  0  0  0  0  0
  160.8150  204.8720  150.1770 C   0  0  0  0  0  0  0  0  0  0  0  0
  161.5190  201.5490  148.5760 O   0  0  0  0  0  0  0  0  0  0  0  0
  161.2090  202.9060  148.6730 C   0  0  0  0  0  0  0  0  0  0  0  0
  161.6540  207.9260  147.9900 C   0  0  2  0  0  3  0  0  0  0  0  0
  161.5170  203.6990  147.6890 N   0  0  0  0  0  0  0  0  0  0  0  0
  162.6260  207.2200  147.0540 C   0  0  0  0  0  2  0  0  0  0  0  0
  162.1730  209.2890  148.3630 C   0  0  0  0  0  3  0  0  0  0  0  0
  160.6160  205.4140  151.3880 C   0  0  0  0  0  3  0  0  0  0  0  0
  160.8300  206.8170  151.6260 N   0  0  0  0  0  0  0  0  0  0  0  0
  160.5480  203.4050  149.9380 C   0  0  1  0  0  3  0  0  0  0  0  0
  162.1010  205.8380  146.6250 C   0  0  2  0  0  3  0  0  0  0  0  0
  162.1230  209.7560  149.6150 C   0  0  0  0  0  3  0  0  0  0  0  0
  160.9120  200.5840  149.4370 C   0  0  0  0  0  2  0  0  0  0  0  0
  161.0910  202.5530  151.0870 C   0  0  0  0  0  2  0  0  0  0  0  0
  161.8530  209.2560  154.2010 C   0  0  1  0  0  3  0  0  0  0  0  0
  160.1290  207.8790  157.2610 N   0  0  0  0  0  1  0  0  0  0  0  0
  162.3570  210.6810  154.0670 C   0  0  0  0  0  1  0  0  0  0  0  0
  160.8220  206.7400  155.3340 N   0  0  0  0  0  0  0  0  0  0  0  0
  160.6370  207.3650  152.9680 C   0  0  1  0  0  3  0  0  0  0  0  0
  161.1500  209.1000  155.4290 O   0  0  0  0  0  0  0  0  0  0  0  0
  161.3910  206.5350  154.0060 C   0  0  0  0  0  2  0  0  0  0  0  0
  160.9890  208.8580  152.9960 C   0  0  1  0  0  3  0  0  0  0  0  0
  159.7130  209.6820  152.9100 C   0  0  0  0  0  1  0  0  0  0  0  0
  160.7210  207.8740  155.9670 C   0  0  0  0  0  0  0  0  0  0  0  0
  161.4310  205.9060  145.2580 C   0  0  0  0  0  2  0  0  0  0  0  0
  160.0790  206.2300  145.3840 O   0  0  0  0  0  1  0  0  0  0  0  0
  1  3  2  0  0  0  0
  1 15  1  0  0  0  0
  2  4  2  0  0  0  0
  2  7  1  0  0  0  0
  4  1  1  0  0  0  0
  5 11  1  1  0  0  0
  5  2  1  0  0  0  0
  6 20  1  0  0  0  0
  7 14  2  0  0  0  0
  8  9  1  0  0  0  0
  8 19  1  0  0  0  0
  9 16  1  0  0  0  0
 10 12  1  6  0  0  0
 10 13  1  0  0  0  0
 10  4  1  0  0  0  0
 11  9  2  0  0  0  0
 13 18  2  0  0  0  0
 14 15  1  0  0  0  0
 16  7  1  0  0  0  0
 16 20  1  1  0  0  0
 17 31  1  6  0  0  0
 17 12  1  0  0  0  0
 17  5  1  0  0  0  0
 18  3  1  0  0  0  0
 19  6  1  0  0  0  0
 21 23  1  6  0  0  0
 21 26  1  0  0  0  0
 24 30  2  0  0  0  0
 25 15  1  6  0  0  0
 25 28  1  0  0  0  0
 25 27  1  0  0  0  0
 26 30  1  0  0  0  0
 27 24  1  0  0  0  0
 28 29  1  1  0  0  0
 28 21  1  0  0  0  0
 30 22  1  0  0  0  0
 31 32  1  0  0  0  0
M  END
>  <MODEL>
4

>  <REMARK>
 VINA RESULT:      -6.9      1.410      2.052
  Name = 
  2 active torsions:
  status: ('A' for Active; 'I' for Inactive)
    1  A    between atoms: C_13  and  C_29
    2  A    between atoms: C_16  and  N_27
                            x       y       z     vdW  Elec       q    Type
                         _______ _______ _______ _____ _____    ______ ____

>  <TORSDO>
F 2

$$$$
=
 OpenBabel11062408283D

 32 37  0  0  1  0  0  0  0  0999 V2000
  161.5820  207.5260  150.8660 C   0  0  1  0  0  3  0  0  0  0  0  0
  161.5220  205.3990  149.6760 C   0  0  0  0  0  0  0  0  0  0  0  0
  161.3850  208.1890  152.0130 C   0  0  0  0  0  3  0  0  0  0  0  0
  161.4740  206.0530  150.8470 C   0  0  0  0  0  0  0  0  0  0  0  0
  161.5270  203.8890  149.6420 C   0  0  2  0  0  3  0  0  0  0  0  0
  161.2410  205.3290  144.6420 C   0  0  0  0  0  2  0  0  0  0  0  0
  161.7180  206.1300  148.4010 C   0  0  0  0  0  0  0  0  0  0  0  0
  160.7130  203.3700  146.0620 O   0  0  0  0  0  0  0  0  0  0  0  0
  161.1790  203.9830  147.2260 C   0  0  0  0  0  0  0  0  0  0  0  0
  161.3880  205.2770  152.1390 C   0  0  0  0  0  0  0  0  0  0  0  0
  161.0290  203.3770  148.3660 N   0  0  0  0  0  0  0  0  0  0  0  0
  160.3950  204.1340  151.9790 C   0  0  0  0  0  2  0  0  0  0  0  0
  161.0170  206.1410  153.3150 C   0  0  0  0  0  3  0  0  0  0  0  0
  161.9080  207.4580  148.4100 C   0  0  0  0  0  3  0  0  0  0  0  0
  161.8520  208.2150  149.6320 N   0  0  0  0  0  0  0  0  0  0  0  0
  161.8190  205.3480  147.1120 C   0  0  1  0  0  3  0  0  0  0  0  0
  160.7740  203.2110  150.8070 C   0  0  2  0  0  3  0  0  0  0  0  0
  161.0490  207.4760  153.2600 C   0  0  0  0  0  3  0  0  0  0  0  0
  161.1460  203.7990  144.7700 C   0  0  0  0  0  2  0  0  0  0  0  0
  161.1080  206.0770  145.9700 C   0  0  0  0  0  2  0  0  0  0  0  0
  160.6890  211.5490  150.7090 C   0  0  1  0  0  3  0  0  0  0  0  0
  162.5930  213.8000  148.3540 N   0  0  0  0  0  1  0  0  0  0  0  0
  160.0660  212.0030  152.0160 C   0  0  0  0  0  1  0  0  0  0  0  0
  161.9520  211.5660  148.0470 N   0  0  0  0  0  0  0  0  0  0  0  0
  162.0300  209.6660  149.5990 C   0  0  1  0  0  3  0  0  0  0  0  0
  161.4320  212.6150  150.1250 O   0  0  0  0  0  0  0  0  0  0  0  0
  161.3710  210.2640  148.3560 C   0  0  0  0  0  2  0  0  0  0  0  0
  161.5560  210.2980  150.9130 C   0  0  1  0  0  3  0  0  0  0  0  0
  162.7560  210.5730  151.8060 C   0  0  0  0  0  1  0  0  0  0  0  0
  161.9730  212.6100  148.8280 C   0  0  0  0  0  0  0  0  0  0  0  0
  161.5270  201.9810  151.2970 C   0  0  0  0  0  2  0  0  0  0  0  0
  161.2620  200.8800  150.4800 O   0  0  0  0  0  1  0  0  0  0  0  0
  1  3  1  6  0  0  0
  2  4  2  0  0  0  0
  3 18  2  0  0  0  0
  4  1  1  0  0  0  0
  4 10  1  0  0  0  0
  5 11  1  6  0  0  0
  5  2  1  0  0  0  0
  5 17  1  0  0  0  0
  6 19  1  0  0  0  0
  6 20  1  0  0  0  0
  7 14  2  0  0  0  0
  7  2  1  0  0  0  0
  8  9  1  0  0  0  0
  9 11  2  0  0  0  0
 10 13  2  0  0  0  0
 12 10  1  0  0  0  0
 14 15  1  0  0  0  0
 15  1  1  0  0  0  0
 16 20  1  6  0  0  0
 16  9  1  0  0  0  0
 16  7  1  0  0  0  0
 17 31  1  1  0  0  0
 17 12  1  0  0  0  0
 18 13  1  0  0  0  0
 19  8  1  0  0  0  0
 21 28  1  0  0  0  0
 21 23  1  1  0  0  0
 22 30  1  0  0  0  0
 24 27  1  0  0  0  0
 24 30  2  0  0  0  0
 25 27  1  6  0  0  0
 25 15  1  0  0  0  0
 25 28  1  0  0  0  0
 26 21  1  0  0  0  0
 28 29  1  1  0  0  0
 30 26  1  0  0  0  0
 32 31  1  0  0  0  0
M  END
>  <MODEL>
5

>  <REMARK>
 VINA RESULT:      -6.6      2.659      5.247
  Name = 
  2 active torsions:
  status: ('A' for Active; 'I' for Inactive)
    1  A    between atoms: C_13  and  C_29
    2  A    between atoms: C_16  and  N_27
                            x       y       z     vdW  Elec       q    Type
                         _______ _______ _______ _____ _____    ______ ____

>  <TORSDO>
F 2

$$$$
=
 OpenBabel11062408283D

 32 37  0  0  1  0  0  0  0  0999 V2000
  160.0790  212.7260  151.3130 C   0  0  1  0  0  3  0  0  0  0  0  0
  160.4820  210.8030  152.7580 C   0  0  0  0  0  0  0  0  0  0  0  0
  159.4220  213.8750  151.1140 C   0  0  0  0  0  3  0  0  0  0  0  0
  159.9480  212.0260  152.6070 C   0  0  0  0  0  0  0  0  0  0  0  0
  160.4580  210.1180  154.1040 C   0  0  2  0  0  3  0  0  0  0  0  0
  162.4180  206.5620  150.8380 C   0  0  0  0  0  2  0  0  0  0  0  0
  161.2340  210.1580  151.6550 C   0  0  0  0  0  0  0  0  0  0  0  0
  161.2680  206.6630  153.0290 O   0  0  0  0  0  0  0  0  0  0  0  0
  161.1980  208.0570  153.0210 C   0  0  0  0  0  0  0  0  0  0  0  0
  159.2860  212.7070  153.7800 C   0  0  0  0  0  0  0  0  0  0  0  0
  160.5500  208.6650  153.9700 N   0  0  0  0  0  0  0  0  0  0  0  0
  158.4280  211.7000  154.5350 C   0  0  0  0  0  2  0  0  0  0  0  0
  158.4650  213.9020  153.3740 C   0  0  0  0  0  3  0  0  0  0  0  0
  161.4400  210.8180  150.5050 C   0  0  0  0  0  3  0  0  0  0  0  0
  160.8800  212.1240  150.2800 N   0  0  0  0  0  0  0  0  0  0  0  0
  161.8630  208.8040  151.8880 C   0  0  1  0  0  3  0  0  0  0  0  0
  159.2530  210.4850  154.9970 C   0  0  2  0  0  3  0  0  0  0  0  0
  158.5560  214.4530  152.1590 C   0  0  0  0  0  3  0  0  0  0  0  0
  162.2320  205.9620  152.2420 C   0  0  0  0  0  2  0  0  0  0  0  0
  161.7430  207.9210  150.6440 C   0  0  0  0  0  2  0  0  0  0  0  0
  159.8600  212.5930  146.7640 C   0  0  1  0  0  3  0  0  0  0  0  0
  162.8330  214.4500  145.3660 N   0  0  0  0  0  1  0  0  0  0  0  0
  158.4860  212.5640  146.1210 C   0  0  0  0  0  1  0  0  0  0  0  0
  162.7480  212.9860  147.1950 N   0  0  0  0  0  0  0  0  0  0  0  0
  161.0960  212.7980  149.0010 C   0  0  1  0  0  3  0  0  0  0  0  0
  160.7160  213.4770  146.0470 O   0  0  0  0  0  0  0  0  0  0  0  0
  162.1770  212.0840  148.1880 C   0  0  0  0  0  2  0  0  0  0  0  0
  159.7700  212.9680  148.2500 C   0  0  1  0  0  3  0  0  0  0  0  0
  159.2500  214.3830  148.4510 C   0  0  0  0  0  1  0  0  0  0  0  0
  162.1030  213.5990  146.2420 C   0  0  0  0  0  0  0  0  0  0  0  0
  159.6810  210.6340  156.4510 C   0  0  0  0  0  2  0  0  0  0  0  0
  161.0290  210.9910  156.5370 O   0  0  0  0  0  1  0  0  0  0  0  0
  1  3  1  6  0  0  0
  1  4  1  0  0  0  0
  3 18  2  0  0  0  0
  4  2  2  0  0  0  0
  4 10  1  0  0  0  0
  5  2  1  6  0  0  0
  5 17  1  0  0  0  0
  6 19  1  0  0  0  0
  7 16  1  0  0  0  0
  7  2  1  0  0  0  0
  9  8  1  0  0  0  0
  9 11  2  0  0  0  0
 10 12  1  0  0  0  0
 11  5  1  0  0  0  0
 12 17  1  0  0  0  0
 13 10  2  0  0  0  0
 14  7  2  0  0  0  0
 15 14  1  0  0  0  0
 15  1  1  0  0  0  0
 16 20  1  6  0  0  0
 16  9  1  0  0  0  0
 17 31  1  1  0  0  0
 18 13  1  0  0  0  0
 19  8  1  0  0  0  0
 20  6  1  0  0  0  0
 21 23  1  6  0  0  0
 21 28  1  0  0  0  0
 22 30  1  0  0  0  0
 24 27  1  0  0  0  0
 25 27  1  6  0  0  0
 25 15  1  0  0  0  0
 26 30  1  0  0  0  0
 26 21  1  0  0  0  0
 28 29  1  6  0  0  0
 28 25  1  0  0  0  0
 30 24  2  0  0  0  0
 31 32  1  0  0  0  0
M  END
>  <MODEL>
6

>  <REMARK>
 VINA RESULT:      -6.1      3.936      7.821
  Name = 
  2 active torsions:
  status: ('A' for Active; 'I' for Inactive)
    1  A    between atoms: C_13  and  C_29
    2  A    between atoms: C_16  and  N_27
                            x       y       z     vdW  Elec       q    Type
                         _______ _______ _______ _____ _____    ______ ____

>  <TORSDO>
F 2

$$$$
=
 OpenBabel11062408283D

 32 37  0  0  1  0  0  0  0  0999 V2000
  161.4750  209.3870  150.9690 C   0  0  0  0  0  0  0  0  0  0  0  0
  161.2890  207.1950  149.9150 C   0  0  0  0  0  0  0  0  0  0  0  0
  161.8580  210.6660  150.8640 C   0  0  0  0  0  3  0  0  0  0  0  0
  161.5290  208.5100  149.7820 C   0  0  0  0  0  0  0  0  0  0  0  0
  161.2280  206.3010  148.7000 C   0  0  2  0  0  3  0  0  0  0  0  0
  160.8330  203.0570  152.7590 C   0  0  0  0  0  2  0  0  0  0  0  0
  160.9350  206.6150  151.2330 C   0  0  0  0  0  0  0  0  0  0  0  0
  161.4950  203.0020  150.3730 O   0  0  0  0  0  0  0  0  0  0  0  0
  161.2250  204.3580  150.1820 C   0  0  0  0  0  0  0  0  0  0  0  0
  161.7750  209.0940  148.4120 C   0  0  2  0  0  3  0  0  0  0  0  0
  161.5180  204.9090  149.0400 N   0  0  0  0  0  0  0  0  0  0  0  0
  162.6950  208.1700  147.6240 C   0  0  0  0  0  2  0  0  0  0  0  0
  162.3420  210.4870  148.4650 C   0  0  0  0  0  3  0  0  0  0  0  0
  160.7930  207.4120  152.3030 C   0  0  0  0  0  3  0  0  0  0  0  0
  161.0520  208.8250  152.2240 N   0  0  0  0  0  0  0  0  0  0  0  0
  160.6210  205.1400  151.3260 C   0  0  1  0  0  3  0  0  0  0  0  0
  162.1190  206.7470  147.5200 C   0  0  2  0  0  3  0  0  0  0  0  0
  162.3480  211.2150  149.5860 C   0  0  0  0  0  3  0  0  0  0  0  0
  160.8940  202.2670  151.4400 C   0  0  0  0  0  2  0  0  0  0  0  0
  161.1820  204.5390  152.6170 C   0  0  0  0  0  2  0  0  0  0  0  0
  159.8120  209.1810  155.6830 C   0  0  1  0  0  3  0  0  0  0  0  0
  160.1280  212.9040  156.2100 N   0  0  0  0  0  1  0  0  0  0  0  0
  159.6980  208.1620  156.8010 C   0  0  0  0  0  1  0  0  0  0  0  0
  159.8580  211.7270  154.2010 N   0  0  0  0  0  0  0  0  0  0  0  0
  160.9200  209.6570  153.4200 C   0  0  1  0  0  3  0  0  0  0  0  0
  160.0350  210.4790  156.2260 O   0  0  0  0  0  0  0  0  0  0  0  0
  159.7120  210.5870  153.3030 C   0  0  0  0  0  2  0  0  0  0  0  0
  160.9090  208.7870  154.6830 C   0  0  1  0  0  3  0  0  0  0  0  0
  162.2910  208.7950  155.3170 C   0  0  0  0  0  1  0  0  0  0  0  0
  159.9940  211.6800  155.4970 C   0  0  0  0  0  0  0  0  0  0  0  0
  161.4040  206.5390  146.1920 C   0  0  0  0  0  2  0  0  0  0  0  0
  161.1440  205.1840  145.9750 O   0  0  0  0  0  1  0  0  0  0  0  0
  1 15  1  0  0  0  0
  2  7  1  0  0  0  0
  3  1  2  0  0  0  0
  4  2  2  0  0  0  0
  4  1  1  0  0  0  0
  5 11  1  1  0  0  0
  5  2  1  0  0  0  0
  7 16  1  0  0  0  0
  7 14  2  0  0  0  0
  8 19  1  0  0  0  0
  9  8  1  0  0  0  0
  9 16  1  0  0  0  0
 10 12  1  1  0  0  0
 10 13  1  0  0  0  0
 10  4  1  0  0  0  0
 11  9  2  0  0  0  0
 13 18  2  0  0  0  0
 15 14  1  0  0  0  0
 16 20  1  1  0  0  0
 17 31  1  6  0  0  0
 17 12  1  0  0  0  0
 17  5  1  0  0  0  0
 18  3  1  0  0  0  0
 19  6  1  0  0  0  0
 20  6  1  0  0  0  0
 21 26  1  0  0  0  0
 21 23  1  1  0  0  0
 24 30  2  0  0  0  0
 25 15  1  6  0  0  0
 25 28  1  0  0  0  0
 27 25  1  0  0  0  0
 27 24  1  0  0  0  0
 28 29  1  1  0  0  0
 28 21  1  0  0  0  0
 30 22  1  0  0  0  0
 30 26  1  0  0  0  0
 32 31  1  0  0  0  0
M  END
>  <MODEL>
7

>  <REMARK>
 VINA RESULT:      -6.0      1.089      1.159
  Name = 
  2 active torsions:
  status: ('A' for Active; 'I' for Inactive)
    1  A    between atoms: C_13  and  C_29
    2  A    between atoms: C_16  and  N_27
                            x       y       z     vdW  Elec       q    Type
                         _______ _______ _______ _____ _____    ______ ____

>  <TORSDO>
F 2

$$$$
=
 OpenBabel11062408283D

 32 37  0  0  1  0  0  0  0  0999 V2000
  161.3120  205.5860  150.9660 C   0  0  1  0  0  3  0  0  0  0  0  0
  161.1840  207.9980  151.3070 C   0  0  0  0  0  0  0  0  0  0  0  0
  161.3900  204.3670  151.5140 C   0  0  0  0  0  3  0  0  0  0  0  0
  161.1140  206.7650  151.8340 C   0  0  0  0  0  0  0  0  0  0  0  0
  160.8740  209.2110  152.1510 C   0  0  2  0  0  3  0  0  0  0  0  0
  162.5220  211.1470  147.6030 C   0  0  0  0  0  2  0  0  0  0  0  0
  161.4240  208.1950  149.8570 C   0  0  0  0  0  0  0  0  0  0  0  0
  162.3140  211.8410  149.9700 O   0  0  0  0  0  0  0  0  0  0  0  0
  161.7460  210.6280  150.3630 C   0  0  0  0  0  0  0  0  0  0  0  0
  160.7570  206.5890  153.2900 C   0  0  0  0  0  0  0  0  0  0  0  0
  161.5180  210.4130  151.6250 N   0  0  0  0  0  0  0  0  0  0  0  0
  161.5020  207.6230  154.1240 C   0  0  0  0  0  2  0  0  0  0  0  0
  161.0370  205.1990  153.7960 C   0  0  0  0  0  3  0  0  0  0  0  0
  161.5150  207.1340  149.0400 C   0  0  0  0  0  3  0  0  0  0  0  0
  161.4620  205.7890  149.5490 N   0  0  0  0  0  0  0  0  0  0  0  0
  161.4430  209.5990  149.2990 C   0  0  1  0  0  3  0  0  0  0  0  0
  161.2020  209.0570  153.6530 C   0  0  2  0  0  3  0  0  0  0  0  0
  161.2950  204.1770  152.9740 C   0  0  0  0  0  3  0  0  0  0  0  0
  162.2680  212.2790  148.6120 C   0  0  0  0  0  2  0  0  0  0  0  0
  162.5170  209.7460  148.2190 C   0  0  0  0  0  2  0  0  0  0  0  0
  160.8390  204.3630  146.2020 C   0  0  1  0  0  3  0  0  0  0  0  0
  161.5610  200.7090  146.8010 N   0  0  0  0  0  1  0  0  0  0  0  0
  160.8210  205.0230  144.8350 C   0  0  0  0  0  1  0  0  0  0  0  0
  160.8650  202.3350  148.3380 N   0  0  0  0  0  0  0  0  0  0  0  0
  161.6000  204.6580  148.6330 C   0  0  1  0  0  3  0  0  0  0  0  0
  161.2600  203.0080  146.0850 O   0  0  0  0  0  0  0  0  0  0  0  0
  160.4760  203.6450  148.8490 C   0  0  0  0  0  2  0  0  0  0  0  0
  161.7190  205.1500  147.1850 C   0  0  1  0  0  3  0  0  0  0  0  0
  163.1820  205.1510  146.7680 C   0  0  0  0  0  1  0  0  0  0  0  0
  161.2060  202.0510  147.1130 C   0  0  0  0  0  0  0  0  0  0  0  0
  160.1230  209.7030  154.5120 C   0  0  0  0  0  2  0  0  0  0  0  0
  159.7410  208.8510  155.5510 O   0  0  0  0  0  1  0  0  0  0  0  0
  1  3  1  1  0  0  0
  1  4  1  0  0  0  0
  2  4  2  0  0  0  0
  3 18  2  0  0  0  0
  4 10  1  0  0  0  0
  5  2  1  6  0  0  0
  5 17  1  0  0  0  0
  6 20  1  0  0  0  0
  6 19  1  0  0  0  0
  7  2  1  0  0  0  0
  8  9  1  0  0  0  0
  9 11  2  0  0  0  0
 10 13  2  0  0  0  0
 10 12  1  0  0  0  0
 11  5  1  0  0  0  0
 14 15  1  0  0  0  0
 14  7  2  0  0  0  0
 15  1  1  0  0  0  0
 16 20  1  6  0  0  0
 16  7  1  0  0  0  0
 16  9  1  0  0  0  0
 17 12  1  0  0  0  0
 17 31  1  1  0  0  0
 18 13  1  0  0  0  0
 19  8  1  0  0  0  0
 21 23  1  6  0  0  0
 21 28  1  0  0  0  0
 22 30  1  0  0  0  0
 24 27  1  0  0  0  0
 25 27  1  6  0  0  0
 25 15  1  0  0  0  0
 26 21  1  0  0  0  0
 26 30  1  0  0  0  0
 28 29  1  6  0  0  0
 28 25  1  0  0  0  0
 30 24  2  0  0  0  0
 31 32  1  0  0  0  0
M  END
>  <MODEL>
8

>  <REMARK>
 VINA RESULT:      -6.0      2.082      8.170
  Name = 
  2 active torsions:
  status: ('A' for Active; 'I' for Inactive)
    1  A    between atoms: C_13  and  C_29
    2  A    between atoms: C_16  and  N_27
                            x       y       z     vdW  Elec       q    Type
                         _______ _______ _______ _____ _____    ______ ____

>  <TORSDO>
F 2

$$$$
=
 OpenBabel11062408283D

 32 37  0  0  1  0  0  0  0  0999 V2000
  160.5570  211.3540  152.6790 C   0  0  1  0  0  3  0  0  0  0  0  0
  160.8370  209.0410  153.3980 C   0  0  0  0  0  0  0  0  0  0  0  0
  160.0890  212.5780  152.9550 C   0  0  0  0  0  3  0  0  0  0  0  0
  160.5090  210.3030  153.7150 C   0  0  0  0  0  0  0  0  0  0  0  0
  160.9030  207.9750  154.4650 C   0  0  2  0  0  3  0  0  0  0  0  0
  161.6780  205.4210  149.9900 C   0  0  0  0  0  2  0  0  0  0  0  0
  161.2830  208.6900  152.0280 C   0  0  0  0  0  0  0  0  0  0  0  0
  160.9180  204.9630  152.3020 O   0  0  0  0  0  0  0  0  0  0  0  0
  161.0930  206.2870  152.7100 C   0  0  0  0  0  0  0  0  0  0  0  0
  160.1670  210.6550  155.1420 C   0  0  0  0  0  0  0  0  0  0  0  0
  160.7170  206.6370  153.9040 N   0  0  0  0  0  0  0  0  0  0  0  0
  159.2740  209.5710  155.7330 C   0  0  0  0  0  2  0  0  0  0  0  0
  159.5150  212.0060  155.2710 C   0  0  0  0  0  3  0  0  0  0  0  0
  161.4200  209.6490  151.0990 C   0  0  0  0  0  3  0  0  0  0  0  0
  161.0690  211.0170  151.3760 N   0  0  0  0  0  0  0  0  0  0  0  0
  161.6940  207.2680  151.7290 C   0  0  1  0  0  3  0  0  0  0  0  0
  159.9350  208.1830  155.6500 C   0  0  2  0  0  3  0  0  0  0  0  0
  159.5100  212.8960  154.2740 C   0  0  0  0  0  3  0  0  0  0  0  0
  161.6100  204.4360  151.1690 C   0  0  0  0  0  2  0  0  0  0  0  0
  161.2290  206.8420  150.3350 C   0  0  0  0  0  2  0  0  0  0  0  0
  159.5390  212.8170  148.5410 C   0  0  1  0  0  3  0  0  0  0  0  0
  162.5580  214.4520  146.9780 N   0  0  0  0  0  1  0  0  0  0  0  0
  158.1060  213.2600  148.3090 C   0  0  0  0  0  1  0  0  0  0  0  0
  162.4560  212.5030  148.2750 N   0  0  0  0  0  0  0  0  0  0  0  0
  161.1990  212.0290  150.3290 C   0  0  1  0  0  3  0  0  0  0  0  0
  160.4380  213.7170  147.9000 O   0  0  0  0  0  0  0  0  0  0  0  0
  161.8750  211.4420  149.0900 C   0  0  0  0  0  2  0  0  0  0  0  0
  159.8420  212.6820  150.0400 C   0  0  1  0  0  3  0  0  0  0  0  0
  159.7580  214.0180  150.7630 C   0  0  0  0  0  1  0  0  0  0  0  0
  161.8180  213.5080  147.7420 C   0  0  0  0  0  0  0  0  0  0  0  0
  160.6040  207.8140  156.9680 C   0  0  0  0  0  2  0  0  0  0  0  0
  161.9710  208.0930  156.9250 O   0  0  0  0  0  1  0  0  0  0  0  0
  1  3  1  6  0  0  0
  1  4  1  0  0  0  0
  2  4  2  0  0  0  0
  3 18  2  0  0  0  0
  4 10  1  0  0  0  0
  5  2  1  6  0  0  0
  5 17  1  0  0  0  0
  6 20  1  0  0  0  0
  6 19  1  0  0  0  0
  7  2  1  0  0  0  0
  8  9  1  0  0  0  0
  9 11  2  0  0  0  0
 10 13  2  0  0  0  0
 10 12  1  0  0  0  0
 11  5  1  0  0  0  0
 14 15  1  0  0  0  0
 14  7  2  0  0  0  0
 15  1  1  0  0  0  0
 16 20  1  6  0  0  0
 16  7  1  0  0  0  0
 16  9  1  0  0  0  0
 17 12  1  0  0  0  0
 17 31  1  1  0  0  0
 18 13  1  0  0  0  0
 19  8  1  0  0  0  0
 21 23  1  1  0  0  0
 21 28  1  0  0  0  0
 22 30  1  0  0  0  0
 24 27  1  0  0  0  0
 25 27  1  6  0  0  0
 25 15  1  0  0  0  0
 26 21  1  0  0  0  0
 28 25  1  0  0  0  0
 28 29  1  6  0  0  0
 30 26  1  0  0  0  0
 30 24  2  0  0  0  0
 32 31  1  0  0  0  0
M  END
>  <MODEL>
9

>  <REMARK>
 VINA RESULT:      -5.8      3.330      6.889
  Name = 
  2 active torsions:
  status: ('A' for Active; 'I' for Inactive)
    1  A    between atoms: C_13  and  C_29
    2  A    between atoms: C_16  and  N_27
                            x       y       z     vdW  Elec       q    Type
                         _______ _______ _______ _____ _____    ______ ____

>  <TORSDO>
F 2

$$$$
