=
 OpenBabel11052423103D

 27 30  0  0  1  0  0  0  0  0999 V2000
  160.6700  212.7200  137.4680 C   0  0  2  0  0  3  0  0  0  0  0  0
  160.0050  213.2420  139.8530 C   0  0  1  0  0  3  0  0  0  0  0  0
  160.8620  210.9380  140.5860 C   0  0  0  0  0  2  0  0  0  0  0  0
  160.5540  214.2640  143.9550 C   0  0  0  0  0  3  0  0  0  0  0  0
  161.9190  214.3480  145.9410 O   0  0  0  0  0  1  0  0  0  0  0  0
  158.7700  213.5860  140.6910 C   0  0  0  0  0  2  0  0  0  0  0  0
  162.4220  212.5660  142.7500 C   0  0  0  0  0  3  0  0  0  0  0  0
  161.9270  208.9100  139.9620 O   0  0  0  0  0  1  0  0  0  0  0  0
  162.6360  213.0330  144.0500 C   0  0  0  0  0  3  0  0  0  0  0  0
  162.4430  209.6710  137.4460 F   0  0  0  0  0  0  0  0  0  0  0  0
  161.0720  212.4470  140.6370 C   0  0  2  0  0  3  0  0  0  0  0  0
  159.6800  212.6300  138.5480 N   0  0  0  0  0  0  0  0  0  0  0  0
  161.7040  213.8810  144.6510 C   0  0  0  0  0  0  0  0  0  0  0  0
  160.3280  213.7900  142.6590 C   0  0  0  0  0  0  0  0  0  0  0  0
  161.2700  212.9380  142.0460 C   0  0  0  0  0  0  0  0  0  0  0  0
  161.9130  210.2800  139.6950 C   0  0  1  0  0  3  0  0  0  0  0  0
  159.1640  214.2130  141.9450 N   0  0  0  0  0  2  0  0  0  0  0  0
  161.6440  210.5100  138.2030 C   0  0  1  0  0  3  0  0  0  0  0  0
  161.9490  211.9520  137.8100 C   0  0  0  0  0  2  0  0  0  0  0  0
  156.3200  210.1020  137.8490 C   0  0  0  0  0  3  0  0  0  0  0  0
  158.5320  211.7750  138.3300 C   0  0  0  0  0  0  0  0  0  0  0  0
  158.2970  210.6460  139.1350 C   0  0  0  0  0  3  0  0  0  0  0  0
  157.1980  209.8160  138.8980 C   0  0  0  0  0  3  0  0  0  0  0  0
  156.5440  211.2150  137.0370 C   0  0  0  0  0  3  0  0  0  0  0  0
  157.6440  212.0440  137.2740 C   0  0  0  0  0  3  0  0  0  0  0  0
  160.9790  214.1720  137.1360 C   0  0  0  0  0  2  0  0  0  0  0  0
  162.3420  214.4180  137.3050 O   0  0  0  0  0  1  0  0  0  0  0  0
  1 26  1  1  0  0  0
  1 19  1  0  0  0  0
  1 12  1  0  0  0  0
  2 11  1  0  0  0  0
  2  6  1  1  0  0  0
  4 13  1  0  0  0  0
  6 17  1  0  0  0  0
  7  9  1  0  0  0  0
  9 13  2  0  0  0  0
 11  3  1  1  0  0  0
 11 15  1  0  0  0  0
 12  2  1  0  0  0  0
 13  5  1  0  0  0  0
 14  4  2  0  0  0  0
 15 14  1  0  0  0  0
 15  7  2  0  0  0  0
 16  8  1  6  0  0  0
 16  3  1  0  0  0  0
 17 14  1  0  0  0  0
 18 10  1  6  0  0  0
 18 16  1  0  0  0  0
 19 18  1  0  0  0  0
 20 23  1  0  0  0  0
 21 12  1  0  0  0  0
 21 22  1  0  0  0  0
 23 22  2  0  0  0  0
 24 25  1  0  0  0  0
 24 20  2  0  0  0  0
 25 21  2  0  0  0  0
 26 27  1  0  0  0  0
M  END
>  <MODEL>
1

>  <REMARK>
 VINA RESULT:      -4.6      0.000      0.000
  Name = 
  2 active torsions:
  status: ('A' for Active; 'I' for Inactive)
    1  A    between atoms: C_1  and  C_18
    2  A    between atoms: C_9  and  N_15
                            x       y       z     vdW  Elec       q    Type
                         _______ _______ _______ _____ _____    ______ ____

>  <TORSDO>
F 2

$$$$
=
 OpenBabel11052423103D

 27 30  0  0  1  0  0  0  0  0999 V2000
  162.6800  209.9460  155.4750 C   0  0  2  0  0  3  0  0  0  0  0  0
  160.6790  211.3350  154.7880 C   0  0  1  0  0  3  0  0  0  0  0  0
  159.1260  209.3910  155.4120 C   0  0  0  0  0  2  0  0  0  0  0  0
  157.1810  213.7170  155.3010 C   0  0  0  0  0  3  0  0  0  0  0  0
  155.2750  214.4070  156.6080 O   0  0  0  0  0  1  0  0  0  0  0  0
  160.0940  212.0460  153.5640 C   0  0  0  0  0  2  0  0  0  0  0  0
  157.5900  211.5690  157.0450 C   0  0  0  0  0  3  0  0  0  0  0  0
  158.9260  207.2020  156.3090 O   0  0  0  0  0  1  0  0  0  0  0  0
  156.5300  212.4530  157.2610 C   0  0  0  0  0  3  0  0  0  0  0  0
  161.5110  206.9710  156.9670 F   0  0  0  0  0  0  0  0  0  0  0  0
  159.6010  210.7980  155.7550 C   0  0  2  0  0  3  0  0  0  0  0  0
  161.7000  210.3220  154.4480 N   0  0  0  0  0  0  0  0  0  0  0  0
  156.3270  213.5270  156.3900 C   0  0  0  0  0  0  0  0  0  0  0  0
  158.2360  212.8280  155.0740 C   0  0  0  0  0  0  0  0  0  0  0  0
  158.4490  211.7470  155.9530 C   0  0  0  0  0  0  0  0  0  0  0  0
  159.6610  208.3820  156.4260 C   0  0  1  0  0  3  0  0  0  0  0  0
  159.1220  213.0510  153.9740 N   0  0  0  0  0  2  0  0  0  0  0  0
  161.1510  208.0820  156.2240 C   0  0  1  0  0  3  0  0  0  0  0  0
  162.0110  209.2610  156.6690 C   0  0  0  0  0  2  0  0  0  0  0  0
  161.6700  207.9980  150.8760 C   0  0  0  0  0  3  0  0  0  0  0  0
  161.6690  209.5310  153.2360 C   0  0  0  0  0  0  0  0  0  0  0  0
  161.0880  208.2510  153.2110 C   0  0  0  0  0  3  0  0  0  0  0  0
  161.0860  207.4910  152.0390 C   0  0  0  0  0  3  0  0  0  0  0  0
  162.2580  209.2640  150.8860 C   0  0  0  0  0  3  0  0  0  0  0  0
  162.2590  210.0240  152.0600 C   0  0  0  0  0  3  0  0  0  0  0  0
  163.4850  211.1560  155.9240 C   0  0  0  0  0  2  0  0  0  0  0  0
  163.8570  211.0110  157.2600 O   0  0  0  0  0  1  0  0  0  0  0  0
  1 26  1  1  0  0  0
  1 19  1  0  0  0  0
  2  6  1  6  0  0  0
  2 11  1  0  0  0  0
  3 16  1  0  0  0  0
  4 13  1  0  0  0  0
  6 17  1  0  0  0  0
  7  9  1  0  0  0  0
 11  3  1  6  0  0  0
 11 15  1  0  0  0  0
 12  2  1  0  0  0  0
 12  1  1  0  0  0  0
 13  5  1  0  0  0  0
 13  9  2  0  0  0  0
 14  4  2  0  0  0  0
 14 15  1  0  0  0  0
 15  7  2  0  0  0  0
 16  8  1  6  0  0  0
 17 14  1  0  0  0  0
 18 16  1  0  0  0  0
 18 19  1  0  0  0  0
 18 10  1  1  0  0  0
 20 24  2  0  0  0  0
 20 23  1  0  0  0  0
 21 12  1  0  0  0  0
 22 21  1  0  0  0  0
 23 22  2  0  0  0  0
 24 25  1  0  0  0  0
 25 21  2  0  0  0  0
 26 27  1  0  0  0  0
M  END
>  <MODEL>
2

>  <REMARK>
 VINA RESULT:      -4.5     13.045     15.654
  Name = 
  2 active torsions:
  status: ('A' for Active; 'I' for Inactive)
    1  A    between atoms: C_1  and  C_18
    2  A    between atoms: C_9  and  N_15
                            x       y       z     vdW  Elec       q    Type
                         _______ _______ _______ _____ _____    ______ ____

>  <TORSDO>
F 2

$$$$
=
 OpenBabel11052423103D

 27 30  0  0  1  0  0  0  0  0999 V2000
  159.6050  212.4320  156.2370 C   0  0  2  0  0  3  0  0  0  0  0  0
  159.7610  210.0250  155.4690 C   0  0  1  0  0  3  0  0  0  0  0  0
  158.9580  210.7270  153.1360 C   0  0  0  0  0  2  0  0  0  0  0  0
  161.3600  206.6450  153.4220 C   0  0  0  0  0  3  0  0  0  0  0  0
  162.6730  205.6890  151.6400 O   0  0  0  0  0  1  0  0  0  0  0  0
  159.1830  208.6420  155.7830 C   0  0  0  0  0  2  0  0  0  0  0  0
  161.4610  209.1350  152.1520 C   0  0  0  0  0  3  0  0  0  0  0  0
  158.3200  212.4990  151.6910 O   0  0  0  0  0  1  0  0  0  0  0  0
  162.0920  208.0290  151.5760 C   0  0  0  0  0  3  0  0  0  0  0  0
  158.8890  214.4500  153.4350 F   0  0  0  0  0  0  0  0  0  0  0  0
  160.1200  210.2130  153.9790 C   0  0  2  0  0  3  0  0  0  0  0  0
  158.9500  211.1370  156.0080 N   0  0  0  0  0  0  0  0  0  0  0  0
  162.0420  206.7860  152.2110 C   0  0  0  0  0  0  0  0  0  0  0  0
  160.7160  207.7460  153.9970 C   0  0  0  0  0  0  0  0  0  0  0  0
  160.7690  209.0030  153.3620 C   0  0  0  0  0  0  0  0  0  0  0  0
  159.1850  212.1840  152.7400 C   0  0  1  0  0  3  0  0  0  0  0  0
  160.0480  207.5970  155.2510 N   0  0  0  0  0  2  0  0  0  0  0  0
  158.9510  213.1520  153.9070 C   0  0  1  0  0  3  0  0  0  0  0  0
  160.0830  213.0610  154.9260 C   0  0  0  0  0  2  0  0  0  0  0  0
  154.7050  211.0530  156.3750 C   0  0  0  0  0  3  0  0  0  0  0  0
  157.5090  211.0880  156.1350 C   0  0  0  0  0  0  0  0  0  0  0  0
  156.7220  210.3350  155.2460 C   0  0  0  0  0  3  0  0  0  0  0  0
  155.3300  210.3150  155.3670 C   0  0  0  0  0  3  0  0  0  0  0  0
  155.4730  211.8120  157.2600 C   0  0  0  0  0  3  0  0  0  0  0  0
  156.8650  211.8310  157.1390 C   0  0  0  0  0  3  0  0  0  0  0  0
  160.7540  212.2910  157.2230 C   0  0  0  0  0  2  0  0  0  0  0  0
  161.8490  211.6960  156.5960 O   0  0  0  0  0  1  0  0  0  0  0  0
  1 26  1  1  0  0  0
  2  6  1  6  0  0  0
  2 12  1  0  0  0  0
  4 14  1  0  0  0  0
  5 13  1  0  0  0  0
  7 15  1  0  0  0  0
  9  7  2  0  0  0  0
  9 13  1  0  0  0  0
 11  3  1  6  0  0  0
 11  2  1  0  0  0  0
 12 21  1  0  0  0  0
 12  1  1  0  0  0  0
 13  4  2  0  0  0  0
 14 17  1  0  0  0  0
 15 11  1  0  0  0  0
 15 14  2  0  0  0  0
 16  8  1  6  0  0  0
 16  3  1  0  0  0  0
 16 18  1  0  0  0  0
 17  6  1  0  0  0  0
 18 10  1  6  0  0  0
 18 19  1  0  0  0  0
 19  1  1  0  0  0  0
 20 24  1  0  0  0  0
 21 25  1  0  0  0  0
 22 23  1  0  0  0  0
 22 21  2  0  0  0  0
 23 20  2  0  0  0  0
 25 24  2  0  0  0  0
 27 26  1  0  0  0  0
M  END
>  <MODEL>
3

>  <REMARK>
 VINA RESULT:      -3.9     13.143     15.611
  Name = 
  2 active torsions:
  status: ('A' for Active; 'I' for Inactive)
    1  A    between atoms: C_1  and  C_18
    2  A    between atoms: C_9  and  N_15
                            x       y       z     vdW  Elec       q    Type
                         _______ _______ _______ _____ _____    ______ ____

>  <TORSDO>
F 2

$$$$
=
 OpenBabel11052423103D

 27 30  0  0  1  0  0  0  0  0999 V2000
  161.7930  210.3890  155.3170 C   0  0  2  0  0  3  0  0  0  0  0  0
  161.6980  210.6460  152.8020 C   0  0  1  0  0  3  0  0  0  0  0  0
  159.1420  210.8150  152.9240 C   0  0  0  0  0  2  0  0  0  0  0  0
  161.2120  212.6450  149.0680 C   0  0  0  0  0  3  0  0  0  0  0  0
  160.3160  214.4530  147.7470 O   0  0  0  0  0  1  0  0  0  0  0  0
  162.0720  209.8970  151.5190 C   0  0  0  0  0  2  0  0  0  0  0  0
  159.5530  213.3850  151.1940 C   0  0  0  0  0  3  0  0  0  0  0  0
  157.2070  210.8840  154.2990 O   0  0  0  0  0  1  0  0  0  0  0  0
  159.5190  214.1040  149.9960 C   0  0  0  0  0  3  0  0  0  0  0  0
  158.5540  210.9050  156.6130 F   0  0  0  0  0  0  0  0  0  0  0  0
  160.4510  211.5430  152.6440 C   0  0  2  0  0  3  0  0  0  0  0  0
  161.6300  209.7750  153.9940 N   0  0  0  0  0  0  0  0  0  0  0  0
  160.3480  213.7350  148.9350 C   0  0  0  0  0  0  0  0  0  0  0  0
  161.2420  211.9140  150.2600 C   0  0  0  0  0  0  0  0  0  0  0  0
  160.4100  212.2870  151.3350 C   0  0  0  0  0  0  0  0  0  0  0  0
  158.5460  211.2750  154.2530 C   0  0  1  0  0  3  0  0  0  0  0  0
  162.1520  210.8200  150.3950 N   0  0  0  0  0  2  0  0  0  0  0  0
  159.2920  210.6960  155.4620 C   0  0  1  0  0  3  0  0  0  0  0  0
  160.6540  211.3600  155.6330 C   0  0  0  0  0  2  0  0  0  0  0  0
  160.4560  205.6810  153.8370 C   0  0  0  0  0  3  0  0  0  0  0  0
  161.2130  208.3900  153.9480 C   0  0  0  0  0  0  0  0  0  0  0  0
  160.8070  207.7090  155.1100 C   0  0  0  0  0  3  0  0  0  0  0  0
  160.4290  206.3650  155.0550 C   0  0  0  0  0  3  0  0  0  0  0  0
  160.8630  206.3410  152.6760 C   0  0  0  0  0  3  0  0  0  0  0  0
  161.2420  207.6860  152.7330 C   0  0  0  0  0  3  0  0  0  0  0  0
  163.1440  211.0780  155.4320 C   0  0  0  0  0  2  0  0  0  0  0  0
  163.6730  210.8800  156.7080 O   0  0  0  0  0  1  0  0  0  0  0  0
  1 26  1  6  0  0  0
  1 19  1  0  0  0  0
  2  6  1  6  0  0  0
  2 12  1  0  0  0  0
  3 16  1  0  0  0  0
  4 14  1  0  0  0  0
  5 13  1  0  0  0  0
  7 15  1  0  0  0  0
  9  7  2  0  0  0  0
 11  2  1  0  0  0  0
 11  3  1  6  0  0  0
 12  1  1  0  0  0  0
 13  4  2  0  0  0  0
 13  9  1  0  0  0  0
 14 17  1  0  0  0  0
 14 15  2  0  0  0  0
 15 11  1  0  0  0  0
 16  8  1  6  0  0  0
 16 18  1  0  0  0  0
 17  6  1  0  0  0  0
 18 19  1  0  0  0  0
 18 10  1  1  0  0  0
 20 23  1  0  0  0  0
 21 12  1  0  0  0  0
 21 22  1  0  0  0  0
 23 22  2  0  0  0  0
 24 25  1  0  0  0  0
 24 20  2  0  0  0  0
 25 21  2  0  0  0  0
 26 27  1  0  0  0  0
M  END
>  <MODEL>
4

>  <REMARK>
 VINA RESULT:      -3.7     10.225     14.256
  Name = 
  2 active torsions:
  status: ('A' for Active; 'I' for Inactive)
    1  A    between atoms: C_1  and  C_18
    2  A    between atoms: C_9  and  N_15
                            x       y       z     vdW  Elec       q    Type
                         _______ _______ _______ _____ _____    ______ ____

>  <TORSDO>
F 2

$$$$
=
 OpenBabel11052423103D

 27 30  0  0  1  0  0  0  0  0999 V2000
  162.0040  210.6320  140.0870 C   0  0  2  0  0  3  0  0  0  0  0  0
  159.9030  212.0130  140.3790 C   0  0  1  0  0  3  0  0  0  0  0  0
  160.8460  213.7710  138.7670 C   0  0  0  0  0  2  0  0  0  0  0  0
  156.1360  213.7120  139.3340 C   0  0  0  0  0  3  0  0  0  0  0  0
  154.5380  214.4360  137.6790 O   0  0  0  0  0  1  0  0  0  0  0  0
  159.1020  212.7360  141.4660 C   0  0  0  0  0  2  0  0  0  0  0  0
  158.0820  213.4720  137.3390 C   0  0  0  0  0  3  0  0  0  0  0  0
  162.6120  214.4070  137.3130 O   0  0  0  0  0  1  0  0  0  0  0  0
  156.7920  213.8980  137.0110 C   0  0  0  0  0  3  0  0  0  0  0  0
  163.9650  212.1090  137.5550 F   0  0  0  0  0  0  0  0  0  0  0  0
  159.7990  212.6880  138.9940 C   0  0  2  0  0  3  0  0  0  0  0  0
  161.2980  211.7230  140.7710 N   0  0  0  0  0  0  0  0  0  0  0  0
  155.8200  214.0170  138.0070 C   0  0  0  0  0  0  0  0  0  0  0  0
  157.4290  213.2980  139.6700 C   0  0  0  0  0  0  0  0  0  0  0  0
  158.4110  213.1710  138.6670 C   0  0  0  0  0  0  0  0  0  0  0  0
  161.9030  213.2960  137.7730 C   0  0  1  0  0  3  0  0  0  0  0  0
  157.7310  212.9590  141.0250 N   0  0  0  0  0  2  0  0  0  0  0  0
  162.8770  212.2860  138.3910 C   0  0  1  0  0  3  0  0  0  0  0  0
  162.2020  210.9340  138.6000 C   0  0  0  0  0  2  0  0  0  0  0  0
  163.6210  214.1860  143.3610 C   0  0  0  0  0  3  0  0  0  0  0  0
  162.0770  212.5760  141.6440 C   0  0  0  0  0  0  0  0  0  0  0  0
  162.8660  213.6220  141.1320 C   0  0  0  0  0  3  0  0  0  0  0  0
  163.6310  214.4230  141.9840 C   0  0  0  0  0  3  0  0  0  0  0  0
  162.8480  213.1470  143.8840 C   0  0  0  0  0  3  0  0  0  0  0  0
  162.0840  212.3460  143.0300 C   0  0  0  0  0  3  0  0  0  0  0  0
  161.2760  209.3110  140.2820 C   0  0  0  0  0  2  0  0  0  0  0  0
  160.8150  208.8360  139.0530 O   0  0  0  0  0  1  0  0  0  0  0  0
  1 26  1  6  0  0  0
  1 12  1  0  0  0  0
  2 12  1  0  0  0  0
  2  6  1  1  0  0  0
  4 14  1  0  0  0  0
  5 13  1  0  0  0  0
  7 15  1  0  0  0  0
  9  7  2  0  0  0  0
  9 13  1  0  0  0  0
 11  3  1  1  0  0  0
 11  2  1  0  0  0  0
 12 21  1  0  0  0  0
 13  4  2  0  0  0  0
 14 17  1  0  0  0  0
 15 11  1  0  0  0  0
 15 14  2  0  0  0  0
 16  8  1  1  0  0  0
 16 18  1  0  0  0  0
 16  3  1  0  0  0  0
 17  6  1  0  0  0  0
 18 10  1  6  0  0  0
 18 19  1  0  0  0  0
 19  1  1  0  0  0  0
 20 24  1  0  0  0  0
 21 25  1  0  0  0  0
 22 21  2  0  0  0  0
 22 23  1  0  0  0  0
 23 20  2  0  0  0  0
 25 24  2  0  0  0  0
 27 26  1  0  0  0  0
M  END
>  <MODEL>
5

>  <REMARK>
 VINA RESULT:      -3.1      2.504      5.985
  Name = 
  2 active torsions:
  status: ('A' for Active; 'I' for Inactive)
    1  A    between atoms: C_1  and  C_18
    2  A    between atoms: C_9  and  N_15
                            x       y       z     vdW  Elec       q    Type
                         _______ _______ _______ _____ _____    ______ ____

>  <TORSDO>
F 2

$$$$
=
 OpenBabel11052423103D

 27 30  0  0  1  0  0  0  0  0999 V2000
  159.3990  210.3050  154.7170 C   0  0  2  0  0  3  0  0  0  0  0  0
  160.9260  209.9100  152.7380 C   0  0  1  0  0  3  0  0  0  0  0  0
  161.5520  207.6130  153.6920 C   0  0  0  0  0  2  0  0  0  0  0  0
  162.2120  208.2350  149.0350 C   0  0  0  0  0  3  0  0  0  0  0  0
  162.1570  206.4750  147.3860 O   0  0  0  0  0  1  0  0  0  0  0  0
  162.1630  210.5040  152.0590 C   0  0  0  0  0  2  0  0  0  0  0  0
  160.8340  206.5880  150.8280 C   0  0  0  0  0  3  0  0  0  0  0  0
  161.2150  205.9980  155.3990 O   0  0  0  0  0  1  0  0  0  0  0  0
  161.1550  206.1190  149.5510 C   0  0  0  0  0  3  0  0  0  0  0  0
  159.2310  207.3320  156.6060 F   0  0  0  0  0  0  0  0  0  0  0  0
  160.8260  208.3760  152.5900 C   0  0  2  0  0  3  0  0  0  0  0  0
  160.7440  210.3640  154.1320 N   0  0  0  0  0  0  0  0  0  0  0  0
  161.8420  206.9420  148.6560 C   0  0  0  0  0  0  0  0  0  0  0  0
  161.9050  208.7050  150.3150 C   0  0  0  0  0  0  0  0  0  0  0  0
  161.2060  207.8800  151.2200 C   0  0  0  0  0  0  0  0  0  0  0  0
  160.5510  206.9690  154.6480 C   0  0  1  0  0  3  0  0  0  0  0  0
  162.2610  210.0400  150.6810 N   0  0  0  0  0  2  0  0  0  0  0  0
  159.9000  207.9900  155.5890 C   0  0  1  0  0  3  0  0  0  0  0  0
  158.9000  208.8630  154.8390 C   0  0  0  0  0  2  0  0  0  0  0  0
  163.9650  211.2270  156.7870 C   0  0  0  0  0  3  0  0  0  0  0  0
  161.8430  210.6730  155.0220 C   0  0  0  0  0  0  0  0  0  0  0  0
  163.1720  210.7030  154.5610 C   0  0  0  0  0  3  0  0  0  0  0  0
  164.2250  210.9800  155.4360 C   0  0  0  0  0  3  0  0  0  0  0  0
  162.6520  211.1950  157.2610 C   0  0  0  0  0  3  0  0  0  0  0  0
  161.5990  210.9160  156.3840 C   0  0  0  0  0  3  0  0  0  0  0  0
  158.4220  211.1520  153.9150 C   0  0  0  0  0  2  0  0  0  0  0  0
  158.5410  212.4930  154.2840 O   0  0  0  0  0  1  0  0  0  0  0  0
  1 26  1  6  0  0  0
  1 19  1  0  0  0  0
  2  6  1  1  0  0  0
  2 12  1  0  0  0  0
  3 16  1  0  0  0  0
  4 14  1  0  0  0  0
  5 13  1  0  0  0  0
  7 15  1  0  0  0  0
  9  7  2  0  0  0  0
 11  2  1  0  0  0  0
 11  3  1  1  0  0  0
 12  1  1  0  0  0  0
 12 21  1  0  0  0  0
 13  4  2  0  0  0  0
 13  9  1  0  0  0  0
 14 17  1  0  0  0  0
 14 15  2  0  0  0  0
 15 11  1  0  0  0  0
 16  8  1  1  0  0  0
 16 18  1  0  0  0  0
 17  6  1  0  0  0  0
 18 10  1  1  0  0  0
 19 18  1  0  0  0  0
 20 24  1  0  0  0  0
 21 25  1  0  0  0  0
 22 21  2  0  0  0  0
 22 23  1  0  0  0  0
 23 20  2  0  0  0  0
 25 24  2  0  0  0  0
 26 27  1  0  0  0  0
M  END
>  <MODEL>
6

>  <REMARK>
 VINA RESULT:      -2.9     11.027     15.051
  Name = 
  2 active torsions:
  status: ('A' for Active; 'I' for Inactive)
    1  A    between atoms: C_1  and  C_18
    2  A    between atoms: C_9  and  N_15
                            x       y       z     vdW  Elec       q    Type
                         _______ _______ _______ _____ _____    ______ ____

>  <TORSDO>
F 2

$$$$
=
 OpenBabel11052423103D

 27 30  0  0  1  0  0  0  0  0999 V2000
  160.7330  208.6900  154.4600 C   0  0  2  0  0  3  0  0  0  0  0  0
  159.4640  210.5100  155.6780 C   0  0  1  0  0  3  0  0  0  0  0  0
  159.9060  212.1120  153.7240 C   0  0  0  0  0  2  0  0  0  0  0  0
  156.2290  213.1490  156.5370 C   0  0  0  0  0  3  0  0  0  0  0  0
  154.2660  214.3700  155.8500 O   0  0  0  0  0  1  0  0  0  0  0  0
  159.5050  211.3150  156.9800 C   0  0  0  0  0  2  0  0  0  0  0  0
  156.8230  212.6080  153.8580 C   0  0  0  0  0  3  0  0  0  0  0  0
  160.8310  212.4170  151.5590 O   0  0  0  0  0  1  0  0  0  0  0  0
  155.6900  213.3580  154.1870 C   0  0  0  0  0  3  0  0  0  0  0  0
  161.5060  209.8480  151.2190 F   0  0  0  0  0  0  0  0  0  0  0  0
  158.8700  211.2990  154.4910 C   0  0  2  0  0  3  0  0  0  0  0  0
  160.7500  209.8600  155.3460 N   0  0  0  0  0  0  0  0  0  0  0  0
  155.3940  213.6280  155.5250 C   0  0  0  0  0  0  0  0  0  0  0  0
  157.3700  212.4080  156.2140 C   0  0  0  0  0  0  0  0  0  0  0  0
  157.6700  212.1290  154.8650 C   0  0  0  0  0  0  0  0  0  0  0  0
  160.1860  211.4770  152.3640 C   0  0  1  0  0  3  0  0  0  0  0  0
  158.2000  211.8980  157.2600 N   0  0  0  0  0  2  0  0  0  0  0  0
  161.0490  210.2150  152.4730 C   0  0  1  0  0  3  0  0  0  0  0  0
  160.2490  209.0540  153.0540 C   0  0  0  0  0  2  0  0  0  0  0  0
  164.5430  211.5660  156.2780 C   0  0  0  0  0  3  0  0  0  0  0  0
  162.0400  210.4260  155.6780 C   0  0  0  0  0  0  0  0  0  0  0  0
  162.3080  210.9360  156.9610 C   0  0  0  0  0  3  0  0  0  0  0  0
  163.5510  211.5000  157.2600 C   0  0  0  0  0  3  0  0  0  0  0  0
  164.2900  211.0710  154.9980 C   0  0  0  0  0  3  0  0  0  0  0  0
  163.0460  210.5070  154.6990 C   0  0  0  0  0  3  0  0  0  0  0  0
  159.8890  207.5730  155.0530 C   0  0  0  0  0  2  0  0  0  0  0  0
  160.3600  207.2450  156.3250 O   0  0  0  0  0  1  0  0  0  0  0  0
  1 26  1  1  0  0  0
  1 12  1  0  0  0  0
  2  6  1  1  0  0  0
  6 17  1  0  0  0  0
  7  9  2  0  0  0  0
  7 15  1  0  0  0  0
  9 13  1  0  0  0  0
 11  3  1  1  0  0  0
 11 15  1  0  0  0  0
 11  2  1  0  0  0  0
 12 21  1  0  0  0  0
 12  2  1  0  0  0  0
 13  5  1  0  0  0  0
 13  4  2  0  0  0  0
 14  4  1  0  0  0  0
 14 17  1  0  0  0  0
 15 14  2  0  0  0  0
 16  8  1  6  0  0  0
 16 18  1  0  0  0  0
 16  3  1  0  0  0  0
 18 10  1  6  0  0  0
 18 19  1  0  0  0  0
 19  1  1  0  0  0  0
 20 23  1  0  0  0  0
 21 22  1  0  0  0  0
 22 23  2  0  0  0  0
 24 20  2  0  0  0  0
 25 24  1  0  0  0  0
 25 21  2  0  0  0  0
 26 27  1  0  0  0  0
M  END
>  <MODEL>
7

>  <REMARK>
 VINA RESULT:      -1.6     12.935     15.871
  Name = 
  2 active torsions:
  status: ('A' for Active; 'I' for Inactive)
    1  A    between atoms: C_1  and  C_18
    2  A    between atoms: C_9  and  N_15
                            x       y       z     vdW  Elec       q    Type
                         _______ _______ _______ _____ _____    ______ ____

>  <TORSDO>
F 2

$$$$
