=
 OpenBabel11052423133D

 27 31  0  0  1  0  0  0  0  0999 V2000
  161.9850  208.3650  148.2650 N   0  0  0  0  0  0  0  0  0  0  0  0
  161.6090  209.3290  150.5240 C   0  0  0  0  0  0  0  0  0  0  0  0
  161.2320  206.8200  150.6090 N   0  0  0  0  0  0  0  0  0  0  0  0
  161.0420  209.4410  154.6290 C   0  0  0  0  0  3  0  0  0  0  0  0
  160.5970  208.3490  156.7680 F   0  0  0  0  0  0  0  0  0  0  0  0
  161.6580  210.4780  151.2620 N   0  0  0  0  0  0  0  0  0  0  0  0
  160.8710  206.8620  153.3650 C   0  0  0  0  0  3  0  0  0  0  0  0
  161.4480  204.3040  148.0800 C   0  0  0  0  0  0  0  0  0  0  0  0
  160.6900  207.0430  154.8480 C   0  0  0  0  0  3  0  0  0  0  0  0
  161.2370  202.8370  147.9720 C   0  0  0  0  0  1  0  0  0  0  0  0
  161.1560  208.1500  152.6140 C   0  0  0  0  0  0  0  0  0  0  0  0
  161.8310  209.4470  149.1900 C   0  0  0  0  0  0  0  0  0  0  0  0
  160.7690  208.2390  155.4290 C   0  0  0  0  0  0  0  0  0  0  0  0
  161.2200  209.3730  153.3080 C   0  0  2  0  0  3  0  0  0  0  0  0
  161.8340  207.0810  148.2990 C   0  0  0  0  0  0  0  0  0  0  0  0
  161.3520  208.1120  151.2130 C   0  0  0  0  0  0  0  0  0  0  0  0
  161.2240  204.9550  149.2910 C   0  0  0  0  0  3  0  0  0  0  0  0
  161.4750  210.5320  152.6010 C   0  0  0  0  0  3  0  0  0  0  0  0
  161.8810  205.0310  146.9770 C   0  0  0  0  0  3  0  0  0  0  0  0
  162.0680  206.4070  147.0920 C   0  0  0  0  0  3  0  0  0  0  0  0
  161.4180  206.3380  149.4240 C   0  0  0  0  0  0  0  0  0  0  0  0
  162.4300  213.2480  147.3380 C   0  0  0  0  0  3  0  0  0  0  0  0
  162.0060  210.7880  148.5700 C   0  0  0  0  0  0  0  0  0  0  0  0
  160.9470  211.4450  147.9270 C   0  0  0  0  0  3  0  0  0  0  0  0
  161.1540  212.6810  147.3140 C   0  0  0  0  0  3  0  0  0  0  0  0
  163.4550  212.5940  147.9490 N   0  0  0  0  0  0  0  0  0  0  0  0
  163.2720  211.3890  148.5520 C   0  0  0  0  0  3  0  0  0  0  0  0
  1 15  2  0  0  0  0
  1 12  1  0  0  0  0
  2 16  1  0  0  0  0
  2  6  1  0  0  0  0
  3 16  1  0  0  0  0
  4 13  2  0  0  0  0
  6 18  2  0  0  0  0
  7  9  2  0  0  0  0
  8 17  2  0  0  0  0
  9 13  1  0  0  0  0
 10  8  1  0  0  0  0
 11 14  1  0  0  0  0
 11  7  1  0  0  0  0
 12  2  2  0  0  0  0
 13  5  1  0  0  0  0
 14 18  1  1  0  0  0
 14  4  1  0  0  0  0
 15 21  1  0  0  0  0
 16 11  2  0  0  0  0
 17 21  1  0  0  0  0
 19 20  2  0  0  0  0
 19  8  1  0  0  0  0
 20 15  1  0  0  0  0
 21  3  2  0  0  0  0
 22 26  1  0  0  0  0
 23 12  1  0  0  0  0
 24 23  2  0  0  0  0
 25 22  2  0  0  0  0
 25 24  1  0  0  0  0
 26 27  2  0  0  0  0
 27 23  1  0  0  0  0
M  END
>  <MODEL>
1

>  <REMARK>
 VINA RESULT:      -9.2      0.000      0.000
  Name = 
  1 active torsions:
  status: ('A' for Active; 'I' for Inactive)
    1  A    between atoms: C_9  and  C_15
                            x       y       z     vdW  Elec       q    Type
                         _______ _______ _______ _____ _____    ______ ____

>  <TORSDO>
F 1

$$$$
=
 OpenBabel11052423133D

 27 31  0  0  1  0  0  0  0  0999 V2000
  161.3930  210.3140  151.7290 N   0  0  0  0  0  0  0  0  0  0  0  0
  161.5850  208.7070  149.8440 C   0  0  0  0  0  0  0  0  0  0  0  0
  161.2960  207.4230  152.0140 N   0  0  0  0  0  0  0  0  0  0  0  0
  161.4110  205.0960  147.8140 C   0  0  0  0  0  3  0  0  0  0  0  0
  161.1720  202.6660  147.7680 F   0  0  0  0  0  0  0  0  0  0  0  0
  161.6960  208.5980  148.4860 N   0  0  0  0  0  0  0  0  0  0  0  0
  161.1520  204.9900  150.6780 C   0  0  0  0  0  3  0  0  0  0  0  0
  160.9120  208.5320  155.3910 C   0  0  0  0  0  0  0  0  0  0  0  0
  161.1010  203.7540  149.8210 C   0  0  0  0  0  3  0  0  0  0  0  0
  160.7620  207.9190  156.7360 C   0  0  0  0  0  1  0  0  0  0  0  0
  161.3410  206.2780  149.8970 C   0  0  0  0  0  0  0  0  0  0  0  0
  161.6460  209.9590  150.3650 C   0  0  0  0  0  0  0  0  0  0  0  0
  161.2230  203.8070  148.4960 C   0  0  0  0  0  0  0  0  0  0  0  0
  161.4630  206.2430  148.4960 C   0  0  0  0  0  0  0  0  0  0  0  0
  161.2060  209.6770  152.8390 C   0  0  2  0  0  3  0  0  0  0  0  0
  161.3980  207.5110  150.5890 C   0  0  0  0  0  0  0  0  0  0  0  0
  161.0710  207.7240  154.2670 C   0  0  0  0  0  3  0  0  0  0  0  0
  161.6420  207.4280  147.8090 C   0  0  0  0  0  3  0  0  0  0  0  0
  160.8830  209.9140  155.2450 C   0  0  0  0  0  3  0  0  0  0  0  0
  161.0320  210.4750  153.9790 C   0  0  0  0  0  3  0  0  0  0  0  0
  161.2110  208.2730  152.9850 C   0  0  0  0  0  0  0  0  0  0  0  0
  162.4580  213.3910  147.9570 C   0  0  0  0  0  3  0  0  0  0  0  0
  161.9300  211.1280  149.4900 C   0  0  0  0  0  0  0  0  0  0  0  0
  163.0550  211.1650  148.6530 C   0  0  0  0  0  3  0  0  0  0  0  0
  163.3200  212.2950  147.8790 C   0  0  0  0  0  3  0  0  0  0  0  0
  161.3800  213.3530  148.7850 N   0  0  0  0  0  0  0  0  0  0  0  0
  161.1050  212.2600  149.5470 C   0  0  0  0  0  3  0  0  0  0  0  0
  1 15  1  0  0  0  0
  2 12  1  0  0  0  0
  2 16  1  0  0  0  0
  3 21  2  0  0  0  0
  4 14  1  0  0  0  0
  4 13  2  0  0  0  0
  5 13  1  0  0  0  0
  6  2  2  0  0  0  0
  8 10  1  0  0  0  0
  9  7  2  0  0  0  0
 11 16  2  0  0  0  0
 11  7  1  0  0  0  0
 12  1  2  0  0  0  0
 13  9  1  0  0  0  0
 14 11  1  0  0  0  0
 15 21  1  0  0  0  0
 15 20  1  1  0  0  0
 16  3  1  0  0  0  0
 17  8  2  0  0  0  0
 18  6  1  0  0  0  0
 18 14  2  0  0  0  0
 19  8  1  0  0  0  0
 20 19  2  0  0  0  0
 21 17  1  0  0  0  0
 22 26  1  0  0  0  0
 23 27  1  0  0  0  0
 23 12  1  0  0  0  0
 24 23  2  0  0  0  0
 25 22  2  0  0  0  0
 25 24  1  0  0  0  0
 26 27  2  0  0  0  0
M  END
>  <MODEL>
2

>  <REMARK>
 VINA RESULT:      -8.8      2.301      5.566
  Name = 
  1 active torsions:
  status: ('A' for Active; 'I' for Inactive)
    1  A    between atoms: C_9  and  C_15
                            x       y       z     vdW  Elec       q    Type
                         _______ _______ _______ _____ _____    ______ ____

>  <TORSDO>
F 1

$$$$
=
 OpenBabel11052423133D

 27 31  0  0  0  0  0  0  0  0999 V2000
  161.5440  208.7850  152.5100 N   0  0  0  0  0  0  0  0  0  0  0  0
  161.1520  206.3400  152.3110 C   0  0  0  0  0  0  0  0  0  0  0  0
  161.3850  207.3430  149.9910 N   0  0  0  0  0  0  0  0  0  0  0  0
  160.9380  202.5940  150.5480 C   0  0  0  0  0  3  0  0  0  0  0  0
  160.9540  201.1370  148.5880 F   0  0  0  0  0  0  0  0  0  0  0  0
  160.9930  205.1800  153.0180 N   0  0  0  0  0  0  0  0  0  0  0  0
  161.2690  204.8430  148.7830 C   0  0  0  0  0  2  0  0  0  0  0  0
  161.9650  210.7000  148.9090 C   0  0  0  0  0  0  0  0  0  0  0  0
  161.1820  203.4290  148.2750 C   0  0  0  0  0  3  0  0  0  0  0  0
  162.0970  211.4300  147.6210 C   0  0  0  0  0  1  0  0  0  0  0  0
  161.1750  204.9650  150.2940 C   0  0  0  0  0  0  0  0  0  0  0  0
  161.2200  207.4900  153.0290 C   0  0  0  0  0  0  0  0  0  0  0  0
  161.0280  202.3910  149.0950 C   0  0  0  0  0  0  0  0  0  0  0  0
  161.0110  203.8140  151.0860 C   0  0  0  0  0  0  0  0  0  0  0  0
  161.7030  209.3070  151.3380 C   0  0  0  0  0  0  0  0  0  0  0  0
  161.2500  206.2430  150.8970 C   0  0  0  0  0  0  0  0  0  0  0  0
  161.7010  209.3320  148.9140 C   0  0  0  0  0  3  0  0  0  0  0  0
  160.9210  203.9510  152.4580 C   0  0  0  0  0  3  0  0  0  0  0  0
  162.1150  211.3760  150.1140 C   0  0  0  0  0  3  0  0  0  0  0  0
  161.9820  210.6810  151.3140 C   0  0  0  0  0  3  0  0  0  0  0  0
  161.5750  208.6160  150.1130 C   0  0  0  0  0  0  0  0  0  0  0  0
  160.6540  207.5710  157.2610 C   0  0  0  0  0  3  0  0  0  0  0  0
  161.0190  207.4730  154.5020 C   0  0  0  0  0  0  0  0  0  0  0  0
  159.8820  206.8930  155.0840 C   0  0  0  0  0  3  0  0  0  0  0  0
  159.6990  206.9340  156.4660 C   0  0  0  0  0  3  0  0  0  0  0  0
  161.7440  208.1480  156.6860 N   0  0  0  0  0  0  0  0  0  0  0  0
  161.9400  208.1170  155.3400 C   0  0  0  0  0  3  0  0  0  0  0  0
  1 12  1  0  0  0  0
  2  6  1  0  0  0  0
  2 12  2  0  0  0  0
  3 21  2  0  0  0  0
  3 16  1  0  0  0  0
  4 14  2  0  0  0  0
  5 13  1  0  0  0  0
  7 11  1  0  0  0  0
  8 17  2  0  0  0  0
  8 19  1  0  0  0  0
  9  7  1  0  0  0  0
  9 13  2  0  0  0  0
 10  8  1  0  0  0  0
 11 16  2  0  0  0  0
 11 14  1  0  0  0  0
 12 23  1  0  0  0  0
 13  4  1  0  0  0  0
 14 18  1  0  0  0  0
 15  1  2  0  0  0  0
 16  2  1  0  0  0  0
 17 21  1  0  0  0  0
 18  6  2  0  0  0  0
 19 20  2  0  0  0  0
 20 15  1  0  0  0  0
 21 15  1  0  0  0  0
 23 24  2  0  0  0  0
 23 27  1  0  0  0  0
 24 25  1  0  0  0  0
 25 22  2  0  0  0  0
 26 22  1  0  0  0  0
 27 26  2  0  0  0  0
M  END
>  <MODEL>
3

>  <REMARK>
 VINA RESULT:      -8.5      2.811      6.918
  Name = 
  1 active torsions:
  status: ('A' for Active; 'I' for Inactive)
    1  A    between atoms: C_9  and  C_15
                            x       y       z     vdW  Elec       q    Type
                         _______ _______ _______ _____ _____    ______ ____

>  <TORSDO>
F 1

$$$$
=
 OpenBabel11052423133D

 27 31  0  0  1  0  0  0  0  0999 V2000
  160.9650  206.1210  153.1900 N   0  0  0  0  0  0  0  0  0  0  0  0
  161.3820  207.1070  150.9480 C   0  0  0  0  0  0  0  0  0  0  0  0
  161.0290  208.9730  152.6320 N   0  0  0  0  0  0  0  0  0  0  0  0
  162.2320  209.9930  148.0960 C   0  0  0  0  0  3  0  0  0  0  0  0
  162.5230  212.3200  147.4130 F   0  0  0  0  0  0  0  0  0  0  0  0
  161.6890  206.8170  149.6480 N   0  0  0  0  0  0  0  0  0  0  0  0
  161.6180  210.9280  150.7470 C   0  0  0  0  0  3  0  0  0  0  0  0
  160.3550  208.9010  156.1420 C   0  0  0  0  0  0  0  0  0  0  0  0
  161.9500  211.8700  149.6200 C   0  0  0  0  0  3  0  0  0  0  0  0
  160.1040  209.8810  157.2300 C   0  0  0  0  0  1  0  0  0  0  0  0
  161.6470  209.4610  150.3580 C   0  0  0  0  0  0  0  0  0  0  0  0
  161.1420  206.0540  151.7700 C   0  0  0  0  0  0  0  0  0  0  0  0
  162.2320  211.4330  148.3940 C   0  0  0  0  0  0  0  0  0  0  0  0
  161.9540  209.0870  149.0370 C   0  0  0  0  0  0  0  0  0  0  0  0
  160.8210  207.0590  154.0680 C   0  0  2  0  0  3  0  0  0  0  0  0
  161.3600  208.4750  151.3310 C   0  0  0  0  0  0  0  0  0  0  0  0
  160.5580  209.3420  154.8360 C   0  0  0  0  0  3  0  0  0  0  0  0
  161.9680  207.7460  148.7050 C   0  0  0  0  0  3  0  0  0  0  0  0
  160.3980  207.5400  156.4220 C   0  0  0  0  0  3  0  0  0  0  0  0
  160.6270  206.6320  155.3900 C   0  0  0  0  0  3  0  0  0  0  0  0
  160.8000  208.4420  153.7890 C   0  0  0  0  0  0  0  0  0  0  0  0
  160.9700  202.0420  150.3170 C   0  0  0  0  0  3  0  0  0  0  0  0
  161.1130  204.6680  151.2330 C   0  0  0  0  0  0  0  0  0  0  0  0
  160.8010  204.4050  149.8900 C   0  0  0  0  0  3  0  0  0  0  0  0
  160.7350  203.0910  149.4260 C   0  0  0  0  0  3  0  0  0  0  0  0
  161.2530  202.3060  151.6210 N   0  0  0  0  0  0  0  0  0  0  0  0
  161.3220  203.5800  152.0920 C   0  0  0  0  0  3  0  0  0  0  0  0
  1 15  1  0  0  0  0
  2 16  1  0  0  0  0
  2 12  1  0  0  0  0
  3 21  2  0  0  0  0
  4 13  2  0  0  0  0
  4 14  1  0  0  0  0
  5 13  1  0  0  0  0
  6  2  2  0  0  0  0
  8 19  1  0  0  0  0
  8 10  1  0  0  0  0
  9  7  2  0  0  0  0
 11  7  1  0  0  0  0
 11 16  2  0  0  0  0
 12  1  2  0  0  0  0
 13  9  1  0  0  0  0
 14 11  1  0  0  0  0
 15 20  1  6  0  0  0
 16  3  1  0  0  0  0
 17  8  2  0  0  0  0
 18 14  2  0  0  0  0
 18  6  1  0  0  0  0
 20 19  2  0  0  0  0
 21 15  1  0  0  0  0
 21 17  1  0  0  0  0
 22 26  1  0  0  0  0
 23 12  1  0  0  0  0
 23 27  1  0  0  0  0
 24 23  2  0  0  0  0
 25 24  1  0  0  0  0
 25 22  2  0  0  0  0
 26 27  2  0  0  0  0
M  END
>  <MODEL>
4

>  <REMARK>
 VINA RESULT:      -7.7      2.738      7.334
  Name = 
  1 active torsions:
  status: ('A' for Active; 'I' for Inactive)
    1  A    between atoms: C_9  and  C_15
                            x       y       z     vdW  Elec       q    Type
                         _______ _______ _______ _____ _____    ______ ____

>  <TORSDO>
F 1

$$$$
=
 OpenBabel11052423133D

 27 31  0  0  0  0  0  0  0  0999 V2000
  160.8110  205.5850  152.6580 N   0  0  0  0  0  0  0  0  0  0  0  0
  161.2950  207.9840  152.2330 C   0  0  0  0  0  0  0  0  0  0  0  0
  161.5170  206.6860  150.0630 N   0  0  0  0  0  0  0  0  0  0  0  0
  161.9570  211.4690  150.0880 C   0  0  0  0  0  3  0  0  0  0  0  0
  162.3790  212.6580  147.9970 F   0  0  0  0  0  0  0  0  0  0  0  0
  161.3340  209.2260  152.8030 N   0  0  0  0  0  0  0  0  0  0  0  0
  161.9400  209.0090  148.5950 C   0  0  0  0  0  2  0  0  0  0  0  0
  161.0890  203.2160  149.3220 C   0  0  0  0  0  0  0  0  0  0  0  0
  162.1640  210.3450  147.9390 C   0  0  0  0  0  3  0  0  0  0  0  0
  161.2060  202.3250  148.1390 C   0  0  0  0  0  1  0  0  0  0  0  0
  161.7190  209.0850  150.0960 C   0  0  0  0  0  0  0  0  0  0  0  0
  161.0520  206.9370  153.0620 C   0  0  0  0  0  0  0  0  0  0  0  0
  162.1720  211.4810  148.6340 C   0  0  0  0  0  0  0  0  0  0  0  0
  161.7460  210.3290  150.7510 C   0  0  0  0  0  0  0  0  0  0  0  0
  160.8820  204.9150  151.5540 C   0  0  0  0  0  0  0  0  0  0  0  0
  161.4910  207.8960  150.8280 C   0  0  0  0  0  0  0  0  0  0  0  0
  161.3800  204.5740  149.2070 C   0  0  0  0  0  3  0  0  0  0  0  0
  161.5490  210.3720  152.1180 C   0  0  0  0  0  3  0  0  0  0  0  0
  160.6790  202.7020  150.5470 C   0  0  0  0  0  3  0  0  0  0  0  0
  160.5800  203.5480  151.6490 C   0  0  0  0  0  3  0  0  0  0  0  0
  161.2750  205.4400  150.3050 C   0  0  0  0  0  0  0  0  0  0  0  0
  160.7670  207.6630  157.2610 C   0  0  0  0  0  3  0  0  0  0  0  0
  160.9480  207.1460  154.5310 C   0  0  0  0  0  0  0  0  0  0  0  0
  159.8350  206.7020  155.2600 C   0  0  0  0  0  3  0  0  0  0  0  0
  159.7430  206.9540  156.6290 C   0  0  0  0  0  3  0  0  0  0  0  0
  161.8330  208.1060  156.5420 N   0  0  0  0  0  0  0  0  0  0  0  0
  161.9400  207.8700  155.2060 C   0  0  0  0  0  3  0  0  0  0  0  0
  1 12  1  0  0  0  0
  2  6  1  0  0  0  0
  2 12  2  0  0  0  0
  3 21  2  0  0  0  0
  3 16  1  0  0  0  0
  4 14  2  0  0  0  0
  5 13  1  0  0  0  0
  7 11  1  0  0  0  0
  8 19  1  0  0  0  0
  9  7  1  0  0  0  0
  9 13  2  0  0  0  0
 10  8  1  0  0  0  0
 11 14  1  0  0  0  0
 11 16  2  0  0  0  0
 12 23  1  0  0  0  0
 13  4  1  0  0  0  0
 14 18  1  0  0  0  0
 15 20  1  0  0  0  0
 15  1  2  0  0  0  0
 16  2  1  0  0  0  0
 17  8  2  0  0  0  0
 17 21  1  0  0  0  0
 18  6  2  0  0  0  0
 19 20  2  0  0  0  0
 21 15  1  0  0  0  0
 23 27  2  0  0  0  0
 23 24  1  0  0  0  0
 24 25  2  0  0  0  0
 25 22  1  0  0  0  0
 26 22  2  0  0  0  0
 27 26  1  0  0  0  0
M  END
>  <MODEL>
5

>  <REMARK>
 VINA RESULT:      -7.6      2.667      5.950
  Name = 
  1 active torsions:
  status: ('A' for Active; 'I' for Inactive)
    1  A    between atoms: C_9  and  C_15
                            x       y       z     vdW  Elec       q    Type
                         _______ _______ _______ _____ _____    ______ ____

>  <TORSDO>
F 1

$$$$
=
 OpenBabel11052423133D

 27 31  0  0  0  0  0  0  0  0999 V2000
  161.5600  209.4640  151.1500 N   0  0  0  0  0  0  0  0  0  0  0  0
  161.2970  207.0660  150.5560 C   0  0  0  0  0  0  0  0  0  0  0  0
  161.5810  208.4290  148.4340 N   0  0  0  0  0  0  0  0  0  0  0  0
  161.3430  203.6360  148.2270 C   0  0  0  0  0  3  0  0  0  0  0  0
  161.5150  202.5060  146.0690 F   0  0  0  0  0  0  0  0  0  0  0  0
  161.1650  205.8040  151.0660 N   0  0  0  0  0  0  0  0  0  0  0  0
  161.6400  206.1450  146.8500 C   0  0  0  0  0  2  0  0  0  0  0  0
  162.0420  211.9350  147.9130 C   0  0  0  0  0  0  0  0  0  0  0  0
  161.6440  204.8260  146.1250 C   0  0  0  0  0  3  0  0  0  0  0  0
  162.1940  212.8620  146.7610 C   0  0  0  0  0  1  0  0  0  0  0  0
  161.4750  206.0250  148.3550 C   0  0  0  0  0  0  0  0  0  0  0  0
  161.2790  208.0910  151.4450 C   0  0  0  0  0  0  0  0  0  0  0  0
  161.5050  203.6670  146.7670 C   0  0  0  0  0  0  0  0  0  0  0  0
  161.3330  204.7590  148.9500 C   0  0  0  0  0  0  0  0  0  0  0  0
  161.7440  210.1680  150.0810 C   0  0  0  0  0  0  0  0  0  0  0  0
  161.4610  207.1950  149.1500 C   0  0  0  0  0  0  0  0  0  0  0  0
  161.8450  210.5730  147.6940 C   0  0  0  0  0  3  0  0  0  0  0  0
  161.1780  204.6760  150.3200 C   0  0  0  0  0  3  0  0  0  0  0  0
  162.1070  212.4200  149.2140 C   0  0  0  0  0  3  0  0  0  0  0  0
  161.9560  211.5400  150.2840 C   0  0  0  0  0  3  0  0  0  0  0  0
  161.7030  209.6740  148.7600 C   0  0  0  0  0  0  0  0  0  0  0  0
  160.6410  207.3070  155.5940 C   0  0  0  0  0  3  0  0  0  0  0  0
  161.0150  207.8360  152.8870 C   0  0  0  0  0  0  0  0  0  0  0  0
  160.6510  208.8690  153.7630 C   0  0  0  0  0  3  0  0  0  0  0  0
  160.4560  208.6070  155.1190 C   0  0  0  0  0  3  0  0  0  0  0  0
  161.0120  206.3150  154.7400 N   0  0  0  0  0  0  0  0  0  0  0  0
  161.2060  206.5520  153.4150 C   0  0  0  0  0  3  0  0  0  0  0  0
  1 12  1  0  0  0  0
  2  6  1  0  0  0  0
  2 12  2  0  0  0  0
  3 21  2  0  0  0  0
  3 16  1  0  0  0  0
  4 14  2  0  0  0  0
  5 13  1  0  0  0  0
  7 11  1  0  0  0  0
  8 19  1  0  0  0  0
  9 13  2  0  0  0  0
  9  7  1  0  0  0  0
 10  8  1  0  0  0  0
 11 14  1  0  0  0  0
 11 16  2  0  0  0  0
 12 23  1  0  0  0  0
 13  4  1  0  0  0  0
 14 18  1  0  0  0  0
 15 20  1  0  0  0  0
 15  1  2  0  0  0  0
 16  2  1  0  0  0  0
 17  8  2  0  0  0  0
 17 21  1  0  0  0  0
 18  6  2  0  0  0  0
 19 20  2  0  0  0  0
 21 15  1  0  0  0  0
 23 27  2  0  0  0  0
 23 24  1  0  0  0  0
 24 25  2  0  0  0  0
 25 22  1  0  0  0  0
 26 22  2  0  0  0  0
 27 26  1  0  0  0  0
M  END
>  <MODEL>
6

>  <REMARK>
 VINA RESULT:      -7.0      2.674      6.989
  Name = 
  1 active torsions:
  status: ('A' for Active; 'I' for Inactive)
    1  A    between atoms: C_9  and  C_15
                            x       y       z     vdW  Elec       q    Type
                         _______ _______ _______ _____ _____    ______ ____

>  <TORSDO>
F 1

$$$$
=
 OpenBabel11052423133D

 27 31  0  0  0  0  0  0  0  0999 V2000
  161.5400  208.8380  148.4880 N   0  0  0  0  0  0  0  0  0  0  0  0
  161.4610  207.7250  150.7080 C   0  0  0  0  0  0  0  0  0  0  0  0
  161.6190  210.2370  151.0340 N   0  0  0  0  0  0  0  0  0  0  0  0
  161.0800  207.3280  154.8170 C   0  0  0  0  0  3  0  0  0  0  0  0
  160.9410  208.2750  157.0640 F   0  0  0  0  0  0  0  0  0  0  0  0
  161.3310  206.5210  151.3420 N   0  0  0  0  0  2  0  0  0  0  0  0
  161.3420  210.0030  153.7900 C   0  0  0  0  0  3  0  0  0  0  0  0
  161.7990  212.9250  148.6850 C   0  0  0  0  0  0  0  0  0  0  0  0
  161.1920  209.7190  155.2610 C   0  0  0  0  0  3  0  0  0  0  0  0
  161.9180  214.4060  148.7200 C   0  0  0  0  0  1  0  0  0  0  0  0
  161.3340  208.7620  152.9150 C   0  0  0  0  0  0  0  0  0  0  0  0
  161.5600  207.6980  149.3550 C   0  0  0  0  0  0  0  0  0  0  0  0
  161.0720  208.4790  155.7320 C   0  0  0  0  0  0  0  0  0  0  0  0
  161.2050  207.4890  153.4980 C   0  0  0  0  0  0  0  0  0  0  0  0
  161.5820  210.1220  148.6360 C   0  0  0  0  0  0  0  0  0  0  0  0
  161.4610  208.8970  151.5120 C   0  0  0  0  0  0  0  0  0  0  0  0
  161.7890  212.1960  149.8720 C   0  0  0  0  0  3  0  0  0  0  0  0
  161.2060  206.3740  152.6810 C   0  0  0  0  0  3  0  0  0  0  0  0
  161.6850  212.2610  147.4690 C   0  0  0  0  0  3  0  0  0  0  0  0
  161.5810  210.8720  147.4510 C   0  0  0  0  0  3  0  0  0  0  0  0
  161.6730  210.7980  149.8710 C   0  0  0  0  0  0  0  0  0  0  0  0
  161.8960  203.9870  147.2680 C   0  0  0  0  0  3  0  0  0  0  0  0
  161.6320  206.4010  148.6300 C   0  0  0  0  0  0  0  0  0  0  0  0
  161.0810  205.2270  149.1640 C   0  0  0  0  0  3  0  0  0  0  0  0
  161.2060  204.0170  148.4820 C   0  0  0  0  0  3  0  0  0  0  0  0
  162.4430  205.1280  146.7670 N   0  0  0  0  0  0  0  0  0  0  0  0
  162.3310  206.3170  147.4180 C   0  0  0  0  0  3  0  0  0  0  0  0
  1 15  2  0  0  0  0
  1 12  1  0  0  0  0
  2  6  1  0  0  0  0
  2 16  1  0  0  0  0
  3 16  1  0  0  0  0
  4 13  2  0  0  0  0
  6 18  1  0  0  0  0
  7  9  2  0  0  0  0
  8 10  1  0  0  0  0
  8 17  2  0  0  0  0
  9 13  1  0  0  0  0
 11 14  1  0  0  0  0
 11  7  1  0  0  0  0
 12  2  2  0  0  0  0
 13  5  1  0  0  0  0
 14  4  1  0  0  0  0
 15 21  1  0  0  0  0
 16 11  2  0  0  0  0
 18 14  2  0  0  0  0
 19  8  1  0  0  0  0
 20 19  2  0  0  0  0
 20 15  1  0  0  0  0
 21 17  1  0  0  0  0
 21  3  2  0  0  0  0
 22 25  1  0  0  0  0
 23 24  1  0  0  0  0
 23 12  1  0  0  0  0
 25 24  2  0  0  0  0
 26 22  2  0  0  0  0
 26 27  1  0  0  0  0
 27 23  2  0  0  0  0
M  END
>  <MODEL>
7

>  <REMARK>
 VINA RESULT:      -6.6      1.199      5.279
  Name = 
  1 active torsions:
  status: ('A' for Active; 'I' for Inactive)
    1  A    between atoms: C_9  and  C_15
                            x       y       z     vdW  Elec       q    Type
                         _______ _______ _______ _____ _____    ______ ____

>  <TORSDO>
F 1

$$$$
