=
 OpenBabel11062408133D

 32 37  0  0  1  0  0  0  0  0999 V2000
  161.3630  207.3530  150.2920 C   0  0  0  0  0  0  0  0  0  0  0  0
  161.1870  208.9490  152.1260 C   0  0  0  0  0  0  0  0  0  0  0  0
  161.5680  207.1080  148.8170 C   0  0  0  0  0  2  0  0  0  0  0  0
  161.4250  208.6680  150.7820 C   0  0  0  0  0  0  0  0  0  0  0  0
  161.2570  210.3160  152.5750 N   0  0  0  0  0  0  0  0  0  0  0  0
  160.7770  207.4140  156.8550 C   0  0  0  0  0  2  0  0  0  0  0  0
  160.9290  207.8990  153.0250 C   0  0  0  0  0  0  0  0  0  0  0  0
  161.0930  209.8470  156.3430 C   0  0  0  0  0  2  0  0  0  0  0  0
  161.4150  209.4950  154.8940 C   0  0  2  0  0  3  0  0  0  0  0  0
  161.8220  209.7630  149.8900 C   0  0  0  0  0  0  0  0  0  0  0  0
  161.0190  210.6500  153.9800 C   0  0  0  0  0  2  0  0  0  0  0  0
  161.7660  210.9990  150.2910 N   0  0  0  0  0  0  0  0  0  0  0  0
  162.3110  209.4470  148.5850 N   0  0  0  0  0  2  0  0  0  0  0  0
  160.8190  206.5890  152.5330 C   0  0  0  0  0  3  0  0  0  0  0  0
  161.0280  206.3070  151.1720 C   0  0  0  0  0  0  0  0  0  0  0  0
  160.6760  208.2120  154.4810 C   0  0  2  0  0  3  0  0  0  0  0  0
  161.2110  211.4080  151.5910 C   0  0  1  0  0  3  0  0  0  0  0  0
  162.6190  208.0610  148.2370 C   0  0  0  0  0  2  0  0  0  0  0  0
  161.4990  208.6970  157.2610 C   0  0  0  0  0  2  0  0  0  0  0  0
  161.0980  207.0650  155.4050 C   0  0  0  0  0  2  0  0  0  0  0  0
  161.4000  202.4420  151.2010 C   0  0  0  0  0  0  0  0  0  0  0  0
  159.8660  202.0040  147.9790 O   0  0  0  0  0  0  0  0  0  0  0  0
  162.0310  201.5650  151.8470 O   0  0  0  0  0  0  0  0  0  0  0  0
  161.3290  203.7620  148.5010 C   0  0  0  0  0  3  0  0  0  0  0  0
  160.9120  204.8910  150.6690 C   0  0  1  0  0  3  0  0  0  0  0  0
  160.5610  202.0270  150.1590 O   0  0  0  0  0  0  0  0  0  0  0  0
  161.5370  204.7930  149.3130 C   0  0  0  0  0  3  0  0  0  0  0  0
  161.4970  203.8730  151.6590 C   0  0  1  0  0  3  0  0  0  0  0  0
  160.8080  203.9950  153.0120 C   0  0  0  0  0  1  0  0  0  0  0  0
  160.5380  202.5820  148.8740 C   0  0  0  0  0  0  0  0  0  0  0  0
  159.7750  211.8780  151.4070 C   0  0  0  0  0  2  0  0  0  0  0  0
  159.7030  213.2610  151.5710 O   0  0  0  0  0  1  0  0  0  0  0  0
  1  4  2  0  0  0  0
  1 15  1  0  0  0  0
  2  5  1  0  0  0  0
  2  7  2  0  0  0  0
  3  1  1  0  0  0  0
  4  2  1  0  0  0  0
  5 11  1  0  0  0  0
  6 19  1  0  0  0  0
  7 16  1  0  0  0  0
  8 19  1  0  0  0  0
  9 11  1  6  0  0  0
  9  8  1  0  0  0  0
 10 12  2  0  0  0  0
 10  4  1  0  0  0  0
 12 17  1  0  0  0  0
 13 10  1  0  0  0  0
 14  7  1  0  0  0  0
 15 14  2  0  0  0  0
 16  9  1  0  0  0  0
 16 20  1  1  0  0  0
 17 31  1  6  0  0  0
 17  5  1  0  0  0  0
 18 13  1  0  0  0  0
 18  3  1  0  0  0  0
 20  6  1  0  0  0  0
 21 28  1  0  0  0  0
 21 23  2  0  0  0  0
 22 30  2  0  0  0  0
 24 30  1  0  0  0  0
 24 27  2  0  0  0  0
 25 15  1  1  0  0  0
 25 28  1  0  0  0  0
 26 21  1  0  0  0  0
 27 25  1  0  0  0  0
 28 29  1  1  0  0  0
 30 26  1  0  0  0  0
 31 32  1  0  0  0  0
M  END
>  <MODEL>
1

>  <REMARK>
 VINA RESULT:      -8.8      0.000      0.000
  Name = 
  2 active torsions:
  status: ('A' for Active; 'I' for Inactive)
    1  A    between atoms: C_13  and  C_29
    2  A    between atoms: C_16  and  C_27
                            x       y       z     vdW  Elec       q    Type
                         _______ _______ _______ _____ _____    ______ ____

>  <TORSDO>
F 2

$$$$
=
 OpenBabel11062408133D

 32 37  0  0  1  0  0  0  0  0999 V2000
  161.7100  207.6160  150.3270 C   0  0  0  0  0  0  0  0  0  0  0  0
  161.5670  205.5090  149.1090 C   0  0  0  0  0  0  0  0  0  0  0  0
  161.9890  209.0990  150.3000 C   0  0  0  0  0  2  0  0  0  0  0  0
  161.7620  206.8900  149.1260 C   0  0  0  0  0  0  0  0  0  0  0  0
  161.6380  204.8110  147.8500 N   0  0  0  0  0  0  0  0  0  0  0  0
  159.9510  201.3460  151.3320 C   0  0  0  0  0  2  0  0  0  0  0  0
  161.2630  204.8310  150.3020 C   0  0  0  0  0  0  0  0  0  0  0  0
  160.3640  201.3750  148.8600 C   0  0  0  0  0  2  0  0  0  0  0  0
  160.5040  202.8940  148.9070 C   0  0  2  0  0  3  0  0  0  0  0  0
  161.9480  207.5920  147.8520 C   0  0  0  0  0  0  0  0  0  0  0  0
  161.4320  203.3630  147.7920 C   0  0  0  0  0  2  0  0  0  0  0  0
  162.1220  206.9290  146.7470 N   0  0  0  0  0  0  0  0  0  0  0  0
  161.8930  209.0210  147.8380 N   0  0  0  0  0  2  0  0  0  0  0  0
  161.2560  205.5450  151.5110 C   0  0  0  0  0  3  0  0  0  0  0  0
  161.4830  206.9320  151.5350 C   0  0  0  0  0  0  0  0  0  0  0  0
  161.0490  203.3360  150.2740 C   0  0  2  0  0  3  0  0  0  0  0  0
  162.2590  205.4660  146.6890 C   0  0  1  0  0  3  0  0  0  0  0  0
  161.4380  209.7450  149.0240 C   0  0  0  0  0  2  0  0  0  0  0  0
  159.4250  200.9050  149.9680 C   0  0  0  0  0  2  0  0  0  0  0  0
  160.0950  202.8640  151.3770 C   0  0  0  0  0  2  0  0  0  0  0  0
  160.7300  207.5800  155.2880 C   0  0  0  0  0  0  0  0  0  0  0  0
  162.2450  210.8400  155.3030 O   0  0  0  0  0  0  0  0  0  0  0  0
  160.0080  207.0930  156.1970 O   0  0  0  0  0  0  0  0  0  0  0  0
  160.9590  210.0070  153.5280 C   0  0  0  0  0  3  0  0  0  0  0  0
  161.4630  207.6770  152.8440 C   0  0  1  0  0  3  0  0  0  0  0  0
  161.5330  208.6850  155.5950 O   0  0  0  0  0  0  0  0  0  0  0  0
  160.8460  209.0240  152.6410 C   0  0  0  0  0  3  0  0  0  0  0  0
  160.7710  206.8760  153.9570 C   0  0  1  0  0  3  0  0  0  0  0  0
  161.4540  205.5280  154.1450 C   0  0  0  0  0  1  0  0  0  0  0  0
  161.6250  209.8530  154.8280 C   0  0  0  0  0  0  0  0  0  0  0  0
  163.7330  205.0940  146.6130 C   0  0  0  0  0  2  0  0  0  0  0  0
  163.9460  204.2090  145.5570 O   0  0  0  0  0  1  0  0  0  0  0  0
  1 15  1  0  0  0  0
  2  4  1  0  0  0  0
  2  7  2  0  0  0  0
  3  1  1  0  0  0  0
  4  1  2  0  0  0  0
  5  2  1  0  0  0  0
  6 20  1  0  0  0  0
  7 14  1  0  0  0  0
  8  9  1  0  0  0  0
  8 19  1  0  0  0  0
  9 11  1  6  0  0  0
  9 16  1  0  0  0  0
 10  4  1  0  0  0  0
 11  5  1  0  0  0  0
 12 10  2  0  0  0  0
 13 10  1  0  0  0  0
 13 18  1  0  0  0  0
 14 15  2  0  0  0  0
 16  7  1  0  0  0  0
 16 20  1  1  0  0  0
 17 31  1  1  0  0  0
 17 12  1  0  0  0  0
 17  5  1  0  0  0  0
 18  3  1  0  0  0  0
 19  6  1  0  0  0  0
 21 26  1  0  0  0  0
 21 23  2  0  0  0  0
 24 30  1  0  0  0  0
 25 15  1  6  0  0  0
 25 28  1  0  0  0  0
 27 25  1  0  0  0  0
 27 24  2  0  0  0  0
 28 29  1  1  0  0  0
 28 21  1  0  0  0  0
 30 22  2  0  0  0  0
 30 26  1  0  0  0  0
 32 31  1  0  0  0  0
M  END
>  <MODEL>
2

>  <REMARK>
 VINA RESULT:      -7.1      2.660      6.889
  Name = 
  2 active torsions:
  status: ('A' for Active; 'I' for Inactive)
    1  A    between atoms: C_13  and  C_29
    2  A    between atoms: C_16  and  C_27
                            x       y       z     vdW  Elec       q    Type
                         _______ _______ _______ _____ _____    ______ ____

>  <TORSDO>
F 2

$$$$
=
 OpenBabel11062408133D

 32 37  0  0  1  0  0  0  0  0999 V2000
  161.2080  207.5350  152.8870 C   0  0  0  0  0  0  0  0  0  0  0  0
  160.8070  209.7950  153.7070 C   0  0  0  0  0  0  0  0  0  0  0  0
  161.5420  206.0950  153.1970 C   0  0  0  0  0  2  0  0  0  0  0  0
  161.0610  208.4450  153.9460 C   0  0  0  0  0  0  0  0  0  0  0  0
  160.6720  210.6890  154.8290 N   0  0  0  0  0  0  0  0  0  0  0  0
  159.3440  213.4370  150.6270 C   0  0  0  0  0  2  0  0  0  0  0  0
  160.6450  210.2520  152.3870 C   0  0  0  0  0  0  0  0  0  0  0  0
  159.4080  213.8290  153.1010 C   0  0  0  0  0  2  0  0  0  0  0  0
  159.6180  212.3350  153.3280 C   0  0  2  0  0  3  0  0  0  0  0  0
  161.0970  207.9680  155.3330 C   0  0  0  0  0  0  0  0  0  0  0  0
  160.4000  212.1110  154.6180 C   0  0  0  0  0  2  0  0  0  0  0  0
  161.0860  208.8090  156.3250 N   0  0  0  0  0  0  0  0  0  0  0  0
  161.1010  206.5600  155.5780 N   0  0  0  0  0  2  0  0  0  0  0  0
  160.8360  209.3560  151.3240 C   0  0  0  0  0  3  0  0  0  0  0  0
  161.1230  208.0010  151.5620 C   0  0  0  0  0  0  0  0  0  0  0  0
  160.3660  211.7160  152.1370 C   0  0  2  0  0  3  0  0  0  0  0  0
  161.1530  210.2690  156.1550 C   0  0  1  0  0  3  0  0  0  0  0  0
  160.8470  205.6280  154.4810 C   0  0  0  0  0  2  0  0  0  0  0  0
  158.6150  214.0550  151.8180 C   0  0  0  0  0  2  0  0  0  0  0  0
  159.5560  211.9430  150.8560 C   0  0  0  0  0  2  0  0  0  0  0  0
  161.4440  206.8730  147.8620 C   0  0  0  0  0  0  0  0  0  0  0  0
  161.9560  203.4110  148.6820 O   0  0  0  0  0  0  0  0  0  0  0  0
  161.2040  207.3360  146.7160 O   0  0  0  0  0  0  0  0  0  0  0  0
  160.4490  204.8110  149.8090 C   0  0  0  0  0  3  0  0  0  0  0  0
  161.3180  207.0560  150.4050 C   0  0  1  0  0  3  0  0  0  0  0  0
  161.9770  205.5820  147.9600 O   0  0  0  0  0  0  0  0  0  0  0  0
  160.3300  205.9360  150.5050 C   0  0  0  0  0  3  0  0  0  0  0  0
  161.2510  207.7770  149.0500 C   0  0  1  0  0  3  0  0  0  0  0  0
  162.2930  208.8860  148.9880 C   0  0  0  0  0  1  0  0  0  0  0  0
  161.5060  204.5790  148.8160 C   0  0  0  0  0  0  0  0  0  0  0  0
  162.5840  210.7420  156.3590 C   0  0  0  0  0  2  0  0  0  0  0  0
  163.2380  209.9020  157.2600 O   0  0  0  0  0  1  0  0  0  0  0  0
  1  3  1  0  0  0  0
  1  4  1  0  0  0  0
  2  4  2  0  0  0  0
  2  5  1  0  0  0  0
  3 18  1  0  0  0  0
  4 10  1  0  0  0  0
  5 17  1  0  0  0  0
  6 20  1  0  0  0  0
  6 19  1  0  0  0  0
  7  2  1  0  0  0  0
  9  8  1  6  0  0  0
  9 11  1  0  0  0  0
 10 13  1  0  0  0  0
 10 12  2  0  0  0  0
 11  5  1  0  0  0  0
 14 15  1  0  0  0  0
 14  7  2  0  0  0  0
 15  1  2  0  0  0  0
 16 20  1  6  0  0  0
 16  7  1  0  0  0  0
 16  9  1  0  0  0  0
 17 12  1  0  0  0  0
 17 31  1  6  0  0  0
 18 13  1  0  0  0  0
 19  8  1  0  0  0  0
 21 26  1  0  0  0  0
 21 28  1  0  0  0  0
 22 30  2  0  0  0  0
 23 21  2  0  0  0  0
 24 27  2  0  0  0  0
 25 27  1  0  0  0  0
 25 15  1  1  0  0  0
 26 30  1  0  0  0  0
 28 29  1  1  0  0  0
 28 25  1  0  0  0  0
 30 24  1  0  0  0  0
 31 32  1  0  0  0  0
M  END
>  <MODEL>
3

>  <REMARK>
 VINA RESULT:      -6.8      2.500      5.037
  Name = 
  2 active torsions:
  status: ('A' for Active; 'I' for Inactive)
    1  A    between atoms: C_13  and  C_29
    2  A    between atoms: C_16  and  C_27
                            x       y       z     vdW  Elec       q    Type
                         _______ _______ _______ _____ _____    ______ ____

>  <TORSDO>
F 2

$$$$
=
 OpenBabel11062408133D

 32 37  0  0  1  0  0  0  0  0999 V2000
  161.1740  206.4800  151.2920 C   0  0  0  0  0  0  0  0  0  0  0  0
  161.1910  204.7030  149.6240 C   0  0  0  0  0  0  0  0  0  0  0  0
  161.1070  206.8760  152.7470 C   0  0  0  0  0  2  0  0  0  0  0  0
  161.1850  205.1160  150.9550 C   0  0  0  0  0  0  0  0  0  0  0  0
  161.1950  203.2910  149.3320 N   0  0  0  0  0  0  0  0  0  0  0  0
  161.9070  205.7050  144.7890 C   0  0  0  0  0  2  0  0  0  0  0  0
  161.2360  205.6590  148.5940 C   0  0  0  0  0  0  0  0  0  0  0  0
  161.8390  203.3310  145.5870 C   0  0  0  0  0  2  0  0  0  0  0  0
  161.9030  203.8190  147.0310 C   0  0  2  0  0  3  0  0  0  0  0  0
  161.2710  204.1010  152.0100 C   0  0  0  0  0  0  0  0  0  0  0  0
  161.2060  202.8190  147.9470 C   0  0  0  0  0  2  0  0  0  0  0  0
  161.1580  202.8370  151.7260 N   0  0  0  0  0  0  0  0  0  0  0  0
  161.5220  204.5230  153.3530 N   0  0  0  0  0  2  0  0  0  0  0  0
  161.1770  207.0220  148.9250 C   0  0  0  0  0  3  0  0  0  0  0  0
  161.1410  207.4420  150.2650 C   0  0  0  0  0  0  0  0  0  0  0  0
  161.2450  205.2030  147.1540 C   0  0  2  0  0  3  0  0  0  0  0  0
  160.8310  202.3310  150.3850 C   0  0  1  0  0  3  0  0  0  0  0  0
  161.9080  205.9060  153.6240 C   0  0  0  0  0  2  0  0  0  0  0  0
  162.5460  204.3240  144.6690 C   0  0  0  0  0  2  0  0  0  0  0  0
  161.9680  206.1920  146.2350 C   0  0  0  0  0  2  0  0  0  0  0  0
  161.9540  211.2250  149.9560 C   0  0  0  0  0  0  0  0  0  0  0  0
  159.8390  212.1760  152.7030 O   0  0  0  0  0  0  0  0  0  0  0  0
  162.8040  211.9580  149.3860 O   0  0  0  0  0  0  0  0  0  0  0  0
  161.1660  210.2430  152.6860 C   0  0  0  0  0  3  0  0  0  0  0  0
  161.0860  208.9110  150.5950 C   0  0  1  0  0  3  0  0  0  0  0  0
  160.9690  211.8350  150.7430 O   0  0  0  0  0  0  0  0  0  0  0  0
  161.4190  209.1090  152.0400 C   0  0  0  0  0  3  0  0  0  0  0  0
  161.9790  209.7480  149.6670 C   0  0  1  0  0  3  0  0  0  0  0  0
  161.5810  209.5330  148.2130 C   0  0  0  0  0  1  0  0  0  0  0  0
  160.6120  211.4390  152.0380 C   0  0  0  0  0  0  0  0  0  0  0  0
  159.3440  202.0170  150.3060 C   0  0  0  0  0  2  0  0  0  0  0  0
  159.1280  200.9600  149.4220 O   0  0  0  0  0  1  0  0  0  0  0  0
  1  3  1  0  0  0  0
  2  4  2  0  0  0  0
  3 18  1  0  0  0  0
  4  1  1  0  0  0  0
  4 10  1  0  0  0  0
  5  2  1  0  0  0  0
  5 17  1  0  0  0  0
  6 20  1  0  0  0  0
  7 14  2  0  0  0  0
  7  2  1  0  0  0  0
  9  8  1  6  0  0  0
  9 16  1  0  0  0  0
  9 11  1  0  0  0  0
 10 13  1  0  0  0  0
 11  5  1  0  0  0  0
 12 10  2  0  0  0  0
 13 18  1  0  0  0  0
 14 15  1  0  0  0  0
 15  1  2  0  0  0  0
 16 20  1  6  0  0  0
 16  7  1  0  0  0  0
 17 31  1  1  0  0  0
 17 12  1  0  0  0  0
 19  6  1  0  0  0  0
 19  8  1  0  0  0  0
 21 26  1  0  0  0  0
 23 21  2  0  0  0  0
 25 15  1  6  0  0  0
 25 27  1  0  0  0  0
 26 30  1  0  0  0  0
 27 24  2  0  0  0  0
 28 29  1  6  0  0  0
 28 21  1  0  0  0  0
 28 25  1  0  0  0  0
 30 24  1  0  0  0  0
 30 22  2  0  0  0  0
 32 31  1  0  0  0  0
M  END
>  <MODEL>
4

>  <REMARK>
 VINA RESULT:      -6.5      2.693      8.308
  Name = 
  2 active torsions:
  status: ('A' for Active; 'I' for Inactive)
    1  A    between atoms: C_13  and  C_29
    2  A    between atoms: C_16  and  C_27
                            x       y       z     vdW  Elec       q    Type
                         _______ _______ _______ _____ _____    ______ ____

>  <TORSDO>
F 2

$$$$
=
 OpenBabel11062408133D

 32 37  0  0  1  0  0  0  0  0999 V2000
  159.5630  210.8220  153.5160 C   0  0  0  0  0  0  0  0  0  0  0  0
  160.9110  210.6120  151.4960 C   0  0  0  0  0  0  0  0  0  0  0  0
  159.1210  210.2320  154.8340 C   0  0  0  0  0  2  0  0  0  0  0  0
  160.5140  210.1350  152.7440 C   0  0  0  0  0  0  0  0  0  0  0  0
  161.8850  209.8650  150.7420 N   0  0  0  0  0  0  0  0  0  0  0  0
  161.1900  214.3280  148.1800 C   0  0  0  0  0  2  0  0  0  0  0  0
  160.3930  211.8280  151.0150 C   0  0  0  0  0  0  0  0  0  0  0  0
  162.6610  212.3140  147.9410 C   0  0  0  0  0  2  0  0  0  0  0  0
  162.2550  211.8570  149.3390 C   0  0  2  0  0  3  0  0  0  0  0  0
  161.1640  208.9350  153.2820 C   0  0  0  0  0  0  0  0  0  0  0  0
  162.3310  210.3370  149.4300 C   0  0  0  0  0  2  0  0  0  0  0  0
  161.9530  208.2170  152.5370 N   0  0  0  0  0  0  0  0  0  0  0  0
  160.9500  208.5900  154.6520 N   0  0  0  0  0  2  0  0  0  0  0  0
  159.4090  212.4940  151.7620 C   0  0  0  0  0  3  0  0  0  0  0  0
  158.9840  211.9990  153.0060 C   0  0  0  0  0  0  0  0  0  0  0  0
  160.8320  212.3400  149.6640 C   0  0  2  0  0  3  0  0  0  0  0  0
  162.1680  208.4670  151.1030 C   0  0  1  0  0  3  0  0  0  0  0  0
  160.2840  209.5340  155.5470 C   0  0  0  0  0  2  0  0  0  0  0  0
  162.5970  213.8360  147.8510 C   0  0  0  0  0  2  0  0  0  0  0  0
  160.7830  213.8690  149.5770 C   0  0  0  0  0  2  0  0  0  0  0  0
  157.3850  213.8340  156.0310 C   0  0  0  0  0  0  0  0  0  0  0  0
  154.2640  214.4430  154.3530 O   0  0  0  0  0  0  0  0  0  0  0  0
  157.6080  213.9860  157.2610 O   0  0  0  0  0  0  0  0  0  0  0  0
  155.4920  212.4550  154.1470 C   0  0  0  0  0  3  0  0  0  0  0  0
  157.9300  212.7360  153.7910 C   0  0  1  0  0  3  0  0  0  0  0  0
  156.2580  214.4530  155.4770 O   0  0  0  0  0  0  0  0  0  0  0  0
  156.6640  211.9380  153.7970 C   0  0  0  0  0  3  0  0  0  0  0  0
  158.4050  213.0920  155.2080 C   0  0  1  0  0  3  0  0  0  0  0  0
  159.6770  213.9280  155.1460 C   0  0  0  0  0  1  0  0  0  0  0  0
  155.3250  213.8290  154.6400 C   0  0  0  0  0  0  0  0  0  0  0  0
  161.2890  207.5330  150.2850 C   0  0  0  0  0  2  0  0  0  0  0  0
  161.4060  206.2290  150.7650 O   0  0  0  0  0  1  0  0  0  0  0  0
  1  3  1  0  0  0  0
  2  4  1  0  0  0  0
  3 18  1  0  0  0  0
  4 10  1  0  0  0  0
  4  1  2  0  0  0  0
  5 17  1  0  0  0  0
  5  2  1  0  0  0  0
  6 20  1  0  0  0  0
  7  2  2  0  0  0  0
  7 14  1  0  0  0  0
  9  8  1  6  0  0  0
  9 11  1  0  0  0  0
  9 16  1  0  0  0  0
 10 13  1  0  0  0  0
 11  5  1  0  0  0  0
 12 10  2  0  0  0  0
 13 18  1  0  0  0  0
 14 15  2  0  0  0  0
 15  1  1  0  0  0  0
 16 20  1  1  0  0  0
 16  7  1  0  0  0  0
 17 31  1  6  0  0  0
 17 12  1  0  0  0  0
 19  8  1  0  0  0  0
 19  6  1  0  0  0  0
 21 23  2  0  0  0  0
 22 30  2  0  0  0  0
 24 30  1  0  0  0  0
 25 15  1  1  0  0  0
 25 27  1  0  0  0  0
 25 28  1  0  0  0  0
 26 21  1  0  0  0  0
 27 24  2  0  0  0  0
 28 29  1  6  0  0  0
 28 21  1  0  0  0  0
 30 26  1  0  0  0  0
 31 32  1  0  0  0  0
M  END
>  <MODEL>
5

>  <REMARK>
 VINA RESULT:      -6.3      3.376      8.686
  Name = 
  2 active torsions:
  status: ('A' for Active; 'I' for Inactive)
    1  A    between atoms: C_13  and  C_29
    2  A    between atoms: C_16  and  C_27
                            x       y       z     vdW  Elec       q    Type
                         _______ _______ _______ _____ _____    ______ ____

>  <TORSDO>
F 2

$$$$
=
 OpenBabel11062408133D

 32 37  0  0  1  0  0  0  0  0999 V2000
  161.0490  210.3430  152.1260 C   0  0  0  0  0  0  0  0  0  0  0  0
  159.6550  210.6660  154.1000 C   0  0  0  0  0  0  0  0  0  0  0  0
  162.0580  209.4960  151.3900 C   0  0  0  0  0  2  0  0  0  0  0  0
  160.5460  209.8920  153.3570 C   0  0  0  0  0  0  0  0  0  0  0  0
  159.1750  210.1590  155.3600 N   0  0  0  0  0  0  0  0  0  0  0  0
  156.4170  214.4490  154.3850 C   0  0  0  0  0  2  0  0  0  0  0  0
  159.2070  211.8980  153.5910 C   0  0  0  0  0  0  0  0  0  0  0  0
  156.4400  212.6750  156.1540 C   0  0  0  0  0  2  0  0  0  0  0  0
  157.3620  211.8260  155.2840 C   0  0  2  0  0  3  0  0  0  0  0  0
  160.8970  208.5540  153.8460 C   0  0  0  0  0  0  0  0  0  0  0  0
  158.2340  210.9400  156.1650 C   0  0  0  0  0  2  0  0  0  0  0  0
  160.5430  208.1680  155.0360 N   0  0  0  0  0  0  0  0  0  0  0  0
  161.5990  207.6640  152.9740 N   0  0  0  0  0  2  0  0  0  0  0  0
  159.7420  212.3740  152.3840 C   0  0  0  0  0  3  0  0  0  0  0  0
  160.6640  211.6100  151.6490 C   0  0  0  0  0  0  0  0  0  0  0  0
  158.2380  212.7280  154.4000 C   0  0  2  0  0  3  0  0  0  0  0  0
  159.8820  209.0460  156.0130 C   0  0  1  0  0  3  0  0  0  0  0  0
  161.7600  208.0020  151.5610 C   0  0  0  0  0  2  0  0  0  0  0  0
  155.5560  213.5550  155.2730 C   0  0  0  0  0  2  0  0  0  0  0  0
  157.3400  213.6000  153.5170 C   0  0  0  0  0  2  0  0  0  0  0  0
  160.8070  213.7450  148.4090 C   0  0  0  0  0  0  0  0  0  0  0  0
  163.9670  212.4000  147.3450 O   0  0  0  0  0  0  0  0  0  0  0  0
  160.0280  214.4470  147.7130 O   0  0  0  0  0  0  0  0  0  0  0  0
  162.2780  211.1230  148.3530 C   0  0  0  0  0  3  0  0  0  0  0  0
  161.2180  212.1400  150.3520 C   0  0  1  0  0  3  0  0  0  0  0  0
  162.1370  213.6130  147.9910 O   0  0  0  0  0  0  0  0  0  0  0  0
  161.5160  210.9960  149.4340 C   0  0  0  0  0  3  0  0  0  0  0  0
  160.2930  213.1830  149.7080 C   0  0  1  0  0  3  0  0  0  0  0  0
  160.0460  214.3380  150.6700 C   0  0  0  0  0  1  0  0  0  0  0  0
  162.8380  212.4040  147.9010 C   0  0  0  0  0  0  0  0  0  0  0  0
  160.9140  209.5920  156.9900 C   0  0  0  0  0  2  0  0  0  0  0  0
  162.0670  208.8070  156.9500 O   0  0  0  0  0  1  0  0  0  0  0  0
  1  4  1  0  0  0  0
  2  5  1  0  0  0  0
  3 18  1  0  0  0  0
  3  1  1  0  0  0  0
  4 10  1  0  0  0  0
  4  2  2  0  0  0  0
  5 17  1  0  0  0  0
  5 11  1  0  0  0  0
  6 19  1  0  0  0  0
  7  2  1  0  0  0  0
  7 16  1  0  0  0  0
  9  8  1  1  0  0  0
  9 11  1  0  0  0  0
 10 12  2  0  0  0  0
 12 17  1  0  0  0  0
 13 10  1  0  0  0  0
 14  7  2  0  0  0  0
 15  1  2  0  0  0  0
 15 14  1  0  0  0  0
 16 20  1  6  0  0  0
 16  9  1  0  0  0  0
 17 31  1  1  0  0  0
 18 13  1  0  0  0  0
 19  8  1  0  0  0  0
 20  6  1  0  0  0  0
 21 28  1  0  0  0  0
 22 30  2  0  0  0  0
 23 21  2  0  0  0  0
 24 27  2  0  0  0  0
 25 15  1  1  0  0  0
 26 21  1  0  0  0  0
 27 25  1  0  0  0  0
 28 25  1  0  0  0  0
 28 29  1  1  0  0  0
 30 26  1  0  0  0  0
 30 24  1  0  0  0  0
 32 31  1  0  0  0  0
M  END
>  <MODEL>
6

>  <REMARK>
 VINA RESULT:      -6.2      4.227      7.232
  Name = 
  2 active torsions:
  status: ('A' for Active; 'I' for Inactive)
    1  A    between atoms: C_13  and  C_29
    2  A    between atoms: C_16  and  C_27
                            x       y       z     vdW  Elec       q    Type
                         _______ _______ _______ _____ _____    ______ ____

>  <TORSDO>
F 2

$$$$
