=
 OpenBabel11062410413D

 32 36  0  0  1  0  0  0  0  0999 V2000
  158.5250  214.0790  150.2650 C   0  0  2  0  0  3  0  0  0  0  0  0
  159.5760  214.2180  153.9560 C   0  0  0  0  0  2  0  0  0  0  0  0
  158.6460  211.1530  153.5360 C   0  0  0  0  0  2  0  0  0  0  0  0
  162.6210  211.1350  156.8830 C   0  0  0  0  0  2  0  0  0  0  0  0
  162.5170  209.6510  157.2050 C   0  0  0  0  0  2  0  0  0  0  0  0
  156.9740  213.0240  154.0240 C   0  0  1  0  0  3  0  0  0  0  0  0
  157.9460  212.3050  156.3490 C   0  0  0  0  0  2  0  0  0  0  0  0
  159.3280  213.7390  151.5140 C   0  0  0  0  0  2  0  0  0  0  0  0
  158.7800  214.4530  155.2340 C   0  0  0  0  0  2  0  0  0  0  0  0
  161.3780  211.8730  157.2610 C   0  0  0  0  0  3  0  0  0  0  0  0
  159.1490  211.5080  155.9480 C   0  0  0  0  0  0  0  0  0  0  0  0
  160.2630  211.6970  156.6080 C   0  0  0  0  0  0  0  0  0  0  0  0
  160.2550  209.5660  154.6590 C   0  0  2  0  0  3  0  0  0  0  0  0
  157.0760  213.7190  150.4360 C   0  0  0  0  0  3  0  0  0  0  0  0
  156.4770  213.7380  151.6350 C   0  0  0  0  0  3  0  0  0  0  0  0
  159.0960  213.3460  149.0690 C   0  0  0  0  0  1  0  0  0  0  0  0
  157.6330  213.4380  155.3650 C   0  0  1  0  0  3  0  0  0  0  0  0
  157.2200  214.0610  152.9120 C   0  0  2  0  0  3  0  0  0  0  0  0
  158.7110  214.4480  152.7140 C   0  0  1  0  0  3  0  0  0  0  0  0
  162.0520  208.8570  155.9930 C   0  0  0  0  0  2  0  0  0  0  0  0
  160.6010  208.8830  155.9000 N   0  0  0  0  0  2  0  0  0  0  0  0
  157.1850  211.5680  153.5730 C   0  0  0  0  0  2  0  0  0  0  0  0
  159.0230  210.4740  154.8490 C   0  0  2  0  0  3  0  0  0  0  0  0
  160.1060  208.5640  153.4940 C   0  0  0  0  0  2  0  0  0  0  0  0
  161.0320  209.6150  151.3530 C   0  0  0  0  0  2  0  0  0  0  0  0
  161.9700  209.4040  150.1940 C   0  0  0  0  0  0  0  0  0  0  0  0
  161.4850  207.1680  151.8670 C   0  0  0  0  0  0  0  0  0  0  0  0
  161.5510  206.9760  150.3780 C   0  0  0  0  0  2  0  0  0  0  0  0
  162.2140  208.1670  149.7400 C   0  0  0  0  0  3  0  0  0  0  0  0
  162.6040  210.4670  149.6370 F   0  0  0  0  0  0  0  0  0  0  0  0
  161.6560  206.2140  152.6080 O   0  0  0  0  0  0  0  0  0  0  0  0
  161.2270  208.5460  152.4410 C   0  0  2  0  0  3  0  0  0  0  0  0
  1 16  1  6  0  0  0
  1 14  1  0  0  0  0
  1  8  1  0  0  0  0
  2  9  1  0  0  0  0
  3 22  1  0  0  0  0
  4  5  1  0  0  0  0
  4 10  1  0  0  0  0
  6 22  1  6  0  0  0
  6 17  1  0  0  0  0
 11  7  1  0  0  0  0
 11 12  2  0  0  0  0
 12 10  2  0  0  0  0
 13 24  1  6  0  0  0
 13 23  1  0  0  0  0
 13 21  1  0  0  0  0
 14 15  2  0  0  0  0
 17  9  1  6  0  0  0
 17  7  1  0  0  0  0
 18 15  1  6  0  0  0
 18  6  1  0  0  0  0
 19  8  1  6  0  0  0
 19 18  1  0  0  0  0
 19  2  1  0  0  0  0
 20  5  1  0  0  0  0
 21 20  1  0  0  0  0
 23  3  1  6  0  0  0
 23 11  1  0  0  0  0
 25 32  1  0  0  0  0
 26 25  1  0  0  0  0
 27 32  1  0  0  0  0
 27 31  2  0  0  0  0
 28 27  1  0  0  0  0
 29 26  2  0  0  0  0
 29 28  1  0  0  0  0
 30 26  1  0  0  0  0
 32 24  1  6  0  0  0
M  END
>  <MODEL>
1

>  <REMARK>
 VINA RESULT:      -4.3      0.000      0.000
  Name = 
  2 active torsions:
  status: ('A' for Active; 'I' for Inactive)
    1  A    between atoms: C_16  and  C_27
    2  A    between atoms: C_27  and  C_32
                            x       y       z     vdW  Elec       q    Type
                         _______ _______ _______ _____ _____    ______ ____

>  <TORSDO>
F 2

$$$$
=
 OpenBabel11062410413D

 32 36  0  0  1  0  0  0  0  0999 V2000
  159.7930  214.4440  149.4200 C   0  0  2  0  0  3  0  0  0  0  0  0
  159.2970  214.3050  153.2260 C   0  0  0  0  0  2  0  0  0  0  0  0
  159.7130  211.2120  152.3910 C   0  0  0  0  0  2  0  0  0  0  0  0
  161.9220  211.8830  157.0450 C   0  0  0  0  0  2  0  0  0  0  0  0
  162.2290  210.4070  157.2600 C   0  0  0  0  0  2  0  0  0  0  0  0
  157.4400  212.3720  152.2170 C   0  0  1  0  0  3  0  0  0  0  0  0
  157.6770  211.6230  154.7180 C   0  0  0  0  0  2  0  0  0  0  0  0
  160.1450  214.1720  150.8770 C   0  0  0  0  0  2  0  0  0  0  0  0
  158.0600  214.0740  154.0850 C   0  0  0  0  0  2  0  0  0  0  0  0
  160.4550  212.1310  156.9140 C   0  0  0  0  0  3  0  0  0  0  0  0
  159.1390  211.3120  154.8100 C   0  0  0  0  0  0  0  0  0  0  0  0
  159.7930  211.7270  155.8650 C   0  0  0  0  0  0  0  0  0  0  0  0
  161.2400  210.0400  154.0210 C   0  0  2  0  0  3  0  0  0  0  0  0
  158.6030  213.6320  148.9890 C   0  0  0  0  0  3  0  0  0  0  0  0
  157.6400  213.2720  149.8490 C   0  0  0  0  0  3  0  0  0  0  0  0
  160.9780  214.1260  148.5340 C   0  0  0  0  0  1  0  0  0  0  0  0
  157.3740  212.7480  153.7210 C   0  0  1  0  0  3  0  0  0  0  0  0
  157.7020  213.5990  151.3240 C   0  0  2  0  0  3  0  0  0  0  0  0
  158.9260  214.4530  151.7480 C   0  0  1  0  0  3  0  0  0  0  0  0
  162.5470  209.7150  155.9440 C   0  0  0  0  0  2  0  0  0  0  0  0
  161.3200  209.3070  155.2790 N   0  0  0  0  0  2  0  0  0  0  0  0
  158.2930  211.1450  151.8510 C   0  0  0  0  0  2  0  0  0  0  0  0
  159.7920  210.4800  153.7270 C   0  0  2  0  0  3  0  0  0  0  0  0
  161.8860  209.2420  152.8690 C   0  0  0  0  0  2  0  0  0  0  0  0
  161.6760  206.7490  153.4120 C   0  0  0  0  0  2  0  0  0  0  0  0
  161.2500  205.4120  152.8690 C   0  0  0  0  0  0  0  0  0  0  0  0
  161.3600  207.5610  151.0250 C   0  0  0  0  0  0  0  0  0  0  0  0
  161.8580  206.2060  150.6090 C   0  0  0  0  0  2  0  0  0  0  0  0
  161.3330  205.1600  151.5550 C   0  0  0  0  0  3  0  0  0  0  0  0
  160.7400  204.4740  153.7070 F   0  0  0  0  0  0  0  0  0  0  0  0
  161.0470  208.3780  150.1750 O   0  0  0  0  0  0  0  0  0  0  0  0
  161.2300  207.9010  152.4960 C   0  0  2  0  0  3  0  0  0  0  0  0
  1 16  1  6  0  0  0
  1  8  1  0  0  0  0
  2  9  1  0  0  0  0
  4  5  1  0  0  0  0
  6 22  1  1  0  0  0
  6 17  1  0  0  0  0
  7 11  1  0  0  0  0
 10  4  1  0  0  0  0
 11 12  2  0  0  0  0
 12 10  2  0  0  0  0
 13 24  1  6  0  0  0
 13 21  1  0  0  0  0
 14  1  1  0  0  0  0
 14 15  2  0  0  0  0
 17  9  1  6  0  0  0
 17  7  1  0  0  0  0
 18 15  1  6  0  0  0
 18 19  1  0  0  0  0
 18  6  1  0  0  0  0
 19  8  1  6  0  0  0
 19  2  1  0  0  0  0
 20  5  1  0  0  0  0
 21 20  1  0  0  0  0
 22  3  1  0  0  0  0
 23  3  1  6  0  0  0
 23 13  1  0  0  0  0
 23 11  1  0  0  0  0
 26 25  1  0  0  0  0
 26 30  1  0  0  0  0
 27 32  1  0  0  0  0
 28 27  1  0  0  0  0
 28 29  1  0  0  0  0
 29 26  2  0  0  0  0
 31 27  2  0  0  0  0
 32 24  1  6  0  0  0
 32 25  1  0  0  0  0
M  END
>  <MODEL>
2

>  <REMARK>
 VINA RESULT:      -3.5      1.870      2.332
  Name = 
  2 active torsions:
  status: ('A' for Active; 'I' for Inactive)
    1  A    between atoms: C_16  and  C_27
    2  A    between atoms: C_27  and  C_32
                            x       y       z     vdW  Elec       q    Type
                         _______ _______ _______ _____ _____    ______ ____

>  <TORSDO>
F 2

$$$$
=
 OpenBabel11062410413D

 32 36  0  0  1  0  0  0  0  0999 V2000
  160.4580  205.4640  146.1520 C   0  0  2  0  0  3  0  0  0  0  0  0
  160.0480  206.3260  149.8710 C   0  0  0  0  0  2  0  0  0  0  0  0
  162.1350  208.5440  148.7940 C   0  0  0  0  0  2  0  0  0  0  0  0
  159.1430  210.8250  152.3780 C   0  0  0  0  0  2  0  0  0  0  0  0
  159.9300  212.1290  152.3970 C   0  0  0  0  0  2  0  0  0  0  0  0
  162.8850  206.2030  149.5010 C   0  0  1  0  0  3  0  0  0  0  0  0
  162.7000  207.5980  151.7120 C   0  0  0  0  0  2  0  0  0  0  0  0
  160.0900  206.2990  147.3710 C   0  0  0  0  0  2  0  0  0  0  0  0
  160.8530  205.9330  151.1040 C   0  0  0  0  0  2  0  0  0  0  0  0
  159.9850  209.6630  152.7920 C   0  0  0  0  0  3  0  0  0  0  0  0
  161.9150  208.7910  151.2600 C   0  0  0  0  0  0  0  0  0  0  0  0
  160.9480  209.2220  152.0310 C   0  0  0  0  0  0  0  0  0  0  0  0
  161.5720  210.8260  149.7120 C   0  0  2  0  0  3  0  0  0  0  0  0
  161.9270  205.1450  146.1350 C   0  0  0  0  0  3  0  0  0  0  0  0
  162.6400  205.0210  147.2640 C   0  0  0  0  0  3  0  0  0  0  0  0
  160.0810  206.2030  144.8860 C   0  0  0  0  0  1  0  0  0  0  0  0
  162.3310  206.3230  150.9450 C   0  0  1  0  0  3  0  0  0  0  0  0
  162.0410  205.2510  148.6340 C   0  0  2  0  0  3  0  0  0  0  0  0
  160.5200  205.5600  148.6330 C   0  0  1  0  0  3  0  0  0  0  0  0
  160.4960  212.4490  151.0220 C   0  0  0  0  0  2  0  0  0  0  0  0
  161.7570  211.7540  150.8200 N   0  0  0  0  0  2  0  0  0  0  0  0
  163.2570  207.5190  148.7950 C   0  0  0  0  0  2  0  0  0  0  0  0
  162.3020  209.4930  149.9760 C   0  0  2  0  0  3  0  0  0  0  0  0
  161.9560  211.4800  148.3670 C   0  0  0  0  0  2  0  0  0  0  0  0
  160.2290  211.8280  146.5110 C   0  0  0  0  0  2  0  0  0  0  0  0
  159.4430  212.8630  145.7510 C   0  0  0  0  0  0  0  0  0  0  0  0
  161.4850  213.8180  147.4680 C   0  0  0  0  0  0  0  0  0  0  0  0
  161.3000  214.4510  146.1180 C   0  0  0  0  0  2  0  0  0  0  0  0
  159.9450  214.0920  145.5700 C   0  0  0  0  0  3  0  0  0  0  0  0
  158.2030  212.5630  145.2860 F   0  0  0  0  0  0  0  0  0  0  0  0
  162.0720  214.4290  148.3460 O   0  0  0  0  0  0  0  0  0  0  0  0
  160.9280  212.4360  147.7380 C   0  0  2  0  0  3  0  0  0  0  0  0
  1 16  1  6  0  0  0
  1  8  1  0  0  0  0
  2  9  1  0  0  0  0
  3 22  1  0  0  0  0
  4  5  1  0  0  0  0
  4 10  1  0  0  0  0
  6 22  1  6  0  0  0
  6 17  1  0  0  0  0
 11  7  1  0  0  0  0
 11 12  2  0  0  0  0
 12 10  2  0  0  0  0
 13 24  1  6  0  0  0
 13 23  1  0  0  0  0
 13 21  1  0  0  0  0
 14  1  1  0  0  0  0
 14 15  2  0  0  0  0
 17  9  1  6  0  0  0
 17  7  1  0  0  0  0
 18 15  1  6  0  0  0
 18  6  1  0  0  0  0
 19  8  1  6  0  0  0
 19 18  1  0  0  0  0
 19  2  1  0  0  0  0
 20  5  1  0  0  0  0
 21 20  1  0  0  0  0
 23  3  1  6  0  0  0
 23 11  1  0  0  0  0
 25 32  1  0  0  0  0
 26 25  1  0  0  0  0
 27 32  1  0  0  0  0
 27 31  2  0  0  0  0
 28 27  1  0  0  0  0
 29 26  2  0  0  0  0
 29 28  1  0  0  0  0
 30 26  1  0  0  0  0
 32 24  1  6  0  0  0
M  END
>  <MODEL>
3

>  <REMARK>
 VINA RESULT:      -3.0      3.727      7.945
  Name = 
  2 active torsions:
  status: ('A' for Active; 'I' for Inactive)
    1  A    between atoms: C_16  and  C_27
    2  A    between atoms: C_27  and  C_32
                            x       y       z     vdW  Elec       q    Type
                         _______ _______ _______ _____ _____    ______ ____

>  <TORSDO>
F 2

$$$$
=
 OpenBabel11062410413D

 32 36  0  0  1  0  0  0  0  0999 V2000
  160.5260  208.1570  155.3410 C   0  0  2  0  0  3  0  0  0  0  0  0
  157.7580  210.6960  156.1410 C   0  0  0  0  0  2  0  0  0  0  0  0
  159.4830  212.1440  153.8240 C   0  0  0  0  0  2  0  0  0  0  0  0
  154.5050  213.4500  153.1110 C   0  0  0  0  0  2  0  0  0  0  0  0
  154.7890  214.4530  152.0010 C   0  0  0  0  0  2  0  0  0  0  0  0
  160.1690  212.2350  156.2860 C   0  0  1  0  0  3  0  0  0  0  0  0
  158.3640  214.1090  155.9720 C   0  0  0  0  0  2  0  0  0  0  0  0
  159.3130  209.0430  155.0900 C   0  0  0  0  0  2  0  0  0  0  0  0
  157.7150  211.8950  157.0810 C   0  0  0  0  0  2  0  0  0  0  0  0
  155.1650  213.8410  154.3930 C   0  0  0  0  0  3  0  0  0  0  0  0
  157.7630  213.7420  154.6500 C   0  0  0  0  0  0  0  0  0  0  0  0
  156.4610  213.7910  154.5280 C   0  0  0  0  0  0  0  0  0  0  0  0
  157.9680  213.2370  152.1290 C   0  0  2  0  0  3  0  0  0  0  0  0
  161.7280  208.9770  155.7220 C   0  0  0  0  0  3  0  0  0  0  0  0
  161.6140  210.1460  156.3690 C   0  0  0  0  0  3  0  0  0  0  0  0
  160.8350  207.3410  154.1040 C   0  0  0  0  0  1  0  0  0  0  0  0
  158.8440  212.8870  156.7630 C   0  0  1  0  0  3  0  0  0  0  0  0
  160.2750  210.7590  156.7120 C   0  0  2  0  0  3  0  0  0  0  0  0
  159.0460  209.8910  156.3280 C   0  0  1  0  0  3  0  0  0  0  0  0
  155.9780  214.0170  151.1590 C   0  0  0  0  0  2  0  0  0  0  0  0
  157.2210  214.4410  151.7840 N   0  0  0  0  0  2  0  0  0  0  0  0
  160.5750  212.4900  154.8240 C   0  0  0  0  0  2  0  0  0  0  0  0
  158.6730  213.3930  153.4920 C   0  0  2  0  0  3  0  0  0  0  0  0
  158.9230  212.8280  150.9870 C   0  0  0  0  0  2  0  0  0  0  0  0
  157.8260  212.9690  148.6790 C   0  0  0  0  0  2  0  0  0  0  0  0
  157.9360  213.5820  147.3090 C   0  0  0  0  0  0  0  0  0  0  0  0
  160.1540  213.9190  149.0390 C   0  0  0  0  0  0  0  0  0  0  0  0
  160.3910  213.6120  147.5870 C   0  0  0  0  0  2  0  0  0  0  0  0
  159.1380  213.8850  146.8000 C   0  0  0  0  0  3  0  0  0  0  0  0
  156.8120  213.8680  146.6050 F   0  0  0  0  0  0  0  0  0  0  0  0
  161.0430  214.4300  149.7020 O   0  0  0  0  0  0  0  0  0  0  0  0
  158.8110  213.6130  149.6680 C   0  0  2  0  0  3  0  0  0  0  0  0
  1 16  1  6  0  0  0
  1 14  1  0  0  0  0
  2 19  1  0  0  0  0
  2  9  1  0  0  0  0
  3 22  1  0  0  0  0
  4 10  1  0  0  0  0
  5  4  1  0  0  0  0
  6 22  1  6  0  0  0
  6 18  1  0  0  0  0
  6 17  1  0  0  0  0
  8  1  1  0  0  0  0
 10 12  2  0  0  0  0
 11  7  1  0  0  0  0
 12 11  2  0  0  0  0
 13 24  1  6  0  0  0
 13 23  1  0  0  0  0
 14 15  2  0  0  0  0
 17  7  1  6  0  0  0
 17  9  1  0  0  0  0
 18 15  1  6  0  0  0
 19  8  1  6  0  0  0
 19 18  1  0  0  0  0
 20 21  1  0  0  0  0
 20  5  1  0  0  0  0
 21 13  1  0  0  0  0
 23  3  1  1  0  0  0
 23 11  1  0  0  0  0
 25 32  1  0  0  0  0
 26 25  1  0  0  0  0
 27 32  1  0  0  0  0
 27 31  2  0  0  0  0
 28 27  1  0  0  0  0
 29 26  2  0  0  0  0
 29 28  1  0  0  0  0
 30 26  1  0  0  0  0
 32 24  1  1  0  0  0
M  END
>  <MODEL>
4

>  <REMARK>
 VINA RESULT:      -2.7      3.087      6.428
  Name = 
  2 active torsions:
  status: ('A' for Active; 'I' for Inactive)
    1  A    between atoms: C_16  and  C_27
    2  A    between atoms: C_27  and  C_32
                            x       y       z     vdW  Elec       q    Type
                         _______ _______ _______ _____ _____    ______ ____

>  <TORSDO>
F 2

$$$$
=
 OpenBabel11062410413D

 32 36  0  0  1  0  0  0  0  0999 V2000
  164.0490  211.8070  157.1950 C   0  0  2  0  0  3  0  0  0  0  0  0
  162.2990  208.4810  156.4090 C   0  0  0  0  0  2  0  0  0  0  0  0
  161.5800  210.3460  153.8710 C   0  0  0  0  0  2  0  0  0  0  0  0
  162.1590  205.4870  152.1230 C   0  0  0  0  0  2  0  0  0  0  0  0
  161.7010  205.8010  150.7050 C   0  0  0  0  0  2  0  0  0  0  0  0
  160.2440  210.4420  156.0500 C   0  0  1  0  0  3  0  0  0  0  0  0
  159.2780  208.4120  154.7030 C   0  0  0  0  0  2  0  0  0  0  0  0
  163.7370  210.5270  156.4320 C   0  0  0  0  0  2  0  0  0  0  0  0
  160.8770  207.9920  156.6570 C   0  0  0  0  0  2  0  0  0  0  0  0
  161.0850  205.7580  153.1250 C   0  0  0  0  0  3  0  0  0  0  0  0
  160.3330  208.2030  153.6600 C   0  0  0  0  0  0  0  0  0  0  0  0
  160.7070  206.9760  153.3980 C   0  0  0  0  0  0  0  0  0  0  0  0
  161.8000  209.0530  151.7160 C   0  0  2  0  0  3  0  0  0  0  0  0
  162.8460  212.7070  157.2610 C   0  0  0  0  0  3  0  0  0  0  0  0
  161.5960  212.2220  157.2600 C   0  0  0  0  0  3  0  0  0  0  0  0
  165.1980  212.5370  156.5330 C   0  0  0  0  0  1  0  0  0  0  0  0
  159.8490  208.9420  156.0230 C   0  0  1  0  0  3  0  0  0  0  0  0
  161.2950  210.7450  157.1330 C   0  0  2  0  0  3  0  0  0  0  0  0
  162.5490  209.8300  157.0860 C   0  0  1  0  0  3  0  0  0  0  0  0
  162.1070  207.2090  150.2960 C   0  0  0  0  0  2  0  0  0  0  0  0
  161.1270  208.1740  150.7680 N   0  0  0  0  0  2  0  0  0  0  0  0
  160.5450  211.1000  154.6920 C   0  0  0  0  0  2  0  0  0  0  0  0
  160.8800  209.3960  152.9060 C   0  0  2  0  0  3  0  0  0  0  0  0
  162.3780  210.2970  151.0090 C   0  0  0  0  0  2  0  0  0  0  0  0
  162.2300  211.3100  148.6630 C   0  0  0  0  0  2  0  0  0  0  0  0
  161.4280  212.2220  147.7740 C   0  0  0  0  0  0  0  0  0  0  0  0
  160.7310  212.1810  150.5210 C   0  0  0  0  0  0  0  0  0  0  0  0
  160.7590  213.4910  149.7860 C   0  0  0  0  0  2  0  0  0  0  0  0
  160.7370  213.2420  148.3020 C   0  0  0  0  0  3  0  0  0  0  0  0
  161.3700  211.9840  146.4390 F   0  0  0  0  0  0  0  0  0  0  0  0
  160.0910  212.0800  151.5540 O   0  0  0  0  0  0  0  0  0  0  0  0
  161.4810  210.9870  149.9670 C   0  0  2  0  0  3  0  0  0  0  0  0
  1 16  1  6  0  0  0
  1 14  1  0  0  0  0
  2  9  1  0  0  0  0
  3 22  1  0  0  0  0
  4 10  1  0  0  0  0
  5  4  1  0  0  0  0
  6 22  1  6  0  0  0
  6 18  1  0  0  0  0
  8 19  1  0  0  0  0
  8  1  1  0  0  0  0
 10 12  2  0  0  0  0
 11  7  1  0  0  0  0
 12 11  2  0  0  0  0
 13 24  1  6  0  0  0
 13 23  1  0  0  0  0
 15 14  2  0  0  0  0
 17  7  1  6  0  0  0
 17  6  1  0  0  0  0
 17  9  1  0  0  0  0
 18 15  1  6  0  0  0
 19  2  1  6  0  0  0
 19 18  1  0  0  0  0
 20  5  1  0  0  0  0
 20 21  1  0  0  0  0
 21 13  1  0  0  0  0
 23 11  1  0  0  0  0
 23  3  1  1  0  0  0
 25 32  1  0  0  0  0
 26 29  2  0  0  0  0
 26 25  1  0  0  0  0
 27 31  2  0  0  0  0
 28 27  1  0  0  0  0
 29 28  1  0  0  0  0
 30 26  1  0  0  0  0
 32 27  1  0  0  0  0
 32 24  1  1  0  0  0
M  END
>  <MODEL>
5

>  <REMARK>
 VINA RESULT:      -2.4      2.893      6.023
  Name = 
  2 active torsions:
  status: ('A' for Active; 'I' for Inactive)
    1  A    between atoms: C_16  and  C_27
    2  A    between atoms: C_27  and  C_32
                            x       y       z     vdW  Elec       q    Type
                         _______ _______ _______ _____ _____    ______ ____

>  <TORSDO>
F 2

$$$$
=
 OpenBabel11062410413D

 32 36  0  0  1  0  0  0  0  0999 V2000
  160.0790  207.3670  155.9960 C   0  0  2  0  0  3  0  0  0  0  0  0
  157.9480  210.5030  155.3860 C   0  0  0  0  0  2  0  0  0  0  0  0
  160.7340  211.1640  153.8900 C   0  0  0  0  0  2  0  0  0  0  0  0
  156.9120  213.2910  151.0850 C   0  0  0  0  0  2  0  0  0  0  0  0
  157.8420  214.0140  150.1200 C   0  0  0  0  0  2  0  0  0  0  0  0
  160.4180  211.5350  156.4010 C   0  0  1  0  0  3  0  0  0  0  0  0
  159.4050  213.6490  155.2280 C   0  0  0  0  0  2  0  0  0  0  0  0
  159.3190  208.4200  155.2000 C   0  0  0  0  0  2  0  0  0  0  0  0
  157.8470  211.8290  156.1310 C   0  0  0  0  0  2  0  0  0  0  0  0
  157.1020  213.7560  152.4920 C   0  0  0  0  0  3  0  0  0  0  0  0
  159.2880  213.1880  153.8080 C   0  0  0  0  0  0  0  0  0  0  0  0
  158.1900  213.4730  153.1550 C   0  0  0  0  0  0  0  0  0  0  0  0
  160.3130  212.2320  151.6430 C   0  0  2  0  0  3  0  0  0  0  0  0
  161.2050  207.9850  156.7770 C   0  0  0  0  0  3  0  0  0  0  0  0
  161.1470  209.2460  157.2300 C   0  0  0  0  0  3  0  0  0  0  0  0
  160.6250  206.3080  155.0630 C   0  0  0  0  0  1  0  0  0  0  0  0
  159.2210  212.5080  156.2360 C   0  0  1  0  0  3  0  0  0  0  0  0
  159.9790  210.1620  156.9410 C   0  0  2  0  0  3  0  0  0  0  0  0
  158.8180  209.5020  156.1500 C   0  0  1  0  0  3  0  0  0  0  0  0
  159.1140  213.2140  149.8810 C   0  0  0  0  0  2  0  0  0  0  0  0
  160.0840  213.4830  150.9310 N   0  0  0  0  0  2  0  0  0  0  0  0
  161.4050  211.4520  155.2230 C   0  0  0  0  0  2  0  0  0  0  0  0
  160.4540  212.4740  153.1600 C   0  0  2  0  0  3  0  0  0  0  0  0
  161.4990  211.4530  151.0330 C   0  0  0  0  0  2  0  0  0  0  0  0
  161.4740  208.9630  151.6240 C   0  0  0  0  0  2  0  0  0  0  0  0
  161.4620  207.5710  151.0510 C   0  0  0  0  0  0  0  0  0  0  0  0
  161.8990  209.6970  149.2290 C   0  0  0  0  0  0  0  0  0  0  0  0
  162.7010  208.4330  149.0940 C   0  0  0  0  0  2  0  0  0  0  0  0
  162.0350  207.3250  149.8650 C   0  0  0  0  0  3  0  0  0  0  0  0
  160.8310  206.5720  151.7180 F   0  0  0  0  0  0  0  0  0  0  0  0
  161.7890  210.4480  148.2730 O   0  0  0  0  0  0  0  0  0  0  0  0
  161.2150  210.0230  150.5400 C   0  0  2  0  0  3  0  0  0  0  0  0
  1 16  1  6  0  0  0
  1 14  1  0  0  0  0
  2  9  1  0  0  0  0
  2 19  1  0  0  0  0
  3 22  1  0  0  0  0
  4 10  1  0  0  0  0
  5  4  1  0  0  0  0
  6 22  1  6  0  0  0
  6 18  1  0  0  0  0
  8  1  1  0  0  0  0
  9 17  1  0  0  0  0
 10 12  2  0  0  0  0
 11  7  1  0  0  0  0
 12 11  2  0  0  0  0
 13 24  1  6  0  0  0
 13 23  1  0  0  0  0
 14 15  2  0  0  0  0
 17  7  1  6  0  0  0
 17  6  1  0  0  0  0
 18 15  1  6  0  0  0
 19  8  1  6  0  0  0
 19 18  1  0  0  0  0
 20  5  1  0  0  0  0
 20 21  1  0  0  0  0
 21 13  1  0  0  0  0
 23 11  1  0  0  0  0
 23  3  1  1  0  0  0
 26 25  1  0  0  0  0
 26 30  1  0  0  0  0
 27 32  1  0  0  0  0
 28 27  1  0  0  0  0
 28 29  1  0  0  0  0
 29 26  2  0  0  0  0
 31 27  2  0  0  0  0
 32 24  1  1  0  0  0
 32 25  1  0  0  0  0
M  END
>  <MODEL>
6

>  <REMARK>
 VINA RESULT:      -2.3      2.254      5.605
  Name = 
  2 active torsions:
  status: ('A' for Active; 'I' for Inactive)
    1  A    between atoms: C_16  and  C_27
    2  A    between atoms: C_27  and  C_32
                            x       y       z     vdW  Elec       q    Type
                         _______ _______ _______ _____ _____    ______ ____

>  <TORSDO>
F 2

$$$$
=
 OpenBabel11062410413D

 32 36  0  0  1  0  0  0  0  0999 V2000
  154.6640  209.6410  138.7770 C   0  0  2  0  0  3  0  0  0  0  0  0
  158.3690  210.3670  138.0730 C   0  0  0  0  0  2  0  0  0  0  0  0
  157.4860  212.7480  140.0690 C   0  0  0  0  0  2  0  0  0  0  0  0
  162.4040  211.5080  141.1980 C   0  0  0  0  0  2  0  0  0  0  0  0
  162.6040  212.6470  142.1880 C   0  0  0  0  0  2  0  0  0  0  0  0
  157.0660  212.8620  137.5490 C   0  0  1  0  0  3  0  0  0  0  0  0
  159.5480  213.6260  137.9010 C   0  0  0  0  0  2  0  0  0  0  0  0
  156.1430  209.8370  139.0830 C   0  0  0  0  0  2  0  0  0  0  0  0
  159.0560  211.2620  137.0490 C   0  0  0  0  0  2  0  0  0  0  0  0
  162.0960  212.0120  139.8260 C   0  0  0  0  0  3  0  0  0  0  0  0
  159.8150  213.1750  139.3040 C   0  0  0  0  0  0  0  0  0  0  0  0
  160.9580  212.5910  139.5590 C   0  0  0  0  0  0  0  0  0  0  0  0
  159.2550  213.1510  141.8220 C   0  0  2  0  0  3  0  0  0  0  0  0
  154.0570  210.8930  138.2060 C   0  0  0  0  0  3  0  0  0  0  0  0
  154.7750  211.7640  137.4830 C   0  0  0  0  0  3  0  0  0  0  0  0
  153.9250  209.2420  140.0360 C   0  0  0  0  0  1  0  0  0  0  0  0
  158.5620  212.7130  137.1640 C   0  0  1  0  0  3  0  0  0  0  0  0
  156.2570  211.5910  137.2350 C   0  0  2  0  0  3  0  0  0  0  0  0
  156.8630  210.2840  137.8150 C   0  0  1  0  0  3  0  0  0  0  0  0
  161.3150  212.9610  142.9320 C   0  0  0  0  0  2  0  0  0  0  0  0
  160.4860  213.8620  142.1460 N   0  0  0  0  0  2  0  0  0  0  0  0
  156.7680  213.4610  138.9350 C   0  0  0  0  0  2  0  0  0  0  0  0
  158.7940  213.4650  140.3840 C   0  0  2  0  0  3  0  0  0  0  0  0
  158.1660  213.4090  142.8860 C   0  0  0  0  0  2  0  0  0  0  0  0
  159.5970  212.3400  144.7190 C   0  0  0  0  0  2  0  0  0  0  0  0
  159.8140  212.2550  146.2060 C   0  0  0  0  0  0  0  0  0  0  0  0
  157.4770  213.5990  145.3330 C   0  0  0  0  0  0  0  0  0  0  0  0
  157.4010  212.6810  146.5200 C   0  0  0  0  0  2  0  0  0  0  0  0
  158.7850  212.4170  147.0480 C   0  0  0  0  0  3  0  0  0  0  0  0
  161.0640  212.0570  146.6960 F   0  0  0  0  0  0  0  0  0  0  0  0
  156.6210  214.4530  145.1730 O   0  0  0  0  0  0  0  0  0  0  0  0
  158.6250  213.4750  144.3530 C   0  0  2  0  0  3  0  0  0  0  0  0
  1  8  1  0  0  0  0
  1 16  1  1  0  0  0
  4  5  1  0  0  0  0
  5 20  1  0  0  0  0
  6 22  1  1  0  0  0
  7 11  1  0  0  0  0
  9  2  1  0  0  0  0
 10  4  1  0  0  0  0
 11 12  2  0  0  0  0
 11 23  1  0  0  0  0
 12 10  2  0  0  0  0
 13 21  1  0  0  0  0
 13 24  1  1  0  0  0
 14  1  1  0  0  0  0
 15 14  2  0  0  0  0
 17  9  1  1  0  0  0
 17  6  1  0  0  0  0
 17  7  1  0  0  0  0
 18 15  1  1  0  0  0
 18  6  1  0  0  0  0
 18 19  1  0  0  0  0
 19  2  1  1  0  0  0
 19  8  1  0  0  0  0
 21 20  1  0  0  0  0
 22  3  1  0  0  0  0
 23  3  1  6  0  0  0
 23 13  1  0  0  0  0
 25 26  1  0  0  0  0
 26 30  1  0  0  0  0
 26 29  2  0  0  0  0
 27 28  1  0  0  0  0
 28 29  1  0  0  0  0
 31 27  2  0  0  0  0
 32 24  1  6  0  0  0
 32 25  1  0  0  0  0
 32 27  1  0  0  0  0
M  END
>  <MODEL>
7

>  <REMARK>
 VINA RESULT:      -2.2      9.603     13.853
  Name = 
  2 active torsions:
  status: ('A' for Active; 'I' for Inactive)
    1  A    between atoms: C_16  and  C_27
    2  A    between atoms: C_27  and  C_32
                            x       y       z     vdW  Elec       q    Type
                         _______ _______ _______ _____ _____    ______ ____

>  <TORSDO>
F 2

$$$$
=
 OpenBabel11062410413D

 32 36  0  0  1  0  0  0  0  0999 V2000
  160.4660  205.5740  146.8230 C   0  0  2  0  0  3  0  0  0  0  0  0
  160.1980  207.2580  150.2640 C   0  0  0  0  0  2  0  0  0  0  0  0
  161.8410  209.3980  148.4880 C   0  0  0  0  0  2  0  0  0  0  0  0
  158.8030  212.0750  151.7440 C   0  0  0  0  0  2  0  0  0  0  0  0
  159.3820  213.4350  151.3770 C   0  0  0  0  0  2  0  0  0  0  0  0
  162.9870  207.4190  149.6330 C   0  0  1  0  0  3  0  0  0  0  0  0
  162.7520  209.2750  151.4680 C   0  0  0  0  0  2  0  0  0  0  0  0
  160.0640  206.6270  147.8480 C   0  0  0  0  0  2  0  0  0  0  0  0
  161.1400  207.2860  151.4620 C   0  0  0  0  0  2  0  0  0  0  0  0
  159.8400  211.1690  152.3240 C   0  0  0  0  0  3  0  0  0  0  0  0
  161.7640  210.2090  150.8390 C   0  0  0  0  0  0  0  0  0  0  0  0
  160.8010  210.6850  151.5870 C   0  0  0  0  0  0  0  0  0  0  0  0
  161.0050  211.7410  148.9080 C   0  0  2  0  0  3  0  0  0  0  0  0
  161.9620  205.4560  146.7250 C   0  0  0  0  0  3  0  0  0  0  0  0
  162.7640  205.7050  147.7700 C   0  0  0  0  0  3  0  0  0  0  0  0
  159.8910  205.9270  145.4680 C   0  0  0  0  0  1  0  0  0  0  0  0
  162.5270  207.8150  151.0610 C   0  0  1  0  0  3  0  0  0  0  0  0
  162.2370  206.1820  149.1050 C   0  0  2  0  0  3  0  0  0  0  0  0
  160.6910  206.2810  149.1940 C   0  0  1  0  0  3  0  0  0  0  0  0
  159.7920  213.4810  149.9130 C   0  0  0  0  0  2  0  0  0  0  0  0
  161.1260  212.9280  149.7450 N   0  0  0  0  0  2  0  0  0  0  0  0
  163.1030  208.5590  148.6070 C   0  0  0  0  0  2  0  0  0  0  0  0
  161.9470  210.6200  149.3940 C   0  0  2  0  0  3  0  0  0  0  0  0
  161.1870  212.0920  147.4150 C   0  0  0  0  0  2  0  0  0  0  0  0
  158.8880  212.7260  146.4870 C   0  0  0  0  0  2  0  0  0  0  0  0
  158.1350  213.7540  145.6860 C   0  0  0  0  0  0  0  0  0  0  0  0
  160.9590  213.9840  145.7230 C   0  0  0  0  0  0  0  0  0  0  0  0
  160.2160  214.2150  144.4370 C   0  0  0  0  0  2  0  0  0  0  0  0
  158.7590  214.4530  144.7280 C   0  0  0  0  0  3  0  0  0  0  0  0
  156.8300  214.0040  145.9650 F   0  0  0  0  0  0  0  0  0  0  0  0
  162.0850  214.4330  145.8600 O   0  0  0  0  0  0  0  0  0  0  0  0
  160.3010  213.2140  146.8490 C   0  0  2  0  0  3  0  0  0  0  0  0
  1 16  1  6  0  0  0
  1  8  1  0  0  0  0
  2  9  1  0  0  0  0
  3 22  1  0  0  0  0
  4 10  1  0  0  0  0
  5  4  1  0  0  0  0
  6 22  1  6  0  0  0
  6 17  1  0  0  0  0
 11  7  1  0  0  0  0
 11 12  2  0  0  0  0
 12 10  2  0  0  0  0
 13 24  1  6  0  0  0
 13 23  1  0  0  0  0
 13 21  1  0  0  0  0
 14  1  1  0  0  0  0
 14 15  2  0  0  0  0
 17  9  1  6  0  0  0
 17  7  1  0  0  0  0
 18 15  1  6  0  0  0
 18 19  1  0  0  0  0
 18  6  1  0  0  0  0
 19  8  1  6  0  0  0
 19  2  1  0  0  0  0
 20  5  1  0  0  0  0
 21 20  1  0  0  0  0
 23  3  1  6  0  0  0
 23 11  1  0  0  0  0
 25 32  1  0  0  0  0
 26 30  1  0  0  0  0
 26 25  1  0  0  0  0
 27 31  2  0  0  0  0
 27 32  1  0  0  0  0
 28 29  1  0  0  0  0
 28 27  1  0  0  0  0
 29 26  2  0  0  0  0
 32 24  1  6  0  0  0
M  END
>  <MODEL>
8

>  <REMARK>
 VINA RESULT:      -2.1      3.985      8.085
  Name = 
  2 active torsions:
  status: ('A' for Active; 'I' for Inactive)
    1  A    between atoms: C_16  and  C_27
    2  A    between atoms: C_27  and  C_32
                            x       y       z     vdW  Elec       q    Type
                         _______ _______ _______ _____ _____    ______ ____

>  <TORSDO>
F 2

$$$$
