=
 OpenBabel11062407533D

 34 40  0  0  1  0  0  0  0  0999 V2000
  161.0900  207.5770  154.2530 C   0  0  0  0  0  0  0  0  0  0  0  0
  161.6060  209.6000  152.9830 C   0  0  0  0  0  0  0  0  0  0  0  0
  161.2940  207.4900  151.8400 C   0  0  0  0  0  0  0  0  0  0  0  0
  161.4930  207.3910  149.4380 C   0  0  0  0  0  0  0  0  0  0  0  0
  161.4040  209.6900  155.3990 C   0  0  0  0  0  3  0  0  0  0  0  0
  161.6420  210.3320  154.1750 C   0  0  0  0  0  3  0  0  0  0  0  0
  161.7990  209.5080  150.6100 C   0  0  0  0  0  0  0  0  0  0  0  0
  161.3300  208.2210  153.0290 C   0  0  0  0  0  0  0  0  0  0  0  0
  162.0170  210.1800  149.3170 C   0  0  0  0  0  0  0  0  0  0  0  0
  161.7770  208.0450  148.1110 C   0  0  0  0  0  2  0  0  0  0  0  0
  161.1290  208.3150  155.4400 C   0  0  0  0  0  3  0  0  0  0  0  0
  161.0170  206.1150  151.8770 C   0  0  0  0  0  0  0  0  0  0  0  0
  160.8180  206.2040  154.2540 C   0  0  0  0  0  3  0  0  0  0  0  0
  161.8310  210.2070  151.7840 N   0  0  0  0  0  0  0  0  0  0  0  0
  161.2270  206.0560  149.4900 N   0  0  0  0  0  0  0  0  0  0  0  0
  160.9860  205.3990  150.6620 C   0  0  0  0  0  0  0  0  0  0  0  0
  161.9820  209.4990  148.2070 N   0  0  0  0  0  0  0  0  0  0  0  0
  161.5310  208.1340  150.6210 C   0  0  0  0  0  0  0  0  0  0  0  0
  160.7870  205.5100  153.0800 N   0  0  0  0  0  0  0  0  0  0  0  0
  160.4140  201.9070  149.1100 C   0  0  1  0  0  3  0  0  0  0  0  0
  160.7070  201.1150  150.3940 C   0  0  0  0  0  2  0  0  0  0  0  0
  160.6990  203.9280  150.6030 C   0  0  1  0  0  3  0  0  0  0  0  0
  161.8680  201.7200  151.1790 C   0  0  0  0  0  2  0  0  0  0  0  0
  160.8370  203.3790  149.1820 C   0  0  0  0  0  2  0  0  0  0  0  0
  161.5420  203.1480  151.6270 C   0  0  0  0  0  2  0  0  0  0  0  0
  161.0460  201.2970  148.0270 O   0  0  0  0  0  1  0  0  0  0  0  0
  162.2270  211.6590  149.2590 C   0  0  0  0  0  2  0  0  0  0  0  0
  163.5120  214.0830  148.1500 N   0  0  0  0  0  1  0  0  0  0  0  0
  161.9500  212.2030  147.8580 C   0  0  2  0  0  3  0  0  0  0  0  0
  162.1480  213.7260  147.8020 C   0  0  1  0  0  3  0  0  0  0  0  0
  159.8490  213.8670  148.6950 C   0  0  0  0  0  2  0  0  0  0  0  0
  159.5470  212.9970  147.4760 C   0  0  0  0  0  2  0  0  0  0  0  0
  160.5310  211.8270  147.4020 C   0  0  0  0  0  2  0  0  0  0  0  0
  161.2020  214.4530  148.6650 N   0  0  0  0  0  2  0  0  0  0  0  0
  1 13  1  0  0  0  0
  1 11  2  0  0  0  0
  2  8  1  0  0  0  0
  2  6  1  0  0  0  0
  3 12  1  0  0  0  0
  3  8  2  0  0  0  0
  4 15  2  0  0  0  0
  4 18  1  0  0  0  0
  5 11  1  0  0  0  0
  6  5  2  0  0  0  0
  7 18  2  0  0  0  0
  7 14  1  0  0  0  0
  8  1  1  0  0  0  0
  9  7  1  0  0  0  0
 10 17  1  0  0  0  0
 10  4  1  0  0  0  0
 12 19  1  0  0  0  0
 14  2  2  0  0  0  0
 15 16  1  0  0  0  0
 16 12  2  0  0  0  0
 17  9  2  0  0  0  0
 18  3  1  0  0  0  0
 19 13  2  0  0  0  0
 20 26  1  6  0  0  0
 20 24  1  0  0  0  0
 20 21  1  0  0  0  0
 21 23  1  0  0  0  0
 22 16  1  6  0  0  0
 22 25  1  0  0  0  0
 23 25  1  0  0  0  0
 24 22  1  0  0  0  0
 27  9  1  0  0  0  0
 29 27  1  1  0  0  0
 30 29  1  0  0  0  0
 30 28  1  1  0  0  0
 30 34  1  0  0  0  0
 32 31  1  0  0  0  0
 33 32  1  0  0  0  0
 33 29  1  0  0  0  0
 34 31  1  0  0  0  0
M  END
>  <MODEL>
1

>  <REMARK>
 VINA RESULT:      -9.6      0.000      0.000
  Name = 
  3 active torsions:
  status: ('A' for Active; 'I' for Inactive)
    1  A    between atoms: C_3  and  C_13
    2  A    between atoms: C_3  and  C_17
    3  A    between atoms: C_12  and  C_28
                            x       y       z     vdW  Elec       q    Type
                         _______ _______ _______ _____ _____    ______ ____

>  <TORSDO>
F 3

$$$$
=
 OpenBabel11062407533D

 34 40  0  0  1  0  0  0  0  0999 V2000
  161.2070  208.5590  153.2930 C   0  0  0  0  0  0  0  0  0  0  0  0
  161.3080  206.3380  152.2780 C   0  0  0  0  0  0  0  0  0  0  0  0
  161.5900  208.3160  150.9120 C   0  0  0  0  0  0  0  0  0  0  0  0
  161.9720  208.0890  148.5410 C   0  0  0  0  0  0  0  0  0  0  0  0
  160.9240  206.5770  154.6600 C   0  0  0  0  0  3  0  0  0  0  0  0
  161.0850  205.7610  153.5320 C   0  0  0  0  0  3  0  0  0  0  0  0
  161.6900  206.1080  149.9370 C   0  0  0  0  0  0  0  0  0  0  0  0
  161.3670  207.7400  152.1640 C   0  0  0  0  0  0  0  0  0  0  0  0
  161.8920  205.2570  148.7510 C   0  0  0  0  0  0  0  0  0  0  0  0
  162.1160  207.2400  147.3050 C   0  0  0  0  0  2  0  0  0  0  0  0
  160.9840  207.9740  154.5430 C   0  0  0  0  0  3  0  0  0  0  0  0
  161.6530  209.7140  150.7920 C   0  0  0  0  0  0  0  0  0  0  0  0
  161.2750  209.9480  153.1370 C   0  0  0  0  0  3  0  0  0  0  0  0
  161.4710  205.5610  151.1700 N   0  0  0  0  0  0  0  0  0  0  0  0
  162.0260  209.4460  148.4390 N   0  0  0  0  0  0  0  0  0  0  0  0
  161.8790  210.2720  149.5160 C   0  0  0  0  0  0  0  0  0  0  0  0
  162.1010  205.7950  147.5830 N   0  0  0  0  0  0  0  0  0  0  0  0
  161.7510  207.4990  149.7890 C   0  0  0  0  0  0  0  0  0  0  0  0
  161.4940  210.4900  151.9040 N   0  0  0  0  0  0  0  0  0  0  0  0
  162.7280  213.5950  147.7380 C   0  0  1  0  0  3  0  0  0  0  0  0
  161.7030  214.4480  148.5010 C   0  0  0  0  0  2  0  0  0  0  0  0
  161.9600  211.7520  149.2900 C   0  0  1  0  0  3  0  0  0  0  0  0
  160.3920  213.6970  148.7160 C   0  0  0  0  0  2  0  0  0  0  0  0
  162.5250  212.0850  147.9080 C   0  0  0  0  0  2  0  0  0  0  0  0
  160.6120  212.4400  149.5640 C   0  0  0  0  0  2  0  0  0  0  0  0
  162.6910  213.9170  146.3820 O   0  0  0  0  0  1  0  0  0  0  0  0
  161.9120  203.7690  148.8830 C   0  0  0  0  0  2  0  0  0  0  0  0
  159.8920  202.5750  150.6860 N   0  0  0  0  0  1  0  0  0  0  0  0
  160.5990  203.1520  148.3990 C   0  0  2  0  0  3  0  0  0  0  0  0
  160.1200  202.0460  149.3520 C   0  0  1  0  0  3  0  0  0  0  0  0
  161.6720  200.5730  148.1210 C   0  0  0  0  0  2  0  0  0  0  0  0
  160.8710  201.0800  146.9220 C   0  0  0  0  0  2  0  0  0  0  0  0
  160.7510  202.6050  146.9710 C   0  0  0  0  0  2  0  0  0  0  0  0
  161.0500  200.9070  149.4150 N   0  0  0  0  0  2  0  0  0  0  0  0
  1 11  2  0  0  0  0
  2  6  1  0  0  0  0
  3  8  2  0  0  0  0
  4 18  1  0  0  0  0
  6  5  2  0  0  0  0
  7 14  1  0  0  0  0
  8  2  1  0  0  0  0
  8  1  1  0  0  0  0
  9 27  1  0  0  0  0
  9  7  1  0  0  0  0
 10 17  1  0  0  0  0
 10  4  1  0  0  0  0
 11  5  1  0  0  0  0
 12  3  1  0  0  0  0
 12 19  1  0  0  0  0
 13  1  1  0  0  0  0
 14  2  2  0  0  0  0
 15  4  2  0  0  0  0
 15 16  1  0  0  0  0
 16 12  2  0  0  0  0
 17  9  2  0  0  0  0
 18  7  2  0  0  0  0
 18  3  1  0  0  0  0
 19 13  2  0  0  0  0
 20 26  1  6  0  0  0
 20 24  1  0  0  0  0
 20 21  1  0  0  0  0
 21 23  1  0  0  0  0
 22 16  1  6  0  0  0
 22 25  1  0  0  0  0
 23 25  1  0  0  0  0
 24 22  1  0  0  0  0
 29 27  1  1  0  0  0
 29 30  1  0  0  0  0
 30 34  1  0  0  0  0
 30 28  1  1  0  0  0
 31 34  1  0  0  0  0
 32 33  1  0  0  0  0
 32 31  1  0  0  0  0
 33 29  1  0  0  0  0
M  END
>  <MODEL>
2

>  <REMARK>
 VINA RESULT:      -9.3      2.776      7.925
  Name = 
  3 active torsions:
  status: ('A' for Active; 'I' for Inactive)
    1  A    between atoms: C_3  and  C_13
    2  A    between atoms: C_3  and  C_17
    3  A    between atoms: C_12  and  C_28
                            x       y       z     vdW  Elec       q    Type
                         _______ _______ _______ _____ _____    ______ ____

>  <TORSDO>
F 3

$$$$
=
 OpenBabel11062407533D

 34 40  0  0  1  0  0  0  0  0999 V2000
  162.0220  208.9260  148.6600 C   0  0  0  0  0  0  0  0  0  0  0  0
  161.6600  210.1060  150.7680 C   0  0  0  0  0  0  0  0  0  0  0  0
  161.5440  207.6900  150.6890 C   0  0  0  0  0  0  0  0  0  0  0  0
  161.0700  206.4490  152.7020 C   0  0  0  0  0  0  0  0  0  0  0  0
  162.1370  211.3460  148.7390 C   0  0  0  0  0  3  0  0  0  0  0  0
  161.8590  211.3260  150.1130 C   0  0  0  0  0  3  0  0  0  0  0  0
  161.1960  208.8840  152.7610 C   0  0  0  0  0  0  0  0  0  0  0  0
  161.7420  208.9080  150.0350 C   0  0  0  0  0  0  0  0  0  0  0  0
  160.9340  208.8520  154.2110 C   0  0  0  0  0  0  0  0  0  0  0  0
  160.7370  206.3960  154.1700 C   0  0  0  0  0  3  0  0  0  0  0  0
  162.2190  210.1490  148.0120 C   0  0  0  0  0  3  0  0  0  0  0  0
  161.6280  206.4910  149.9650 C   0  0  0  0  0  0  0  0  0  0  0  0
  162.0970  207.7110  147.9680 C   0  0  0  0  0  3  0  0  0  0  0  0
  161.3920  210.0670  152.1040 N   0  0  0  0  0  0  0  0  0  0  0  0
  161.1500  205.2930  151.9860 N   0  0  0  0  0  2  0  0  0  0  0  0
  161.4230  205.2740  150.6490 C   0  0  0  0  0  0  0  0  0  0  0  0
  160.7500  207.7160  154.8210 N   0  0  0  0  0  0  0  0  0  0  0  0
  161.2670  207.6750  152.0600 C   0  0  0  0  0  0  0  0  0  0  0  0
  161.9010  206.5330  148.6270 N   0  0  0  0  0  0  0  0  0  0  0  0
  160.5430  201.6040  149.8210 C   0  0  1  0  0  3  0  0  0  0  0  0
  161.1510  201.6110  148.4110 C   0  0  0  0  0  2  0  0  0  0  0  0
  161.4920  203.9440  149.9590 C   0  0  1  0  0  3  0  0  0  0  0  0
  160.8820  202.9260  147.6860 C   0  0  0  0  0  2  0  0  0  0  0  0
  160.3850  203.0000  150.4340 C   0  0  0  0  0  2  0  0  0  0  0  0
  161.5230  204.1030  148.4290 C   0  0  0  0  0  2  0  0  0  0  0  0
  159.3030  200.9670  149.7960 O   0  0  0  0  0  1  0  0  0  0  0  0
  160.9280  210.1170  155.0060 C   0  0  0  0  0  2  0  0  0  0  0  0
  158.7150  211.1430  153.3310 N   0  0  0  0  0  1  0  0  0  0  0  0
  159.5300  210.4280  155.5410 C   0  0  2  0  0  3  0  0  0  0  0  0
  158.8550  211.5380  154.7220 C   0  0  1  0  0  3  0  0  0  0  0  0
  160.1300  213.1040  156.1440 C   0  0  0  0  0  2  0  0  0  0  0  0
  159.4410  212.3220  157.2610 C   0  0  0  0  0  2  0  0  0  0  0  0
  159.5920  210.8170  157.0270 C   0  0  0  0  0  2  0  0  0  0  0  0
  159.5680  212.8240  154.8100 N   0  0  0  0  0  2  0  0  0  0  0  0
  1  8  2  0  0  0  0
  2 14  1  0  0  0  0
  3 18  2  0  0  0  0
  4 10  2  0  0  0  0
  5  6  1  0  0  0  0
  6  2  2  0  0  0  0
  7  9  1  0  0  0  0
  8  3  1  0  0  0  0
  8  2  1  0  0  0  0
  9 17  2  0  0  0  0
  9 27  1  0  0  0  0
 10 17  1  0  0  0  0
 11  1  1  0  0  0  0
 11  5  2  0  0  0  0
 12 16  2  0  0  0  0
 12  3  1  0  0  0  0
 13 19  2  0  0  0  0
 13  1  1  0  0  0  0
 14  7  2  0  0  0  0
 15  4  1  0  0  0  0
 16 15  1  0  0  0  0
 18  4  1  0  0  0  0
 18  7  1  0  0  0  0
 19 12  1  0  0  0  0
 20 26  1  6  0  0  0
 20 24  1  0  0  0  0
 21 20  1  0  0  0  0
 22 24  1  0  0  0  0
 22 16  1  1  0  0  0
 23 21  1  0  0  0  0
 23 25  1  0  0  0  0
 25 22  1  0  0  0  0
 29 27  1  6  0  0  0
 29 33  1  0  0  0  0
 30 28  1  6  0  0  0
 30 34  1  0  0  0  0
 30 29  1  0  0  0  0
 31 32  1  0  0  0  0
 33 32  1  0  0  0  0
 34 31  1  0  0  0  0
M  END
>  <MODEL>
3

>  <REMARK>
 VINA RESULT:      -8.7      2.048      5.271
  Name = 
  3 active torsions:
  status: ('A' for Active; 'I' for Inactive)
    1  A    between atoms: C_3  and  C_13
    2  A    between atoms: C_3  and  C_17
    3  A    between atoms: C_12  and  C_28
                            x       y       z     vdW  Elec       q    Type
                         _______ _______ _______ _____ _____    ______ ____

>  <TORSDO>
F 3

$$$$
=
 OpenBabel11062407533D

 34 40  0  0  1  0  0  0  0  0999 V2000
  161.0350  204.4950  151.2060 C   0  0  0  0  0  0  0  0  0  0  0  0
  161.1400  206.3900  152.7460 C   0  0  0  0  0  0  0  0  0  0  0  0
  161.3840  206.7410  150.3640 C   0  0  0  0  0  0  0  0  0  0  0  0
  161.7320  208.9710  149.5140 C   0  0  0  0  0  0  0  0  0  0  0  0
  160.7910  204.1430  153.5920 C   0  0  0  0  0  3  0  0  0  0  0  0
  160.9420  205.5190  153.8220 C   0  0  0  0  0  3  0  0  0  0  0  0
  161.4780  208.5960  151.9110 C   0  0  0  0  0  0  0  0  0  0  0  0
  161.1870  205.8710  151.4390 C   0  0  0  0  0  0  0  0  0  0  0  0
  161.6060  210.0460  152.1400 C   0  0  0  0  0  0  0  0  0  0  0  0
  161.9300  210.4490  149.7310 C   0  0  0  0  0  3  0  0  0  0  0  0
  160.8380  203.6310  152.2870 C   0  0  0  0  0  3  0  0  0  0  0  0
  161.4300  206.2320  149.0570 C   0  0  0  0  0  0  0  0  0  0  0  0
  161.0860  204.0210  149.8900 C   0  0  0  0  0  3  0  0  0  0  0  0
  161.2840  207.7300  152.9500 N   0  0  0  0  0  0  0  0  0  0  0  0
  161.7780  208.4630  148.2510 N   0  0  0  0  0  2  0  0  0  0  0  0
  161.6310  207.1310  147.9890 C   0  0  0  0  0  0  0  0  0  0  0  0
  161.7900  210.8570  151.1380 N   0  0  0  0  0  0  0  0  0  0  0  0
  161.5340  208.1120  150.5980 C   0  0  0  0  0  0  0  0  0  0  0  0
  161.2800  204.8890  148.8550 N   0  0  0  0  0  0  0  0  0  0  0  0
  162.7960  205.1180  144.9040 C   0  0  1  0  0  3  0  0  0  0  0  0
  161.5390  205.3810  144.0610 C   0  0  0  0  0  2  0  0  0  0  0  0
  161.6940  206.6790  146.5600 C   0  0  1  0  0  3  0  0  0  0  0  0
  160.2700  205.3320  144.9070 C   0  0  0  0  0  2  0  0  0  0  0  0
  162.6370  205.4870  146.3840 C   0  0  0  0  0  2  0  0  0  0  0  0
  160.2900  206.4180  145.9890 C   0  0  0  0  0  2  0  0  0  0  0  0
  163.1600  203.7760  144.7990 O   0  0  0  0  0  1  0  0  0  0  0  0
  161.4740  210.6070  153.5190 C   0  0  0  0  0  2  0  0  0  0  0  0
  159.4730  212.7330  153.0340 N   0  0  0  0  0  1  0  0  0  0  0  0
  160.0260  210.5400  154.0070 C   0  0  2  0  0  3  0  0  0  0  0  0
  159.4570  211.9450  154.2540 C   0  0  1  0  0  3  0  0  0  0  0  0
  160.5740  211.8060  156.4520 C   0  0  0  0  0  2  0  0  0  0  0  0
  159.7560  210.5190  156.5520 C   0  0  0  0  0  2  0  0  0  0  0  0
  159.9220  209.6850  155.2800 C   0  0  0  0  0  2  0  0  0  0  0  0
  160.1650  212.6650  155.3260 N   0  0  0  0  0  2  0  0  0  0  0  0
  1  8  2  0  0  0  0
  1 11  1  0  0  0  0
  2 14  1  0  0  0  0
  2  6  2  0  0  0  0
  3 18  2  0  0  0  0
  3  8  1  0  0  0  0
  4 10  2  0  0  0  0
  4 18  1  0  0  0  0
  5  6  1  0  0  0  0
  7  9  1  0  0  0  0
  7 14  2  0  0  0  0
  8  2  1  0  0  0  0
  9 27  1  0  0  0  0
 10 17  1  0  0  0  0
 11  5  2  0  0  0  0
 12  3  1  0  0  0  0
 13  1  1  0  0  0  0
 15  4  1  0  0  0  0
 16 15  1  0  0  0  0
 16 12  2  0  0  0  0
 17  9  2  0  0  0  0
 18  7  1  0  0  0  0
 19 12  1  0  0  0  0
 19 13  2  0  0  0  0
 20 26  1  1  0  0  0
 20 24  1  0  0  0  0
 21 20  1  0  0  0  0
 21 23  1  0  0  0  0
 22 16  1  1  0  0  0
 23 25  1  0  0  0  0
 24 22  1  0  0  0  0
 25 22  1  0  0  0  0
 29 27  1  1  0  0  0
 29 30  1  0  0  0  0
 29 33  1  0  0  0  0
 30 28  1  6  0  0  0
 30 34  1  0  0  0  0
 31 32  1  0  0  0  0
 33 32  1  0  0  0  0
 34 31  1  0  0  0  0
M  END
>  <MODEL>
4

>  <REMARK>
 VINA RESULT:      -8.7      2.380      5.200
  Name = 
  3 active torsions:
  status: ('A' for Active; 'I' for Inactive)
    1  A    between atoms: C_3  and  C_13
    2  A    between atoms: C_3  and  C_17
    3  A    between atoms: C_12  and  C_28
                            x       y       z     vdW  Elec       q    Type
                         _______ _______ _______ _____ _____    ______ ____

>  <TORSDO>
F 3

$$$$
=
 OpenBabel11062407533D

 34 40  0  0  1  0  0  0  0  0999 V2000
  160.8910  205.7110  153.4650 C   0  0  0  0  0  0  0  0  0  0  0  0
  161.3390  205.3260  151.0940 C   0  0  0  0  0  0  0  0  0  0  0  0
  161.2990  207.5790  151.9760 C   0  0  0  0  0  0  0  0  0  0  0  0
  161.7030  209.4470  150.5050 C   0  0  0  0  0  0  0  0  0  0  0  0
  160.9300  203.4540  152.5810 C   0  0  0  0  0  3  0  0  0  0  0  0
  161.2150  203.9490  151.2990 C   0  0  0  0  0  3  0  0  0  0  0  0
  161.7440  207.1680  149.6370 C   0  0  0  0  0  0  0  0  0  0  0  0
  161.1740  206.2040  152.1810 C   0  0  0  0  0  0  0  0  0  0  0  0
  162.0740  207.6950  148.3010 C   0  0  0  0  0  0  0  0  0  0  0  0
  161.9760  210.0110  149.1350 C   0  0  0  0  0  2  0  0  0  0  0  0
  160.7680  204.3320  153.6620 C   0  0  0  0  0  3  0  0  0  0  0  0
  161.1380  208.4600  153.0570 C   0  0  0  0  0  0  0  0  0  0  0  0
  160.7370  206.6180  154.5200 C   0  0  0  0  0  3  0  0  0  0  0  0
  161.6190  205.8250  149.8560 N   0  0  0  0  0  0  0  0  0  0  0  0
  161.5410  210.2910  151.5620 N   0  0  0  0  0  0  0  0  0  0  0  0
  161.2680  209.8460  152.8230 C   0  0  0  0  0  0  0  0  0  0  0  0
  162.1900  208.9770  148.1090 N   0  0  0  0  0  0  0  0  0  0  0  0
  161.5830  208.0680  150.6970 C   0  0  0  0  0  0  0  0  0  0  0  0
  160.8630  207.9580  154.2960 N   0  0  0  0  0  0  0  0  0  0  0  0
  159.4920  212.1020  155.4080 C   0  0  1  0  0  3  0  0  0  0  0  0
  160.7270  212.3290  156.2930 C   0  0  0  0  0  2  0  0  0  0  0  0
  161.1140  210.8620  153.9150 C   0  0  1  0  0  3  0  0  0  0  0  0
  161.5640  211.0610  156.4310 C   0  0  0  0  0  2  0  0  0  0  0  0
  159.6620  210.9710  154.3870 C   0  0  0  0  0  2  0  0  0  0  0  0
  162.0970  210.6040  155.0690 C   0  0  0  0  0  2  0  0  0  0  0  0
  158.3810  211.8390  156.2090 O   0  0  0  0  0  1  0  0  0  0  0  0
  162.3310  206.7600  147.1620 C   0  0  0  0  0  2  0  0  0  0  0  0
  162.2340  203.8570  147.7260 N   0  0  0  0  0  1  0  0  0  0  0  0
  161.1120  205.8800  146.8840 C   0  0  2  0  0  3  0  0  0  0  0  0
  161.5280  204.4300  146.5930 C   0  0  1  0  0  3  0  0  0  0  0  0
  161.9330  205.2070  144.2850 C   0  0  0  0  0  2  0  0  0  0  0  0
  160.4840  205.6750  144.4110 C   0  0  0  0  0  2  0  0  0  0  0  0
  160.2880  206.4480  145.7170 C   0  0  0  0  0  2  0  0  0  0  0  0
  162.3470  204.3060  145.3760 N   0  0  0  0  0  2  0  0  0  0  0  0
  1 11  2  0  0  0  0
  1 13  1  0  0  0  0
  2  6  1  0  0  0  0
  2  8  1  0  0  0  0
  3  8  2  0  0  0  0
  3 12  1  0  0  0  0
  4 18  1  0  0  0  0
  4 15  2  0  0  0  0
  5 11  1  0  0  0  0
  6  5  2  0  0  0  0
  7 14  1  0  0  0  0
  7 18  2  0  0  0  0
  8  1  1  0  0  0  0
  9  7  1  0  0  0  0
 10  4  1  0  0  0  0
 12 19  1  0  0  0  0
 14  2  2  0  0  0  0
 15 16  1  0  0  0  0
 16 12  2  0  0  0  0
 17  9  2  0  0  0  0
 17 10  1  0  0  0  0
 18  3  1  0  0  0  0
 19 13  2  0  0  0  0
 20 26  1  1  0  0  0
 20 21  1  0  0  0  0
 21 23  1  0  0  0  0
 22 16  1  6  0  0  0
 22 24  1  0  0  0  0
 22 25  1  0  0  0  0
 24 20  1  0  0  0  0
 25 23  1  0  0  0  0
 27  9  1  0  0  0  0
 29 27  1  6  0  0  0
 30 29  1  0  0  0  0
 30 28  1  1  0  0  0
 31 32  1  0  0  0  0
 31 34  1  0  0  0  0
 32 33  1  0  0  0  0
 33 29  1  0  0  0  0
 34 30  1  0  0  0  0
M  END
>  <MODEL>
5

>  <REMARK>
 VINA RESULT:      -8.6      3.239      6.961
  Name = 
  3 active torsions:
  status: ('A' for Active; 'I' for Inactive)
    1  A    between atoms: C_3  and  C_13
    2  A    between atoms: C_3  and  C_17
    3  A    between atoms: C_12  and  C_28
                            x       y       z     vdW  Elec       q    Type
                         _______ _______ _______ _____ _____    ______ ____

>  <TORSDO>
F 3

$$$$
=
 OpenBabel11062407533D

 34 40  0  0  1  0  0  0  0  0999 V2000
  161.8160  208.7000  149.0450 C   0  0  0  0  0  0  0  0  0  0  0  0
  161.8620  210.1150  151.0370 C   0  0  0  0  0  0  0  0  0  0  0  0
  161.3460  207.7590  151.2280 C   0  0  0  0  0  0  0  0  0  0  0  0
  160.8760  206.8100  153.3960 C   0  0  0  0  0  0  0  0  0  0  0  0
  162.3320  211.0600  148.8530 C   0  0  0  0  0  3  0  0  0  0  0  0
  162.1910  211.2160  150.2400 C   0  0  0  0  0  3  0  0  0  0  0  0
  161.4040  209.1820  153.1810 C   0  0  0  0  0  0  0  0  0  0  0  0
  161.6740  208.8580  150.4330 C   0  0  2  0  0  3  0  0  0  0  0  0
  161.2850  209.3290  154.6420 C   0  0  0  0  0  0  0  0  0  0  0  0
  160.6860  206.9510  154.8830 C   0  0  0  0  0  3  0  0  0  0  0  0
  162.1450  209.8050  148.2550 C   0  0  0  0  0  3  0  0  0  0  0  0
  161.1600  206.5010  150.6330 C   0  0  0  0  0  0  0  0  0  0  0  0
  161.6230  207.4310  148.4850 C   0  0  0  0  0  3  0  0  0  0  0  0
  161.7250  210.2460  152.3860 N   0  0  0  0  0  0  0  0  0  0  0  0
  160.6950  205.5960  152.8040 N   0  0  0  0  0  0  0  0  0  0  0  0
  160.8280  205.4060  151.4590 C   0  0  0  0  0  0  0  0  0  0  0  0
  160.9790  208.3040  155.3840 N   0  0  0  0  0  0  0  0  0  0  0  0
  161.2070  207.9180  152.6110 C   0  0  0  0  0  0  0  0  0  0  0  0
  161.3030  206.3710  149.2810 N   0  0  0  0  0  0  0  0  0  0  0  0
  160.7150  202.5420  148.8690 C   0  0  1  0  0  3  0  0  0  0  0  0
  160.7560  201.4000  149.8950 C   0  0  0  0  0  2  0  0  0  0  0  0
  160.6100  204.0260  150.9140 C   0  0  1  0  0  3  0  0  0  0  0  0
  161.7040  201.7110  151.0500 C   0  0  0  0  0  2  0  0  0  0  0  0
  161.0630  203.9150  149.4560 C   0  0  0  0  0  2  0  0  0  0  0  0
  161.2430  202.9550  151.8170 C   0  0  0  0  0  2  0  0  0  0  0  0
  161.5820  202.2570  147.8140 O   0  0  0  0  0  1  0  0  0  0  0  0
  161.5650  210.6450  155.2940 C   0  0  0  0  0  2  0  0  0  0  0  0
  161.1080  213.0990  156.8830 N   0  0  0  0  0  1  0  0  0  0  0  0
  160.4570  211.6560  154.9970 C   0  0  2  0  0  3  0  0  0  0  0  0
  160.0040  212.3760  156.2760 C   0  0  1  0  0  3  0  0  0  0  0  0
  158.5770  210.3970  156.6590 C   0  0  0  0  0  2  0  0  0  0  0  0
  158.0800  210.7450  155.2560 C   0  0  0  0  0  2  0  0  0  0  0  0
  159.2640  210.9690  154.3140 C   0  0  0  0  0  2  0  0  0  0  0  0
  159.4010  211.4610  157.2600 N   0  0  0  0  0  2  0  0  0  0  0  0
  2 14  1  0  0  0  0
  3 18  2  0  0  0  0
  4 10  2  0  0  0  0
  5  6  1  0  0  0  0
  6  2  2  0  0  0  0
  7  9  1  0  0  0  0
  8  1  1  1  0  0  0
  8  2  1  0  0  0  0
  8  3  1  0  0  0  0
  9 27  1  0  0  0  0
  9 17  2  0  0  0  0
 10 17  1  0  0  0  0
 11  5  2  0  0  0  0
 11  1  1  0  0  0  0
 12  3  1  0  0  0  0
 12 16  1  0  0  0  0
 13  1  2  0  0  0  0
 13 19  1  0  0  0  0
 14  7  2  0  0  0  0
 15  4  1  0  0  0  0
 16 15  2  0  0  0  0
 18  7  1  0  0  0  0
 18  4  1  0  0  0  0
 19 12  2  0  0  0  0
 20 26  1  6  0  0  0
 20 24  1  0  0  0  0
 20 21  1  0  0  0  0
 21 23  1  0  0  0  0
 22 16  1  1  0  0  0
 22 25  1  0  0  0  0
 23 25  1  0  0  0  0
 24 22  1  0  0  0  0
 29 27  1  1  0  0  0
 29 30  1  0  0  0  0
 30 28  1  1  0  0  0
 30 34  1  0  0  0  0
 31 34  1  0  0  0  0
 32 31  1  0  0  0  0
 33 29  1  0  0  0  0
 33 32  1  0  0  0  0
M  END
>  <MODEL>
6

>  <REMARK>
 VINA RESULT:      -8.0      2.055      5.198
  Name = 
  3 active torsions:
  status: ('A' for Active; 'I' for Inactive)
    1  A    between atoms: C_3  and  C_13
    2  A    between atoms: C_3  and  C_17
    3  A    between atoms: C_12  and  C_28
                            x       y       z     vdW  Elec       q    Type
                         _______ _______ _______ _____ _____    ______ ____

>  <TORSDO>
F 3

$$$$
=
 OpenBabel11062407533D

 34 40  0  0  1  0  0  0  0  0999 V2000
  161.7610  208.5320  148.7840 C   0  0  0  0  0  0  0  0  0  0  0  0
  161.8090  209.2450  151.1210 C   0  0  0  0  0  0  0  0  0  0  0  0
  161.3210  206.9420  150.5600 C   0  0  0  0  0  0  0  0  0  0  0  0
  160.8810  205.3500  152.3180 C   0  0  0  0  0  0  0  0  0  0  0  0
  162.2500  210.8390  149.3460 C   0  0  0  0  0  3  0  0  0  0  0  0
  162.1200  210.5460  150.7110 C   0  0  0  0  0  3  0  0  0  0  0  0
  161.3810  207.6750  152.8620 C   0  0  0  0  0  0  0  0  0  0  0  0
  161.6300  208.2410  150.1510 C   0  0  0  0  0  0  0  0  0  0  0  0
  161.2720  207.3510  154.2950 C   0  0  0  0  0  0  0  0  0  0  0  0
  160.7030  205.0120  153.7750 C   0  0  0  0  0  3  0  0  0  0  0  0
  162.0710  209.8350  148.3830 C   0  0  0  0  0  3  0  0  0  0  0  0
  161.1430  205.9350  149.5980 C   0  0  0  0  0  0  0  0  0  0  0  0
  161.5770  207.5040  147.8520 C   0  0  0  0  0  3  0  0  0  0  0  0
  161.6830  208.9410  152.4430 N   0  0  0  0  0  0  0  0  0  0  0  0
  160.7080  204.3840  151.3730 N   0  0  0  0  0  2  0  0  0  0  0  0
  160.8310  204.6310  150.0370 C   0  0  0  0  0  0  0  0  0  0  0  0
  160.9850  206.1400  154.6760 N   0  0  0  0  0  0  0  0  0  0  0  0
  161.1920  206.6550  151.9220 C   0  0  0  0  0  0  0  0  0  0  0  0
  161.2760  206.2420  148.2740 N   0  0  0  0  0  0  0  0  0  0  0  0
  160.9810  202.6380  146.7300 C   0  0  1  0  0  3  0  0  0  0  0  0
  160.7760  201.2570  147.3700 C   0  0  0  0  0  2  0  0  0  0  0  0
  160.6230  203.4920  149.0840 C   0  0  1  0  0  3  0  0  0  0  0  0
  161.5320  201.1270  148.6890 C   0  0  0  0  0  2  0  0  0  0  0  0
  161.3090  203.7450  147.7390 C   0  0  0  0  0  2  0  0  0  0  0  0
  161.0260  202.1480  149.7140 C   0  0  0  0  0  2  0  0  0  0  0  0
  161.9940  202.5690  145.7750 O   0  0  0  0  0  1  0  0  0  0  0  0
  161.5440  208.3970  155.3280 C   0  0  0  0  0  2  0  0  0  0  0  0
  163.1850  210.8360  155.6680 N   0  0  0  0  0  1  0  0  0  0  0  0
  161.1200  209.7820  154.8390 C   0  0  2  0  0  3  0  0  0  0  0  0
  161.7340  210.8910  155.7070 C   0  0  1  0  0  3  0  0  0  0  0  0
  159.8480  210.4710  157.2440 C   0  0  0  0  0  2  0  0  0  0  0  0
  159.0320  210.7260  155.9780 C   0  0  0  0  0  2  0  0  0  0  0  0
  159.5880  209.9030  154.8130 C   0  0  0  0  0  2  0  0  0  0  0  0
  161.2670  210.8440  157.1030 N   0  0  0  0  0  2  0  0  0  0  0  0
  1  8  2  0  0  0  0
  2 14  1  0  0  0  0
  3 18  2  0  0  0  0
  4 10  2  0  0  0  0
  5  6  1  0  0  0  0
  6  2  2  0  0  0  0
  7  9  1  0  0  0  0
  8  3  1  0  0  0  0
  8  2  1  0  0  0  0
  9 17  2  0  0  0  0
  9 27  1  0  0  0  0
 10 17  1  0  0  0  0
 11  1  1  0  0  0  0
 11  5  2  0  0  0  0
 12 16  2  0  0  0  0
 12  3  1  0  0  0  0
 13 19  2  0  0  0  0
 13  1  1  0  0  0  0
 14  7  2  0  0  0  0
 15  4  1  0  0  0  0
 16 15  1  0  0  0  0
 18  4  1  0  0  0  0
 18  7  1  0  0  0  0
 19 12  1  0  0  0  0
 20 26  1  6  0  0  0
 20 21  1  0  0  0  0
 20 24  1  0  0  0  0
 21 23  1  0  0  0  0
 22 25  1  0  0  0  0
 22 16  1  1  0  0  0
 23 25  1  0  0  0  0
 24 22  1  0  0  0  0
 29 27  1  1  0  0  0
 29 30  1  0  0  0  0
 30 28  1  1  0  0  0
 30 34  1  0  0  0  0
 32 31  1  0  0  0  0
 33 29  1  0  0  0  0
 33 32  1  0  0  0  0
 34 31  1  0  0  0  0
M  END
>  <MODEL>
7

>  <REMARK>
 VINA RESULT:      -7.9      2.397      5.351
  Name = 
  3 active torsions:
  status: ('A' for Active; 'I' for Inactive)
    1  A    between atoms: C_3  and  C_13
    2  A    between atoms: C_3  and  C_17
    3  A    between atoms: C_12  and  C_28
                            x       y       z     vdW  Elec       q    Type
                         _______ _______ _______ _____ _____    ______ ____

>  <TORSDO>
F 3

$$$$
=
 OpenBabel11062407533D

 34 40  0  0  1  0  0  0  0  0999 V2000
  160.9420  212.8110  149.9650 C   0  0  0  0  0  0  0  0  0  0  0  0
  161.6780  210.7320  148.9110 C   0  0  0  0  0  0  0  0  0  0  0  0
  160.9370  210.7340  151.2150 C   0  0  0  0  0  0  0  0  0  0  0  0
  160.9280  208.6740  152.4690 C   0  0  0  0  0  0  0  0  0  0  0  0
  161.6850  212.8090  147.6580 C   0  0  0  0  0  3  0  0  0  0  0  0
  161.9270  211.4290  147.7240 C   0  0  0  0  0  3  0  0  0  0  0  0
  161.6660  208.6930  150.1440 C   0  0  0  0  0  0  0  0  0  0  0  0
  161.1860  211.4300  150.0300 C   0  0  0  0  0  0  0  0  0  0  0  0
  161.8870  207.2390  150.2140 C   0  0  0  0  0  0  0  0  0  0  0  0
  161.2080  207.1980  152.5820 C   0  0  0  0  0  3  0  0  0  0  0  0
  161.1940  213.5000  148.7750 C   0  0  0  0  0  3  0  0  0  0  0  0
  160.4440  211.4220  152.3340 C   0  0  0  0  0  0  0  0  0  0  0  0
  160.4510  213.4660  151.1010 C   0  0  0  0  0  3  0  0  0  0  0  0
  161.9040  209.3910  148.9930 N   0  0  0  0  0  0  0  0  0  0  0  0
  160.4520  209.3550  153.5490 N   0  0  0  0  0  0  0  0  0  0  0  0
  160.2010  210.6960  153.5200 C   0  0  0  0  0  0  0  0  0  0  0  0
  161.6550  206.5900  151.3190 N   0  0  0  0  0  0  0  0  0  0  0  0
  161.1800  209.3580  151.2760 C   0  0  1  0  0  3  0  0  0  0  0  0
  160.2140  212.7660  152.2470 N   0  0  0  0  0  0  0  0  0  0  0  0
  157.6140  212.0690  156.0400 C   0  0  1  0  0  3  0  0  0  0  0  0
  158.5530  212.0480  157.2550 C   0  0  0  0  0  2  0  0  0  0  0  0
  159.6750  211.3460  154.7650 C   0  0  1  0  0  3  0  0  0  0  0  0
  159.4430  210.8080  157.2610 C   0  0  0  0  0  2  0  0  0  0  0  0
  158.1470  211.2890  154.8320 C   0  0  0  0  0  2  0  0  0  0  0  0
  160.3490  210.7780  156.0250 C   0  0  0  0  0  2  0  0  0  0  0  0
  156.3650  211.5650  156.4010 O   0  0  0  0  0  1  0  0  0  0  0  0
  162.3310  206.4830  149.0030 C   0  0  0  0  0  2  0  0  0  0  0  0
  161.2030  203.7760  149.4060 N   0  0  0  0  0  1  0  0  0  0  0  0
  161.1350  205.9350  148.2240 C   0  0  2  0  0  3  0  0  0  0  0  0
  161.2060  204.4060  148.0970 C   0  0  1  0  0  3  0  0  0  0  0  0
  162.7090  204.8230  146.1820 C   0  0  0  0  0  2  0  0  0  0  0  0
  161.5270  205.6690  145.7090 C   0  0  0  0  0  2  0  0  0  0  0  0
  161.0470  206.5870  146.8350 C   0  0  0  0  0  2  0  0  0  0  0  0
  162.3750  203.9540  147.3250 N   0  0  0  0  0  2  0  0  0  0  0  0
  1  8  1  0  0  0  0
  1 13  1  0  0  0  0
  2 14  2  0  0  0  0
  2  8  1  0  0  0  0
  3 18  1  0  0  0  0
  3 12  1  0  0  0  0
  4 10  1  0  0  0  0
  4 15  2  0  0  0  0
  5  6  2  0  0  0  0
  5 11  1  0  0  0  0
  6  2  1  0  0  0  0
  7  9  2  0  0  0  0
  8  3  2  0  0  0  0
  9 17  1  0  0  0  0
 11  1  2  0  0  0  0
 12 16  2  0  0  0  0
 13 19  2  0  0  0  0
 14  7  1  0  0  0  0
 16 15  1  0  0  0  0
 17 10  2  0  0  0  0
 18  7  1  6  0  0  0
 18  4  1  0  0  0  0
 19 12  1  0  0  0  0
 20 26  1  1  0  0  0
 20 21  1  0  0  0  0
 21 23  1  0  0  0  0
 22 16  1  6  0  0  0
 22 24  1  0  0  0  0
 22 25  1  0  0  0  0
 24 20  1  0  0  0  0
 25 23  1  0  0  0  0
 27  9  1  0  0  0  0
 29 27  1  6  0  0  0
 30 29  1  0  0  0  0
 30 28  1  1  0  0  0
 31 34  1  0  0  0  0
 32 31  1  0  0  0  0
 32 33  1  0  0  0  0
 33 29  1  0  0  0  0
 34 30  1  0  0  0  0
M  END
>  <MODEL>
8

>  <REMARK>
 VINA RESULT:      -7.6      3.287      7.733
  Name = 
  3 active torsions:
  status: ('A' for Active; 'I' for Inactive)
    1  A    between atoms: C_3  and  C_13
    2  A    between atoms: C_3  and  C_17
    3  A    between atoms: C_12  and  C_28
                            x       y       z     vdW  Elec       q    Type
                         _______ _______ _______ _____ _____    ______ ____

>  <TORSDO>
F 3

$$$$
=
 OpenBabel11062407533D

 34 40  0  0  1  0  0  0  0  0999 V2000
  160.8310  203.3520  151.8450 C   0  0  0  0  0  0  0  0  0  0  0  0
  160.6980  203.7680  149.4410 C   0  0  0  0  0  0  0  0  0  0  0  0
  161.0730  205.6010  150.9750 C   0  0  0  0  0  0  0  0  0  0  0  0
  161.3160  207.8440  150.1220 C   0  0  0  0  0  0  0  0  0  0  0  0
  160.4550  201.5160  150.3080 C   0  0  0  0  0  3  0  0  0  0  0  0
  160.4920  202.4020  149.2220 C   0  0  0  0  0  3  0  0  0  0  0  0
  160.9430  205.9810  148.5920 C   0  0  0  0  0  0  0  0  0  0  0  0
  160.8670  204.2370  150.7560 C   0  0  0  0  0  0  0  0  0  0  0  0
  161.0140  206.9150  147.4550 C   0  0  0  0  0  0  0  0  0  0  0  0
  161.3280  208.8250  148.9790 C   0  0  0  0  0  2  0  0  0  0  0  0
  160.6230  201.9880  151.6180 C   0  0  0  0  0  3  0  0  0  0  0  0
  161.2450  206.0770  152.2840 C   0  0  0  0  0  0  0  0  0  0  0  0
  161.0050  203.8610  153.1380 C   0  0  0  0  0  3  0  0  0  0  0  0
  160.7410  204.6430  148.3970 N   0  0  0  0  0  0  0  0  0  0  0  0
  161.4770  208.2920  151.3980 N   0  0  0  0  0  0  0  0  0  0  0  0
  161.4520  207.4590  152.4780 C   0  0  0  0  0  0  0  0  0  0  0  0
  161.2080  208.1870  147.6580 N   0  0  0  0  0  0  0  0  0  0  0  0
  161.1100  206.4810  149.8890 C   0  0  0  0  0  0  0  0  0  0  0  0
  161.2060  205.1960  153.3280 N   0  0  0  0  0  0  0  0  0  0  0  0
  161.8430  210.1940  155.1790 C   0  0  1  0  0  3  0  0  0  0  0  0
  161.4600  209.2980  156.3670 C   0  0  0  0  0  2  0  0  0  0  0  0
  161.6440  208.0580  153.8400 C   0  0  1  0  0  3  0  0  0  0  0  0
  160.3180  208.3500  156.0150 C   0  0  0  0  0  2  0  0  0  0  0  0
  161.5150  209.5830  153.8120 C   0  0  0  0  0  2  0  0  0  0  0  0
  160.7210  207.4020  154.8800 C   0  0  0  0  0  2  0  0  0  0  0  0
  161.2060  211.4290  155.2980 O   0  0  0  0  0  1  0  0  0  0  0  0
  160.9180  206.4070  146.0520 C   0  0  0  0  0  2  0  0  0  0  0  0
  161.5180  205.8280  143.2120 N   0  0  0  0  0  1  0  0  0  0  0  0
  162.2710  205.8970  145.5550 C   0  0  2  0  0  3  0  0  0  0  0  0
  162.1140  205.0490  144.2830 C   0  0  1  0  0  3  0  0  0  0  0  0
  161.5810  203.1880  145.8170 C   0  0  0  0  0  2  0  0  0  0  0  0
  162.9270  203.5810  146.4250 C   0  0  0  0  0  2  0  0  0  0  0  0
  162.9850  205.0930  146.6530 C   0  0  0  0  0  2  0  0  0  0  0  0
  161.3300  203.8240  144.5110 N   0  0  0  0  0  2  0  0  0  0  0  0
  1 13  1  0  0  0  0
  2  8  1  0  0  0  0
  3 12  1  0  0  0  0
  4 15  2  0  0  0  0
  5 11  1  0  0  0  0
  6  2  1  0  0  0  0
  6  5  2  0  0  0  0
  7 18  2  0  0  0  0
  8  3  2  0  0  0  0
  8  1  1  0  0  0  0
  9 17  2  0  0  0  0
  9  7  1  0  0  0  0
 10  4  1  0  0  0  0
 11  1  2  0  0  0  0
 12 16  2  0  0  0  0
 12 19  1  0  0  0  0
 13 19  2  0  0  0  0
 14  7  1  0  0  0  0
 14  2  2  0  0  0  0
 15 16  1  0  0  0  0
 17 10  1  0  0  0  0
 18  4  1  0  0  0  0
 18  3  1  0  0  0  0
 20 26  1  1  0  0  0
 20 21  1  0  0  0  0
 22 16  1  6  0  0  0
 22 25  1  0  0  0  0
 23 21  1  0  0  0  0
 24 22  1  0  0  0  0
 24 20  1  0  0  0  0
 25 23  1  0  0  0  0
 27  9  1  0  0  0  0
 29 27  1  1  0  0  0
 29 33  1  0  0  0  0
 30 28  1  6  0  0  0
 30 34  1  0  0  0  0
 30 29  1  0  0  0  0
 31 32  1  0  0  0  0
 32 33  1  0  0  0  0
 34 31  1  0  0  0  0
M  END
>  <MODEL>
9

>  <REMARK>
 VINA RESULT:      -7.4      3.324      7.017
  Name = 
  3 active torsions:
  status: ('A' for Active; 'I' for Inactive)
    1  A    between atoms: C_3  and  C_13
    2  A    between atoms: C_3  and  C_17
    3  A    between atoms: C_12  and  C_28
                            x       y       z     vdW  Elec       q    Type
                         _______ _______ _______ _____ _____    ______ ____

>  <TORSDO>
F 3

$$$$
