=
 OpenBabel11052422113D

 25 28  0  0  1  0  0  0  0  0999 V2000
  161.1150  206.3810  150.5560 C   0  0  0  0  0  0  0  0  0  0  0  0
  161.2140  205.0960  149.8620 N   0  0  0  0  0  0  0  0  0  0  0  0
  160.9070  203.7840  151.9020 C   0  0  0  0  0  3  0  0  0  0  0  0
  161.2900  204.8420  148.5460 C   0  0  0  0  0  0  0  0  0  0  0  0
  161.4000  203.8510  145.9640 C   0  0  0  0  0  3  0  0  0  0  0  0
  160.8870  204.8640  152.6250 N   0  0  0  0  0  0  0  0  0  0  0  0
  161.2490  203.4870  148.3270 C   0  0  0  0  0  0  0  0  0  0  0  0
  161.3030  202.9530  147.0410 C   0  0  0  0  0  3  0  0  0  0  0  0
  161.1200  207.2540  152.8750 C   0  0  2  0  0  3  0  0  0  0  0  0
  160.9200  207.0870  154.6120 Cl  0  0  0  0  0  0  0  0  0  0  0  0
  162.5460  207.4410  150.1760 S   0  0  0  0  0  0  0  0  0  0  0  0
  161.4330  205.2440  146.1900 C   0  0  0  0  0  3  0  0  0  0  0  0
  161.0960  203.8920  150.4570 C   0  0  0  0  0  0  0  0  0  0  0  0
  161.1190  202.8380  149.5440 C   0  0  0  0  0  3  0  0  0  0  0  0
  161.3480  208.6090  152.3350 C   0  0  0  0  0  3  0  0  0  0  0  0
  161.3740  205.7570  147.4970 C   0  0  0  0  0  3  0  0  0  0  0  0
  161.8740  208.8270  151.1250 C   0  0  0  0  0  0  0  0  0  0  0  0
  161.0460  206.1840  152.0640 C   0  0  0  0  0  0  0  0  0  0  0  0
  161.9280  210.1740  150.6420 N   0  0  0  0  0  2  0  0  0  0  0  0
  161.9940  210.6020  149.2760 C   0  0  0  0  0  0  0  0  0  0  0  0
  161.9280  209.7780  148.3260 O   0  0  0  0  0  0  0  0  0  0  0  0
  162.1550  212.0510  148.9740 C   0  0  0  0  0  2  0  0  0  0  0  0
  161.6800  212.3440  147.5930 C   0  0  0  0  0  0  0  0  0  0  0  0
  160.3290  212.2450  147.2870 O   0  0  0  0  0  1  0  0  0  0  0  0
  162.4980  212.7120  146.7100 O   0  0  0  0  0  0  0  0  0  0  0  0
  1 18  2  0  0  0  0
  2 13  1  0  0  0  0
  2  1  1  0  0  0  0
  3  6  2  0  0  0  0
  4  2  1  0  0  0  0
  5 12  2  0  0  0  0
  5  8  1  0  0  0  0
  7  4  1  0  0  0  0
  7 14  1  0  0  0  0
  8  7  2  0  0  0  0
  9 10  1  6  0  0  0
 11  1  1  0  0  0  0
 11 17  1  0  0  0  0
 12 16  1  0  0  0  0
 13  3  1  0  0  0  0
 14 13  2  0  0  0  0
 15  9  1  0  0  0  0
 16  4  2  0  0  0  0
 17 15  2  0  0  0  0
 18  6  1  0  0  0  0
 18  9  1  0  0  0  0
 19 17  1  0  0  0  0
 20 19  1  0  0  0  0
 21 20  2  0  0  0  0
 22 20  1  0  0  0  0
 23 22  1  0  0  0  0
 24 23  1  0  0  0  0
 25 23  2  0  0  0  0
M  END
>  <MODEL>
1

>  <REMARK>
 VINA RESULT:      -9.2      0.000      0.000
  Name = 
  3 active torsions:
  status: ('A' for Active; 'I' for Inactive)
    1  A    between atoms: C_2  and  C_21
    2  A    between atoms: N_6  and  C_23
    3  A    between atoms: C_15  and  C_21
                            x       y       z     vdW  Elec       q    Type
                         _______ _______ _______ _____ _____    ______ ____

>  <TORSDO>
F 3

$$$$
=
 OpenBabel11052422113D

 25 28  0  0  1  0  0  0  0  0999 V2000
  161.6670  206.1080  149.6040 C   0  0  0  0  0  0  0  0  0  0  0  0
  161.4980  204.9590  148.7130 N   0  0  0  0  0  0  0  0  0  0  0  0
  162.0960  206.2200  146.7050 C   0  0  0  0  0  3  0  0  0  0  0  0
  161.2530  203.6750  149.0160 C   0  0  0  0  0  0  0  0  0  0  0  0
  160.8190  200.9450  149.1650 C   0  0  0  0  0  3  0  0  0  0  0  0
  162.1930  207.3190  147.3930 N   0  0  0  0  0  0  0  0  0  0  0  0
  161.2890  202.9100  147.8770 C   0  0  0  0  0  0  0  0  0  0  0  0
  161.0740  201.5330  147.9140 C   0  0  0  0  0  3  0  0  0  0  0  0
  161.9530  208.5650  149.4470 C   0  0  2  0  0  3  0  0  0  0  0  0
  162.3850  210.0400  148.5980 Cl  0  0  0  0  0  0  0  0  0  0  0  0
  160.1790  206.3680  150.6220 S   0  0  0  0  0  0  0  0  0  0  0  0
  160.7920  201.7310  150.3370 C   0  0  0  0  0  3  0  0  0  0  0  0
  161.7160  204.9820  147.3820 C   0  0  0  0  0  0  0  0  0  0  0  0
  161.5900  203.7240  146.7970 C   0  0  0  0  0  3  0  0  0  0  0  0
  161.6320  208.6660  150.8850 C   0  0  0  0  0  3  0  0  0  0  0  0
  161.0140  203.1180  150.2720 C   0  0  0  0  0  3  0  0  0  0  0  0
  160.9470  207.7250  151.5410 C   0  0  0  0  0  0  0  0  0  0  0  0
  161.9380  207.3800  148.8120 C   0  0  0  0  0  0  0  0  0  0  0  0
  160.8060  207.8540  152.9610 N   0  0  0  0  0  2  0  0  0  0  0  0
  161.0480  206.8470  153.9500 C   0  0  0  0  0  0  0  0  0  0  0  0
  161.5080  205.7180  153.6380 O   0  0  0  0  0  0  0  0  0  0  0  0
  160.7380  207.1390  155.3770 C   0  0  0  0  0  2  0  0  0  0  0  0
  160.8010  208.6060  155.6260 C   0  0  0  0  0  0  0  0  0  0  0  0
  159.6320  209.3520  155.6840 O   0  0  0  0  0  0  0  0  0  0  0  0
  161.9120  209.1650  155.8160 O   0  0  0  0  0  1  0  0  0  0  0  0
  1 11  1  0  0  0  0
  2  4  1  0  0  0  0
  2  1  1  0  0  0  0
  3 13  1  0  0  0  0
  3  6  2  0  0  0  0
  4 16  1  0  0  0  0
  5 12  1  0  0  0  0
  6 18  1  0  0  0  0
  7  8  1  0  0  0  0
  7  4  2  0  0  0  0
  8  5  2  0  0  0  0
  9 10  1  1  0  0  0
  9 15  1  0  0  0  0
 11 17  1  0  0  0  0
 13  2  1  0  0  0  0
 14 13  2  0  0  0  0
 14  7  1  0  0  0  0
 15 17  2  0  0  0  0
 16 12  2  0  0  0  0
 17 19  1  0  0  0  0
 18  9  1  0  0  0  0
 18  1  2  0  0  0  0
 19 20  1  0  0  0  0
 20 22  1  0  0  0  0
 21 20  2  0  0  0  0
 22 23  1  0  0  0  0
 23 24  2  0  0  0  0
 23 25  1  0  0  0  0
M  END
>  <MODEL>
2

>  <REMARK>
 VINA RESULT:      -8.9      3.732      5.143
  Name = 
  3 active torsions:
  status: ('A' for Active; 'I' for Inactive)
    1  A    between atoms: C_2  and  C_21
    2  A    between atoms: N_6  and  C_23
    3  A    between atoms: C_15  and  C_21
                            x       y       z     vdW  Elec       q    Type
                         _______ _______ _______ _____ _____    ______ ____

>  <TORSDO>
F 3

$$$$
=
 OpenBabel11052422113D

 25 28  0  0  1  0  0  0  0  0999 V2000
  161.8590  207.5490  150.7460 C   0  0  0  0  0  0  0  0  0  0  0  0
  161.5090  206.2990  150.0690 N   0  0  0  0  0  0  0  0  0  0  0  0
  161.6880  207.2680  147.8320 C   0  0  0  0  0  3  0  0  0  0  0  0
  161.3280  205.0730  150.5850 C   0  0  0  0  0  0  0  0  0  0  0  0
  160.9260  202.4000  151.1830 C   0  0  0  0  0  3  0  0  0  0  0  0
  161.9260  208.4440  148.3310 N   0  0  0  0  0  0  0  0  0  0  0  0
  161.1280  204.1650  149.5750 C   0  0  0  0  0  0  0  0  0  0  0  0
  160.9220  202.8120  149.8380 C   0  0  0  0  0  3  0  0  0  0  0  0
  162.1140  209.9540  150.2060 C   0  0  2  0  0  3  0  0  0  0  0  0
  162.3670  211.2930  149.0970 Cl  0  0  0  0  0  0  0  0  0  0  0  0
  160.6110  207.9840  151.9990 S   0  0  0  0  0  0  0  0  0  0  0  0
  161.1410  203.3340  152.2200 C   0  0  0  0  0  3  0  0  0  0  0  0
  161.4510  206.1410  148.7310 C   0  0  0  0  0  0  0  0  0  0  0  0
  161.2050  204.8210  148.3570 C   0  0  0  0  0  3  0  0  0  0  0  0
  162.0930  210.2520  151.6530 C   0  0  0  0  0  3  0  0  0  0  0  0
  161.3490  204.6920  151.9260 C   0  0  0  0  0  3  0  0  0  0  0  0
  161.5540  209.4260  152.5540 C   0  0  0  0  0  0  0  0  0  0  0  0
  161.9670  208.6980  149.7520 C   0  0  0  0  0  0  0  0  0  0  0  0
  161.7060  209.7440  153.9420 N   0  0  0  0  0  2  0  0  0  0  0  0
  160.7830  210.4600  154.7720 C   0  0  0  0  0  0  0  0  0  0  0  0
  159.6570  210.8220  154.3400 O   0  0  0  0  0  0  0  0  0  0  0  0
  161.1680  210.7910  156.1720 C   0  0  0  0  0  2  0  0  0  0  0  0
  162.4820  210.1710  156.5030 C   0  0  0  0  0  0  0  0  0  0  0  0
  163.6580  210.8760  156.2830 O   0  0  0  0  0  0  0  0  0  0  0  0
  162.5250  209.0200  157.0110 O   0  0  0  0  0  1  0  0  0  0  0  0
  1 11  1  0  0  0  0
  2  4  1  0  0  0  0
  2  1  1  0  0  0  0
  3  6  2  0  0  0  0
  3 13  1  0  0  0  0
  4 16  1  0  0  0  0
  5 12  1  0  0  0  0
  6 18  1  0  0  0  0
  7  8  1  0  0  0  0
  7  4  2  0  0  0  0
  8  5  2  0  0  0  0
  9 10  1  1  0  0  0
  9 15  1  0  0  0  0
 11 17  1  0  0  0  0
 13  2  1  0  0  0  0
 14 13  2  0  0  0  0
 14  7  1  0  0  0  0
 15 17  2  0  0  0  0
 16 12  2  0  0  0  0
 17 19  1  0  0  0  0
 18  9  1  0  0  0  0
 18  1  2  0  0  0  0
 19 20  1  0  0  0  0
 20 22  1  0  0  0  0
 21 20  2  0  0  0  0
 22 23  1  0  0  0  0
 23 25  1  0  0  0  0
 24 23  2  0  0  0  0
M  END
>  <MODEL>
3

>  <REMARK>
 VINA RESULT:      -8.8      3.654      5.340
  Name = 
  3 active torsions:
  status: ('A' for Active; 'I' for Inactive)
    1  A    between atoms: C_2  and  C_21
    2  A    between atoms: N_6  and  C_23
    3  A    between atoms: C_15  and  C_21
                            x       y       z     vdW  Elec       q    Type
                         _______ _______ _______ _____ _____    ______ ____

>  <TORSDO>
F 3

$$$$
=
 OpenBabel11052422113D

 25 28  0  0  1  0  0  0  0  0999 V2000
  161.0410  207.6730  152.0830 C   0  0  0  0  0  0  0  0  0  0  0  0
  161.2030  208.4780  153.2960 N   0  0  0  0  0  0  0  0  0  0  0  0
  162.0090  210.4420  152.0810 C   0  0  0  0  0  3  0  0  0  0  0  0
  160.8540  208.1940  154.5600 C   0  0  0  0  0  0  0  0  0  0  0  0
  160.2600  208.0700  157.2610 C   0  0  0  0  0  3  0  0  0  0  0  0
  161.9810  209.7910  150.9570 N   0  0  0  0  0  0  0  0  0  0  0  0
  161.0820  209.2820  155.3650 C   0  0  0  0  0  0  0  0  0  0  0  0
  160.7960  209.2560  156.7280 C   0  0  0  0  0  3  0  0  0  0  0  0
  161.6730  207.7590  149.6890 C   0  0  2  0  0  3  0  0  0  0  0  0
  162.1710  208.6000  148.2290 Cl  0  0  0  0  0  0  0  0  0  0  0  0
  161.9130  206.0820  152.2350 S   0  0  0  0  0  0  0  0  0  0  0  0
  160.0180  206.9540  156.4300 C   0  0  0  0  0  3  0  0  0  0  0  0
  161.6210  209.7600  153.3150 C   0  0  0  0  0  0  0  0  0  0  0  0
  161.5760  210.3190  154.5910 C   0  0  0  0  0  3  0  0  0  0  0  0
  161.3340  206.3260  149.5770 C   0  0  0  0  0  3  0  0  0  0  0  0
  160.3120  207.0080  155.0570 C   0  0  0  0  0  3  0  0  0  0  0  0
  161.3060  205.5050  150.6310 C   0  0  0  0  0  0  0  0  0  0  0  0
  161.5810  208.4060  150.8630 C   0  0  0  0  0  0  0  0  0  0  0  0
  160.8350  204.1660  150.4350 N   0  0  0  0  0  2  0  0  0  0  0  0
  160.9810  203.3600  149.2600 C   0  0  0  0  0  0  0  0  0  0  0  0
  161.6450  203.7600  148.2680 O   0  0  0  0  0  0  0  0  0  0  0  0
  160.3230  202.0250  149.2060 C   0  0  0  0  0  2  0  0  0  0  0  0
  160.8400  201.2450  148.0470 C   0  0  0  0  0  0  0  0  0  0  0  0
  160.4800  201.6000  146.7540 O   0  0  0  0  0  0  0  0  0  0  0  0
  161.6280  200.2830  148.2380 O   0  0  0  0  0  1  0  0  0  0  0  0
  1 11  1  0  0  0  0
  1  2  1  0  0  0  0
  2 13  1  0  0  0  0
  2  4  1  0  0  0  0
  3 13  1  0  0  0  0
  4 16  2  0  0  0  0
  4  7  1  0  0  0  0
  6  3  2  0  0  0  0
  7  8  2  0  0  0  0
  8  5  1  0  0  0  0
  9 10  1  6  0  0  0
  9 18  1  0  0  0  0
 12  5  2  0  0  0  0
 13 14  2  0  0  0  0
 14  7  1  0  0  0  0
 15  9  1  0  0  0  0
 15 17  2  0  0  0  0
 16 12  1  0  0  0  0
 17 11  1  0  0  0  0
 18  6  1  0  0  0  0
 18  1  2  0  0  0  0
 19 17  1  0  0  0  0
 20 19  1  0  0  0  0
 21 20  2  0  0  0  0
 22 20  1  0  0  0  0
 23 25  1  0  0  0  0
 23 22  1  0  0  0  0
 24 23  2  0  0  0  0
M  END
>  <MODEL>
4

>  <REMARK>
 VINA RESULT:      -8.5      3.792      7.812
  Name = 
  3 active torsions:
  status: ('A' for Active; 'I' for Inactive)
    1  A    between atoms: C_2  and  C_21
    2  A    between atoms: N_6  and  C_23
    3  A    between atoms: C_15  and  C_21
                            x       y       z     vdW  Elec       q    Type
                         _______ _______ _______ _____ _____    ______ ____

>  <TORSDO>
F 3

$$$$
=
 OpenBabel11052422113D

 25 28  0  0  1  0  0  0  0  0999 V2000
  160.8310  207.1940  151.6170 C   0  0  0  0  0  0  0  0  0  0  0  0
  161.0990  206.0260  150.7760 N   0  0  0  0  0  0  0  0  0  0  0  0
  161.2060  204.4820  152.6690 C   0  0  0  0  0  3  0  0  0  0  0  0
  161.1060  205.9240  149.4380 C   0  0  0  0  0  0  0  0  0  0  0  0
  161.1690  205.2340  146.7570 C   0  0  0  0  0  3  0  0  0  0  0  0
  161.0560  205.4620  153.5100 N   0  0  0  0  0  0  0  0  0  0  0  0
  161.2880  204.6140  149.0690 C   0  0  0  0  0  0  0  0  0  0  0  0
  161.3270  204.2300  147.7300 C   0  0  0  0  0  3  0  0  0  0  0  0
  160.8800  207.8170  154.0150 C   0  0  2  0  0  3  0  0  0  0  0  0
  160.8620  207.4420  155.7310 Cl  0  0  0  0  0  0  0  0  0  0  0  0
  162.0130  208.5340  151.2670 S   0  0  0  0  0  0  0  0  0  0  0  0
  160.9730  206.5790  147.1380 C   0  0  0  0  0  3  0  0  0  0  0  0
  161.2480  204.7670  151.2360 C   0  0  0  0  0  0  0  0  0  0  0  0
  161.3810  203.8330  150.2100 C   0  0  0  0  0  3  0  0  0  0  0  0
  160.8160  209.2380  153.6190 C   0  0  0  0  0  3  0  0  0  0  0  0
  160.9350  206.9390  148.4960 C   0  0  0  0  0  3  0  0  0  0  0  0
  161.1880  209.6690  152.4110 C   0  0  0  0  0  0  0  0  0  0  0  0
  160.9280  206.8380  153.0940 C   0  0  0  0  0  0  0  0  0  0  0  0
  160.9600  211.0440  152.0810 N   0  0  0  0  0  2  0  0  0  0  0  0
  159.7370  211.7770  152.2260 C   0  0  0  0  0  0  0  0  0  0  0  0
  158.7210  211.2600  152.7600 O   0  0  0  0  0  0  0  0  0  0  0  0
  159.6640  213.1770  151.7230 C   0  0  0  0  0  2  0  0  0  0  0  0
  158.2610  213.5180  151.3550 C   0  0  0  0  0  0  0  0  0  0  0  0
  157.4450  214.1800  152.2620 O   0  0  0  0  0  1  0  0  0  0  0  0
  157.8250  213.2330  150.2090 O   0  0  0  0  0  0  0  0  0  0  0  0
  1 18  2  0  0  0  0
  2 13  1  0  0  0  0
  2  1  1  0  0  0  0
  3  6  2  0  0  0  0
  4  2  1  0  0  0  0
  5 12  2  0  0  0  0
  5  8  1  0  0  0  0
  7  4  1  0  0  0  0
  7 14  1  0  0  0  0
  8  7  2  0  0  0  0
  9 10  1  6  0  0  0
 11  1  1  0  0  0  0
 11 17  1  0  0  0  0
 12 16  1  0  0  0  0
 13  3  1  0  0  0  0
 14 13  2  0  0  0  0
 15  9  1  0  0  0  0
 16  4  2  0  0  0  0
 17 15  2  0  0  0  0
 18  6  1  0  0  0  0
 18  9  1  0  0  0  0
 19 20  1  0  0  0  0
 19 17  1  0  0  0  0
 20 21  2  0  0  0  0
 22 20  1  0  0  0  0
 23 22  1  0  0  0  0
 23 24  1  0  0  0  0
 25 23  2  0  0  0  0
M  END
>  <MODEL>
5

>  <REMARK>
 VINA RESULT:      -8.3      2.547      2.826
  Name = 
  3 active torsions:
  status: ('A' for Active; 'I' for Inactive)
    1  A    between atoms: C_2  and  C_21
    2  A    between atoms: N_6  and  C_23
    3  A    between atoms: C_15  and  C_21
                            x       y       z     vdW  Elec       q    Type
                         _______ _______ _______ _____ _____    ______ ____

>  <TORSDO>
F 3

$$$$
=
 OpenBabel11052422113D

 25 28  0  0  1  0  0  0  0  0999 V2000
  161.1890  206.9530  150.9630 C   0  0  0  0  0  0  0  0  0  0  0  0
  161.2330  205.5010  151.1460 N   0  0  0  0  0  0  0  0  0  0  0  0
  161.1860  205.6420  153.5870 C   0  0  0  0  0  3  0  0  0  0  0  0
  161.1630  204.5240  150.2290 C   0  0  0  0  0  0  0  0  0  0  0  0
  160.9960  202.2090  148.7200 C   0  0  0  0  0  3  0  0  0  0  0  0
  161.2280  206.9400  153.5380 N   0  0  0  0  0  0  0  0  0  0  0  0
  161.1230  203.3000  150.8490 C   0  0  0  0  0  0  0  0  0  0  0  0
  161.0400  202.1140  150.1220 C   0  0  0  0  0  3  0  0  0  0  0  0
  161.4430  209.0130  152.3170 C   0  0  2  0  0  3  0  0  0  0  0  0
  161.4450  209.9000  153.8330 Cl  0  0  0  0  0  0  0  0  0  0  0  0
  162.5470  207.5170  149.8890 S   0  0  0  0  0  0  0  0  0  0  0  0
  161.0280  203.4690  148.0830 C   0  0  0  0  0  3  0  0  0  0  0  0
  161.2060  204.8780  152.3420 C   0  0  0  0  0  0  0  0  0  0  0  0
  161.1450  203.4900  152.2210 C   0  0  0  0  0  3  0  0  0  0  0  0
  161.5820  209.7850  151.0660 C   0  0  0  0  0  2  0  0  0  0  0  0
  161.1090  204.6500  148.8400 C   0  0  0  0  0  3  0  0  0  0  0  0
  161.9620  209.2290  149.9120 C   0  0  0  0  0  0  0  0  0  0  0  0
  161.2960  207.6760  152.2980 C   0  0  0  0  0  0  0  0  0  0  0  0
  161.9350  210.0370  148.7290 N   0  0  0  0  0  0  0  0  0  0  0  0
  161.7630  211.4570  148.6550 C   0  0  0  0  0  0  0  0  0  0  0  0
  161.6950  212.1650  149.6940 O   0  0  0  0  0  0  0  0  0  0  0  0
  161.6520  212.1080  147.3200 C   0  0  0  0  0  2  0  0  0  0  0  0
  160.7390  213.2830  147.3970 C   0  0  0  0  0  0  0  0  0  0  0  0
  159.4320  213.1200  147.8370 O   0  0  0  0  0  1  0  0  0  0  0  0
  161.1610  214.4290  147.0930 O   0  0  0  0  0  0  0  0  0  0  0  0
  1  2  1  0  0  0  0
  1 18  2  0  0  0  0
  2 13  1  0  0  0  0
  4  7  1  0  0  0  0
  4  2  1  0  0  0  0
  5  8  1  0  0  0  0
  6  3  2  0  0  0  0
  7 14  1  0  0  0  0
  8  7  2  0  0  0  0
  9 10  1  6  0  0  0
 11 17  1  0  0  0  0
 11  1  1  0  0  0  0
 12  5  2  0  0  0  0
 12 16  1  0  0  0  0
 13  3  1  0  0  0  0
 14 13  2  0  0  0  0
 15  9  1  0  0  0  0
 16  4  2  0  0  0  0
 17 15  1  0  0  0  0
 18  9  1  0  0  0  0
 18  6  1  0  0  0  0
 19 17  2  0  0  0  0
 20 19  1  0  0  0  0
 20 21  2  0  0  0  0
 22 23  1  0  0  0  0
 22 20  1  0  0  0  0
 23 24  1  0  0  0  0
 25 23  2  0  0  0  0
M  END
>  <MODEL>
6

>  <REMARK>
 VINA RESULT:      -8.2      1.489      2.094
  Name = 
  3 active torsions:
  status: ('A' for Active; 'I' for Inactive)
    1  A    between atoms: C_2  and  C_21
    2  A    between atoms: N_6  and  C_23
    3  A    between atoms: C_15  and  C_21
                            x       y       z     vdW  Elec       q    Type
                         _______ _______ _______ _____ _____    ______ ____

>  <TORSDO>
F 3

$$$$
=
 OpenBabel11052422113D

 25 28  0  0  1  0  0  0  0  0999 V2000
  161.5870  206.3740  150.4570 C   0  0  0  0  0  0  0  0  0  0  0  0
  161.5020  207.7310  151.0030 N   0  0  0  0  0  0  0  0  0  0  0  0
  161.1910  206.9620  153.3030 C   0  0  0  0  0  3  0  0  0  0  0  0
  161.6980  208.9080  150.3900 C   0  0  0  0  0  0  0  0  0  0  0  0
  162.0630  211.5280  149.5750 C   0  0  0  0  0  3  0  0  0  0  0  0
  161.1690  205.7230  152.9140 N   0  0  0  0  0  0  0  0  0  0  0  0
  161.6350  209.9290  151.3070 C   0  0  0  0  0  0  0  0  0  0  0  0
  161.8130  211.2590  150.9320 C   0  0  0  0  0  3  0  0  0  0  0  0
  161.1550  204.0430  151.1790 C   0  0  2  0  0  3  0  0  0  0  0  0
  160.9380  202.7950  152.3960 Cl  0  0  0  0  0  0  0  0  0  0  0  0
  160.4060  206.1470  149.0900 S   0  0  0  0  0  0  0  0  0  0  0  0
  162.1360  210.4770  148.6360 C   0  0  0  0  0  3  0  0  0  0  0  0
  161.3470  208.0230  152.3100 C   0  0  0  0  0  0  0  0  0  0  0  0
  161.4120  209.3920  152.5640 C   0  0  0  0  0  3  0  0  0  0  0  0
  161.2090  203.6240  149.7640 C   0  0  0  0  0  3  0  0  0  0  0  0
  161.9560  209.1430  149.0400 C   0  0  0  0  0  3  0  0  0  0  0  0
  160.9980  204.4700  148.7510 C   0  0  0  0  0  0  0  0  0  0  0  0
  161.2900  205.3340  151.5290 C   0  0  0  0  0  0  0  0  0  0  0  0
  161.2060  203.9950  147.4160 N   0  0  0  0  0  2  0  0  0  0  0  0
  162.1230  204.5150  146.4450 C   0  0  0  0  0  0  0  0  0  0  0  0
  162.9260  205.4410  146.7310 O   0  0  0  0  0  0  0  0  0  0  0  0
  162.1180  203.9530  145.0660 C   0  0  0  0  0  2  0  0  0  0  0  0
  161.0350  204.5830  144.2590 C   0  0  0  0  0  0  0  0  0  0  0  0
  159.8010  203.9580  144.1440 O   0  0  0  0  0  1  0  0  0  0  0  0
  161.2280  205.6980  143.7090 O   0  0  0  0  0  0  0  0  0  0  0  0
  1  2  1  0  0  0  0
  1 18  2  0  0  0  0
  2 13  1  0  0  0  0
  4  2  1  0  0  0  0
  4  7  1  0  0  0  0
  5  8  1  0  0  0  0
  6  3  2  0  0  0  0
  7 14  1  0  0  0  0
  8  7  2  0  0  0  0
  9 18  1  0  0  0  0
  9 10  1  1  0  0  0
 11  1  1  0  0  0  0
 12 16  1  0  0  0  0
 12  5  2  0  0  0  0
 13 14  2  0  0  0  0
 13  3  1  0  0  0  0
 15  9  1  0  0  0  0
 16  4  2  0  0  0  0
 17 11  1  0  0  0  0
 17 15  2  0  0  0  0
 18  6  1  0  0  0  0
 19 17  1  0  0  0  0
 20 21  2  0  0  0  0
 20 19  1  0  0  0  0
 22 20  1  0  0  0  0
 23 22  1  0  0  0  0
 24 23  1  0  0  0  0
 25 23  2  0  0  0  0
M  END
>  <MODEL>
7

>  <REMARK>
 VINA RESULT:      -7.9      2.789      5.931
  Name = 
  3 active torsions:
  status: ('A' for Active; 'I' for Inactive)
    1  A    between atoms: C_2  and  C_21
    2  A    between atoms: N_6  and  C_23
    3  A    between atoms: C_15  and  C_21
                            x       y       z     vdW  Elec       q    Type
                         _______ _______ _______ _____ _____    ______ ____

>  <TORSDO>
F 3

$$$$
=
 OpenBabel11052422113D

 25 28  0  0  1  0  0  0  0  0999 V2000
  160.8930  206.4000  150.6190 C   0  0  0  0  0  0  0  0  0  0  0  0
  161.1850  205.3220  149.6720 N   0  0  0  0  0  0  0  0  0  0  0  0
  161.3510  203.6150  151.4140 C   0  0  0  0  0  3  0  0  0  0  0  0
  161.1830  205.3440  148.3310 C   0  0  0  0  0  0  0  0  0  0  0  0
  161.2430  204.9060  145.5980 C   0  0  0  0  0  3  0  0  0  0  0  0
  161.1810  204.5070  152.3430 N   0  0  0  0  0  0  0  0  0  0  0  0
  161.3990  204.0800  147.8410 C   0  0  0  0  0  0  0  0  0  0  0  0
  161.4360  203.8220  146.4720 C   0  0  0  0  0  3  0  0  0  0  0  0
  160.9450  206.8000  153.0650 C   0  0  2  0  0  3  0  0  0  0  0  0
  160.9520  206.2680  154.7390 Cl  0  0  0  0  0  0  0  0  0  0  0  0
  162.0340  207.8000  150.3880 S   0  0  0  0  0  0  0  0  0  0  0  0
  161.0130  206.2040  146.1020 C   0  0  0  0  0  3  0  0  0  0  0  0
  161.3730  204.0310  150.0140 C   0  0  0  0  0  0  0  0  0  0  0  0
  161.5220  203.2000  148.9050 C   0  0  0  0  0  3  0  0  0  0  0  0
  160.8380  208.2490  152.8020 C   0  0  0  0  0  2  0  0  0  0  0  0
  160.9770  206.4370  147.4880 C   0  0  0  0  0  3  0  0  0  0  0  0
  161.1890  208.8000  151.6360 C   0  0  0  0  0  0  0  0  0  0  0  0
  161.0120  205.9120  152.0570 C   0  0  0  0  0  0  0  0  0  0  0  0
  160.9190  210.1930  151.4370 N   0  0  0  0  0  0  0  0  0  0  0  0
  160.4380  211.1290  152.4090 C   0  0  0  0  0  0  0  0  0  0  0  0
  160.2760  210.8000  153.6130 O   0  0  0  0  0  0  0  0  0  0  0  0
  160.1120  212.5190  151.9830 C   0  0  0  0  0  2  0  0  0  0  0  0
  158.6360  212.7210  151.9750 C   0  0  0  0  0  0  0  0  0  0  0  0
  157.9410  212.8080  153.1730 O   0  0  0  0  0  1  0  0  0  0  0  0
  158.0240  212.8440  150.8830 O   0  0  0  0  0  0  0  0  0  0  0  0
  1 18  2  0  0  0  0
  2 13  1  0  0  0  0
  2  1  1  0  0  0  0
  3  6  2  0  0  0  0
  4  2  1  0  0  0  0
  5 12  2  0  0  0  0
  5  8  1  0  0  0  0
  7  4  1  0  0  0  0
  7 14  1  0  0  0  0
  8  7  2  0  0  0  0
  9 10  1  6  0  0  0
 11  1  1  0  0  0  0
 11 17  1  0  0  0  0
 12 16  1  0  0  0  0
 13  3  1  0  0  0  0
 14 13  2  0  0  0  0
 15  9  1  0  0  0  0
 16  4  2  0  0  0  0
 17 15  1  0  0  0  0
 18  6  1  0  0  0  0
 18  9  1  0  0  0  0
 19 17  2  0  0  0  0
 19 20  1  0  0  0  0
 20 21  2  0  0  0  0
 22 20  1  0  0  0  0
 23 22  1  0  0  0  0
 23 24  1  0  0  0  0
 25 23  2  0  0  0  0
M  END
>  <MODEL>
8

>  <REMARK>
 VINA RESULT:      -7.8      2.390      2.652
  Name = 
  3 active torsions:
  status: ('A' for Active; 'I' for Inactive)
    1  A    between atoms: C_2  and  C_21
    2  A    between atoms: N_6  and  C_23
    3  A    between atoms: C_15  and  C_21
                            x       y       z     vdW  Elec       q    Type
                         _______ _______ _______ _____ _____    ______ ____

>  <TORSDO>
F 3

$$$$
=
 OpenBabel11052422113D

 25 28  0  0  1  0  0  0  0  0999 V2000
  161.3940  205.6450  150.7790 C   0  0  0  0  0  0  0  0  0  0  0  0
  161.2070  206.4460  151.9910 N   0  0  0  0  0  0  0  0  0  0  0  0
  160.8340  204.4970  153.4190 C   0  0  0  0  0  3  0  0  0  0  0  0
  161.3630  207.7660  152.1700 C   0  0  0  0  0  0  0  0  0  0  0  0
  161.6150  210.3910  153.0140 C   0  0  0  0  0  3  0  0  0  0  0  0
  160.9000  203.7010  152.3950 N   0  0  0  0  0  0  0  0  0  0  0  0
  161.1990  208.0810  153.4970 C   0  0  0  0  0  0  0  0  0  0  0  0
  161.3170  209.3910  153.9570 C   0  0  0  0  0  3  0  0  0  0  0  0
  161.0640  203.3100  150.0180 C   0  0  2  0  0  3  0  0  0  0  0  0
  160.8620  201.5860  150.2920 Cl  0  0  0  0  0  0  0  0  0  0  0  0
  160.2940  206.2130  149.4440 S   0  0  0  0  0  0  0  0  0  0  0  0
  161.7920  210.0650  151.6530 C   0  0  0  0  0  3  0  0  0  0  0  0
  160.9750  205.9380  153.2180 C   0  0  0  0  0  0  0  0  0  0  0  0
  160.9490  206.9190  154.2080 C   0  0  0  0  0  3  0  0  0  0  0  0
  161.2070  203.7740  148.6230 C   0  0  0  0  0  3  0  0  0  0  0  0
  161.6700  208.7350  151.2140 C   0  0  0  0  0  3  0  0  0  0  0  0
  160.9960  205.0420  148.2570 C   0  0  0  0  0  0  0  0  0  0  0  0
  161.1080  204.1730  151.0470 C   0  0  0  0  0  0  0  0  0  0  0  0
  161.2930  205.4160  146.9070 N   0  0  0  0  0  2  0  0  0  0  0  0
  162.5400  205.2570  146.2190 C   0  0  0  0  0  0  0  0  0  0  0  0
  163.5140  204.6670  146.7550 O   0  0  0  0  0  0  0  0  0  0  0  0
  162.6890  205.8120  144.8450 C   0  0  0  0  0  2  0  0  0  0  0  0
  161.5860  205.3220  143.9720 C   0  0  0  0  0  0  0  0  0  0  0  0
  160.7300  204.3280  144.4250 O   0  0  0  0  0  1  0  0  0  0  0  0
  161.4090  205.8330  142.8360 O   0  0  0  0  0  0  0  0  0  0  0  0
  1 18  2  0  0  0  0
  1  2  1  0  0  0  0
  2  4  1  0  0  0  0
  2 13  1  0  0  0  0
  4  7  1  0  0  0  0
  5  8  1  0  0  0  0
  6  3  2  0  0  0  0
  7  8  2  0  0  0  0
  7 14  1  0  0  0  0
  9 10  1  1  0  0  0
  9 18  1  0  0  0  0
 11  1  1  0  0  0  0
 12  5  2  0  0  0  0
 13  3  1  0  0  0  0
 13 14  2  0  0  0  0
 15  9  1  0  0  0  0
 16 12  1  0  0  0  0
 16  4  2  0  0  0  0
 17 15  2  0  0  0  0
 17 11  1  0  0  0  0
 18  6  1  0  0  0  0
 19 17  1  0  0  0  0
 20 21  2  0  0  0  0
 20 19  1  0  0  0  0
 22 20  1  0  0  0  0
 23 24  1  0  0  0  0
 23 22  1  0  0  0  0
 25 23  2  0  0  0  0
M  END
>  <MODEL>
9

>  <REMARK>
 VINA RESULT:      -7.7      3.409      5.979
  Name = 
  3 active torsions:
  status: ('A' for Active; 'I' for Inactive)
    1  A    between atoms: C_2  and  C_21
    2  A    between atoms: N_6  and  C_23
    3  A    between atoms: C_15  and  C_21
                            x       y       z     vdW  Elec       q    Type
                         _______ _______ _______ _____ _____    ______ ____

>  <TORSDO>
F 3

$$$$
