=
 OpenBabel11052422103D

 25 29  0  0  1  0  0  0  0  0999 V2000
  160.5820  210.5680  153.5990 C   0  0  1  0  0  3  0  0  0  0  0  0
  159.9120  211.9950  155.3980 C   0  0  1  0  0  0  0  0  0  0  0  0
  158.0860  210.9270  154.0040 C   0  0  2  0  0  3  0  0  0  0  0  0
  161.1700  211.4640  155.9400 C   0  0  0  0  0  2  0  0  0  0  0  0
  158.9900  213.3420  153.7050 C   0  0  0  0  0  0  0  0  0  0  0  0
  158.8640  214.4530  153.1280 O   0  0  0  0  0  0  0  0  0  0  0  0
  158.6380  211.0880  155.4330 C   0  0  1  0  0  0  0  0  0  0  0  0
  159.1790  210.7300  152.9580 C   0  0  1  0  0  3  0  0  0  0  0  0
  159.6150  213.2910  154.9610 O   0  0  0  0  0  0  0  0  0  0  0  0
  158.4050  212.0850  153.0330 C   0  0  1  0  0  3  0  0  0  0  0  0
  161.0400  211.6270  154.4870 N   0  0  1  0  0  0  0  0  0  0  0  0
  158.8670  209.7010  156.0320 C   0  0  0  0  0  1  0  0  0  0  0  0
  156.2020  211.4530  156.1630 C   0  0  0  0  0  0  0  0  0  0  0  0
  155.7640  210.5660  155.3820 O   0  0  0  0  0  0  0  0  0  0  0  0
  155.2550  212.1980  157.0320 C   0  0  0  0  0  1  0  0  0  0  0  0
  157.6010  211.7530  156.2240 N   0  0  0  0  0  2  0  0  0  0  0  0
  161.2210  209.2100  153.7150 C   0  0  0  0  0  0  0  0  0  0  0  0
  161.5950  208.7970  154.8440 O   0  0  0  0  0  0  0  0  0  0  0  0
  161.4080  208.3640  152.5100 C   0  0  0  0  0  0  0  0  0  0  0  0
  161.7320  206.7130  150.2540 C   0  0  0  0  0  3  0  0  0  0  0  0
  162.0480  208.8530  151.3500 C   0  0  0  0  0  0  0  0  0  0  0  0
  162.2060  208.0260  150.2330 C   0  0  0  0  0  3  0  0  0  0  0  0
  161.0970  206.2210  151.3960 C   0  0  0  0  0  3  0  0  0  0  0  0
  162.5270  210.1210  151.2880 F   0  0  0  0  0  0  0  0  0  0  0  0
  160.9370  207.0420  152.5140 C   0  0  0  0  0  3  0  0  0  0  0  0
  1 17  1  1  0  0  0
  1 11  1  0  0  0  0
  2  7  1  0  0  0  0
  2  4  1  1  0  0  0
  3  7  1  0  0  0  0
  5  9  1  0  0  0  0
  6  5  2  0  0  0  0
  7 12  1  0  0  0  0
  7 16  1  0  0  0  0
  8 10  1  0  0  0  0
  8  1  1  0  0  0  0
  8  3  1  0  0  0  0
  9  2  1  0  0  0  0
 10  5  1  0  0  0  0
 10  3  1  0  0  0  0
 11  2  1  0  0  0  0
 11  4  1  0  0  0  0
 13 16  1  0  0  0  0
 13 15  1  0  0  0  0
 14 13  2  0  0  0  0
 17 18  2  0  0  0  0
 19 25  1  0  0  0  0
 19 17  1  0  0  0  0
 20 23  1  0  0  0  0
 21 19  2  0  0  0  0
 22 20  2  0  0  0  0
 22 21  1  0  0  0  0
 23 25  2  0  0  0  0
 24 21  1  0  0  0  0
M  END
>  <MODEL>
1

>  <REMARK>
 VINA RESULT:      -5.7      0.000      0.000
  Name = 
  3 active torsions:
  status: ('A' for Active; 'I' for Inactive)
    1  A    between atoms: C_1  and  C_3
    2  A    between atoms: C_1  and  C_5
    3  A    between atoms: C_15  and  N_21
                            x       y       z     vdW  Elec       q    Type
                         _______ _______ _______ _____ _____    ______ ____

>  <TORSDO>
F 3

$$$$
=
 OpenBabel11052422103D

 25 29  0  0  1  0  0  0  0  0999 V2000
  160.5260  210.8640  153.8620 C   0  0  1  0  0  3  0  0  0  0  0  0
  159.2800  212.5430  155.0250 C   0  0  1  0  0  0  0  0  0  0  0  0
  158.0330  211.1000  153.3570 C   0  0  2  0  0  3  0  0  0  0  0  0
  160.2920  212.2180  156.0390 C   0  0  0  0  0  2  0  0  0  0  0  0
  158.9580  213.4810  152.8920 C   0  0  0  0  0  0  0  0  0  0  0  0
  159.0190  214.4530  152.0960 O   0  0  0  0  0  0  0  0  0  0  0  0
  158.0770  211.5640  154.8250 C   0  0  1  0  0  0  0  0  0  0  0  0
  159.4130  210.7980  152.7830 C   0  0  1  0  0  3  0  0  0  0  0  0
  159.1310  213.7100  154.2660 O   0  0  0  0  0  0  0  0  0  0  0  0
  158.6440  212.0800  152.3320 C   0  0  1  0  0  3  0  0  0  0  0  0
  160.6510  212.1010  154.6200 N   0  0  1  0  0  0  0  0  0  0  0  0
  158.1090  210.3320  155.7300 C   0  0  0  0  0  1  0  0  0  0  0  0
  156.5210  212.9750  156.3040 C   0  0  0  0  0  0  0  0  0  0  0  0
  157.3410  212.9980  157.2610 O   0  0  0  0  0  0  0  0  0  0  0  0
  155.2180  213.6760  156.4370 C   0  0  0  0  0  1  0  0  0  0  0  0
  156.8290  212.2820  155.0890 N   0  0  0  0  0  2  0  0  0  0  0  0
  161.1040  209.6040  154.4460 C   0  0  0  0  0  0  0  0  0  0  0  0
  161.5020  209.6020  155.6400 O   0  0  0  0  0  0  0  0  0  0  0  0
  161.2070  208.3740  153.6220 C   0  0  0  0  0  0  0  0  0  0  0  0
  161.4270  206.0760  152.0130 C   0  0  0  0  0  3  0  0  0  0  0  0
  160.8250  207.1090  154.1220 C   0  0  0  0  0  0  0  0  0  0  0  0
  160.9370  205.9720  153.3160 C   0  0  0  0  0  3  0  0  0  0  0  0
  161.8080  207.3200  151.5100 C   0  0  0  0  0  3  0  0  0  0  0  0
  160.3400  206.9650  155.3810 F   0  0  0  0  0  0  0  0  0  0  0  0
  161.6980  208.4600  152.3100 C   0  0  0  0  0  3  0  0  0  0  0  0
  1 17  1  1  0  0  0
  1 11  1  0  0  0  0
  2  4  1  1  0  0  0
  3  7  1  0  0  0  0
  5  9  1  0  0  0  0
  6  5  2  0  0  0  0
  7  2  1  0  0  0  0
  7 16  1  0  0  0  0
  7 12  1  0  0  0  0
  8  3  1  0  0  0  0
  8  1  1  0  0  0  0
  9  2  1  0  0  0  0
 10  8  1  0  0  0  0
 10  5  1  0  0  0  0
 10  3  1  0  0  0  0
 11  2  1  0  0  0  0
 11  4  1  0  0  0  0
 13 15  1  0  0  0  0
 13 14  2  0  0  0  0
 16 13  1  0  0  0  0
 17 18  2  0  0  0  0
 19 21  1  0  0  0  0
 19 17  1  0  0  0  0
 20 22  1  0  0  0  0
 21 24  1  0  0  0  0
 22 21  2  0  0  0  0
 23 20  2  0  0  0  0
 23 25  1  0  0  0  0
 25 19  2  0  0  0  0
M  END
>  <MODEL>
2

>  <REMARK>
 VINA RESULT:      -5.6      1.653      1.978
  Name = 
  3 active torsions:
  status: ('A' for Active; 'I' for Inactive)
    1  A    between atoms: C_1  and  C_3
    2  A    between atoms: C_1  and  C_5
    3  A    between atoms: C_15  and  N_21
                            x       y       z     vdW  Elec       q    Type
                         _______ _______ _______ _____ _____    ______ ____

>  <TORSDO>
F 3

$$$$
=
 OpenBabel11052422103D

 25 29  0  0  1  0  0  0  0  0999 V2000
  161.5330  208.2570  154.9270 C   0  0  1  0  0  3  0  0  0  0  0  0
  161.0540  209.6720  156.7950 C   0  0  1  0  0  0  0  0  0  0  0  0
  161.1590  210.7480  154.5040 C   0  0  2  0  0  3  0  0  0  0  0  0
  160.4580  208.4130  157.2610 C   0  0  0  0  0  2  0  0  0  0  0  0
  163.0830  210.7270  156.2470 C   0  0  0  0  0  0  0  0  0  0  0  0
  164.2270  211.1440  156.5620 O   0  0  0  0  0  0  0  0  0  0  0  0
  160.2730  210.5280  155.7440 C   0  0  1  0  0  0  0  0  0  0  0  0
  161.9410  209.5030  154.0980 C   0  0  1  0  0  3  0  0  0  0  0  0
  162.1950  210.3360  157.2610 O   0  0  0  0  0  0  0  0  0  0  0  0
  162.6820  210.7090  154.7590 C   0  0  1  0  0  3  0  0  0  0  0  0
  161.6280  208.3560  156.3770 N   0  0  1  0  0  0  0  0  0  0  0  0
  158.9430  209.9210  155.2980 C   0  0  0  0  0  1  0  0  0  0  0  0
  159.5060  212.9740  155.5800 C   0  0  0  0  0  0  0  0  0  0  0  0
  159.2880  212.8940  154.3420 O   0  0  0  0  0  0  0  0  0  0  0  0
  159.2530  214.2560  156.2880 C   0  0  0  0  0  1  0  0  0  0  0  0
  159.9940  211.8470  156.3160 N   0  0  0  0  0  2  0  0  0  0  0  0
  160.6330  207.2050  154.3380 C   0  0  0  0  0  0  0  0  0  0  0  0
  159.6200  206.8270  154.9830 O   0  0  0  0  0  0  0  0  0  0  0  0
  160.9350  206.6180  153.0090 C   0  0  0  0  0  0  0  0  0  0  0  0
  161.5190  205.4470  150.5170 C   0  0  0  0  0  3  0  0  0  0  0  0
  160.8260  207.3710  151.8190 C   0  0  0  0  0  0  0  0  0  0  0  0
  161.1180  206.7830  150.5850 C   0  0  0  0  0  3  0  0  0  0  0  0
  161.6290  204.6930  151.6870 C   0  0  0  0  0  3  0  0  0  0  0  0
  160.4420  208.6720  151.8410 F   0  0  0  0  0  0  0  0  0  0  0  0
  161.3390  205.2760  152.9230 C   0  0  0  0  0  3  0  0  0  0  0  0
  1 17  1  1  0  0  0
  1 11  1  0  0  0  0
  2  9  1  0  0  0  0
  2  4  1  1  0  0  0
  3 10  1  0  0  0  0
  3  7  1  0  0  0  0
  5  6  2  0  0  0  0
  5  9  1  0  0  0  0
  7 16  1  0  0  0  0
  7  2  1  0  0  0  0
  8  3  1  0  0  0  0
  8 10  1  0  0  0  0
  8  1  1  0  0  0  0
 10  5  1  0  0  0  0
 11  2  1  0  0  0  0
 11  4  1  0  0  0  0
 12  7  1  0  0  0  0
 13 15  1  0  0  0  0
 13 16  1  0  0  0  0
 14 13  2  0  0  0  0
 17 18  2  0  0  0  0
 19 17  1  0  0  0  0
 20 22  2  0  0  0  0
 20 23  1  0  0  0  0
 21 24  1  0  0  0  0
 21 19  2  0  0  0  0
 22 21  1  0  0  0  0
 23 25  2  0  0  0  0
 25 19  1  0  0  0  0
M  END
>  <MODEL>
3

>  <REMARK>
 VINA RESULT:      -5.5      2.183      3.397
  Name = 
  3 active torsions:
  status: ('A' for Active; 'I' for Inactive)
    1  A    between atoms: C_1  and  C_3
    2  A    between atoms: C_1  and  C_5
    3  A    between atoms: C_15  and  N_21
                            x       y       z     vdW  Elec       q    Type
                         _______ _______ _______ _____ _____    ______ ____

>  <TORSDO>
F 3

$$$$
=
 OpenBabel11052422103D

 25 29  0  0  1  0  0  0  0  0999 V2000
  161.5710  208.6930  153.5860 C   0  0  1  0  0  3  0  0  0  0  0  0
  160.3870  209.0450  155.6350 C   0  0  1  0  0  0  0  0  0  0  0  0
  161.2550  211.0880  154.4140 C   0  0  2  0  0  3  0  0  0  0  0  0
  159.7250  207.8250  155.1570 C   0  0  0  0  0  2  0  0  0  0  0  0
  162.4260  209.9210  156.4150 C   0  0  0  0  0  0  0  0  0  0  0  0
  163.3600  209.9530  157.2580 O   0  0  0  0  0  0  0  0  0  0  0  0
  159.9950  210.4150  154.9890 C   0  0  1  0  0  0  0  0  0  0  0  0
  162.1890  210.1100  153.7090 C   0  0  1  0  0  3  0  0  0  0  0  0
  161.2530  209.2140  156.7220 O   0  0  0  0  0  0  0  0  0  0  0  0
  162.5850  210.7040  155.0980 C   0  0  1  0  0  3  0  0  0  0  0  0
  161.1350  208.0430  154.8150 N   0  0  1  0  0  0  0  0  0  0  0  0
  158.9440  210.3120  153.8840 C   0  0  0  0  0  1  0  0  0  0  0  0
  159.1150  212.6740  155.8370 C   0  0  0  0  0  0  0  0  0  0  0  0
  159.2530  213.2260  154.7130 O   0  0  0  0  0  0  0  0  0  0  0  0
  158.5780  213.4580  156.9790 C   0  0  0  0  0  1  0  0  0  0  0  0
  159.4680  211.2990  156.0290 N   0  0  0  0  0  2  0  0  0  0  0  0
  160.9920  208.2180  152.2810 C   0  0  0  0  0  0  0  0  0  0  0  0
  160.4590  209.0520  151.5020 O   0  0  0  0  0  0  0  0  0  0  0  0
  161.0480  206.7820  151.9130 C   0  0  0  0  0  0  0  0  0  0  0  0
  161.1580  204.0420  151.2790 C   0  0  0  0  0  3  0  0  0  0  0  0
  160.9550  206.3530  150.5710 C   0  0  0  0  0  0  0  0  0  0  0  0
  161.0110  204.9900  150.2630 C   0  0  0  0  0  3  0  0  0  0  0  0
  161.2500  204.4560  152.6090 C   0  0  0  0  0  3  0  0  0  0  0  0
  160.8150  207.2400  149.5540 F   0  0  0  0  0  0  0  0  0  0  0  0
  161.1950  205.8160  152.9220 C   0  0  0  0  0  3  0  0  0  0  0  0
  1 17  1  6  0  0  0
  1  8  1  0  0  0  0
  1 11  1  0  0  0  0
  2  4  1  1  0  0  0
  2  9  1  0  0  0  0
  3  7  1  0  0  0  0
  3 10  1  0  0  0  0
  5  9  1  0  0  0  0
  5  6  2  0  0  0  0
  7  2  1  0  0  0  0
  7 16  1  0  0  0  0
  8  3  1  0  0  0  0
  8 10  1  0  0  0  0
 10  5  1  0  0  0  0
 11  4  1  0  0  0  0
 11  2  1  0  0  0  0
 12  7  1  0  0  0  0
 13 16  1  0  0  0  0
 13 15  1  0  0  0  0
 14 13  2  0  0  0  0
 18 17  2  0  0  0  0
 19 17  1  0  0  0  0
 19 25  1  0  0  0  0
 20 23  1  0  0  0  0
 21 19  2  0  0  0  0
 22 21  1  0  0  0  0
 22 20  2  0  0  0  0
 23 25  2  0  0  0  0
 24 21  1  0  0  0  0
M  END
>  <MODEL>
4

>  <REMARK>
 VINA RESULT:      -5.4      2.047      3.561
  Name = 
  3 active torsions:
  status: ('A' for Active; 'I' for Inactive)
    1  A    between atoms: C_1  and  C_3
    2  A    between atoms: C_1  and  C_5
    3  A    between atoms: C_15  and  N_21
                            x       y       z     vdW  Elec       q    Type
                         _______ _______ _______ _____ _____    ______ ____

>  <TORSDO>
F 3

$$$$
=
 OpenBabel11052422103D

 25 29  0  0  1  0  0  0  0  0999 V2000
  160.0090  210.7450  156.4530 C   0  0  1  0  0  3  0  0  0  0  0  0
  161.9460  209.4930  155.8190 C   0  0  1  0  0  0  0  0  0  0  0  0
  159.7900  209.0300  154.5720 C   0  0  2  0  0  3  0  0  0  0  0  0
  162.5760  210.7450  156.2580 C   0  0  0  0  0  2  0  0  0  0  0  0
  160.7170  207.6250  156.5480 C   0  0  0  0  0  0  0  0  0  0  0  0
  160.6030  206.5880  157.2520 O   0  0  0  0  0  0  0  0  0  0  0  0
  161.2630  209.4490  154.4120 C   0  0  1  0  0  0  0  0  0  0  0  0
  159.1080  209.6810  155.7720 C   0  0  1  0  0  3  0  0  0  0  0  0
  161.9780  208.2290  156.4200 O   0  0  0  0  0  0  0  0  0  0  0  0
  159.4750  208.1630  155.8110 C   0  0  1  0  0  3  0  0  0  0  0  0
  161.3270  210.3190  156.9020 N   0  0  1  0  0  0  0  0  0  0  0  0
  161.3190  210.7690  153.6430 C   0  0  0  0  0  1  0  0  0  0  0  0
  161.5350  208.0710  152.2620 C   0  0  0  0  0  0  0  0  0  0  0  0
  160.5650  208.6380  151.6950 O   0  0  0  0  0  0  0  0  0  0  0  0
  162.2950  207.0190  151.5390 C   0  0  0  0  0  1  0  0  0  0  0  0
  161.9180  208.4260  153.5960 N   0  0  0  0  0  2  0  0  0  0  0  0
  159.7690  212.2130  156.2240 C   0  0  0  0  0  0  0  0  0  0  0  0
  160.5630  213.0540  156.7230 O   0  0  0  0  0  0  0  0  0  0  0  0
  158.6080  212.6660  155.4190 C   0  0  0  0  0  0  0  0  0  0  0  0
  156.4460  213.5410  153.8440 C   0  0  0  0  0  3  0  0  0  0  0  0
  157.2840  212.5680  155.9010 C   0  0  0  0  0  0  0  0  0  0  0  0
  156.2150  213.0050  155.1130 C   0  0  0  0  0  3  0  0  0  0  0  0
  157.7510  213.6420  153.3590 C   0  0  0  0  0  3  0  0  0  0  0  0
  157.0150  212.0560  157.1280 F   0  0  0  0  0  0  0  0  0  0  0  0
  158.8230  213.2070  154.1420 C   0  0  0  0  0  3  0  0  0  0  0  0
  1 17  1  6  0  0  0
  1 11  1  0  0  0  0
  2  4  1  6  0  0  0
  2  9  1  0  0  0  0
  2 11  1  0  0  0  0
  3  8  1  0  0  0  0
  3 10  1  0  0  0  0
  4 11  1  0  0  0  0
  5  6  2  0  0  0  0
  7  3  1  0  0  0  0
  7  2  1  0  0  0  0
  8 10  1  0  0  0  0
  8  1  1  0  0  0  0
  9  5  1  0  0  0  0
 10  5  1  0  0  0  0
 12  7  1  0  0  0  0
 13 16  1  0  0  0  0
 14 13  2  0  0  0  0
 15 13  1  0  0  0  0
 16  7  1  0  0  0  0
 17 18  2  0  0  0  0
 19 21  1  0  0  0  0
 19 17  1  0  0  0  0
 20 22  1  0  0  0  0
 21 24  1  0  0  0  0
 22 21  2  0  0  0  0
 23 20  2  0  0  0  0
 23 25  1  0  0  0  0
 25 19  2  0  0  0  0
M  END
>  <MODEL>
5

>  <REMARK>
 VINA RESULT:      -4.8      2.726      6.255
  Name = 
  3 active torsions:
  status: ('A' for Active; 'I' for Inactive)
    1  A    between atoms: C_1  and  C_3
    2  A    between atoms: C_1  and  C_5
    3  A    between atoms: C_15  and  N_21
                            x       y       z     vdW  Elec       q    Type
                         _______ _______ _______ _____ _____    ______ ____

>  <TORSDO>
F 3

$$$$
=
 OpenBabel11052422103D

 25 29  0  0  1  0  0  0  0  0999 V2000
  162.3840  212.3210  141.0570 C   0  0  1  0  0  3  0  0  0  0  0  0
  161.7610  212.3150  138.7470 C   0  0  1  0  0  0  0  0  0  0  0  0
  160.0600  211.4690  140.4250 C   0  0  2  0  0  3  0  0  0  0  0  0
  162.6710  213.4670  138.7690 C   0  0  0  0  0  2  0  0  0  0  0  0
  161.6420  209.9800  139.0040 C   0  0  0  0  0  0  0  0  0  0  0  0
  161.9600  208.8160  138.6480 O   0  0  0  0  0  0  0  0  0  0  0  0
  160.3090  212.4940  139.3020 C   0  0  1  0  0  0  0  0  0  0  0  0
  161.2560  211.2990  141.3560 C   0  0  1  0  0  3  0  0  0  0  0  0
  161.9380  211.0580  138.1560 O   0  0  0  0  0  0  0  0  0  0  0  0
  160.8930  210.1720  140.3370 C   0  0  1  0  0  3  0  0  0  0  0  0
  162.9130  212.3580  139.7000 N   0  0  1  0  0  0  0  0  0  0  0  0
  160.0060  213.8940  139.8370 C   0  0  0  0  0  1  0  0  0  0  0  0
  157.9500  211.9790  138.4250 C   0  0  0  0  0  0  0  0  0  0  0  0
  157.4420  212.0070  139.5780 O   0  0  0  0  0  0  0  0  0  0  0  0
  157.0850  211.7070  137.2480 C   0  0  0  0  0  1  0  0  0  0  0  0
  159.3510  212.2060  138.2330 N   0  0  0  0  0  2  0  0  0  0  0  0
  162.5780  213.5280  141.9350 C   0  0  0  0  0  0  0  0  0  0  0  0
  163.3420  214.4530  141.5530 O   0  0  0  0  0  0  0  0  0  0  0  0
  161.8780  213.6260  143.2390 C   0  0  0  0  0  0  0  0  0  0  0  0
  160.4950  213.8290  145.6820 C   0  0  0  0  0  3  0  0  0  0  0  0
  162.5290  213.3340  144.4580 C   0  0  0  0  0  0  0  0  0  0  0  0
  161.8360  213.4370  145.6680 C   0  0  0  0  0  3  0  0  0  0  0  0
  159.8420  214.1190  144.4830 C   0  0  0  0  0  3  0  0  0  0  0  0
  163.8310  212.9530  144.4890 F   0  0  0  0  0  0  0  0  0  0  0  0
  160.5300  214.0180  143.2710 C   0  0  0  0  0  3  0  0  0  0  0  0
  1  8  1  0  0  0  0
  1 17  1  6  0  0  0
  2  4  1  6  0  0  0
  2  7  1  0  0  0  0
  2 11  1  0  0  0  0
  3  8  1  0  0  0  0
  4 11  1  0  0  0  0
  5 10  1  0  0  0  0
  6  5  2  0  0  0  0
  7 12  1  0  0  0  0
  7  3  1  0  0  0  0
  9  2  1  0  0  0  0
  9  5  1  0  0  0  0
 10  3  1  0  0  0  0
 10  8  1  0  0  0  0
 11  1  1  0  0  0  0
 13 14  2  0  0  0  0
 15 13  1  0  0  0  0
 16 13  1  0  0  0  0
 16  7  1  0  0  0  0
 17 19  1  0  0  0  0
 18 17  2  0  0  0  0
 19 25  2  0  0  0  0
 19 21  1  0  0  0  0
 21 24  1  0  0  0  0
 21 22  2  0  0  0  0
 22 20  1  0  0  0  0
 23 20  2  0  0  0  0
 25 23  1  0  0  0  0
M  END
>  <MODEL>
6

>  <REMARK>
 VINA RESULT:      -4.6     11.702     14.232
  Name = 
  3 active torsions:
  status: ('A' for Active; 'I' for Inactive)
    1  A    between atoms: C_1  and  C_3
    2  A    between atoms: C_1  and  C_5
    3  A    between atoms: C_15  and  N_21
                            x       y       z     vdW  Elec       q    Type
                         _______ _______ _______ _____ _____    ______ ____

>  <TORSDO>
F 3

$$$$
=
 OpenBabel11052422103D

 25 29  0  0  1  0  0  0  0  0999 V2000
  161.8060  207.4300  149.0910 C   0  0  1  0  0  3  0  0  0  0  0  0
  160.3410  205.6300  148.5130 C   0  0  1  0  0  0  0  0  0  0  0  0
  162.7770  205.4230  147.8450 C   0  0  2  0  0  3  0  0  0  0  0  0
  159.6990  206.1040  149.7460 C   0  0  0  0  0  2  0  0  0  0  0  0
  160.8510  206.2090  146.2910 C   0  0  0  0  0  0  0  0  0  0  0  0
  160.4960  206.5220  145.1260 O   0  0  0  0  0  0  0  0  0  0  0  0
  161.6320  204.7530  148.6280 C   0  0  1  0  0  0  0  0  0  0  0  0
  162.8200  206.9370  148.0270 C   0  0  1  0  0  3  0  0  0  0  0  0
  159.8910  205.7200  147.1910 O   0  0  0  0  0  0  0  0  0  0  0  0
  162.3400  206.3270  146.6710 C   0  0  1  0  0  3  0  0  0  0  0  0
  160.4070  207.0730  148.9010 N   0  0  1  0  0  0  0  0  0  0  0  0
  162.0970  204.5000  150.0620 C   0  0  0  0  0  1  0  0  0  0  0  0
  160.7710  202.3320  148.6500 C   0  0  0  0  0  0  0  0  0  0  0  0
  160.4060  202.4020  149.8540 O   0  0  0  0  0  0  0  0  0  0  0  0
  160.5650  201.0720  147.8920 C   0  0  0  0  0  1  0  0  0  0  0  0
  161.3820  203.4530  148.0010 N   0  0  0  0  0  2  0  0  0  0  0  0
  162.2680  207.8090  150.4730 C   0  0  0  0  0  0  0  0  0  0  0  0
  163.2020  207.1600  151.0120 O   0  0  0  0  0  0  0  0  0  0  0  0
  161.6280  208.9370  151.1940 C   0  0  0  0  0  0  0  0  0  0  0  0
  160.4400  211.1180  152.5180 C   0  0  0  0  0  3  0  0  0  0  0  0
  160.8000  208.7280  152.3190 C   0  0  0  0  0  0  0  0  0  0  0  0
  160.2140  209.8160  152.9720 C   0  0  0  0  0  3  0  0  0  0  0  0
  161.2550  211.3350  151.4070 C   0  0  0  0  0  3  0  0  0  0  0  0
  160.5580  207.4810  152.7950 F   0  0  0  0  0  0  0  0  0  0  0  0
  161.8440  210.2520  150.7500 C   0  0  0  0  0  3  0  0  0  0  0  0
  1 17  1  1  0  0  0
  2  7  1  0  0  0  0
  2 11  1  0  0  0  0
  2  4  1  1  0  0  0
  3  8  1  0  0  0  0
  3  7  1  0  0  0  0
  5 10  1  0  0  0  0
  5  9  1  0  0  0  0
  6  5  2  0  0  0  0
  7 12  1  0  0  0  0
  8  1  1  0  0  0  0
  9  2  1  0  0  0  0
 10  3  1  0  0  0  0
 10  8  1  0  0  0  0
 11  1  1  0  0  0  0
 11  4  1  0  0  0  0
 13 14  2  0  0  0  0
 15 13  1  0  0  0  0
 16  7  1  0  0  0  0
 16 13  1  0  0  0  0
 17 18  2  0  0  0  0
 17 19  1  0  0  0  0
 19 21  1  0  0  0  0
 20 22  1  0  0  0  0
 21 24  1  0  0  0  0
 21 22  2  0  0  0  0
 23 20  2  0  0  0  0
 25 19  2  0  0  0  0
 25 23  1  0  0  0  0
M  END
>  <MODEL>
7

>  <REMARK>
 VINA RESULT:      -4.4      4.798      8.476
  Name = 
  3 active torsions:
  status: ('A' for Active; 'I' for Inactive)
    1  A    between atoms: C_1  and  C_3
    2  A    between atoms: C_1  and  C_5
    3  A    between atoms: C_15  and  N_21
                            x       y       z     vdW  Elec       q    Type
                         _______ _______ _______ _____ _____    ______ ____

>  <TORSDO>
F 3

$$$$
=
 OpenBabel11052422103D

 25 29  0  0  1  0  0  0  0  0999 V2000
  161.7680  207.4510  149.2110 C   0  0  1  0  0  3  0  0  0  0  0  0
  160.3380  205.6300  148.6080 C   0  0  1  0  0  0  0  0  0  0  0  0
  162.7710  205.4930  147.9120 C   0  0  2  0  0  3  0  0  0  0  0  0
  159.6980  206.0620  149.8570 C   0  0  0  0  0  2  0  0  0  0  0  0
  160.8120  206.2680  146.3940 C   0  0  0  0  0  0  0  0  0  0  0  0
  160.4380  206.5970  145.2390 O   0  0  0  0  0  0  0  0  0  0  0  0
  161.6490  204.7800  148.6910 C   0  0  1  0  0  0  0  0  0  0  0  0
  162.7820  207.0030  148.1260 C   0  0  1  0  0  3  0  0  0  0  0  0
  159.8730  205.7370  147.2920 O   0  0  0  0  0  0  0  0  0  0  0  0
  162.3020  206.4110  146.7630 C   0  0  1  0  0  3  0  0  0  0  0  0
  160.3750  207.0650  149.0270 N   0  0  1  0  0  0  0  0  0  0  0  0
  162.1350  204.5080  150.1150 C   0  0  0  0  0  1  0  0  0  0  0  0
  160.7800  202.3630  148.6470 C   0  0  0  0  0  0  0  0  0  0  0  0
  160.3620  202.4200  149.8340 O   0  0  0  0  0  0  0  0  0  0  0  0
  160.6030  201.1120  147.8660 C   0  0  0  0  0  1  0  0  0  0  0  0
  161.4230  203.4890  148.0390 N   0  0  0  0  0  2  0  0  0  0  0  0
  162.2340  207.8100  150.5950 C   0  0  0  0  0  0  0  0  0  0  0  0
  163.1920  207.1750  151.1100 O   0  0  0  0  0  0  0  0  0  0  0  0
  161.5730  208.9040  151.3490 C   0  0  0  0  0  0  0  0  0  0  0  0
  160.2990  210.9350  152.8230 C   0  0  0  0  0  3  0  0  0  0  0  0
  161.6500  210.2500  150.9300 C   0  0  0  0  0  0  0  0  0  0  0  0
  161.0140  211.2540  151.6670 C   0  0  0  0  0  3  0  0  0  0  0  0
  160.2180  209.6080  153.2470 C   0  0  0  0  0  3  0  0  0  0  0  0
  162.3310  210.6030  149.8110 F   0  0  0  0  0  0  0  0  0  0  0  0
  160.8510  208.6010  152.5150 C   0  0  0  0  0  3  0  0  0  0  0  0
  1 17  1  1  0  0  0
  2  7  1  0  0  0  0
  2 11  1  0  0  0  0
  2  4  1  1  0  0  0
  3  8  1  0  0  0  0
  3  7  1  0  0  0  0
  5 10  1  0  0  0  0
  5  9  1  0  0  0  0
  6  5  2  0  0  0  0
  7 12  1  0  0  0  0
  8  1  1  0  0  0  0
  9  2  1  0  0  0  0
 10  3  1  0  0  0  0
 10  8  1  0  0  0  0
 11  1  1  0  0  0  0
 11  4  1  0  0  0  0
 13 14  2  0  0  0  0
 15 13  1  0  0  0  0
 16 13  1  0  0  0  0
 16  7  1  0  0  0  0
 17 18  2  0  0  0  0
 17 19  1  0  0  0  0
 19 25  1  0  0  0  0
 20 23  1  0  0  0  0
 21 19  2  0  0  0  0
 21 22  1  0  0  0  0
 22 20  2  0  0  0  0
 24 21  1  0  0  0  0
 25 23  2  0  0  0  0
M  END
>  <MODEL>
8

>  <REMARK>
 VINA RESULT:      -4.2      4.696      8.339
  Name = 
  3 active torsions:
  status: ('A' for Active; 'I' for Inactive)
    1  A    between atoms: C_1  and  C_3
    2  A    between atoms: C_1  and  C_5
    3  A    between atoms: C_15  and  N_21
                            x       y       z     vdW  Elec       q    Type
                         _______ _______ _______ _____ _____    ______ ____

>  <TORSDO>
F 3

$$$$
=
 OpenBabel11052422103D

 25 29  0  0  1  0  0  0  0  0999 V2000
  161.6720  205.1300  149.8020 C   0  0  1  0  0  3  0  0  0  0  0  0
  162.4500  206.7650  151.3650 C   0  0  1  0  0  0  0  0  0  0  0  0
  160.0780  206.9970  150.5070 C   0  0  2  0  0  3  0  0  0  0  0  0
  163.2260  205.5970  151.8010 C   0  0  0  0  0  2  0  0  0  0  0  0
  162.1380  208.2910  149.6020 C   0  0  0  0  0  0  0  0  0  0  0  0
  162.5650  209.1990  148.8430 O   0  0  0  0  0  0  0  0  0  0  0  0
  160.9430  206.8610  151.7740 C   0  0  1  0  0  0  0  0  0  0  0  0
  160.5410  206.0970  149.3660 C   0  0  1  0  0  3  0  0  0  0  0  0
  162.8910  207.9330  150.7310 O   0  0  0  0  0  0  0  0  0  0  0  0
  160.7770  207.6390  149.2890 C   0  0  1  0  0  3  0  0  0  0  0  0
  162.8710  205.7200  150.3820 N   0  0  1  0  0  0  0  0  0  0  0  0
  160.4350  205.6740  152.5920 C   0  0  0  0  0  1  0  0  0  0  0  0
  161.0170  208.1950  153.9680 C   0  0  0  0  0  0  0  0  0  0  0  0
  161.4620  207.2170  154.6260 O   0  0  0  0  0  0  0  0  0  0  0  0
  160.7770  209.4910  154.6520 C   0  0  0  0  0  1  0  0  0  0  0  0
  160.7410  208.0740  152.5680 N   0  0  0  0  0  2  0  0  0  0  0  0
  161.3770  203.6820  150.0840 C   0  0  0  0  0  0  0  0  0  0  0  0
  161.2160  203.3050  151.2740 O   0  0  0  0  0  0  0  0  0  0  0  0
  161.2780  202.7060  148.9700 C   0  0  0  0  0  0  0  0  0  0  0  0
  161.0920  200.9040  146.8160 C   0  0  0  0  0  3  0  0  0  0  0  0
  161.2510  201.3130  149.2010 C   0  0  0  0  0  0  0  0  0  0  0  0
  161.1580  200.4240  148.1260 C   0  0  0  0  0  3  0  0  0  0  0  0
  161.1190  202.2790  146.5780 C   0  0  0  0  0  3  0  0  0  0  0  0
  161.3100  200.8040  150.4570 F   0  0  0  0  0  0  0  0  0  0  0  0
  161.2110  203.1720  147.6480 C   0  0  0  0  0  3  0  0  0  0  0  0
  1 17  1  1  0  0  0
  1 11  1  0  0  0  0
  2  7  1  0  0  0  0
  2  4  1  1  0  0  0
  3  7  1  0  0  0  0
  5  9  1  0  0  0  0
  6  5  2  0  0  0  0
  7 16  1  0  0  0  0
  7 12  1  0  0  0  0
  8  1  1  0  0  0  0
  8  3  1  0  0  0  0
  9  2  1  0  0  0  0
 10  8  1  0  0  0  0
 10  5  1  0  0  0  0
 10  3  1  0  0  0  0
 11  2  1  0  0  0  0
 11  4  1  0  0  0  0
 13 14  2  0  0  0  0
 13 15  1  0  0  0  0
 16 13  1  0  0  0  0
 17 18  2  0  0  0  0
 19 21  1  0  0  0  0
 19 17  1  0  0  0  0
 20 22  1  0  0  0  0
 21 24  1  0  0  0  0
 22 21  2  0  0  0  0
 23 20  2  0  0  0  0
 23 25  1  0  0  0  0
 25 19  2  0  0  0  0
M  END
>  <MODEL>
9

>  <REMARK>
 VINA RESULT:      -3.9      4.399      6.876
  Name = 
  3 active torsions:
  status: ('A' for Active; 'I' for Inactive)
    1  A    between atoms: C_1  and  C_3
    2  A    between atoms: C_1  and  C_5
    3  A    between atoms: C_15  and  N_21
                            x       y       z     vdW  Elec       q    Type
                         _______ _______ _______ _____ _____    ______ ____

>  <TORSDO>
F 3

$$$$
