=
 OpenBabel11052421503D

 30 33  0  0  1  0  0  0  0  0999 V2000
  161.1660  208.1920  152.5980 C   0  0  2  0  0  3  0  0  0  0  0  0
  160.7620  207.4860  153.8890 C   0  0  0  0  0  2  0  0  0  0  0  0
  160.1670  209.3050  152.3280 C   0  0  0  0  0  1  0  0  0  0  0  0
  161.4560  205.9130  151.6350 C   0  0  0  0  0  0  0  0  0  0  0  0
  161.6380  206.2610  154.0790 C   0  0  0  0  0  2  0  0  0  0  0  0
  161.2690  207.2390  151.4220 C   0  0  0  0  0  0  0  0  0  0  0  0
  161.5180  205.4120  152.9420 O   0  0  0  0  0  0  0  0  0  0  0  0
  160.6590  202.8200  149.4740 C   0  0  0  0  0  3  0  0  0  0  0  0
  160.7950  203.3670  148.2620 C   0  0  0  0  0  3  0  0  0  0  0  0
  160.6870  203.6700  150.7130 C   0  0  1  0  0  3  0  0  0  0  0  0
  161.3970  205.5460  149.1670 C   0  0  0  0  0  3  0  0  0  0  0  0
  161.2480  202.6920  152.0900 Cl  0  0  0  0  0  0  0  0  0  0  0  0
  161.0560  204.8150  148.1010 C   0  0  0  0  0  0  0  0  0  0  0  0
  161.5840  204.9070  150.5200 C   0  0  1  0  0  3  0  0  0  0  0  0
  162.0500  203.8260  145.5180 O   0  0  0  0  0  0  0  0  0  0  0  0
  161.5230  204.9670  145.5900 C   0  0  0  0  0  0  0  0  0  0  0  0
  160.9810  205.4580  146.8220 N   0  0  0  0  0  2  0  0  0  0  0  0
  161.4610  205.7820  144.4270 N   0  0  0  0  0  1  0  0  0  0  0  0
  161.3210  207.8120  150.0340 C   0  0  0  0  0  2  0  0  0  0  0  0
  162.2220  209.0300  150.0020 C   0  0  0  0  0  2  0  0  0  0  0  0
  162.0770  209.6810  148.7770 O   0  0  0  0  0  0  0  0  0  0  0  0
  162.2990  211.0290  149.0610 C   0  0  2  0  0  3  0  0  0  0  0  0
  161.6000  211.3850  150.2160 O   0  0  0  0  0  1  0  0  0  0  0  0
  161.9240  213.3390  146.1990 C   0  0  0  0  0  2  0  0  0  0  0  0
  161.8510  211.8780  147.9190 C   0  0  0  0  0  0  0  0  0  0  0  0
  160.5330  212.7720  146.3730 C   0  0  2  0  0  0  0  0  0  0  0  0
  160.5460  211.8770  147.4560 O   0  0  0  0  0  0  0  0  0  0  0  0
  162.6530  212.6590  147.2650 N   0  0  0  0  0  0  0  0  0  0  0  0
  160.1310  212.1050  145.2020 O   0  0  0  0  0  0  0  0  0  0  0  0
  159.2930  213.1390  145.6620 C   0  0  0  0  0  2  0  0  0  0  0  0
  1  3  1  6  0  0  0
  1  2  1  0  0  0  0
  2  5  1  0  0  0  0
  4  7  1  0  0  0  0
  6  4  2  0  0  0  0
  6  1  1  0  0  0  0
  7  5  1  0  0  0  0
  8 10  1  0  0  0  0
  9  8  2  0  0  0  0
 10 12  1  1  0  0  0
 11 14  1  0  0  0  0
 13  9  1  0  0  0  0
 13 11  2  0  0  0  0
 14 10  1  0  0  0  0
 14  4  1  1  0  0  0
 15 16  2  0  0  0  0
 16 17  1  0  0  0  0
 17 13  1  0  0  0  0
 18 16  1  0  0  0  0
 19  6  1  0  0  0  0
 20 19  1  0  0  0  0
 21 22  1  0  0  0  0
 21 20  1  0  0  0  0
 22 23  1  1  0  0  0
 24 26  1  0  0  0  0
 24 28  1  0  0  0  0
 25 22  1  0  0  0  0
 26 30  1  1  0  0  0
 26 27  1  0  0  0  0
 27 25  1  0  0  0  0
 28 25  2  0  0  0  0
 29 30  1  0  0  0  0
 29 26  1  0  0  0  0
M  END
>  <MODEL>
1

>  <REMARK>
 VINA RESULT:      -8.4      0.000      0.000
  Name = 
  7 active torsions:
  status: ('A' for Active; 'I' for Inactive)
    1  A    between atoms: C_1  and  O_4
    2  A    between atoms: C_1  and  C_5
    3  A    between atoms: O_4  and  C_27
    4  A    between atoms: C_5  and  C_22
    5  A    between atoms: C_8  and  C_27
    6  A    between atoms: N_16  and  C_25
    7  A    between atoms: C_19  and  C_29
                            x       y       z     vdW  Elec       q    Type
                         _______ _______ _______ _____ _____    ______ ____

>  <TORSDO>
F 7

$$$$
=
 OpenBabel11052421503D

 30 33  0  0  1  0  0  0  0  0999 V2000
  161.3470  205.0070  146.2510 C   0  0  2  0  0  3  0  0  0  0  0  0
  162.1100  203.7170  145.9630 C   0  0  0  0  0  2  0  0  0  0  0  0
  162.1630  206.1750  145.7230 C   0  0  0  0  0  1  0  0  0  0  0  0
  160.9920  204.0930  148.5420 C   0  0  0  0  0  0  0  0  0  0  0  0
  161.4010  202.5590  146.6420 C   0  0  0  0  0  2  0  0  0  0  0  0
  161.0230  205.1750  147.7240 C   0  0  0  0  0  0  0  0  0  0  0  0
  161.2950  202.8210  148.0380 O   0  0  0  0  0  0  0  0  0  0  0  0
  161.0820  203.2340  152.3000 C   0  0  0  0  0  3  0  0  0  0  0  0
  161.1380  204.4720  152.8000 C   0  0  0  0  0  3  0  0  0  0  0  0
  161.2140  202.9900  150.8230 C   0  0  1  0  0  3  0  0  0  0  0  0
  161.0630  205.5070  150.5960 C   0  0  0  0  0  3  0  0  0  0  0  0
  160.3690  201.4840  150.3930 Cl  0  0  0  0  0  0  0  0  0  0  0  0
  161.2550  205.6510  151.9120 C   0  0  0  0  0  0  0  0  0  0  0  0
  160.6650  204.1760  150.0110 C   0  0  1  0  0  3  0  0  0  0  0  0
  160.3600  206.8350  154.4480 O   0  0  0  0  0  0  0  0  0  0  0  0
  161.0460  207.5210  153.6450 C   0  0  0  0  0  0  0  0  0  0  0  0
  161.5430  206.9580  152.4250 N   0  0  0  0  0  2  0  0  0  0  0  0
  161.3370  208.8760  153.9580 N   0  0  0  0  0  1  0  0  0  0  0  0
  160.5860  206.5250  148.2160 C   0  0  0  0  0  2  0  0  0  0  0  0
  161.7820  207.4440  148.3620 C   0  0  0  0  0  2  0  0  0  0  0  0
  161.4220  208.7370  147.9850 O   0  0  0  0  0  0  0  0  0  0  0  0
  162.2370  209.5720  148.7500 C   0  0  2  0  0  3  0  0  0  0  0  0
  161.9310  209.4140  150.1020 O   0  0  0  0  0  1  0  0  0  0  0  0
  162.3960  213.2150  148.1420 C   0  0  0  0  0  2  0  0  0  0  0  0
  162.0370  210.9960  148.3510 C   0  0  0  0  0  0  0  0  0  0  0  0
  161.1580  212.7910  147.3860 C   0  0  2  0  0  0  0  0  0  0  0  0
  160.9820  211.4070  147.5550 O   0  0  0  0  0  0  0  0  0  0  0  0
  162.8480  211.9450  148.7010 N   0  0  0  0  0  0  0  0  0  0  0  0
  161.2960  213.0950  146.0200 O   0  0  0  0  0  0  0  0  0  0  0  0
  160.1750  213.6340  146.6790 C   0  0  0  0  0  2  0  0  0  0  0  0
  1  3  1  1  0  0  0
  1  6  1  0  0  0  0
  2  1  1  0  0  0  0
  2  5  1  0  0  0  0
  5  7  1  0  0  0  0
  6 19  1  0  0  0  0
  6  4  2  0  0  0  0
  7  4  1  0  0  0  0
  8  9  2  0  0  0  0
 10 12  1  6  0  0  0
 10  8  1  0  0  0  0
 11 13  2  0  0  0  0
 13 17  1  0  0  0  0
 13  9  1  0  0  0  0
 14  4  1  6  0  0  0
 14 11  1  0  0  0  0
 14 10  1  0  0  0  0
 16 18  1  0  0  0  0
 16 15  2  0  0  0  0
 17 16  1  0  0  0  0
 19 20  1  0  0  0  0
 21 20  1  0  0  0  0
 21 22  1  0  0  0  0
 22 23  1  1  0  0  0
 24 28  1  0  0  0  0
 25 28  2  0  0  0  0
 25 22  1  0  0  0  0
 26 30  1  1  0  0  0
 26 27  1  0  0  0  0
 26 24  1  0  0  0  0
 27 25  1  0  0  0  0
 29 30  1  0  0  0  0
 29 26  1  0  0  0  0
M  END
>  <MODEL>
2

>  <REMARK>
 VINA RESULT:      -8.3      2.267      4.845
  Name = 
  7 active torsions:
  status: ('A' for Active; 'I' for Inactive)
    1  A    between atoms: C_1  and  O_4
    2  A    between atoms: C_1  and  C_5
    3  A    between atoms: O_4  and  C_27
    4  A    between atoms: C_5  and  C_22
    5  A    between atoms: C_8  and  C_27
    6  A    between atoms: N_16  and  C_25
    7  A    between atoms: C_19  and  C_29
                            x       y       z     vdW  Elec       q    Type
                         _______ _______ _______ _____ _____    ______ ____

>  <TORSDO>
F 7

$$$$
=
 OpenBabel11052421503D

 30 33  0  0  1  0  0  0  0  0999 V2000
  159.8560  211.6440  155.0450 C   0  0  2  0  0  3  0  0  0  0  0  0
  160.7260  211.0830  156.1660 C   0  0  0  0  0  2  0  0  0  0  0  0
  158.4460  211.8290  155.5790 C   0  0  0  0  0  1  0  0  0  0  0  0
  160.8970  209.9090  153.5910 C   0  0  0  0  0  0  0  0  0  0  0  0
  162.0890  210.7220  155.6030 C   0  0  0  0  0  2  0  0  0  0  0  0
  159.8710  210.7700  153.8040 C   0  0  0  0  0  0  0  0  0  0  0  0
  161.9290  209.7960  154.5320 O   0  0  0  0  0  0  0  0  0  0  0  0
  162.3290  208.3910  150.3480 C   0  0  0  0  0  3  0  0  0  0  0  0
  162.1090  207.0970  150.6030 C   0  0  0  0  0  3  0  0  0  0  0  0
  162.1110  209.4350  151.4060 C   0  0  1  0  0  3  0  0  0  0  0  0
  161.0710  207.5630  152.7570 C   0  0  0  0  0  3  0  0  0  0  0  0
  161.7320  210.9930  150.6320 Cl  0  0  0  0  0  0  0  0  0  0  0  0
  161.5680  206.6570  151.9090 C   0  0  0  0  0  0  0  0  0  0  0  0
  160.9910  209.0200  152.3770 C   0  0  1  0  0  3  0  0  0  0  0  0
  160.4830  204.3920  150.3830 O   0  0  0  0  0  0  0  0  0  0  0  0
  160.9520  204.2020  151.5360 C   0  0  0  0  0  0  0  0  0  0  0  0
  161.5370  205.2740  152.2860 N   0  0  0  0  0  2  0  0  0  0  0  0
  160.9050  202.8990  152.1030 N   0  0  0  0  0  1  0  0  0  0  0  0
  158.8220  210.9940  152.7530 C   0  0  0  0  0  2  0  0  0  0  0  0
  158.6170  212.4780  152.5230 C   0  0  0  0  0  2  0  0  0  0  0  0
  159.6950  212.9890  151.8020 O   0  0  0  0  0  0  0  0  0  0  0  0
  159.1220  213.8500  150.8660 C   0  0  2  0  0  3  0  0  0  0  0  0
  157.8140  213.4460  150.5960 O   0  0  0  0  0  1  0  0  0  0  0  0
  161.5990  214.2510  148.1500 C   0  0  0  0  0  2  0  0  0  0  0  0
  159.9200  213.8480  149.6050 C   0  0  0  0  0  0  0  0  0  0  0  0
  160.5290  213.3880  147.5200 C   0  0  2  0  0  0  0  0  0  0  0  0
  159.5110  213.1750  148.4660 O   0  0  0  0  0  0  0  0  0  0  0  0
  161.0600  214.4530  149.4910 N   0  0  0  0  0  0  0  0  0  0  0  0
  161.0750  212.1570  147.1140 O   0  0  0  0  0  0  0  0  0  0  0  0
  160.4260  212.9190  146.1250 C   0  0  0  0  0  2  0  0  0  0  0  0
  1  3  1  1  0  0  0
  1  2  1  0  0  0  0
  4  6  2  0  0  0  0
  4  7  1  0  0  0  0
  5  2  1  0  0  0  0
  6  1  1  0  0  0  0
  7  5  1  0  0  0  0
  8  9  2  0  0  0  0
  8 10  1  0  0  0  0
  9 13  1  0  0  0  0
 10 12  1  6  0  0  0
 10 14  1  0  0  0  0
 13 17  1  0  0  0  0
 13 11  2  0  0  0  0
 14 11  1  0  0  0  0
 14  4  1  1  0  0  0
 15 16  2  0  0  0  0
 16 18  1  0  0  0  0
 16 17  1  0  0  0  0
 19  6  1  0  0  0  0
 20 19  1  0  0  0  0
 21 20  1  0  0  0  0
 22 23  1  6  0  0  0
 22 21  1  0  0  0  0
 24 28  1  0  0  0  0
 25 22  1  0  0  0  0
 26 30  1  6  0  0  0
 26 24  1  0  0  0  0
 26 27  1  0  0  0  0
 27 25  1  0  0  0  0
 28 25  2  0  0  0  0
 29 26  1  0  0  0  0
 30 29  1  0  0  0  0
M  END
>  <MODEL>
3

>  <REMARK>
 VINA RESULT:      -8.0      3.379      4.759
  Name = 
  7 active torsions:
  status: ('A' for Active; 'I' for Inactive)
    1  A    between atoms: C_1  and  O_4
    2  A    between atoms: C_1  and  C_5
    3  A    between atoms: O_4  and  C_27
    4  A    between atoms: C_5  and  C_22
    5  A    between atoms: C_8  and  C_27
    6  A    between atoms: N_16  and  C_25
    7  A    between atoms: C_19  and  C_29
                            x       y       z     vdW  Elec       q    Type
                         _______ _______ _______ _____ _____    ______ ____

>  <TORSDO>
F 7

$$$$
=
 OpenBabel11052421503D

 30 33  0  0  1  0  0  0  0  0999 V2000
  161.8810  208.4050  149.9020 C   0  0  2  0  0  3  0  0  0  0  0  0
  161.8760  209.6030  148.9570 C   0  0  0  0  0  2  0  0  0  0  0  0
  161.2660  207.2200  149.1770 C   0  0  0  0  0  1  0  0  0  0  0  0
  161.0010  209.9720  151.6280 C   0  0  0  0  0  0  0  0  0  0  0  0
  162.3180  210.8390  149.7190 C   0  0  0  0  0  2  0  0  0  0  0  0
  161.1640  208.6920  151.2080 C   0  0  0  0  0  0  0  0  0  0  0  0
  161.4600  211.0350  150.8400 O   0  0  0  0  0  0  0  0  0  0  0  0
  160.5260  211.4700  155.1500 C   0  0  0  0  0  3  0  0  0  0  0  0
  159.3180  212.0180  154.9870 C   0  0  0  0  0  3  0  0  0  0  0  0
  161.2770  210.8940  153.9820 C   0  0  1  0  0  3  0  0  0  0  0  0
  159.1300  211.2410  152.6860 C   0  0  0  0  0  3  0  0  0  0  0  0
  162.3860  209.6260  154.5580 Cl  0  0  0  0  0  0  0  0  0  0  0  0
  158.6450  212.0070  153.6680 C   0  0  0  0  0  0  0  0  0  0  0  0
  160.3140  210.3370  152.9190 C   0  0  1  0  0  3  0  0  0  0  0  0
  156.1190  211.9870  155.1710 O   0  0  0  0  0  0  0  0  0  0  0  0
  156.2300  212.7050  154.1420 C   0  0  0  0  0  0  0  0  0  0  0  0
  157.4630  212.7780  153.4170 N   0  0  0  0  0  2  0  0  0  0  0  0
  155.1110  213.4590  153.6950 N   0  0  0  0  0  1  0  0  0  0  0  0
  160.7880  207.5380  152.0920 C   0  0  0  0  0  2  0  0  0  0  0  0
  162.0320  206.8280  152.5880 C   0  0  0  0  0  2  0  0  0  0  0  0
  162.2280  205.6630  151.8480 O   0  0  0  0  0  0  0  0  0  0  0  0
  161.0680  204.9130  152.0510 C   0  0  2  0  0  3  0  0  0  0  0  0
  160.9640  204.5670  153.3980 O   0  0  0  0  0  1  0  0  0  0  0  0
  161.3160  201.5060  150.6370 C   0  0  0  0  0  2  0  0  0  0  0  0
  161.0980  203.6780  151.2140 C   0  0  0  0  0  0  0  0  0  0  0  0
  160.9050  202.3450  149.4500 C   0  0  2  0  0  0  0  0  0  0  0  0
  160.7900  203.6830  149.8640 O   0  0  0  0  0  0  0  0  0  0  0  0
  161.3910  202.5100  151.6940 N   0  0  0  0  0  0  0  0  0  0  0  0
  159.6760  201.8930  148.9380 O   0  0  0  0  0  0  0  0  0  0  0  0
  160.7580  201.9380  148.0390 C   0  0  0  0  0  2  0  0  0  0  0  0
  1  3  1  6  0  0  0
  1  6  1  0  0  0  0
  2  5  1  0  0  0  0
  2  1  1  0  0  0  0
  5  7  1  0  0  0  0
  6  4  2  0  0  0  0
  6 19  1  0  0  0  0
  7  4  1  0  0  0  0
  9  8  2  0  0  0  0
 10 12  1  1  0  0  0
 10  8  1  0  0  0  0
 11 14  1  0  0  0  0
 11 13  2  0  0  0  0
 13  9  1  0  0  0  0
 14  4  1  6  0  0  0
 14 10  1  0  0  0  0
 16 15  2  0  0  0  0
 17 13  1  0  0  0  0
 17 16  1  0  0  0  0
 18 16  1  0  0  0  0
 19 20  1  0  0  0  0
 21 22  1  0  0  0  0
 21 20  1  0  0  0  0
 22 23  1  1  0  0  0
 24 28  1  0  0  0  0
 25 28  2  0  0  0  0
 25 22  1  0  0  0  0
 26 30  1  6  0  0  0
 26 27  1  0  0  0  0
 26 24  1  0  0  0  0
 27 25  1  0  0  0  0
 29 26  1  0  0  0  0
 30 29  1  0  0  0  0
M  END
>  <MODEL>
4

>  <REMARK>
 VINA RESULT:      -7.8      3.850      8.709
  Name = 
  7 active torsions:
  status: ('A' for Active; 'I' for Inactive)
    1  A    between atoms: C_1  and  O_4
    2  A    between atoms: C_1  and  C_5
    3  A    between atoms: O_4  and  C_27
    4  A    between atoms: C_5  and  C_22
    5  A    between atoms: C_8  and  C_27
    6  A    between atoms: N_16  and  C_25
    7  A    between atoms: C_19  and  C_29
                            x       y       z     vdW  Elec       q    Type
                         _______ _______ _______ _____ _____    ______ ____

>  <TORSDO>
F 7

$$$$
=
 OpenBabel11052421503D

 30 33  0  0  1  0  0  0  0  0999 V2000
  160.4150  210.6850  155.1580 C   0  0  2  0  0  3  0  0  0  0  0  0
  160.7850  211.9180  155.9770 C   0  0  0  0  0  2  0  0  0  0  0  0
  161.5980  209.7310  155.1650 C   0  0  0  0  0  1  0  0  0  0  0  0
  159.5430  212.2810  153.4540 C   0  0  0  0  0  0  0  0  0  0  0  0
  159.6900  212.9570  155.8310 C   0  0  0  0  0  2  0  0  0  0  0  0
  159.9890  211.0330  153.7430 C   0  0  0  0  0  0  0  0  0  0  0  0
  159.5080  213.2640  154.4520 O   0  0  0  0  0  0  0  0  0  0  0  0
  157.9220  214.4470  150.7060 C   0  0  0  0  0  3  0  0  0  0  0  0
  158.8660  214.3390  149.7660 C   0  0  0  0  0  3  0  0  0  0  0  0
  158.1500  213.9180  152.0940 C   0  0  1  0  0  3  0  0  0  0  0  0
  160.2530  212.8800  151.1380 C   0  0  0  0  0  3  0  0  0  0  0  0
  156.5860  213.5020  152.8350 Cl  0  0  0  0  0  0  0  0  0  0  0  0
  160.1360  213.6270  150.0360 C   0  0  0  0  0  0  0  0  0  0  0  0
  159.0890  212.6980  152.0790 C   0  0  1  0  0  3  0  0  0  0  0  0
  160.4610  212.2300  147.4710 O   0  0  0  0  0  0  0  0  0  0  0  0
  161.3910  212.9560  147.9100 C   0  0  0  0  0  0  0  0  0  0  0  0
  161.2450  213.6920  149.1300 N   0  0  0  0  0  2  0  0  0  0  0  0
  162.6070  213.0500  147.1790 N   0  0  0  0  0  1  0  0  0  0  0  0
  159.9220  209.9350  152.7210 C   0  0  0  0  0  2  0  0  0  0  0  0
  161.2810  209.7290  152.0810 C   0  0  0  0  0  2  0  0  0  0  0  0
  161.3730  208.4230  151.5990 O   0  0  0  0  0  0  0  0  0  0  0  0
  162.1800  208.5180  150.4650 C   0  0  2  0  0  3  0  0  0  0  0  0
  161.9840  209.7570  149.8530 O   0  0  0  0  0  1  0  0  0  0  0  0
  160.9320  205.5450  148.6550 C   0  0  0  0  0  2  0  0  0  0  0  0
  161.8520  207.4240  149.5040 C   0  0  0  0  0  0  0  0  0  0  0  0
  161.7870  206.2460  147.6250 C   0  0  2  0  0  0  0  0  0  0  0  0
  162.3360  207.4010  148.2070 O   0  0  0  0  0  0  0  0  0  0  0  0
  161.0720  206.4330  149.8050 N   0  0  0  0  0  0  0  0  0  0  0  0
  161.0110  206.5940  146.5050 O   0  0  0  0  0  0  0  0  0  0  0  0
  162.1470  205.7970  146.2660 C   0  0  0  0  0  2  0  0  0  0  0  0
  1  3  1  6  0  0  0
  1  2  1  0  0  0  0
  4  6  2  0  0  0  0
  4  7  1  0  0  0  0
  5  2  1  0  0  0  0
  6  1  1  0  0  0  0
  7  5  1  0  0  0  0
  8 10  1  0  0  0  0
  9 13  1  0  0  0  0
  9  8  2  0  0  0  0
 10 12  1  6  0  0  0
 11 14  1  0  0  0  0
 13 11  2  0  0  0  0
 14 10  1  0  0  0  0
 14  4  1  1  0  0  0
 15 16  2  0  0  0  0
 16 17  1  0  0  0  0
 17 13  1  0  0  0  0
 18 16  1  0  0  0  0
 19  6  1  0  0  0  0
 20 19  1  0  0  0  0
 21 20  1  0  0  0  0
 22 23  1  6  0  0  0
 22 21  1  0  0  0  0
 24 28  1  0  0  0  0
 25 28  2  0  0  0  0
 25 22  1  0  0  0  0
 26 30  1  6  0  0  0
 26 27  1  0  0  0  0
 26 24  1  0  0  0  0
 27 25  1  0  0  0  0
 29 26  1  0  0  0  0
 30 29  1  0  0  0  0
M  END
>  <MODEL>
5

>  <REMARK>
 VINA RESULT:      -7.6      3.663      7.290
  Name = 
  7 active torsions:
  status: ('A' for Active; 'I' for Inactive)
    1  A    between atoms: C_1  and  O_4
    2  A    between atoms: C_1  and  C_5
    3  A    between atoms: O_4  and  C_27
    4  A    between atoms: C_5  and  C_22
    5  A    between atoms: C_8  and  C_27
    6  A    between atoms: N_16  and  C_25
    7  A    between atoms: C_19  and  C_29
                            x       y       z     vdW  Elec       q    Type
                         _______ _______ _______ _____ _____    ______ ____

>  <TORSDO>
F 7

$$$$
=
 OpenBabel11052421503D

 30 33  0  0  1  0  0  0  0  0999 V2000
  161.5930  206.1660  148.4200 C   0  0  2  0  0  3  0  0  0  0  0  0
  162.1830  207.4720  147.8940 C   0  0  0  0  0  2  0  0  0  0  0  0
  160.5630  205.6680  147.4200 C   0  0  0  0  0  1  0  0  0  0  0  0
  161.3910  207.3320  150.6130 C   0  0  0  0  0  0  0  0  0  0  0  0
  163.0770  208.0770  148.9600 C   0  0  0  0  0  2  0  0  0  0  0  0
  160.9960  206.3150  149.8070 C   0  0  0  0  0  0  0  0  0  0  0  0
  162.3260  208.2700  150.1550 O   0  0  0  0  0  0  0  0  0  0  0  0
  161.2360  207.1810  154.4640 C   0  0  0  0  0  3  0  0  0  0  0  0
  160.8230  208.4280  154.7080 C   0  0  0  0  0  3  0  0  0  0  0  0
  161.6410  206.7590  153.0790 C   0  0  1  0  0  3  0  0  0  0  0  0
  160.7210  209.0010  152.3430 C   0  0  0  0  0  3  0  0  0  0  0  0
  161.3910  205.0060  152.8960 Cl  0  0  0  0  0  0  0  0  0  0  0  0
  160.6750  209.4140  153.6140 C   0  0  0  0  0  0  0  0  0  0  0  0
  160.8560  207.5370  152.0070 C   0  0  1  0  0  3  0  0  0  0  0  0
  158.4080  211.0790  152.7600 O   0  0  0  0  0  0  0  0  0  0  0  0
  159.3610  211.5990  153.3990 C   0  0  0  0  0  0  0  0  0  0  0  0
  160.4550  210.8060  153.8760 N   0  0  0  0  0  2  0  0  0  0  0  0
  159.3470  212.9960  153.6560 N   0  0  0  0  0  1  0  0  0  0  0  0
  160.0890  205.2340  150.3200 C   0  0  0  0  0  2  0  0  0  0  0  0
  160.7930  203.8920  150.2750 C   0  0  0  0  0  2  0  0  0  0  0  0
  159.8490  202.8700  150.3650 O   0  0  0  0  0  0  0  0  0  0  0  0
  160.5860  201.6920  150.2330 C   0  0  2  0  0  3  0  0  0  0  0  0
  161.7940  201.8160  150.9200 O   0  0  0  0  0  1  0  0  0  0  0  0
  161.5750  200.3540  146.9310 C   0  0  0  0  0  2  0  0  0  0  0  0
  160.8530  201.4090  148.7920 C   0  0  0  0  0  0  0  0  0  0  0  0
  160.8340  201.6250  146.5830 C   0  0  2  0  0  0  0  0  0  0  0  0
  160.4140  202.2400  147.7750 O   0  0  0  0  0  0  0  0  0  0  0  0
  161.4930  200.3570  148.3880 N   0  0  0  0  0  0  0  0  0  0  0  0
  159.7220  201.3320  145.7740 O   0  0  0  0  0  0  0  0  0  0  0  0
  160.6530  202.2540  145.2600 C   0  0  0  0  0  2  0  0  0  0  0  0
  1  3  1  6  0  0  0
  1  6  1  0  0  0  0
  2  1  1  0  0  0  0
  2  5  1  0  0  0  0
  5  7  1  0  0  0  0
  6 19  1  0  0  0  0
  6  4  2  0  0  0  0
  7  4  1  0  0  0  0
  8  9  2  0  0  0  0
 10 12  1  1  0  0  0
 10  8  1  0  0  0  0
 11 13  2  0  0  0  0
 13 17  1  0  0  0  0
 13  9  1  0  0  0  0
 14  4  1  6  0  0  0
 14 11  1  0  0  0  0
 14 10  1  0  0  0  0
 15 16  2  0  0  0  0
 16 18  1  0  0  0  0
 16 17  1  0  0  0  0
 20 19  1  0  0  0  0
 20 21  1  0  0  0  0
 22 21  1  0  0  0  0
 22 23  1  1  0  0  0
 24 28  1  0  0  0  0
 25 22  1  0  0  0  0
 26 30  1  6  0  0  0
 26 24  1  0  0  0  0
 26 27  1  0  0  0  0
 27 25  1  0  0  0  0
 28 25  2  0  0  0  0
 29 26  1  0  0  0  0
 30 29  1  0  0  0  0
M  END
>  <MODEL>
6

>  <REMARK>
 VINA RESULT:      -7.5      3.679      8.126
  Name = 
  7 active torsions:
  status: ('A' for Active; 'I' for Inactive)
    1  A    between atoms: C_1  and  O_4
    2  A    between atoms: C_1  and  C_5
    3  A    between atoms: O_4  and  C_27
    4  A    between atoms: C_5  and  C_22
    5  A    between atoms: C_8  and  C_27
    6  A    between atoms: N_16  and  C_25
    7  A    between atoms: C_19  and  C_29
                            x       y       z     vdW  Elec       q    Type
                         _______ _______ _______ _____ _____    ______ ____

>  <TORSDO>
F 7

$$$$
=
 OpenBabel11052421503D

 30 33  0  0  1  0  0  0  0  0999 V2000
  160.7010  208.3910  154.5710 C   0  0  2  0  0  3  0  0  0  0  0  0
  160.8280  206.9450  155.0420 C   0  0  0  0  0  2  0  0  0  0  0  0
  159.4800  209.0060  155.2360 C   0  0  0  0  0  1  0  0  0  0  0  0
  161.1080  207.5070  152.2770 C   0  0  0  0  0  0  0  0  0  0  0  0
  161.9300  206.2620  154.2520 C   0  0  0  0  0  2  0  0  0  0  0  0
  160.6280  208.5060  153.0590 C   0  0  0  0  0  0  0  0  0  0  0  0
  161.6390  206.3490  152.8600 O   0  0  0  0  0  0  0  0  0  0  0  0
  162.3800  208.0450  148.6760 C   0  0  0  0  0  3  0  0  0  0  0  0
  161.8760  206.9470  148.1060 C   0  0  0  0  0  3  0  0  0  0  0  0
  162.3250  208.2380  150.1660 C   0  0  1  0  0  3  0  0  0  0  0  0
  160.8310  206.1930  150.1730 C   0  0  0  0  0  3  0  0  0  0  0  0
  162.3310  209.9780  150.5390 Cl  0  0  0  0  0  0  0  0  0  0  0  0
  161.1760  205.9200  148.9110 C   0  0  0  0  0  0  0  0  0  0  0  0
  161.0850  207.5540  150.7700 C   0  0  1  0  0  3  0  0  0  0  0  0
  161.2090  203.3100  150.2620 O   0  0  0  0  0  0  0  0  0  0  0  0
  160.9070  203.3790  149.0410 C   0  0  0  0  0  0  0  0  0  0  0  0
  160.8300  204.6400  148.3660 N   0  0  0  0  0  2  0  0  0  0  0  0
  160.6330  202.1840  148.3220 N   0  0  0  0  0  1  0  0  0  0  0  0
  160.1660  209.8020  152.4570 C   0  0  0  0  0  2  0  0  0  0  0  0
  160.6520  210.9710  153.2910 C   0  0  0  0  0  2  0  0  0  0  0  0
  159.9610  212.1240  152.9190 O   0  0  0  0  0  0  0  0  0  0  0  0
  159.6750  212.7710  154.1220 C   0  0  2  0  0  3  0  0  0  0  0  0
  160.4400  212.2140  155.1470 O   0  0  0  0  0  1  0  0  0  0  0  0
  155.9820  212.8450  154.2840 C   0  0  0  0  0  2  0  0  0  0  0  0
  158.2240  212.6390  154.4470 C   0  0  0  0  0  0  0  0  0  0  0  0
  156.3660  212.0110  155.4850 C   0  0  2  0  0  0  0  0  0  0  0  0
  157.7670  211.9220  155.5390 O   0  0  0  0  0  0  0  0  0  0  0  0
  157.2890  213.1650  153.7190 N   0  0  0  0  0  0  0  0  0  0  0  0
  155.8050  210.7260  155.3840 O   0  0  0  0  0  0  0  0  0  0  0  0
  155.4950  211.4620  156.5430 C   0  0  0  0  0  2  0  0  0  0  0  0
  1  2  1  0  0  0  0
  1  3  1  1  0  0  0
  4  7  1  0  0  0  0
  4  6  2  0  0  0  0
  5  2  1  0  0  0  0
  6  1  1  0  0  0  0
  7  5  1  0  0  0  0
  8 10  1  0  0  0  0
  9  8  2  0  0  0  0
  9 13  1  0  0  0  0
 10 12  1  6  0  0  0
 10 14  1  0  0  0  0
 11 14  1  0  0  0  0
 13 11  2  0  0  0  0
 14  4  1  1  0  0  0
 16 15  2  0  0  0  0
 17 13  1  0  0  0  0
 17 16  1  0  0  0  0
 18 16  1  0  0  0  0
 19  6  1  0  0  0  0
 19 20  1  0  0  0  0
 21 20  1  0  0  0  0
 21 22  1  0  0  0  0
 22 25  1  0  0  0  0
 22 23  1  1  0  0  0
 25 27  1  0  0  0  0
 26 24  1  6  0  0  0
 26 27  1  0  0  0  0
 26 30  1  0  0  0  0
 28 24  1  0  0  0  0
 28 25  2  0  0  0  0
 29 26  1  0  0  0  0
 29 30  1  0  0  0  0
M  END
>  <MODEL>
7

>  <REMARK>
 VINA RESULT:      -7.4      3.941      5.802
  Name = 
  7 active torsions:
  status: ('A' for Active; 'I' for Inactive)
    1  A    between atoms: C_1  and  O_4
    2  A    between atoms: C_1  and  C_5
    3  A    between atoms: O_4  and  C_27
    4  A    between atoms: C_5  and  C_22
    5  A    between atoms: C_8  and  C_27
    6  A    between atoms: N_16  and  C_25
    7  A    between atoms: C_19  and  C_29
                            x       y       z     vdW  Elec       q    Type
                         _______ _______ _______ _____ _____    ______ ____

>  <TORSDO>
F 7

$$$$
=
 OpenBabel11052421503D

 30 33  0  0  1  0  0  0  0  0999 V2000
  161.3740  205.0520  145.7640 C   0  0  2  0  0  3  0  0  0  0  0  0
  161.3990  204.0280  144.6320 C   0  0  0  0  0  2  0  0  0  0  0  0
  162.6220  205.9120  145.6610 C   0  0  0  0  0  1  0  0  0  0  0  0
  160.7520  203.1500  147.2490 C   0  0  0  0  0  0  0  0  0  0  0  0
  160.2580  203.0460  144.8250 C   0  0  0  0  0  2  0  0  0  0  0  0
  161.2560  204.4030  147.1310 C   0  0  0  0  0  0  0  0  0  0  0  0
  160.3720  202.4340  146.1060 O   0  0  0  0  0  0  0  0  0  0  0  0
  161.6090  200.8650  150.2350 C   0  0  0  0  0  3  0  0  0  0  0  0
  161.2240  201.6650  151.2330 C   0  0  0  0  0  3  0  0  0  0  0  0
  161.6570  201.3640  148.8180 C   0  0  1  0  0  3  0  0  0  0  0  0
  160.4870  203.4220  149.7150 C   0  0  0  0  0  3  0  0  0  0  0  0
  161.4410  199.9960  147.7000 Cl  0  0  0  0  0  0  0  0  0  0  0  0
  160.7560  203.0450  150.9700 C   0  0  0  0  0  0  0  0  0  0  0  0
  160.5900  202.4450  148.5720 C   0  0  1  0  0  3  0  0  0  0  0  0
  162.5100  205.2620  151.7730 O   0  0  0  0  0  0  0  0  0  0  0  0
  161.4580  205.0280  152.4250 C   0  0  0  0  0  0  0  0  0  0  0  0
  160.5550  203.9890  152.0290 N   0  0  0  0  0  2  0  0  0  0  0  0
  161.1600  205.8120  153.5720 N   0  0  0  0  0  1  0  0  0  0  0  0
  161.5560  205.2310  148.3480 C   0  0  0  0  0  2  0  0  0  0  0  0
  160.7020  206.4830  148.3550 C   0  0  0  0  0  2  0  0  0  0  0  0
  160.6760  207.0190  149.6420 O   0  0  0  0  0  0  0  0  0  0  0  0
  161.4930  208.1480  149.5750 C   0  0  2  0  0  3  0  0  0  0  0  0
  162.7770  207.7740  149.1750 O   0  0  0  0  0  1  0  0  0  0  0  0
  162.2250  210.2060  152.5580 C   0  0  0  0  0  2  0  0  0  0  0  0
  161.5570  208.8200  150.9060 C   0  0  0  0  0  0  0  0  0  0  0  0
  161.0340  209.3810  152.9890 C   0  0  2  0  0  0  0  0  0  0  0  0
  160.6660  208.5370  151.9270 O   0  0  0  0  0  0  0  0  0  0  0  0
  162.4320  209.7310  151.1940 N   0  0  0  0  0  0  0  0  0  0  0  0
  159.9590  210.2220  153.3300 O   0  0  0  0  0  0  0  0  0  0  0  0
  160.3900  209.3140  154.3150 C   0  0  0  0  0  2  0  0  0  0  0  0
  1  3  1  1  0  0  0
  1  6  1  0  0  0  0
  2  5  1  0  0  0  0
  2  1  1  0  0  0  0
  5  7  1  0  0  0  0
  6  4  2  0  0  0  0
  6 19  1  0  0  0  0
  7  4  1  0  0  0  0
  8  9  2  0  0  0  0
 10 12  1  6  0  0  0
 10  8  1  0  0  0  0
 11 13  2  0  0  0  0
 13  9  1  0  0  0  0
 13 17  1  0  0  0  0
 14  4  1  6  0  0  0
 14 10  1  0  0  0  0
 14 11  1  0  0  0  0
 15 16  2  0  0  0  0
 16 18  1  0  0  0  0
 17 16  1  0  0  0  0
 19 20  1  0  0  0  0
 20 21  1  0  0  0  0
 22 23  1  1  0  0  0
 22 21  1  0  0  0  0
 22 25  1  0  0  0  0
 25 28  2  0  0  0  0
 25 27  1  0  0  0  0
 26 24  1  6  0  0  0
 26 29  1  0  0  0  0
 26 30  1  0  0  0  0
 27 26  1  0  0  0  0
 28 24  1  0  0  0  0
 29 30  1  0  0  0  0
M  END
>  <MODEL>
8

>  <REMARK>
 VINA RESULT:      -7.4      3.639      6.065
  Name = 
  7 active torsions:
  status: ('A' for Active; 'I' for Inactive)
    1  A    between atoms: C_1  and  O_4
    2  A    between atoms: C_1  and  C_5
    3  A    between atoms: O_4  and  C_27
    4  A    between atoms: C_5  and  C_22
    5  A    between atoms: C_8  and  C_27
    6  A    between atoms: N_16  and  C_25
    7  A    between atoms: C_19  and  C_29
                            x       y       z     vdW  Elec       q    Type
                         _______ _______ _______ _____ _____    ______ ____

>  <TORSDO>
F 7

$$$$
=
 OpenBabel11052421503D

 30 33  0  0  1  0  0  0  0  0999 V2000
  161.9820  207.9280  149.7790 C   0  0  2  0  0  3  0  0  0  0  0  0
  162.0810  209.2760  149.0710 C   0  0  0  0  0  2  0  0  0  0  0  0
  161.3810  206.9210  148.8130 C   0  0  0  0  0  1  0  0  0  0  0  0
  161.0340  209.1940  151.7040 C   0  0  0  0  0  0  0  0  0  0  0  0
  162.5070  210.3330  150.0730 C   0  0  0  0  0  2  0  0  0  0  0  0
  161.1860  208.0050  151.0680 C   0  0  0  0  0  0  0  0  0  0  0  0
  161.5810  210.3610  151.1550 O   0  0  0  0  0  0  0  0  0  0  0  0
  160.4090  209.7950  155.4620 C   0  0  0  0  0  3  0  0  0  0  0  0
  159.3530  210.6100  155.3740 C   0  0  0  0  0  3  0  0  0  0  0  0
  161.1810  209.3960  154.2360 C   0  0  1  0  0  3  0  0  0  0  0  0
  159.3130  210.5120  152.9410 C   0  0  0  0  0  3  0  0  0  0  0  0
  161.9560  207.8170  154.5110 Cl  0  0  0  0  0  0  0  0  0  0  0  0
  158.8590  211.0830  154.0610 C   0  0  0  0  0  0  0  0  0  0  0  0
  160.2710  209.3490  152.9950 C   0  0  1  0  0  3  0  0  0  0  0  0
  159.0300  213.8360  155.0750 O   0  0  0  0  0  0  0  0  0  0  0  0
  157.9780  213.4430  154.5060 C   0  0  0  0  0  0  0  0  0  0  0  0
  157.8810  212.1250  153.9530 N   0  0  0  0  0  2  0  0  0  0  0  0
  156.8680  214.3250  154.4060 N   0  0  0  0  0  1  0  0  0  0  0  0
  160.7130  206.7280  151.7000 C   0  0  0  0  0  2  0  0  0  0  0  0
  161.8960  205.8990  152.1580 C   0  0  0  0  0  2  0  0  0  0  0  0
  162.1050  204.8520  151.2600 O   0  0  0  0  0  0  0  0  0  0  0  0
  160.9300  204.1020  151.3070 C   0  0  2  0  0  3  0  0  0  0  0  0
  160.8040  203.5070  152.5640 O   0  0  0  0  0  1  0  0  0  0  0  0
  160.8660  201.0130  149.2770 C   0  0  0  0  0  2  0  0  0  0  0  0
  160.9470  203.0480  150.2510 C   0  0  0  0  0  0  0  0  0  0  0  0
  161.0100  202.1060  148.2420 C   0  0  2  0  0  0  0  0  0  0  0  0
  161.0600  203.3450  148.9030 O   0  0  0  0  0  0  0  0  0  0  0  0
  160.8330  201.7840  150.5150 N   0  0  0  0  0  0  0  0  0  0  0  0
  159.9210  202.0780  147.3520 O   0  0  0  0  0  0  0  0  0  0  0  0
  161.2060  201.9760  146.7860 C   0  0  0  0  0  2  0  0  0  0  0  0
  1  3  1  6  0  0  0
  1  6  1  0  0  0  0
  2  1  1  0  0  0  0
  2  5  1  0  0  0  0
  5  7  1  0  0  0  0
  6 19  1  0  0  0  0
  6  4  2  0  0  0  0
  7  4  1  0  0  0  0
  9  8  2  0  0  0  0
 10 12  1  1  0  0  0
 10  8  1  0  0  0  0
 11 14  1  0  0  0  0
 11 13  2  0  0  0  0
 13  9  1  0  0  0  0
 14  4  1  6  0  0  0
 14 10  1  0  0  0  0
 16 15  2  0  0  0  0
 17 13  1  0  0  0  0
 17 16  1  0  0  0  0
 18 16  1  0  0  0  0
 19 20  1  0  0  0  0
 21 22  1  0  0  0  0
 21 20  1  0  0  0  0
 22 23  1  1  0  0  0
 24 28  1  0  0  0  0
 25 28  2  0  0  0  0
 25 22  1  0  0  0  0
 26 30  1  6  0  0  0
 26 27  1  0  0  0  0
 26 24  1  0  0  0  0
 27 25  1  0  0  0  0
 29 26  1  0  0  0  0
 30 29  1  0  0  0  0
M  END
>  <MODEL>
9

>  <REMARK>
 VINA RESULT:      -7.4      3.586      8.541
  Name = 
  7 active torsions:
  status: ('A' for Active; 'I' for Inactive)
    1  A    between atoms: C_1  and  O_4
    2  A    between atoms: C_1  and  C_5
    3  A    between atoms: O_4  and  C_27
    4  A    between atoms: C_5  and  C_22
    5  A    between atoms: C_8  and  C_27
    6  A    between atoms: N_16  and  C_25
    7  A    between atoms: C_19  and  C_29
                            x       y       z     vdW  Elec       q    Type
                         _______ _______ _______ _____ _____    ______ ____

>  <TORSDO>
F 7

$$$$
