=
 OpenBabel11052421563D

 30 32  0  0  1  0  0  0  0  0999 V2000
  161.9170  206.0280  148.2910 C   0  0  0  0  0  2  0  0  0  0  0  0
  162.3290  205.7600  145.8380 C   0  0  2  0  0  3  0  0  0  0  0  0
  160.4620  201.9780  148.4950 N   0  0  0  0  0  2  0  0  0  0  0  0
  161.9090  205.3270  149.6560 C   0  0  2  0  0  3  0  0  0  0  0  0
  160.1120  201.3040  149.7410 C   0  0  0  0  0  2  0  0  0  0  0  0
  161.1310  205.6420  145.1060 O   0  0  0  0  0  0  0  0  0  0  0  0
  163.4220  205.3300  145.1020 F   0  0  0  0  0  0  0  0  0  0  0  0
  161.0090  203.3070  148.4780 C   0  0  0  0  0  0  0  0  0  0  0  0
  160.9650  204.2850  144.7980 C   0  0  0  0  0  2  0  0  0  0  0  0
  162.2640  205.0410  147.1930 C   0  0  2  0  0  3  0  0  0  0  0  0
  161.3050  203.9320  149.6400 C   0  0  0  0  0  0  0  0  0  0  0  0
  161.0940  201.7150  150.8270 C   0  0  0  0  0  2  0  0  0  0  0  0
  161.0710  203.2350  150.9610 C   0  0  0  0  0  2  0  0  0  0  0  0
  160.5230  203.5260  146.0410 C   0  0  0  0  0  2  0  0  0  0  0  0
  161.2940  203.9360  147.2180 N   0  0  0  0  0  0  0  0  0  0  0  0
  161.2880  206.2140  150.7520 C   0  0  2  0  0  3  0  0  0  0  0  0
  160.7730  207.4560  150.3010 O   0  0  0  0  0  0  0  0  0  0  0  0
  160.7930  209.2970  151.8370 C   0  0  0  0  0  1  0  0  0  0  0  0
  161.5650  208.5070  150.7940 C   0  0  2  0  0  3  0  0  0  0  0  0
  162.3370  208.9130  148.6100 O   0  0  0  0  0  0  0  0  0  0  0  0
  161.9920  209.4040  149.6730 C   0  0  0  0  0  0  0  0  0  0  0  0
  162.0370  210.8910  149.8530 C   0  0  0  0  0  2  0  0  0  0  0  0
  163.1130  212.2180  148.1870 O   0  0  0  0  0  1  0  0  0  0  0  0
  161.9040  211.6090  148.5210 C   0  0  0  0  0  2  0  0  0  0  0  0
  162.1160  206.2930  152.0390 C   0  0  0  0  0  2  0  0  0  0  0  0
  161.3350  205.7320  153.2180 C   0  0  0  0  0  2  0  0  0  0  0  0
  160.4620  206.7210  153.7560 O   0  0  0  0  0  0  0  0  0  0  0  0
  161.6790  208.0500  155.2050 O   0  0  0  0  0  0  0  0  0  0  0  0
  160.6780  207.3110  155.0020 C   0  0  0  0  0  0  0  0  0  0  0  0
  159.7100  207.0700  156.1030 C   0  0  0  0  0  1  0  0  0  0  0  0
  1  4  1  0  0  0  0
  2  7  1  6  0  0  0
  2 10  1  0  0  0  0
  3  5  1  0  0  0  0
  4 16  1  1  0  0  0
  5 12  1  0  0  0  0
  6  2  1  0  0  0  0
  8  3  1  0  0  0  0
  8 11  2  0  0  0  0
  9  6  1  0  0  0  0
  9 14  1  0  0  0  0
 10 15  1  0  0  0  0
 10  1  1  1  0  0  0
 11  4  1  0  0  0  0
 11 13  1  0  0  0  0
 12 13  1  0  0  0  0
 14 15  1  0  0  0  0
 15  8  1  0  0  0  0
 16 25  1  1  0  0  0
 17 16  1  0  0  0  0
 17 19  1  0  0  0  0
 19 18  1  1  0  0  0
 20 21  2  0  0  0  0
 21 22  1  0  0  0  0
 21 19  1  0  0  0  0
 23 24  1  0  0  0  0
 24 22  1  0  0  0  0
 25 26  1  0  0  0  0
 26 27  1  0  0  0  0
 27 29  1  0  0  0  0
 29 28  2  0  0  0  0
 29 30  1  0  0  0  0
M  END
>  <MODEL>
1

>  <REMARK>
 VINA RESULT:      -7.1      0.000      0.000
  Name = 
  10 active torsions:
  status: ('A' for Active; 'I' for Inactive)
    1  A    between atoms: C_4  and  C_27
    2  A    between atoms: C_5  and  C_12
    3  A    between atoms: C_5  and  C_21
    4  A    between atoms: O_7  and  C_15
    5  A    between atoms: O_7  and  C_16
    6  A    between atoms: C_8  and  C_12
    7  A    between atoms: C_8  and  O_13
    8  A    between atoms: O_13  and  C_27
    9  A    between atoms: C_16  and  C_30
   10  A    between atoms: C_27  and  C_30
                            x       y       z     vdW  Elec       q    Type
                         _______ _______ _______ _____ _____    ______ ____

>  <TORSDO>
F 10

$$$$
=
 OpenBabel11052421563D

 30 32  0  0  1  0  0  0  0  0999 V2000
  160.8120  204.0180  150.2900 C   0  0  0  0  0  2  0  0  0  0  0  0
  160.3500  201.5660  150.1230 C   0  0  2  0  0  3  0  0  0  0  0  0
  161.4650  204.1910  146.0350 N   0  0  0  0  0  2  0  0  0  0  0  0
  160.6900  205.3800  149.5910 C   0  0  2  0  0  3  0  0  0  0  0  0
  161.6830  205.4310  145.2980 C   0  0  0  0  0  2  0  0  0  0  0  0
  161.5010  200.8280  149.7830 O   0  0  0  0  0  0  0  0  0  0  0  0
  159.1920  200.8310  149.9160 F   0  0  0  0  0  0  0  0  0  0  0  0
  161.1830  204.1850  147.4440 C   0  0  0  0  0  0  0  0  0  0  0  0
  161.4040  200.5110  148.4210 C   0  0  0  0  0  2  0  0  0  0  0  0
  160.2800  202.9160  149.3960 C   0  0  2  0  0  3  0  0  0  0  0  0
  161.0160  205.3520  148.1060 C   0  0  0  0  0  0  0  0  0  0  0  0
  160.8010  206.5240  145.8810 C   0  0  0  0  0  2  0  0  0  0  0  0
  161.1150  206.6670  147.3680 C   0  0  0  0  0  2  0  0  0  0  0  0
  161.6950  201.7470  147.5830 C   0  0  0  0  0  2  0  0  0  0  0  0
  161.0210  202.9300  148.1250 N   0  0  0  0  0  0  0  0  0  0  0  0
  161.4730  206.4790  150.3350 C   0  0  2  0  0  3  0  0  0  0  0  0
  160.7730  207.0980  151.4010 O   0  0  0  0  0  0  0  0  0  0  0  0
  161.3470  205.6840  153.2500 C   0  0  0  0  0  1  0  0  0  0  0  0
  161.5410  207.0310  152.5770 C   0  0  2  0  0  3  0  0  0  0  0  0
  161.2620  207.9720  154.7140 O   0  0  0  0  0  0  0  0  0  0  0  0
  161.1580  208.1390  153.5100 C   0  0  0  0  0  0  0  0  0  0  0  0
  160.6160  209.4340  152.9830 C   0  0  0  0  0  2  0  0  0  0  0  0
  160.5040  211.7330  153.6110 O   0  0  0  0  0  1  0  0  0  0  0  0
  161.3440  210.6200  153.5910 C   0  0  0  0  0  2  0  0  0  0  0  0
  162.2240  207.4450  149.4140 C   0  0  0  0  0  2  0  0  0  0  0  0
  162.0380  208.8830  149.8750 C   0  0  0  0  0  2  0  0  0  0  0  0
  162.1480  209.7800  148.7750 O   0  0  0  0  0  0  0  0  0  0  0  0
  161.4840  211.6920  149.8940 O   0  0  0  0  0  0  0  0  0  0  0  0
  162.1060  211.1670  148.9320 C   0  0  0  0  0  0  0  0  0  0  0  0
  162.8110  212.0350  147.9540 C   0  0  0  0  0  1  0  0  0  0  0  0
  2  7  1  6  0  0  0
  3  8  1  0  0  0  0
  4  1  1  0  0  0  0
  4 16  1  1  0  0  0
  5 12  1  0  0  0  0
  5  3  1  0  0  0  0
  6  2  1  0  0  0  0
  8 11  2  0  0  0  0
  8 15  1  0  0  0  0
  9  6  1  0  0  0  0
 10  2  1  0  0  0  0
 10  1  1  1  0  0  0
 11  4  1  0  0  0  0
 12 13  1  0  0  0  0
 13 11  1  0  0  0  0
 14 15  1  0  0  0  0
 14  9  1  0  0  0  0
 15 10  1  0  0  0  0
 16 25  1  6  0  0  0
 16 17  1  0  0  0  0
 17 19  1  0  0  0  0
 19 18  1  1  0  0  0
 19 21  1  0  0  0  0
 21 20  2  0  0  0  0
 22 21  1  0  0  0  0
 22 24  1  0  0  0  0
 24 23  1  0  0  0  0
 25 26  1  0  0  0  0
 27 29  1  0  0  0  0
 27 26  1  0  0  0  0
 29 28  2  0  0  0  0
 30 29  1  0  0  0  0
M  END
>  <MODEL>
2

>  <REMARK>
 VINA RESULT:      -6.9      2.393      5.018
  Name = 
  10 active torsions:
  status: ('A' for Active; 'I' for Inactive)
    1  A    between atoms: C_4  and  C_27
    2  A    between atoms: C_5  and  C_12
    3  A    between atoms: C_5  and  C_21
    4  A    between atoms: O_7  and  C_15
    5  A    between atoms: O_7  and  C_16
    6  A    between atoms: C_8  and  C_12
    7  A    between atoms: C_8  and  O_13
    8  A    between atoms: O_13  and  C_27
    9  A    between atoms: C_16  and  C_30
   10  A    between atoms: C_27  and  C_30
                            x       y       z     vdW  Elec       q    Type
                         _______ _______ _______ _____ _____    ______ ____

>  <TORSDO>
F 10

$$$$
=
 OpenBabel11052421563D

 30 32  0  0  1  0  0  0  0  0999 V2000
  161.0080  206.5160  152.6460 C   0  0  0  0  0  2  0  0  0  0  0  0
  160.9790  207.3000  155.0210 C   0  0  2  0  0  3  0  0  0  0  0  0
  161.3640  210.5930  151.2980 N   0  0  0  0  0  2  0  0  0  0  0  0
  161.5600  206.7690  151.2370 C   0  0  2  0  0  3  0  0  0  0  0  0
  161.5770  210.9700  149.9050 C   0  0  0  0  0  2  0  0  0  0  0  0
  159.8040  208.0140  155.3320 O   0  0  0  0  0  0  0  0  0  0  0  0
  161.9760  207.5230  155.9580 F   0  0  0  0  0  0  0  0  0  0  0  0
  161.3200  209.2180  151.7140 C   0  0  0  0  0  0  0  0  0  0  0  0
  160.1340  209.3770  155.3290 C   0  0  0  0  0  2  0  0  0  0  0  0
  161.4850  207.5920  153.6020 C   0  0  2  0  0  3  0  0  0  0  0  0
  161.5740  208.2320  150.8230 C   0  0  0  0  0  0  0  0  0  0  0  0
  162.5130  209.9670  149.2500 C   0  0  0  0  0  2  0  0  0  0  0  0
  161.9140  208.5710  149.3900 C   0  0  0  0  0  2  0  0  0  0  0  0
  160.2980  209.8630  153.8960 C   0  0  0  0  0  2  0  0  0  0  0  0
  161.0640  208.9060  153.0930 N   0  0  0  0  0  0  0  0  0  0  0  0
  160.8760  205.8760  150.1830 C   0  0  2  0  0  3  0  0  0  0  0  0
  161.5130  204.6320  149.9450 O   0  0  0  0  0  0  0  0  0  0  0  0
  161.3120  202.9790  151.6700 C   0  0  0  0  0  1  0  0  0  0  0  0
  160.7030  203.5850  150.4180 C   0  0  2  0  0  3  0  0  0  0  0  0
  159.7330  201.6380  149.5250 O   0  0  0  0  0  0  0  0  0  0  0  0
  160.5400  202.5370  149.3590 C   0  0  0  0  0  0  0  0  0  0  0  0
  161.3820  202.5610  148.1190 C   0  0  0  0  0  2  0  0  0  0  0  0
  160.8460  202.1570  145.8290 O   0  0  0  0  0  1  0  0  0  0  0  0
  160.8720  201.5660  147.0920 C   0  0  0  0  0  2  0  0  0  0  0  0
  160.4350  206.6220  148.9200 C   0  0  0  0  0  2  0  0  0  0  0  0
  160.6370  205.7570  147.6850 C   0  0  0  0  0  2  0  0  0  0  0  0
  161.8390  206.1200  147.0110 O   0  0  0  0  0  0  0  0  0  0  0  0
  163.3950  204.8190  145.9000 O   0  0  0  0  0  0  0  0  0  0  0  0
  162.2980  205.4400  145.8820 C   0  0  0  0  0  0  0  0  0  0  0  0
  161.4780  205.4420  144.6440 C   0  0  0  0  0  1  0  0  0  0  0  0
  2  6  1  0  0  0  0
  2  7  1  1  0  0  0
  3  8  1  0  0  0  0
  4 16  1  6  0  0  0
  4  1  1  0  0  0  0
  5  3  1  0  0  0  0
  8 15  1  0  0  0  0
  9  6  1  0  0  0  0
 10  1  1  6  0  0  0
 10  2  1  0  0  0  0
 11  4  1  0  0  0  0
 11  8  2  0  0  0  0
 12 13  1  0  0  0  0
 12  5  1  0  0  0  0
 13 11  1  0  0  0  0
 14  9  1  0  0  0  0
 15 10  1  0  0  0  0
 15 14  1  0  0  0  0
 16 25  1  6  0  0  0
 17 16  1  0  0  0  0
 17 19  1  0  0  0  0
 19 18  1  1  0  0  0
 21 20  2  0  0  0  0
 21 19  1  0  0  0  0
 22 21  1  0  0  0  0
 23 24  1  0  0  0  0
 24 22  1  0  0  0  0
 26 25  1  0  0  0  0
 27 26  1  0  0  0  0
 29 28  2  0  0  0  0
 29 27  1  0  0  0  0
 30 29  1  0  0  0  0
M  END
>  <MODEL>
3

>  <REMARK>
 VINA RESULT:      -6.8      3.435      8.033
  Name = 
  10 active torsions:
  status: ('A' for Active; 'I' for Inactive)
    1  A    between atoms: C_4  and  C_27
    2  A    between atoms: C_5  and  C_12
    3  A    between atoms: C_5  and  C_21
    4  A    between atoms: O_7  and  C_15
    5  A    between atoms: O_7  and  C_16
    6  A    between atoms: C_8  and  C_12
    7  A    between atoms: C_8  and  O_13
    8  A    between atoms: O_13  and  C_27
    9  A    between atoms: C_16  and  C_30
   10  A    between atoms: C_27  and  C_30
                            x       y       z     vdW  Elec       q    Type
                         _______ _______ _______ _____ _____    ______ ____

>  <TORSDO>
F 10

$$$$
=
 OpenBabel11052421563D

 30 32  0  0  1  0  0  0  0  0999 V2000
  161.0700  208.5780  151.2060 C   0  0  0  0  0  2  0  0  0  0  0  0
  160.6930  209.5120  153.4950 C   0  0  2  0  0  3  0  0  0  0  0  0
  161.1420  204.5910  152.8380 N   0  0  0  0  0  2  0  0  0  0  0  0
  160.7990  207.4000  150.2590 C   0  0  2  0  0  3  0  0  0  0  0  0
  161.2070  203.3830  152.0230 C   0  0  0  0  0  2  0  0  0  0  0  0
  161.8190  209.3530  154.3280 O   0  0  0  0  0  0  0  0  0  0  0  0
  159.5500  209.7910  154.2290 F   0  0  0  0  0  0  0  0  0  0  0  0
  161.0510  205.8990  152.2500 C   0  0  0  0  0  0  0  0  0  0  0  0
  161.5540  208.2750  155.1830 C   0  0  0  0  0  2  0  0  0  0  0  0
  160.4700  208.3060  152.5720 C   0  0  2  0  0  3  0  0  0  0  0  0
  160.9240  206.0320  150.9100 C   0  0  0  0  0  0  0  0  0  0  0  0
  160.3660  203.5750  150.7710 C   0  0  0  0  0  2  0  0  0  0  0  0
  160.8690  204.8080  150.0250 C   0  0  0  0  0  2  0  0  0  0  0  0
  161.6790  206.9670  154.4160 C   0  0  0  0  0  2  0  0  0  0  0  0
  161.0330  207.0560  153.1020 N   0  0  0  0  0  0  0  0  0  0  0  0
  161.6270  207.5030  148.9640 C   0  0  2  0  0  3  0  0  0  0  0  0
  162.1800  206.2810  148.5050 O   0  0  0  0  0  0  0  0  0  0  0  0
  160.6670  206.5010  146.6580 C   0  0  0  0  0  1  0  0  0  0  0  0
  162.0900  206.2150  147.1040 C   0  0  2  0  0  3  0  0  0  0  0  0
  163.5760  204.7580  146.0080 O   0  0  0  0  0  0  0  0  0  0  0  0
  162.5260  204.8650  146.6200 C   0  0  0  0  0  0  0  0  0  0  0  0
  161.6710  203.6550  146.8470 C   0  0  0  0  0  2  0  0  0  0  0  0
  160.5790  201.8300  145.7630 O   0  0  0  0  0  1  0  0  0  0  0  0
  161.2260  203.0440  145.5300 C   0  0  0  0  0  2  0  0  0  0  0  0
  162.5880  208.6960  148.9280 C   0  0  0  0  0  2  0  0  0  0  0  0
  161.9050  209.9210  148.3380 C   0  0  0  0  0  2  0  0  0  0  0  0
  162.2320  211.0860  149.0880 O   0  0  0  0  0  0  0  0  0  0  0  0
  163.1900  212.7700  147.8250 O   0  0  0  0  0  0  0  0  0  0  0  0
  162.2250  212.3640  148.5260 C   0  0  0  0  0  0  0  0  0  0  0  0
  161.0580  213.2560  148.7530 C   0  0  0  0  0  1  0  0  0  0  0  0
  2  7  1  1  0  0  0
  2  6  1  0  0  0  0
  4 16  1  6  0  0  0
  4 11  1  0  0  0  0
  4  1  1  0  0  0  0
  5  3  1  0  0  0  0
  6  9  1  0  0  0  0
  8  3  1  0  0  0  0
  8 15  1  0  0  0  0
 10  1  1  6  0  0  0
 10 15  1  0  0  0  0
 10  2  1  0  0  0  0
 11  8  2  0  0  0  0
 12  5  1  0  0  0  0
 13 12  1  0  0  0  0
 13 11  1  0  0  0  0
 14  9  1  0  0  0  0
 15 14  1  0  0  0  0
 16 25  1  1  0  0  0
 17 16  1  0  0  0  0
 19 18  1  1  0  0  0
 19 17  1  0  0  0  0
 20 21  2  0  0  0  0
 21 22  1  0  0  0  0
 21 19  1  0  0  0  0
 24 23  1  0  0  0  0
 24 22  1  0  0  0  0
 26 25  1  0  0  0  0
 26 27  1  0  0  0  0
 28 29  2  0  0  0  0
 29 30  1  0  0  0  0
 29 27  1  0  0  0  0
M  END
>  <MODEL>
4

>  <REMARK>
 VINA RESULT:      -6.7      2.928      6.857
  Name = 
  10 active torsions:
  status: ('A' for Active; 'I' for Inactive)
    1  A    between atoms: C_4  and  C_27
    2  A    between atoms: C_5  and  C_12
    3  A    between atoms: C_5  and  C_21
    4  A    between atoms: O_7  and  C_15
    5  A    between atoms: O_7  and  C_16
    6  A    between atoms: C_8  and  C_12
    7  A    between atoms: C_8  and  O_13
    8  A    between atoms: O_13  and  C_27
    9  A    between atoms: C_16  and  C_30
   10  A    between atoms: C_27  and  C_30
                            x       y       z     vdW  Elec       q    Type
                         _______ _______ _______ _____ _____    ______ ____

>  <TORSDO>
F 10

$$$$
=
 OpenBabel11052421563D

 30 32  0  0  1  0  0  0  0  0999 V2000
  161.0260  210.5130  152.0520 C   0  0  0  0  0  2  0  0  0  0  0  0
  160.2130  211.4150  154.2380 C   0  0  2  0  0  3  0  0  0  0  0  0
  161.3290  206.5790  153.7800 N   0  0  0  0  0  2  0  0  0  0  0  0
  161.0360  209.3040  151.1070 C   0  0  2  0  0  3  0  0  0  0  0  0
  161.6530  205.3800  153.0140 C   0  0  0  0  0  2  0  0  0  0  0  0
  161.2170  211.4000  155.2270 O   0  0  0  0  0  0  0  0  0  0  0  0
  158.9510  211.5620  154.7930 F   0  0  0  0  0  0  0  0  0  0  0  0
  161.1710  207.8610  153.1510 C   0  0  0  0  0  0  0  0  0  0  0  0
  160.9590  210.3050  156.0640 C   0  0  0  0  0  2  0  0  0  0  0  0
  160.2700  210.1840  153.3240 C   0  0  2  0  0  3  0  0  0  0  0  0
  161.2250  207.9660  151.8040 C   0  0  0  0  0  0  0  0  0  0  0  0
  160.9860  205.4590  151.6500 C   0  0  0  0  0  2  0  0  0  0  0  0
  161.4440  206.7370  150.9520 C   0  0  0  0  0  2  0  0  0  0  0  0
  161.3470  209.0150  155.3560 C   0  0  0  0  0  2  0  0  0  0  0  0
  160.8940  209.0150  153.9620 N   0  0  0  0  0  0  0  0  0  0  0  0
  162.0250  209.4950  149.9410 C   0  0  2  0  0  3  0  0  0  0  0  0
  162.5450  210.8070  149.8020 O   0  0  0  0  0  0  0  0  0  0  0  0
  163.5430  211.9410  147.9410 C   0  0  0  0  0  1  0  0  0  0  0  0
  162.2960  211.2810  148.5020 C   0  0  2  0  0  3  0  0  0  0  0  0
  160.9040  212.8700  149.5350 O   0  0  0  0  0  0  0  0  0  0  0  0
  161.1540  212.2510  148.5140 C   0  0  0  0  0  0  0  0  0  0  0  0
  160.2950  212.4400  147.3000 C   0  0  0  0  0  2  0  0  0  0  0  0
  157.9760  212.8160  147.7210 O   0  0  0  0  0  1  0  0  0  0  0  0
  159.2010  213.4620  147.5570 C   0  0  0  0  0  2  0  0  0  0  0  0
  161.5820  208.8380  148.6300 C   0  0  0  0  0  2  0  0  0  0  0  0
  162.4880  207.6660  148.2810 C   0  0  0  0  0  2  0  0  0  0  0  0
  161.8580  206.8120  147.3310 O   0  0  0  0  0  0  0  0  0  0  0  0
  163.1210  205.0860  146.4500 O   0  0  0  0  0  0  0  0  0  0  0  0
  162.1850  205.4600  147.2080 C   0  0  0  0  0  0  0  0  0  0  0  0
  161.4240  204.4500  147.9850 C   0  0  0  0  0  1  0  0  0  0  0  0
  2  7  1  1  0  0  0
  2  6  1  0  0  0  0
  4 16  1  6  0  0  0
  4 11  1  0  0  0  0
  4  1  1  0  0  0  0
  5  3  1  0  0  0  0
  6  9  1  0  0  0  0
  8  3  1  0  0  0  0
  8 15  1  0  0  0  0
 10  1  1  6  0  0  0
 10 15  1  0  0  0  0
 10  2  1  0  0  0  0
 11  8  2  0  0  0  0
 12  5  1  0  0  0  0
 13 12  1  0  0  0  0
 13 11  1  0  0  0  0
 14  9  1  0  0  0  0
 15 14  1  0  0  0  0
 16 25  1  6  0  0  0
 17 16  1  0  0  0  0
 19 18  1  1  0  0  0
 19 21  1  0  0  0  0
 19 17  1  0  0  0  0
 21 20  2  0  0  0  0
 22 24  1  0  0  0  0
 22 21  1  0  0  0  0
 24 23  1  0  0  0  0
 26 25  1  0  0  0  0
 27 26  1  0  0  0  0
 28 29  2  0  0  0  0
 29 27  1  0  0  0  0
 29 30  1  0  0  0  0
M  END
>  <MODEL>
5

>  <REMARK>
 VINA RESULT:      -6.3      3.657      7.093
  Name = 
  10 active torsions:
  status: ('A' for Active; 'I' for Inactive)
    1  A    between atoms: C_4  and  C_27
    2  A    between atoms: C_5  and  C_12
    3  A    between atoms: C_5  and  C_21
    4  A    between atoms: O_7  and  C_15
    5  A    between atoms: O_7  and  C_16
    6  A    between atoms: C_8  and  C_12
    7  A    between atoms: C_8  and  O_13
    8  A    between atoms: O_13  and  C_27
    9  A    between atoms: C_16  and  C_30
   10  A    between atoms: C_27  and  C_30
                            x       y       z     vdW  Elec       q    Type
                         _______ _______ _______ _____ _____    ______ ____

>  <TORSDO>
F 10

$$$$
=
 OpenBabel11052421563D

 30 32  0  0  1  0  0  0  0  0999 V2000
  161.3220  208.4810  152.6770 C   0  0  0  0  0  2  0  0  0  0  0  0
  161.0910  209.8330  154.7680 C   0  0  2  0  0  3  0  0  0  0  0  0
  161.0390  212.0720  150.3150 N   0  0  0  0  0  2  0  0  0  0  0  0
  161.8670  208.4510  151.2430 C   0  0  2  0  0  3  0  0  0  0  0  0
  161.2280  212.1080  148.8690 C   0  0  0  0  0  2  0  0  0  0  0  0
  159.8050  210.3950  154.9000 O   0  0  0  0  0  0  0  0  0  0  0  0
  162.0080  210.4540  155.6020 F   0  0  0  0  0  0  0  0  0  0  0  0
  161.2100  210.8640  151.0730 C   0  0  0  0  0  0  0  0  0  0  0  0
  159.9040  211.7470  154.5390 C   0  0  0  0  0  2  0  0  0  0  0  0
  161.5850  209.8300  153.3150 C   0  0  2  0  0  3  0  0  0  0  0  0
  161.6510  209.7390  150.4640 C   0  0  0  0  0  0  0  0  0  0  0  0
  162.3370  211.1430  148.4830 C   0  0  0  0  0  2  0  0  0  0  0  0
  161.9740  209.7490  148.9880 C   0  0  0  0  0  2  0  0  0  0  0  0
  160.0290  211.8680  153.0280 C   0  0  0  0  0  2  0  0  0  0  0  0
  160.9680  210.8790  152.4890 N   0  0  0  0  0  0  0  0  0  0  0  0
  161.3730  207.2160  150.4660 C   0  0  2  0  0  3  0  0  0  0  0  0
  161.9650  205.9860  150.8530 O   0  0  0  0  0  0  0  0  0  0  0  0
  161.2060  205.1020  152.9480 C   0  0  0  0  0  1  0  0  0  0  0  0
  160.9970  205.1570  151.4450 C   0  0  2  0  0  3  0  0  0  0  0  0
  161.3460  202.8360  151.5780 O   0  0  0  0  0  0  0  0  0  0  0  0
  161.0650  203.7800  150.8590 C   0  0  0  0  0  0  0  0  0  0  0  0
  160.8290  203.5560  149.3950 C   0  0  0  0  0  2  0  0  0  0  0  0
  161.1970  201.5990  148.0800 O   0  0  0  0  0  1  0  0  0  0  0  0
  160.4250  202.1180  149.1190 C   0  0  0  0  0  2  0  0  0  0  0  0
  161.2670  207.4280  148.9530 C   0  0  0  0  0  2  0  0  0  0  0  0
  162.2780  206.5620  148.2150 C   0  0  0  0  0  2  0  0  0  0  0  0
  162.0810  206.6520  146.8070 O   0  0  0  0  0  0  0  0  0  0  0  0
  160.0860  206.2070  145.7260 O   0  0  0  0  0  0  0  0  0  0  0  0
  161.2140  205.8030  146.1170 C   0  0  0  0  0  0  0  0  0  0  0  0
  161.6300  204.4060  145.8350 C   0  0  0  0  0  1  0  0  0  0  0  0
  2  6  1  0  0  0  0
  2  7  1  1  0  0  0
  3  8  1  0  0  0  0
  4 16  1  6  0  0  0
  4  1  1  0  0  0  0
  5  3  1  0  0  0  0
  8 15  1  0  0  0  0
  9  6  1  0  0  0  0
 10  1  1  6  0  0  0
 10  2  1  0  0  0  0
 11  8  2  0  0  0  0
 11  4  1  0  0  0  0
 12  5  1  0  0  0  0
 12 13  1  0  0  0  0
 13 11  1  0  0  0  0
 14  9  1  0  0  0  0
 15 14  1  0  0  0  0
 15 10  1  0  0  0  0
 16 25  1  6  0  0  0
 16 17  1  0  0  0  0
 17 19  1  0  0  0  0
 19 18  1  1  0  0  0
 21 19  1  0  0  0  0
 21 20  2  0  0  0  0
 22 21  1  0  0  0  0
 23 24  1  0  0  0  0
 24 22  1  0  0  0  0
 26 25  1  0  0  0  0
 27 26  1  0  0  0  0
 28 29  2  0  0  0  0
 29 27  1  0  0  0  0
 30 29  1  0  0  0  0
M  END
>  <MODEL>
6

>  <REMARK>
 VINA RESULT:      -6.0      3.757      8.228
  Name = 
  10 active torsions:
  status: ('A' for Active; 'I' for Inactive)
    1  A    between atoms: C_4  and  C_27
    2  A    between atoms: C_5  and  C_12
    3  A    between atoms: C_5  and  C_21
    4  A    between atoms: O_7  and  C_15
    5  A    between atoms: O_7  and  C_16
    6  A    between atoms: C_8  and  C_12
    7  A    between atoms: C_8  and  O_13
    8  A    between atoms: O_13  and  C_27
    9  A    between atoms: C_16  and  C_30
   10  A    between atoms: C_27  and  C_30
                            x       y       z     vdW  Elec       q    Type
                         _______ _______ _______ _____ _____    ______ ____

>  <TORSDO>
F 10

$$$$
=
 OpenBabel11052421563D

 30 32  0  0  1  0  0  0  0  0999 V2000
  161.2340  206.5270  153.5140 C   0  0  0  0  0  2  0  0  0  0  0  0
  160.7980  206.9860  155.9340 C   0  0  2  0  0  3  0  0  0  0  0  0
  160.7790  210.7180  152.6300 N   0  0  0  0  0  2  0  0  0  0  0  0
  161.8470  207.0650  152.2140 C   0  0  2  0  0  3  0  0  0  0  0  0
  161.0330  211.3010  151.3160 C   0  0  0  0  0  2  0  0  0  0  0  0
  159.4680  207.3860  156.1700 O   0  0  0  0  0  0  0  0  0  0  0  0
  161.6240  207.3020  157.0030 F   0  0  0  0  0  0  0  0  0  0  0  0
  161.0100  209.3260  152.8980 C   0  0  0  0  0  0  0  0  0  0  0  0
  159.4770  208.7780  156.3410 C   0  0  0  0  0  2  0  0  0  0  0  0
  161.3590  207.5530  154.6230 C   0  0  2  0  0  3  0  0  0  0  0  0
  161.5660  208.5360  151.9520 C   0  0  0  0  0  0  0  0  0  0  0  0
  162.2320  210.6130  150.6840 C   0  0  0  0  0  2  0  0  0  0  0  0
  161.9560  209.1140  150.6110 C   0  0  0  0  0  2  0  0  0  0  0  0
  159.6620  209.4600  154.9940 C   0  0  0  0  0  2  0  0  0  0  0  0
  160.7010  208.7980  154.1990 N   0  0  0  0  0  0  0  0  0  0  0  0
  161.4890  206.1820  151.0030 C   0  0  2  0  0  3  0  0  0  0  0  0
  161.1500  206.8900  149.8220 O   0  0  0  0  0  0  0  0  0  0  0  0
  162.7010  207.7080  148.1870 C   0  0  0  0  0  1  0  0  0  0  0  0
  161.9970  206.4960  148.7720 C   0  0  2  0  0  3  0  0  0  0  0  0
  160.1090  206.2100  147.3990 O   0  0  0  0  0  0  0  0  0  0  0  0
  161.2110  205.7890  147.7100 C   0  0  0  0  0  0  0  0  0  0  0  0
  161.7460  204.5510  147.0560 C   0  0  0  0  0  2  0  0  0  0  0  0
  160.8180  204.1470  144.8940 O   0  0  0  0  0  1  0  0  0  0  0  0
  161.8910  204.7430  145.5560 C   0  0  0  0  0  2  0  0  0  0  0  0
  160.5620  205.0080  151.3350 C   0  0  0  0  0  2  0  0  0  0  0  0
  161.2300  203.6830  150.9990 C   0  0  0  0  0  2  0  0  0  0  0  0
  160.5280  203.0200  149.9520 O   0  0  0  0  0  0  0  0  0  0  0  0
  160.9490  200.8140  150.5040 O   0  0  0  0  0  0  0  0  0  0  0  0
  160.7730  201.6880  149.6130 C   0  0  0  0  0  0  0  0  0  0  0  0
  160.8210  201.2950  148.1820 C   0  0  0  0  0  1  0  0  0  0  0  0
  2  6  1  0  0  0  0
  2  7  1  1  0  0  0
  3  8  1  0  0  0  0
  4 16  1  6  0  0  0
  4  1  1  0  0  0  0
  5  3  1  0  0  0  0
  6  9  1  0  0  0  0
  8 15  1  0  0  0  0
 10  1  1  6  0  0  0
 10  2  1  0  0  0  0
 11  4  1  0  0  0  0
 11  8  2  0  0  0  0
 12  5  1  0  0  0  0
 13 12  1  0  0  0  0
 13 11  1  0  0  0  0
 14  9  1  0  0  0  0
 15 10  1  0  0  0  0
 15 14  1  0  0  0  0
 16 25  1  1  0  0  0
 17 16  1  0  0  0  0
 19 18  1  6  0  0  0
 19 17  1  0  0  0  0
 20 21  2  0  0  0  0
 21 19  1  0  0  0  0
 22 21  1  0  0  0  0
 23 24  1  0  0  0  0
 24 22  1  0  0  0  0
 26 25  1  0  0  0  0
 27 26  1  0  0  0  0
 29 27  1  0  0  0  0
 29 28  2  0  0  0  0
 30 29  1  0  0  0  0
M  END
>  <MODEL>
7

>  <REMARK>
 VINA RESULT:      -5.8      3.691      7.621
  Name = 
  10 active torsions:
  status: ('A' for Active; 'I' for Inactive)
    1  A    between atoms: C_4  and  C_27
    2  A    between atoms: C_5  and  C_12
    3  A    between atoms: C_5  and  C_21
    4  A    between atoms: O_7  and  C_15
    5  A    between atoms: O_7  and  C_16
    6  A    between atoms: C_8  and  C_12
    7  A    between atoms: C_8  and  O_13
    8  A    between atoms: O_13  and  C_27
    9  A    between atoms: C_16  and  C_30
   10  A    between atoms: C_27  and  C_30
                            x       y       z     vdW  Elec       q    Type
                         _______ _______ _______ _____ _____    ______ ____

>  <TORSDO>
F 10

$$$$
=
 OpenBabel11052421563D

 30 32  0  0  1  0  0  0  0  0999 V2000
  159.4060  210.9070  152.6660 C   0  0  0  0  0  2  0  0  0  0  0  0
  157.8970  212.7110  153.5160 C   0  0  2  0  0  3  0  0  0  0  0  0
  161.0090  210.3710  156.6280 N   0  0  0  0  0  2  0  0  0  0  0  0
  160.1000  209.5780  152.9950 C   0  0  2  0  0  3  0  0  0  0  0  0
  161.9440  209.3100  156.9880 C   0  0  0  0  0  2  0  0  0  0  0  0
  158.6100  213.8630  153.9060 O   0  0  0  0  0  0  0  0  0  0  0  0
  156.6120  212.7060  154.0350 F   0  0  0  0  0  0  0  0  0  0  0  0
  160.4460  210.4710  155.3100 C   0  0  0  0  0  0  0  0  0  0  0  0
  158.6870  213.8490  155.3060 C   0  0  0  0  0  2  0  0  0  0  0  0
  158.6370  211.4140  153.8700 C   0  0  2  0  0  3  0  0  0  0  0  0
  160.7010  209.5140  154.3890 C   0  0  0  0  0  0  0  0  0  0  0  0
  161.5730  208.0390  156.2410 C   0  0  0  0  0  2  0  0  0  0  0  0
  161.5710  208.3310  154.7430 C   0  0  0  0  0  2  0  0  0  0  0  0
  159.7060  212.8120  155.7550 C   0  0  0  0  0  2  0  0  0  0  0  0
  159.5630  211.5630  155.0020 N   0  0  0  0  0  0  0  0  0  0  0  0
  161.1150  209.1760  151.9080 C   0  0  2  0  0  3  0  0  0  0  0  0
  161.7590  207.9300  152.1170 O   0  0  0  0  0  0  0  0  0  0  0  0
  161.2060  205.6060  152.3230 C   0  0  0  0  0  1  0  0  0  0  0  0
  160.9900  206.8970  151.5530 C   0  0  2  0  0  3  0  0  0  0  0  0
  162.3590  207.2390  149.6720 O   0  0  0  0  0  0  0  0  0  0  0  0
  161.3510  206.7100  150.1110 C   0  0  0  0  0  0  0  0  0  0  0  0
  160.4710  205.9140  149.1950 C   0  0  0  0  0  2  0  0  0  0  0  0
  160.8520  203.5590  149.1510 O   0  0  0  0  0  1  0  0  0  0  0  0
  161.2350  204.7640  148.5630 C   0  0  0  0  0  2  0  0  0  0  0  0
  162.0450  210.3120  151.4680 C   0  0  0  0  0  2  0  0  0  0  0  0
  161.9940  210.4950  149.9580 C   0  0  0  0  0  2  0  0  0  0  0  0
  161.5780  211.8170  149.6290 O   0  0  0  0  0  0  0  0  0  0  0  0
  162.8890  212.2800  147.7810 O   0  0  0  0  0  0  0  0  0  0  0  0
  161.7730  212.3690  148.3610 C   0  0  0  0  0  0  0  0  0  0  0  0
  160.6490  213.0650  147.6860 C   0  0  0  0  0  1  0  0  0  0  0  0
  1  4  1  0  0  0  0
  2 10  1  0  0  0  0
  2  6  1  0  0  0  0
  2  7  1  1  0  0  0
  3  5  1  0  0  0  0
  4 16  1  6  0  0  0
  4 11  1  0  0  0  0
  6  9  1  0  0  0  0
  8  3  1  0  0  0  0
  9 14  1  0  0  0  0
 10  1  1  6  0  0  0
 10 15  1  0  0  0  0
 11 13  1  0  0  0  0
 11  8  2  0  0  0  0
 12  5  1  0  0  0  0
 13 12  1  0  0  0  0
 15  8  1  0  0  0  0
 15 14  1  0  0  0  0
 16 25  1  1  0  0  0
 16 17  1  0  0  0  0
 19 17  1  0  0  0  0
 19 18  1  1  0  0  0
 20 21  2  0  0  0  0
 21 19  1  0  0  0  0
 22 21  1  0  0  0  0
 24 23  1  0  0  0  0
 24 22  1  0  0  0  0
 26 25  1  0  0  0  0
 27 26  1  0  0  0  0
 28 29  2  0  0  0  0
 29 27  1  0  0  0  0
 30 29  1  0  0  0  0
M  END
>  <MODEL>
8

>  <REMARK>
 VINA RESULT:      -5.8      4.691      8.594
  Name = 
  10 active torsions:
  status: ('A' for Active; 'I' for Inactive)
    1  A    between atoms: C_4  and  C_27
    2  A    between atoms: C_5  and  C_12
    3  A    between atoms: C_5  and  C_21
    4  A    between atoms: O_7  and  C_15
    5  A    between atoms: O_7  and  C_16
    6  A    between atoms: C_8  and  C_12
    7  A    between atoms: C_8  and  O_13
    8  A    between atoms: O_13  and  C_27
    9  A    between atoms: C_16  and  C_30
   10  A    between atoms: C_27  and  C_30
                            x       y       z     vdW  Elec       q    Type
                         _______ _______ _______ _____ _____    ______ ____

>  <TORSDO>
F 10

$$$$
=
 OpenBabel11052421563D

 30 32  0  0  1  0  0  0  0  0999 V2000
  162.4390  206.9910  147.8830 C   0  0  0  0  0  2  0  0  0  0  0  0
  162.6930  205.3510  146.0120 C   0  0  2  0  0  3  0  0  0  0  0  0
  160.8160  203.8880  150.3920 N   0  0  0  0  0  2  0  0  0  0  0  0
  162.4800  207.1920  149.4040 C   0  0  2  0  0  3  0  0  0  0  0  0
  160.5100  204.0670  151.8070 C   0  0  0  0  0  2  0  0  0  0  0  0
  161.4490  204.9240  145.5050 O   0  0  0  0  0  0  0  0  0  0  0  0
  163.7200  204.5030  145.6270 F   0  0  0  0  0  0  0  0  0  0  0  0
  161.4210  204.9300  149.6090 C   0  0  0  0  0  0  0  0  0  0  0  0
  161.2030  203.6480  146.0300 C   0  0  0  0  0  2  0  0  0  0  0  0
  162.6750  205.5340  147.5360 C   0  0  2  0  0  3  0  0  0  0  0  0
  161.8130  206.0810  150.2000 C   0  0  0  0  0  0  0  0  0  0  0  0
  161.5720  204.9510  152.4430 C   0  0  0  0  0  2  0  0  0  0  0  0
  161.6260  206.2750  151.6870 C   0  0  0  0  0  2  0  0  0  0  0  0
  160.8020  203.7610  147.4930 C   0  0  0  0  0  2  0  0  0  0  0  0
  161.6590  204.7110  148.2090 N   0  0  0  0  0  0  0  0  0  0  0  0
  161.9660  208.5860  149.8130 C   0  0  2  0  0  3  0  0  0  0  0  0
  161.0670  208.5970  150.9090 O   0  0  0  0  0  0  0  0  0  0  0  0
  162.7080  209.9520  152.0120 C   0  0  0  0  0  1  0  0  0  0  0  0
  161.2430  209.7750  151.6560 C   0  0  2  0  0  3  0  0  0  0  0  0
  159.3840  210.3910  152.9580 O   0  0  0  0  0  0  0  0  0  0  0  0
  160.4070  209.7300  152.8990 C   0  0  0  0  0  0  0  0  0  0  0  0
  160.8330  208.9120  154.0820 C   0  0  0  0  0  2  0  0  0  0  0  0
  161.6130  210.9460  155.0570 O   0  0  0  0  0  1  0  0  0  0  0  0
  160.9230  209.7660  155.3350 C   0  0  0  0  0  2  0  0  0  0  0  0
  161.5510  209.4710  148.6340 C   0  0  0  0  0  2  0  0  0  0  0  0
  162.3350  210.7750  148.6370 C   0  0  0  0  0  2  0  0  0  0  0  0
  161.6180  211.7920  147.9440 O   0  0  0  0  0  0  0  0  0  0  0  0
  160.7810  212.9490  149.7620 O   0  0  0  0  0  0  0  0  0  0  0  0
  161.1870  212.9630  148.5690 C   0  0  0  0  0  0  0  0  0  0  0  0
  161.2130  214.2450  147.8190 C   0  0  0  0  0  1  0  0  0  0  0  0
  1  4  1  0  0  0  0
  2  7  1  1  0  0  0
  2 10  1  0  0  0  0
  3  5  1  0  0  0  0
  4 16  1  6  0  0  0
  4 11  1  0  0  0  0
  5 12  1  0  0  0  0
  6  2  1  0  0  0  0
  6  9  1  0  0  0  0
  8 11  2  0  0  0  0
  8  3  1  0  0  0  0
  9 14  1  0  0  0  0
 10  1  1  6  0  0  0
 10 15  1  0  0  0  0
 11 13  1  0  0  0  0
 13 12  1  0  0  0  0
 14 15  1  0  0  0  0
 15  8  1  0  0  0  0
 16 25  1  6  0  0  0
 16 17  1  0  0  0  0
 17 19  1  0  0  0  0
 19 18  1  1  0  0  0
 19 21  1  0  0  0  0
 21 20  2  0  0  0  0
 21 22  1  0  0  0  0
 22 24  1  0  0  0  0
 23 24  1  0  0  0  0
 25 26  1  0  0  0  0
 27 29  1  0  0  0  0
 27 26  1  0  0  0  0
 29 28  2  0  0  0  0
 30 29  1  0  0  0  0
M  END
>  <MODEL>
9

>  <REMARK>
 VINA RESULT:      -5.6      1.724      4.582
  Name = 
  10 active torsions:
  status: ('A' for Active; 'I' for Inactive)
    1  A    between atoms: C_4  and  C_27
    2  A    between atoms: C_5  and  C_12
    3  A    between atoms: C_5  and  C_21
    4  A    between atoms: O_7  and  C_15
    5  A    between atoms: O_7  and  C_16
    6  A    between atoms: C_8  and  C_12
    7  A    between atoms: C_8  and  O_13
    8  A    between atoms: O_13  and  C_27
    9  A    between atoms: C_16  and  C_30
   10  A    between atoms: C_27  and  C_30
                            x       y       z     vdW  Elec       q    Type
                         _______ _______ _______ _____ _____    ______ ____

>  <TORSDO>
F 10

$$$$
