=
 OpenBabel11062409523D

 34 40  0  0  1  0  0  0  0  0999 V2000
  161.2130  205.9720  147.5570 C   0  0  2  0  0  3  0  0  0  0  0  0
  160.2910  206.0700  152.9120 C   0  0  0  0  0  2  0  0  0  0  0  0
  161.9610  210.3560  153.7690 C   0  0  2  0  0  3  0  0  0  0  0  0
  161.4260  206.2820  150.4480 C   0  0  1  0  0  0  0  0  0  0  0  0
  161.5970  205.4190  146.3370 O   0  0  0  0  0  1  0  0  0  0  0  0
  162.4010  206.7040  148.1780 C   0  0  0  0  0  2  0  0  0  0  0  0
  160.7270  204.8620  148.4860 C   0  0  0  0  0  2  0  0  0  0  0  0
  160.2790  205.4450  149.8230 C   0  0  1  0  0  3  0  0  0  0  0  0
  161.6640  207.8150  153.8660 C   0  0  2  0  0  3  0  0  0  0  0  0
  159.7950  204.4260  150.6450 O   0  0  0  0  0  1  0  0  0  0  0  0
  162.4050  205.7000  151.4870 C   0  0  0  0  0  0  0  0  0  0  0  0
  162.0030  207.3450  149.5040 C   0  0  0  0  0  2  0  0  0  0  0  0
  162.2690  204.2220  151.8370 C   0  0  0  0  0  1  0  0  0  0  0  0
  163.8300  206.2450  151.4750 C   0  0  0  0  0  1  0  0  0  0  0  0
  160.4730  206.9010  154.1660 C   0  0  0  0  0  2  0  0  0  0  0  0
  161.0960  210.3840  152.4970 C   0  0  2  0  0  3  0  0  0  0  0  0
  163.3050  210.5010  153.4250 O   0  0  0  0  0  1  0  0  0  0  0  0
  159.8150  209.5680  152.6170 C   0  0  0  0  0  2  0  0  0  0  0  0
  161.7840  209.1270  154.6680 C   0  0  2  0  0  3  0  0  0  0  0  0
  161.2870  206.6750  151.9330 C   0  0  2  0  0  0  0  0  0  0  0  0
  160.9800  209.0380  151.7830 C   0  0  2  0  0  3  0  0  0  0  0  0
  161.7980  207.9620  152.4060 N   0  0  1  0  0  0  0  0  0  0  0  0
  160.6690  209.3410  155.6870 C   0  0  0  0  0  2  0  0  0  0  0  0
  159.8050  210.9460  157.1740 C   0  0  0  0  0  2  0  0  0  0  0  0
  160.3800  210.7630  155.8240 N   0  0  0  0  0  0  0  0  0  0  0  0
  158.0650  209.8880  155.9260 O   0  0  0  0  0  1  0  0  0  0  0  0
  158.9310  210.9850  156.0160 C   0  0  1  0  0  0  0  0  0  0  0  0
  158.4490  212.2750  155.7240 O   0  0  0  0  0  0  0  0  0  0  0  0
  158.1610  212.6060  153.2560 C   0  0  0  0  0  2  0  0  0  0  0  0
  156.4990  214.4530  152.9040 C   0  0  0  0  0  2  0  0  0  0  0  0
  157.5650  212.2490  154.6200 C   0  0  2  0  0  3  0  0  0  0  0  0
  155.8160  212.7130  154.9290 S   0  0  0  0  0  0  0  0  0  0  0  0
  155.9720  214.4250  154.3260 C   0  0  0  0  0  2  0  0  0  0  0  0
  157.9710  214.0730  152.8950 C   0  0  0  0  0  2  0  0  0  0  0  0
  1  5  1  6  0  0  0
  1  6  1  0  0  0  0
  1  7  1  0  0  0  0
  2 15  1  0  0  0  0
  3 17  1  6  0  0  0
  3 19  1  0  0  0  0
  4 12  1  6  0  0  0
  4 11  1  0  0  0  0
  4 20  1  0  0  0  0
  6 12  1  0  0  0  0
  7  8  1  0  0  0  0
  8  4  1  0  0  0  0
  8 10  1  1  0  0  0
  9 15  1  6  0  0  0
  9 19  1  0  0  0  0
 11 13  1  0  0  0  0
 11 20  1  0  0  0  0
 14 11  1  0  0  0  0
 16 18  1  1  0  0  0
 16  3  1  0  0  0  0
 19 23  1  6  0  0  0
 20 22  1  0  0  0  0
 20  2  1  1  0  0  0
 21 22  1  0  0  0  0
 21 16  1  0  0  0  0
 21 18  1  1  0  0  0
 22  9  1  0  0  0  0
 23 25  1  0  0  0  0
 25 27  1  0  0  0  0
 25 24  1  0  0  0  0
 26 27  1  0  0  0  0
 27 24  1  0  0  0  0
 28 27  1  0  0  0  0
 29 31  1  0  0  0  0
 30 33  1  0  0  0  0
 31 32  1  0  0  0  0
 31 28  1  0  0  0  0
 33 32  1  0  0  0  0
 34 30  1  0  0  0  0
 34 29  1  0  0  0  0
M  END
>  <MODEL>
1

>  <REMARK>
 VINA RESULT:      -3.1      0.000      0.000
  Name = 
  4 active torsions:
  status: ('A' for Active; 'I' for Inactive)
    1  A    between atoms: C_3  and  N_18
    2  A    between atoms: C_3  and  C_31
    3  A    between atoms: C_14  and  O_16
    4  A    between atoms: O_16  and  C_28
                            x       y       z     vdW  Elec       q    Type
                         _______ _______ _______ _____ _____    ______ ____

>  <TORSDO>
F 4

$$$$
=
 OpenBabel11062409523D

 34 40  0  0  1  0  0  0  0  0999 V2000
  155.4180  213.4250  156.7800 C   0  0  2  0  0  3  0  0  0  0  0  0
  158.5580  210.8200  153.1900 C   0  0  0  0  0  2  0  0  0  0  0  0
  161.8080  209.2810  156.1840 C   0  0  2  0  0  3  0  0  0  0  0  0
  157.6510  212.3950  155.2150 C   0  0  1  0  0  0  0  0  0  0  0  0
  154.6080  214.4530  157.2600 O   0  0  0  0  0  1  0  0  0  0  0  0
  156.8590  213.6630  157.2270 C   0  0  0  0  0  2  0  0  0  0  0  0
  155.3320  213.3820  155.2560 C   0  0  0  0  0  2  0  0  0  0  0  0
  156.1940  212.2490  154.7070 C   0  0  1  0  0  3  0  0  0  0  0  0
  160.7270  210.4940  154.2060 C   0  0  2  0  0  3  0  0  0  0  0  0
  156.0710  212.1920  153.3180 O   0  0  0  0  0  1  0  0  0  0  0  0
  158.7520  213.0920  154.3900 C   0  0  0  0  0  0  0  0  0  0  0  0
  157.7650  212.5370  156.7390 C   0  0  0  0  0  2  0  0  0  0  0  0
  158.3470  213.7220  153.0610 C   0  0  0  0  0  1  0  0  0  0  0  0
  159.8350  213.8340  155.1670 C   0  0  0  0  0  1  0  0  0  0  0  0
  159.8470  210.0380  153.0400 C   0  0  0  0  0  2  0  0  0  0  0  0
  160.4090  209.0700  156.7890 C   0  0  2  0  0  3  0  0  0  0  0  0
  162.4620  210.3100  156.8630 O   0  0  0  0  0  1  0  0  0  0  0  0
  159.3880  208.5530  155.7840 C   0  0  0  0  0  2  0  0  0  0  0  0
  161.8500  209.5460  154.6750 C   0  0  2  0  0  3  0  0  0  0  0  0
  158.7340  211.5470  154.5160 C   0  0  2  0  0  0  0  0  0  0  0  0
  159.3360  210.0100  156.2400 C   0  0  2  0  0  3  0  0  0  0  0  0
  159.8640  211.0180  155.2790 N   0  0  1  0  0  0  0  0  0  0  0  0
  161.9380  208.2440  153.8850 C   0  0  0  0  0  2  0  0  0  0  0  0
  160.7430  207.7870  151.9110 C   0  0  0  0  0  2  0  0  0  0  0  0
  161.9060  208.5210  152.4540 N   0  0  0  0  0  0  0  0  0  0  0  0
  162.3580  206.0870  152.3650 O   0  0  0  0  0  1  0  0  0  0  0  0
  162.0810  207.2760  151.6770 C   0  0  1  0  0  0  0  0  0  0  0  0
  162.5090  207.4220  150.3440 O   0  0  0  0  0  0  0  0  0  0  0  0
  160.8510  205.6510  149.7130 C   0  0  0  0  0  2  0  0  0  0  0  0
  161.4520  204.7950  147.4310 C   0  0  0  0  0  2  0  0  0  0  0  0
  161.5020  207.0090  149.4400 C   0  0  2  0  0  3  0  0  0  0  0  0
  161.6760  207.5290  147.6880 S   0  0  0  0  0  0  0  0  0  0  0  0
  162.3740  205.9530  147.0980 C   0  0  0  0  0  2  0  0  0  0  0  0
  161.4970  204.5180  148.9250 C   0  0  0  0  0  2  0  0  0  0  0  0
  1  6  1  0  0  0  0
  1  5  1  6  0  0  0
  3 16  1  0  0  0  0
  3 17  1  1  0  0  0
  4 12  1  1  0  0  0
  7  1  1  0  0  0  0
  8 10  1  6  0  0  0
  8  4  1  0  0  0  0
  8  7  1  0  0  0  0
  9 15  1  6  0  0  0
  9 19  1  0  0  0  0
  9 22  1  0  0  0  0
 11 20  1  0  0  0  0
 11 14  1  0  0  0  0
 11  4  1  0  0  0  0
 12  6  1  0  0  0  0
 13 11  1  0  0  0  0
 15  2  1  0  0  0  0
 16 18  1  6  0  0  0
 19 23  1  6  0  0  0
 19  3  1  0  0  0  0
 20  2  1  6  0  0  0
 20  4  1  0  0  0  0
 20 22  1  0  0  0  0
 21 18  1  6  0  0  0
 21 16  1  0  0  0  0
 22 21  1  0  0  0  0
 24 25  1  0  0  0  0
 25 23  1  0  0  0  0
 27 24  1  0  0  0  0
 27 26  1  0  0  0  0
 27 25  1  0  0  0  0
 28 27  1  0  0  0  0
 30 34  1  0  0  0  0
 31 29  1  0  0  0  0
 31 28  1  0  0  0  0
 32 31  1  0  0  0  0
 33 30  1  0  0  0  0
 33 32  1  0  0  0  0
 34 29  1  0  0  0  0
M  END
>  <MODEL>
2

>  <REMARK>
 VINA RESULT:      -2.9      2.691      8.447
  Name = 
  4 active torsions:
  status: ('A' for Active; 'I' for Inactive)
    1  A    between atoms: C_3  and  N_18
    2  A    between atoms: C_3  and  C_31
    3  A    between atoms: C_14  and  O_16
    4  A    between atoms: O_16  and  C_28
                            x       y       z     vdW  Elec       q    Type
                         _______ _______ _______ _____ _____    ______ ____

>  <TORSDO>
F 4

$$$$
=
 OpenBabel11062409523D

 34 40  0  0  1  0  0  0  0  0999 V2000
  155.3090  212.4350  156.4190 C   0  0  2  0  0  3  0  0  0  0  0  0
  159.0610  211.9380  152.5190 C   0  0  0  0  0  2  0  0  0  0  0  0
  161.7570  208.7490  154.6290 C   0  0  2  0  0  3  0  0  0  0  0  0
  157.7940  212.2320  154.9090 C   0  0  1  0  0  0  0  0  0  0  0  0
  154.4150  213.1020  157.2540 O   0  0  0  0  0  1  0  0  0  0  0  0
  156.6470  212.2670  157.1370 C   0  0  0  0  0  2  0  0  0  0  0  0
  155.4920  213.2340  155.1300 C   0  0  0  0  0  2  0  0  0  0  0  0
  156.4500  212.5110  154.1880 C   0  0  1  0  0  3  0  0  0  0  0  0
  161.0230  210.9290  153.5060 C   0  0  2  0  0  3  0  0  0  0  0  0
  156.5730  213.2290  152.9980 O   0  0  0  0  0  1  0  0  0  0  0  0
  159.0140  213.1680  154.7820 C   0  0  0  0  0  0  0  0  0  0  0  0
  157.6380  211.5140  156.2560 C   0  0  0  0  0  2  0  0  0  0  0  0
  158.8400  214.4510  153.9760 C   0  0  0  0  0  1  0  0  0  0  0  0
  159.9340  213.2730  155.9950 C   0  0  0  0  0  1  0  0  0  0  0  0
  160.3660  211.2560  152.1630 C   0  0  0  0  0  2  0  0  0  0  0  0
  160.2760  208.3640  154.7950 C   0  0  2  0  0  3  0  0  0  0  0  0
  162.2680  209.1830  155.8520 O   0  0  0  0  0  1  0  0  0  0  0  0
  159.4530  208.5650  153.5300 C   0  0  0  0  0  2  0  0  0  0  0  0
  162.0580  209.7860  153.5420 C   0  0  2  0  0  3  0  0  0  0  0  0
  158.9930  211.8110  154.0340 C   0  0  2  0  0  0  0  0  0  0  0  0
  159.3040  209.5390  154.6970 C   0  0  2  0  0  3  0  0  0  0  0  0
  159.9790  210.8570  154.5430 N   0  0  1  0  0  0  0  0  0  0  0  0
  162.3000  209.1190  152.1910 C   0  0  0  0  0  2  0  0  0  0  0  0
  162.8250  207.0380  151.2280 C   0  0  0  0  0  2  0  0  0  0  0  0
  162.0130  207.6920  152.2760 N   0  0  0  0  0  0  0  0  0  0  0  0
  161.0790  208.1390  150.0260 O   0  0  0  0  0  1  0  0  0  0  0  0
  161.3980  207.2080  151.0220 C   0  0  1  0  0  0  0  0  0  0  0  0
  160.6750  206.0020  151.1020 O   0  0  0  0  0  0  0  0  0  0  0  0
  161.5830  204.6600  149.1890 C   0  0  0  0  0  2  0  0  0  0  0  0
  160.7320  202.3090  149.4110 C   0  0  0  0  0  2  0  0  0  0  0  0
  161.4710  204.9060  150.6960 C   0  0  2  0  0  3  0  0  0  0  0  0
  161.5130  203.4400  151.8000 S   0  0  0  0  0  0  0  0  0  0  0  0
  160.2970  202.4660  150.8560 C   0  0  0  0  0  2  0  0  0  0  0  0
  160.5770  203.6350  148.6830 C   0  0  0  0  0  2  0  0  0  0  0  0
  1  6  1  0  0  0  0
  1  5  1  1  0  0  0
  3 16  1  0  0  0  0
  3 17  1  1  0  0  0
  4 12  1  1  0  0  0
  7  1  1  0  0  0  0
  8 10  1  6  0  0  0
  8  4  1  0  0  0  0
  8  7  1  0  0  0  0
  9 15  1  6  0  0  0
  9 19  1  0  0  0  0
  9 22  1  0  0  0  0
 11  4  1  0  0  0  0
 11 14  1  0  0  0  0
 12  6  1  0  0  0  0
 13 11  1  0  0  0  0
 15  2  1  0  0  0  0
 16 18  1  6  0  0  0
 19 23  1  6  0  0  0
 19  3  1  0  0  0  0
 20  2  1  6  0  0  0
 20 22  1  0  0  0  0
 20 11  1  0  0  0  0
 20  4  1  0  0  0  0
 21 18  1  6  0  0  0
 21 16  1  0  0  0  0
 22 21  1  0  0  0  0
 23 25  1  0  0  0  0
 24 25  1  0  0  0  0
 26 27  1  0  0  0  0
 27 28  1  0  0  0  0
 27 24  1  0  0  0  0
 27 25  1  0  0  0  0
 29 31  1  0  0  0  0
 30 33  1  0  0  0  0
 31 28  1  0  0  0  0
 31 32  1  0  0  0  0
 33 32  1  0  0  0  0
 34 29  1  0  0  0  0
 34 30  1  0  0  0  0
M  END
>  <MODEL>
3

>  <REMARK>
 VINA RESULT:      -2.7      2.769      8.554
  Name = 
  4 active torsions:
  status: ('A' for Active; 'I' for Inactive)
    1  A    between atoms: C_3  and  N_18
    2  A    between atoms: C_3  and  C_31
    3  A    between atoms: C_14  and  O_16
    4  A    between atoms: O_16  and  C_28
                            x       y       z     vdW  Elec       q    Type
                         _______ _______ _______ _____ _____    ______ ____

>  <TORSDO>
F 4

$$$$
=
 OpenBabel11062409523D

 34 40  0  0  1  0  0  0  0  0999 V2000
  161.4990  202.3280  147.3690 C   0  0  2  0  0  3  0  0  0  0  0  0
  162.4790  207.3740  149.1340 C   0  0  0  0  0  2  0  0  0  0  0  0
  161.0930  206.7810  153.5640 C   0  0  2  0  0  3  0  0  0  0  0  0
  161.3350  204.9610  148.6090 C   0  0  1  0  0  0  0  0  0  0  0  0
  161.0680  201.3480  146.4770 O   0  0  0  0  0  1  0  0  0  0  0  0
  160.3650  202.6660  148.3360 C   0  0  0  0  0  2  0  0  0  0  0  0
  161.9230  203.5710  146.5910 C   0  0  0  0  0  2  0  0  0  0  0  0
  162.4200  204.6530  147.5450 C   0  0  1  0  0  3  0  0  0  0  0  0
  161.2300  207.6980  151.1770 C   0  0  2  0  0  3  0  0  0  0  0  0
  162.8470  205.7650  146.8190 O   0  0  0  0  0  1  0  0  0  0  0  0
  160.3310  206.1220  148.4580 C   0  0  0  0  0  0  0  0  0  0  0  0
  160.8170  203.7180  149.3450 C   0  0  0  0  0  2  0  0  0  0  0  0
  160.3770  206.9330  147.1670 C   0  0  0  0  0  1  0  0  0  0  0  0
  158.9440  205.9190  149.0590 C   0  0  0  0  0  1  0  0  0  0  0  0
  162.3630  208.2890  150.3360 C   0  0  0  0  0  2  0  0  0  0  0  0
  161.9450  205.5770  153.1250 C   0  0  2  0  0  3  0  0  0  0  0  0
  159.7570  206.3950  153.6750 O   0  0  0  0  0  1  0  0  0  0  0  0
  163.1720  205.9690  152.3130 C   0  0  0  0  0  2  0  0  0  0  0  0
  161.2000  208.0310  152.6830 C   0  0  2  0  0  3  0  0  0  0  0  0
  161.5140  206.2410  149.4530 C   0  0  2  0  0  0  0  0  0  0  0  0
  161.9680  205.3380  151.6160 C   0  0  2  0  0  3  0  0  0  0  0  0
  161.0900  206.2670  150.8530 N   0  0  1  0  0  0  0  0  0  0  0  0
  162.3370  208.9390  153.1440 C   0  0  0  0  0  2  0  0  0  0  0  0
  162.6550  210.8720  154.4460 C   0  0  0  0  0  2  0  0  0  0  0  0
  161.8440  210.2940  153.3530 N   0  0  0  0  0  0  0  0  0  0  0  0
  161.2130  209.3120  155.5390 O   0  0  0  0  0  1  0  0  0  0  0  0
  161.2950  210.4450  154.7180 C   0  0  1  0  0  0  0  0  0  0  0  0
  160.4040  211.5160  154.9230 O   0  0  0  0  0  0  0  0  0  0  0  0
  158.6470  211.5900  153.1370 C   0  0  0  0  0  2  0  0  0  0  0  0
  156.6700  212.8460  154.0390 C   0  0  0  0  0  2  0  0  0  0  0  0
  159.0900  211.1630  154.5390 C   0  0  2  0  0  3  0  0  0  0  0  0
  157.8110  211.1150  155.8540 S   0  0  0  0  0  0  0  0  0  0  0  0
  157.1100  212.7570  155.4880 C   0  0  0  0  0  2  0  0  0  0  0  0
  157.8900  212.9120  153.1350 C   0  0  0  0  0  2  0  0  0  0  0  0
  1  5  1  6  0  0  0
  1  6  1  0  0  0  0
  2 15  1  0  0  0  0
  3 17  1  6  0  0  0
  4 12  1  1  0  0  0
  4 20  1  0  0  0  0
  6 12  1  0  0  0  0
  7  1  1  0  0  0  0
  7  8  1  0  0  0  0
  8 10  1  6  0  0  0
  8  4  1  0  0  0  0
  9 15  1  1  0  0  0
  9 19  1  0  0  0  0
 11  4  1  0  0  0  0
 11 14  1  0  0  0  0
 11 20  1  0  0  0  0
 13 11  1  0  0  0  0
 16 18  1  6  0  0  0
 16  3  1  0  0  0  0
 19 23  1  1  0  0  0
 19  3  1  0  0  0  0
 20  2  1  6  0  0  0
 20 22  1  0  0  0  0
 21 18  1  6  0  0  0
 21 16  1  0  0  0  0
 22  9  1  0  0  0  0
 22 21  1  0  0  0  0
 23 25  1  0  0  0  0
 24 27  1  0  0  0  0
 25 24  1  0  0  0  0
 25 27  1  0  0  0  0
 27 28  1  0  0  0  0
 27 26  1  0  0  0  0
 29 31  1  0  0  0  0
 30 33  1  0  0  0  0
 31 28  1  0  0  0  0
 31 32  1  0  0  0  0
 33 32  1  0  0  0  0
 34 29  1  0  0  0  0
 34 30  1  0  0  0  0
M  END
>  <MODEL>
4

>  <REMARK>
 VINA RESULT:      -1.9      1.886      3.602
  Name = 
  4 active torsions:
  status: ('A' for Active; 'I' for Inactive)
    1  A    between atoms: C_3  and  N_18
    2  A    between atoms: C_3  and  C_31
    3  A    between atoms: C_14  and  O_16
    4  A    between atoms: O_16  and  C_28
                            x       y       z     vdW  Elec       q    Type
                         _______ _______ _______ _____ _____    ______ ____

>  <TORSDO>
F 4

$$$$
=
 OpenBabel11062409523D

 34 40  0  0  1  0  0  0  0  0999 V2000
  161.5860  202.1110  147.6490 C   0  0  2  0  0  3  0  0  0  0  0  0
  162.3510  207.3090  149.0370 C   0  0  0  0  0  2  0  0  0  0  0  0
  161.2160  206.9350  153.5610 C   0  0  2  0  0  3  0  0  0  0  0  0
  161.3270  204.8070  148.7260 C   0  0  1  0  0  0  0  0  0  0  0  0
  161.1710  201.0510  146.8440 O   0  0  0  0  0  1  0  0  0  0  0  0
  160.4820  202.4490  148.6500 C   0  0  0  0  0  2  0  0  0  0  0  0
  161.8980  203.3220  146.7720 C   0  0  0  0  0  2  0  0  0  0  0  0
  162.3760  204.4900  147.6290 C   0  0  1  0  0  3  0  0  0  0  0  0
  161.1840  207.6980  151.1180 C   0  0  2  0  0  3  0  0  0  0  0  0
  162.7010  205.5740  146.8120 O   0  0  0  0  0  1  0  0  0  0  0  0
  160.2500  205.8980  148.5540 C   0  0  0  0  0  0  0  0  0  0  0  0
  160.9190  203.5890  149.5650 C   0  0  0  0  0  2  0  0  0  0  0  0
  160.1860  206.6230  147.2130 C   0  0  0  0  0  1  0  0  0  0  0  0
  158.9070  205.6580  149.2370 C   0  0  0  0  0  1  0  0  0  0  0  0
  162.2380  208.2950  150.1830 C   0  0  0  0  0  2  0  0  0  0  0  0
  162.1150  205.7550  153.1560 C   0  0  2  0  0  3  0  0  0  0  0  0
  159.9120  206.4830  153.7650 O   0  0  0  0  0  1  0  0  0  0  0  0
  163.2770  206.1590  152.2580 C   0  0  0  0  0  2  0  0  0  0  0  0
  161.2070  208.1280  152.5980 C   0  0  2  0  0  3  0  0  0  0  0  0
  161.4700  206.1480  149.4760 C   0  0  2  0  0  0  0  0  0  0  0  0
  162.0800  205.4180  151.6660 C   0  0  2  0  0  3  0  0  0  0  0  0
  161.1130  206.2440  150.8920 N   0  0  1  0  0  0  0  0  0  0  0  0
  162.3100  209.1260  152.9420 C   0  0  0  0  0  2  0  0  0  0  0  0
  160.3830  209.9010  154.0460 C   0  0  0  0  0  2  0  0  0  0  0  0
  161.8530  210.0390  153.9830 N   0  0  0  0  0  0  0  0  0  0  0  0
  160.7780  211.1150  152.0270 O   0  0  0  0  0  1  0  0  0  0  0  0
  160.9620  211.0730  153.4160 C   0  0  1  0  0  0  0  0  0  0  0  0
  160.8030  212.2500  154.1720 O   0  0  0  0  0  0  0  0  0  0  0  0
  158.3140  212.5490  154.1770 C   0  0  0  0  0  2  0  0  0  0  0  0
  157.7520  214.3940  155.7830 C   0  0  0  0  0  2  0  0  0  0  0  0
  159.6060  212.2110  154.9250 C   0  0  2  0  0  3  0  0  0  0  0  0
  159.7090  212.6820  156.6970 S   0  0  0  0  0  0  0  0  0  0  0  0
  159.1060  214.3860  156.4670 C   0  0  0  0  0  2  0  0  0  0  0  0
  157.9150  214.0110  154.3210 C   0  0  0  0  0  2  0  0  0  0  0  0
  1  5  1  6  0  0  0
  1  6  1  0  0  0  0
  2 15  1  0  0  0  0
  3 17  1  6  0  0  0
  4 20  1  0  0  0  0
  4 12  1  1  0  0  0
  6 12  1  0  0  0  0
  7  8  1  0  0  0  0
  7  1  1  0  0  0  0
  8 10  1  6  0  0  0
  8  4  1  0  0  0  0
  9 15  1  6  0  0  0
  9 19  1  0  0  0  0
 11  4  1  0  0  0  0
 11 14  1  0  0  0  0
 11 20  1  0  0  0  0
 13 11  1  0  0  0  0
 16 18  1  6  0  0  0
 16  3  1  0  0  0  0
 19 23  1  6  0  0  0
 19  3  1  0  0  0  0
 20  2  1  6  0  0  0
 20 22  1  0  0  0  0
 21 18  1  6  0  0  0
 21 16  1  0  0  0  0
 22  9  1  0  0  0  0
 22 21  1  0  0  0  0
 23 25  1  0  0  0  0
 25 24  1  0  0  0  0
 26 27  1  0  0  0  0
 27 25  1  0  0  0  0
 27 24  1  0  0  0  0
 27 28  1  0  0  0  0
 28 31  1  0  0  0  0
 29 34  1  0  0  0  0
 29 31  1  0  0  0  0
 30 33  1  0  0  0  0
 31 32  1  0  0  0  0
 33 32  1  0  0  0  0
 34 30  1  0  0  0  0
M  END
>  <MODEL>
5

>  <REMARK>
 VINA RESULT:      -0.3      2.128      3.761
  Name = 
  4 active torsions:
  status: ('A' for Active; 'I' for Inactive)
    1  A    between atoms: C_3  and  N_18
    2  A    between atoms: C_3  and  C_31
    3  A    between atoms: C_14  and  O_16
    4  A    between atoms: O_16  and  C_28
                            x       y       z     vdW  Elec       q    Type
                         _______ _______ _______ _____ _____    ______ ____

>  <TORSDO>
F 4

$$$$
