=
 OpenBabel11062410113D

 43 47  0  0  1  0  0  0  0  0999 V2000
  160.5130  210.7100  156.0480 C   0  0  0  0  0  0  0  0  0  0  0  0
  160.9580  206.9090  152.7010 N   0  0  2  0  0  0  0  0  0  0  0  0
  161.2060  207.9450  150.1490 C   0  0  2  0  0  3  0  0  0  0  0  0
  160.6220  208.5320  154.9910 C   0  0  0  0  0  0  0  0  0  0  0  0
  161.0770  211.2930  154.9120 C   0  0  0  0  0  3  0  0  0  0  0  0
  160.1900  211.4800  157.1140 F   0  0  0  0  0  0  0  0  0  0  0  0
  161.1540  209.1200  153.8230 C   0  0  0  0  0  0  0  0  0  0  0  0
  160.2880  209.3320  156.0880 C   0  0  0  0  0  3  0  0  0  0  0  0
  161.4050  210.5010  153.8080 C   0  0  0  0  0  3  0  0  0  0  0  0
  161.2420  208.9360  151.3200 C   0  0  0  0  0  2  0  0  0  0  0  0
  161.5750  208.2500  152.6540 C   0  0  2  0  0  3  0  0  0  0  0  0
  161.1980  206.3260  154.0190 C   0  0  0  0  0  2  0  0  0  0  0  0
  161.5750  206.0010  151.7130 C   0  0  2  0  0  3  0  0  0  0  0  0
  162.0570  206.7110  150.4370 C   0  0  0  0  0  2  0  0  0  0  0  0
  160.3610  207.0590  155.0580 C   0  0  0  0  0  2  0  0  0  0  0  0
  161.5960  208.5950  148.8210 C   0  0  2  0  0  3  0  0  0  0  0  0
  162.5110  207.6980  147.9930 C   0  0  0  0  0  1  0  0  0  0  0  0
  162.2390  209.8800  149.0680 N   0  0  0  0  0  2  0  0  0  0  0  0
  161.9050  211.0680  148.3480 C   0  0  0  0  0  0  0  0  0  0  0  0
  160.9890  211.0580  147.4830 O   0  0  0  0  0  0  0  0  0  0  0  0
  162.6710  212.3360  148.6040 C   0  0  0  0  0  2  0  0  0  0  0  0
  162.0500  213.5320  148.0180 N   0  0  0  0  0  0  0  0  0  0  0  0
  160.0780  213.9980  149.4450 C   0  0  0  0  0  0  0  0  0  0  0  0
  160.6630  213.4830  148.2460 N   0  0  0  0  0  2  0  0  0  0  0  0
  160.8170  214.4530  150.3600 O   0  0  0  0  0  0  0  0  0  0  0  0
  158.6150  213.9910  149.6130 C   0  0  0  0  0  0  0  0  0  0  0  0
  156.6520  214.2350  151.0250 C   0  0  0  0  0  3  0  0  0  0  0  0
  156.3890  213.7280  148.6730 C   0  0  0  0  0  3  0  0  0  0  0  0
  155.8260  213.9790  149.9270 C   0  0  0  0  0  3  0  0  0  0  0  0
  157.7780  213.7340  148.5160 C   0  0  0  0  0  3  0  0  0  0  0  0
  158.0410  214.2410  150.8680 C   0  0  0  0  0  3  0  0  0  0  0  0
  162.2730  213.5290  146.5750 C   0  0  0  0  0  2  0  0  0  0  0  0
  160.4230  213.0800  144.6020 S   0  0  0  0  0  1  0  0  0  0  0  0
  161.1130  214.1960  145.8580 C   0  0  0  0  0  2  0  0  0  0  0  0
  160.6200  204.9650  151.3390 N   0  0  0  0  0  2  0  0  0  0  0  0
  161.4110  203.6880  147.9100 C   0  0  0  0  0  3  0  0  0  0  0  0
  161.1280  202.3210  148.0630 C   0  0  0  0  0  0  0  0  0  0  0  0
  160.5130  202.7260  150.3750 C   0  0  0  0  0  3  0  0  0  0  0  0
  161.2460  204.5660  148.9840 C   0  0  0  0  0  3  0  0  0  0  0  0
  160.8010  204.0870  150.2250 C   0  0  0  0  0  0  0  0  0  0  0  0
  160.6780  201.8480  149.3010 C   0  0  0  0  0  3  0  0  0  0  0  0
  161.2860  201.4170  147.0090 O   0  0  0  0  0  0  0  0  0  0  0  0
  160.5500  201.5140  145.7980 C   0  0  0  0  0  1  0  0  0  0  0  0
  1  8  1  0  0  0  0
  1  6  1  0  0  0  0
  2 12  1  1  0  0  0
  3 16  1  6  0  0  0
  3 14  1  0  0  0  0
  3 10  1  0  0  0  0
  4 15  1  0  0  0  0
  4  8  2  0  0  0  0
  5  1  2  0  0  0  0
  7  4  1  0  0  0  0
  9  7  2  0  0  0  0
  9  5  1  0  0  0  0
 11 10  1  6  0  0  0
 11  2  1  0  0  0  0
 11  7  1  0  0  0  0
 12 15  1  0  0  0  0
 13 35  1  6  0  0  0
 13  2  1  0  0  0  0
 14 13  1  0  0  0  0
 16 17  1  1  0  0  0
 16 18  1  0  0  0  0
 19 21  1  0  0  0  0
 19 18  1  0  0  0  0
 20 19  2  0  0  0  0
 22 24  1  0  0  0  0
 22 21  1  0  0  0  0
 23 26  1  0  0  0  0
 23 25  2  0  0  0  0
 24 23  1  0  0  0  0
 26 31  1  0  0  0  0
 28 29  2  0  0  0  0
 29 27  1  0  0  0  0
 30 28  1  0  0  0  0
 30 26  2  0  0  0  0
 31 27  2  0  0  0  0
 32 22  1  0  0  0  0
 33 34  1  0  0  0  0
 34 32  1  0  0  0  0
 36 37  2  0  0  0  0
 36 39  1  0  0  0  0
 37 41  1  0  0  0  0
 39 40  2  0  0  0  0
 40 38  1  0  0  0  0
 40 35  1  0  0  0  0
 41 38  2  0  0  0  0
 42 37  1  0  0  0  0
 43 42  1  0  0  0  0
M  END
>  <MODEL>
1

>  <REMARK>
 VINA RESULT:      -8.8      0.000      0.000
  Name = 
  11 active torsions:
  status: ('A' for Active; 'I' for Inactive)
    1  A    between atoms: N_1  and  C_34
    2  A    between atoms: N_1  and  C_35
    3  A    between atoms: C_2  and  N_6
    4  A    between atoms: C_2  and  C_13
    5  A    between atoms: C_3  and  N_4
    6  A    between atoms: C_3  and  C_12
    7  A    between atoms: N_4  and  C_15
    8  A    between atoms: N_4  and  N_22
    9  A    between atoms: C_11  and  C_14
   10  A    between atoms: C_15  and  C_42
   11  A    between atoms: C_19  and  O_25
                            x       y       z     vdW  Elec       q    Type
                         _______ _______ _______ _____ _____    ______ ____

>  <TORSDO>
F 11

$$$$
=
 OpenBabel11062410113D

 43 47  0  0  1  0  0  0  0  0999 V2000
  160.8270  207.8550  155.2860 C   0  0  0  0  0  0  0  0  0  0  0  0
  161.4270  207.9550  150.2380 N   0  0  2  0  0  0  0  0  0  0  0  0
  161.5270  210.5770  149.3680 C   0  0  2  0  0  3  0  0  0  0  0  0
  161.0510  207.2500  152.9510 C   0  0  0  0  0  0  0  0  0  0  0  0
  161.3160  209.1330  155.0050 C   0  0  0  0  0  3  0  0  0  0  0  0
  160.4850  207.5260  156.5540 F   0  0  0  0  0  0  0  0  0  0  0  0
  161.5070  208.5520  152.6520 C   0  0  0  0  0  0  0  0  0  0  0  0
  160.6970  206.9160  154.2610 C   0  0  0  0  0  3  0  0  0  0  0  0
  161.6630  209.4770  153.6960 C   0  0  0  0  0  3  0  0  0  0  0  0
  161.5310  210.3360  150.8840 C   0  0  0  0  0  2  0  0  0  0  0  0
  161.9500  208.9020  151.2440 C   0  0  2  0  0  3  0  0  0  0  0  0
  161.7450  206.5940  150.6640 C   0  0  0  0  0  2  0  0  0  0  0  0
  162.0740  208.1560  148.9260 C   0  0  2  0  0  3  0  0  0  0  0  0
  162.4670  209.6160  148.6480 C   0  0  0  0  0  2  0  0  0  0  0  0
  160.8920  206.2260  151.8700 C   0  0  0  0  0  2  0  0  0  0  0  0
  161.8310  212.0320  149.0080 C   0  0  2  0  0  3  0  0  0  0  0  0
  160.7060  212.9710  149.4300 C   0  0  0  0  0  1  0  0  0  0  0  0
  162.0760  212.1480  147.5760 N   0  0  0  0  0  2  0  0  0  0  0  0
  162.6460  213.3120  146.9760 C   0  0  0  0  0  0  0  0  0  0  0  0
  163.0100  214.2870  147.6850 O   0  0  0  0  0  0  0  0  0  0  0  0
  162.7910  213.3870  145.4810 C   0  0  0  0  0  2  0  0  0  0  0  0
  161.5440  213.1190  144.7510 N   0  0  0  0  0  0  0  0  0  0  0  0
  161.0000  211.9760  142.6200 C   0  0  0  0  0  0  0  0  0  0  0  0
  161.8560  212.7970  143.4190 N   0  0  0  0  0  2  0  0  0  0  0  0
  159.9640  211.4670  143.1290 O   0  0  0  0  0  0  0  0  0  0  0  0
  161.3310  211.7210  141.2080 C   0  0  0  0  0  0  0  0  0  0  0  0
  160.7020  210.8990  139.0080 C   0  0  0  0  0  3  0  0  0  0  0  0
  162.9120  211.8210  139.3640 C   0  0  0  0  0  3  0  0  0  0  0  0
  161.9650  211.2410  138.5160 C   0  0  0  0  0  3  0  0  0  0  0  0
  162.5960  212.0600  140.7050 C   0  0  0  0  0  3  0  0  0  0  0  0
  160.3870  211.1390  140.3490 C   0  0  0  0  0  3  0  0  0  0  0  0
  160.7220  214.3260  144.7460 C   0  0  0  0  0  2  0  0  0  0  0  0
  157.9860  214.4220  144.5930 S   0  0  0  0  0  1  0  0  0  0  0  0
  159.4760  214.1220  145.5880 C   0  0  0  0  0  2  0  0  0  0  0  0
  161.1800  207.7020  147.8670 N   0  0  0  0  0  2  0  0  0  0  0  0
  161.6320  204.0070  147.4710 C   0  0  0  0  0  3  0  0  0  0  0  0
  161.3470  203.8490  146.1060 C   0  0  0  0  0  0  0  0  0  0  0  0
  160.9600  206.2380  145.9290 C   0  0  0  0  0  3  0  0  0  0  0  0
  161.5790  205.2730  148.0600 C   0  0  0  0  0  3  0  0  0  0  0  0
  161.2370  206.3950  147.2910 C   0  0  0  0  0  0  0  0  0  0  0  0
  161.0130  204.9710  145.3400 C   0  0  0  0  0  3  0  0  0  0  0  0
  161.3880  202.5960  145.4880 O   0  0  0  0  0  0  0  0  0  0  0  0
  160.6490  201.4800  145.9660 C   0  0  0  0  0  1  0  0  0  0  0  0
  1  6  1  0  0  0  0
  2 12  1  1  0  0  0
  2 11  1  0  0  0  0
  3 16  1  1  0  0  0
  3 10  1  0  0  0  0
  4  8  1  0  0  0  0
  5  1  1  0  0  0  0
  7  4  2  0  0  0  0
  7  9  1  0  0  0  0
  8  1  2  0  0  0  0
  9  5  2  0  0  0  0
 11 10  1  6  0  0  0
 11  7  1  0  0  0  0
 12 15  1  0  0  0  0
 13 35  1  6  0  0  0
 13  2  1  0  0  0  0
 14 13  1  0  0  0  0
 14  3  1  0  0  0  0
 15  4  1  0  0  0  0
 16 17  1  6  0  0  0
 18 16  1  0  0  0  0
 19 18  1  0  0  0  0
 19 20  2  0  0  0  0
 21 19  1  0  0  0  0
 22 21  1  0  0  0  0
 23 25  2  0  0  0  0
 23 24  1  0  0  0  0
 24 22  1  0  0  0  0
 26 23  1  0  0  0  0
 27 31  1  0  0  0  0
 28 30  2  0  0  0  0
 29 27  2  0  0  0  0
 29 28  1  0  0  0  0
 30 26  1  0  0  0  0
 31 26  2  0  0  0  0
 32 22  1  0  0  0  0
 32 34  1  0  0  0  0
 33 34  1  0  0  0  0
 36 39  1  0  0  0  0
 37 36  2  0  0  0  0
 38 40  1  0  0  0  0
 40 35  1  0  0  0  0
 40 39  2  0  0  0  0
 41 38  2  0  0  0  0
 41 37  1  0  0  0  0
 42 43  1  0  0  0  0
 42 37  1  0  0  0  0
M  END
>  <MODEL>
2

>  <REMARK>
 VINA RESULT:      -8.7      3.208      5.384
  Name = 
  11 active torsions:
  status: ('A' for Active; 'I' for Inactive)
    1  A    between atoms: N_1  and  C_34
    2  A    between atoms: N_1  and  C_35
    3  A    between atoms: C_2  and  N_6
    4  A    between atoms: C_2  and  C_13
    5  A    between atoms: C_3  and  N_4
    6  A    between atoms: C_3  and  C_12
    7  A    between atoms: N_4  and  C_15
    8  A    between atoms: N_4  and  N_22
    9  A    between atoms: C_11  and  C_14
   10  A    between atoms: C_15  and  C_42
   11  A    between atoms: C_19  and  O_25
                            x       y       z     vdW  Elec       q    Type
                         _______ _______ _______ _____ _____    ______ ____

>  <TORSDO>
F 11

$$$$
=
 OpenBabel11062410113D

 43 47  0  0  1  0  0  0  0  0999 V2000
  161.2900  200.6840  148.1560 C   0  0  0  0  0  0  0  0  0  0  0  0
  161.1760  204.8210  151.1090 N   0  0  2  0  0  0  0  0  0  0  0  0
  161.6760  207.0680  149.5760 C   0  0  2  0  0  3  0  0  0  0  0  0
  161.1600  202.2040  150.0380 C   0  0  0  0  0  0  0  0  0  0  0  0
  161.0900  201.7500  147.2770 C   0  0  0  0  0  3  0  0  0  0  0  0
  161.4440  199.4280  147.6730 F   0  0  0  0  0  0  0  0  0  0  0  0
  161.0000  203.2930  149.1540 C   0  0  0  0  0  0  0  0  0  0  0  0
  161.3220  200.9110  149.5340 C   0  0  0  0  0  3  0  0  0  0  0  0
  160.9370  203.0470  147.7730 C   0  0  0  0  0  3  0  0  0  0  0  0
  161.4880  205.7360  148.8370 C   0  0  0  0  0  2  0  0  0  0  0  0
  160.7630  204.6900  149.6960 C   0  0  2  0  0  3  0  0  0  0  0  0
  160.5570  203.7470  151.8820 C   0  0  0  0  0  2  0  0  0  0  0  0
  160.7020  206.0940  151.6880 C   0  0  2  0  0  3  0  0  0  0  0  0
  160.6320  207.2480  150.6740 C   0  0  0  0  0  2  0  0  0  0  0  0
  161.2090  202.4200  151.5190 C   0  0  0  0  0  2  0  0  0  0  0  0
  161.6990  208.2660  148.6250 C   0  0  2  0  0  3  0  0  0  0  0  0
  162.7680  208.1160  147.5470 C   0  0  0  0  0  1  0  0  0  0  0  0
  161.9110  209.4940  149.3800 N   0  0  0  0  0  2  0  0  0  0  0  0
  161.7000  210.7940  148.8260 C   0  0  0  0  0  0  0  0  0  0  0  0
  161.2690  210.9280  147.6500 O   0  0  0  0  0  0  0  0  0  0  0  0
  162.0200  212.0140  149.6420 C   0  0  0  0  0  2  0  0  0  0  0  0
  161.6770  213.2790  148.9770 N   0  0  0  0  0  0  0  0  0  0  0  0
  159.5320  213.9270  150.0370 C   0  0  0  0  0  0  0  0  0  0  0  0
  160.2770  213.4050  148.9330 N   0  0  0  0  0  2  0  0  0  0  0  0
  160.1230  214.2260  151.1090 O   0  0  0  0  0  0  0  0  0  0  0  0
  158.0740  214.1060  149.9220 C   0  0  0  0  0  0  0  0  0  0  0  0
  155.8950  214.3940  150.9610 C   0  0  0  0  0  3  0  0  0  0  0  0
  156.0820  214.3390  148.5480 C   0  0  0  0  0  3  0  0  0  0  0  0
  155.2980  214.4530  149.6990 C   0  0  0  0  0  3  0  0  0  0  0  0
  157.4650  214.1670  148.6590 C   0  0  0  0  0  3  0  0  0  0  0  0
  157.2780  214.2210  151.0720 C   0  0  0  0  0  3  0  0  0  0  0  0
  162.1740  213.2490  147.6050 C   0  0  0  0  0  2  0  0  0  0  0  0
  161.2080  213.5560  145.0570 S   0  0  0  0  0  1  0  0  0  0  0  0
  161.3920  214.2200  146.7380 C   0  0  0  0  0  2  0  0  0  0  0  0
  161.5790  206.4880  152.7840 N   0  0  0  0  0  2  0  0  0  0  0  0
  160.9510  209.6030  154.7640 C   0  0  0  0  0  3  0  0  0  0  0  0
  160.3990  209.0650  155.9380 C   0  0  0  0  0  0  0  0  0  0  0  0
  160.6390  206.8370  155.0080 C   0  0  0  0  0  3  0  0  0  0  0  0
  161.3430  208.7600  153.7200 C   0  0  0  0  0  3  0  0  0  0  0  0
  161.1830  207.3720  153.8360 C   0  0  0  0  0  0  0  0  0  0  0  0
  160.2470  207.6790  156.0520 C   0  0  0  0  0  3  0  0  0  0  0  0
  159.9940  209.8800  156.9990 O   0  0  0  0  0  0  0  0  0  0  0  0
  159.3430  211.1280  156.8020 C   0  0  0  0  0  1  0  0  0  0  0  0
  1  8  1  0  0  0  0
  2 13  1  0  0  0  0
  2 12  1  1  0  0  0
  3 16  1  6  0  0  0
  3 14  1  0  0  0  0
  4 15  1  0  0  0  0
  5  9  1  0  0  0  0
  5  1  2  0  0  0  0
  6  1  1  0  0  0  0
  7 11  1  0  0  0  0
  7  4  1  0  0  0  0
  8  4  2  0  0  0  0
  9  7  2  0  0  0  0
 10  3  1  0  0  0  0
 11 10  1  6  0  0  0
 11  2  1  0  0  0  0
 13 35  1  1  0  0  0
 14 13  1  0  0  0  0
 15 12  1  0  0  0  0
 16 17  1  6  0  0  0
 16 18  1  0  0  0  0
 19 18  1  0  0  0  0
 19 21  1  0  0  0  0
 20 19  2  0  0  0  0
 22 21  1  0  0  0  0
 23 25  2  0  0  0  0
 24 22  1  0  0  0  0
 24 23  1  0  0  0  0
 26 23  1  0  0  0  0
 26 31  1  0  0  0  0
 27 31  2  0  0  0  0
 28 30  1  0  0  0  0
 28 29  2  0  0  0  0
 29 27  1  0  0  0  0
 30 26  2  0  0  0  0
 32 22  1  0  0  0  0
 33 34  1  0  0  0  0
 34 32  1  0  0  0  0
 35 40  1  0  0  0  0
 36 37  1  0  0  0  0
 37 41  2  0  0  0  0
 37 42  1  0  0  0  0
 38 41  1  0  0  0  0
 39 40  1  0  0  0  0
 39 36  2  0  0  0  0
 40 38  2  0  0  0  0
 43 42  1  0  0  0  0
M  END
>  <MODEL>
3

>  <REMARK>
 VINA RESULT:      -7.6      2.912      6.381
  Name = 
  11 active torsions:
  status: ('A' for Active; 'I' for Inactive)
    1  A    between atoms: N_1  and  C_34
    2  A    between atoms: N_1  and  C_35
    3  A    between atoms: C_2  and  N_6
    4  A    between atoms: C_2  and  C_13
    5  A    between atoms: C_3  and  N_4
    6  A    between atoms: C_3  and  C_12
    7  A    between atoms: N_4  and  C_15
    8  A    between atoms: N_4  and  N_22
    9  A    between atoms: C_11  and  C_14
   10  A    between atoms: C_15  and  C_42
   11  A    between atoms: C_19  and  O_25
                            x       y       z     vdW  Elec       q    Type
                         _______ _______ _______ _____ _____    ______ ____

>  <TORSDO>
F 11

$$$$
=
 OpenBabel11062410113D

 43 47  0  0  1  0  0  0  0  0999 V2000
  161.7240  204.1350  146.0840 C   0  0  0  0  0  0  0  0  0  0  0  0
  161.2740  206.5220  150.5500 N   0  0  2  0  0  0  0  0  0  0  0  0
  161.9690  209.1820  150.2540 C   0  0  2  0  0  3  0  0  0  0  0  0
  161.3740  204.6630  148.4220 C   0  0  0  0  0  0  0  0  0  0  0  0
  161.6400  205.4910  145.7620 C   0  0  0  0  0  3  0  0  0  0  0  0
  161.9300  203.2200  145.1070 F   0  0  0  0  0  0  0  0  0  0  0  0
  161.3290  206.0390  148.1110 C   0  0  0  0  0  0  0  0  0  0  0  0
  161.5890  203.7220  147.4110 C   0  0  0  0  0  3  0  0  0  0  0  0
  161.4340  206.4380  146.7690 C   0  0  0  0  0  3  0  0  0  0  0  0
  161.8660  208.3330  148.9800 C   0  0  0  0  0  2  0  0  0  0  0  0
  161.0360  207.0590  149.1940 C   0  0  2  0  0  3  0  0  0  0  0  0
  160.5590  205.2550  150.6870 C   0  0  0  0  0  2  0  0  0  0  0  0
  160.7390  207.4290  151.5850 C   0  0  2  0  0  3  0  0  0  0  0  0
  160.8000  208.9150  151.1970 C   0  0  0  0  0  2  0  0  0  0  0  0
  161.2430  204.1920  149.8380 C   0  0  0  0  0  2  0  0  0  0  0  0
  162.1150  210.6740  149.9520 C   0  0  2  0  0  3  0  0  0  0  0  0
  161.1860  211.5230  150.8130 C   0  0  0  0  0  1  0  0  0  0  0  0
  161.8590  210.9200  148.5390 N   0  0  0  0  0  2  0  0  0  0  0  0
  162.0480  212.1970  147.9250 C   0  0  0  0  0  0  0  0  0  0  0  0
  162.4970  213.1680  148.5900 O   0  0  0  0  0  0  0  0  0  0  0  0
  161.6840  212.3920  146.4800 C   0  0  0  0  0  2  0  0  0  0  0  0
  160.2360  212.4740  146.2400 N   0  0  0  0  0  0  0  0  0  0  0  0
  160.8300  212.9690  143.8850 C   0  0  0  0  0  0  0  0  0  0  0  0
  159.9950  212.3400  144.8610 N   0  0  0  0  0  2  0  0  0  0  0  0
  161.7730  213.7190  144.2540 O   0  0  0  0  0  0  0  0  0  0  0  0
  160.5830  212.7440  142.4500 C   0  0  0  0  0  0  0  0  0  0  0  0
  160.1790  213.6170  140.2170 C   0  0  0  0  0  3  0  0  0  0  0  0
  160.2850  211.2260  140.5760 C   0  0  0  0  0  3  0  0  0  0  0  0
  160.1160  212.3140  139.7170 C   0  0  0  0  0  3  0  0  0  0  0  0
  160.5170  211.4400  141.9380 C   0  0  0  0  0  3  0  0  0  0  0  0
  160.4120  213.8310  141.5790 C   0  0  0  0  0  3  0  0  0  0  0  0
  159.7540  213.7860  146.6600 C   0  0  0  0  0  2  0  0  0  0  0  0
  158.9750  213.8800  149.2870 S   0  0  0  0  0  1  0  0  0  0  0  0
  158.5280  213.6420  147.5430 C   0  0  0  0  0  2  0  0  0  0  0  0
  161.4780  207.2390  152.8280 N   0  0  0  0  0  2  0  0  0  0  0  0
  160.6390  208.4750  156.2610 C   0  0  0  0  0  3  0  0  0  0  0  0
  161.0730  209.8070  156.1780 C   0  0  0  0  0  0  0  0  0  0  0  0
  161.7640  209.4190  153.8850 C   0  0  0  0  0  3  0  0  0  0  0  0
  160.7680  207.6220  155.1620 C   0  0  0  0  0  3  0  0  0  0  0  0
  161.3380  208.0900  153.9690 C   0  0  0  0  0  0  0  0  0  0  0  0
  161.6350  210.2720  154.9840 C   0  0  0  0  0  3  0  0  0  0  0  0
  160.9600  210.6840  157.2610 O   0  0  0  0  0  0  0  0  0  0  0  0
  160.9800  212.0970  157.1090 C   0  0  0  0  0  1  0  0  0  0  0  0
  1  8  1  0  0  0  0
  2 12  1  6  0  0  0
  2 13  1  0  0  0  0
  3 16  1  6  0  0  0
  3 14  1  0  0  0  0
  4 15  1  0  0  0  0
  5  1  2  0  0  0  0
  5  9  1  0  0  0  0
  6  1  1  0  0  0  0
  7  4  1  0  0  0  0
  7 11  1  0  0  0  0
  8  4  2  0  0  0  0
  9  7  2  0  0  0  0
 10  3  1  0  0  0  0
 11 10  1  6  0  0  0
 11  2  1  0  0  0  0
 13 35  1  1  0  0  0
 14 13  1  0  0  0  0
 15 12  1  0  0  0  0
 16 17  1  1  0  0  0
 18 16  1  0  0  0  0
 19 18  1  0  0  0  0
 19 20  2  0  0  0  0
 21 19  1  0  0  0  0
 22 21  1  0  0  0  0
 22 32  1  0  0  0  0
 23 25  2  0  0  0  0
 23 24  1  0  0  0  0
 24 22  1  0  0  0  0
 26 23  1  0  0  0  0
 27 31  1  0  0  0  0
 28 30  2  0  0  0  0
 29 27  2  0  0  0  0
 29 28  1  0  0  0  0
 30 26  1  0  0  0  0
 31 26  2  0  0  0  0
 32 34  1  0  0  0  0
 34 33  1  0  0  0  0
 35 40  1  0  0  0  0
 37 36  1  0  0  0  0
 37 42  1  0  0  0  0
 38 40  2  0  0  0  0
 38 41  1  0  0  0  0
 39 36  2  0  0  0  0
 40 39  1  0  0  0  0
 41 37  2  0  0  0  0
 43 42  1  0  0  0  0
M  END
>  <MODEL>
4

>  <REMARK>
 VINA RESULT:      -7.5      3.667      7.564
  Name = 
  11 active torsions:
  status: ('A' for Active; 'I' for Inactive)
    1  A    between atoms: N_1  and  C_34
    2  A    between atoms: N_1  and  C_35
    3  A    between atoms: C_2  and  N_6
    4  A    between atoms: C_2  and  C_13
    5  A    between atoms: C_3  and  N_4
    6  A    between atoms: C_3  and  C_12
    7  A    between atoms: N_4  and  C_15
    8  A    between atoms: N_4  and  N_22
    9  A    between atoms: C_11  and  C_14
   10  A    between atoms: C_15  and  C_42
   11  A    between atoms: C_19  and  O_25
                            x       y       z     vdW  Elec       q    Type
                         _______ _______ _______ _____ _____    ______ ____

>  <TORSDO>
F 11

$$$$
=
 OpenBabel11062410113D

 43 47  0  0  1  0  0  0  0  0999 V2000
  160.6670  207.4520  155.3470 C   0  0  0  0  0  0  0  0  0  0  0  0
  161.4660  207.2520  150.3300 N   0  0  2  0  0  0  0  0  0  0  0  0
  161.6170  209.8190  149.3120 C   0  0  2  0  0  3  0  0  0  0  0  0
  160.9800  206.7090  153.0620 C   0  0  0  0  0  0  0  0  0  0  0  0
  161.1750  208.7090  155.0120 C   0  0  0  0  0  3  0  0  0  0  0  0
  160.2740  207.1990  156.6180 F   0  0  0  0  0  0  0  0  0  0  0  0
  161.4550  207.9900  152.7060 C   0  0  0  0  0  0  0  0  0  0  0  0
  160.5730  206.4540  154.3740 C   0  0  0  0  0  3  0  0  0  0  0  0
  161.5750  208.9740  153.7000 C   0  0  0  0  0  3  0  0  0  0  0  0
  161.5600  209.6660  150.8380 C   0  0  0  0  0  2  0  0  0  0  0  0
  161.9550  208.2550  151.2990 C   0  0  2  0  0  3  0  0  0  0  0  0
  161.7590  205.9170  150.8470 C   0  0  0  0  0  2  0  0  0  0  0  0
  162.1660  207.3730  149.0350 C   0  0  2  0  0  3  0  0  0  0  0  0
  162.5790  208.8130  148.6880 C   0  0  0  0  0  2  0  0  0  0  0  0
  160.8570  205.6240  152.0370 C   0  0  0  0  0  2  0  0  0  0  0  0
  161.9440  211.2490  148.8800 C   0  0  2  0  0  3  0  0  0  0  0  0
  161.4720  212.2760  149.9040 C   0  0  0  0  0  1  0  0  0  0  0  0
  161.3480  211.5220  147.5790 N   0  0  0  0  0  2  0  0  0  0  0  0
  161.7590  212.6090  146.7480 C   0  0  0  0  0  0  0  0  0  0  0  0
  162.7060  213.3620  147.0980 O   0  0  0  0  0  0  0  0  0  0  0  0
  161.0390  212.8740  145.4550 C   0  0  0  0  0  2  0  0  0  0  0  0
  160.3250  214.1580  145.4270 N   0  0  0  0  0  0  0  0  0  0  0  0
  158.4460  213.8720  147.0190 C   0  0  0  0  0  0  0  0  0  0  0  0
  159.7410  214.3820  146.6870 N   0  0  0  0  0  2  0  0  0  0  0  0
  157.7700  213.2590  146.1500 O   0  0  0  0  0  0  0  0  0  0  0  0
  157.9030  214.0700  148.3740 C   0  0  0  0  0  0  0  0  0  0  0  0
  158.2470  214.4040  150.7570 C   0  0  0  0  0  3  0  0  0  0  0  0
  155.9980  214.3070  149.8650 C   0  0  0  0  0  3  0  0  0  0  0  0
  156.8640  214.4510  150.9530 C   0  0  0  0  0  3  0  0  0  0  0  0
  156.5160  214.1180  148.5810 C   0  0  0  0  0  3  0  0  0  0  0  0
  158.7640  214.2150  149.4720 C   0  0  0  0  0  3  0  0  0  0  0  0
  159.2550  214.0900  144.4360 C   0  0  0  0  0  2  0  0  0  0  0  0
  159.6070  212.7820  142.0520 S   0  0  0  0  0  1  0  0  0  0  0  0
  159.8140  214.2930  143.0390 C   0  0  0  0  0  2  0  0  0  0  0  0
  161.3120  206.8610  147.9700 N   0  0  0  0  0  2  0  0  0  0  0  0
  161.5210  203.7590  145.8850 C   0  0  0  0  0  3  0  0  0  0  0  0
  161.2000  202.7780  146.8360 C   0  0  0  0  0  0  0  0  0  0  0  0
  160.9570  204.5100  148.5160 C   0  0  0  0  0  3  0  0  0  0  0  0
  161.5600  205.1070  146.2500 C   0  0  0  0  0  3  0  0  0  0  0  0
  161.2830  205.4890  147.5710 C   0  0  0  0  0  0  0  0  0  0  0  0
  160.9180  203.1620  148.1510 C   0  0  0  0  0  3  0  0  0  0  0  0
  161.1560  201.4200  146.5030 O   0  0  0  0  0  0  0  0  0  0  0  0
  161.5830  200.3980  147.3920 C   0  0  0  0  0  1  0  0  0  0  0  0
  1  6  1  0  0  0  0
  2 12  1  1  0  0  0
  2 11  1  0  0  0  0
  3 16  1  1  0  0  0
  3 10  1  0  0  0  0
  4  8  1  0  0  0  0
  5  1  1  0  0  0  0
  7  4  2  0  0  0  0
  7  9  1  0  0  0  0
  8  1  2  0  0  0  0
  9  5  2  0  0  0  0
 11 10  1  6  0  0  0
 11  7  1  0  0  0  0
 12 15  1  0  0  0  0
 13 35  1  6  0  0  0
 13  2  1  0  0  0  0
 14 13  1  0  0  0  0
 14  3  1  0  0  0  0
 15  4  1  0  0  0  0
 16 17  1  1  0  0  0
 18 16  1  0  0  0  0
 19 20  2  0  0  0  0
 19 18  1  0  0  0  0
 21 19  1  0  0  0  0
 22 21  1  0  0  0  0
 22 24  1  0  0  0  0
 23 26  1  0  0  0  0
 24 23  1  0  0  0  0
 25 23  2  0  0  0  0
 26 30  2  0  0  0  0
 26 31  1  0  0  0  0
 27 29  1  0  0  0  0
 28 29  2  0  0  0  0
 30 28  1  0  0  0  0
 31 27  2  0  0  0  0
 32 22  1  0  0  0  0
 33 34  1  0  0  0  0
 34 32  1  0  0  0  0
 36 39  2  0  0  0  0
 36 37  1  0  0  0  0
 37 41  2  0  0  0  0
 39 40  1  0  0  0  0
 40 35  1  0  0  0  0
 40 38  2  0  0  0  0
 41 38  1  0  0  0  0
 42 37  1  0  0  0  0
 42 43  1  0  0  0  0
M  END
>  <MODEL>
5

>  <REMARK>
 VINA RESULT:      -7.0      1.804      2.752
  Name = 
  11 active torsions:
  status: ('A' for Active; 'I' for Inactive)
    1  A    between atoms: N_1  and  C_34
    2  A    between atoms: N_1  and  C_35
    3  A    between atoms: C_2  and  N_6
    4  A    between atoms: C_2  and  C_13
    5  A    between atoms: C_3  and  N_4
    6  A    between atoms: C_3  and  C_12
    7  A    between atoms: N_4  and  C_15
    8  A    between atoms: N_4  and  N_22
    9  A    between atoms: C_11  and  C_14
   10  A    between atoms: C_15  and  C_42
   11  A    between atoms: C_19  and  O_25
                            x       y       z     vdW  Elec       q    Type
                         _______ _______ _______ _____ _____    ______ ____

>  <TORSDO>
F 11

$$$$
=
 OpenBabel11062410113D

 43 47  0  0  1  0  0  0  0  0999 V2000
  158.8990  213.4980  142.2040 C   0  0  0  0  0  0  0  0  0  0  0  0
  158.5100  213.4340  147.2730 N   0  0  2  0  0  0  0  0  0  0  0  0
  160.6630  212.0750  148.3510 C   0  0  2  0  0  3  0  0  0  0  0  0
  158.1370  213.7600  144.4890 C   0  0  0  0  0  0  0  0  0  0  0  0
  160.1890  213.2250  142.6620 C   0  0  0  0  0  3  0  0  0  0  0  0
  158.6410  213.5090  140.8750 F   0  0  0  0  0  0  0  0  0  0  0  0
  159.4290  213.4440  144.9610 C   0  0  0  0  0  0  0  0  0  0  0  0
  157.8760  213.7670  143.1160 C   0  0  0  0  0  3  0  0  0  0  0  0
  160.4560  213.2070  144.0330 C   0  0  0  0  0  3  0  0  0  0  0  0
  160.6920  212.3600  146.8430 C   0  0  0  0  0  2  0  0  0  0  0  0
  159.7340  213.4940  146.4460 C   0  0  2  0  0  3  0  0  0  0  0  0
  157.5740  214.4520  146.8010 C   0  0  0  0  0  2  0  0  0  0  0  0
  158.8040  213.7450  148.6860 C   0  0  2  0  0  3  0  0  0  0  0  0
  160.2030  213.2970  149.1400 C   0  0  0  0  0  2  0  0  0  0  0  0
  157.0190  214.0410  145.4450 C   0  0  0  0  0  2  0  0  0  0  0  0
  162.0010  211.5460  148.8700 C   0  0  2  0  0  3  0  0  0  0  0  0
  163.1650  212.4460  148.4670 C   0  0  0  0  0  1  0  0  0  0  0  0
  162.2200  210.1900  148.3830 N   0  0  0  0  0  2  0  0  0  0  0  0
  162.2130  209.0460  149.2390 C   0  0  0  0  0  0  0  0  0  0  0  0
  161.9670  209.1650  150.4690 O   0  0  0  0  0  0  0  0  0  0  0  0
  162.5290  207.6890  148.6740 C   0  0  0  0  0  2  0  0  0  0  0  0
  161.3700  207.0140  148.0720 N   0  0  0  0  0  0  0  0  0  0  0  0
  160.7680  205.1050  149.5330 C   0  0  0  0  0  0  0  0  0  0  0  0
  161.4280  205.6440  148.3850 N   0  0  0  0  0  2  0  0  0  0  0  0
  160.1670  205.8730  150.3320 O   0  0  0  0  0  0  0  0  0  0  0  0
  160.7960  203.6530  149.7850 C   0  0  0  0  0  0  0  0  0  0  0  0
  160.7140  201.7790  151.3300 C   0  0  0  0  0  3  0  0  0  0  0  0
  160.9560  201.3750  148.9560 C   0  0  0  0  0  3  0  0  0  0  0  0
  160.8470  200.8880  150.2610 C   0  0  0  0  0  3  0  0  0  0  0  0
  160.9300  202.7520  148.7180 C   0  0  0  0  0  3  0  0  0  0  0  0
  160.6890  203.1560  151.0930 C   0  0  0  0  0  3  0  0  0  0  0  0
  161.4370  207.1510  146.6200 C   0  0  0  0  0  2  0  0  0  0  0  0
  161.5810  205.6840  144.3080 S   0  0  0  0  0  1  0  0  0  0  0  0
  162.1560  205.9620  146.0080 C   0  0  0  0  0  2  0  0  0  0  0  0
  157.8090  213.1100  149.5420 N   0  0  0  0  0  2  0  0  0  0  0  0
  158.5050  212.2370  153.1160 C   0  0  0  0  0  3  0  0  0  0  0  0
  157.8780  213.3050  153.7770 C   0  0  0  0  0  0  0  0  0  0  0  0
  157.2160  214.2220  151.6310 C   0  0  0  0  0  3  0  0  0  0  0  0
  158.4870  212.1650  151.7200 C   0  0  0  0  0  3  0  0  0  0  0  0
  157.8460  213.1620  150.9710 C   0  0  0  0  0  0  0  0  0  0  0  0
  157.2340  214.2940  153.0260 C   0  0  0  0  0  3  0  0  0  0  0  0
  157.8810  213.4070  155.1710 O   0  0  0  0  0  0  0  0  0  0  0  0
  157.7990  212.2740  156.0240 C   0  0  0  0  0  1  0  0  0  0  0  0
  1  5  2  0  0  0  0
  1  8  1  0  0  0  0
  2 12  1  6  0  0  0
  2 13  1  0  0  0  0
  3 16  1  1  0  0  0
  3 14  1  0  0  0  0
  4  7  1  0  0  0  0
  4 15  1  0  0  0  0
  5  9  1  0  0  0  0
  6  1  1  0  0  0  0
  7 11  1  0  0  0  0
  8  4  2  0  0  0  0
  9  7  2  0  0  0  0
 10  3  1  0  0  0  0
 11 10  1  1  0  0  0
 11  2  1  0  0  0  0
 13 14  1  0  0  0  0
 13 35  1  1  0  0  0
 15 12  1  0  0  0  0
 16 17  1  6  0  0  0
 18 16  1  0  0  0  0
 18 19  1  0  0  0  0
 19 20  2  0  0  0  0
 21 19  1  0  0  0  0
 22 24  1  0  0  0  0
 22 21  1  0  0  0  0
 23 26  1  0  0  0  0
 23 25  2  0  0  0  0
 24 23  1  0  0  0  0
 26 31  1  0  0  0  0
 28 29  2  0  0  0  0
 29 27  1  0  0  0  0
 30 28  1  0  0  0  0
 30 26  2  0  0  0  0
 31 27  2  0  0  0  0
 32 22  1  0  0  0  0
 33 34  1  0  0  0  0
 34 32  1  0  0  0  0
 35 40  1  0  0  0  0
 36 37  1  0  0  0  0
 37 42  1  0  0  0  0
 38 41  1  0  0  0  0
 39 36  2  0  0  0  0
 40 38  2  0  0  0  0
 40 39  1  0  0  0  0
 41 37  2  0  0  0  0
 42 43  1  0  0  0  0
M  END
>  <MODEL>
6

>  <REMARK>
 VINA RESULT:      -6.9      3.904     10.206
  Name = 
  11 active torsions:
  status: ('A' for Active; 'I' for Inactive)
    1  A    between atoms: N_1  and  C_34
    2  A    between atoms: N_1  and  C_35
    3  A    between atoms: C_2  and  N_6
    4  A    between atoms: C_2  and  C_13
    5  A    between atoms: C_3  and  N_4
    6  A    between atoms: C_3  and  C_12
    7  A    between atoms: N_4  and  C_15
    8  A    between atoms: N_4  and  N_22
    9  A    between atoms: C_11  and  C_14
   10  A    between atoms: C_15  and  C_42
   11  A    between atoms: C_19  and  O_25
                            x       y       z     vdW  Elec       q    Type
                         _______ _______ _______ _____ _____    ______ ____

>  <TORSDO>
F 11

$$$$
=
 OpenBabel11062410113D

 43 47  0  0  1  0  0  0  0  0999 V2000
  160.7010  207.1050  154.8140 C   0  0  0  0  0  0  0  0  0  0  0  0
  161.3970  207.1400  149.7780 N   0  0  2  0  0  0  0  0  0  0  0  0
  161.7020  209.7440  148.9020 C   0  0  2  0  0  3  0  0  0  0  0  0
  160.9230  206.4750  152.4850 C   0  0  0  0  0  0  0  0  0  0  0  0
  161.2860  208.3430  154.5390 C   0  0  0  0  0  3  0  0  0  0  0  0
  160.3140  206.8070  156.0770 F   0  0  0  0  0  0  0  0  0  0  0  0
  161.4770  207.7400  152.1910 C   0  0  0  0  0  0  0  0  0  0  0  0
  160.5230  206.1730  153.7900 C   0  0  0  0  0  3  0  0  0  0  0  0
  161.6810  208.6550  153.2350 C   0  0  0  0  0  3  0  0  0  0  0  0
  161.6610  209.5090  150.4180 C   0  0  0  0  0  2  0  0  0  0  0  0
  161.9690  208.0510  150.7900 C   0  0  2  0  0  3  0  0  0  0  0  0
  161.6080  205.7610  150.2130 C   0  0  0  0  0  2  0  0  0  0  0  0
  162.0800  207.2880  148.4780 C   0  0  2  0  0  3  0  0  0  0  0  0
  162.5830  208.7140  148.2020 C   0  0  0  0  0  2  0  0  0  0  0  0
  160.7100  205.4610  151.4050 C   0  0  0  0  0  2  0  0  0  0  0  0
  162.1170  211.1720  148.5430 C   0  0  2  0  0  3  0  0  0  0  0  0
  162.6030  211.9480  149.7640 C   0  0  0  0  0  1  0  0  0  0  0  0
  161.0030  211.8680  147.9120 N   0  0  0  0  0  2  0  0  0  0  0  0
  160.9680  213.2870  147.7440 C   0  0  0  0  0  0  0  0  0  0  0  0
  161.9420  214.0000  148.1040 O   0  0  0  0  0  0  0  0  0  0  0  0
  159.7470  213.9390  147.1580 C   0  0  0  0  0  2  0  0  0  0  0  0
  158.5930  213.9610  148.0680 N   0  0  0  0  0  0  0  0  0  0  0  0
  158.2410  213.6650  150.5030 C   0  0  0  0  0  0  0  0  0  0  0  0
  158.9760  213.4100  149.3030 N   0  0  0  0  0  2  0  0  0  0  0  0
  157.2570  214.4530  150.4820 O   0  0  0  0  0  0  0  0  0  0  0  0
  158.6370  213.0110  151.7620 C   0  0  0  0  0  0  0  0  0  0  0  0
  158.1230  212.3320  154.0390 C   0  0  0  0  0  3  0  0  0  0  0  0
  160.2860  211.8120  153.0850 C   0  0  0  0  0  3  0  0  0  0  0  0
  159.3930  211.7610  154.1580 C   0  0  0  0  0  3  0  0  0  0  0  0
  159.9090  212.4340  151.8910 C   0  0  0  0  0  3  0  0  0  0  0  0
  157.7470  212.9550  152.8460 C   0  0  0  0  0  3  0  0  0  0  0  0
  157.5280  213.1320  147.5110 C   0  0  0  0  0  2  0  0  0  0  0  0
  156.2340  214.2200  145.3520 S   0  0  0  0  0  1  0  0  0  0  0  0
  157.5680  213.1670  145.9930 C   0  0  0  0  0  2  0  0  0  0  0  0
  161.1750  206.8950  147.4040 N   0  0  0  0  0  2  0  0  0  0  0  0
  161.4650  203.1850  146.9930 C   0  0  0  0  0  3  0  0  0  0  0  0
  161.1030  203.0380  145.6450 C   0  0  0  0  0  0  0  0  0  0  0  0
  160.7960  205.4390  145.4830 C   0  0  0  0  0  3  0  0  0  0  0  0
  161.4920  204.4530  147.5800 C   0  0  0  0  0  3  0  0  0  0  0  0
  161.1520  205.5860  146.8280 C   0  0  0  0  0  0  0  0  0  0  0  0
  160.7700  204.1720  144.8960 C   0  0  0  0  0  3  0  0  0  0  0  0
  161.0630  201.7840  145.0280 O   0  0  0  0  0  0  0  0  0  0  0  0
  159.9870  200.8740  145.2090 C   0  0  0  0  0  1  0  0  0  0  0  0
  1  6  1  0  0  0  0
  2 12  1  1  0  0  0
  2 11  1  0  0  0  0
  3 16  1  1  0  0  0
  3 10  1  0  0  0  0
  4  8  1  0  0  0  0
  5  1  1  0  0  0  0
  7  4  2  0  0  0  0
  7  9  1  0  0  0  0
  8  1  2  0  0  0  0
  9  5  2  0  0  0  0
 11 10  1  6  0  0  0
 11  7  1  0  0  0  0
 12 15  1  0  0  0  0
 13 35  1  6  0  0  0
 13  2  1  0  0  0  0
 14 13  1  0  0  0  0
 14  3  1  0  0  0  0
 15  4  1  0  0  0  0
 16 17  1  1  0  0  0
 18 16  1  0  0  0  0
 19 18  1  0  0  0  0
 19 20  2  0  0  0  0
 21 19  1  0  0  0  0
 21 22  1  0  0  0  0
 22 24  1  0  0  0  0
 23 26  1  0  0  0  0
 24 23  1  0  0  0  0
 25 23  2  0  0  0  0
 26 30  2  0  0  0  0
 26 31  1  0  0  0  0
 27 29  1  0  0  0  0
 28 29  2  0  0  0  0
 30 28  1  0  0  0  0
 31 27  2  0  0  0  0
 32 22  1  0  0  0  0
 33 34  1  0  0  0  0
 34 32  1  0  0  0  0
 36 39  1  0  0  0  0
 37 36  2  0  0  0  0
 38 40  1  0  0  0  0
 40 35  1  0  0  0  0
 40 39  2  0  0  0  0
 41 38  2  0  0  0  0
 41 37  1  0  0  0  0
 42 43  1  0  0  0  0
 42 37  1  0  0  0  0
M  END
>  <MODEL>
7

>  <REMARK>
 VINA RESULT:      -6.9      2.087      3.506
  Name = 
  11 active torsions:
  status: ('A' for Active; 'I' for Inactive)
    1  A    between atoms: N_1  and  C_34
    2  A    between atoms: N_1  and  C_35
    3  A    between atoms: C_2  and  N_6
    4  A    between atoms: C_2  and  C_13
    5  A    between atoms: C_3  and  N_4
    6  A    between atoms: C_3  and  C_12
    7  A    between atoms: N_4  and  C_15
    8  A    between atoms: N_4  and  N_22
    9  A    between atoms: C_11  and  C_14
   10  A    between atoms: C_15  and  C_42
   11  A    between atoms: C_19  and  O_25
                            x       y       z     vdW  Elec       q    Type
                         _______ _______ _______ _____ _____    ______ ____

>  <TORSDO>
F 11

$$$$
=
 OpenBabel11062410113D

 43 47  0  0  1  0  0  0  0  0999 V2000
  161.3160  212.2720  147.4900 C   0  0  0  0  0  0  0  0  0  0  0  0
  159.3640  213.1270  152.1060 N   0  0  2  0  0  0  0  0  0  0  0  0
  159.5200  210.8190  153.6200 C   0  0  2  0  0  3  0  0  0  0  0  0
  160.2450  213.2660  149.4220 C   0  0  0  0  0  0  0  0  0  0  0  0
  161.8360  211.2570  148.2960 C   0  0  0  0  0  3  0  0  0  0  0  0
  161.5860  212.2870  146.1630 F   0  0  0  0  0  0  0  0  0  0  0  0
  160.7320  212.2200  150.2360 C   0  0  0  0  0  0  0  0  0  0  0  0
  160.5240  213.2750  148.0530 C   0  0  0  0  0  3  0  0  0  0  0  0
  161.5530  211.2360  149.6640 C   0  0  0  0  0  3  0  0  0  0  0  0
  160.2220  210.8170  152.2560 C   0  0  0  0  0  2  0  0  0  0  0  0
  160.4830  212.2370  151.7320 C   0  0  2  0  0  3  0  0  0  0  0  0
  159.5860  214.4400  151.5030 C   0  0  0  0  0  2  0  0  0  0  0  0
  159.3080  213.3310  153.5670 C   0  0  2  0  0  3  0  0  0  0  0  0
  159.7830  212.1150  154.3800 C   0  0  0  0  0  2  0  0  0  0  0  0
  159.3840  214.3480  149.9970 C   0  0  0  0  0  2  0  0  0  0  0  0
  159.8780  209.5940  154.4630 C   0  0  2  0  0  3  0  0  0  0  0  0
  160.5170  209.9850  155.7920 C   0  0  0  0  0  1  0  0  0  0  0  0
  160.7690  208.7190  153.7120 N   0  0  0  0  0  2  0  0  0  0  0  0
  160.8350  207.3080  153.9270 C   0  0  0  0  0  0  0  0  0  0  0  0
  160.0750  206.7490  154.7620 O   0  0  0  0  0  0  0  0  0  0  0  0
  161.8390  206.4840  153.1700 C   0  0  0  0  0  2  0  0  0  0  0  0
  161.6650  206.5320  151.7110 N   0  0  0  0  0  0  0  0  0  0  0  0
  160.7590  204.6970  150.3120 C   0  0  0  0  0  0  0  0  0  0  0  0
  161.7480  205.2240  151.2000 N   0  0  0  0  0  2  0  0  0  0  0  0
  159.7450  205.3870  150.0210 O   0  0  0  0  0  0  0  0  0  0  0  0
  160.9220  203.3470  149.7460 C   0  0  0  0  0  0  0  0  0  0  0  0
  161.1020  200.9410  150.0440 C   0  0  0  0  0  3  0  0  0  0  0  0
  161.2060  201.8910  147.8200 C   0  0  0  0  0  3  0  0  0  0  0  0
  161.2300  200.7770  148.6630 C   0  0  0  0  0  3  0  0  0  0  0  0
  161.0520  203.1720  148.3600 C   0  0  0  0  0  3  0  0  0  0  0  0
  160.9480  202.2220  150.5840 C   0  0  0  0  0  3  0  0  0  0  0  0
  162.7460  207.3190  151.1250 C   0  0  0  0  0  2  0  0  0  0  0  0
  161.5510  207.7280  148.6910 S   0  0  0  0  0  1  0  0  0  0  0  0
  162.9030  206.9870  149.6510 C   0  0  0  0  0  2  0  0  0  0  0  0
  157.9410  213.6530  153.9620 N   0  0  0  0  0  2  0  0  0  0  0  0
  156.2910  212.2220  157.0030 C   0  0  0  0  0  3  0  0  0  0  0  0
  155.5820  211.1490  156.4400 C   0  0  0  0  0  0  0  0  0  0  0  0
  156.4450  211.7490  154.2530 C   0  0  0  0  0  3  0  0  0  0  0  0
  157.0710  213.0520  156.1930 C   0  0  0  0  0  3  0  0  0  0  0  0
  157.1470  212.8220  154.8120 C   0  0  0  0  0  0  0  0  0  0  0  0
  155.6660  210.9180  155.0620 C   0  0  0  0  0  3  0  0  0  0  0  0
  154.7910  210.3020  157.2220 O   0  0  0  0  0  0  0  0  0  0  0  0
  153.4210  210.0530  156.9370 C   0  0  0  0  0  1  0  0  0  0  0  0
  1  8  2  0  0  0  0
  1  5  1  0  0  0  0
  2 12  1  6  0  0  0
  2 13  1  0  0  0  0
  3 14  1  0  0  0  0
  3 16  1  1  0  0  0
  4 15  1  0  0  0  0
  4  7  2  0  0  0  0
  5  9  2  0  0  0  0
  6  1  1  0  0  0  0
  7 11  1  0  0  0  0
  8  4  1  0  0  0  0
  9  7  1  0  0  0  0
 10  3  1  0  0  0  0
 11  2  1  0  0  0  0
 11 10  1  6  0  0  0
 13 35  1  1  0  0  0
 13 14  1  0  0  0  0
 15 12  1  0  0  0  0
 16 17  1  1  0  0  0
 18 19  1  0  0  0  0
 18 16  1  0  0  0  0
 19 20  2  0  0  0  0
 21 19  1  0  0  0  0
 22 21  1  0  0  0  0
 23 24  1  0  0  0  0
 24 22  1  0  0  0  0
 25 23  2  0  0  0  0
 26 23  1  0  0  0  0
 26 31  1  0  0  0  0
 27 31  2  0  0  0  0
 28 30  1  0  0  0  0
 28 29  2  0  0  0  0
 29 27  1  0  0  0  0
 30 26  2  0  0  0  0
 32 22  1  0  0  0  0
 33 34  1  0  0  0  0
 34 32  1  0  0  0  0
 35 40  1  0  0  0  0
 37 36  1  0  0  0  0
 37 42  1  0  0  0  0
 38 40  2  0  0  0  0
 38 41  1  0  0  0  0
 39 36  2  0  0  0  0
 40 39  1  0  0  0  0
 41 37  2  0  0  0  0
 43 42  1  0  0  0  0
M  END
>  <MODEL>
8

>  <REMARK>
 VINA RESULT:      -6.7      3.915      9.590
  Name = 
  11 active torsions:
  status: ('A' for Active; 'I' for Inactive)
    1  A    between atoms: N_1  and  C_34
    2  A    between atoms: N_1  and  C_35
    3  A    between atoms: C_2  and  N_6
    4  A    between atoms: C_2  and  C_13
    5  A    between atoms: C_3  and  N_4
    6  A    between atoms: C_3  and  C_12
    7  A    between atoms: N_4  and  C_15
    8  A    between atoms: N_4  and  N_22
    9  A    between atoms: C_11  and  C_14
   10  A    between atoms: C_15  and  C_42
   11  A    between atoms: C_19  and  O_25
                            x       y       z     vdW  Elec       q    Type
                         _______ _______ _______ _____ _____    ______ ____

>  <TORSDO>
F 11

$$$$
=
 OpenBabel11062410113D

 43 47  0  0  1  0  0  0  0  0999 V2000
  161.4550  203.7720  146.1820 C   0  0  0  0  0  0  0  0  0  0  0  0
  161.4810  206.9640  150.1390 N   0  0  2  0  0  0  0  0  0  0  0  0
  161.9840  209.5350  149.2540 C   0  0  2  0  0  3  0  0  0  0  0  0
  161.3950  204.7320  148.4060 C   0  0  0  0  0  0  0  0  0  0  0  0
  161.2540  205.0380  145.6270 C   0  0  0  0  0  3  0  0  0  0  0  0
  161.5770  202.6920  145.3750 F   0  0  0  0  0  0  0  0  0  0  0  0
  161.2330  206.0200  147.8510 C   0  0  0  0  0  0  0  0  0  0  0  0
  161.5230  203.6200  147.5680 C   0  0  0  0  0  3  0  0  0  0  0  0
  161.1350  206.1550  146.4570 C   0  0  0  0  0  3  0  0  0  0  0  0
  161.7560  208.4530  148.1890 C   0  0  0  0  0  2  0  0  0  0  0  0
  161.0330  207.2210  148.7550 C   0  0  2  0  0  3  0  0  0  0  0  0
  160.8620  205.7280  150.6120 C   0  0  0  0  0  2  0  0  0  0  0  0
  161.0420  208.0390  151.0520 C   0  0  2  0  0  3  0  0  0  0  0  0
  160.9680  209.4230  150.3870 C   0  0  0  0  0  2  0  0  0  0  0  0
  161.4820  204.5410  149.8890 C   0  0  0  0  0  2  0  0  0  0  0  0
  162.0060  210.9440  148.6590 C   0  0  2  0  0  3  0  0  0  0  0  0
  163.4290  211.4540  148.4550 C   0  0  0  0  0  1  0  0  0  0  0  0
  161.2610  211.8550  149.5180 N   0  0  0  0  0  2  0  0  0  0  0  0
  160.8350  213.1510  149.0930 C   0  0  0  0  0  0  0  0  0  0  0  0
  161.0540  213.5450  147.9160 O   0  0  0  0  0  0  0  0  0  0  0  0
  160.1430  214.0660  150.0640 C   0  0  0  0  0  2  0  0  0  0  0  0
  158.7370  214.3320  149.7290 N   0  0  0  0  0  0  0  0  0  0  0  0
  158.2390  213.2920  151.9240 C   0  0  0  0  0  0  0  0  0  0  0  0
  157.9670  214.2570  150.9040 N   0  0  0  0  0  2  0  0  0  0  0  0
  159.1490  212.4360  151.7530 O   0  0  0  0  0  0  0  0  0  0  0  0
  157.4520  213.2950  153.1690 C   0  0  0  0  0  0  0  0  0  0  0  0
  156.0250  214.4530  154.7600 C   0  0  0  0  0  3  0  0  0  0  0  0
  156.6230  212.1390  155.1400 C   0  0  0  0  0  3  0  0  0  0  0  0
  155.9500  213.2960  155.5400 C   0  0  0  0  0  3  0  0  0  0  0  0
  157.3710  212.1380  153.9580 C   0  0  0  0  0  3  0  0  0  0  0  0
  156.7730  214.4530  153.5790 C   0  0  0  0  0  3  0  0  0  0  0  0
  158.2610  213.3040  148.8080 C   0  0  0  0  0  2  0  0  0  0  0  0
  157.1120  212.9260  146.3470 S   0  0  0  0  0  1  0  0  0  0  0  0
  157.1820  213.8660  147.9000 C   0  0  0  0  0  2  0  0  0  0  0  0
  161.9510  208.1130  152.1900 N   0  0  0  0  0  2  0  0  0  0  0  0
  160.6330  208.4990  155.6730 C   0  0  0  0  0  3  0  0  0  0  0  0
  160.8980  209.8580  155.9080 C   0  0  0  0  0  0  0  0  0  0  0  0
  161.8500  210.0390  153.6840 C   0  0  0  0  0  3  0  0  0  0  0  0
  160.9770  207.9170  154.4500 C   0  0  0  0  0  3  0  0  0  0  0  0
  161.5930  208.6840  153.4510 C   0  0  0  0  0  0  0  0  0  0  0  0
  161.5070  210.6220  154.9070 C   0  0  0  0  0  3  0  0  0  0  0  0
  160.5700  210.4700  157.1210 O   0  0  0  0  0  0  0  0  0  0  0  0
  159.6740  211.5700  157.2090 C   0  0  0  0  0  1  0  0  0  0  0  0
  1  8  1  0  0  0  0
  2 12  1  1  0  0  0
  2 13  1  0  0  0  0
  3 16  1  6  0  0  0
  3 14  1  0  0  0  0
  4 15  1  0  0  0  0
  5  1  2  0  0  0  0
  5  9  1  0  0  0  0
  6  1  1  0  0  0  0
  7  4  1  0  0  0  0
  7 11  1  0  0  0  0
  8  4  2  0  0  0  0
  9  7  2  0  0  0  0
 10  3  1  0  0  0  0
 11 10  1  6  0  0  0
 11  2  1  0  0  0  0
 13 35  1  1  0  0  0
 14 13  1  0  0  0  0
 15 12  1  0  0  0  0
 16 17  1  1  0  0  0
 16 18  1  0  0  0  0
 19 18  1  0  0  0  0
 19 21  1  0  0  0  0
 20 19  2  0  0  0  0
 22 21  1  0  0  0  0
 22 24  1  0  0  0  0
 23 26  1  0  0  0  0
 24 23  1  0  0  0  0
 25 23  2  0  0  0  0
 26 31  2  0  0  0  0
 26 30  1  0  0  0  0
 27 29  2  0  0  0  0
 28 29  1  0  0  0  0
 30 28  2  0  0  0  0
 31 27  1  0  0  0  0
 32 22  1  0  0  0  0
 33 34  1  0  0  0  0
 34 32  1  0  0  0  0
 35 40  1  0  0  0  0
 36 37  1  0  0  0  0
 37 42  1  0  0  0  0
 38 41  1  0  0  0  0
 39 36  2  0  0  0  0
 40 38  2  0  0  0  0
 40 39  1  0  0  0  0
 41 37  2  0  0  0  0
 42 43  1  0  0  0  0
M  END
>  <MODEL>
9

>  <REMARK>
 VINA RESULT:      -6.7      3.378      6.904
  Name = 
  11 active torsions:
  status: ('A' for Active; 'I' for Inactive)
    1  A    between atoms: N_1  and  C_34
    2  A    between atoms: N_1  and  C_35
    3  A    between atoms: C_2  and  N_6
    4  A    between atoms: C_2  and  C_13
    5  A    between atoms: C_3  and  N_4
    6  A    between atoms: C_3  and  C_12
    7  A    between atoms: N_4  and  C_15
    8  A    between atoms: N_4  and  N_22
    9  A    between atoms: C_11  and  C_14
   10  A    between atoms: C_15  and  C_42
   11  A    between atoms: C_19  and  O_25
                            x       y       z     vdW  Elec       q    Type
                         _______ _______ _______ _____ _____    ______ ____

>  <TORSDO>
F 11

$$$$
