=
 OpenBabel11062408133D

 34 38  0  0  1  0  0  0  0  0999 V2000
  161.3230  204.8090  152.1230 C   0  0  0  0  0  0  0  0  0  0  0  0
  160.7250  205.3890  149.8320 C   0  0  0  0  0  0  0  0  0  0  0  0
  161.1590  207.1750  151.5670 C   0  0  0  0  0  0  0  0  0  0  0  0
  161.7560  209.6220  151.3240 C   0  0  1  0  0  3  0  0  0  0  0  0
  161.4100  203.4660  151.7550 C   0  0  0  0  0  3  0  0  0  0  0  0
  160.8100  204.0350  149.4930 C   0  0  0  0  0  3  0  0  0  0  0  0
  162.2780  208.1210  149.4840 C   0  0  0  0  0  2  0  0  0  0  0  0
  161.0750  205.8140  151.1460 C   0  0  0  0  0  0  0  0  0  0  0  0
  162.2150  209.2860  148.4930 C   0  0  0  0  0  2  0  0  0  0  0  0
  161.6280  210.8280  150.4070 C   0  0  0  0  0  2  0  0  0  0  0  0
  161.1800  203.0820  150.4380 C   0  0  0  0  0  3  0  0  0  0  0  0
  161.1340  207.4540  152.9540 C   0  0  0  0  0  0  0  0  0  0  0  0
  161.4300  205.1350  153.4350 N   0  0  0  0  0  0  0  0  0  0  0  0
  159.9230  206.4120  148.6440 Cl  0  0  0  0  0  0  0  0  0  0  0  0
  161.0970  209.8360  152.6040 N   0  0  0  0  0  0  0  0  0  0  0  0
  160.8910  208.8480  153.4190 C   0  0  0  0  0  0  0  0  0  0  0  0
  162.5330  210.6130  149.1890 C   0  0  2  0  0  3  0  0  0  0  0  0
  161.2620  208.3570  150.6070 C   0  0  1  0  0  3  0  0  0  0  0  0
  161.2960  206.4110  153.8670 C   0  0  0  0  0  3  0  0  0  0  0  0
  158.9030  210.7320  156.1150 C   0  0  2  0  0  3  0  0  0  0  0  0
  159.9990  210.7920  157.1750 C   0  0  0  0  0  2  0  0  0  0  0  0
  160.3090  209.1540  154.7670 C   0  0  2  0  0  3  0  0  0  0  0  0
  160.7670  209.4740  157.2110 C   0  0  0  0  0  2  0  0  0  0  0  0
  159.5090  210.4570  154.7420 C   0  0  0  0  0  2  0  0  0  0  0  0
  161.3910  209.1890  155.8480 C   0  0  0  0  0  2  0  0  0  0  0  0
  158.2230  211.9340  156.0870 F   0  0  0  0  0  0  0  0  0  0  0  0
  162.3680  211.7550  148.2000 C   0  0  0  0  0  2  0  0  0  0  0  0
  161.1150  212.9380  148.7870 S   0  0  0  0  0  0  0  0  0  0  0  0
  161.7010  213.8550  146.3870 O   0  0  0  0  0  1  0  0  0  0  0  0
  160.5990  213.3840  147.1030 C   0  0  1  0  0  3  0  0  0  0  0  0
  160.0210  212.1600  146.4160 C   0  0  0  0  0  2  0  0  0  0  0  0
  158.8810  212.8560  144.3110 O   0  0  0  0  0  0  0  0  0  0  0  0
  158.7930  212.5200  145.6540 C   0  0  0  0  0  0  0  0  0  0  0  0
  157.6690  212.4930  146.2210 O   0  0  0  0  0  1  0  0  0  0  0  0
  1 13  1  0  0  0  0
  2  8  1  0  0  0  0
  3 12  2  0  0  0  0
  4 10  1  6  0  0  0
  4 15  1  0  0  0  0
  5  1  1  0  0  0  0
  6  2  2  0  0  0  0
  6 11  1  0  0  0  0
  8  3  1  0  0  0  0
  8  1  2  0  0  0  0
  9 17  1  0  0  0  0
  9  7  1  0  0  0  0
 11  5  2  0  0  0  0
 12 16  1  0  0  0  0
 12 19  1  0  0  0  0
 13 19  2  0  0  0  0
 14  2  1  0  0  0  0
 15 16  2  0  0  0  0
 17 27  1  6  0  0  0
 17 10  1  0  0  0  0
 18  7  1  6  0  0  0
 18  4  1  0  0  0  0
 18  3  1  0  0  0  0
 20 26  1  6  0  0  0
 20 21  1  0  0  0  0
 21 23  1  0  0  0  0
 22 16  1  6  0  0  0
 22 25  1  0  0  0  0
 24 22  1  0  0  0  0
 24 20  1  0  0  0  0
 25 23  1  0  0  0  0
 27 28  1  0  0  0  0
 30 29  1  6  0  0  0
 30 28  1  0  0  0  0
 31 30  1  0  0  0  0
 32 33  2  0  0  0  0
 33 34  1  0  0  0  0
 33 31  1  0  0  0  0
M  END
>  <MODEL>
1

>  <REMARK>
 VINA RESULT:      -8.5      0.000      0.000
  Name = 
  6 active torsions:
  status: ('A' for Active; 'I' for Inactive)
    1  A    between atoms: C_3  and  S_13
    2  A    between atoms: C_3  and  C_29
    3  A    between atoms: C_12  and  C_28
    4  A    between atoms: S_13  and  C_33
    5  A    between atoms: C_20  and  C_22
    6  A    between atoms: C_22  and  C_33
                            x       y       z     vdW  Elec       q    Type
                         _______ _______ _______ _____ _____    ______ ____

>  <TORSDO>
F 6

$$$$
=
 OpenBabel11062408133D

 34 38  0  0  1  0  0  0  0  0999 V2000
  161.3010  204.9070  152.2210 C   0  0  0  0  0  0  0  0  0  0  0  0
  160.7550  205.4400  149.9060 C   0  0  0  0  0  0  0  0  0  0  0  0
  161.1530  207.2620  151.6130 C   0  0  0  0  0  0  0  0  0  0  0  0
  161.7580  209.7030  151.3320 C   0  0  1  0  0  3  0  0  0  0  0  0
  161.3950  203.5570  151.8830 C   0  0  0  0  0  3  0  0  0  0  0  0
  160.8450  204.0800  149.5970 C   0  0  0  0  0  3  0  0  0  0  0  0
  162.3170  208.1630  149.5360 C   0  0  0  0  0  2  0  0  0  0  0  0
  161.0760  205.8920  151.2190 C   0  0  0  0  0  0  0  0  0  0  0  0
  162.2780  209.3070  148.5200 C   0  0  0  0  0  2  0  0  0  0  0  0
  161.6510  210.8890  150.3870 C   0  0  0  0  0  2  0  0  0  0  0  0
  161.1930  203.1460  150.5700 C   0  0  0  0  0  3  0  0  0  0  0  0
  161.0980  207.5690  152.9930 C   0  0  0  0  0  0  0  0  0  0  0  0
  161.3800  205.2600  153.5290 N   0  0  0  0  0  0  0  0  0  0  0  0
  159.9800  206.4390  148.6800 Cl  0  0  0  0  0  0  0  0  0  0  0  0
  161.0710  209.9430  152.5930 N   0  0  0  0  0  0  0  0  0  0  0  0
  160.8460  208.9720  153.4230 C   0  0  0  0  0  0  0  0  0  0  0  0
  162.5820  210.6490  149.1950 C   0  0  2  0  0  3  0  0  0  0  0  0
  161.2780  208.4230  150.6310 C   0  0  1  0  0  3  0  0  0  0  0  0
  161.2380  206.5450  153.9310 C   0  0  0  0  0  3  0  0  0  0  0  0
  158.6960  210.8370  156.0060 C   0  0  2  0  0  3  0  0  0  0  0  0
  159.7790  211.0510  157.0600 C   0  0  0  0  0  2  0  0  0  0  0  0
  160.2360  209.3080  154.7520 C   0  0  2  0  0  3  0  0  0  0  0  0
  160.6560  209.8070  157.1730 C   0  0  0  0  0  2  0  0  0  0  0  0
  159.3290  210.5350  154.6520 C   0  0  0  0  0  2  0  0  0  0  0  0
  161.3070  209.4960  155.8280 C   0  0  0  0  0  2  0  0  0  0  0  0
  157.9180  211.9740  155.9080 F   0  0  0  0  0  0  0  0  0  0  0  0
  162.4400  211.7700  148.1790 C   0  0  0  0  0  2  0  0  0  0  0  0
  161.0480  212.8590  148.6140 S   0  0  0  0  0  0  0  0  0  0  0  0
  158.8260  212.6220  147.2170 O   0  0  0  0  0  1  0  0  0  0  0  0
  160.2090  212.5920  147.0240 C   0  0  1  0  0  3  0  0  0  0  0  0
  160.6190  213.6830  146.0520 C   0  0  0  0  0  2  0  0  0  0  0  0
  160.7800  212.5250  143.8510 O   0  0  0  0  0  0  0  0  0  0  0  0
  161.4190  213.1110  144.9330 C   0  0  0  0  0  0  0  0  0  0  0  0
  162.6760  213.1850  144.9550 O   0  0  0  0  0  1  0  0  0  0  0  0
  1 13  1  0  0  0  0
  2  8  1  0  0  0  0
  3 12  2  0  0  0  0
  4 10  1  6  0  0  0
  4 15  1  0  0  0  0
  5  1  1  0  0  0  0
  6  2  2  0  0  0  0
  6 11  1  0  0  0  0
  8  3  1  0  0  0  0
  8  1  2  0  0  0  0
  9 17  1  0  0  0  0
  9  7  1  0  0  0  0
 11  5  2  0  0  0  0
 12 16  1  0  0  0  0
 12 19  1  0  0  0  0
 13 19  2  0  0  0  0
 14  2  1  0  0  0  0
 15 16  2  0  0  0  0
 17 27  1  6  0  0  0
 17 10  1  0  0  0  0
 18  7  1  6  0  0  0
 18  4  1  0  0  0  0
 18  3  1  0  0  0  0
 20 26  1  6  0  0  0
 20 21  1  0  0  0  0
 21 23  1  0  0  0  0
 22 16  1  6  0  0  0
 22 25  1  0  0  0  0
 24 22  1  0  0  0  0
 24 20  1  0  0  0  0
 25 23  1  0  0  0  0
 27 28  1  0  0  0  0
 30 29  1  1  0  0  0
 30 28  1  0  0  0  0
 31 30  1  0  0  0  0
 32 33  2  0  0  0  0
 33 34  1  0  0  0  0
 33 31  1  0  0  0  0
M  END
>  <MODEL>
2

>  <REMARK>
 VINA RESULT:      -8.4      0.717      1.258
  Name = 
  6 active torsions:
  status: ('A' for Active; 'I' for Inactive)
    1  A    between atoms: C_3  and  S_13
    2  A    between atoms: C_3  and  C_29
    3  A    between atoms: C_12  and  C_28
    4  A    between atoms: S_13  and  C_33
    5  A    between atoms: C_20  and  C_22
    6  A    between atoms: C_22  and  C_33
                            x       y       z     vdW  Elec       q    Type
                         _______ _______ _______ _____ _____    ______ ____

>  <TORSDO>
F 6

$$$$
=
 OpenBabel11062408133D

 34 38  0  0  1  0  0  0  0  0999 V2000
  161.6660  204.5560  151.4920 C   0  0  0  0  0  0  0  0  0  0  0  0
  160.7060  205.3260  149.3880 C   0  0  0  0  0  0  0  0  0  0  0  0
  161.4850  206.9610  151.1510 C   0  0  0  0  0  0  0  0  0  0  0  0
  162.1090  209.4090  150.9920 C   0  0  1  0  0  3  0  0  0  0  0  0
  161.6470  203.2450  151.0150 C   0  0  0  0  0  3  0  0  0  0  0  0
  160.6890  204.0020  148.9390 C   0  0  0  0  0  3  0  0  0  0  0  0
  162.2620  208.0480  148.9840 C   0  0  0  0  0  2  0  0  0  0  0  0
  161.2880  205.6390  150.6500 C   0  0  0  0  0  0  0  0  0  0  0  0
  162.0680  209.2890  148.1080 C   0  0  0  0  0  2  0  0  0  0  0  0
  161.8640  210.6850  150.2040 C   0  0  0  0  0  2  0  0  0  0  0  0
  161.1850  202.9710  149.7320 C   0  0  0  0  0  3  0  0  0  0  0  0
  161.7040  207.1300  152.5380 C   0  0  0  0  0  0  0  0  0  0  0  0
  162.0040  204.7750  152.7870 N   0  0  0  0  0  0  0  0  0  0  0  0
  159.7470  206.4540  148.4350 Cl  0  0  0  0  0  0  0  0  0  0  0  0
  161.6840  209.5320  152.3790 N   0  0  0  0  0  0  0  0  0  0  0  0
  161.5880  208.4870  153.1410 C   0  0  0  0  0  0  0  0  0  0  0  0
  162.5420  210.5510  148.8360 C   0  0  2  0  0  3  0  0  0  0  0  0
  161.4600  208.2130  150.2790 C   0  0  1  0  0  3  0  0  0  0  0  0
  161.9860  206.0150  153.3290 C   0  0  0  0  0  3  0  0  0  0  0  0
  160.1650  207.7360  156.6320 C   0  0  2  0  0  3  0  0  0  0  0  0
  159.3960  209.0390  156.8250 C   0  0  0  0  0  2  0  0  0  0  0  0
  161.2540  208.6960  154.5880 C   0  0  2  0  0  3  0  0  0  0  0  0
  160.2080  210.2140  156.2880 C   0  0  0  0  0  2  0  0  0  0  0  0
  160.4660  207.5140  155.1520 C   0  0  0  0  0  2  0  0  0  0  0  0
  160.5080  210.0140  154.8050 C   0  0  0  0  0  2  0  0  0  0  0  0
  159.4140  206.6810  157.1130 F   0  0  0  0  0  0  0  0  0  0  0  0
  162.2470  211.7700  147.9790 C   0  0  0  0  0  2  0  0  0  0  0  0
  161.0320  212.8530  148.7950 S   0  0  0  0  0  0  0  0  0  0  0  0
  161.8320  213.5880  146.3950 O   0  0  0  0  0  1  0  0  0  0  0  0
  161.0800  214.0850  147.4610 C   0  0  1  0  0  3  0  0  0  0  0  0
  159.6630  214.3790  147.0000 C   0  0  0  0  0  2  0  0  0  0  0  0
  159.3270  212.3000  145.6670 O   0  0  0  0  0  0  0  0  0  0  0  0
  158.9320  213.1120  146.7200 C   0  0  0  0  0  0  0  0  0  0  0  0
  157.9730  212.7620  147.4570 O   0  0  0  0  0  1  0  0  0  0  0  0
  1 13  1  0  0  0  0
  2  8  1  0  0  0  0
  3 12  2  0  0  0  0
  4 10  1  6  0  0  0
  4 15  1  0  0  0  0
  5  1  1  0  0  0  0
  6  2  2  0  0  0  0
  6 11  1  0  0  0  0
  8  3  1  0  0  0  0
  8  1  2  0  0  0  0
  9 17  1  0  0  0  0
  9  7  1  0  0  0  0
 11  5  2  0  0  0  0
 12 16  1  0  0  0  0
 12 19  1  0  0  0  0
 13 19  2  0  0  0  0
 14  2  1  0  0  0  0
 15 16  2  0  0  0  0
 17 27  1  6  0  0  0
 17 10  1  0  0  0  0
 18  7  1  6  0  0  0
 18  4  1  0  0  0  0
 18  3  1  0  0  0  0
 20 21  1  0  0  0  0
 20 26  1  6  0  0  0
 22 16  1  6  0  0  0
 22 25  1  0  0  0  0
 22 24  1  0  0  0  0
 23 21  1  0  0  0  0
 24 20  1  0  0  0  0
 25 23  1  0  0  0  0
 27 28  1  0  0  0  0
 30 29  1  6  0  0  0
 30 28  1  0  0  0  0
 31 30  1  0  0  0  0
 32 33  2  0  0  0  0
 33 31  1  0  0  0  0
 33 34  1  0  0  0  0
M  END
>  <MODEL>
3

>  <REMARK>
 VINA RESULT:      -6.3      1.306      1.527
  Name = 
  6 active torsions:
  status: ('A' for Active; 'I' for Inactive)
    1  A    between atoms: C_3  and  S_13
    2  A    between atoms: C_3  and  C_29
    3  A    between atoms: C_12  and  C_28
    4  A    between atoms: S_13  and  C_33
    5  A    between atoms: C_20  and  C_22
    6  A    between atoms: C_22  and  C_33
                            x       y       z     vdW  Elec       q    Type
                         _______ _______ _______ _____ _____    ______ ____

>  <TORSDO>
F 6

$$$$
=
 OpenBabel11062408133D

 34 38  0  0  1  0  0  0  0  0999 V2000
  160.6560  207.7580  154.9740 C   0  0  0  0  0  0  0  0  0  0  0  0
  162.0350  209.7390  154.6330 C   0  0  0  0  0  0  0  0  0  0  0  0
  161.4670  208.1910  152.7180 C   0  0  0  0  0  0  0  0  0  0  0  0
  161.4920  208.5600  150.2140 C   0  0  1  0  0  3  0  0  0  0  0  0
  160.4110  208.1610  156.2870 C   0  0  0  0  0  3  0  0  0  0  0  0
  161.7810  210.1140  155.9560 C   0  0  0  0  0  3  0  0  0  0  0  0
  161.2640  210.4990  151.6630 C   0  0  0  0  0  2  0  0  0  0  0  0
  161.3930  208.5900  154.0860 C   0  0  0  0  0  0  0  0  0  0  0  0
  161.8680  211.3990  150.5820 C   0  0  0  0  0  2  0  0  0  0  0  0
  162.1420  209.3690  149.1030 C   0  0  0  0  0  2  0  0  0  0  0  0
  160.9500  209.3490  156.7700 C   0  0  0  0  0  3  0  0  0  0  0  0
  161.1210  206.8600  152.3860 C   0  0  0  0  0  0  0  0  0  0  0  0
  160.2200  206.5380  154.5730 N   0  0  0  0  0  0  0  0  0  0  0  0
  163.3560  210.6000  153.8490 Cl  0  0  0  0  0  0  0  0  0  0  0  0
  161.7550  207.1350  150.0800 N   0  0  0  0  0  0  0  0  0  0  0  0
  161.4920  206.3150  151.0500 C   0  0  0  0  0  0  0  0  0  0  0  0
  161.6320  210.8110  149.1860 C   0  0  2  0  0  3  0  0  0  0  0  0
  161.9100  209.1120  151.5850 C   0  0  1  0  0  3  0  0  0  0  0  0
  160.4750  206.0620  153.3310 C   0  0  0  0  0  3  0  0  0  0  0  0
  161.3000  202.9370  149.2280 C   0  0  2  0  0  3  0  0  0  0  0  0
  160.7120  202.1180  150.3730 C   0  0  0  0  0  2  0  0  0  0  0  0
  161.6800  204.8470  150.8050 C   0  0  2  0  0  3  0  0  0  0  0  0
  161.3550  202.5260  151.6950 C   0  0  0  0  0  2  0  0  0  0  0  0
  161.0690  204.4250  149.4690 C   0  0  0  0  0  2  0  0  0  0  0  0
  161.1230  204.0120  151.9590 C   0  0  0  0  0  2  0  0  0  0  0  0
  160.7020  202.5640  148.0400 F   0  0  0  0  0  0  0  0  0  0  0  0
  162.3250  211.6780  148.1490 C   0  0  0  0  0  2  0  0  0  0  0  0
  161.3680  213.1950  147.8350 S   0  0  0  0  0  0  0  0  0  0  0  0
  159.4670  212.5320  146.1360 O   0  0  0  0  0  1  0  0  0  0  0  0
  160.8580  212.6540  146.1780 C   0  0  1  0  0  3  0  0  0  0  0  0
  161.3180  213.6760  145.1540 C   0  0  0  0  0  2  0  0  0  0  0  0
  161.7060  212.3070  143.1070 O   0  0  0  0  0  0  0  0  0  0  0  0
  162.2290  213.0440  144.1590 C   0  0  0  0  0  0  0  0  0  0  0  0
  163.4750  213.2010  144.2570 O   0  0  0  0  0  1  0  0  0  0  0  0
  1  5  2  0  0  0  0
  2  6  1  0  0  0  0
  3  8  1  0  0  0  0
  4 10  1  6  0  0  0
  4 18  1  0  0  0  0
  5 11  1  0  0  0  0
  6 11  2  0  0  0  0
  8  2  2  0  0  0  0
  8  1  1  0  0  0  0
  9  7  1  0  0  0  0
 10 17  1  0  0  0  0
 12  3  2  0  0  0  0
 12 19  1  0  0  0  0
 13  1  1  0  0  0  0
 14  2  1  0  0  0  0
 15  4  1  0  0  0  0
 15 16  2  0  0  0  0
 16 12  1  0  0  0  0
 17 27  1  6  0  0  0
 17  9  1  0  0  0  0
 18  7  1  1  0  0  0
 18  3  1  0  0  0  0
 19 13  2  0  0  0  0
 20 26  1  6  0  0  0
 20 24  1  0  0  0  0
 20 21  1  0  0  0  0
 21 23  1  0  0  0  0
 22 16  1  1  0  0  0
 22 25  1  0  0  0  0
 23 25  1  0  0  0  0
 24 22  1  0  0  0  0
 28 27  1  0  0  0  0
 30 29  1  1  0  0  0
 30 28  1  0  0  0  0
 31 30  1  0  0  0  0
 32 33  2  0  0  0  0
 33 34  1  0  0  0  0
 33 31  1  0  0  0  0
M  END
>  <MODEL>
4

>  <REMARK>
 VINA RESULT:      -6.1      2.934      5.680
  Name = 
  6 active torsions:
  status: ('A' for Active; 'I' for Inactive)
    1  A    between atoms: C_3  and  S_13
    2  A    between atoms: C_3  and  C_29
    3  A    between atoms: C_12  and  C_28
    4  A    between atoms: S_13  and  C_33
    5  A    between atoms: C_20  and  C_22
    6  A    between atoms: C_22  and  C_33
                            x       y       z     vdW  Elec       q    Type
                         _______ _______ _______ _____ _____    ______ ____

>  <TORSDO>
F 6

$$$$
=
 OpenBabel11062408133D

 34 38  0  0  1  0  0  0  0  0999 V2000
  160.4060  213.0290  150.6440 C   0  0  0  0  0  0  0  0  0  0  0  0
  161.9770  212.3120  148.9240 C   0  0  0  0  0  0  0  0  0  0  0  0
  161.2680  210.7560  150.7850 C   0  0  0  0  0  0  0  0  0  0  0  0
  161.3430  208.2320  150.9650 C   0  0  1  0  0  3  0  0  0  0  0  0
  160.1950  214.2200  149.9470 C   0  0  0  0  0  3  0  0  0  0  0  0
  161.7550  213.5180  148.2520 C   0  0  0  0  0  3  0  0  0  0  0  0
  161.3020  209.2290  148.7480 C   0  0  0  0  0  2  0  0  0  0  0  0
  161.2270  212.0050  150.0960 C   0  0  0  0  0  0  0  0  0  0  0  0
  161.9980  207.9970  148.1630 C   0  0  0  0  0  2  0  0  0  0  0  0
  162.0770  206.9920  150.4790 C   0  0  0  0  0  2  0  0  0  0  0  0
  160.8470  214.4530  148.7410 C   0  0  0  0  0  3  0  0  0  0  0  0
  160.7930  210.7050  152.1170 C   0  0  0  0  0  0  0  0  0  0  0  0
  159.8520  212.8860  151.8740 N   0  0  0  0  0  0  0  0  0  0  0  0
  163.3820  211.3990  148.3830 Cl  0  0  0  0  0  0  0  0  0  0  0  0
  161.4630  208.4110  152.4040 N   0  0  0  0  0  0  0  0  0  0  0  0
  161.1150  209.5270  152.9680 C   0  0  0  0  0  0  0  0  0  0  0  0
  161.7130  206.7530  149.0110 C   0  0  2  0  0  3  0  0  0  0  0  0
  161.8070  209.4650  150.1750 C   0  0  1  0  0  3  0  0  0  0  0  0
  160.0650  211.7810  152.6270 C   0  0  0  0  0  3  0  0  0  0  0  0
  162.3670  210.5070  156.4670 C   0  0  2  0  0  3  0  0  0  0  0  0
  162.3780  209.1100  157.0800 C   0  0  0  0  0  2  0  0  0  0  0  0
  161.1570  209.6040  154.4650 C   0  0  2  0  0  3  0  0  0  0  0  0
  161.1540  208.3240  156.6210 C   0  0  0  0  0  2  0  0  0  0  0  0
  162.3620  210.4150  154.9440 C   0  0  0  0  0  2  0  0  0  0  0  0
  161.1390  208.2120  155.0990 C   0  0  0  0  0  2  0  0  0  0  0  0
  163.4850  211.2020  156.8830 F   0  0  0  0  0  0  0  0  0  0  0  0
  162.4940  205.5740  148.4570 C   0  0  0  0  0  2  0  0  0  0  0  0
  161.3770  204.1960  148.0510 S   0  0  0  0  0  0  0  0  0  0  0  0
  161.2600  203.1880  145.6190 O   0  0  0  0  0  1  0  0  0  0  0  0
  162.1310  203.9290  146.4200 C   0  0  1  0  0  3  0  0  0  0  0  0
  162.4110  205.2740  145.7720 C   0  0  0  0  0  2  0  0  0  0  0  0
  160.1520  206.2760  145.4450 O   0  0  0  0  0  1  0  0  0  0  0  0
  161.2760  205.6760  144.8950 C   0  0  0  0  0  0  0  0  0  0  0  0
  161.3470  205.4990  143.6510 O   0  0  0  0  0  0  0  0  0  0  0  0
  1 13  1  0  0  0  0
  2  8  1  0  0  0  0
  3 12  2  0  0  0  0
  4 10  1  6  0  0  0
  4 15  1  0  0  0  0
  5  1  1  0  0  0  0
  6 11  1  0  0  0  0
  6  2  2  0  0  0  0
  8  1  2  0  0  0  0
  8  3  1  0  0  0  0
  9  7  1  0  0  0  0
  9 17  1  0  0  0  0
 11  5  2  0  0  0  0
 12 19  1  0  0  0  0
 12 16  1  0  0  0  0
 13 19  2  0  0  0  0
 14  2  1  0  0  0  0
 15 16  2  0  0  0  0
 17 27  1  6  0  0  0
 17 10  1  0  0  0  0
 18  7  1  6  0  0  0
 18  3  1  0  0  0  0
 18  4  1  0  0  0  0
 20 26  1  6  0  0  0
 20 21  1  0  0  0  0
 22 16  1  6  0  0  0
 22 24  1  0  0  0  0
 22 25  1  0  0  0  0
 23 21  1  0  0  0  0
 24 20  1  0  0  0  0
 25 23  1  0  0  0  0
 28 27  1  0  0  0  0
 30 29  1  6  0  0  0
 30 28  1  0  0  0  0
 31 30  1  0  0  0  0
 33 32  1  0  0  0  0
 33 31  1  0  0  0  0
 34 33  2  0  0  0  0
M  END
>  <MODEL>
5

>  <REMARK>
 VINA RESULT:      -6.0      3.745      6.213
  Name = 
  6 active torsions:
  status: ('A' for Active; 'I' for Inactive)
    1  A    between atoms: C_3  and  S_13
    2  A    between atoms: C_3  and  C_29
    3  A    between atoms: C_12  and  C_28
    4  A    between atoms: S_13  and  C_33
    5  A    between atoms: C_20  and  C_22
    6  A    between atoms: C_22  and  C_33
                            x       y       z     vdW  Elec       q    Type
                         _______ _______ _______ _____ _____    ______ ____

>  <TORSDO>
F 6

$$$$
=
 OpenBabel11062408133D

 34 38  0  0  1  0  0  0  0  0999 V2000
  160.6440  207.7980  154.9780 C   0  0  0  0  0  0  0  0  0  0  0  0
  162.0330  209.7700  154.6280 C   0  0  0  0  0  0  0  0  0  0  0  0
  161.4530  208.2190  152.7190 C   0  0  0  0  0  0  0  0  0  0  0  0
  161.4750  208.5790  150.2150 C   0  0  1  0  0  3  0  0  0  0  0  0
  160.4030  208.2070  156.2910 C   0  0  0  0  0  3  0  0  0  0  0  0
  161.7840  210.1500  155.9500 C   0  0  0  0  0  3  0  0  0  0  0  0
  161.2610  210.5240  151.6570 C   0  0  0  0  0  2  0  0  0  0  0  0
  161.3840  208.6230  154.0860 C   0  0  0  0  0  0  0  0  0  0  0  0
  161.8670  211.4170  150.5720 C   0  0  0  0  0  2  0  0  0  0  0  0
  162.1270  209.3800  149.1000 C   0  0  0  0  0  2  0  0  0  0  0  0
  160.9500  209.3930  156.7680 C   0  0  0  0  0  3  0  0  0  0  0  0
  161.0990  206.8880  152.3930 C   0  0  0  0  0  0  0  0  0  0  0  0
  160.2000  206.5790  154.5820 N   0  0  0  0  0  0  0  0  0  0  0  0
  163.3580  210.6210  153.8390 Cl  0  0  0  0  0  0  0  0  0  0  0  0
  161.7290  207.1520  150.0840 N   0  0  0  0  0  0  0  0  0  0  0  0
  161.4640  206.3370  151.0580 C   0  0  0  0  0  0  0  0  0  0  0  0
  161.6260  210.8260  149.1790 C   0  0  2  0  0  3  0  0  0  0  0  0
  161.8990  209.1330  151.5830 C   0  0  1  0  0  3  0  0  0  0  0  0
  160.4500  206.0970  153.3420 C   0  0  0  0  0  3  0  0  0  0  0  0
  161.3330  202.9700  149.2090 C   0  0  2  0  0  3  0  0  0  0  0  0
  160.6600  202.1560  150.3110 C   0  0  0  0  0  2  0  0  0  0  0  0
  161.6440  204.8670  150.8180 C   0  0  2  0  0  3  0  0  0  0  0  0
  161.2250  202.5480  151.6730 C   0  0  0  0  0  2  0  0  0  0  0  0
  161.1100  204.4610  149.4430 C   0  0  0  0  0  2  0  0  0  0  0  0
  161.0010  204.0360  151.9300 C   0  0  0  0  0  2  0  0  0  0  0  0
  160.8050  202.6120  147.9840 F   0  0  0  0  0  0  0  0  0  0  0  0
  162.3210  211.6850  148.1370 C   0  0  0  0  0  2  0  0  0  0  0  0
  161.7480  213.4100  148.2390 S   0  0  0  0  0  0  0  0  0  0  0  0
  159.1380  213.5270  148.5810 O   0  0  0  0  0  1  0  0  0  0  0  0
  160.0680  212.9930  147.6860 C   0  0  1  0  0  3  0  0  0  0  0  0
  159.8400  213.5670  146.3000 C   0  0  0  0  0  2  0  0  0  0  0  0
  159.7870  211.8970  144.4500 O   0  0  0  0  0  0  0  0  0  0  0  0
  159.1110  212.5900  145.4440 C   0  0  0  0  0  0  0  0  0  0  0  0
  157.8870  212.3710  145.6400 O   0  0  0  0  0  1  0  0  0  0  0  0
  1  5  2  0  0  0  0
  2  6  1  0  0  0  0
  3  8  1  0  0  0  0
  4 10  1  6  0  0  0
  4 18  1  0  0  0  0
  5 11  1  0  0  0  0
  6 11  2  0  0  0  0
  8  2  2  0  0  0  0
  8  1  1  0  0  0  0
  9  7  1  0  0  0  0
 10 17  1  0  0  0  0
 12  3  2  0  0  0  0
 12 19  1  0  0  0  0
 13  1  1  0  0  0  0
 14  2  1  0  0  0  0
 15  4  1  0  0  0  0
 15 16  2  0  0  0  0
 16 12  1  0  0  0  0
 17 27  1  6  0  0  0
 17  9  1  0  0  0  0
 18  7  1  1  0  0  0
 18  3  1  0  0  0  0
 19 13  2  0  0  0  0
 20 26  1  6  0  0  0
 20 24  1  0  0  0  0
 20 21  1  0  0  0  0
 21 23  1  0  0  0  0
 22 16  1  1  0  0  0
 22 25  1  0  0  0  0
 23 25  1  0  0  0  0
 24 22  1  0  0  0  0
 27 28  1  0  0  0  0
 30 28  1  0  0  0  0
 30 29  1  1  0  0  0
 31 30  1  0  0  0  0
 32 33  2  0  0  0  0
 33 34  1  0  0  0  0
 33 31  1  0  0  0  0
M  END
>  <MODEL>
6

>  <REMARK>
 VINA RESULT:      -6.0      2.882      5.530
  Name = 
  6 active torsions:
  status: ('A' for Active; 'I' for Inactive)
    1  A    between atoms: C_3  and  S_13
    2  A    between atoms: C_3  and  C_29
    3  A    between atoms: C_12  and  C_28
    4  A    between atoms: S_13  and  C_33
    5  A    between atoms: C_20  and  C_22
    6  A    between atoms: C_22  and  C_33
                            x       y       z     vdW  Elec       q    Type
                         _______ _______ _______ _____ _____    ______ ____

>  <TORSDO>
F 6

$$$$
=
 OpenBabel11062408133D

 34 38  0  0  1  0  0  0  0  0999 V2000
  160.8610  212.0790  150.3110 C   0  0  0  0  0  0  0  0  0  0  0  0
  162.2400  210.8230  148.7420 C   0  0  0  0  0  0  0  0  0  0  0  0
  161.3030  209.7390  150.8240 C   0  0  0  0  0  0  0  0  0  0  0  0
  160.9260  207.3070  151.4100 C   0  0  1  0  0  3  0  0  0  0  0  0
  160.8530  213.1610  149.4290 C   0  0  0  0  0  3  0  0  0  0  0  0
  162.2240  211.9250  147.8820 C   0  0  0  0  0  3  0  0  0  0  0  0
  161.0160  207.9250  149.0610 C   0  0  0  0  0  2  0  0  0  0  0  0
  161.4730  210.8490  149.9420 C   0  0  0  0  0  0  0  0  0  0  0  0
  161.4660  206.5100  148.6880 C   0  0  0  0  0  2  0  0  0  0  0  0
  161.4130  205.8930  151.1370 C   0  0  0  0  0  2  0  0  0  0  0  0
  161.5100  213.0760  148.2060 C   0  0  0  0  0  3  0  0  0  0  0  0
  160.8560  209.9910  152.1430 C   0  0  0  0  0  0  0  0  0  0  0  0
  160.3180  212.2380  151.5430 N   0  0  0  0  0  0  0  0  0  0  0  0
  163.4450  209.5950  148.3660 Cl  0  0  0  0  0  0  0  0  0  0  0  0
  161.1080  207.6890  152.8030 N   0  0  0  0  0  0  0  0  0  0  0  0
  160.9780  208.9250  153.1760 C   0  0  0  0  0  0  0  0  0  0  0  0
  160.9800  205.4910  149.7240 C   0  0  2  0  0  3  0  0  0  0  0  0
  161.5870  208.2920  150.4350 C   0  0  1  0  0  3  0  0  0  0  0  0
  160.3450  211.2480  152.4670 C   0  0  0  0  0  3  0  0  0  0  0  0
  162.3130  210.4620  156.4360 C   0  0  2  0  0  3  0  0  0  0  0  0
  162.3870  209.1760  157.2550 C   0  0  0  0  0  2  0  0  0  0  0  0
  161.0670  209.2330  154.6410 C   0  0  2  0  0  3  0  0  0  0  0  0
  161.1730  208.2990  156.9660 C   0  0  0  0  0  2  0  0  0  0  0  0
  162.2620  210.1370  154.9460 C   0  0  0  0  0  2  0  0  0  0  0  0
  161.1110  207.9540  155.4800 C   0  0  0  0  0  2  0  0  0  0  0  0
  163.4230  211.2410  156.7000 F   0  0  0  0  0  0  0  0  0  0  0  0
  161.5240  204.1160  149.3750 C   0  0  0  0  0  2  0  0  0  0  0  0
  160.8310  202.8500  150.4840 S   0  0  0  0  0  0  0  0  0  0  0  0
  159.2130  201.3270  149.0690 O   0  0  0  0  0  1  0  0  0  0  0  0
  160.5660  201.6640  149.1330 C   0  0  1  0  0  3  0  0  0  0  0  0
  161.0050  202.2920  147.8230 C   0  0  0  0  0  2  0  0  0  0  0  0
  161.2200  199.9940  146.8800 O   0  0  0  0  0  1  0  0  0  0  0  0
  160.8550  201.3210  146.7030 C   0  0  0  0  0  0  0  0  0  0  0  0
  160.3700  201.6970  145.6040 O   0  0  0  0  0  0  0  0  0  0  0  0
  1 13  1  0  0  0  0
  2  8  1  0  0  0  0
  3 12  2  0  0  0  0
  4 10  1  1  0  0  0
  4 15  1  0  0  0  0
  5  1  1  0  0  0  0
  6 11  1  0  0  0  0
  6  2  2  0  0  0  0
  8  1  2  0  0  0  0
  8  3  1  0  0  0  0
  9  7  1  0  0  0  0
  9 17  1  0  0  0  0
 11  5  2  0  0  0  0
 12 19  1  0  0  0  0
 12 16  1  0  0  0  0
 13 19  2  0  0  0  0
 14  2  1  0  0  0  0
 15 16  2  0  0  0  0
 17 27  1  6  0  0  0
 17 10  1  0  0  0  0
 18  7  1  6  0  0  0
 18  3  1  0  0  0  0
 18  4  1  0  0  0  0
 20 26  1  6  0  0  0
 20 21  1  0  0  0  0
 22 16  1  6  0  0  0
 22 24  1  0  0  0  0
 22 25  1  0  0  0  0
 23 21  1  0  0  0  0
 24 20  1  0  0  0  0
 25 23  1  0  0  0  0
 27 28  1  0  0  0  0
 30 29  1  6  0  0  0
 30 28  1  0  0  0  0
 31 30  1  0  0  0  0
 33 32  1  0  0  0  0
 33 31  1  0  0  0  0
 34 33  2  0  0  0  0
M  END
>  <MODEL>
7

>  <REMARK>
 VINA RESULT:      -5.9      4.398      6.968
  Name = 
  6 active torsions:
  status: ('A' for Active; 'I' for Inactive)
    1  A    between atoms: C_3  and  S_13
    2  A    between atoms: C_3  and  C_29
    3  A    between atoms: C_12  and  C_28
    4  A    between atoms: S_13  and  C_33
    5  A    between atoms: C_20  and  C_22
    6  A    between atoms: C_22  and  C_33
                            x       y       z     vdW  Elec       q    Type
                         _______ _______ _______ _____ _____    ______ ____

>  <TORSDO>
F 6

$$$$
=
 OpenBabel11062408133D

 34 38  0  0  1  0  0  0  0  0999 V2000
  161.1080  209.4220  155.8720 C   0  0  0  0  0  0  0  0  0  0  0  0
  160.7930  207.2170  154.8800 C   0  0  0  0  0  0  0  0  0  0  0  0
  160.9740  209.2890  153.4430 C   0  0  0  0  0  0  0  0  0  0  0  0
  161.5540  209.5730  150.9960 C   0  0  1  0  0  3  0  0  0  0  0  0
  161.2650  208.8290  157.1250 C   0  0  0  0  0  3  0  0  0  0  0  0
  160.9430  206.6510  156.1490 C   0  0  0  0  0  3  0  0  0  0  0  0
  162.3280  207.5720  152.1390 C   0  0  0  0  0  2  0  0  0  0  0  0
  160.9670  208.6210  154.7040 C   0  0  0  0  0  0  0  0  0  0  0  0
  162.3700  206.8090  150.8120 C   0  0  0  0  0  2  0  0  0  0  0  0
  161.5210  208.8820  149.6420 C   0  0  0  0  0  2  0  0  0  0  0  0
  161.2090  207.4460  157.2610 C   0  0  0  0  0  3  0  0  0  0  0  0
  160.7700  210.6890  153.4220 C   0  0  0  0  0  0  0  0  0  0  0  0
  161.0440  210.7740  155.7920 N   0  0  0  0  0  0  0  0  0  0  0  0
  160.1280  206.1430  153.6520 Cl  0  0  0  0  0  0  0  0  0  0  0  0
  160.7360  210.7760  151.0160 N   0  0  0  0  0  0  0  0  0  0  0  0
  160.4460  211.3650  152.1350 C   0  0  0  0  0  0  0  0  0  0  0  0
  162.5750  207.7700  149.6360 C   0  0  2  0  0  3  0  0  0  0  0  0
  161.1760  208.5810  152.1060 C   0  0  1  0  0  3  0  0  0  0  0  0
  160.8350  211.4100  154.6150 C   0  0  0  0  0  3  0  0  0  0  0  0
  157.6530  213.9180  152.8100 C   0  0  2  0  0  3  0  0  0  0  0  0
  157.3940  214.3270  151.3630 C   0  0  0  0  0  2  0  0  0  0  0  0
  159.6950  212.6620  152.0770 C   0  0  2  0  0  3  0  0  0  0  0  0
  158.7140  214.4390  150.6050 C   0  0  0  0  0  2  0  0  0  0  0  0
  158.3830  212.5790  152.8580 C   0  0  0  0  0  2  0  0  0  0  0  0
  159.4530  213.1040  150.6320 C   0  0  0  0  0  2  0  0  0  0  0  0
  156.4510  213.8110  153.4810 F   0  0  0  0  0  0  0  0  0  0  0  0
  162.5150  206.9920  148.3320 C   0  0  0  0  0  2  0  0  0  0  0  0
  160.9170  206.1370  148.1650 S   0  0  0  0  0  0  0  0  0  0  0  0
  162.9150  205.1780  146.7410 O   0  0  0  0  0  1  0  0  0  0  0  0
  161.6020  204.8490  147.0830 C   0  0  1  0  0  3  0  0  0  0  0  0
  161.5750  203.5170  147.8100 C   0  0  0  0  0  2  0  0  0  0  0  0
  160.6850  201.2180  147.4420 O   0  0  0  0  0  1  0  0  0  0  0  0
  161.0690  202.4420  146.9120 C   0  0  0  0  0  0  0  0  0  0  0  0
  160.9620  202.6520  145.6760 O   0  0  0  0  0  0  0  0  0  0  0  0
  1  5  2  0  0  0  0
  2  6  1  0  0  0  0
  3  8  1  0  0  0  0
  4 10  1  6  0  0  0
  4 15  1  0  0  0  0
  4 18  1  0  0  0  0
  5 11  1  0  0  0  0
  6 11  2  0  0  0  0
  8  2  2  0  0  0  0
  8  1  1  0  0  0  0
  9  7  1  0  0  0  0
 12  3  2  0  0  0  0
 12 19  1  0  0  0  0
 13  1  1  0  0  0  0
 14  2  1  0  0  0  0
 15 16  2  0  0  0  0
 16 12  1  0  0  0  0
 17 27  1  6  0  0  0
 17 10  1  0  0  0  0
 17  9  1  0  0  0  0
 18  7  1  1  0  0  0
 18  3  1  0  0  0  0
 19 13  2  0  0  0  0
 20 24  1  0  0  0  0
 20 26  1  1  0  0  0
 21 20  1  0  0  0  0
 22 16  1  6  0  0  0
 22 24  1  0  0  0  0
 23 25  1  0  0  0  0
 23 21  1  0  0  0  0
 25 22  1  0  0  0  0
 28 27  1  0  0  0  0
 30 29  1  1  0  0  0
 30 31  1  0  0  0  0
 30 28  1  0  0  0  0
 33 32  1  0  0  0  0
 33 31  1  0  0  0  0
 34 33  2  0  0  0  0
M  END
>  <MODEL>
8

>  <REMARK>
 VINA RESULT:      -5.8      4.099      6.215
  Name = 
  6 active torsions:
  status: ('A' for Active; 'I' for Inactive)
    1  A    between atoms: C_3  and  S_13
    2  A    between atoms: C_3  and  C_29
    3  A    between atoms: C_12  and  C_28
    4  A    between atoms: S_13  and  C_33
    5  A    between atoms: C_20  and  C_22
    6  A    between atoms: C_22  and  C_33
                            x       y       z     vdW  Elec       q    Type
                         _______ _______ _______ _____ _____    ______ ____

>  <TORSDO>
F 6

$$$$
=
 OpenBabel11062408133D

 34 38  0  0  1  0  0  0  0  0999 V2000
  160.5360  213.0560  150.3790 C   0  0  0  0  0  0  0  0  0  0  0  0
  162.1240  212.2670  148.7060 C   0  0  0  0  0  0  0  0  0  0  0  0
  161.3450  210.7670  150.5860 C   0  0  0  0  0  0  0  0  0  0  0  0
  161.3610  208.2480  150.8220 C   0  0  1  0  0  3  0  0  0  0  0  0
  160.3650  214.2350  149.6530 C   0  0  0  0  0  3  0  0  0  0  0  0
  161.9410  213.4620  148.0040 C   0  0  0  0  0  3  0  0  0  0  0  0
  161.3840  209.1960  148.5840 C   0  0  0  0  0  2  0  0  0  0  0  0
  161.3450  212.0020  149.8700 C   0  0  0  0  0  0  0  0  0  0  0  0
  162.0640  207.9370  148.0390 C   0  0  0  0  0  2  0  0  0  0  0  0
  162.0760  206.9820  150.3780 C   0  0  0  0  0  2  0  0  0  0  0  0
  161.0450  214.4270  148.4550 C   0  0  0  0  0  3  0  0  0  0  0  0
  160.8440  210.7570  151.9090 C   0  0  0  0  0  0  0  0  0  0  0  0
  159.9570  212.9510  151.6010 N   0  0  0  0  0  0  0  0  0  0  0  0
  163.5190  211.3110  148.2120 Cl  0  0  0  0  0  0  0  0  0  0  0  0
  161.4580  208.4560  152.2600 N   0  0  0  0  0  0  0  0  0  0  0  0
  161.1230  209.5910  152.7920 C   0  0  0  0  0  0  0  0  0  0  0  0
  161.7350  206.7180  148.9080 C   0  0  2  0  0  3  0  0  0  0  0  0
  161.8670  209.4530  150.0150 C   0  0  1  0  0  3  0  0  0  0  0  0
  160.1300  211.8590  152.3820 C   0  0  0  0  0  3  0  0  0  0  0  0
  162.3810  210.5370  156.2980 C   0  0  2  0  0  3  0  0  0  0  0  0
  162.2500  209.1600  156.9430 C   0  0  0  0  0  2  0  0  0  0  0  0
  161.1390  209.7010  154.2880 C   0  0  2  0  0  3  0  0  0  0  0  0
  160.9690  208.4790  156.4700 C   0  0  0  0  0  2  0  0  0  0  0  0
  162.4020  210.4100  154.7780 C   0  0  0  0  0  2  0  0  0  0  0  0
  160.9780  208.3320  154.9510 C   0  0  0  0  0  2  0  0  0  0  0  0
  163.5480  211.1380  156.7270 F   0  0  0  0  0  0  0  0  0  0  0  0
  162.5010  205.5100  148.3960 C   0  0  0  0  0  2  0  0  0  0  0  0
  162.1790  205.2490  146.6230 S   0  0  0  0  0  0  0  0  0  0  0  0
  161.2920  202.8940  145.8430 O   0  0  0  0  0  1  0  0  0  0  0  0
  161.1620  203.7730  146.9200 C   0  0  1  0  0  3  0  0  0  0  0  0
  161.6230  203.0960  148.1980 C   0  0  0  0  0  2  0  0  0  0  0  0
  161.5090  200.6060  148.1990 O   0  0  0  0  0  0  0  0  0  0  0  0
  160.8790  201.8230  148.4120 C   0  0  0  0  0  0  0  0  0  0  0  0
  159.6860  201.8510  148.8140 O   0  0  0  0  0  1  0  0  0  0  0  0
  1 13  1  0  0  0  0
  2  8  1  0  0  0  0
  3 12  2  0  0  0  0
  4 10  1  6  0  0  0
  4 15  1  0  0  0  0
  5  1  1  0  0  0  0
  6 11  1  0  0  0  0
  6  2  2  0  0  0  0
  8  1  2  0  0  0  0
  8  3  1  0  0  0  0
  9  7  1  0  0  0  0
  9 17  1  0  0  0  0
 11  5  2  0  0  0  0
 12 19  1  0  0  0  0
 12 16  1  0  0  0  0
 13 19  2  0  0  0  0
 14  2  1  0  0  0  0
 15 16  2  0  0  0  0
 17 27  1  6  0  0  0
 17 10  1  0  0  0  0
 18  7  1  6  0  0  0
 18  3  1  0  0  0  0
 18  4  1  0  0  0  0
 20 26  1  1  0  0  0
 20 21  1  0  0  0  0
 22 16  1  6  0  0  0
 22 24  1  0  0  0  0
 22 25  1  0  0  0  0
 23 21  1  0  0  0  0
 24 20  1  0  0  0  0
 25 23  1  0  0  0  0
 28 30  1  0  0  0  0
 28 27  1  0  0  0  0
 30 29  1  6  0  0  0
 30 31  1  0  0  0  0
 31 33  1  0  0  0  0
 32 33  2  0  0  0  0
 33 34  1  0  0  0  0
M  END
>  <MODEL>
9

>  <REMARK>
 VINA RESULT:      -5.8      4.235      6.870
  Name = 
  6 active torsions:
  status: ('A' for Active; 'I' for Inactive)
    1  A    between atoms: C_3  and  S_13
    2  A    between atoms: C_3  and  C_29
    3  A    between atoms: C_12  and  C_28
    4  A    between atoms: S_13  and  C_33
    5  A    between atoms: C_20  and  C_22
    6  A    between atoms: C_22  and  C_33
                            x       y       z     vdW  Elec       q    Type
                         _______ _______ _______ _____ _____    ______ ____

>  <TORSDO>
F 6

$$$$
