=
 OpenBabel11062410373D

 32 37  0  0  1  0  0  0  0  0999 V2000
  162.1210  204.7740  146.5050 C   0  0  2  0  0  3  0  0  0  0  0  0
  161.4570  206.6630  150.3970 C   0  0  0  0  0  0  0  0  0  0  0  0
  162.3230  210.9800  148.4330 C   0  0  0  0  0  3  0  0  0  0  0  0
  162.0950  211.5920  149.6650 C   0  0  0  0  0  3  0  0  0  0  0  0
  160.9020  206.5540  152.8400 C   0  0  0  0  0  0  0  0  0  0  0  0
  160.6900  207.2570  154.0260 C   0  0  0  0  0  0  0  0  0  0  0  0
  161.9480  204.6040  149.0020 C   0  0  2  0  0  3  0  0  0  0  0  0
  162.1250  206.8400  147.9330 C   0  0  0  0  0  2  0  0  0  0  0  0
  160.5490  209.1720  155.4100 C   0  0  2  0  0  3  0  0  0  0  0  0
  163.5040  204.7080  146.5460 F   0  0  0  0  0  0  0  0  0  0  0  0
  162.2170  209.6300  148.3280 N   0  0  0  0  0  0  0  0  0  0  0  0
  161.7810  207.4630  149.2670 C   0  0  0  0  0  0  0  0  0  0  0  0
  161.8900  208.8540  149.3990 C   0  0  0  0  0  0  0  0  0  0  0  0
  161.3350  208.7050  151.7640 C   0  0  0  0  0  0  0  0  0  0  0  0
  160.2800  207.9280  156.2690 C   0  0  0  0  0  3  0  0  0  0  0  0
  161.4300  202.5860  147.6280 C   0  0  0  0  0  3  0  0  0  0  0  0
  161.5740  205.4310  147.7760 C   0  0  1  0  0  3  0  0  0  0  0  0
  160.3540  206.6950  155.3530 C   0  0  0  0  0  3  0  0  0  0  0  0
  161.5760  203.1550  148.8330 C   0  0  0  0  0  3  0  0  0  0  0  0
  161.5460  203.3620  146.3300 C   0  0  1  0  0  3  0  0  0  0  0  0
  161.7700  210.8270  150.7390 N   0  0  0  0  0  0  0  0  0  0  0  0
  161.6610  209.4730  150.6420 C   0  0  0  0  0  0  0  0  0  0  0  0
  161.1170  209.3270  152.9590 N   0  0  0  0  0  0  0  0  0  0  0  0
  161.2380  205.1760  150.2180 C   0  0  0  0  0  2  0  0  0  0  0  0
  160.7960  205.1680  152.8590 O   0  0  0  0  0  1  0  0  0  0  0  0
  159.3110  210.0500  155.3930 C   0  0  0  0  0  1  0  0  0  0  0  0
  161.2280  207.2830  151.6590 C   0  0  0  0  0  0  0  0  0  0  0  0
  160.7930  208.6130  154.0630 C   0  0  0  0  0  0  0  0  0  0  0  0
  160.2410  203.3830  145.5250 C   0  0  2  0  0  3  0  0  0  0  0  0
  159.8900  202.0210  144.9380 C   0  0  0  0  0  1  0  0  0  0  0  0
  160.3050  204.4370  144.4300 C   0  0  0  0  0  2  0  0  0  0  0  0
  159.7450  205.6330  144.8850 O   0  0  0  0  0  1  0  0  0  0  0  0
  1 10  1  1  0  0  0
  1 17  1  0  0  0  0
  2 27  1  0  0  0  0
  3  4  1  0  0  0  0
  4 21  2  0  0  0  0
  5 25  1  0  0  0  0
  5  6  1  0  0  0  0
  6 28  2  0  0  0  0
  6 18  1  0  0  0  0
  7 19  1  6  0  0  0
  7 24  1  0  0  0  0
  8 12  1  0  0  0  0
  9 26  1  6  0  0  0
  9 15  1  0  0  0  0
 11  3  2  0  0  0  0
 11 13  1  0  0  0  0
 12 13  1  0  0  0  0
 12  2  2  0  0  0  0
 13 22  2  0  0  0  0
 14 23  2  0  0  0  0
 16 19  2  0  0  0  0
 17  8  1  1  0  0  0
 17  7  1  0  0  0  0
 18 15  2  0  0  0  0
 20 29  1  1  0  0  0
 20  1  1  0  0  0  0
 20 16  1  0  0  0  0
 22 21  1  0  0  0  0
 22 14  1  0  0  0  0
 23 28  1  0  0  0  0
 24  2  1  0  0  0  0
 27 14  1  0  0  0  0
 27  5  2  0  0  0  0
 28  9  1  0  0  0  0
 29 30  1  6  0  0  0
 31 32  1  0  0  0  0
 31 29  1  0  0  0  0
M  END
>  <MODEL>
1

>  <REMARK>
 VINA RESULT:      -9.8      0.000      0.000
  Name = 
  2 active torsions:
  status: ('A' for Active; 'I' for Inactive)
    1  A    between atoms: C_1  and  C_10
    2  A    between atoms: C_10  and  C_24
                            x       y       z     vdW  Elec       q    Type
                         _______ _______ _______ _____ _____    ______ ____

>  <TORSDO>
F 2

$$$$
=
 OpenBabel11062410373D

 32 37  0  0  1  0  0  0  0  0999 V2000
  160.9620  208.9230  153.8460 C   0  0  2  0  0  3  0  0  0  0  0  0
  161.2790  206.6570  150.1150 C   0  0  0  0  0  0  0  0  0  0  0  0
  160.7520  202.5480  152.5840 C   0  0  0  0  0  3  0  0  0  0  0  0
  160.8320  201.8200  151.3980 C   0  0  0  0  0  3  0  0  0  0  0  0
  161.5590  206.5250  147.6270 C   0  0  0  0  0  0  0  0  0  0  0  0
  161.6250  205.7110  146.4970 C   0  0  0  0  0  0  0  0  0  0  0  0
  161.6270  208.7960  151.4300 C   0  0  2  0  0  3  0  0  0  0  0  0
  161.0840  206.7100  152.6660 C   0  0  0  0  0  2  0  0  0  0  0  0
  161.6230  203.6690  145.2980 C   0  0  2  0  0  3  0  0  0  0  0  0
  162.2770  208.8050  154.2660 F   0  0  0  0  0  0  0  0  0  0  0  0
  160.8400  203.9030  152.5420 N   0  0  0  0  0  0  0  0  0  0  0  0
  161.0880  205.9720  151.3460 C   0  0  0  0  0  0  0  0  0  0  0  0
  161.0040  204.5730  151.3670 C   0  0  0  0  0  0  0  0  0  0  0  0
  161.2670  204.4910  148.9490 C   0  0  0  0  0  0  0  0  0  0  0  0
  161.8510  204.8190  144.3050 C   0  0  0  0  0  3  0  0  0  0  0  0
  161.0350  211.0220  152.3900 C   0  0  0  0  0  3  0  0  0  0  0  0
  160.7500  208.1870  152.5200 C   0  0  1  0  0  3  0  0  0  0  0  0
  161.8290  206.1380  145.0950 C   0  0  0  0  0  3  0  0  0  0  0  0
  161.4630  210.2910  151.3520 C   0  0  0  0  0  3  0  0  0  0  0  0
  160.6010  210.4090  153.7080 C   0  0  1  0  0  3  0  0  0  0  0  0
  160.9980  202.4780  150.2210 N   0  0  0  0  0  0  0  0  0  0  0  0
  161.0870  203.8360  150.1700 C   0  0  0  0  0  0  0  0  0  0  0  0
  161.3440  203.7550  147.8020 N   0  0  0  0  0  0  0  0  0  0  0  0
  161.2600  208.1700  150.0950 C   0  0  0  0  0  2  0  0  0  0  0  0
  161.6930  207.8990  147.4660 O   0  0  0  0  0  1  0  0  0  0  0  0
  160.3190  202.9680  144.9670 C   0  0  0  0  0  1  0  0  0  0  0  0
  161.3670  205.9160  148.9010 C   0  0  0  0  0  0  0  0  0  0  0  0
  161.5120  204.3590  146.6020 C   0  0  0  0  0  0  0  0  0  0  0  0
  159.1220  210.6580  154.0280 C   0  0  2  0  0  3  0  0  0  0  0  0
  158.4360  211.5380  152.9900 C   0  0  0  0  0  1  0  0  0  0  0  0
  158.9680  211.2540  155.4190 C   0  0  0  0  0  2  0  0  0  0  0  0
  160.1480  211.8970  155.7970 O   0  0  0  0  0  1  0  0  0  0  0  0
  1 10  1  6  0  0  0
  2 12  1  0  0  0  0
  4  3  1  0  0  0  0
  5 27  1  0  0  0  0
  6 28  1  0  0  0  0
  6  5  2  0  0  0  0
  7 24  1  6  0  0  0
  7 17  1  0  0  0  0
  9 26  1  6  0  0  0
  9 28  1  0  0  0  0
 11  3  2  0  0  0  0
 12 13  2  0  0  0  0
 12  8  1  0  0  0  0
 13 11  1  0  0  0  0
 14 22  2  0  0  0  0
 15 18  2  0  0  0  0
 15  9  1  0  0  0  0
 16 20  1  0  0  0  0
 17  8  1  1  0  0  0
 17  1  1  0  0  0  0
 18  6  1  0  0  0  0
 19  7  1  0  0  0  0
 19 16  2  0  0  0  0
 20  1  1  0  0  0  0
 20 29  1  6  0  0  0
 21  4  2  0  0  0  0
 22 21  1  0  0  0  0
 22 13  1  0  0  0  0
 23 14  1  0  0  0  0
 24  2  1  0  0  0  0
 25  5  1  0  0  0  0
 27 14  1  0  0  0  0
 27  2  2  0  0  0  0
 28 23  2  0  0  0  0
 29 30  1  6  0  0  0
 29 31  1  0  0  0  0
 31 32  1  0  0  0  0
M  END
>  <MODEL>
2

>  <REMARK>
 VINA RESULT:      -8.4      3.224      8.533
  Name = 
  2 active torsions:
  status: ('A' for Active; 'I' for Inactive)
    1  A    between atoms: C_1  and  C_10
    2  A    between atoms: C_10  and  C_24
                            x       y       z     vdW  Elec       q    Type
                         _______ _______ _______ _____ _____    ______ ____

>  <TORSDO>
F 2

$$$$
=
 OpenBabel11062410373D

 32 37  0  0  1  0  0  0  0  0999 V2000
  162.3280  205.6580  150.9340 C   0  0  2  0  0  3  0  0  0  0  0  0
  160.6150  209.2560  152.7450 C   0  0  0  0  0  0  0  0  0  0  0  0
  161.9420  211.8150  148.8800 C   0  0  0  0  0  3  0  0  0  0  0  0
  161.3830  212.9620  149.4410 C   0  0  0  0  0  3  0  0  0  0  0  0
  159.4190  210.4380  154.6040 C   0  0  0  0  0  0  0  0  0  0  0  0
  158.8860  211.6350  155.0800 C   0  0  0  0  0  0  0  0  0  0  0  0
  161.4850  206.8830  152.9540 C   0  0  2  0  0  3  0  0  0  0  0  0
  161.9250  208.1360  150.8530 C   0  0  0  0  0  2  0  0  0  0  0  0
  158.3570  213.9420  155.0210 C   0  0  2  0  0  3  0  0  0  0  0  0
  163.6490  205.8550  151.3030 F   0  0  0  0  0  0  0  0  0  0  0  0
  161.8810  210.6410  149.5600 N   0  0  0  0  0  0  0  0  0  0  0  0
  161.2260  209.3290  151.4630 C   0  0  0  0  0  0  0  0  0  0  0  0
  161.2820  210.5530  150.7810 C   0  0  0  0  0  0  0  0  0  0  0  0
  160.1080  211.6580  152.6030 C   0  0  0  0  0  0  0  0  0  0  0  0
  157.8770  213.3650  156.3610 C   0  0  0  0  0  3  0  0  0  0  0  0
  161.3780  204.3900  152.9380 C   0  0  0  0  0  3  0  0  0  0  0  0
  161.4500  206.8100  151.4300 C   0  0  1  0  0  3  0  0  0  0  0  0
  158.2080  211.8630  156.3750 C   0  0  0  0  0  3  0  0  0  0  0  0
  161.1860  205.5490  153.5840 C   0  0  0  0  0  3  0  0  0  0  0  0
  161.8350  204.3170  151.4930 C   0  0  1  0  0  3  0  0  0  0  0  0
  160.7850  212.8850  150.6590 N   0  0  0  0  0  0  0  0  0  0  0  0
  160.7190  211.7120  151.3470 C   0  0  0  0  0  0  0  0  0  0  0  0
  159.5680  212.7950  153.1310 N   0  0  0  0  0  0  0  0  0  0  0  0
  160.4670  207.9100  153.4220 C   0  0  0  0  0  2  0  0  0  0  0  0
  159.3240  209.3040  155.4020 O   0  0  0  0  0  1  0  0  0  0  0  0
  157.1630  214.4430  154.2310 C   0  0  0  0  0  1  0  0  0  0  0  0
  160.0470  210.4260  153.3250 C   0  0  0  0  0  0  0  0  0  0  0  0
  158.9630  212.7760  154.3420 C   0  0  0  0  0  0  0  0  0  0  0  0
  160.7980  203.6700  150.5680 C   0  0  2  0  0  3  0  0  0  0  0  0
  160.8680  202.1480  150.5790 C   0  0  0  0  0  1  0  0  0  0  0  0
  160.9400  204.2010  149.1500 C   0  0  0  0  0  2  0  0  0  0  0  0
  161.2130  203.1520  148.2710 O   0  0  0  0  0  1  0  0  0  0  0  0
  1 10  1  1  0  0  0
  1 17  1  0  0  0  0
  1 20  1  0  0  0  0
  2 27  1  0  0  0  0
  2 24  1  0  0  0  0
  3  4  2  0  0  0  0
  3 11  1  0  0  0  0
  4 21  1  0  0  0  0
  5  6  1  0  0  0  0
  5 25  1  0  0  0  0
  6 18  1  0  0  0  0
  7 24  1  1  0  0  0
  7 19  1  0  0  0  0
  8 12  1  0  0  0  0
  9 26  1  6  0  0  0
  9 15  1  0  0  0  0
 11 13  2  0  0  0  0
 12  2  2  0  0  0  0
 13 22  1  0  0  0  0
 13 12  1  0  0  0  0
 14 23  2  0  0  0  0
 14 27  1  0  0  0  0
 15 18  2  0  0  0  0
 16 19  2  0  0  0  0
 17  8  1  6  0  0  0
 17  7  1  0  0  0  0
 20 29  1  6  0  0  0
 20 16  1  0  0  0  0
 21 22  2  0  0  0  0
 22 14  1  0  0  0  0
 23 28  1  0  0  0  0
 27  5  2  0  0  0  0
 28  9  1  0  0  0  0
 28  6  2  0  0  0  0
 29 30  1  6  0  0  0
 31 29  1  0  0  0  0
 32 31  1  0  0  0  0
M  END
>  <MODEL>
3

>  <REMARK>
 VINA RESULT:      -7.5      2.616      4.305
  Name = 
  2 active torsions:
  status: ('A' for Active; 'I' for Inactive)
    1  A    between atoms: C_1  and  C_10
    2  A    between atoms: C_10  and  C_24
                            x       y       z     vdW  Elec       q    Type
                         _______ _______ _______ _____ _____    ______ ____

>  <TORSDO>
F 2

$$$$
=
 OpenBabel11062410373D

 32 37  0  0  1  0  0  0  0  0999 V2000
  160.4640  211.0970  155.2360 C   0  0  2  0  0  3  0  0  0  0  0  0
  161.0030  208.4120  151.8220 C   0  0  0  0  0  0  0  0  0  0  0  0
  161.8860  212.2130  148.9910 C   0  0  0  0  0  3  0  0  0  0  0  0
  162.0780  211.3650  147.9030 C   0  0  0  0  0  3  0  0  0  0  0  0
  161.0660  206.1230  150.7990 C   0  0  0  0  0  0  0  0  0  0  0  0
  161.2800  205.3580  149.6540 C   0  0  0  0  0  0  0  0  0  0  0  0
  160.1410  208.8510  154.1660 C   0  0  2  0  0  3  0  0  0  0  0  0
  160.8610  210.7810  152.7770 C   0  0  0  0  0  2  0  0  0  0  0  0
  161.7720  204.9710  147.3710 C   0  0  2  0  0  3  0  0  0  0  0  0
  159.1440  211.4510  155.0080 F   0  0  0  0  0  0  0  0  0  0  0  0
  161.5800  211.6850  150.2050 N   0  0  0  0  0  0  0  0  0  0  0  0
  161.1470  209.8150  151.6500 C   0  0  0  0  0  0  0  0  0  0  0  0
  161.4580  210.3400  150.3870 C   0  0  0  0  0  0  0  0  0  0  0  0
  161.5210  208.1010  149.4380 C   0  0  0  0  0  0  0  0  0  0  0  0
  161.4850  203.6210  148.0440 C   0  0  0  0  0  3  0  0  0  0  0  0
  160.2300  208.9850  156.6560 C   0  0  0  0  0  3  0  0  0  0  0  0
  160.9610  210.1380  154.1510 C   0  0  1  0  0  3  0  0  0  0  0  0
  161.1880  203.8860  149.5290 C   0  0  0  0  0  3  0  0  0  0  0  0
  160.0640  208.2530  155.5450 C   0  0  0  0  0  3  0  0  0  0  0  0
  160.5890  210.4590  156.6270 C   0  0  1  0  0  3  0  0  0  0  0  0
  161.9570  210.0220  148.0740 N   0  0  0  0  0  0  0  0  0  0  0  0
  161.6510  209.4840  149.2870 C   0  0  0  0  0  0  0  0  0  0  0  0
  161.7130  207.2900  148.3560 N   0  0  0  0  0  0  0  0  0  0  0  0
  160.7730  207.8530  153.2100 C   0  0  0  0  0  2  0  0  0  0  0  0
  160.7280  205.4740  151.9810 O   0  0  0  0  0  1  0  0  0  0  0  0
  163.2060  204.9920  146.8740 C   0  0  0  0  0  1  0  0  0  0  0  0
  161.1930  207.5400  150.7120 C   0  0  0  0  0  0  0  0  0  0  0  0
  161.6020  205.9460  148.4700 C   0  0  0  0  0  0  0  0  0  0  0  0
  161.9520  210.7570  157.2600 C   0  0  2  0  0  3  0  0  0  0  0  0
  162.2890  212.2430  157.2610 C   0  0  0  0  0  1  0  0  0  0  0  0
  163.0490  209.9600  156.5700 C   0  0  0  0  0  2  0  0  0  0  0  0
  163.8590  210.8140  155.8190 O   0  0  0  0  0  1  0  0  0  0  0  0
  1 10  1  6  0  0  0
  1 20  1  0  0  0  0
  2 24  1  0  0  0  0
  3 11  2  0  0  0  0
  4 21  2  0  0  0  0
  4  3  1  0  0  0  0
  5 25  1  0  0  0  0
  6  5  2  0  0  0  0
  7 24  1  6  0  0  0
  7 19  1  0  0  0  0
  9 26  1  1  0  0  0
  9 15  1  0  0  0  0
  9 28  1  0  0  0  0
 11 13  1  0  0  0  0
 12  2  1  0  0  0  0
 12  8  1  0  0  0  0
 13 12  2  0  0  0  0
 14 27  1  0  0  0  0
 15 18  2  0  0  0  0
 17  8  1  6  0  0  0
 17  7  1  0  0  0  0
 17  1  1  0  0  0  0
 18  6  1  0  0  0  0
 19 16  2  0  0  0  0
 20 16  1  0  0  0  0
 20 29  1  6  0  0  0
 21 22  1  0  0  0  0
 22 14  2  0  0  0  0
 22 13  1  0  0  0  0
 23 28  2  0  0  0  0
 23 14  1  0  0  0  0
 27  5  1  0  0  0  0
 27  2  2  0  0  0  0
 28  6  1  0  0  0  0
 29 30  1  6  0  0  0
 31 29  1  0  0  0  0
 32 31  1  0  0  0  0
M  END
>  <MODEL>
4

>  <REMARK>
 VINA RESULT:      -7.3      2.858      8.011
  Name = 
  2 active torsions:
  status: ('A' for Active; 'I' for Inactive)
    1  A    between atoms: C_1  and  C_10
    2  A    between atoms: C_10  and  C_24
                            x       y       z     vdW  Elec       q    Type
                         _______ _______ _______ _____ _____    ______ ____

>  <TORSDO>
F 2

$$$$
