=
 OpenBabel11062407453D

 34 39  0  0  1  0  0  0  0  0999 V2000
  161.7590  210.1660  150.8400 C   0  0  0  0  0  0  0  0  0  0  0  0
  162.2590  208.4370  149.1500 C   0  0  0  0  0  0  0  0  0  0  0  0
  161.5970  207.7910  151.5130 C   0  0  0  0  0  0  0  0  0  0  0  0
  160.8070  205.6700  152.4360 N   0  0  1  0  0  0  0  0  0  0  0  0
  162.1380  210.7480  148.5440 C   0  0  0  0  0  3  0  0  0  0  0  0
  162.3560  209.4420  148.2370 N   0  0  0  0  0  0  0  0  0  0  0  0
  160.7290  205.7700  150.1220 C   0  0  0  0  0  2  0  0  0  0  0  0
  161.8600  208.7270  150.4780 C   0  0  0  0  0  0  0  0  0  0  0  0
  160.6990  204.2820  152.0320 C   0  0  0  0  0  2  0  0  0  0  0  0
  161.8550  211.1350  149.8490 C   0  0  0  0  0  3  0  0  0  0  0  0
  161.5450  208.2700  152.8480 C   0  0  0  0  0  0  0  0  0  0  0  0
  161.6100  210.5310  152.1040 O   0  0  0  0  0  0  0  0  0  0  0  0
  162.6410  207.2540  148.8010 N   0  0  0  0  0  2  0  0  0  0  0  0
  161.6270  205.8430  153.6200 C   0  0  0  0  0  2  0  0  0  0  0  0
  161.5260  207.3220  154.0410 C   0  0  2  0  0  3  0  0  0  0  0  0
  160.4400  204.3280  150.5260 C   0  0  2  0  0  3  0  0  0  0  0  0
  161.4970  206.2860  151.3180 C   0  0  1  0  0  3  0  0  0  0  0  0
  161.5410  209.6480  153.0890 C   0  0  0  0  0  3  0  0  0  0  0  0
  159.9800  209.2680  156.5810 C   0  0  0  0  0  0  0  0  0  0  0  0
  160.3330  207.5990  154.9710 C   0  0  2  0  0  3  0  0  0  0  0  0
  160.2330  208.2060  157.2610 N   0  0  0  0  0  0  0  0  0  0  0  0
  160.0570  209.0900  155.1090 C   0  0  0  0  0  2  0  0  0  0  0  0
  160.5370  207.0820  156.3970 C   0  0  0  0  0  2  0  0  0  0  0  0
  159.6610  210.4700  157.2110 O   0  0  0  0  0  0  0  0  0  0  0  0
  158.8660  211.4620  156.5790 C   0  0  0  0  0  1  0  0  0  0  0  0
  161.3560  203.3600  149.7850 C   0  0  0  0  0  2  0  0  0  0  0  0
  161.7330  203.8910  148.5150 O   0  0  0  0  0  0  0  0  0  0  0  0
  161.7020  205.3230  146.2630 O   0  0  0  0  0  0  0  0  0  0  0  0
  161.3040  203.3430  147.3180 N   0  0  0  0  0  0  0  0  0  0  0  0
  161.3000  204.1300  146.2010 C   0  0  0  0  0  0  0  0  0  0  0  0
  160.4140  202.2980  144.9070 C   0  0  0  0  0  3  0  0  0  0  0  0
  160.4310  201.5000  146.0490 C   0  0  0  0  0  3  0  0  0  0  0  0
  160.8780  202.0450  147.2540 C   0  0  0  0  0  3  0  0  0  0  0  0
  160.8530  203.6210  144.9790 C   0  0  0  0  0  3  0  0  0  0  0  0
  1 12  1  0  0  0  0
  2  8  1  0  0  0  0
  3 11  1  0  0  0  0
  4  9  1  6  0  0  0
  4 14  1  0  0  0  0
  5 10  1  0  0  0  0
  6  5  2  0  0  0  0
  6  2  1  0  0  0  0
  7 16  1  0  0  0  0
  8  1  1  0  0  0  0
  8  3  2  0  0  0  0
 10  1  2  0  0  0  0
 11 18  2  0  0  0  0
 11 15  1  0  0  0  0
 12 18  1  0  0  0  0
 13  2  2  0  0  0  0
 15 14  1  6  0  0  0
 15 20  1  0  0  0  0
 16 26  1  6  0  0  0
 16  9  1  0  0  0  0
 17  7  1  6  0  0  0
 17  3  1  0  0  0  0
 17  4  1  0  0  0  0
 19 24  1  0  0  0  0
 19 21  2  0  0  0  0
 20 22  1  1  0  0  0
 20 23  1  0  0  0  0
 22 19  1  0  0  0  0
 23 21  1  0  0  0  0
 25 24  1  0  0  0  0
 27 26  1  0  0  0  0
 29 27  1  0  0  0  0
 30 28  2  0  0  0  0
 30 29  1  0  0  0  0
 31 34  2  0  0  0  0
 31 32  1  0  0  0  0
 32 33  2  0  0  0  0
 33 29  1  0  0  0  0
 34 30  1  0  0  0  0
M  END
>  <MODEL>
1

>  <REMARK>
 VINA RESULT:      -8.8      0.000      0.000
  Name = 
  5 active torsions:
  status: ('A' for Active; 'I' for Inactive)
    1  A    between atoms: O_3  and  N_13
    2  A    between atoms: O_3  and  C_17
    3  A    between atoms: O_7  and  C_8
    4  A    between atoms: C_12  and  C_28
    5  A    between atoms: C_17  and  C_29
                            x       y       z     vdW  Elec       q    Type
                         _______ _______ _______ _____ _____    ______ ____

>  <TORSDO>
F 5

$$$$
=
 OpenBabel11062407453D

 34 39  0  0  1  0  0  0  0  0999 V2000
  160.6040  207.7040  154.8620 C   0  0  0  0  0  0  0  0  0  0  0  0
  161.4780  209.9300  154.2440 C   0  0  0  0  0  0  0  0  0  0  0  0
  161.4380  208.0360  152.5550 C   0  0  0  0  0  0  0  0  0  0  0  0
  161.6330  208.0530  150.1190 N   0  0  1  0  0  0  0  0  0  0  0  0
  160.4190  209.5700  156.3590 C   0  0  0  0  0  3  0  0  0  0  0  0
  161.0660  210.3650  155.4660 N   0  0  0  0  0  0  0  0  0  0  0  0
  161.2070  210.1370  151.0370 C   0  0  0  0  0  2  0  0  0  0  0  0
  161.1860  208.6070  153.8320 C   0  0  0  0  0  0  0  0  0  0  0  0
  161.9980  208.9790  149.0650 C   0  0  0  0  0  2  0  0  0  0  0  0
  160.1940  208.2260  156.0820 C   0  0  0  0  0  3  0  0  0  0  0  0
  161.3930  206.6230  152.4370 C   0  0  0  0  0  0  0  0  0  0  0  0
  160.5060  206.4040  154.6350 O   0  0  0  0  0  0  0  0  0  0  0  0
  162.2230  210.7120  153.5360 N   0  0  0  0  0  2  0  0  0  0  0  0
  162.4830  206.8780  150.1480 C   0  0  0  0  0  2  0  0  0  0  0  0
  161.8950  205.9060  151.1890 C   0  0  2  0  0  3  0  0  0  0  0  0
  161.5360  210.3480  149.5640 C   0  0  2  0  0  3  0  0  0  0  0  0
  161.8820  208.8160  151.3280 C   0  0  1  0  0  3  0  0  0  0  0  0
  160.9080  205.8530  153.5000 C   0  0  0  0  0  3  0  0  0  0  0  0
  160.9650  202.7770  149.7840 C   0  0  0  0  0  0  0  0  0  0  0  0
  160.8250  204.9720  150.5980 C   0  0  2  0  0  3  0  0  0  0  0  0
  160.8710  203.5110  148.7320 N   0  0  0  0  0  0  0  0  0  0  0  0
  161.0130  203.5340  151.0610 C   0  0  0  0  0  2  0  0  0  0  0  0
  160.8360  204.9210  149.0690 C   0  0  0  0  0  2  0  0  0  0  0  0
  161.0140  201.3860  149.6930 O   0  0  0  0  0  0  0  0  0  0  0  0
  161.2940  200.7220  148.4710 C   0  0  0  0  0  1  0  0  0  0  0  0
  162.6370  211.3890  149.3950 C   0  0  0  0  0  2  0  0  0  0  0  0
  162.1790  212.4860  148.6060 O   0  0  0  0  0  0  0  0  0  0  0  0
  160.5370  212.1400  146.5300 O   0  0  0  0  0  0  0  0  0  0  0  0
  160.8700  212.9370  148.6380 N   0  0  0  0  0  0  0  0  0  0  0  0
  160.0820  212.7400  147.5400 C   0  0  0  0  0  0  0  0  0  0  0  0
  158.2540  213.8590  148.6450 C   0  0  0  0  0  3  0  0  0  0  0  0
  159.0620  214.0460  149.7650 C   0  0  0  0  0  3  0  0  0  0  0  0
  160.3770  213.5780  149.7410 C   0  0  0  0  0  3  0  0  0  0  0  0
  158.7630  213.2010  147.5250 C   0  0  0  0  0  3  0  0  0  0  0  0
  1 10  2  0  0  0  0
  2  6  1  0  0  0  0
  3  8  2  0  0  0  0
  4  9  1  6  0  0  0
  4 14  1  0  0  0  0
  4 17  1  0  0  0  0
  6  5  2  0  0  0  0
  8  2  1  0  0  0  0
  8  1  1  0  0  0  0
  9 16  1  0  0  0  0
 10  5  1  0  0  0  0
 11  3  1  0  0  0  0
 11 18  2  0  0  0  0
 12  1  1  0  0  0  0
 13  2  2  0  0  0  0
 15 14  1  6  0  0  0
 15 11  1  0  0  0  0
 16 26  1  1  0  0  0
 16  7  1  0  0  0  0
 17  7  1  6  0  0  0
 17  3  1  0  0  0  0
 18 12  1  0  0  0  0
 19 22  1  0  0  0  0
 20 23  1  6  0  0  0
 20 22  1  0  0  0  0
 20 15  1  0  0  0  0
 21 23  1  0  0  0  0
 21 19  2  0  0  0  0
 24 19  1  0  0  0  0
 25 24  1  0  0  0  0
 27 29  1  0  0  0  0
 27 26  1  0  0  0  0
 28 30  2  0  0  0  0
 29 33  1  0  0  0  0
 30 29  1  0  0  0  0
 31 32  1  0  0  0  0
 33 32  2  0  0  0  0
 34 30  1  0  0  0  0
 34 31  2  0  0  0  0
M  END
>  <MODEL>
2

>  <REMARK>
 VINA RESULT:      -8.6      2.602      7.705
  Name = 
  5 active torsions:
  status: ('A' for Active; 'I' for Inactive)
    1  A    between atoms: O_3  and  N_13
    2  A    between atoms: O_3  and  C_17
    3  A    between atoms: O_7  and  C_8
    4  A    between atoms: C_12  and  C_28
    5  A    between atoms: C_17  and  C_29
                            x       y       z     vdW  Elec       q    Type
                         _______ _______ _______ _____ _____    ______ ____

>  <TORSDO>
F 5

$$$$
=
 OpenBabel11062407453D

 34 39  0  0  1  0  0  0  0  0999 V2000
  161.9040  208.6360  148.6820 C   0  0  2  0  0  3  0  0  0  0  0  0
  161.4170  209.5990  150.9040 C   0  0  0  0  0  0  0  0  0  0  0  0
  161.2140  207.1020  150.4970 C   0  0  0  0  0  0  0  0  0  0  0  0
  161.1070  205.2250  152.0580 N   0  0  1  0  0  0  0  0  0  0  0  0
  162.3320  210.9500  149.1530 C   0  0  0  0  0  3  0  0  0  0  0  0
  161.8510  210.7930  150.4150 N   0  0  0  0  0  0  0  0  0  0  0  0
  161.8280  207.2040  153.0240 C   0  0  0  0  0  2  0  0  0  0  0  0
  161.5090  208.4340  150.1020 C   0  0  0  0  0  0  0  0  0  0  0  0
  160.9310  205.0020  153.4790 C   0  0  0  0  0  2  0  0  0  0  0  0
  162.3500  209.8820  148.2610 C   0  0  0  0  0  3  0  0  0  0  0  0
  161.0370  206.1290  149.4790 C   0  0  0  0  0  0  0  0  0  0  0  0
  161.8030  207.6450  147.8110 O   0  0  0  0  0  0  0  0  0  0  0  0
  160.8310  209.5850  152.0530 N   0  0  0  0  0  1  0  0  0  0  0  0
  160.0810  204.5800  151.2610 C   0  0  0  0  0  2  0  0  0  0  0  0
  160.4710  204.7470  149.7800 C   0  0  2  0  0  3  0  0  0  0  0  0
  161.5870  206.2080  154.1520 C   0  0  2  0  0  3  0  0  0  0  0  0
  160.9420  206.6600  151.9260 C   0  0  1  0  0  3  0  0  0  0  0  0
  161.3570  206.4460  148.1540 C   0  0  0  0  0  3  0  0  0  0  0  0
  161.0350  201.8860  147.7470 C   0  0  0  0  0  0  0  0  0  0  0  0
  161.3990  203.6280  149.2760 C   0  0  2  0  0  3  0  0  0  0  0  0
  161.0160  201.3190  148.9010 N   0  0  0  0  0  0  0  0  0  0  0  0
  161.2060  203.3610  147.7890 C   0  0  0  0  0  2  0  0  0  0  0  0
  161.1690  202.2840  149.9710 C   0  0  0  0  0  2  0  0  0  0  0  0
  160.9030  201.1440  146.5740 O   0  0  0  0  0  0  0  0  0  0  0  0
  160.3600  201.7030  145.3880 C   0  0  0  0  0  1  0  0  0  0  0  0
  160.6720  206.8020  155.2180 C   0  0  0  0  0  2  0  0  0  0  0  0
  161.3710  207.7640  156.0060 O   0  0  0  0  0  0  0  0  0  0  0  0
  162.8950  209.5780  157.2350 O   0  0  0  0  0  0  0  0  0  0  0  0
  161.0050  209.0980  156.0580 N   0  0  0  0  0  0  0  0  0  0  0  0
  161.8210  209.9770  156.7120 C   0  0  0  0  0  0  0  0  0  0  0  0
  160.2890  211.7740  156.2210 C   0  0  0  0  0  3  0  0  0  0  0  0
  159.4680  210.8720  155.5470 C   0  0  0  0  0  3  0  0  0  0  0  0
  159.8430  209.5290  155.4790 C   0  0  0  0  0  3  0  0  0  0  0  0
  161.4750  211.3280  156.8060 C   0  0  0  0  0  3  0  0  0  0  0  0
  1 10  1  6  0  0  0
  1  8  1  0  0  0  0
  2 13  1  0  0  0  0
  3 17  1  0  0  0  0
  4 14  1  6  0  0  0
  4  9  1  0  0  0  0
  5  6  1  0  0  0  0
  6  2  2  0  0  0  0
  7 16  1  0  0  0  0
  8  3  2  0  0  0  0
  8  2  1  0  0  0  0
  9 16  1  0  0  0  0
 10  5  2  0  0  0  0
 11 15  1  0  0  0  0
 11  3  1  0  0  0  0
 12 18  1  0  0  0  0
 12  1  1  0  0  0  0
 15 14  1  1  0  0  0
 16 26  1  1  0  0  0
 17  4  1  0  0  0  0
 17  7  1  1  0  0  0
 18 11  2  0  0  0  0
 19 22  1  0  0  0  0
 19 21  2  0  0  0  0
 20 22  1  6  0  0  0
 20 15  1  0  0  0  0
 20 23  1  0  0  0  0
 21 23  1  0  0  0  0
 24 19  1  0  0  0  0
 25 24  1  0  0  0  0
 26 27  1  0  0  0  0
 27 29  1  0  0  0  0
 29 30  1  0  0  0  0
 30 34  1  0  0  0  0
 30 28  2  0  0  0  0
 31 34  2  0  0  0  0
 32 31  1  0  0  0  0
 33 32  2  0  0  0  0
 33 29  1  0  0  0  0
M  END
>  <MODEL>
3

>  <REMARK>
 VINA RESULT:      -8.6      1.848      8.221
  Name = 
  5 active torsions:
  status: ('A' for Active; 'I' for Inactive)
    1  A    between atoms: O_3  and  N_13
    2  A    between atoms: O_3  and  C_17
    3  A    between atoms: O_7  and  C_8
    4  A    between atoms: C_12  and  C_28
    5  A    between atoms: C_17  and  C_29
                            x       y       z     vdW  Elec       q    Type
                         _______ _______ _______ _____ _____    ______ ____

>  <TORSDO>
F 5

$$$$
=
 OpenBabel11062407453D

 34 39  0  0  1  0  0  0  0  0999 V2000
  160.9070  206.9250  153.3690 C   0  0  2  0  0  3  0  0  0  0  0  0
  161.6270  209.2860  153.4330 C   0  0  0  0  0  0  0  0  0  0  0  0
  161.6310  207.9860  151.2540 C   0  0  0  0  0  0  0  0  0  0  0  0
  161.7310  208.7430  148.9320 N   0  0  1  0  0  0  0  0  0  0  0  0
  160.6730  208.2410  155.3620 C   0  0  0  0  0  3  0  0  0  0  0  0
  161.2380  209.3070  154.7370 N   0  0  0  0  0  0  0  0  0  0  0  0
  161.2210  210.4250  150.4430 C   0  0  0  0  0  2  0  0  0  0  0  0
  161.3950  208.1300  152.6470 C   0  0  0  0  0  0  0  0  0  0  0  0
  162.0020  209.9640  148.1980 C   0  0  0  0  0  2  0  0  0  0  0  0
  160.5140  207.0290  154.6970 C   0  0  0  0  0  3  0  0  0  0  0  0
  161.6630  206.6730  150.7160 C   0  0  0  0  0  0  0  0  0  0  0  0
  160.8740  205.7480  152.7630 O   0  0  0  0  0  0  0  0  0  0  0  0
  162.2980  210.2910  152.9780 N   0  0  0  0  0  1  0  0  0  0  0  0
  162.6480  207.6730  148.5890 C   0  0  0  0  0  2  0  0  0  0  0  0
  162.1560  206.3970  149.3010 C   0  0  2  0  0  3  0  0  0  0  0  0
  161.4820  211.0870  149.0950 C   0  0  2  0  0  3  0  0  0  0  0  0
  161.9820  209.1250  150.3090 C   0  0  1  0  0  3  0  0  0  0  0  0
  161.2630  205.5900  151.5070 C   0  0  0  0  0  3  0  0  0  0  0  0
  161.3780  204.0570  146.7420 C   0  0  0  0  0  0  0  0  0  0  0  0
  161.1200  205.6140  148.4770 C   0  0  2  0  0  3  0  0  0  0  0  0
  160.9910  205.1360  146.1590 N   0  0  0  0  0  0  0  0  0  0  0  0
  161.5740  204.1860  148.2090 C   0  0  0  0  0  2  0  0  0  0  0  0
  160.8430  206.2260  147.1030 C   0  0  0  0  0  2  0  0  0  0  0  0
  161.5840  202.8800  146.0230 O   0  0  0  0  0  0  0  0  0  0  0  0
  160.5610  201.9110  145.8570 C   0  0  0  0  0  1  0  0  0  0  0  0
  162.5140  212.2020  149.2260 C   0  0  0  0  0  2  0  0  0  0  0  0
  162.0450  213.4000  148.6090 O   0  0  0  0  0  0  0  0  0  0  0  0
  159.5550  214.0080  147.8650 O   0  0  0  0  0  0  0  0  0  0  0  0
  161.6860  213.4640  147.2740 N   0  0  0  0  0  0  0  0  0  0  0  0
  160.3930  213.7690  146.9560 C   0  0  0  0  0  0  0  0  0  0  0  0
  160.9150  213.5630  144.6100 C   0  0  0  0  0  3  0  0  0  0  0  0
  162.2350  213.2640  144.9440 C   0  0  0  0  0  3  0  0  0  0  0  0
  162.6030  213.2140  146.2900 C   0  0  0  0  0  3  0  0  0  0  0  0
  159.9870  213.8210  145.6200 C   0  0  0  0  0  3  0  0  0  0  0  0
  1 10  1  1  0  0  0
  2  6  2  0  0  0  0
  3  8  2  0  0  0  0
  4  9  1  6  0  0  0
  4 17  1  0  0  0  0
  6  5  1  0  0  0  0
  8  1  1  0  0  0  0
  8  2  1  0  0  0  0
  9 16  1  0  0  0  0
 10  5  2  0  0  0  0
 11  3  1  0  0  0  0
 11 18  2  0  0  0  0
 12  1  1  0  0  0  0
 13  2  1  0  0  0  0
 14  4  1  0  0  0  0
 15 14  1  6  0  0  0
 15 11  1  0  0  0  0
 16 26  1  1  0  0  0
 16  7  1  0  0  0  0
 17  7  1  1  0  0  0
 17  3  1  0  0  0  0
 18 12  1  0  0  0  0
 19 22  1  0  0  0  0
 20 23  1  6  0  0  0
 20 15  1  0  0  0  0
 21 19  2  0  0  0  0
 21 23  1  0  0  0  0
 22 20  1  0  0  0  0
 24 19  1  0  0  0  0
 25 24  1  0  0  0  0
 27 26  1  0  0  0  0
 29 27  1  0  0  0  0
 30 29  1  0  0  0  0
 30 28  2  0  0  0  0
 31 32  1  0  0  0  0
 31 34  2  0  0  0  0
 32 33  2  0  0  0  0
 33 29  1  0  0  0  0
 34 30  1  0  0  0  0
M  END
>  <MODEL>
4

>  <REMARK>
 VINA RESULT:      -7.9      2.741      8.191
  Name = 
  5 active torsions:
  status: ('A' for Active; 'I' for Inactive)
    1  A    between atoms: O_3  and  N_13
    2  A    between atoms: O_3  and  C_17
    3  A    between atoms: O_7  and  C_8
    4  A    between atoms: C_12  and  C_28
    5  A    between atoms: C_17  and  C_29
                            x       y       z     vdW  Elec       q    Type
                         _______ _______ _______ _____ _____    ______ ____

>  <TORSDO>
F 5

$$$$
=
 OpenBabel11062407453D

 34 39  0  0  1  0  0  0  0  0999 V2000
  160.4440  212.3760  151.4560 C   0  0  0  0  0  0  0  0  0  0  0  0
  161.8060  210.4760  150.6600 C   0  0  0  0  0  0  0  0  0  0  0  0
  160.7350  210.4330  152.9600 C   0  0  0  0  0  0  0  0  0  0  0  0
  160.3090  208.5830  154.4990 N   0  0  1  0  0  0  0  0  0  0  0  0
  161.2530  212.2880  149.1980 C   0  0  0  0  0  3  0  0  0  0  0  0
  161.8770  211.1080  149.4570 N   0  0  0  0  0  0  0  0  0  0  0  0
  160.8230  207.9070  152.3430 C   0  0  0  0  0  2  0  0  0  0  0  0
  161.0090  211.0210  151.6960 C   0  0  0  0  0  0  0  0  0  0  0  0
  160.6770  207.1890  154.6500 C   0  0  0  0  0  2  0  0  0  0  0  0
  160.5430  212.9500  150.1950 C   0  0  0  0  0  3  0  0  0  0  0  0
  160.2080  211.2650  153.9820 C   0  0  0  0  0  0  0  0  0  0  0  0
  159.8770  213.0510  152.4430 O   0  0  0  0  0  0  0  0  0  0  0  0
  162.5610  209.4470  150.8560 N   0  0  0  0  0  2  0  0  0  0  0  0
  160.7120  209.3910  155.6330 C   0  0  0  0  0  2  0  0  0  0  0  0
  160.1220  210.8000  155.4300 C   0  0  2  0  0  3  0  0  0  0  0  0
  160.8230  206.6620  153.2220 C   0  0  2  0  0  3  0  0  0  0  0  0
  161.0850  209.0050  153.3480 C   0  0  1  0  0  3  0  0  0  0  0  0
  159.7820  212.5610  153.6700 C   0  0  0  0  0  3  0  0  0  0  0  0
  156.8610  212.2040  155.2600 C   0  0  0  0  0  0  0  0  0  0  0  0
  158.6960  210.9370  155.9900 C   0  0  2  0  0  3  0  0  0  0  0  0
  157.3020  212.8310  156.2930 N   0  0  0  0  0  0  0  0  0  0  0  0
  157.6570  211.0090  154.8800 C   0  0  0  0  0  2  0  0  0  0  0  0
  158.4890  212.1980  156.8320 C   0  0  0  0  0  2  0  0  0  0  0  0
  155.7240  212.6390  154.5800 O   0  0  0  0  0  0  0  0  0  0  0  0
  155.7210  213.8290  153.8070 C   0  0  0  0  0  1  0  0  0  0  0  0
  162.1220  205.8790  153.0600 C   0  0  0  0  0  2  0  0  0  0  0  0
  162.3690  205.5890  151.6850 O   0  0  0  0  0  0  0  0  0  0  0  0
  161.5950  205.7850  149.1390 O   0  0  0  0  0  0  0  0  0  0  0  0
  161.7790  204.5240  151.0270 N   0  0  0  0  0  0  0  0  0  0  0  0
  161.3940  204.6890  149.7270 C   0  0  0  0  0  0  0  0  0  0  0  0
  160.5570  202.4280  149.6820 C   0  0  0  0  0  3  0  0  0  0  0  0
  160.9630  202.2650  151.0040 C   0  0  0  0  0  3  0  0  0  0  0  0
  161.5730  203.3330  151.6660 C   0  0  0  0  0  3  0  0  0  0  0  0
  160.7740  203.6450  149.0350 C   0  0  0  0  0  3  0  0  0  0  0  0
  1  8  1  0  0  0  0
  1 12  1  0  0  0  0
  2 13  2  0  0  0  0
  2  8  1  0  0  0  0
  3 17  1  0  0  0  0
  3 11  1  0  0  0  0
  4  9  1  1  0  0  0
  4 14  1  0  0  0  0
  5  6  2  0  0  0  0
  5 10  1  0  0  0  0
  6  2  1  0  0  0  0
  7 16  1  0  0  0  0
  8  3  2  0  0  0  0
 10  1  2  0  0  0  0
 11 15  1  0  0  0  0
 12 18  1  0  0  0  0
 15 14  1  6  0  0  0
 15 20  1  0  0  0  0
 16 26  1  1  0  0  0
 16  9  1  0  0  0  0
 17  7  1  6  0  0  0
 17  4  1  0  0  0  0
 18 11  2  0  0  0  0
 19 21  2  0  0  0  0
 20 22  1  6  0  0  0
 20 23  1  0  0  0  0
 21 23  1  0  0  0  0
 22 19  1  0  0  0  0
 24 19  1  0  0  0  0
 25 24  1  0  0  0  0
 27 26  1  0  0  0  0
 28 30  2  0  0  0  0
 29 33  1  0  0  0  0
 29 27  1  0  0  0  0
 30 29  1  0  0  0  0
 31 32  1  0  0  0  0
 32 33  2  0  0  0  0
 34 31  2  0  0  0  0
 34 30  1  0  0  0  0
M  END
>  <MODEL>
5

>  <REMARK>
 VINA RESULT:      -7.9      2.382      3.806
  Name = 
  5 active torsions:
  status: ('A' for Active; 'I' for Inactive)
    1  A    between atoms: O_3  and  N_13
    2  A    between atoms: O_3  and  C_17
    3  A    between atoms: O_7  and  C_8
    4  A    between atoms: C_12  and  C_28
    5  A    between atoms: C_17  and  C_29
                            x       y       z     vdW  Elec       q    Type
                         _______ _______ _______ _____ _____    ______ ____

>  <TORSDO>
F 5

$$$$
=
 OpenBabel11062407453D

 34 39  0  0  1  0  0  0  0  0999 V2000
  161.2230  205.7990  149.4350 C   0  0  2  0  0  3  0  0  0  0  0  0
  161.2940  205.2610  151.8450 C   0  0  0  0  0  0  0  0  0  0  0  0
  161.5370  207.6560  151.0410 C   0  0  0  0  0  0  0  0  0  0  0  0
  161.3200  209.7780  152.2330 N   0  0  1  0  0  0  0  0  0  0  0  0
  160.7460  203.5850  150.2270 C   0  0  0  0  0  3  0  0  0  0  0  0
  160.9770  203.9810  151.5070 N   0  0  0  0  0  0  0  0  0  0  0  0
  160.4560  207.9650  153.3890 C   0  0  0  0  0  2  0  0  0  0  0  0
  161.3390  206.2620  150.8440 C   0  0  0  0  0  0  0  0  0  0  0  0
  161.2220  210.2520  153.5990 C   0  0  0  0  0  2  0  0  0  0  0  0
  160.8820  204.4790  149.1700 C   0  0  0  0  0  3  0  0  0  0  0  0
  161.8900  208.4440  149.9160 C   0  0  0  0  0  0  0  0  0  0  0  0
  161.4740  206.6270  148.4340 O   0  0  0  0  0  0  0  0  0  0  0  0
  161.6520  205.5010  153.0610 N   0  0  0  0  0  1  0  0  0  0  0  0
  162.4700  210.3230  151.5360 C   0  0  0  0  0  2  0  0  0  0  0  0
  162.3690  209.8830  150.0630 C   0  0  2  0  0  3  0  0  0  0  0  0
  160.4660  209.1520  154.3450 C   0  0  2  0  0  3  0  0  0  0  0  0
  161.5270  208.3510  152.3930 C   0  0  1  0  0  3  0  0  0  0  0  0
  161.8310  207.8880  148.6330 C   0  0  0  0  0  3  0  0  0  0  0  0
  162.0740  212.9330  148.2620 C   0  0  0  0  0  0  0  0  0  0  0  0
  161.5390  210.8520  149.2040 C   0  0  2  0  0  3  0  0  0  0  0  0
  161.3190  213.2120  149.2650 N   0  0  0  0  0  0  0  0  0  0  0  0
  162.3740  211.4870  148.1010 C   0  0  0  0  0  2  0  0  0  0  0  0
  160.9470  212.0180  149.9990 C   0  0  0  0  0  2  0  0  0  0  0  0
  162.5520  213.9330  147.4150 O   0  0  0  0  0  0  0  0  0  0  0  0
  162.3290  213.9010  146.0140 C   0  0  0  0  0  1  0  0  0  0  0  0
  161.1700  208.7950  155.6500 C   0  0  0  0  0  2  0  0  0  0  0  0
  160.5040  209.3880  156.7630 O   0  0  0  0  0  0  0  0  0  0  0  0
  162.1140  211.4600  157.2550 O   0  0  0  0  0  0  0  0  0  0  0  0
  160.0310  210.6890  156.7470 N   0  0  0  0  0  0  0  0  0  0  0  0
  160.9010  211.7070  157.0180 C   0  0  0  0  0  0  0  0  0  0  0  0
  159.1160  213.3080  156.7650 C   0  0  0  0  0  3  0  0  0  0  0  0
  158.2380  212.2640  156.4790 C   0  0  0  0  0  3  0  0  0  0  0  0
  158.7160  210.9520  156.4790 C   0  0  0  0  0  3  0  0  0  0  0  0
  160.4570  213.0310  157.0340 C   0  0  0  0  0  3  0  0  0  0  0  0
  1 10  1  1  0  0  0
  1  8  1  0  0  0  0
  2 13  1  0  0  0  0
  3 17  1  0  0  0  0
  4 14  1  1  0  0  0
  4 17  1  0  0  0  0
  4  9  1  0  0  0  0
  5  6  1  0  0  0  0
  6  2  2  0  0  0  0
  7 16  1  0  0  0  0
  8  3  2  0  0  0  0
  8  2  1  0  0  0  0
  9 16  1  0  0  0  0
 10  5  2  0  0  0  0
 11 15  1  0  0  0  0
 11  3  1  0  0  0  0
 12 18  1  0  0  0  0
 12  1  1  0  0  0  0
 15 14  1  1  0  0  0
 16 26  1  1  0  0  0
 17  7  1  1  0  0  0
 18 11  2  0  0  0  0
 19 21  2  0  0  0  0
 20 22  1  6  0  0  0
 20 23  1  0  0  0  0
 20 15  1  0  0  0  0
 21 23  1  0  0  0  0
 22 19  1  0  0  0  0
 24 19  1  0  0  0  0
 25 24  1  0  0  0  0
 26 27  1  0  0  0  0
 29 27  1  0  0  0  0
 29 30  1  0  0  0  0
 30 34  1  0  0  0  0
 30 28  2  0  0  0  0
 31 34  2  0  0  0  0
 32 33  2  0  0  0  0
 32 31  1  0  0  0  0
 33 29  1  0  0  0  0
M  END
>  <MODEL>
6

>  <REMARK>
 VINA RESULT:      -7.6      2.457      8.690
  Name = 
  5 active torsions:
  status: ('A' for Active; 'I' for Inactive)
    1  A    between atoms: O_3  and  N_13
    2  A    between atoms: O_3  and  C_17
    3  A    between atoms: O_7  and  C_8
    4  A    between atoms: C_12  and  C_28
    5  A    between atoms: C_17  and  C_29
                            x       y       z     vdW  Elec       q    Type
                         _______ _______ _______ _____ _____    ______ ____

>  <TORSDO>
F 5

$$$$
=
 OpenBabel11062407453D

 34 39  0  0  1  0  0  0  0  0999 V2000
  161.2490  204.8100  152.0850 C   0  0  0  0  0  0  0  0  0  0  0  0
  161.1850  205.5740  149.7370 C   0  0  0  0  0  0  0  0  0  0  0  0
  161.1200  207.2420  151.6480 C   0  0  0  0  0  0  0  0  0  0  0  0
  161.5320  209.6510  151.6910 N   0  0  1  0  0  0  0  0  0  0  0  0
  161.5630  203.2720  150.2710 C   0  0  0  0  0  3  0  0  0  0  0  0
  161.3910  204.2780  149.3730 N   0  0  0  0  0  0  0  0  0  0  0  0
  162.2710  208.6100  149.7560 C   0  0  0  0  0  2  0  0  0  0  0  0
  161.2000  205.9310  151.1080 C   0  0  0  0  0  0  0  0  0  0  0  0
  161.6970  210.7420  150.7500 C   0  0  0  0  0  2  0  0  0  0  0  0
  161.4770  203.5150  151.6380 C   0  0  0  0  0  3  0  0  0  0  0  0
  160.8090  207.3780  153.0260 C   0  0  0  0  0  0  0  0  0  0  0  0
  161.0450  205.0350  153.3730 O   0  0  0  0  0  0  0  0  0  0  0  0
  160.8730  206.4250  148.8190 N   0  0  0  0  0  2  0  0  0  0  0  0
  160.4160  209.8580  152.5930 C   0  0  0  0  0  2  0  0  0  0  0  0
  160.4500  208.7260  153.6390 C   0  0  2  0  0  3  0  0  0  0  0  0
  162.3770  210.1150  149.5330 C   0  0  2  0  0  3  0  0  0  0  0  0
  161.2140  208.5240  150.8350 C   0  0  1  0  0  3  0  0  0  0  0  0
  160.7960  206.2460  153.8480 C   0  0  0  0  0  3  0  0  0  0  0  0
  161.4110  210.9390  156.2480 C   0  0  0  0  0  0  0  0  0  0  0  0
  161.3380  209.0570  154.8500 C   0  0  2  0  0  3  0  0  0  0  0  0
  162.4440  211.0540  155.4900 N   0  0  0  0  0  0  0  0  0  0  0  0
  160.5550  209.7630  155.9490 C   0  0  0  0  0  2  0  0  0  0  0  0
  162.5090  209.9840  154.5150 C   0  0  0  0  0  2  0  0  0  0  0  0
  161.1500  211.8630  157.2600 O   0  0  0  0  0  0  0  0  0  0  0  0
  160.2710  212.9600  157.0680 C   0  0  0  0  0  1  0  0  0  0  0  0
  161.6730  210.5250  148.2440 C   0  0  0  0  0  2  0  0  0  0  0  0
  161.5750  211.9450  148.1510 O   0  0  0  0  0  0  0  0  0  0  0  0
  162.6400  212.9580  145.9230 O   0  0  0  0  0  0  0  0  0  0  0  0
  160.7930  212.5820  147.2020 N   0  0  0  0  0  0  0  0  0  0  0  0
  161.3980  213.0900  146.0880 C   0  0  0  0  0  0  0  0  0  0  0  0
  159.2690  213.9000  145.2950 C   0  0  0  0  0  3  0  0  0  0  0  0
  158.6590  213.3690  146.4300 C   0  0  0  0  0  3  0  0  0  0  0  0
  159.4430  212.7130  147.3810 C   0  0  0  0  0  3  0  0  0  0  0  0
  160.6460  213.7580  145.1180 C   0  0  0  0  0  3  0  0  0  0  0  0
  1 12  1  0  0  0  0
  2  8  1  0  0  0  0
  3 11  1  0  0  0  0
  4  9  1  6  0  0  0
  4 14  1  0  0  0  0
  5 10  1  0  0  0  0
  6  2  1  0  0  0  0
  6  5  2  0  0  0  0
  8  3  2  0  0  0  0
  8  1  1  0  0  0  0
 10  1  2  0  0  0  0
 11 15  1  0  0  0  0
 11 18  2  0  0  0  0
 12 18  1  0  0  0  0
 13  2  2  0  0  0  0
 15 14  1  6  0  0  0
 15 20  1  0  0  0  0
 16 26  1  6  0  0  0
 16  7  1  0  0  0  0
 16  9  1  0  0  0  0
 17  7  1  6  0  0  0
 17  3  1  0  0  0  0
 17  4  1  0  0  0  0
 19 24  1  0  0  0  0
 20 23  1  6  0  0  0
 20 22  1  0  0  0  0
 21 19  2  0  0  0  0
 22 19  1  0  0  0  0
 23 21  1  0  0  0  0
 25 24  1  0  0  0  0
 27 26  1  0  0  0  0
 28 30  2  0  0  0  0
 29 33  1  0  0  0  0
 29 27  1  0  0  0  0
 30 29  1  0  0  0  0
 31 32  1  0  0  0  0
 32 33  2  0  0  0  0
 34 31  2  0  0  0  0
 34 30  1  0  0  0  0
M  END
>  <MODEL>
7

>  <REMARK>
 VINA RESULT:      -7.5      2.859      6.134
  Name = 
  5 active torsions:
  status: ('A' for Active; 'I' for Inactive)
    1  A    between atoms: O_3  and  N_13
    2  A    between atoms: O_3  and  C_17
    3  A    between atoms: O_7  and  C_8
    4  A    between atoms: C_12  and  C_28
    5  A    between atoms: C_17  and  C_29
                            x       y       z     vdW  Elec       q    Type
                         _______ _______ _______ _____ _____    ______ ____

>  <TORSDO>
F 5

$$$$
=
 OpenBabel11062407453D

 34 39  0  0  1  0  0  0  0  0999 V2000
  160.7140  210.2960  155.0420 C   0  0  2  0  0  3  0  0  0  0  0  0
  160.4200  207.8750  155.4300 C   0  0  0  0  0  0  0  0  0  0  0  0
  160.9380  208.7650  153.1110 C   0  0  0  0  0  0  0  0  0  0  0  0
  161.7590  207.6360  151.1050 N   0  0  1  0  0  0  0  0  0  0  0  0
  160.4750  209.4150  157.2610 C   0  0  0  0  0  3  0  0  0  0  0  0
  160.3410  208.1580  156.7590 N   0  0  0  0  0  0  0  0  0  0  0  0
  162.0000  206.3900  153.0430 C   0  0  0  0  0  2  0  0  0  0  0  0
  160.7080  208.9090  154.5050 C   0  0  0  0  0  0  0  0  0  0  0  0
  161.9610  206.2830  150.6250 C   0  0  0  0  0  2  0  0  0  0  0  0
  160.6440  210.5050  156.4130 C   0  0  0  0  0  3  0  0  0  0  0  0
  160.8720  209.9280  152.3010 C   0  0  0  0  0  0  0  0  0  0  0  0
  160.7530  211.3330  154.2200 O   0  0  0  0  0  0  0  0  0  0  0  0
  160.1200  206.6810  155.0400 N   0  0  0  0  0  1  0  0  0  0  0  0
  160.8480  208.3930  150.2680 C   0  0  0  0  0  2  0  0  0  0  0  0
  160.8490  209.8460  150.7800 C   0  0  2  0  0  3  0  0  0  0  0  0
  162.3270  205.4740  151.8700 C   0  0  2  0  0  3  0  0  0  0  0  0
  161.1240  207.4370  152.3940 C   0  0  1  0  0  3  0  0  0  0  0  0
  160.7920  211.1880  152.9030 C   0  0  0  0  0  3  0  0  0  0  0  0
  161.8580  212.4630  148.5960 C   0  0  0  0  0  0  0  0  0  0  0  0
  161.9570  210.7040  150.1450 C   0  0  2  0  0  3  0  0  0  0  0  0
  162.2830  211.4550  147.9200 N   0  0  0  0  0  0  0  0  0  0  0  0
  161.5390  212.1620  150.0150 C   0  0  0  0  0  2  0  0  0  0  0  0
  162.3430  210.2570  148.7340 C   0  0  0  0  0  2  0  0  0  0  0  0
  161.7220  213.7210  148.0110 O   0  0  0  0  0  0  0  0  0  0  0  0
  162.1840  213.9930  146.6970 C   0  0  0  0  0  1  0  0  0  0  0  0
  161.5130  204.1850  151.9400 C   0  0  0  0  0  2  0  0  0  0  0  0
  160.6860  204.0450  150.7870 O   0  0  0  0  0  0  0  0  0  0  0  0
  161.1710  204.5280  148.2060 O   0  0  0  0  0  0  0  0  0  0  0  0
  160.8400  203.0140  149.8760 N   0  0  0  0  0  0  0  0  0  0  0  0
  161.0750  203.3240  148.5670 C   0  0  0  0  0  0  0  0  0  0  0  0
  161.1140  200.9780  148.0110 C   0  0  0  0  0  3  0  0  0  0  0  0
  160.8840  200.6700  149.3500 C   0  0  0  0  0  3  0  0  0  0  0  0
  160.7450  201.7090  150.2740 C   0  0  0  0  0  3  0  0  0  0  0  0
  161.2130  202.3120  147.6140 C   0  0  0  0  0  3  0  0  0  0  0  0
  1 10  1  6  0  0  0
  2  6  2  0  0  0  0
  3  8  2  0  0  0  0
  4 14  1  6  0  0  0
  4 17  1  0  0  0  0
  6  5  1  0  0  0  0
  8  1  1  0  0  0  0
  8  2  1  0  0  0  0
  9  4  1  0  0  0  0
  9 16  1  0  0  0  0
 10  5  2  0  0  0  0
 11 18  2  0  0  0  0
 11  3  1  0  0  0  0
 12  1  1  0  0  0  0
 13  2  1  0  0  0  0
 15 14  1  1  0  0  0
 15 11  1  0  0  0  0
 16 26  1  1  0  0  0
 16  7  1  0  0  0  0
 17  7  1  1  0  0  0
 17  3  1  0  0  0  0
 18 12  1  0  0  0  0
 19 22  1  0  0  0  0
 20 23  1  6  0  0  0
 20 15  1  0  0  0  0
 21 19  2  0  0  0  0
 21 23  1  0  0  0  0
 22 20  1  0  0  0  0
 24 19  1  0  0  0  0
 25 24  1  0  0  0  0
 27 26  1  0  0  0  0
 28 30  2  0  0  0  0
 29 33  1  0  0  0  0
 29 27  1  0  0  0  0
 30 29  1  0  0  0  0
 31 32  1  0  0  0  0
 32 33  2  0  0  0  0
 34 31  2  0  0  0  0
 34 30  1  0  0  0  0
M  END
>  <MODEL>
8

>  <REMARK>
 VINA RESULT:      -7.4      1.833      5.491
  Name = 
  5 active torsions:
  status: ('A' for Active; 'I' for Inactive)
    1  A    between atoms: O_3  and  N_13
    2  A    between atoms: O_3  and  C_17
    3  A    between atoms: O_7  and  C_8
    4  A    between atoms: C_12  and  C_28
    5  A    between atoms: C_17  and  C_29
                            x       y       z     vdW  Elec       q    Type
                         _______ _______ _______ _____ _____    ______ ____

>  <TORSDO>
F 5

$$$$
=
 OpenBabel11062407453D

 34 39  0  0  1  0  0  0  0  0999 V2000
  160.9440  202.7240  149.6200 C   0  0  2  0  0  3  0  0  0  0  0  0
  161.1740  203.9550  151.7480 C   0  0  0  0  0  0  0  0  0  0  0  0
  161.5450  205.1220  149.5260 C   0  0  0  0  0  0  0  0  0  0  0  0
  161.6070  207.4970  148.9500 N   0  0  1  0  0  0  0  0  0  0  0  0
  160.3540  201.7080  151.7120 C   0  0  0  0  0  3  0  0  0  0  0  0
  160.7250  202.8350  152.3760 N   0  0  0  0  0  0  0  0  0  0  0  0
  160.6980  207.0640  151.0370 C   0  0  0  0  0  2  0  0  0  0  0  0
  161.2170  204.0000  150.3330 C   0  0  0  0  0  0  0  0  0  0  0  0
  161.6650  208.7780  149.6270 C   0  0  0  0  0  2  0  0  0  0  0  0
  160.4730  201.6260  150.3290 C   0  0  0  0  0  3  0  0  0  0  0  0
  161.8660  204.8920  148.1630 C   0  0  0  0  0  0  0  0  0  0  0  0
  161.1770  202.6180  148.3210 O   0  0  0  0  0  0  0  0  0  0  0  0
  161.6530  204.9120  152.4720 N   0  0  0  0  0  1  0  0  0  0  0  0
  162.7350  207.2850  148.0630 C   0  0  0  0  0  2  0  0  0  0  0  0
  162.4730  205.9800  147.2860 C   0  0  2  0  0  3  0  0  0  0  0  0
  160.8870  208.5730  150.9260 C   0  0  2  0  0  3  0  0  0  0  0  0
  161.7080  206.5440  150.0390 C   0  0  1  0  0  3  0  0  0  0  0  0
  161.6520  203.6260  147.6050 C   0  0  0  0  0  3  0  0  0  0  0  0
  160.4490  204.7050  144.6580 C   0  0  0  0  0  0  0  0  0  0  0  0
  161.6570  206.2010  146.0020 C   0  0  2  0  0  3  0  0  0  0  0  0
  161.5200  204.9530  143.9910 N   0  0  0  0  0  0  0  0  0  0  0  0
  160.3860  205.3620  145.9880 C   0  0  0  0  0  2  0  0  0  0  0  0
  162.4120  205.8290  144.7250 C   0  0  0  0  0  2  0  0  0  0  0  0
  159.4490  203.8830  144.1400 O   0  0  0  0  0  0  0  0  0  0  0  0
  159.3310  202.5180  144.5110 C   0  0  0  0  0  1  0  0  0  0  0  0
  161.6670  209.1130  152.1200 C   0  0  0  0  0  2  0  0  0  0  0  0
  160.8230  209.2390  153.2620 O   0  0  0  0  0  0  0  0  0  0  0  0
  160.5300  207.1160  154.8530 O   0  0  0  0  0  0  0  0  0  0  0  0
  161.3100  209.2360  154.5580 N   0  0  0  0  0  0  0  0  0  0  0  0
  161.1190  208.1240  155.3280 C   0  0  0  0  0  0  0  0  0  0  0  0
  162.2350  209.2030  157.1740 C   0  0  0  0  0  3  0  0  0  0  0  0
  162.4340  210.3290  156.3780 C   0  0  0  0  0  3  0  0  0  0  0  0
  161.9580  210.3290  155.0650 C   0  0  0  0  0  3  0  0  0  0  0  0
  161.5760  208.0910  156.6480 C   0  0  0  0  0  3  0  0  0  0  0  0
  1 10  1  1  0  0  0
  1  8  1  0  0  0  0
  2  6  2  0  0  0  0
  2 13  1  0  0  0  0
  3 17  1  0  0  0  0
  3  8  2  0  0  0  0
  4 14  1  6  0  0  0
  4  9  1  0  0  0  0
  4 17  1  0  0  0  0
  5  6  1  0  0  0  0
  8  2  1  0  0  0  0
  9 16  1  0  0  0  0
 10  5  2  0  0  0  0
 11  3  1  0  0  0  0
 12  1  1  0  0  0  0
 15 14  1  1  0  0  0
 15 11  1  0  0  0  0
 16  7  1  0  0  0  0
 16 26  1  1  0  0  0
 17  7  1  1  0  0  0
 18 11  2  0  0  0  0
 18 12  1  0  0  0  0
 19 22  1  0  0  0  0
 20 23  1  6  0  0  0
 20 15  1  0  0  0  0
 21 19  2  0  0  0  0
 21 23  1  0  0  0  0
 22 20  1  0  0  0  0
 24 25  1  0  0  0  0
 24 19  1  0  0  0  0
 26 27  1  0  0  0  0
 27 29  1  0  0  0  0
 28 30  2  0  0  0  0
 29 33  1  0  0  0  0
 29 30  1  0  0  0  0
 30 34  1  0  0  0  0
 32 31  1  0  0  0  0
 33 32  2  0  0  0  0
 34 31  2  0  0  0  0
M  END
>  <MODEL>
9

>  <REMARK>
 VINA RESULT:      -7.1      2.035      9.176
  Name = 
  5 active torsions:
  status: ('A' for Active; 'I' for Inactive)
    1  A    between atoms: O_3  and  N_13
    2  A    between atoms: O_3  and  C_17
    3  A    between atoms: O_7  and  C_8
    4  A    between atoms: C_12  and  C_28
    5  A    between atoms: C_17  and  C_29
                            x       y       z     vdW  Elec       q    Type
                         _______ _______ _______ _____ _____    ______ ____

>  <TORSDO>
F 5

$$$$
