=
 OpenBabel11062407593D

 34 38  0  0  1  0  0  0  0  0999 V2000
  160.6430  208.4200  154.7770 C   0  0  0  0  0  0  0  0  0  0  0  0
  159.9990  210.2920  153.2790 C   0  0  0  0  0  3  0  0  0  0  0  0
  161.3460  208.3990  152.3850 N   0  0  0  0  0  0  0  0  0  0  0  0
  162.3120  208.1450  150.0370 C   0  0  2  0  0  3  0  0  0  0  0  0
  159.3450  210.2680  155.6440 C   0  0  0  0  0  3  0  0  0  0  0  0
  158.3930  211.8620  154.0000 O   0  0  0  0  0  1  0  0  0  0  0  0
  161.8660  210.2690  151.0650 O   0  0  0  0  0  0  0  0  0  0  0  0
  161.0330  209.2290  153.5620 C   0  0  2  0  0  3  0  0  0  0  0  0
  159.9830  209.1180  155.8890 C   0  0  0  0  0  3  0  0  0  0  0  0
  161.5260  206.9720  152.5290 C   0  0  0  0  0  0  0  0  0  0  0  0
  160.8460  207.1400  154.8370 N   0  0  0  0  0  0  0  0  0  0  0  0
  159.2650  210.8160  154.2700 C   0  0  0  0  0  0  0  0  0  0  0  0
  161.6860  206.8270  150.0970 N   0  0  0  0  0  2  0  0  0  0  0  0
  162.0510  206.1730  151.3540 C   0  0  2  0  0  3  0  0  0  0  0  0
  161.8010  209.0130  151.1620 C   0  0  0  0  0  0  0  0  0  0  0  0
  161.3400  206.3940  153.7210 C   0  0  0  0  0  3  0  0  0  0  0  0
  161.9970  202.4030  151.7580 C   0  0  0  0  0  0  0  0  0  0  0  0
  160.7010  202.0890  151.3420 C   0  0  0  0  0  3  0  0  0  0  0  0
  161.5680  204.7520  151.3390 C   0  0  0  0  0  0  0  0  0  0  0  0
  159.8350  203.1040  150.9240 C   0  0  0  0  0  3  0  0  0  0  0  0
  162.4300  203.7320  151.7580 C   0  0  0  0  0  3  0  0  0  0  0  0
  160.2670  204.4330  150.9220 C   0  0  0  0  0  3  0  0  0  0  0  0
  162.8340  201.4180  152.1650 F   0  0  0  0  0  0  0  0  0  0  0  0
  162.0310  208.7590  148.6740 C   0  0  0  0  0  2  0  0  0  0  0  0
  161.3410  207.7990  147.8290 N   0  0  0  0  0  2  0  0  0  0  0  0
  162.3040  206.7650  147.5010 C   0  0  0  0  0  2  0  0  0  0  0  0
  161.9260  206.1220  146.1800 C   0  0  0  0  0  2  0  0  0  0  0  0
  161.0780  204.4630  144.0970 F   0  0  0  0  0  0  0  0  0  0  0  0
  161.6040  204.6740  146.3760 C   0  0  0  0  0  0  0  0  0  0  0  0
  161.1560  203.9250  145.3440 C   0  0  0  0  0  0  0  0  0  0  0  0
  160.5750  202.0590  146.9400 C   0  0  0  0  0  2  0  0  0  0  0  0
  161.6630  202.6190  147.8410 C   0  0  0  0  0  2  0  0  0  0  0  0
  161.6250  204.1430  147.7890 C   0  0  0  0  0  2  0  0  0  0  0  0
  160.8640  202.4520  145.4940 C   0  0  0  0  0  2  0  0  0  0  0  0
  1 11  2  0  0  0  0
  1  9  1  0  0  0  0
  2 12  2  0  0  0  0
  3 10  1  0  0  0  0
  3  8  1  0  0  0  0
  4 24  1  6  0  0  0
  4 13  1  0  0  0  0
  4 15  1  0  0  0  0
  5  9  2  0  0  0  0
  6 12  1  0  0  0  0
  7 15  2  0  0  0  0
  8  2  1  6  0  0  0
  8  1  1  0  0  0  0
 10 16  2  0  0  0  0
 12  5  1  0  0  0  0
 13 14  1  0  0  0  0
 14 19  1  6  0  0  0
 14 10  1  0  0  0  0
 15  3  1  0  0  0  0
 16 11  1  0  0  0  0
 17 23  1  0  0  0  0
 18 17  2  0  0  0  0
 19 21  2  0  0  0  0
 20 18  1  0  0  0  0
 21 17  1  0  0  0  0
 22 20  2  0  0  0  0
 22 19  1  0  0  0  0
 25 24  1  0  0  0  0
 26 25  1  0  0  0  0
 27 29  1  0  0  0  0
 27 26  1  0  0  0  0
 28 30  1  0  0  0  0
 29 33  1  0  0  0  0
 30 34  1  0  0  0  0
 30 29  2  0  0  0  0
 31 32  1  0  0  0  0
 33 32  1  0  0  0  0
 34 31  1  0  0  0  0
M  END
>  <MODEL>
1

>  <REMARK>
 VINA RESULT:      -8.4      0.000      0.000
  Name = 
  6 active torsions:
  status: ('A' for Active; 'I' for Inactive)
    1  A    between atoms: C_3  and  C_13
    2  A    between atoms: C_3  and  C_17
    3  A    between atoms: C_5  and  C_18
    4  A    between atoms: C_12  and  C_28
    5  A    between atoms: C_17  and  N_29
    6  A    between atoms: C_18  and  N_29
                            x       y       z     vdW  Elec       q    Type
                         _______ _______ _______ _____ _____    ______ ____

>  <TORSDO>
F 6

$$$$
=
 OpenBabel11062407593D

 34 38  0  0  1  0  0  0  0  0999 V2000
  158.5190  213.5070  153.2260 C   0  0  0  0  0  0  0  0  0  0  0  0
  158.3340  212.9070  150.8240 C   0  0  0  0  0  3  0  0  0  0  0  0
  160.1670  211.9400  152.2040 N   0  0  0  0  0  0  0  0  0  0  0  0
  162.0620  210.4160  151.4310 C   0  0  2  0  0  3  0  0  0  0  0  0
  156.7480  214.4530  151.8770 C   0  0  0  0  0  3  0  0  0  0  0  0
  156.3850  213.4790  149.6260 O   0  0  0  0  0  1  0  0  0  0  0  0
  160.9500  211.9830  149.9900 O   0  0  0  0  0  0  0  0  0  0  0  0
  159.2790  213.0960  151.9860 C   0  0  2  0  0  3  0  0  0  0  0  0
  157.3650  214.4020  153.0630 C   0  0  0  0  0  3  0  0  0  0  0  0
  160.4530  211.4850  153.5450 C   0  0  0  0  0  0  0  0  0  0  0  0
  158.8420  213.0630  154.4010 N   0  0  0  0  0  0  0  0  0  0  0  0
  157.1880  213.5960  150.7520 C   0  0  0  0  0  0  0  0  0  0  0  0
  161.6470  209.5940  152.5650 N   0  0  0  0  0  2  0  0  0  0  0  0
  161.5260  210.4370  153.7550 C   0  0  2  0  0  3  0  0  0  0  0  0
  161.0140  211.4620  151.1380 C   0  0  0  0  0  0  0  0  0  0  0  0
  159.8560  212.0720  154.5890 C   0  0  0  0  0  3  0  0  0  0  0  0
  160.0150  207.8100  156.0360 C   0  0  0  0  0  0  0  0  0  0  0  0
  160.8130  207.9290  157.1770 C   0  0  0  0  0  3  0  0  0  0  0  0
  161.2850  209.5730  154.9590 C   0  0  0  0  0  0  0  0  0  0  0  0
  161.8480  208.8680  157.2130 C   0  0  0  0  0  3  0  0  0  0  0  0
  160.2510  208.6300  154.9280 C   0  0  0  0  0  3  0  0  0  0  0  0
  162.0840  209.6880  156.1060 C   0  0  0  0  0  3  0  0  0  0  0  0
  159.0130  206.8990  156.0030 F   0  0  0  0  0  0  0  0  0  0  0  0
  162.3090  209.5090  150.2350 C   0  0  0  0  0  2  0  0  0  0  0  0
  162.4330  208.1290  150.6740 N   0  0  0  0  0  2  0  0  0  0  0  0
  162.0390  207.2990  149.5520 C   0  0  0  0  0  2  0  0  0  0  0  0
  160.6680  206.7070  149.8180 C   0  0  0  0  0  2  0  0  0  0  0  0
  160.8460  206.1620  152.5530 F   0  0  0  0  0  0  0  0  0  0  0  0
  160.7950  205.3190  150.3620 C   0  0  0  0  0  0  0  0  0  0  0  0
  160.9210  205.1120  151.6920 C   0  0  0  0  0  0  0  0  0  0  0  0
  161.4980  202.6930  151.2700 C   0  0  0  0  0  2  0  0  0  0  0  0
  160.6980  202.8250  149.9850 C   0  0  0  0  0  2  0  0  0  0  0  0
  160.9590  204.1950  149.3680 C   0  0  0  0  0  2  0  0  0  0  0  0
  161.0070  203.7250  152.2800 C   0  0  0  0  0  2  0  0  0  0  0  0
  1 11  2  0  0  0  0
  3 10  1  0  0  0  0
  4 24  1  6  0  0  0
  4 13  1  0  0  0  0
  5  9  2  0  0  0  0
  6 12  1  0  0  0  0
  7 15  2  0  0  0  0
  8  2  1  6  0  0  0
  8  3  1  0  0  0  0
  8  1  1  0  0  0  0
  9  1  1  0  0  0  0
 10 14  1  0  0  0  0
 10 16  2  0  0  0  0
 11 16  1  0  0  0  0
 12  2  2  0  0  0  0
 12  5  1  0  0  0  0
 13 14  1  0  0  0  0
 14 19  1  1  0  0  0
 15  4  1  0  0  0  0
 15  3  1  0  0  0  0
 17 18  1  0  0  0  0
 18 20  2  0  0  0  0
 19 22  2  0  0  0  0
 21 19  1  0  0  0  0
 21 17  2  0  0  0  0
 22 20  1  0  0  0  0
 23 17  1  0  0  0  0
 24 25  1  0  0  0  0
 26 27  1  0  0  0  0
 26 25  1  0  0  0  0
 27 29  1  0  0  0  0
 29 30  2  0  0  0  0
 30 34  1  0  0  0  0
 30 28  1  0  0  0  0
 31 34  1  0  0  0  0
 32 31  1  0  0  0  0
 33 32  1  0  0  0  0
 33 29  1  0  0  0  0
M  END
>  <MODEL>
2

>  <REMARK>
 VINA RESULT:      -8.3      3.055      5.419
  Name = 
  6 active torsions:
  status: ('A' for Active; 'I' for Inactive)
    1  A    between atoms: C_3  and  C_13
    2  A    between atoms: C_3  and  C_17
    3  A    between atoms: C_5  and  C_18
    4  A    between atoms: C_12  and  C_28
    5  A    between atoms: C_17  and  N_29
    6  A    between atoms: C_18  and  N_29
                            x       y       z     vdW  Elec       q    Type
                         _______ _______ _______ _____ _____    ______ ____

>  <TORSDO>
F 6

$$$$
=
 OpenBabel11062407593D

 34 38  0  0  1  0  0  0  0  0999 V2000
  160.6470  208.3890  154.8340 C   0  0  0  0  0  0  0  0  0  0  0  0
  159.8580  210.4190  153.6440 C   0  0  0  0  0  3  0  0  0  0  0  0
  161.2330  208.7310  152.4350 N   0  0  0  0  0  0  0  0  0  0  0  0
  162.0920  208.8500  150.0360 C   0  0  2  0  0  3  0  0  0  0  0  0
  159.3210  210.0380  156.0070 C   0  0  0  0  0  3  0  0  0  0  0  0
  158.2280  211.7990  154.6460 O   0  0  0  0  0  1  0  0  0  0  0  0
  161.6130  210.7890  151.3700 O   0  0  0  0  0  0  0  0  0  0  0  0
  160.9450  209.3760  153.7300 C   0  0  2  0  0  3  0  0  0  0  0  0
  160.0150  208.8950  156.0610 C   0  0  0  0  0  3  0  0  0  0  0  0
  161.4740  207.3090  152.3690 C   0  0  0  0  0  0  0  0  0  0  0  0
  160.9020  207.1230  154.7050 N   0  0  0  0  0  0  0  0  0  0  0  0
  159.1530  210.7670  154.7290 C   0  0  0  0  0  0  0  0  0  0  0  0
  161.5210  207.5090  149.9370 N   0  0  0  0  0  2  0  0  0  0  0  0
  161.9720  206.7050  151.0720 C   0  0  2  0  0  3  0  0  0  0  0  0
  161.6030  209.5290  151.2920 C   0  0  0  0  0  0  0  0  0  0  0  0
  161.3710  206.5630  153.4750 C   0  0  0  0  0  3  0  0  0  0  0  0
  160.8900  203.4870  149.3830 C   0  0  0  0  0  0  0  0  0  0  0  0
  160.7630  202.6210  150.4720 C   0  0  0  0  0  3  0  0  0  0  0  0
  161.5460  205.2790  150.8780 C   0  0  0  0  0  0  0  0  0  0  0  0
  161.0270  203.0800  151.7650 C   0  0  0  0  0  3  0  0  0  0  0  0
  161.2820  204.8140  149.5850 C   0  0  0  0  0  3  0  0  0  0  0  0
  161.4180  204.4060  151.9690 C   0  0  0  0  0  3  0  0  0  0  0  0
  160.6350  203.0400  148.1290 F   0  0  0  0  0  0  0  0  0  0  0  0
  161.7210  209.6330  148.7850 C   0  0  0  0  0  2  0  0  0  0  0  0
  162.4070  210.9140  148.7780 N   0  0  0  0  0  2  0  0  0  0  0  0
  161.6190  211.8040  147.9480 C   0  0  0  0  0  2  0  0  0  0  0  0
  161.3590  213.0970  148.6980 C   0  0  0  0  0  2  0  0  0  0  0  0
  160.1920  213.6090  151.1850 F   0  0  0  0  0  0  0  0  0  0  0  0
  159.8890  213.3120  148.8750 C   0  0  0  0  0  0  0  0  0  0  0  0
  159.3680  213.5140  150.1060 C   0  0  0  0  0  0  0  0  0  0  0  0
  157.0400  213.2470  149.1740 C   0  0  0  0  0  2  0  0  0  0  0  0
  157.6180  213.7160  147.8500 C   0  0  0  0  0  2  0  0  0  0  0  0
  159.0070  213.1150  147.6660 C   0  0  0  0  0  2  0  0  0  0  0  0
  157.8980  213.7780  150.3180 C   0  0  0  0  0  2  0  0  0  0  0  0
  1  9  1  0  0  0  0
  2 12  2  0  0  0  0
  3  8  1  0  0  0  0
  4 24  1  6  0  0  0
  4 15  1  0  0  0  0
  5  9  2  0  0  0  0
  6 12  1  0  0  0  0
  8  2  1  6  0  0  0
  8  1  1  0  0  0  0
 10  3  1  0  0  0  0
 10 16  2  0  0  0  0
 11  1  2  0  0  0  0
 12  5  1  0  0  0  0
 13  4  1  0  0  0  0
 13 14  1  0  0  0  0
 14 19  1  6  0  0  0
 14 10  1  0  0  0  0
 15  7  2  0  0  0  0
 15  3  1  0  0  0  0
 16 11  1  0  0  0  0
 17 21  2  0  0  0  0
 17 18  1  0  0  0  0
 18 20  2  0  0  0  0
 19 22  2  0  0  0  0
 20 22  1  0  0  0  0
 21 19  1  0  0  0  0
 23 17  1  0  0  0  0
 25 24  1  0  0  0  0
 26 27  1  0  0  0  0
 26 25  1  0  0  0  0
 27 29  1  0  0  0  0
 29 30  2  0  0  0  0
 30 34  1  0  0  0  0
 30 28  1  0  0  0  0
 31 34  1  0  0  0  0
 32 31  1  0  0  0  0
 33 32  1  0  0  0  0
 33 29  1  0  0  0  0
M  END
>  <MODEL>
3

>  <REMARK>
 VINA RESULT:      -8.2      3.380      5.448
  Name = 
  6 active torsions:
  status: ('A' for Active; 'I' for Inactive)
    1  A    between atoms: C_3  and  C_13
    2  A    between atoms: C_3  and  C_17
    3  A    between atoms: C_5  and  C_18
    4  A    between atoms: C_12  and  C_28
    5  A    between atoms: C_17  and  N_29
    6  A    between atoms: C_18  and  N_29
                            x       y       z     vdW  Elec       q    Type
                         _______ _______ _______ _____ _____    ______ ____

>  <TORSDO>
F 6

$$$$
=
 OpenBabel11062407593D

 34 38  0  0  1  0  0  0  0  0999 V2000
  160.9430  207.8040  154.6510 C   0  0  0  0  0  0  0  0  0  0  0  0
  160.0920  209.9950  153.8540 C   0  0  0  0  0  3  0  0  0  0  0  0
  161.3410  208.5110  152.2930 N   0  0  0  0  0  0  0  0  0  0  0  0
  162.0080  208.9960  149.8790 C   0  0  2  0  0  3  0  0  0  0  0  0
  159.7400  209.2560  156.1660 C   0  0  0  0  0  3  0  0  0  0  0  0
  158.5680  211.2080  155.1840 O   0  0  0  0  0  1  0  0  0  0  0  0
  161.6660  210.7070  151.5290 O   0  0  0  0  0  0  0  0  0  0  0  0
  161.1670  208.9490  153.6900 C   0  0  2  0  0  3  0  0  0  0  0  0
  160.4190  208.1170  155.9870 C   0  0  0  0  0  3  0  0  0  0  0  0
  161.5560  207.1150  151.9910 C   0  0  0  0  0  0  0  0  0  0  0  0
  161.1690  206.5730  154.3090 N   0  0  0  0  0  0  0  0  0  0  0  0
  159.4810  210.1740  155.0330 C   0  0  0  0  0  0  0  0  0  0  0  0
  161.4110  207.6880  149.6220 N   0  0  0  0  0  2  0  0  0  0  0  0
  161.9400  206.7170  150.5800 C   0  0  2  0  0  3  0  0  0  0  0  0
  161.6300  209.4750  151.2600 C   0  0  0  0  0  0  0  0  0  0  0  0
  161.5290  206.2080  152.9740 C   0  0  0  0  0  3  0  0  0  0  0  0
  161.0600  203.6790  148.4890 C   0  0  0  0  0  0  0  0  0  0  0  0
  160.6400  202.7710  149.4640 C   0  0  0  0  0  3  0  0  0  0  0  0
  161.4780  205.3390  150.2050 C   0  0  0  0  0  0  0  0  0  0  0  0
  160.6380  203.1440  150.8120 C   0  0  0  0  0  3  0  0  0  0  0  0
  161.4790  204.9600  148.8580 C   0  0  0  0  0  3  0  0  0  0  0  0
  161.0570  204.4250  151.1820 C   0  0  0  0  0  3  0  0  0  0  0  0
  161.0620  203.3160  147.1830 F   0  0  0  0  0  0  0  0  0  0  0  0
  161.5500  209.9630  148.7980 C   0  0  0  0  0  2  0  0  0  0  0  0
  162.5880  210.9450  148.5360 N   0  0  0  0  0  2  0  0  0  0  0  0
  161.9360  212.2400  148.4990 C   0  0  0  0  0  2  0  0  0  0  0  0
  161.4620  212.5280  147.0870 C   0  0  0  0  0  2  0  0  0  0  0  0
  159.8490  211.8130  144.9200 F   0  0  0  0  0  0  0  0  0  0  0  0
  159.9820  212.7510  147.0690 C   0  0  0  0  0  0  0  0  0  0  0  0
  159.2530  212.4270  145.9770 C   0  0  0  0  0  0  0  0  0  0  0  0
  157.2590  213.6370  146.9390 C   0  0  0  0  0  2  0  0  0  0  0  0
  157.8640  213.3510  148.3040 C   0  0  0  0  0  2  0  0  0  0  0  0
  159.3790  213.5090  148.2260 C   0  0  0  0  0  2  0  0  0  0  0  0
  157.7550  212.5960  145.9390 C   0  0  0  0  0  2  0  0  0  0  0  0
  1  9  1  0  0  0  0
  2 12  2  0  0  0  0
  3  8  1  0  0  0  0
  4 24  1  6  0  0  0
  4 15  1  0  0  0  0
  8  2  1  6  0  0  0
  8  1  1  0  0  0  0
  9  5  2  0  0  0  0
 10  3  1  0  0  0  0
 10 16  2  0  0  0  0
 11  1  2  0  0  0  0
 12  6  1  0  0  0  0
 12  5  1  0  0  0  0
 13  4  1  0  0  0  0
 13 14  1  0  0  0  0
 14 19  1  6  0  0  0
 14 10  1  0  0  0  0
 15  7  2  0  0  0  0
 15  3  1  0  0  0  0
 16 11  1  0  0  0  0
 17 21  2  0  0  0  0
 17 18  1  0  0  0  0
 18 20  2  0  0  0  0
 19 22  2  0  0  0  0
 20 22  1  0  0  0  0
 21 19  1  0  0  0  0
 23 17  1  0  0  0  0
 25 24  1  0  0  0  0
 26 25  1  0  0  0  0
 27 26  1  0  0  0  0
 28 30  1  0  0  0  0
 29 27  1  0  0  0  0
 29 33  1  0  0  0  0
 30 29  2  0  0  0  0
 31 32  1  0  0  0  0
 33 32  1  0  0  0  0
 34 30  1  0  0  0  0
 34 31  1  0  0  0  0
M  END
>  <MODEL>
4

>  <REMARK>
 VINA RESULT:      -8.0      3.152      4.978
  Name = 
  6 active torsions:
  status: ('A' for Active; 'I' for Inactive)
    1  A    between atoms: C_3  and  C_13
    2  A    between atoms: C_3  and  C_17
    3  A    between atoms: C_5  and  C_18
    4  A    between atoms: C_12  and  C_28
    5  A    between atoms: C_17  and  N_29
    6  A    between atoms: C_18  and  N_29
                            x       y       z     vdW  Elec       q    Type
                         _______ _______ _______ _____ _____    ______ ____

>  <TORSDO>
F 6

$$$$
=
 OpenBabel11062407593D

 34 38  0  0  1  0  0  0  0  0999 V2000
  160.9550  207.9990  154.5260 C   0  0  0  0  0  0  0  0  0  0  0  0
  160.0720  210.1800  153.7360 C   0  0  0  0  0  3  0  0  0  0  0  0
  161.3640  208.7300  152.1780 N   0  0  0  0  0  0  0  0  0  0  0  0
  162.0460  209.2440  149.7740 C   0  0  2  0  0  3  0  0  0  0  0  0
  159.7110  209.4170  156.0400 C   0  0  0  0  0  3  0  0  0  0  0  0
  158.5130  211.3540  155.0600 O   0  0  0  0  0  1  0  0  0  0  0  0
  161.6560  210.9370  151.4330 O   0  0  0  0  0  0  0  0  0  0  0  0
  161.1680  209.1540  153.5760 C   0  0  2  0  0  3  0  0  0  0  0  0
  160.4130  208.2920  155.8600 C   0  0  0  0  0  3  0  0  0  0  0  0
  161.6080  207.3400  151.8670 C   0  0  0  0  0  0  0  0  0  0  0  0
  161.2080  206.7740  154.1780 N   0  0  0  0  0  0  0  0  0  0  0  0
  159.4460  210.3380  154.9100 C   0  0  0  0  0  0  0  0  0  0  0  0
  161.4760  207.9280  149.5010 N   0  0  0  0  0  2  0  0  0  0  0  0
  162.0130  206.9600  150.4580 C   0  0  2  0  0  3  0  0  0  0  0  0
  161.6460  209.7070  151.1540 C   0  0  0  0  0  0  0  0  0  0  0  0
  161.5880  206.4260  152.8440 C   0  0  0  0  0  3  0  0  0  0  0  0
  161.2000  203.9250  148.3350 C   0  0  0  0  0  0  0  0  0  0  0  0
  160.7970  202.9990  149.3010 C   0  0  0  0  0  3  0  0  0  0  0  0
  161.5800  205.5770  150.0680 C   0  0  0  0  0  0  0  0  0  0  0  0
  160.7840  203.3580  150.6520 C   0  0  0  0  0  3  0  0  0  0  0  0
  161.5920  205.2110  148.7170 C   0  0  0  0  0  3  0  0  0  0  0  0
  161.1760  204.6440  151.0360 C   0  0  0  0  0  3  0  0  0  0  0  0
  161.2120  203.5740  147.0260 F   0  0  0  0  0  0  0  0  0  0  0  0
  161.5810  210.2110  148.6950 C   0  0  0  0  0  2  0  0  0  0  0  0
  162.6690  211.0990  148.3190 N   0  0  0  0  0  2  0  0  0  0  0  0
  162.1170  212.4390  148.2770 C   0  0  0  0  0  2  0  0  0  0  0  0
  162.6780  213.1800  147.0790 C   0  0  0  0  0  2  0  0  0  0  0  0
  163.7150  213.1230  144.4840 F   0  0  0  0  0  0  0  0  0  0  0  0
  161.8280  212.9410  145.8710 C   0  0  0  0  0  0  0  0  0  0  0  0
  162.3720  212.9660  144.6330 C   0  0  0  0  0  0  0  0  0  0  0  0
  160.0660  212.9410  143.6110 C   0  0  0  0  0  2  0  0  0  0  0  0
  159.6130  212.2430  144.8820 C   0  0  0  0  0  2  0  0  0  0  0  0
  160.3350  212.8550  146.0770 C   0  0  0  0  0  2  0  0  0  0  0  0
  161.5550  212.6850  143.3970 C   0  0  0  0  0  2  0  0  0  0  0  0
  1  9  1  0  0  0  0
  2 12  2  0  0  0  0
  3  8  1  0  0  0  0
  4 24  1  6  0  0  0
  4 15  1  0  0  0  0
  8  2  1  6  0  0  0
  8  1  1  0  0  0  0
  9  5  2  0  0  0  0
 10  3  1  0  0  0  0
 10 16  2  0  0  0  0
 11  1  2  0  0  0  0
 12  6  1  0  0  0  0
 12  5  1  0  0  0  0
 13  4  1  0  0  0  0
 13 14  1  0  0  0  0
 14 19  1  6  0  0  0
 14 10  1  0  0  0  0
 15  7  2  0  0  0  0
 15  3  1  0  0  0  0
 16 11  1  0  0  0  0
 17 21  2  0  0  0  0
 17 18  1  0  0  0  0
 18 20  2  0  0  0  0
 19 22  2  0  0  0  0
 20 22  1  0  0  0  0
 21 19  1  0  0  0  0
 23 17  1  0  0  0  0
 25 24  1  0  0  0  0
 26 25  1  0  0  0  0
 27 26  1  0  0  0  0
 28 30  1  0  0  0  0
 29 33  1  0  0  0  0
 29 27  1  0  0  0  0
 30 29  2  0  0  0  0
 31 32  1  0  0  0  0
 32 33  1  0  0  0  0
 34 31  1  0  0  0  0
 34 30  1  0  0  0  0
M  END
>  <MODEL>
5

>  <REMARK>
 VINA RESULT:      -8.0      3.306      4.974
  Name = 
  6 active torsions:
  status: ('A' for Active; 'I' for Inactive)
    1  A    between atoms: C_3  and  C_13
    2  A    between atoms: C_3  and  C_17
    3  A    between atoms: C_5  and  C_18
    4  A    between atoms: C_12  and  C_28
    5  A    between atoms: C_17  and  N_29
    6  A    between atoms: C_18  and  N_29
                            x       y       z     vdW  Elec       q    Type
                         _______ _______ _______ _____ _____    ______ ____

>  <TORSDO>
F 6

$$$$
=
 OpenBabel11062407593D

 34 38  0  0  1  0  0  0  0  0999 V2000
  158.2980  213.2160  152.5530 C   0  0  0  0  0  0  0  0  0  0  0  0
  158.2740  213.2120  150.0710 C   0  0  0  0  0  3  0  0  0  0  0  0
  160.0370  211.9490  151.2930 N   0  0  0  0  0  0  0  0  0  0  0  0
  162.0060  210.6650  150.3010 C   0  0  2  0  0  3  0  0  0  0  0  0
  156.5950  214.4520  151.3610 C   0  0  0  0  0  3  0  0  0  0  0  0
  156.3910  214.0480  148.9230 O   0  0  0  0  0  1  0  0  0  0  0  0
  160.9540  212.5280  149.2110 O   0  0  0  0  0  0  0  0  0  0  0  0
  159.1410  213.1200  151.3030 C   0  0  2  0  0  3  0  0  0  0  0  0
  157.1390  214.1190  152.5370 C   0  0  0  0  0  3  0  0  0  0  0  0
  160.2490  211.1860  152.5020 C   0  0  0  0  0  0  0  0  0  0  0  0
  158.5570  212.5040  153.6060 N   0  0  0  0  0  0  0  0  0  0  0  0
  157.1210  213.8940  150.0930 C   0  0  0  0  0  0  0  0  0  0  0  0
  161.5380  209.5930  151.1750 N   0  0  0  0  0  2  0  0  0  0  0  0
  161.3280  210.1230  152.5220 C   0  0  2  0  0  3  0  0  0  0  0  0
  160.9580  211.7470  150.2010 C   0  0  0  0  0  0  0  0  0  0  0  0
  159.5770  211.5010  153.6150 C   0  0  0  0  0  3  0  0  0  0  0  0
  160.9020  206.6080  153.8820 C   0  0  0  0  0  0  0  0  0  0  0  0
  160.5010  206.8560  155.1970 C   0  0  0  0  0  3  0  0  0  0  0  0
  161.0300  208.9930  153.4650 C   0  0  0  0  0  0  0  0  0  0  0  0
  160.3640  208.1710  155.6500 C   0  0  0  0  0  3  0  0  0  0  0  0
  161.1670  207.6740  153.0170 C   0  0  0  0  0  3  0  0  0  0  0  0
  160.6280  209.2380  154.7870 C   0  0  0  0  0  3  0  0  0  0  0  0
  161.0350  205.3320  153.4440 F   0  0  0  0  0  0  0  0  0  0  0  0
  162.3440  210.0750  148.9400 C   0  0  0  0  0  2  0  0  0  0  0  0
  161.4370  208.9830  148.6330 N   0  0  0  0  0  2  0  0  0  0  0  0
  162.2590  207.8110  148.4020 C   0  0  0  0  0  2  0  0  0  0  0  0
  161.5080  206.8320  147.5190 C   0  0  0  0  0  2  0  0  0  0  0  0
  161.7150  204.3570  146.2370 F   0  0  0  0  0  0  0  0  0  0  0  0
  161.3120  205.5300  148.2310 C   0  0  0  0  0  0  0  0  0  0  0  0
  161.3810  204.3610  147.5550 C   0  0  0  0  0  0  0  0  0  0  0  0
  160.4690  203.1360  149.5630 C   0  0  0  0  0  2  0  0  0  0  0  0
  161.0600  204.2600  150.3980 C   0  0  0  0  0  2  0  0  0  0  0  0
  160.8610  205.5860  149.6710 C   0  0  0  0  0  2  0  0  0  0  0  0
  161.2330  203.0290  148.2470 C   0  0  0  0  0  2  0  0  0  0  0  0
  1 11  2  0  0  0  0
  2 12  2  0  0  0  0
  3  8  1  0  0  0  0
  3 10  1  0  0  0  0
  4 24  1  6  0  0  0
  4 13  1  0  0  0  0
  5  9  2  0  0  0  0
  6 12  1  0  0  0  0
  7 15  2  0  0  0  0
  8  2  1  6  0  0  0
  8  1  1  0  0  0  0
  9  1  1  0  0  0  0
 10 14  1  0  0  0  0
 10 16  2  0  0  0  0
 11 16  1  0  0  0  0
 12  5  1  0  0  0  0
 13 14  1  0  0  0  0
 14 19  1  1  0  0  0
 15  4  1  0  0  0  0
 15  3  1  0  0  0  0
 17 18  1  0  0  0  0
 18 20  2  0  0  0  0
 19 22  2  0  0  0  0
 21 19  1  0  0  0  0
 21 17  2  0  0  0  0
 22 20  1  0  0  0  0
 23 17  1  0  0  0  0
 25 24  1  0  0  0  0
 26 25  1  0  0  0  0
 27 29  1  0  0  0  0
 27 26  1  0  0  0  0
 28 30  1  0  0  0  0
 29 33  1  0  0  0  0
 30 29  2  0  0  0  0
 30 34  1  0  0  0  0
 31 32  1  0  0  0  0
 33 32  1  0  0  0  0
 34 31  1  0  0  0  0
M  END
>  <MODEL>
6

>  <REMARK>
 VINA RESULT:      -7.9      2.838      4.364
  Name = 
  6 active torsions:
  status: ('A' for Active; 'I' for Inactive)
    1  A    between atoms: C_3  and  C_13
    2  A    between atoms: C_3  and  C_17
    3  A    between atoms: C_5  and  C_18
    4  A    between atoms: C_12  and  C_28
    5  A    between atoms: C_17  and  N_29
    6  A    between atoms: C_18  and  N_29
                            x       y       z     vdW  Elec       q    Type
                         _______ _______ _______ _____ _____    ______ ____

>  <TORSDO>
F 6

$$$$
=
 OpenBabel11062407593D

 34 38  0  0  1  0  0  0  0  0999 V2000
  161.6160  207.1350  153.3430 C   0  0  0  0  0  0  0  0  0  0  0  0
  160.5900  209.3930  153.2470 C   0  0  0  0  0  3  0  0  0  0  0  0
  161.7980  208.4970  151.2630 N   0  0  0  0  0  0  0  0  0  0  0  0
  162.2550  209.6820  149.0500 C   0  0  2  0  0  3  0  0  0  0  0  0
  160.4530  208.0160  155.2720 C   0  0  0  0  0  3  0  0  0  0  0  0
  159.1070  210.0730  154.9500 O   0  0  0  0  0  1  0  0  0  0  0  0
  161.9450  210.8370  151.1330 O   0  0  0  0  0  0  0  0  0  0  0  0
  161.7050  208.5150  152.7340 C   0  0  2  0  0  3  0  0  0  0  0  0
  161.1770  207.0250  154.7410 C   0  0  0  0  0  3  0  0  0  0  0  0
  162.0650  207.2600  150.5660 C   0  0  0  0  0  0  0  0  0  0  0  0
  161.8820  206.0670  152.6550 N   0  0  0  0  0  0  0  0  0  0  0  0
  160.0600  209.1910  154.4610 C   0  0  0  0  0  0  0  0  0  0  0  0
  161.7120  208.4570  148.4680 N   0  0  0  0  0  2  0  0  0  0  0  0
  162.3630  207.2990  149.0810 C   0  0  2  0  0  3  0  0  0  0  0  0
  161.9560  209.7290  150.5290 C   0  0  0  0  0  0  0  0  0  0  0  0
  162.1610  206.1150  151.2530 C   0  0  0  0  0  3  0  0  0  0  0  0
  161.9600  204.7150  146.3350 C   0  0  0  0  0  0  0  0  0  0  0  0
  161.2130  203.7260  146.9800 C   0  0  0  0  0  3  0  0  0  0  0  0
  161.9500  206.0500  148.3590 C   0  0  0  0  0  0  0  0  0  0  0  0
  160.8330  203.8950  148.3150 C   0  0  0  0  0  3  0  0  0  0  0  0
  162.3290  205.8750  147.0230 C   0  0  0  0  0  3  0  0  0  0  0  0
  161.2000  205.0540  149.0040 C   0  0  0  0  0  3  0  0  0  0  0  0
  162.3290  204.5490  145.0420 F   0  0  0  0  0  0  0  0  0  0  0  0
  161.6650  210.8760  148.3140 C   0  0  0  0  0  2  0  0  0  0  0  0
  162.7020  211.8590  148.0510 N   0  0  0  0  0  2  0  0  0  0  0  0
  162.0300  213.1300  147.8560 C   0  0  0  0  0  2  0  0  0  0  0  0
  162.5540  213.7910  146.5950 C   0  0  0  0  0  2  0  0  0  0  0  0
  163.8270  213.3530  144.1460 F   0  0  0  0  0  0  0  0  0  0  0  0
  161.8380  213.2620  145.3920 C   0  0  0  0  0  0  0  0  0  0  0  0
  162.4910  213.1090  144.2180 C   0  0  0  0  0  0  0  0  0  0  0  0
  160.2970  212.6950  143.0430 C   0  0  0  0  0  2  0  0  0  0  0  0
  159.7800  212.2030  144.3850 C   0  0  0  0  0  2  0  0  0  0  0  0
  160.3430  213.0840  145.4950 C   0  0  0  0  0  2  0  0  0  0  0  0
  161.8140  212.5370  142.9970 C   0  0  0  0  0  2  0  0  0  0  0  0
  1  9  1  0  0  0  0
  2 12  2  0  0  0  0
  3  8  1  0  0  0  0
  4 24  1  6  0  0  0
  4 15  1  0  0  0  0
  8  2  1  6  0  0  0
  8  1  1  0  0  0  0
  9  5  2  0  0  0  0
 10 16  2  0  0  0  0
 10  3  1  0  0  0  0
 11  1  2  0  0  0  0
 12  6  1  0  0  0  0
 12  5  1  0  0  0  0
 13  4  1  0  0  0  0
 13 14  1  0  0  0  0
 14 19  1  6  0  0  0
 14 10  1  0  0  0  0
 15  7  2  0  0  0  0
 15  3  1  0  0  0  0
 16 11  1  0  0  0  0
 17 18  2  0  0  0  0
 17 21  1  0  0  0  0
 18 20  1  0  0  0  0
 19 22  1  0  0  0  0
 20 22  2  0  0  0  0
 21 19  2  0  0  0  0
 23 17  1  0  0  0  0
 25 24  1  0  0  0  0
 26 25  1  0  0  0  0
 27 26  1  0  0  0  0
 28 30  1  0  0  0  0
 29 33  1  0  0  0  0
 29 27  1  0  0  0  0
 30 29  2  0  0  0  0
 31 32  1  0  0  0  0
 32 33  1  0  0  0  0
 34 31  1  0  0  0  0
 34 30  1  0  0  0  0
M  END
>  <MODEL>
7

>  <REMARK>
 VINA RESULT:      -7.9      3.540      5.522
  Name = 
  6 active torsions:
  status: ('A' for Active; 'I' for Inactive)
    1  A    between atoms: C_3  and  C_13
    2  A    between atoms: C_3  and  C_17
    3  A    between atoms: C_5  and  C_18
    4  A    between atoms: C_12  and  C_28
    5  A    between atoms: C_17  and  N_29
    6  A    between atoms: C_18  and  N_29
                            x       y       z     vdW  Elec       q    Type
                         _______ _______ _______ _____ _____    ______ ____

>  <TORSDO>
F 6

$$$$
=
 OpenBabel11062407593D

 34 38  0  0  1  0  0  0  0  0999 V2000
  160.7810  213.4530  149.3550 C   0  0  0  0  0  0  0  0  0  0  0  0
  160.9540  211.6590  147.6480 C   0  0  0  0  0  3  0  0  0  0  0  0
  161.3170  211.1200  150.0520 N   0  0  0  0  0  0  0  0  0  0  0  0
  161.9910  208.8760  151.0620 C   0  0  2  0  0  3  0  0  0  0  0  0
  160.4410  213.9740  147.0170 C   0  0  0  0  0  3  0  0  0  0  0  0
  160.2110  212.0680  145.4470 O   0  0  0  0  0  1  0  0  0  0  0  0
  162.5440  209.5410  148.8210 O   0  0  0  0  0  0  0  0  0  0  0  0
  161.4370  212.1410  148.9940 C   0  0  0  0  0  0  0  0  0  0  0  0
  160.5290  214.4180  148.2760 C   0  0  0  0  0  2  0  0  0  0  0  0
  160.8680  211.4920  151.3730 C   0  0  0  0  0  0  0  0  0  0  0  0
  160.4130  213.7210  150.5700 N   0  0  0  0  0  0  0  0  0  0  0  0
  160.5550  212.5290  146.7100 C   0  0  0  0  0  0  0  0  0  0  0  0
  160.8590  209.1200  151.9520 N   0  0  0  0  0  2  0  0  0  0  0  0
  160.9530  210.4760  152.4940 C   0  0  2  0  0  3  0  0  0  0  0  0
  161.9470  209.8320  149.8940 C   0  0  0  0  0  0  0  0  0  0  0  0
  160.4960  212.7530  151.6210 C   0  0  0  0  0  3  0  0  0  0  0  0
  157.7270  211.5220  154.1920 C   0  0  0  0  0  0  0  0  0  0  0  0
  157.9140  211.0310  155.4870 C   0  0  0  0  0  3  0  0  0  0  0  0
  159.9040  210.6680  153.5500 C   0  0  0  0  0  0  0  0  0  0  0  0
  159.0930  210.3570  155.8170 C   0  0  0  0  0  3  0  0  0  0  0  0
  158.7200  211.3400  153.2250 C   0  0  0  0  0  3  0  0  0  0  0  0
  160.0860  210.1750  154.8510 C   0  0  0  0  0  3  0  0  0  0  0  0
  156.5830  212.1740  153.8740 F   0  0  0  0  0  0  0  0  0  0  0  0
  161.9520  207.4240  150.6080 C   0  0  0  0  0  2  0  0  0  0  0  0
  162.6010  206.5770  151.5950 N   0  0  0  0  0  2  0  0  0  0  0  0
  161.7460  205.4200  151.7770 C   0  0  0  0  0  2  0  0  0  0  0  0
  160.7760  205.3200  150.6140 C   0  0  0  0  0  2  0  0  0  0  0  0
  161.2000  205.0280  147.8670 F   0  0  0  0  0  0  0  0  0  0  0  0
  160.8940  203.9850  149.9490 C   0  0  0  0  0  0  0  0  0  0  0  0
  161.0550  203.8970  148.6100 C   0  0  0  0  0  0  0  0  0  0  0  0
  160.6400  201.4120  148.7130 C   0  0  0  0  0  2  0  0  0  0  0  0
  161.1520  201.4810  150.1420 C   0  0  0  0  0  2  0  0  0  0  0  0
  160.6440  202.7610  150.7970 C   0  0  0  0  0  2  0  0  0  0  0  0
  161.2210  202.5710  147.9100 C   0  0  0  0  0  2  0  0  0  0  0  0
  1 11  2  0  0  0  0
  2  8  2  0  0  0  0
  3 10  1  0  0  0  0
  4 24  1  6  0  0  0
  4 13  1  0  0  0  0
  5  9  1  0  0  0  0
  6 12  1  0  0  0  0
  7 15  2  0  0  0  0
  8  1  1  0  0  0  0
  8  3  1  0  0  0  0
  9  1  1  0  0  0  0
 10 16  2  0  0  0  0
 10 14  1  0  0  0  0
 11 16  1  0  0  0  0
 12  5  2  0  0  0  0
 12  2  1  0  0  0  0
 13 14  1  0  0  0  0
 14 19  1  1  0  0  0
 15  3  1  0  0  0  0
 15  4  1  0  0  0  0
 17 18  1  0  0  0  0
 18 20  2  0  0  0  0
 19 22  2  0  0  0  0
 21 19  1  0  0  0  0
 21 17  2  0  0  0  0
 22 20  1  0  0  0  0
 23 17  1  0  0  0  0
 24 25  1  0  0  0  0
 25 26  1  0  0  0  0
 27 26  1  0  0  0  0
 28 30  1  0  0  0  0
 29 27  1  0  0  0  0
 29 33  1  0  0  0  0
 30 29  2  0  0  0  0
 31 32  1  0  0  0  0
 32 33  1  0  0  0  0
 34 30  1  0  0  0  0
 34 31  1  0  0  0  0
M  END
>  <MODEL>
8

>  <REMARK>
 VINA RESULT:      -7.5      3.589      6.323
  Name = 
  6 active torsions:
  status: ('A' for Active; 'I' for Inactive)
    1  A    between atoms: C_3  and  C_13
    2  A    between atoms: C_3  and  C_17
    3  A    between atoms: C_5  and  C_18
    4  A    between atoms: C_12  and  C_28
    5  A    between atoms: C_17  and  N_29
    6  A    between atoms: C_18  and  N_29
                            x       y       z     vdW  Elec       q    Type
                         _______ _______ _______ _____ _____    ______ ____

>  <TORSDO>
F 6

$$$$
=
 OpenBabel11062407593D

 34 38  0  0  1  0  0  0  0  0999 V2000
  161.7580  206.6500  152.7900 C   0  0  0  0  0  0  0  0  0  0  0  0
  160.7710  208.8840  153.2320 C   0  0  0  0  0  3  0  0  0  0  0  0
  161.9270  208.4480  151.0710 N   0  0  0  0  0  0  0  0  0  0  0  0
  162.3660  210.1000  149.1770 C   0  0  2  0  0  3  0  0  0  0  0  0
  160.6450  207.0820  154.8930 C   0  0  0  0  0  3  0  0  0  0  0  0
  159.3290  209.1760  155.0760 O   0  0  0  0  0  1  0  0  0  0  0  0
  162.1130  210.7530  151.4740 O   0  0  0  0  0  0  0  0  0  0  0  0
  161.8610  208.1310  152.5090 C   0  0  2  0  0  3  0  0  0  0  0  0
  161.3420  206.2290  154.1350 C   0  0  0  0  0  3  0  0  0  0  0  0
  162.1600  207.3990  150.1060 C   0  0  0  0  0  0  0  0  0  0  0  0
  161.9940  205.7640  151.8710 N   0  0  0  0  0  0  0  0  0  0  0  0
  160.2590  208.4170  154.3790 C   0  0  0  0  0  0  0  0  0  0  0  0
  161.7920  209.0480  148.3430 N   0  0  0  0  0  2  0  0  0  0  0  0
  162.4330  207.7720  148.6630 C   0  0  2  0  0  3  0  0  0  0  0  0
  162.0950  209.8120  150.6340 C   0  0  0  0  0  0  0  0  0  0  0  0
  162.2490  206.1270  150.5110 C   0  0  0  0  0  3  0  0  0  0  0  0
  160.3790  205.9710  146.0330 C   0  0  0  0  0  0  0  0  0  0  0  0
  161.1250  204.8070  145.8340 C   0  0  0  0  0  3  0  0  0  0  0  0
  161.9860  206.7260  147.6840 C   0  0  0  0  0  0  0  0  0  0  0  0
  162.3030  204.5990  146.5580 C   0  0  0  0  0  3  0  0  0  0  0  0
  160.8080  206.9300  146.9550 C   0  0  0  0  0  3  0  0  0  0  0  0
  162.7330  205.5560  147.4810 C   0  0  0  0  0  3  0  0  0  0  0  0
  159.2380  206.1720  145.3300 F   0  0  0  0  0  0  0  0  0  0  0  0
  161.7850  211.4380  148.7450 C   0  0  0  0  0  2  0  0  0  0  0  0
  162.6430  212.0550  147.7480 N   0  0  0  0  0  2  0  0  0  0  0  0
  162.1520  213.4060  147.5540 C   0  0  0  0  0  2  0  0  0  0  0  0
  161.3850  213.4830  146.2470 C   0  0  0  0  0  2  0  0  0  0  0  0
  159.6860  211.8110  144.7880 F   0  0  0  0  0  0  0  0  0  0  0  0
  159.9130  213.4030  146.5010 C   0  0  0  0  0  0  0  0  0  0  0  0
  159.1270  212.6100  145.7370 C   0  0  0  0  0  0  0  0  0  0  0  0
  157.0690  213.6650  146.7440 C   0  0  0  0  0  2  0  0  0  0  0  0
  157.9300  213.9570  147.9610 C   0  0  0  0  0  2  0  0  0  0  0  0
  159.3260  214.3660  147.5040 C   0  0  0  0  0  2  0  0  0  0  0  0
  157.6470  212.4700  145.9910 C   0  0  0  0  0  2  0  0  0  0  0  0
  1  9  1  0  0  0  0
  2 12  2  0  0  0  0
  3  8  1  0  0  0  0
  4 24  1  6  0  0  0
  4 15  1  0  0  0  0
  8  1  1  0  0  0  0
  8  2  1  6  0  0  0
  9  5  2  0  0  0  0
 10 16  2  0  0  0  0
 10  3  1  0  0  0  0
 11  1  2  0  0  0  0
 12  5  1  0  0  0  0
 12  6  1  0  0  0  0
 13 14  1  0  0  0  0
 13  4  1  0  0  0  0
 14 19  1  6  0  0  0
 14 10  1  0  0  0  0
 15  3  1  0  0  0  0
 15  7  2  0  0  0  0
 16 11  1  0  0  0  0
 17 21  1  0  0  0  0
 18 17  2  0  0  0  0
 18 20  1  0  0  0  0
 20 22  2  0  0  0  0
 21 19  2  0  0  0  0
 22 19  1  0  0  0  0
 23 17  1  0  0  0  0
 25 24  1  0  0  0  0
 26 25  1  0  0  0  0
 27 29  1  0  0  0  0
 27 26  1  0  0  0  0
 28 30  1  0  0  0  0
 29 33  1  0  0  0  0
 30 34  1  0  0  0  0
 30 29  2  0  0  0  0
 31 32  1  0  0  0  0
 33 32  1  0  0  0  0
 34 31  1  0  0  0  0
M  END
>  <MODEL>
9

>  <REMARK>
 VINA RESULT:      -7.2      3.508      6.017
  Name = 
  6 active torsions:
  status: ('A' for Active; 'I' for Inactive)
    1  A    between atoms: C_3  and  C_13
    2  A    between atoms: C_3  and  C_17
    3  A    between atoms: C_5  and  C_18
    4  A    between atoms: C_12  and  C_28
    5  A    between atoms: C_17  and  N_29
    6  A    between atoms: C_18  and  N_29
                            x       y       z     vdW  Elec       q    Type
                         _______ _______ _______ _____ _____    ______ ____

>  <TORSDO>
F 6

$$$$
