=
 OpenBabel11052422153D

 25 29  0  0  0  0  0  0  0  0999 V2000
  161.3920  204.9200  148.6060 C   0  0  0  0  0  0  0  0  0  0  0  0
  161.4300  206.1580  149.2820 C   0  0  0  0  0  0  0  0  0  0  0  0
  161.9690  206.0010  146.4960 C   0  0  0  0  0  3  0  0  0  0  0  0
  161.1040  203.6430  149.1310 C   0  0  0  0  0  0  0  0  0  0  0  0
  160.5920  200.9760  149.7970 C   0  0  0  0  0  3  0  0  0  0  0  0
  162.0100  207.2320  147.1570 C   0  0  0  0  0  3  0  0  0  0  0  0
  161.1570  202.6390  148.1650 C   0  0  0  0  0  0  0  0  0  0  0  0
  160.9070  201.3030  148.4700 C   0  0  0  0  0  3  0  0  0  0  0  0
  161.8010  208.6210  149.2180 C   0  0  0  0  0  0  0  0  0  0  0  0
  162.0560  209.6750  148.5760 O   0  0  0  0  0  0  0  0  0  0  0  0
  161.1160  206.2470  150.7580 C   0  0  0  0  0  2  0  0  0  0  0  0
  160.5350  201.9760  150.7840 C   0  0  0  0  0  3  0  0  0  0  0  0
  161.6610  204.8660  147.2380 C   0  0  0  0  0  0  0  0  0  0  0  0
  161.5530  203.2850  146.6620 S   0  0  0  0  0  0  0  0  0  0  0  0
  161.5710  208.6950  150.6620 C   0  0  0  0  0  3  0  0  0  0  0  0
  160.7910  203.3160  150.4540 C   0  0  0  0  0  3  0  0  0  0  0  0
  161.2690  207.6150  151.3940 C   0  0  0  0  0  0  0  0  0  0  0  0
  161.7430  207.3190  148.5380 C   0  0  0  0  0  0  0  0  0  0  0  0
  160.7500  209.1410  154.8350 C   0  0  0  0  0  0  0  0  0  0  0  0
  161.0530  207.7540  152.8560 C   0  0  0  0  0  0  0  0  0  0  0  0
  160.9540  209.0200  153.4580 C   0  0  0  0  0  3  0  0  0  0  0  0
  160.6550  210.3980  155.4150 O   0  0  0  0  0  1  0  0  0  0  0  0
  160.9450  206.6110  153.6670 C   0  0  0  0  0  3  0  0  0  0  0  0
  160.6460  207.9960  155.6290 C   0  0  0  0  0  3  0  0  0  0  0  0
  160.7420  206.7310  155.0440 C   0  0  0  0  0  3  0  0  0  0  0  0
  1  4  1  0  0  0  0
  1  2  1  0  0  0  0
  2 11  1  0  0  0  0
  3  6  2  0  0  0  0
  3 13  1  0  0  0  0
  4 16  1  0  0  0  0
  5 12  1  0  0  0  0
  6 18  1  0  0  0  0
  7  8  1  0  0  0  0
  7  4  2  0  0  0  0
  8  5  2  0  0  0  0
  9 15  1  0  0  0  0
 10  9  2  0  0  0  0
 11 17  1  0  0  0  0
 13  1  2  0  0  0  0
 14 13  1  0  0  0  0
 14  7  1  0  0  0  0
 15 17  2  0  0  0  0
 16 12  2  0  0  0  0
 17 20  1  0  0  0  0
 18  9  1  0  0  0  0
 18  2  2  0  0  0  0
 19 22  1  0  0  0  0
 19 24  1  0  0  0  0
 20 21  1  0  0  0  0
 20 23  2  0  0  0  0
 21 19  2  0  0  0  0
 23 25  1  0  0  0  0
 25 24  2  0  0  0  0
M  END
>  <MODEL>
1

>  <REMARK>
 VINA RESULT:     -11.4      0.000      0.000
  Name = 
  1 active torsions:
  status: ('A' for Active; 'I' for Inactive)
    1  A    between atoms: C_6  and  C_23
                            x       y       z     vdW  Elec       q    Type
                         _______ _______ _______ _____ _____    ______ ____

>  <TORSDO>
F 1

$$$$
=
 OpenBabel11052422153D

 25 29  0  0  0  0  0  0  0  0999 V2000
  161.0800  203.5560  148.1560 C   0  0  0  0  0  0  0  0  0  0  0  0
  161.0890  204.0200  149.4890 C   0  0  0  0  0  0  0  0  0  0  0  0
  160.7960  201.2530  148.9110 C   0  0  0  0  0  3  0  0  0  0  0  0
  161.2060  204.3030  146.9670 C   0  0  0  0  0  0  0  0  0  0  0  0
  161.4180  205.4320  144.4180 C   0  0  0  0  0  3  0  0  0  0  0  0
  160.8030  201.7030  150.2350 C   0  0  0  0  0  3  0  0  0  0  0  0
  161.1530  203.5080  145.8230 C   0  0  0  0  0  0  0  0  0  0  0  0
  161.2560  204.0450  144.5420 C   0  0  0  0  0  3  0  0  0  0  0  0
  160.9440  203.5290  151.9270 C   0  0  0  0  0  0  0  0  0  0  0  0
  160.8420  202.7060  152.8760 O   0  0  0  0  0  0  0  0  0  0  0  0
  161.2730  205.4880  149.7990 C   0  0  0  0  0  2  0  0  0  0  0  0
  161.4720  206.2490  145.5610 C   0  0  0  0  0  3  0  0  0  0  0  0
  160.9340  202.1930  147.8960 C   0  0  0  0  0  0  0  0  0  0  0  0
  160.9550  201.8890  146.2380 S   0  0  0  0  0  0  0  0  0  0  0  0
  161.0450  204.9590  152.2230 C   0  0  0  0  0  3  0  0  0  0  0  0
  161.3650  205.6870  146.8430 C   0  0  0  0  0  3  0  0  0  0  0  0
  161.1830  205.8810  151.2610 C   0  0  0  0  0  0  0  0  0  0  0  0
  160.9490  203.0730  150.5300 C   0  0  0  0  0  0  0  0  0  0  0  0
  161.7690  209.6280  151.0350 C   0  0  0  0  0  0  0  0  0  0  0  0
  161.2750  207.3170  151.6240 C   0  0  0  0  0  0  0  0  0  0  0  0
  161.6850  208.2780  150.6840 C   0  0  0  0  0  3  0  0  0  0  0  0
  162.1750  210.5650  150.0950 O   0  0  0  0  0  1  0  0  0  0  0  0
  160.9540  207.7400  152.9250 C   0  0  0  0  0  3  0  0  0  0  0  0
  161.4470  210.0340  152.3320 C   0  0  0  0  0  3  0  0  0  0  0  0
  161.0380  209.0900  153.2770 C   0  0  0  0  0  3  0  0  0  0  0  0
  1  2  2  0  0  0  0
  2 11  1  0  0  0  0
  2 18  1  0  0  0  0
  3  6  1  0  0  0  0
  4  1  1  0  0  0  0
  5  8  2  0  0  0  0
  5 12  1  0  0  0  0
  6 18  2  0  0  0  0
  7 14  1  0  0  0  0
  7  4  2  0  0  0  0
  8  7  1  0  0  0  0
  9 15  1  0  0  0  0
  9 10  2  0  0  0  0
 11 17  1  0  0  0  0
 12 16  2  0  0  0  0
 13  1  1  0  0  0  0
 13  3  2  0  0  0  0
 14 13  1  0  0  0  0
 16  4  1  0  0  0  0
 17 20  1  0  0  0  0
 17 15  2  0  0  0  0
 18  9  1  0  0  0  0
 19 24  1  0  0  0  0
 20 23  2  0  0  0  0
 21 19  2  0  0  0  0
 21 20  1  0  0  0  0
 22 19  1  0  0  0  0
 23 25  1  0  0  0  0
 24 25  2  0  0  0  0
M  END
>  <MODEL>
2

>  <REMARK>
 VINA RESULT:     -11.1      2.041      4.325
  Name = 
  1 active torsions:
  status: ('A' for Active; 'I' for Inactive)
    1  A    between atoms: C_6  and  C_23
                            x       y       z     vdW  Elec       q    Type
                         _______ _______ _______ _____ _____    ______ ____

>  <TORSDO>
F 1

$$$$
=
 OpenBabel11052422153D

 25 29  0  0  0  0  0  0  0  0999 V2000
  161.0860  203.5640  148.1510 C   0  0  0  0  0  0  0  0  0  0  0  0
  161.1050  204.0500  149.4760 C   0  0  0  0  0  0  0  0  0  0  0  0
  160.7580  201.2800  148.9440 C   0  0  0  0  0  3  0  0  0  0  0  0
  161.2260  204.2880  146.9490 C   0  0  0  0  0  0  0  0  0  0  0  0
  161.4580  205.3700  144.3810 C   0  0  0  0  0  3  0  0  0  0  0  0
  160.7750  201.7520  150.2600 C   0  0  0  0  0  3  0  0  0  0  0  0
  161.1570  203.4750  145.8180 C   0  0  0  0  0  0  0  0  0  0  0  0
  161.2700  203.9890  144.5280 C   0  0  0  0  0  3  0  0  0  0  0  0
  160.9520  203.6030  151.9210 C   0  0  0  0  0  0  0  0  0  0  0  0
  160.8340  202.7980  152.8840 O   0  0  0  0  0  0  0  0  0  0  0  0
  161.3180  205.5190  149.7610 C   0  0  0  0  0  2  0  0  0  0  0  0
  161.5290  206.2050  145.5100 C   0  0  0  0  0  3  0  0  0  0  0  0
  160.9140  202.1990  147.9130 C   0  0  0  0  0  0  0  0  0  0  0  0
  160.9280  201.8680  146.2600 S   0  0  0  0  0  0  0  0  0  0  0  0
  161.0810  205.0360  152.1930 C   0  0  0  0  0  3  0  0  0  0  0  0
  161.4120  205.6670  146.8010 C   0  0  0  0  0  3  0  0  0  0  0  0
  161.2360  205.9380  151.2160 C   0  0  0  0  0  0  0  0  0  0  0  0
  160.9470  203.1240  150.5320 C   0  0  0  0  0  0  0  0  0  0  0  0
  160.9950  209.2350  153.0890 C   0  0  0  0  0  0  0  0  0  0  0  0
  161.3560  207.3780  151.5550 C   0  0  0  0  0  0  0  0  0  0  0  0
  160.8780  207.8780  152.7790 C   0  0  0  0  0  3  0  0  0  0  0  0
  160.5170  209.7140  154.3010 O   0  0  0  0  0  1  0  0  0  0  0  0
  161.9550  208.2710  150.6490 C   0  0  0  0  0  3  0  0  0  0  0  0
  161.5920  210.1110  152.1790 C   0  0  0  0  0  3  0  0  0  0  0  0
  162.0720  209.6280  150.9590 C   0  0  0  0  0  3  0  0  0  0  0  0
  1  2  2  0  0  0  0
  2 11  1  0  0  0  0
  2 18  1  0  0  0  0
  3  6  1  0  0  0  0
  4  1  1  0  0  0  0
  5  8  2  0  0  0  0
  5 12  1  0  0  0  0
  6 18  2  0  0  0  0
  7 14  1  0  0  0  0
  7  4  2  0  0  0  0
  8  7  1  0  0  0  0
  9 15  1  0  0  0  0
  9 10  2  0  0  0  0
 11 17  1  0  0  0  0
 12 16  2  0  0  0  0
 13  1  1  0  0  0  0
 13  3  2  0  0  0  0
 14 13  1  0  0  0  0
 16  4  1  0  0  0  0
 17 20  1  0  0  0  0
 17 15  2  0  0  0  0
 18  9  1  0  0  0  0
 19 22  1  0  0  0  0
 20 21  2  0  0  0  0
 21 19  1  0  0  0  0
 23 25  2  0  0  0  0
 23 20  1  0  0  0  0
 24 19  2  0  0  0  0
 25 24  1  0  0  0  0
M  END
>  <MODEL>
3

>  <REMARK>
 VINA RESULT:     -11.0      2.024      4.227
  Name = 
  1 active torsions:
  status: ('A' for Active; 'I' for Inactive)
    1  A    between atoms: C_6  and  C_23
                            x       y       z     vdW  Elec       q    Type
                         _______ _______ _______ _____ _____    ______ ____

>  <TORSDO>
F 1

$$$$
=
 OpenBabel11052422153D

 25 29  0  0  0  0  0  0  0  0999 V2000
  161.5410  207.4770  151.3040 C   0  0  0  0  0  0  0  0  0  0  0  0
  161.3250  206.1130  151.0130 C   0  0  0  0  0  0  0  0  0  0  0  0
  161.4190  207.0330  153.7010 C   0  0  0  0  0  3  0  0  0  0  0  0
  161.7300  208.5460  150.4050 C   0  0  0  0  0  0  0  0  0  0  0  0
  162.1400  210.8970  148.9480 C   0  0  0  0  0  3  0  0  0  0  0  0
  161.2060  205.6800  153.4220 C   0  0  0  0  0  3  0  0  0  0  0  0
  161.9150  209.7680  151.0500 C   0  0  0  0  0  0  0  0  0  0  0  0
  162.1210  210.9540  150.3480 C   0  0  0  0  0  3  0  0  0  0  0  0
  160.9420  203.7870  151.8200 C   0  0  0  0  0  0  0  0  0  0  0  0
  160.7680  202.9680  152.7610 O   0  0  0  0  0  0  0  0  0  0  0  0
  161.2470  205.6270  149.5840 C   0  0  0  0  0  2  0  0  0  0  0  0
  161.9560  209.6740  148.2800 C   0  0  0  0  0  3  0  0  0  0  0  0
  161.5840  207.9060  152.6320 C   0  0  0  0  0  0  0  0  0  0  0  0
  161.8500  209.5690  152.7200 S   0  0  0  0  0  0  0  0  0  0  0  0
  160.9430  203.3060  150.4370 C   0  0  0  0  0  3  0  0  0  0  0  0
  161.7500  208.4900  149.0070 C   0  0  0  0  0  3  0  0  0  0  0  0
  161.0960  204.1300  149.3930 C   0  0  0  0  0  0  0  0  0  0  0  0
  161.1570  205.2160  152.0930 C   0  0  0  0  0  0  0  0  0  0  0  0
  161.3390  203.8790  145.6090 C   0  0  0  0  0  0  0  0  0  0  0  0
  161.0930  203.5800  148.0140 C   0  0  0  0  0  0  0  0  0  0  0  0
  161.3440  204.4060  146.9040 C   0  0  0  0  0  3  0  0  0  0  0  0
  161.5880  204.7070  144.5230 O   0  0  0  0  0  1  0  0  0  0  0  0
  160.8360  202.2160  147.7970 C   0  0  0  0  0  3  0  0  0  0  0  0
  161.0810  202.5210  145.4080 C   0  0  0  0  0  3  0  0  0  0  0  0
  160.8310  201.6900  146.5020 C   0  0  0  0  0  3  0  0  0  0  0  0
  1 13  1  0  0  0  0
  2  1  2  0  0  0  0
  2 18  1  0  0  0  0
  4  7  1  0  0  0  0
  4  1  1  0  0  0  0
  5  8  1  0  0  0  0
  6  3  1  0  0  0  0
  7 14  1  0  0  0  0
  8  7  2  0  0  0  0
  9 18  1  0  0  0  0
  9 10  2  0  0  0  0
 11  2  1  0  0  0  0
 12  5  2  0  0  0  0
 12 16  1  0  0  0  0
 13 14  1  0  0  0  0
 13  3  2  0  0  0  0
 15  9  1  0  0  0  0
 16  4  2  0  0  0  0
 17 11  1  0  0  0  0
 17 15  2  0  0  0  0
 18  6  2  0  0  0  0
 19 21  1  0  0  0  0
 20 17  1  0  0  0  0
 21 20  2  0  0  0  0
 22 19  1  0  0  0  0
 23 20  1  0  0  0  0
 24 19  2  0  0  0  0
 24 25  1  0  0  0  0
 25 23  2  0  0  0  0
M  END
>  <MODEL>
4

>  <REMARK>
 VINA RESULT:     -11.0      2.959      7.555
  Name = 
  1 active torsions:
  status: ('A' for Active; 'I' for Inactive)
    1  A    between atoms: C_6  and  C_23
                            x       y       z     vdW  Elec       q    Type
                         _______ _______ _______ _____ _____    ______ ____

>  <TORSDO>
F 1

$$$$
=
 OpenBabel11052422153D

 25 29  0  0  0  0  0  0  0  0999 V2000
  161.1790  208.7340  152.9180 C   0  0  0  0  0  0  0  0  0  0  0  0
  161.3700  207.9850  151.7370 C   0  0  0  0  0  0  0  0  0  0  0  0
  161.6640  210.8120  151.7330 C   0  0  0  0  0  3  0  0  0  0  0  0
  160.8410  208.2710  154.2060 C   0  0  0  0  0  0  0  0  0  0  0  0
  160.1830  207.7370  156.8700 C   0  0  0  0  0  3  0  0  0  0  0  0
  161.8540  210.0780  150.5580 C   0  0  0  0  0  3  0  0  0  0  0  0
  160.7360  209.3010  155.1400 C   0  0  0  0  0  0  0  0  0  0  0  0
  160.4100  209.0620  156.4730 C   0  0  0  0  0  3  0  0  0  0  0  0
  161.9040  207.9230  149.3050 C   0  0  0  0  0  0  0  0  0  0  0  0
  162.2290  208.5100  148.2380 O   0  0  0  0  0  0  0  0  0  0  0  0
  161.2410  206.4790  151.7440 C   0  0  0  0  0  2  0  0  0  0  0  0
  160.2840  206.6860  155.9420 C   0  0  0  0  0  3  0  0  0  0  0  0
  161.3280  210.1220  152.8920 C   0  0  0  0  0  0  0  0  0  0  0  0
  161.0530  210.7870  154.4170 S   0  0  0  0  0  0  0  0  0  0  0  0
  161.7040  206.4730  149.2960 C   0  0  0  0  0  3  0  0  0  0  0  0
  160.6140  206.9490  154.6030 C   0  0  0  0  0  3  0  0  0  0  0  0
  161.3840  205.7880  150.4010 C   0  0  0  0  0  0  0  0  0  0  0  0
  161.7110  208.6760  150.5520 C   0  0  0  0  0  0  0  0  0  0  0  0
  160.7710  202.2950  149.0380 C   0  0  0  0  0  0  0  0  0  0  0  0
  161.1900  204.3190  150.3270 C   0  0  0  0  0  0  0  0  0  0  0  0
  160.9540  203.6790  149.0980 C   0  0  0  0  0  3  0  0  0  0  0  0
  160.5390  201.6780  147.8170 O   0  0  0  0  0  1  0  0  0  0  0  0
  161.2370  203.5390  151.4950 C   0  0  0  0  0  3  0  0  0  0  0  0
  160.8200  201.5330  150.2070 C   0  0  0  0  0  3  0  0  0  0  0  0
  161.0540  202.1550  151.4360 C   0  0  0  0  0  3  0  0  0  0  0  0
  1  4  1  0  0  0  0
  2 11  1  0  0  0  0
  2  1  1  0  0  0  0
  3 13  1  0  0  0  0
  4 16  2  0  0  0  0
  4  7  1  0  0  0  0
  6  3  2  0  0  0  0
  7  8  2  0  0  0  0
  8  5  1  0  0  0  0
  9 18  1  0  0  0  0
 10  9  2  0  0  0  0
 12  5  2  0  0  0  0
 13  1  2  0  0  0  0
 13 14  1  0  0  0  0
 14  7  1  0  0  0  0
 15  9  1  0  0  0  0
 15 17  2  0  0  0  0
 16 12  1  0  0  0  0
 17 11  1  0  0  0  0
 18  6  1  0  0  0  0
 18  2  2  0  0  0  0
 19 21  2  0  0  0  0
 19 24  1  0  0  0  0
 20 17  1  0  0  0  0
 20 23  2  0  0  0  0
 21 20  1  0  0  0  0
 22 19  1  0  0  0  0
 24 25  2  0  0  0  0
 25 23  1  0  0  0  0
M  END
>  <MODEL>
5

>  <REMARK>
 VINA RESULT:     -10.6      2.886      6.780
  Name = 
  1 active torsions:
  status: ('A' for Active; 'I' for Inactive)
    1  A    between atoms: C_6  and  C_23
                            x       y       z     vdW  Elec       q    Type
                         _______ _______ _______ _____ _____    ______ ____

>  <TORSDO>
F 1

$$$$
=
 OpenBabel11052422153D

 25 29  0  0  0  0  0  0  0  0999 V2000
  161.1920  203.9520  149.0460 C   0  0  0  0  0  0  0  0  0  0  0  0
  161.2350  204.8300  150.1490 C   0  0  0  0  0  0  0  0  0  0  0  0
  161.0320  202.0210  150.5290 C   0  0  0  0  0  3  0  0  0  0  0  0
  161.2410  204.2660  147.6720 C   0  0  0  0  0  0  0  0  0  0  0  0
  161.3070  204.4940  144.8860 C   0  0  0  0  0  3  0  0  0  0  0  0
  161.0720  202.8830  151.6290 C   0  0  0  0  0  3  0  0  0  0  0  0
  161.1750  203.1360  146.8570 C   0  0  0  0  0  0  0  0  0  0  0  0
  161.2060  203.2220  145.4670 C   0  0  0  0  0  3  0  0  0  0  0  0
  161.2060  205.1690  152.6170 C   0  0  0  0  0  0  0  0  0  0  0  0
  161.1740  204.7040  153.7880 O   0  0  0  0  0  0  0  0  0  0  0  0
  161.3720  206.3220  149.9490 C   0  0  0  0  0  2  0  0  0  0  0  0
  161.3720  205.6440  145.6920 C   0  0  0  0  0  3  0  0  0  0  0  0
  161.0910  202.5750  149.2560 C   0  0  0  0  0  0  0  0  0  0  0  0
  161.0600  201.7410  147.7910 S   0  0  0  0  0  0  0  0  0  0  0  0
  161.2610  206.6190  152.4210 C   0  0  0  0  0  3  0  0  0  0  0  0
  161.3390  205.5350  147.0920 C   0  0  0  0  0  3  0  0  0  0  0  0
  161.3230  207.1740  151.2030 C   0  0  0  0  0  0  0  0  0  0  0  0
  161.1740  204.2770  151.4490 C   0  0  0  0  0  0  0  0  0  0  0  0
  160.8890  210.8780  151.9280 C   0  0  0  0  0  0  0  0  0  0  0  0
  161.3720  208.6510  151.0690 C   0  0  0  0  0  0  0  0  0  0  0  0
  160.8380  209.4880  152.0640 C   0  0  0  0  0  3  0  0  0  0  0  0
  160.3570  211.6920  152.9190 O   0  0  0  0  0  1  0  0  0  0  0  0
  161.9560  209.2390  149.9340 C   0  0  0  0  0  3  0  0  0  0  0  0
  161.4710  211.4490  150.7950 C   0  0  0  0  0  3  0  0  0  0  0  0
  162.0060  210.6290  149.7980 C   0  0  0  0  0  3  0  0  0  0  0  0
  1 13  1  0  0  0  0
  1  2  2  0  0  0  0
  2 18  1  0  0  0  0
  3  6  1  0  0  0  0
  4  1  1  0  0  0  0
  5  8  2  0  0  0  0
  5 12  1  0  0  0  0
  7  4  2  0  0  0  0
  7 14  1  0  0  0  0
  8  7  1  0  0  0  0
  9 10  2  0  0  0  0
 11  2  1  0  0  0  0
 11 17  1  0  0  0  0
 12 16  2  0  0  0  0
 13  3  2  0  0  0  0
 14 13  1  0  0  0  0
 15  9  1  0  0  0  0
 16  4  1  0  0  0  0
 17 15  2  0  0  0  0
 18  6  2  0  0  0  0
 18  9  1  0  0  0  0
 19 21  1  0  0  0  0
 19 22  1  0  0  0  0
 20 17  1  0  0  0  0
 20 21  2  0  0  0  0
 23 20  1  0  0  0  0
 24 19  2  0  0  0  0
 25 23  2  0  0  0  0
 25 24  1  0  0  0  0
M  END
>  <MODEL>
6

>  <REMARK>
 VINA RESULT:     -10.3      1.972      4.156
  Name = 
  1 active torsions:
  status: ('A' for Active; 'I' for Inactive)
    1  A    between atoms: C_6  and  C_23
                            x       y       z     vdW  Elec       q    Type
                         _______ _______ _______ _____ _____    ______ ____

>  <TORSDO>
F 1

$$$$
=
 OpenBabel11052422153D

 25 29  0  0  0  0  0  0  0  0999 V2000
  161.4760  207.2960  151.4480 C   0  0  0  0  0  0  0  0  0  0  0  0
  161.2490  205.9330  151.1580 C   0  0  0  0  0  0  0  0  0  0  0  0
  161.3250  206.8600  153.8450 C   0  0  0  0  0  3  0  0  0  0  0  0
  161.6860  208.3610  150.5480 C   0  0  0  0  0  0  0  0  0  0  0  0
  162.1350  210.7040  149.0900 C   0  0  0  0  0  3  0  0  0  0  0  0
  161.1000  205.5080  153.5670 C   0  0  0  0  0  3  0  0  0  0  0  0
  161.8770  209.5820  151.1930 C   0  0  0  0  0  0  0  0  0  0  0  0
  162.1030  210.7640  150.4900 C   0  0  0  0  0  3  0  0  0  0  0  0
  160.8330  203.6140  151.9670 C   0  0  0  0  0  0  0  0  0  0  0  0
  160.6410  202.7990  152.9080 O   0  0  0  0  0  0  0  0  0  0  0  0
  161.1800  205.4440  149.7300 C   0  0  0  0  0  2  0  0  0  0  0  0
  161.9460  209.4800  148.4240 C   0  0  0  0  0  3  0  0  0  0  0  0
  161.5100  207.7280  152.7750 C   0  0  0  0  0  0  0  0  0  0  0  0
  161.7930  209.3880  152.8620 S   0  0  0  0  0  0  0  0  0  0  0  0
  160.8430  203.1290  150.5860 C   0  0  0  0  0  3  0  0  0  0  0  0
  161.7200  208.3010  149.1510 C   0  0  0  0  0  3  0  0  0  0  0  0
  161.0150  203.9490  149.5410 C   0  0  0  0  0  0  0  0  0  0  0  0
  161.0600  205.0410  152.2390 C   0  0  0  0  0  0  0  0  0  0  0  0
  160.6780  201.5450  146.6180 C   0  0  0  0  0  0  0  0  0  0  0  0
  161.0210  203.3960  148.1640 C   0  0  0  0  0  0  0  0  0  0  0  0
  160.6690  202.0570  147.9180 C   0  0  0  0  0  3  0  0  0  0  0  0
  160.3290  200.2210  146.3910 O   0  0  0  0  0  1  0  0  0  0  0  0
  161.3820  204.2090  147.0760 C   0  0  0  0  0  3  0  0  0  0  0  0
  161.0400  202.3640  145.5470 C   0  0  0  0  0  3  0  0  0  0  0  0
  161.3910  203.6970  145.7760 C   0  0  0  0  0  3  0  0  0  0  0  0
  1 13  1  0  0  0  0
  2  1  2  0  0  0  0
  2 18  1  0  0  0  0
  4  7  1  0  0  0  0
  4  1  1  0  0  0  0
  5  8  1  0  0  0  0
  6  3  1  0  0  0  0
  7 14  1  0  0  0  0
  8  7  2  0  0  0  0
  9 18  1  0  0  0  0
  9 10  2  0  0  0  0
 11  2  1  0  0  0  0
 12  5  2  0  0  0  0
 12 16  1  0  0  0  0
 13 14  1  0  0  0  0
 13  3  2  0  0  0  0
 15  9  1  0  0  0  0
 16  4  2  0  0  0  0
 17 11  1  0  0  0  0
 17 15  2  0  0  0  0
 18  6  2  0  0  0  0
 19 21  1  0  0  0  0
 20 17  1  0  0  0  0
 21 20  2  0  0  0  0
 22 19  1  0  0  0  0
 23 20  1  0  0  0  0
 24 25  1  0  0  0  0
 24 19  2  0  0  0  0
 25 23  2  0  0  0  0
M  END
>  <MODEL>
7

>  <REMARK>
 VINA RESULT:     -10.0      3.310      7.690
  Name = 
  1 active torsions:
  status: ('A' for Active; 'I' for Inactive)
    1  A    between atoms: C_6  and  C_23
                            x       y       z     vdW  Elec       q    Type
                         _______ _______ _______ _____ _____    ______ ____

>  <TORSDO>
F 1

$$$$
=
 OpenBabel11052422153D

 25 29  0  0  0  0  0  0  0  0999 V2000
  161.5180  206.4300  149.8110 C   0  0  0  0  0  0  0  0  0  0  0  0
  161.6450  207.8000  150.1250 C   0  0  0  0  0  0  0  0  0  0  0  0
  161.2560  205.8650  152.1710 C   0  0  0  0  0  3  0  0  0  0  0  0
  161.5590  205.8130  148.5440 C   0  0  0  0  0  0  0  0  0  0  0  0
  161.5810  204.2450  146.2290 C   0  0  0  0  0  3  0  0  0  0  0  0
  161.3790  207.2210  152.4920 C   0  0  0  0  0  3  0  0  0  0  0  0
  161.3980  204.4290  148.6120 C   0  0  0  0  0  0  0  0  0  0  0  0
  161.4060  203.6260  147.4750 C   0  0  0  0  0  3  0  0  0  0  0  0
  161.6910  209.6070  151.8390 C   0  0  0  0  0  0  0  0  0  0  0  0
  161.6520  209.9790  153.0430 O   0  0  0  0  0  0  0  0  0  0  0  0
  161.8790  208.8260  149.0410 C   0  0  0  0  0  2  0  0  0  0  0  0
  161.7430  205.6390  146.1420 C   0  0  0  0  0  3  0  0  0  0  0  0
  161.3270  205.4970  150.8330 C   0  0  0  0  0  0  0  0  0  0  0  0
  161.2070  203.9350  150.2100 S   0  0  0  0  0  0  0  0  0  0  0  0
  161.8420  210.6080  150.7820 C   0  0  0  0  0  3  0  0  0  0  0  0
  161.7320  206.4310  147.3020 C   0  0  0  0  0  3  0  0  0  0  0  0
  161.9160  210.2750  149.4870 C   0  0  0  0  0  0  0  0  0  0  0  0
  161.5730  208.1860  151.4840 C   0  0  0  0  0  0  0  0  0  0  0  0
  161.1210  212.7390  146.7050 C   0  0  0  0  0  0  0  0  0  0  0  0
  162.0640  211.3370  148.4600 C   0  0  0  0  0  0  0  0  0  0  0  0
  160.9730  211.7380  147.6700 C   0  0  0  0  0  3  0  0  0  0  0  0
  160.0350  213.1240  145.9320 O   0  0  0  0  0  1  0  0  0  0  0  0
  163.3070  211.9610  148.2610 C   0  0  0  0  0  3  0  0  0  0  0  0
  162.3630  213.3500  146.5180 C   0  0  0  0  0  3  0  0  0  0  0  0
  163.4560  212.9610  147.2960 C   0  0  0  0  0  3  0  0  0  0  0  0
  1  2  2  0  0  0  0
  1 13  1  0  0  0  0
  2 18  1  0  0  0  0
  3  6  1  0  0  0  0
  4  7  1  0  0  0  0
  4  1  1  0  0  0  0
  5  8  1  0  0  0  0
  7 14  1  0  0  0  0
  8  7  2  0  0  0  0
  9 10  2  0  0  0  0
 11 17  1  0  0  0  0
 11  2  1  0  0  0  0
 12  5  2  0  0  0  0
 12 16  1  0  0  0  0
 13  3  2  0  0  0  0
 14 13  1  0  0  0  0
 15  9  1  0  0  0  0
 16  4  2  0  0  0  0
 17 15  2  0  0  0  0
 18  9  1  0  0  0  0
 18  6  2  0  0  0  0
 19 21  1  0  0  0  0
 20 17  1  0  0  0  0
 21 20  2  0  0  0  0
 22 19  1  0  0  0  0
 23 20  1  0  0  0  0
 24 19  2  0  0  0  0
 24 25  1  0  0  0  0
 25 23  2  0  0  0  0
M  END
>  <MODEL>
8

>  <REMARK>
 VINA RESULT:      -9.4      2.653      5.621
  Name = 
  1 active torsions:
  status: ('A' for Active; 'I' for Inactive)
    1  A    between atoms: C_6  and  C_23
                            x       y       z     vdW  Elec       q    Type
                         _______ _______ _______ _____ _____    ______ ____

>  <TORSDO>
F 1

$$$$
=
 OpenBabel11052422153D

 25 29  0  0  0  0  0  0  0  0999 V2000
  161.5990  207.8670  150.6170 C   0  0  0  0  0  0  0  0  0  0  0  0
  161.6210  206.9060  149.5840 C   0  0  0  0  0  0  0  0  0  0  0  0
  162.0720  209.6560  149.0270 C   0  0  0  0  0  3  0  0  0  0  0  0
  161.3750  207.6690  151.9950 C   0  0  0  0  0  0  0  0  0  0  0  0
  160.9750  207.6720  154.7620 C   0  0  0  0  0  3  0  0  0  0  0  0
  162.0940  208.7120  147.9960 C   0  0  0  0  0  3  0  0  0  0  0  0
  161.4280  208.8540  152.7270 C   0  0  0  0  0  0  0  0  0  0  0  0
  161.2320  208.8840  154.1060 C   0  0  0  0  0  3  0  0  0  0  0  0
  161.8900  206.3690  147.1660 C   0  0  0  0  0  0  0  0  0  0  0  0
  162.1320  206.7290  145.9830 O   0  0  0  0  0  0  0  0  0  0  0  0
  161.4090  205.4400  149.8830 C   0  0  0  0  0  2  0  0  0  0  0  0
  160.9160  206.4680  154.0400 C   0  0  0  0  0  3  0  0  0  0  0  0
  161.8230  209.2120  150.3200 C   0  0  0  0  0  0  0  0  0  0  0  0
  161.7500  210.1590  151.7130 S   0  0  0  0  0  0  0  0  0  0  0  0
  161.6080  204.9600  147.4460 C   0  0  0  0  0  3  0  0  0  0  0  0
  161.1160  206.4600  152.6510 C   0  0  0  0  0  3  0  0  0  0  0  0
  161.3700  204.5100  148.6850 C   0  0  0  0  0  0  0  0  0  0  0  0
  161.8720  207.3460  148.2640 C   0  0  0  0  0  0  0  0  0  0  0  0
  161.2600  200.7420  148.2100 C   0  0  0  0  0  0  0  0  0  0  0  0
  161.0850  203.0700  148.9040 C   0  0  0  0  0  0  0  0  0  0  0  0
  161.5330  202.0960  147.9950 C   0  0  0  0  0  3  0  0  0  0  0  0
  161.7080  199.7920  147.3030 O   0  0  0  0  0  1  0  0  0  0  0  0
  160.3580  202.6560  150.0330 C   0  0  0  0  0  3  0  0  0  0  0  0
  160.5350  200.3460  149.3360 C   0  0  0  0  0  3  0  0  0  0  0  0
  160.0840  201.3030  150.2480 C   0  0  0  0  0  3  0  0  0  0  0  0
  1  4  1  0  0  0  0
  2 11  1  0  0  0  0
  2  1  1  0  0  0  0
  3 13  1  0  0  0  0
  4 16  2  0  0  0  0
  4  7  1  0  0  0  0
  6 18  1  0  0  0  0
  6  3  2  0  0  0  0
  7  8  2  0  0  0  0
  8  5  1  0  0  0  0
  9 15  1  0  0  0  0
  9 18  1  0  0  0  0
 10  9  2  0  0  0  0
 12  5  2  0  0  0  0
 13  1  2  0  0  0  0
 13 14  1  0  0  0  0
 14  7  1  0  0  0  0
 15 17  2  0  0  0  0
 16 12  1  0  0  0  0
 17 20  1  0  0  0  0
 17 11  1  0  0  0  0
 18  2  2  0  0  0  0
 19 24  1  0  0  0  0
 20 23  2  0  0  0  0
 21 19  2  0  0  0  0
 21 20  1  0  0  0  0
 22 19  1  0  0  0  0
 23 25  1  0  0  0  0
 24 25  2  0  0  0  0
M  END
>  <MODEL>
9

>  <REMARK>
 VINA RESULT:      -9.2      2.875      6.584
  Name = 
  1 active torsions:
  status: ('A' for Active; 'I' for Inactive)
    1  A    between atoms: C_6  and  C_23
                            x       y       z     vdW  Elec       q    Type
                         _______ _______ _______ _____ _____    ______ ____

>  <TORSDO>
F 1

$$$$
