=
 OpenBabel11062407453D

 34 38  0  0  1  0  0  0  0  0999 V2000
  162.1270  210.2570  150.0640 C   0  0  2  0  0  3  0  0  0  0  0  0
  161.0950  208.7800  151.7660 N   0  0  2  0  0  0  0  0  0  0  0  0
  162.7290  210.3900  152.5500 C   0  0  0  0  0  2  0  0  0  0  0  0
  161.0310  208.8570  153.2180 C   0  0  0  0  0  2  0  0  0  0  0  0
  161.5690  209.4050  148.9070 C   0  0  0  0  0  2  0  0  0  0  0  0
  163.3730  207.6140  149.1000 C   0  0  0  0  0  1  0  0  0  0  0  0
  161.3140  207.3850  151.4150 C   0  0  0  0  0  2  0  0  0  0  0  0
  160.9830  207.1470  149.9380 C   0  0  1  0  0  3  0  0  0  0  0  0
  161.7020  210.1500  153.6290 C   0  0  2  0  0  3  0  0  0  0  0  0
  162.3050  209.5000  151.3930 C   0  0  2  0  0  3  0  0  0  0  0  0
  161.8840  207.9050  148.9470 C   0  0  1  0  0  3  0  0  0  0  0  0
  160.4260  211.6430  151.1100 N   0  0  0  0  0  0  0  0  0  0  0  0
  161.4420  212.6750  149.3280 C   0  0  0  0  0  0  0  0  0  0  0  0
  159.6870  212.9030  151.1110 C   0  0  1  0  0  3  0  0  0  0  0  0
  160.2970  213.9640  149.7410 S   0  0  0  0  0  0  0  0  0  0  0  0
  161.3380  211.5280  150.2070 C   0  0  0  0  0  0  0  0  0  0  0  0
  158.2100  212.6240  150.9150 C   0  0  0  0  0  1  0  0  0  0  0  0
  162.2500  212.7570  148.3660 O   0  0  0  0  0  0  0  0  0  0  0  0
  161.0840  203.9610  147.9920 C   0  0  0  0  0  0  0  0  0  0  0  0
  160.7810  202.9920  148.9510 C   0  0  0  0  0  3  0  0  0  0  0  0
  160.8940  205.6870  149.6150 C   0  0  0  0  0  0  0  0  0  0  0  0
  160.5350  203.3890  150.2650 C   0  0  0  0  0  3  0  0  0  0  0  0
  161.1360  205.2740  148.3420 N   0  0  0  0  0  0  0  0  0  0  0  0
  160.5910  204.7400  150.6050 C   0  0  0  0  0  3  0  0  0  0  0  0
  161.3990  203.4840  146.3380 Cl  0  0  0  0  0  0  0  0  0  0  0  0
  160.7620  211.1830  153.5990 O   0  0  0  0  0  0  0  0  0  0  0  0
  160.6770  211.6330  154.9210 C   0  0  0  0  0  2  0  0  0  0  0  0
  159.7250  214.2240  156.0280 O   0  0  0  0  0  0  0  0  0  0  0  0
  159.2460  212.0310  155.2640 C   0  0  1  0  0  3  0  0  0  0  0  0
  159.0710  213.5280  155.2690 C   0  0  0  0  0  0  0  0  0  0  0  0
  156.7440  213.4220  154.3430 C   0  0  0  0  0  2  0  0  0  0  0  0
  156.8490  211.8980  154.5270 C   0  0  0  0  0  2  0  0  0  0  0  0
  158.2630  211.3630  154.2990 C   0  0  0  0  0  2  0  0  0  0  0  0
  158.0870  214.1650  154.3330 C   0  0  0  0  0  2  0  0  0  0  0  0
  1 16  1  1  0  0  0
  1 10  1  0  0  0  0
  2  7  1  1  0  0  0
  2  4  1  0  0  0  0
  3  9  1  0  0  0  0
  4  9  1  0  0  0  0
  5 11  1  0  0  0  0
  5  1  1  0  0  0  0
  8 21  1  6  0  0  0
  8  7  1  0  0  0  0
  9 26  1  6  0  0  0
 10  2  1  0  0  0  0
 10  3  1  1  0  0  0
 11  6  1  1  0  0  0
 11  8  1  0  0  0  0
 12 14  1  0  0  0  0
 13 15  1  0  0  0  0
 13 16  1  0  0  0  0
 14 17  1  6  0  0  0
 15 14  1  0  0  0  0
 16 12  2  0  0  0  0
 18 13  2  0  0  0  0
 19 23  2  0  0  0  0
 19 20  1  0  0  0  0
 20 22  2  0  0  0  0
 21 24  2  0  0  0  0
 22 24  1  0  0  0  0
 23 21  1  0  0  0  0
 25 19  1  0  0  0  0
 26 27  1  0  0  0  0
 29 27  1  6  0  0  0
 29 30  1  0  0  0  0
 30 28  2  0  0  0  0
 31 32  1  0  0  0  0
 33 32  1  0  0  0  0
 33 29  1  0  0  0  0
 34 31  1  0  0  0  0
 34 30  1  0  0  0  0
M  END
>  <MODEL>
1

>  <REMARK>
 VINA RESULT:      -6.0      0.000      0.000
  Name = 
  5 active torsions:
  status: ('A' for Active; 'I' for Inactive)
    1  A    between atoms: C_3  and  C_13
    2  A    between atoms: C_3  and  O_17
    3  A    between atoms: C_4  and  C_15
    4  A    between atoms: C_12  and  C_28
    5  A    between atoms: O_17  and  C_29
                            x       y       z     vdW  Elec       q    Type
                         _______ _______ _______ _____ _____    ______ ____

>  <TORSDO>
F 5

$$$$
=
 OpenBabel11062407453D

 34 38  0  0  1  0  0  0  0  0999 V2000
  160.5980  211.0120  154.6880 C   0  0  2  0  0  3  0  0  0  0  0  0
  160.1410  210.5770  152.2900 N   0  0  2  0  0  0  0  0  0  0  0  0
  162.4660  210.6460  152.9740 C   0  0  0  0  0  2  0  0  0  0  0  0
  160.9700  210.0490  151.2180 C   0  0  0  0  0  2  0  0  0  0  0  0
  159.1380  211.4300  154.9470 C   0  0  0  0  0  2  0  0  0  0  0  0
  159.4390  213.7780  154.0000 C   0  0  0  0  0  1  0  0  0  0  0  0
  159.3430  211.6580  151.7310 C   0  0  0  0  0  2  0  0  0  0  0  0
  158.1660  211.9880  152.6550 C   0  0  1  0  0  3  0  0  0  0  0  0
  162.3090  209.6840  151.8220 C   0  0  2  0  0  3  0  0  0  0  0  0
  161.0690  211.1880  153.2330 C   0  0  2  0  0  3  0  0  0  0  0  0
  158.5670  212.5270  154.0400 C   0  0  1  0  0  3  0  0  0  0  0  0
  160.1590  208.6250  154.8300 N   0  0  0  0  0  0  0  0  0  0  0  0
  161.7950  209.3160  156.2850 C   0  0  0  0  0  0  0  0  0  0  0  0
  160.4580  207.3490  155.4750 C   0  0  1  0  0  3  0  0  0  0  0  0
  161.7690  207.6020  156.7360 S   0  0  0  0  0  0  0  0  0  0  0  0
  160.8530  209.6340  155.2320 C   0  0  0  0  0  0  0  0  0  0  0  0
  159.2090  206.8140  156.1440 C   0  0  0  0  0  1  0  0  0  0  0  0
  162.5500  210.1590  156.8350 O   0  0  0  0  0  0  0  0  0  0  0  0
  156.3590  213.8550  149.9720 C   0  0  0  0  0  0  0  0  0  0  0  0
  155.3000  214.4530  150.6580 C   0  0  0  0  0  3  0  0  0  0  0  0
  157.1560  212.8650  151.9810 C   0  0  0  0  0  0  0  0  0  0  0  0
  155.1740  214.2440  152.0320 C   0  0  0  0  0  3  0  0  0  0  0  0
  157.2540  213.0790  150.6410 N   0  0  0  0  0  0  0  0  0  0  0  0
  156.1020  213.4470  152.7010 C   0  0  0  0  0  3  0  0  0  0  0  0
  156.5330  214.1010  148.2490 Cl  0  0  0  0  0  0  0  0  0  0  0  0
  162.2440  208.3820  152.3230 O   0  0  0  0  0  0  0  0  0  0  0  0
  162.2210  207.5600  151.1920 C   0  0  0  0  0  2  0  0  0  0  0  0
  160.3550  206.4520  149.1590 O   0  0  0  0  0  0  0  0  0  0  0  0
  161.2130  206.4290  151.3690 C   0  0  1  0  0  3  0  0  0  0  0  0
  160.8590  205.7890  150.0500 C   0  0  0  0  0  0  0  0  0  0  0  0
  160.6630  203.4920  151.0300 C   0  0  0  0  0  2  0  0  0  0  0  0
  160.8260  204.1730  152.4010 C   0  0  0  0  0  2  0  0  0  0  0  0
  161.7480  205.3900  152.3590 C   0  0  0  0  0  2  0  0  0  0  0  0
  161.1300  204.3300  149.8330 C   0  0  0  0  0  2  0  0  0  0  0  0
  1  5  1  0  0  0  0
  1 16  1  6  0  0  0
  2  4  1  6  0  0  0
  2 10  1  0  0  0  0
  4  9  1  0  0  0  0
  7  2  1  0  0  0  0
  7  8  1  0  0  0  0
  8 21  1  6  0  0  0
  8 11  1  0  0  0  0
  9 26  1  1  0  0  0
  9  3  1  0  0  0  0
 10  3  1  1  0  0  0
 10  1  1  0  0  0  0
 11  6  1  6  0  0  0
 11  5  1  0  0  0  0
 12 16  2  0  0  0  0
 12 14  1  0  0  0  0
 13 15  1  0  0  0  0
 13 18  2  0  0  0  0
 14 17  1  1  0  0  0
 14 15  1  0  0  0  0
 16 13  1  0  0  0  0
 19 23  2  0  0  0  0
 19 20  1  0  0  0  0
 20 22  2  0  0  0  0
 21 24  2  0  0  0  0
 22 24  1  0  0  0  0
 23 21  1  0  0  0  0
 25 19  1  0  0  0  0
 27 26  1  0  0  0  0
 28 30  2  0  0  0  0
 29 27  1  6  0  0  0
 29 33  1  0  0  0  0
 30 29  1  0  0  0  0
 31 32  1  0  0  0  0
 33 32  1  0  0  0  0
 34 30  1  0  0  0  0
 34 31  1  0  0  0  0
M  END
>  <MODEL>
2

>  <REMARK>
 VINA RESULT:      -6.0      3.526      8.027
  Name = 
  5 active torsions:
  status: ('A' for Active; 'I' for Inactive)
    1  A    between atoms: C_3  and  C_13
    2  A    between atoms: C_3  and  O_17
    3  A    between atoms: C_4  and  C_15
    4  A    between atoms: C_12  and  C_28
    5  A    between atoms: O_17  and  C_29
                            x       y       z     vdW  Elec       q    Type
                         _______ _______ _______ _____ _____    ______ ____

>  <TORSDO>
F 5

$$$$
=
 OpenBabel11062407453D

 34 38  0  0  1  0  0  0  0  0999 V2000
  162.5910  209.7010  148.9670 C   0  0  2  0  0  3  0  0  0  0  0  0
  161.0420  208.8060  150.6830 N   0  0  2  0  0  0  0  0  0  0  0  0
  162.6590  210.4580  151.4140 C   0  0  0  0  0  2  0  0  0  0  0  0
  160.6790  209.2740  152.0120 C   0  0  0  0  0  2  0  0  0  0  0  0
  162.1920  208.6080  147.9570 C   0  0  0  0  0  2  0  0  0  0  0  0
  163.6720  206.8200  149.0110 C   0  0  0  0  0  1  0  0  0  0  0  0
  161.1540  207.3560  150.7490 C   0  0  0  0  0  2  0  0  0  0  0  0
  161.1190  206.7520  149.3410 C   0  0  1  0  0  3  0  0  0  0  0  0
  161.4030  210.5840  152.2400 C   0  0  2  0  0  3  0  0  0  0  0  0
  162.3840  209.3190  150.4440 C   0  0  2  0  0  3  0  0  0  0  0  0
  162.2990  207.1560  148.4390 C   0  0  1  0  0  3  0  0  0  0  0  0
  160.6770  211.1180  148.4800 N   0  0  0  0  0  0  0  0  0  0  0  0
  162.6790  212.2210  148.2610 C   0  0  0  0  0  0  0  0  0  0  0  0
  160.1830  212.4270  148.0600 C   0  0  1  0  0  3  0  0  0  0  0  0
  161.6090  213.5540  147.7910 S   0  0  0  0  0  0  0  0  0  0  0  0
  161.9560  211.0130  148.5990 C   0  0  0  0  0  0  0  0  0  0  0  0
  159.4020  212.2840  146.7690 C   0  0  0  0  0  1  0  0  0  0  0  0
  163.9330  212.3240  148.2860 O   0  0  0  0  0  0  0  0  0  0  0  0
  160.9000  203.2030  148.1990 C   0  0  0  0  0  0  0  0  0  0  0  0
  160.5960  202.5090  149.3720 C   0  0  0  0  0  3  0  0  0  0  0  0
  160.9190  205.2680  149.3760 C   0  0  0  0  0  0  0  0  0  0  0  0
  160.4560  203.2180  150.5660 C   0  0  0  0  0  3  0  0  0  0  0  0
  161.0560  204.5540  148.2270 N   0  0  0  0  0  0  0  0  0  0  0  0
  160.6180  204.6040  150.5740 C   0  0  0  0  0  3  0  0  0  0  0  0
  161.0840  202.3330  146.6920 Cl  0  0  0  0  0  0  0  0  0  0  0  0
  160.6290  211.6290  151.7330 O   0  0  0  0  0  0  0  0  0  0  0  0
  159.9510  212.1480  152.8410 C   0  0  0  0  0  2  0  0  0  0  0  0
  157.5450  211.4540  154.4440 O   0  0  0  0  0  0  0  0  0  0  0  0
  158.4910  212.4250  152.4990 C   0  0  1  0  0  3  0  0  0  0  0  0
  157.6250  212.4410  153.7340 C   0  0  0  0  0  0  0  0  0  0  0  0
  156.1400  214.2630  152.8650 C   0  0  0  0  0  2  0  0  0  0  0  0
  156.8960  214.1070  151.5340 C   0  0  0  0  0  2  0  0  0  0  0  0
  158.3670  213.7370  151.7210 C   0  0  0  0  0  2  0  0  0  0  0  0
  156.8600  213.6810  154.0890 C   0  0  0  0  0  2  0  0  0  0  0  0
  1 16  1  6  0  0  0
  1 10  1  0  0  0  0
  2  7  1  1  0  0  0
  2  4  1  0  0  0  0
  3  9  1  0  0  0  0
  4  9  1  0  0  0  0
  5 11  1  0  0  0  0
  5  1  1  0  0  0  0
  8 21  1  1  0  0  0
  8  7  1  0  0  0  0
  9 26  1  6  0  0  0
 10  2  1  0  0  0  0
 10  3  1  1  0  0  0
 11  6  1  1  0  0  0
 11  8  1  0  0  0  0
 12 16  2  0  0  0  0
 13 18  2  0  0  0  0
 13 16  1  0  0  0  0
 14 17  1  6  0  0  0
 14 12  1  0  0  0  0
 15 14  1  0  0  0  0
 15 13  1  0  0  0  0
 19 23  2  0  0  0  0
 19 20  1  0  0  0  0
 20 22  2  0  0  0  0
 21 24  2  0  0  0  0
 22 24  1  0  0  0  0
 23 21  1  0  0  0  0
 25 19  1  0  0  0  0
 26 27  1  0  0  0  0
 29 27  1  1  0  0  0
 29 30  1  0  0  0  0
 30 34  1  0  0  0  0
 30 28  2  0  0  0  0
 31 34  1  0  0  0  0
 32 33  1  0  0  0  0
 32 31  1  0  0  0  0
 33 29  1  0  0  0  0
M  END
>  <MODEL>
3

>  <REMARK>
 VINA RESULT:      -5.3      1.569      2.006
  Name = 
  5 active torsions:
  status: ('A' for Active; 'I' for Inactive)
    1  A    between atoms: C_3  and  C_13
    2  A    between atoms: C_3  and  O_17
    3  A    between atoms: C_4  and  C_15
    4  A    between atoms: C_12  and  C_28
    5  A    between atoms: O_17  and  C_29
                            x       y       z     vdW  Elec       q    Type
                         _______ _______ _______ _____ _____    ______ ____

>  <TORSDO>
F 5

$$$$
=
 OpenBabel11062407453D

 34 38  0  0  1  0  0  0  0  0999 V2000
  161.2060  212.2590  150.8610 C   0  0  2  0  0  3  0  0  0  0  0  0
  161.1070  210.6630  148.9670 N   0  0  2  0  0  0  0  0  0  0  0  0
  162.7850  210.2510  150.6680 C   0  0  0  0  0  2  0  0  0  0  0  0
  161.6530  209.3260  148.7850 C   0  0  0  0  0  2  0  0  0  0  0  0
  160.2830  213.2590  150.1380 C   0  0  0  0  0  2  0  0  0  0  0  0
  162.1380  214.1980  148.6620 C   0  0  0  0  0  1  0  0  0  0  0  0
  161.2690  211.3730  147.7070 C   0  0  0  0  0  2  0  0  0  0  0  0
  160.3670  212.6120  147.6720 C   0  0  1  0  0  3  0  0  0  0  0  0
  162.3290  208.9370  150.0820 C   0  0  2  0  0  3  0  0  0  0  0  0
  161.9860  211.3130  149.9290 C   0  0  2  0  0  3  0  0  0  0  0  0
  160.7040  213.6820  148.7250 C   0  0  1  0  0  3  0  0  0  0  0  0
  159.1640  211.5730  151.9880 N   0  0  0  0  0  0  0  0  0  0  0  0
  161.0590  210.8340  153.0530 C   0  0  0  0  0  0  0  0  0  0  0  0
  158.5480  210.8840  153.1190 C   0  0  1  0  0  3  0  0  0  0  0  0
  159.8650  210.1760  154.1860 S   0  0  0  0  0  0  0  0  0  0  0  0
  160.4510  211.5370  151.9420 C   0  0  0  0  0  0  0  0  0  0  0  0
  157.7200  211.8670  153.9230 C   0  0  0  0  0  1  0  0  0  0  0  0
  162.3010  210.7040  153.2120 O   0  0  0  0  0  0  0  0  0  0  0  0
  161.2270  213.4430  144.1340 C   0  0  0  0  0  0  0  0  0  0  0  0
  160.1350  214.2030  143.7100 C   0  0  0  0  0  3  0  0  0  0  0  0
  160.2680  213.1900  146.2940 C   0  0  0  0  0  0  0  0  0  0  0  0
  159.0930  214.4530  144.6030 C   0  0  0  0  0  3  0  0  0  0  0  0
  161.2680  212.9560  145.4030 N   0  0  0  0  0  0  0  0  0  0  0  0
  159.1530  213.9460  145.9010 C   0  0  0  0  0  3  0  0  0  0  0  0
  162.5440  213.1150  143.0290 Cl  0  0  0  0  0  0  0  0  0  0  0  0
  161.3850  208.3630  150.9360 O   0  0  0  0  0  0  0  0  0  0  0  0
  162.0010  207.2090  151.4320 C   0  0  0  0  0  2  0  0  0  0  0  0
  160.3580  206.3320  149.1130 O   0  0  0  0  0  0  0  0  0  0  0  0
  161.0520  206.0170  151.3590 C   0  0  1  0  0  3  0  0  0  0  0  0
  160.8340  205.5680  149.9360 C   0  0  0  0  0  0  0  0  0  0  0  0
  160.7030  203.1420  150.5510 C   0  0  0  0  0  2  0  0  0  0  0  0
  160.7250  203.6160  152.0150 C   0  0  0  0  0  2  0  0  0  0  0  0
  161.5730  204.8690  152.2260 C   0  0  0  0  0  2  0  0  0  0  0  0
  161.2070  204.1720  149.5310 C   0  0  0  0  0  2  0  0  0  0  0  0
  1 16  1  1  0  0  0
  2  7  1  6  0  0  0
  2 10  1  0  0  0  0
  4  2  1  0  0  0  0
  4  9  1  0  0  0  0
  5  1  1  0  0  0  0
  8 21  1  6  0  0  0
  8  7  1  0  0  0  0
  8 11  1  0  0  0  0
  9  3  1  0  0  0  0
  9 26  1  1  0  0  0
 10  3  1  1  0  0  0
 10  1  1  0  0  0  0
 11  6  1  1  0  0  0
 11  5  1  0  0  0  0
 12 14  1  0  0  0  0
 13 18  2  0  0  0  0
 13 15  1  0  0  0  0
 14 17  1  1  0  0  0
 14 15  1  0  0  0  0
 16 12  2  0  0  0  0
 16 13  1  0  0  0  0
 19 23  1  0  0  0  0
 20 19  2  0  0  0  0
 20 22  1  0  0  0  0
 22 24  2  0  0  0  0
 23 21  2  0  0  0  0
 24 21  1  0  0  0  0
 25 19  1  0  0  0  0
 26 27  1  0  0  0  0
 28 30  2  0  0  0  0
 29 27  1  6  0  0  0
 29 33  1  0  0  0  0
 30 29  1  0  0  0  0
 31 32  1  0  0  0  0
 32 33  1  0  0  0  0
 34 30  1  0  0  0  0
 34 31  1  0  0  0  0
M  END
>  <MODEL>
4

>  <REMARK>
 VINA RESULT:      -4.9      3.452      7.311
  Name = 
  5 active torsions:
  status: ('A' for Active; 'I' for Inactive)
    1  A    between atoms: C_3  and  C_13
    2  A    between atoms: C_3  and  O_17
    3  A    between atoms: C_4  and  C_15
    4  A    between atoms: C_12  and  C_28
    5  A    between atoms: O_17  and  C_29
                            x       y       z     vdW  Elec       q    Type
                         _______ _______ _______ _____ _____    ______ ____

>  <TORSDO>
F 5

$$$$
=
 OpenBabel11062407453D

 34 38  0  0  1  0  0  0  0  0999 V2000
  162.2280  210.3140  149.8220 C   0  0  2  0  0  3  0  0  0  0  0  0
  161.1120  208.8740  151.5050 N   0  0  2  0  0  0  0  0  0  0  0  0
  162.7260  210.4850  152.3290 C   0  0  0  0  0  2  0  0  0  0  0  0
  160.9880  208.9770  152.9510 C   0  0  0  0  0  2  0  0  0  0  0  0
  161.7110  209.4470  148.6580 C   0  0  0  0  0  2  0  0  0  0  0  0
  163.4890  207.6440  148.9570 C   0  0  0  0  0  1  0  0  0  0  0  0
  161.3340  207.4720  151.1860 C   0  0  0  0  0  2  0  0  0  0  0  0
  161.0620  207.2110  149.7010 C   0  0  1  0  0  3  0  0  0  0  0  0
  161.6530  210.2720  153.3680 C   0  0  2  0  0  3  0  0  0  0  0  0
  162.3430  209.5780  151.1700 C   0  0  2  0  0  3  0  0  0  0  0  0
  162.0100  207.9450  148.7360 C   0  0  1  0  0  3  0  0  0  0  0  0
  160.4940  211.7300  150.7690 N   0  0  0  0  0  0  0  0  0  0  0  0
  161.5990  212.7260  149.0200 C   0  0  0  0  0  0  0  0  0  0  0  0
  159.7660  212.9950  150.7180 C   0  0  1  0  0  3  0  0  0  0  0  0
  160.4480  214.0300  149.3610 S   0  0  0  0  0  0  0  0  0  0  0  0
  161.4450  211.5940  149.9100 C   0  0  0  0  0  0  0  0  0  0  0  0
  158.2970  212.7260  150.4590 C   0  0  0  0  0  1  0  0  0  0  0  0
  162.4510  212.7870  148.0960 O   0  0  0  0  0  0  0  0  0  0  0  0
  160.7960  203.5210  150.2160 C   0  0  0  0  0  0  0  0  0  0  0  0
  160.7760  203.0180  148.9130 C   0  0  0  0  0  3  0  0  0  0  0  0
  160.9750  205.7460  149.3990 C   0  0  0  0  0  0  0  0  0  0  0  0
  160.8540  203.9060  147.8400 C   0  0  0  0  0  3  0  0  0  0  0  0
  160.8920  204.8610  150.4280 N   0  0  0  0  0  0  0  0  0  0  0  0
  160.9530  205.2770  148.0770 C   0  0  0  0  0  3  0  0  0  0  0  0
  160.6960  202.4260  151.5760 Cl  0  0  0  0  0  0  0  0  0  0  0  0
  160.7240  211.3110  153.2810 O   0  0  0  0  0  0  0  0  0  0  0  0
  159.5890  210.8400  153.9490 C   0  0  0  0  0  2  0  0  0  0  0  0
  160.1040  210.0780  156.7760 O   0  0  0  0  0  0  0  0  0  0  0  0
  159.3180  211.6660  155.2010 C   0  0  1  0  0  3  0  0  0  0  0  0
  160.1780  211.2210  156.3570 C   0  0  0  0  0  0  0  0  0  0  0  0
  160.4560  213.5430  157.2570 C   0  0  0  0  0  2  0  0  0  0  0  0
  159.4200  213.9680  156.2000 C   0  0  0  0  0  2  0  0  0  0  0  0
  159.5160  213.1560  154.9090 C   0  0  0  0  0  2  0  0  0  0  0  0
  161.1290  212.1900  156.9940 C   0  0  0  0  0  2  0  0  0  0  0  0
  1 16  1  1  0  0  0
  1 10  1  0  0  0  0
  2  7  1  1  0  0  0
  2  4  1  0  0  0  0
  3  9  1  0  0  0  0
  4  9  1  0  0  0  0
  5 11  1  0  0  0  0
  5  1  1  0  0  0  0
  8 21  1  1  0  0  0
  8  7  1  0  0  0  0
  9 26  1  6  0  0  0
 10  2  1  0  0  0  0
 10  3  1  1  0  0  0
 11  6  1  1  0  0  0
 11  8  1  0  0  0  0
 13 15  1  0  0  0  0
 13 16  1  0  0  0  0
 14 17  1  6  0  0  0
 14 12  1  0  0  0  0
 15 14  1  0  0  0  0
 16 12  2  0  0  0  0
 18 13  2  0  0  0  0
 19 23  1  0  0  0  0
 19 25  1  0  0  0  0
 20 19  2  0  0  0  0
 21 23  2  0  0  0  0
 22 24  2  0  0  0  0
 22 20  1  0  0  0  0
 24 21  1  0  0  0  0
 26 27  1  0  0  0  0
 29 27  1  6  0  0  0
 29 30  1  0  0  0  0
 30 28  2  0  0  0  0
 30 34  1  0  0  0  0
 32 31  1  0  0  0  0
 33 29  1  0  0  0  0
 33 32  1  0  0  0  0
 34 31  1  0  0  0  0
M  END
>  <MODEL>
5

>  <REMARK>
 VINA RESULT:      -4.9      1.506      2.056
  Name = 
  5 active torsions:
  status: ('A' for Active; 'I' for Inactive)
    1  A    between atoms: C_3  and  C_13
    2  A    between atoms: C_3  and  O_17
    3  A    between atoms: C_4  and  C_15
    4  A    between atoms: C_12  and  C_28
    5  A    between atoms: O_17  and  C_29
                            x       y       z     vdW  Elec       q    Type
                         _______ _______ _______ _____ _____    ______ ____

>  <TORSDO>
F 5

$$$$
=
 OpenBabel11062407453D

 34 38  0  0  1  0  0  0  0  0999 V2000
  161.6290  206.5850  152.8000 C   0  0  2  0  0  3  0  0  0  0  0  0
  161.2800  208.1850  150.9390 N   0  0  2  0  0  0  0  0  0  0  0  0
  163.3190  206.8740  150.8960 C   0  0  0  0  0  2  0  0  0  0  0  0
  161.9030  208.3140  149.6310 C   0  0  0  0  0  2  0  0  0  0  0  0
  160.4790  207.2000  153.6180 C   0  0  0  0  0  2  0  0  0  0  0  0
  161.8670  209.1690  154.4530 C   0  0  0  0  0  1  0  0  0  0  0  0
  161.0950  209.5290  151.4660 C   0  0  0  0  0  2  0  0  0  0  0  0
  160.0890  209.5170  152.6220 C   0  0  1  0  0  3  0  0  0  0  0  0
  162.8790  207.1660  149.4830 C   0  0  2  0  0  3  0  0  0  0  0  0
  162.2790  207.5410  151.7820 C   0  0  2  0  0  3  0  0  0  0  0  0
  160.5390  208.7140  153.8560 C   0  0  1  0  0  3  0  0  0  0  0  0
  161.6460  204.1580  152.6580 N   0  0  0  0  0  0  0  0  0  0  0  0
  160.3610  205.1370  151.0250 C   0  0  0  0  0  0  0  0  0  0  0  0
  161.2070  202.9580  151.9490 C   0  0  1  0  0  3  0  0  0  0  0  0
  160.1350  203.4470  150.5390 S   0  0  0  0  0  0  0  0  0  0  0  0
  161.2020  205.2760  152.1960 C   0  0  0  0  0  0  0  0  0  0  0  0
  162.4150  202.2050  151.4300 C   0  0  0  0  0  1  0  0  0  0  0  0
  159.8470  206.1030  150.4050 O   0  0  0  0  0  0  0  0  0  0  0  0
  159.4260  213.1830  152.3620 C   0  0  0  0  0  0  0  0  0  0  0  0
  158.7950  213.4790  153.5720 C   0  0  0  0  0  3  0  0  0  0  0  0
  159.6370  210.8980  152.9830 C   0  0  0  0  0  0  0  0  0  0  0  0
  158.5830  212.4570  154.4970 C   0  0  0  0  0  3  0  0  0  0  0  0
  159.8270  211.9110  152.0960 N   0  0  0  0  0  0  0  0  0  0  0  0
  159.0030  211.1590  154.2070 C   0  0  0  0  0  3  0  0  0  0  0  0
  159.6990  214.4500  151.1860 Cl  0  0  0  0  0  0  0  0  0  0  0  0
  162.2040  206.0530  148.9780 O   0  0  0  0  0  0  0  0  0  0  0  0
  161.8090  206.4240  147.6890 C   0  0  0  0  0  2  0  0  0  0  0  0
  160.2340  206.5650  145.1700 O   0  0  0  0  0  0  0  0  0  0  0  0
  160.9960  205.3120  147.0330 C   0  0  1  0  0  3  0  0  0  0  0  0
  160.8050  205.5600  145.5580 C   0  0  0  0  0  0  0  0  0  0  0  0
  160.9520  203.1300  144.9650 C   0  0  0  0  0  2  0  0  0  0  0  0
  160.9460  202.8630  146.4820 C   0  0  0  0  0  2  0  0  0  0  0  0
  161.6550  203.9540  147.2840 C   0  0  0  0  0  2  0  0  0  0  0  0
  161.3210  204.5640  144.5630 C   0  0  0  0  0  2  0  0  0  0  0  0
  1 16  1  6  0  0  0
  1  5  1  0  0  0  0
  2  4  1  6  0  0  0
  2  7  1  0  0  0  0
  2 10  1  0  0  0  0
  5 11  1  0  0  0  0
  7  8  1  0  0  0  0
  8 21  1  1  0  0  0
  8 11  1  0  0  0  0
  9 26  1  1  0  0  0
  9  4  1  0  0  0  0
  9  3  1  0  0  0  0
 10  3  1  6  0  0  0
 10  1  1  0  0  0  0
 11  6  1  6  0  0  0
 13 16  1  0  0  0  0
 14 17  1  6  0  0  0
 14 12  1  0  0  0  0
 15 13  1  0  0  0  0
 15 14  1  0  0  0  0
 16 12  2  0  0  0  0
 18 13  2  0  0  0  0
 19 20  1  0  0  0  0
 20 22  2  0  0  0  0
 21 24  2  0  0  0  0
 23 19  2  0  0  0  0
 23 21  1  0  0  0  0
 24 22  1  0  0  0  0
 25 19  1  0  0  0  0
 27 26  1  0  0  0  0
 28 30  2  0  0  0  0
 29 33  1  0  0  0  0
 29 27  1  6  0  0  0
 30 29  1  0  0  0  0
 31 32  1  0  0  0  0
 32 33  1  0  0  0  0
 34 31  1  0  0  0  0
 34 30  1  0  0  0  0
M  END
>  <MODEL>
6

>  <REMARK>
 VINA RESULT:      -4.7      3.936      8.860
  Name = 
  5 active torsions:
  status: ('A' for Active; 'I' for Inactive)
    1  A    between atoms: C_3  and  C_13
    2  A    between atoms: C_3  and  O_17
    3  A    between atoms: C_4  and  C_15
    4  A    between atoms: C_12  and  C_28
    5  A    between atoms: O_17  and  C_29
                            x       y       z     vdW  Elec       q    Type
                         _______ _______ _______ _____ _____    ______ ____

>  <TORSDO>
F 5

$$$$
=
 OpenBabel11062407453D

 34 38  0  0  1  0  0  0  0  0999 V2000
  162.1130  210.2350  149.9440 C   0  0  2  0  0  3  0  0  0  0  0  0
  161.1630  208.5420  151.4870 N   0  0  2  0  0  0  0  0  0  0  0  0
  162.7560  210.1130  152.4210 C   0  0  0  0  0  2  0  0  0  0  0  0
  161.1230  208.4560  152.9390 C   0  0  0  0  0  2  0  0  0  0  0  0
  161.5620  209.4970  148.7090 C   0  0  0  0  0  2  0  0  0  0  0  0
  163.4280  207.7600  148.6740 C   0  0  0  0  0  1  0  0  0  0  0  0
  161.4220  207.2030  150.9790 C   0  0  0  0  0  2  0  0  0  0  0  0
  161.0710  207.1180  149.4900 C   0  0  1  0  0  3  0  0  0  0  0  0
  161.7580  209.7190  153.4810 C   0  0  2  0  0  3  0  0  0  0  0  0
  162.3410  209.3420  151.1780 C   0  0  2  0  0  3  0  0  0  0  0  0
  161.9280  208.0130  148.5770 C   0  0  1  0  0  3  0  0  0  0  0  0
  160.5710  211.5260  151.3100 N   0  0  0  0  0  0  0  0  0  0  0  0
  161.1270  212.5870  149.3510 C   0  0  0  0  0  0  0  0  0  0  0  0
  159.7630  212.7330  151.4560 C   0  0  1  0  0  3  0  0  0  0  0  0
  160.0040  213.8050  149.9840 S   0  0  0  0  0  0  0  0  0  0  0  0
  161.2840  211.4530  150.2390 C   0  0  0  0  0  0  0  0  0  0  0  0
  158.3000  212.3540  151.5710 C   0  0  0  0  0  1  0  0  0  0  0  0
  161.7120  212.7030  148.2430 O   0  0  0  0  0  0  0  0  0  0  0  0
  161.1950  204.1770  147.1910 C   0  0  0  0  0  0  0  0  0  0  0  0
  160.9890  203.0940  148.0480 C   0  0  0  0  0  3  0  0  0  0  0  0
  161.0260  205.7010  149.0080 C   0  0  0  0  0  0  0  0  0  0  0  0
  160.8010  203.3300  149.4110 C   0  0  0  0  0  3  0  0  0  0  0  0
  161.2120  205.4440  147.6850 N   0  0  0  0  0  0  0  0  0  0  0  0
  160.8200  204.6370  149.8980 C   0  0  0  0  0  3  0  0  0  0  0  0
  161.4360  203.9030  145.4800 Cl  0  0  0  0  0  0  0  0  0  0  0  0
  160.7840  210.7150  153.5810 O   0  0  0  0  0  0  0  0  0  0  0  0
  161.0920  211.4070  154.7560 C   0  0  0  0  0  2  0  0  0  0  0  0
  158.4870  210.4660  155.8380 O   0  0  0  0  0  0  0  0  0  0  0  0
  160.8530  210.5270  155.9790 C   0  0  1  0  0  3  0  0  0  0  0  0
  159.5210  209.8230  155.9050 C   0  0  0  0  0  0  0  0  0  0  0  0
  160.3780  207.7400  157.0030 C   0  0  0  0  0  2  0  0  0  0  0  0
  161.6760  208.5290  157.2570 C   0  0  0  0  0  2  0  0  0  0  0  0
  161.9980  209.5250  156.1440 C   0  0  0  0  0  2  0  0  0  0  0  0
  159.4710  208.3240  155.9120 C   0  0  0  0  0  2  0  0  0  0  0  0
  1 16  1  1  0  0  0
  1 10  1  0  0  0  0
  2  7  1  6  0  0  0
  2  4  1  0  0  0  0
  3  9  1  0  0  0  0
  4  9  1  0  0  0  0
  5  1  1  0  0  0  0
  8 21  1  6  0  0  0
  8  7  1  0  0  0  0
  9 26  1  6  0  0  0
 10  2  1  0  0  0  0
 10  3  1  1  0  0  0
 11  6  1  1  0  0  0
 11  5  1  0  0  0  0
 11  8  1  0  0  0  0
 12 14  1  0  0  0  0
 13 15  1  0  0  0  0
 13 16  1  0  0  0  0
 14 17  1  6  0  0  0
 15 14  1  0  0  0  0
 16 12  2  0  0  0  0
 18 13  2  0  0  0  0
 19 23  2  0  0  0  0
 19 20  1  0  0  0  0
 20 22  2  0  0  0  0
 21 24  2  0  0  0  0
 22 24  1  0  0  0  0
 23 21  1  0  0  0  0
 25 19  1  0  0  0  0
 26 27  1  0  0  0  0
 28 30  2  0  0  0  0
 29 27  1  6  0  0  0
 29 33  1  0  0  0  0
 30 34  1  0  0  0  0
 30 29  1  0  0  0  0
 31 32  1  0  0  0  0
 33 32  1  0  0  0  0
 34 31  1  0  0  0  0
M  END
>  <MODEL>
7

>  <REMARK>
 VINA RESULT:      -4.6      1.495      2.410
  Name = 
  5 active torsions:
  status: ('A' for Active; 'I' for Inactive)
    1  A    between atoms: C_3  and  C_13
    2  A    between atoms: C_3  and  O_17
    3  A    between atoms: C_4  and  C_15
    4  A    between atoms: C_12  and  C_28
    5  A    between atoms: O_17  and  C_29
                            x       y       z     vdW  Elec       q    Type
                         _______ _______ _______ _____ _____    ______ ____

>  <TORSDO>
F 5

$$$$
=
 OpenBabel11062407453D

 34 38  0  0  1  0  0  0  0  0999 V2000
  161.9490  207.5570  152.6370 C   0  0  2  0  0  3  0  0  0  0  0  0
  161.1560  208.8760  150.6940 N   0  0  2  0  0  0  0  0  0  0  0  0
  163.3240  207.8100  150.4900 C   0  0  0  0  0  2  0  0  0  0  0  0
  161.5810  208.9200  149.3030 C   0  0  0  0  0  2  0  0  0  0  0  0
  160.8450  208.1290  153.5460 C   0  0  0  0  0  2  0  0  0  0  0  0
  162.0640  210.3280  153.9680 C   0  0  0  0  0  1  0  0  0  0  0  0
  160.8690  210.2430  151.1030 C   0  0  0  0  0  2  0  0  0  0  0  0
  160.0330  210.2520  152.3870 C   0  0  1  0  0  3  0  0  0  0  0  0
  162.6700  207.8820  149.1330 C   0  0  2  0  0  3  0  0  0  0  0  0
  162.3310  208.4540  151.4450 C   0  0  2  0  0  3  0  0  0  0  0  0
  160.7400  209.6580  153.6180 C   0  0  1  0  0  3  0  0  0  0  0  0
  161.5780  205.8040  150.9950 N   0  0  0  0  0  0  0  0  0  0  0  0
  161.2370  205.0900  153.1500 C   0  0  0  0  0  0  0  0  0  0  0  0
  161.1870  204.4220  150.7280 C   0  0  1  0  0  3  0  0  0  0  0  0
  160.8310  203.5770  152.3200 S   0  0  0  0  0  0  0  0  0  0  0  0
  161.6200  206.1460  152.2360 C   0  0  0  0  0  0  0  0  0  0  0  0
  159.9460  204.4040  149.8590 C   0  0  0  0  0  1  0  0  0  0  0  0
  161.1870  205.2210  154.4010 O   0  0  0  0  0  0  0  0  0  0  0  0
  158.1600  212.9940  154.0960 C   0  0  0  0  0  0  0  0  0  0  0  0
  158.3850  214.0970  153.2700 C   0  0  0  0  0  3  0  0  0  0  0  0
  159.4570  211.6060  152.6680 C   0  0  0  0  0  0  0  0  0  0  0  0
  159.1650  213.9410  152.1240 C   0  0  0  0  0  3  0  0  0  0  0  0
  158.6980  211.7850  153.7820 N   0  0  0  0  0  0  0  0  0  0  0  0
  159.7070  212.6930  151.8170 C   0  0  0  0  0  3  0  0  0  0  0  0
  157.1870  213.1690  155.5400 Cl  0  0  0  0  0  0  0  0  0  0  0  0
  162.0840  206.6470  148.8460 O   0  0  0  0  0  0  0  0  0  0  0  0
  162.1180  206.5460  147.4510 C   0  0  0  0  0  2  0  0  0  0  0  0
  160.0810  206.5780  145.2850 O   0  0  0  0  0  0  0  0  0  0  0  0
  161.2470  205.3890  146.9730 C   0  0  1  0  0  3  0  0  0  0  0  0
  160.7630  205.6050  145.5610 C   0  0  0  0  0  0  0  0  0  0  0  0
  160.9060  203.1750  144.9670 C   0  0  0  0  0  2  0  0  0  0  0  0
  161.2050  202.9320  146.4570 C   0  0  0  0  0  2  0  0  0  0  0  0
  162.0050  204.0650  147.0990 C   0  0  0  0  0  2  0  0  0  0  0  0
  161.1230  204.6180  144.4910 C   0  0  0  0  0  2  0  0  0  0  0  0
  1 16  1  6  0  0  0
  1  5  1  0  0  0  0
  2  4  1  6  0  0  0
  2  7  1  0  0  0  0
  2 10  1  0  0  0  0
  5 11  1  0  0  0  0
  7  8  1  0  0  0  0
  8 21  1  1  0  0  0
  8 11  1  0  0  0  0
  9 26  1  1  0  0  0
  9  4  1  0  0  0  0
  9  3  1  0  0  0  0
 10  3  1  6  0  0  0
 10  1  1  0  0  0  0
 11  6  1  6  0  0  0
 12 16  2  0  0  0  0
 13 18  2  0  0  0  0
 14 17  1  6  0  0  0
 14 12  1  0  0  0  0
 14 15  1  0  0  0  0
 15 13  1  0  0  0  0
 16 13  1  0  0  0  0
 19 25  1  0  0  0  0
 20 19  2  0  0  0  0
 21 23  2  0  0  0  0
 22 20  1  0  0  0  0
 23 19  1  0  0  0  0
 24 22  2  0  0  0  0
 24 21  1  0  0  0  0
 27 26  1  0  0  0  0
 28 30  2  0  0  0  0
 29 33  1  0  0  0  0
 29 27  1  6  0  0  0
 30 29  1  0  0  0  0
 31 32  1  0  0  0  0
 32 33  1  0  0  0  0
 34 31  1  0  0  0  0
 34 30  1  0  0  0  0
M  END
>  <MODEL>
8

>  <REMARK>
 VINA RESULT:      -4.1      4.013      8.947
  Name = 
  5 active torsions:
  status: ('A' for Active; 'I' for Inactive)
    1  A    between atoms: C_3  and  C_13
    2  A    between atoms: C_3  and  O_17
    3  A    between atoms: C_4  and  C_15
    4  A    between atoms: C_12  and  C_28
    5  A    between atoms: O_17  and  C_29
                            x       y       z     vdW  Elec       q    Type
                         _______ _______ _______ _____ _____    ______ ____

>  <TORSDO>
F 5

$$$$
=
 OpenBabel11062407453D

 34 38  0  0  1  0  0  0  0  0999 V2000
  161.5560  208.6530  153.5270 C   0  0  2  0  0  3  0  0  0  0  0  0
  160.4470  210.5420  152.3650 N   0  0  2  0  0  0  0  0  0  0  0  0
  162.8040  210.1980  151.9080 C   0  0  0  0  0  2  0  0  0  0  0  0
  160.8320  211.3410  151.2110 C   0  0  0  0  0  2  0  0  0  0  0  0
  160.3590  208.4650  154.4780 C   0  0  0  0  0  2  0  0  0  0  0  0
  161.0260  210.3900  156.0110 C   0  0  0  0  0  1  0  0  0  0  0  0
  159.8490  211.4440  153.3380 C   0  0  0  0  0  2  0  0  0  0  0  0
  159.0510  210.6530  154.3800 C   0  0  1  0  0  3  0  0  0  0  0  0
  162.1330  210.7740  150.6860 C   0  0  2  0  0  3  0  0  0  0  0  0
  161.6980  210.0720  152.9450 C   0  0  2  0  0  3  0  0  0  0  0  0
  159.8950  209.7060  155.2510 C   0  0  1  0  0  3  0  0  0  0  0  0
  161.6760  207.8740  151.2270 N   0  0  0  0  0  0  0  0  0  0  0  0
  161.3640  206.1660  152.7300 C   0  0  0  0  0  0  0  0  0  0  0  0
  161.6110  206.7490  150.2990 C   0  0  1  0  0  3  0  0  0  0  0  0
  161.3480  205.1970  151.2460 S   0  0  0  0  0  0  0  0  0  0  0  0
  161.5650  207.5780  152.4770 C   0  0  0  0  0  0  0  0  0  0  0  0
  160.4610  206.9530  149.3340 C   0  0  0  0  0  1  0  0  0  0  0  0
  161.2080  205.6700  153.8760 O   0  0  0  0  0  0  0  0  0  0  0  0
  156.2280  211.7840  156.5480 C   0  0  0  0  0  0  0  0  0  0  0  0
  156.5190  213.1310  156.7730 C   0  0  0  0  0  3  0  0  0  0  0  0
  158.1740  211.5450  155.2040 C   0  0  0  0  0  0  0  0  0  0  0  0
  157.6640  213.6850  156.2010 C   0  0  0  0  0  3  0  0  0  0  0  0
  157.0550  211.0270  155.7780 N   0  0  0  0  0  0  0  0  0  0  0  0
  158.4990  212.8930  155.4130 C   0  0  0  0  0  3  0  0  0  0  0  0
  154.7980  211.0690  157.2600 Cl  0  0  0  0  0  0  0  0  0  0  0  0
  161.8540  209.7390  149.7910 O   0  0  0  0  0  0  0  0  0  0  0  0
  162.2690  210.2150  148.5440 C   0  0  0  0  0  2  0  0  0  0  0  0
  164.0720  212.5630  148.2600 O   0  0  0  0  0  0  0  0  0  0  0  0
  161.8750  211.6780  148.3660 C   0  0  1  0  0  3  0  0  0  0  0  0
  162.9800  212.4770  147.7230 C   0  0  0  0  0  0  0  0  0  0  0  0
  161.3990  213.9240  146.4250 C   0  0  0  0  0  2  0  0  0  0  0  0
  160.2760  213.2450  147.2290 C   0  0  0  0  0  2  0  0  0  0  0  0
  160.5770  211.7840  147.5620 C   0  0  0  0  0  2  0  0  0  0  0  0
  162.7350  213.1680  146.4150 C   0  0  0  0  0  2  0  0  0  0  0  0
  1 16  1  6  0  0  0
  1  5  1  0  0  0  0
  2  4  1  6  0  0  0
  2 10  1  0  0  0  0
  2  7  1  0  0  0  0
  5 11  1  0  0  0  0
  7  8  1  0  0  0  0
  8 21  1  1  0  0  0
  8 11  1  0  0  0  0
  9 26  1  6  0  0  0
  9  4  1  0  0  0  0
  9  3  1  0  0  0  0
 10  3  1  6  0  0  0
 10  1  1  0  0  0  0
 11  6  1  6  0  0  0
 12 16  2  0  0  0  0
 13 18  2  0  0  0  0
 14 17  1  6  0  0  0
 14 12  1  0  0  0  0
 14 15  1  0  0  0  0
 15 13  1  0  0  0  0
 16 13  1  0  0  0  0
 19 20  1  0  0  0  0
 19 25  1  0  0  0  0
 21 24  2  0  0  0  0
 21 23  1  0  0  0  0
 22 20  2  0  0  0  0
 23 19  2  0  0  0  0
 24 22  1  0  0  0  0
 27 26  1  0  0  0  0
 29 27  1  6  0  0  0
 30 28  2  0  0  0  0
 30 29  1  0  0  0  0
 31 32  1  0  0  0  0
 32 33  1  0  0  0  0
 33 29  1  0  0  0  0
 34 31  1  0  0  0  0
 34 30  1  0  0  0  0
M  END
>  <MODEL>
9

>  <REMARK>
 VINA RESULT:      -3.8      3.824      7.893
  Name = 
  5 active torsions:
  status: ('A' for Active; 'I' for Inactive)
    1  A    between atoms: C_3  and  C_13
    2  A    between atoms: C_3  and  O_17
    3  A    between atoms: C_4  and  C_15
    4  A    between atoms: C_12  and  C_28
    5  A    between atoms: O_17  and  C_29
                            x       y       z     vdW  Elec       q    Type
                         _______ _______ _______ _____ _____    ______ ____

>  <TORSDO>
F 5

$$$$
