=
 OpenBabel11052422413D

 31 35  0  0  1  0  0  0  0  0999 V2000
  160.4590  200.9480  149.1180 C   0  0  2  0  0  3  0  0  0  0  0  0
  161.3530  204.5800  148.5860 C   0  0  0  0  0  0  0  0  0  0  0  0
  161.5590  204.6800  147.1920 C   0  0  0  0  0  0  0  0  0  0  0  0
  160.5700  203.4770  145.2750 C   0  0  0  0  0  3  0  0  0  0  0  0
  160.9760  203.3560  149.2610 N   0  0  0  0  0  0  0  0  0  0  0  0
  160.3660  200.9220  150.6450 C   0  0  0  0  0  2  0  0  0  0  0  0
  161.6190  203.4560  146.3330 C   0  0  0  0  0  2  0  0  0  0  0  0
  161.3830  205.5790  150.8620 C   0  0  2  0  0  3  0  0  0  0  0  0
  161.8180  200.4630  148.6420 C   0  0  0  0  0  1  0  0  0  0  0  0
  162.0130  207.0090  147.4720 N   0  0  0  0  0  0  0  0  0  0  0  0
  160.5480  204.3840  144.3010 C   0  0  0  0  0  3  0  0  0  0  0  0
  161.8240  204.3050  151.2670 O   0  0  0  0  0  0  0  0  0  0  0  0
  161.5630  205.7150  149.3740 C   0  0  0  0  0  0  0  0  0  0  0  0
  160.1620  202.3470  148.5790 C   0  0  0  0  0  2  0  0  0  0  0  0
  161.4840  205.5180  144.1840 C   0  0  0  0  0  3  0  0  0  0  0  0
  160.9220  203.3630  150.7350 C   0  0  2  0  0  3  0  0  0  0  0  0
  161.2680  201.9810  151.2760 C   0  0  0  0  0  2  0  0  0  0  0  0
  161.8680  206.9030  148.7920 N   0  0  0  0  0  0  0  0  0  0  0  0
  161.8650  205.9430  146.6420 C   0  0  0  0  0  0  0  0  0  0  0  0
  162.0550  206.1830  145.1950 C   0  0  0  0  0  3  0  0  0  0  0  0
  162.1600  206.6520  151.6230 C   0  0  0  0  0  2  0  0  0  0  0  0
  160.9900  205.5550  153.5970 C   0  0  0  0  0  1  0  0  0  0  0  0
  161.7220  206.7860  153.0830 C   0  0  2  0  0  3  0  0  0  0  0  0
  160.4930  210.7560  153.8990 C   0  0  2  0  0  3  0  0  0  0  0  0
  160.7260  208.8730  152.3240 C   0  0  0  0  0  3  0  0  0  0  0  0
  160.5070  207.6860  155.8080 C   0  0  0  0  0  1  0  0  0  0  0  0
  159.6410  212.3290  154.1960 S   0  0  0  0  0  1  0  0  0  0  0  0
  160.1580  210.2520  152.5000 C   0  0  0  0  0  2  0  0  0  0  0  0
  160.9550  208.7110  154.7810 C   0  0  1  0  0  3  0  0  0  0  0  0
  161.0410  208.1030  153.3780 C   0  0  0  0  0  0  0  0  0  0  0  0
  160.0620  209.8040  154.8360 O   0  0  0  0  0  0  0  0  0  0  0  0
  1  9  1  1  0  0  0
  1  6  1  0  0  0  0
  2  5  1  0  0  0  0
  2 13  1  0  0  0  0
  3  2  2  0  0  0  0
  4  7  1  0  0  0  0
  5 16  1  0  0  0  0
  6 17  1  0  0  0  0
  7  3  1  0  0  0  0
  8 12  1  0  0  0  0
  8 21  1  1  0  0  0
 10 18  1  0  0  0  0
 11  4  2  0  0  0  0
 13  8  1  0  0  0  0
 14  1  1  0  0  0  0
 14  5  1  0  0  0  0
 15 11  1  0  0  0  0
 15 20  2  0  0  0  0
 16 12  1  0  0  0  0
 16 17  1  1  0  0  0
 18 13  2  0  0  0  0
 19  3  1  0  0  0  0
 19 10  2  0  0  0  0
 20 19  1  0  0  0  0
 21 23  1  0  0  0  0
 23 30  1  0  0  0  0
 23 22  1  6  0  0  0
 24 27  1  1  0  0  0
 24 31  1  0  0  0  0
 25 28  1  0  0  0  0
 25 30  2  0  0  0  0
 28 24  1  0  0  0  0
 29 31  1  0  0  0  0
 29 26  1  1  0  0  0
 30 29  1  0  0  0  0
M  END
>  <MODEL>
1

>  <REMARK>
 VINA RESULT:      -9.9      0.000      0.000
  Name = 
  3 active torsions:
  status: ('A' for Active; 'I' for Inactive)
    1  A    between atoms: C_9  and  C_22
    2  A    between atoms: C_9  and  C_23
    3  A    between atoms: C_15  and  C_23
                            x       y       z     vdW  Elec       q    Type
                         _______ _______ _______ _____ _____    ______ ____

>  <TORSDO>
F 3

$$$$
=
 OpenBabel11052422413D

 31 35  0  0  1  0  0  0  0  0999 V2000
  160.4390  201.1060  149.3670 C   0  0  2  0  0  3  0  0  0  0  0  0
  161.3710  204.6920  148.6310 C   0  0  0  0  0  0  0  0  0  0  0  0
  161.5640  204.7150  147.2320 C   0  0  0  0  0  0  0  0  0  0  0  0
  160.5410  203.4220  145.3920 C   0  0  0  0  0  3  0  0  0  0  0  0
  160.9860  203.5120  149.3740 N   0  0  0  0  0  0  0  0  0  0  0  0
  160.3610  201.1640  150.8940 C   0  0  0  0  0  2  0  0  0  0  0  0
  161.6010  203.4450  146.4400 C   0  0  0  0  0  2  0  0  0  0  0  0
  161.4370  205.8130  150.8490 C   0  0  2  0  0  3  0  0  0  0  0  0
  161.7870  200.5790  148.9050 C   0  0  0  0  0  1  0  0  0  0  0  0
  162.0490  207.0490  147.3810 N   0  0  0  0  0  0  0  0  0  0  0  0
  160.5200  204.2760  144.3700 C   0  0  0  0  0  3  0  0  0  0  0  0
  161.8660  204.5560  151.3180 O   0  0  0  0  0  0  0  0  0  0  0  0
  161.6030  205.8660  149.3540 C   0  0  0  0  0  0  0  0  0  0  0  0
  160.1530  202.4770  148.7560 C   0  0  0  0  0  2  0  0  0  0  0  0
  161.4690  205.3890  144.1840 C   0  0  0  0  0  3  0  0  0  0  0  0
  160.9470  203.5990  150.8460 C   0  0  2  0  0  3  0  0  0  0  0  0
  161.2820  202.2440  151.4590 C   0  0  0  0  0  2  0  0  0  0  0  0
  161.9160  207.0160  148.7050 N   0  0  0  0  0  0  0  0  0  0  0  0
  161.8800  205.9420  146.6110 C   0  0  0  0  0  0  0  0  0  0  0  0
  162.0590  206.1010  145.1520 C   0  0  0  0  0  3  0  0  0  0  0  0
  162.2340  206.9150  151.5430 C   0  0  0  0  0  2  0  0  0  0  0  0
  160.8420  206.1120  153.5150 C   0  0  0  0  0  1  0  0  0  0  0  0
  161.7410  207.2080  152.9610 C   0  0  2  0  0  3  0  0  0  0  0  0
  159.6040  210.8590  153.1810 C   0  0  2  0  0  3  0  0  0  0  0  0
  160.6240  208.9090  154.2960 C   0  0  0  0  0  3  0  0  0  0  0  0
  162.2850  209.6380  151.0850 C   0  0  0  0  0  1  0  0  0  0  0  0
  158.9780  212.5410  153.4400 S   0  0  0  0  0  1  0  0  0  0  0  0
  159.9490  210.2320  154.5270 C   0  0  0  0  0  2  0  0  0  0  0  0
  161.0410  209.5910  151.9550 C   0  0  1  0  0  3  0  0  0  0  0  0
  161.2050  208.6130  153.1230 C   0  0  0  0  0  0  0  0  0  0  0  0
  160.7650  210.9050  152.3940 O   0  0  0  0  0  0  0  0  0  0  0  0
  1  9  1  1  0  0  0
  1  6  1  0  0  0  0
  2 13  1  0  0  0  0
  2  5  1  0  0  0  0
  3  2  2  0  0  0  0
  4  7  1  0  0  0  0
  5 16  1  0  0  0  0
  6 17  1  0  0  0  0
  7  3  1  0  0  0  0
  8 12  1  0  0  0  0
  8 21  1  1  0  0  0
 10 18  1  0  0  0  0
 11  4  2  0  0  0  0
 13  8  1  0  0  0  0
 14  1  1  0  0  0  0
 14  5  1  0  0  0  0
 15 11  1  0  0  0  0
 15 20  2  0  0  0  0
 16 12  1  0  0  0  0
 16 17  1  1  0  0  0
 18 13  2  0  0  0  0
 19  3  1  0  0  0  0
 19 10  2  0  0  0  0
 20 19  1  0  0  0  0
 21 23  1  0  0  0  0
 23 30  1  0  0  0  0
 23 22  1  6  0  0  0
 24 27  1  1  0  0  0
 24 28  1  0  0  0  0
 25 28  1  0  0  0  0
 29 26  1  1  0  0  0
 29 31  1  0  0  0  0
 29 30  1  0  0  0  0
 30 25  2  0  0  0  0
 31 24  1  0  0  0  0
M  END
>  <MODEL>
2

>  <REMARK>
 VINA RESULT:      -9.4      0.768      1.367
  Name = 
  3 active torsions:
  status: ('A' for Active; 'I' for Inactive)
    1  A    between atoms: C_9  and  C_22
    2  A    between atoms: C_9  and  C_23
    3  A    between atoms: C_15  and  C_23
                            x       y       z     vdW  Elec       q    Type
                         _______ _______ _______ _____ _____    ______ ____

>  <TORSDO>
F 3

$$$$
=
 OpenBabel11052422413D

 31 35  0  0  1  0  0  0  0  0999 V2000
  160.6630  202.8320  151.4510 C   0  0  2  0  0  3  0  0  0  0  0  0
  161.5370  205.7770  149.2510 C   0  0  0  0  0  0  0  0  0  0  0  0
  161.8130  205.1940  147.9940 C   0  0  0  0  0  0  0  0  0  0  0  0
  160.9390  203.1750  146.8700 C   0  0  0  0  0  3  0  0  0  0  0  0
  161.1410  205.0230  150.4210 N   0  0  0  0  0  0  0  0  0  0  0  0
  160.4920  203.5490  152.7920 C   0  0  0  0  0  2  0  0  0  0  0  0
  161.9330  203.7090  147.8440 C   0  0  0  0  0  2  0  0  0  0  0  0
  161.4370  207.7570  150.7500 C   0  0  2  0  0  3  0  0  0  0  0  0
  162.0500  202.2260  151.3250 C   0  0  0  0  0  1  0  0  0  0  0  0
  162.2230  207.3790  147.1210 N   0  0  0  0  0  0  0  0  0  0  0  0
  160.9560  203.4930  145.5770 C   0  0  0  0  0  3  0  0  0  0  0  0
  161.8720  206.8570  151.7420 O   0  0  0  0  0  0  0  0  0  0  0  0
  161.6920  207.1580  149.3930 C   0  0  0  0  0  0  0  0  0  0  0  0
  160.3760  203.7810  150.2880 C   0  0  0  0  0  2  0  0  0  0  0  0
  161.8820  204.4600  144.9590 C   0  0  0  0  0  3  0  0  0  0  0  0
  161.0110  205.7430  151.7020 C   0  0  2  0  0  3  0  0  0  0  0  0
  161.3460  204.8130  152.8610 C   0  0  0  0  0  2  0  0  0  0  0  0
  162.0110  207.9230  148.3180 N   0  0  0  0  0  0  0  0  0  0  0  0
  162.1310  206.0400  146.9100 C   0  0  0  0  0  0  0  0  0  0  0  0
  162.3930  205.5520  145.5390 C   0  0  0  0  0  3  0  0  0  0  0  0
  162.1600  209.0920  150.9210 C   0  0  0  0  0  2  0  0  0  0  0  0
  161.5530  211.4970  150.3550 C   0  0  0  0  0  1  0  0  0  0  0  0
  161.2060  210.2610  151.1740 C   0  0  2  0  0  3  0  0  0  0  0  0
  160.3510  210.2650  155.3220 C   0  0  2  0  0  3  0  0  0  0  0  0
  161.9890  210.2900  153.4780 C   0  0  0  0  0  3  0  0  0  0  0  0
  158.7650  211.7400  152.4270 C   0  0  0  0  0  1  0  0  0  0  0  0
  160.1220  210.5930  157.0910 S   0  0  0  0  0  1  0  0  0  0  0  0
  161.8280  210.3930  154.9680 C   0  0  0  0  0  2  0  0  0  0  0  0
  159.5690  210.7390  153.2390 C   0  0  1  0  0  3  0  0  0  0  0  0
  160.9620  210.5180  152.6440 C   0  0  0  0  0  0  0  0  0  0  0  0
  159.6250  211.2040  154.5720 O   0  0  0  0  0  0  0  0  0  0  0  0
  1  9  1  6  0  0  0
  1  6  1  0  0  0  0
  2 13  1  0  0  0  0
  2  5  1  0  0  0  0
  3  2  2  0  0  0  0
  4  7  1  0  0  0  0
  5 16  1  0  0  0  0
  6 17  1  0  0  0  0
  7  3  1  0  0  0  0
  8 21  1  6  0  0  0
  8 12  1  0  0  0  0
 10 18  1  0  0  0  0
 11  4  2  0  0  0  0
 13  8  1  0  0  0  0
 14  5  1  0  0  0  0
 14  1  1  0  0  0  0
 15 20  2  0  0  0  0
 15 11  1  0  0  0  0
 16 12  1  0  0  0  0
 16 17  1  1  0  0  0
 18 13  2  0  0  0  0
 19 10  2  0  0  0  0
 19  3  1  0  0  0  0
 20 19  1  0  0  0  0
 21 23  1  0  0  0  0
 23 22  1  1  0  0  0
 23 30  1  0  0  0  0
 24 27  1  1  0  0  0
 25 28  1  0  0  0  0
 28 24  1  0  0  0  0
 29 26  1  6  0  0  0
 29 31  1  0  0  0  0
 30 29  1  0  0  0  0
 30 25  2  0  0  0  0
 31 24  1  0  0  0  0
M  END
>  <MODEL>
3

>  <REMARK>
 VINA RESULT:      -8.8      1.721      2.724
  Name = 
  3 active torsions:
  status: ('A' for Active; 'I' for Inactive)
    1  A    between atoms: C_9  and  C_22
    2  A    between atoms: C_9  and  C_23
    3  A    between atoms: C_15  and  C_23
                            x       y       z     vdW  Elec       q    Type
                         _______ _______ _______ _____ _____    ______ ____

>  <TORSDO>
F 3

$$$$
=
 OpenBabel11052422413D

 31 35  0  0  1  0  0  0  0  0999 V2000
  162.1170  207.1710  147.6020 C   0  0  2  0  0  3  0  0  0  0  0  0
  161.2470  205.0450  150.6010 C   0  0  0  0  0  0  0  0  0  0  0  0
  160.9290  203.7850  150.0460 C   0  0  0  0  0  0  0  0  0  0  0  0
  161.7360  202.6050  148.0310 C   0  0  0  0  0  3  0  0  0  0  0  0
  161.6570  206.1910  149.8190 N   0  0  0  0  0  0  0  0  0  0  0  0
  162.3340  208.5190  148.2910 C   0  0  0  0  0  2  0  0  0  0  0  0
  160.7770  203.6120  148.5660 C   0  0  0  0  0  2  0  0  0  0  0  0
  161.4210  206.5750  152.5520 C   0  0  2  0  0  3  0  0  0  0  0  0
  160.7150  207.0690  147.0240 C   0  0  0  0  0  1  0  0  0  0  0  0
  160.5400  202.9600  152.2540 N   0  0  0  0  0  0  0  0  0  0  0  0
  161.6950  201.3190  148.3720 C   0  0  0  0  0  3  0  0  0  0  0  0
  160.9920  207.5610  151.6430 O   0  0  0  0  0  0  0  0  0  0  0  0
  161.1220  205.2150  151.9830 C   0  0  0  0  0  0  0  0  0  0  0  0
  162.3940  206.0180  148.5650 C   0  0  0  0  0  2  0  0  0  0  0  0
  160.7720  200.7400  149.3670 C   0  0  0  0  0  3  0  0  0  0  0  0
  161.8310  207.4810  150.5140 C   0  0  2  0  0  3  0  0  0  0  0  0
  161.5060  208.6320  149.5700 C   0  0  0  0  0  2  0  0  0  0  0  0
  160.7910  204.1610  152.7720 N   0  0  0  0  0  0  0  0  0  0  0  0
  160.6020  202.7240  150.9170 C   0  0  0  0  0  0  0  0  0  0  0  0
  160.2970  201.3520  150.4590 C   0  0  0  0  0  3  0  0  0  0  0  0
  160.7280  206.7860  153.8970 C   0  0  0  0  0  2  0  0  0  0  0  0
  161.6960  207.4820  156.1440 C   0  0  0  0  0  1  0  0  0  0  0  0
  161.3560  207.9100  154.7230 C   0  0  2  0  0  3  0  0  0  0  0  0
  158.7560  211.1810  154.0280 C   0  0  2  0  0  3  0  0  0  0  0  0
  159.6540  209.4490  155.5370 C   0  0  0  0  0  3  0  0  0  0  0  0
  162.0930  210.3430  152.9190 C   0  0  0  0  0  1  0  0  0  0  0  0
  157.8480  212.7490  153.9640 S   0  0  0  0  0  1  0  0  0  0  0  0
  158.7600  210.6540  155.4580 C   0  0  0  0  0  2  0  0  0  0  0  0
  160.6640  210.1230  153.3820 C   0  0  1  0  0  3  0  0  0  0  0  0
  160.6020  209.2160  154.6140 C   0  0  0  0  0  0  0  0  0  0  0  0
  160.0830  211.3890  153.6200 O   0  0  0  0  0  0  0  0  0  0  0  0
  1  9  1  1  0  0  0
  1  6  1  0  0  0  0
  1 14  1  0  0  0  0
  2 13  1  0  0  0  0
  3  2  2  0  0  0  0
  3 19  1  0  0  0  0
  4 11  2  0  0  0  0
  4  7  1  0  0  0  0
  5 16  1  0  0  0  0
  5  2  1  0  0  0  0
  6 17  1  0  0  0  0
  7  3  1  0  0  0  0
  8 21  1  1  0  0  0
 10 18  1  0  0  0  0
 11 15  1  0  0  0  0
 12  8  1  0  0  0  0
 13  8  1  0  0  0  0
 13 18  2  0  0  0  0
 14  5  1  0  0  0  0
 15 20  2  0  0  0  0
 16 17  1  6  0  0  0
 16 12  1  0  0  0  0
 19 10  2  0  0  0  0
 20 19  1  0  0  0  0
 21 23  1  0  0  0  0
 23 22  1  1  0  0  0
 24 27  1  1  0  0  0
 24 28  1  0  0  0  0
 28 25  1  0  0  0  0
 29 26  1  1  0  0  0
 29 31  1  0  0  0  0
 29 30  1  0  0  0  0
 30 23  1  0  0  0  0
 30 25  2  0  0  0  0
 31 24  1  0  0  0  0
M  END
>  <MODEL>
4

>  <REMARK>
 VINA RESULT:      -8.5      1.854      4.437
  Name = 
  3 active torsions:
  status: ('A' for Active; 'I' for Inactive)
    1  A    between atoms: C_9  and  C_22
    2  A    between atoms: C_9  and  C_23
    3  A    between atoms: C_15  and  C_23
                            x       y       z     vdW  Elec       q    Type
                         _______ _______ _______ _____ _____    ______ ____

>  <TORSDO>
F 3

$$$$
=
 OpenBabel11052422413D

 31 35  0  0  1  0  0  0  0  0999 V2000
  162.3310  208.9650  148.6360 C   0  0  2  0  0  3  0  0  0  0  0  0
  161.3580  206.1560  150.9670 C   0  0  0  0  0  0  0  0  0  0  0  0
  161.0470  205.0850  150.1000 C   0  0  0  0  0  0  0  0  0  0  0  0
  161.9020  204.4470  147.8730 C   0  0  0  0  0  3  0  0  0  0  0  0
  161.7990  207.4590  150.5150 N   0  0  0  0  0  0  0  0  0  0  0  0
  162.5390  210.0890  149.6520 C   0  0  0  0  0  2  0  0  0  0  0  0
  160.9360  205.2990  148.6230 C   0  0  0  0  0  2  0  0  0  0  0  0
  161.4870  207.1350  153.2480 C   0  0  2  0  0  3  0  0  0  0  0  0
  160.9460  209.0350  148.0150 C   0  0  0  0  0  1  0  0  0  0  0  0
  160.5870  203.7300  152.0130 N   0  0  0  0  0  0  0  0  0  0  0  0
  161.8410  203.1170  147.8720 C   0  0  0  0  0  3  0  0  0  0  0  0
  161.0930  208.3270  152.6110 O   0  0  0  0  0  0  0  0  0  0  0  0
  161.1940  205.9700  152.3430 C   0  0  0  0  0  0  0  0  0  0  0  0
  162.5710  207.6000  149.2790 C   0  0  0  0  0  2  0  0  0  0  0  0
  160.8850  202.3180  148.6620 C   0  0  0  0  0  3  0  0  0  0  0  0
  161.9630  208.5250  151.5220 C   0  0  2  0  0  3  0  0  0  0  0  0
  161.6750  209.8840  150.8950 C   0  0  0  0  0  2  0  0  0  0  0  0
  160.8330  204.7540  152.8280 N   0  0  0  0  0  0  0  0  0  0  0  0
  160.6850  203.8420  150.6620 C   0  0  0  0  0  0  0  0  0  0  0  0
  160.3840  202.6370  149.8610 C   0  0  0  0  0  3  0  0  0  0  0  0
  160.7570  207.0060  154.5840 C   0  0  0  0  0  2  0  0  0  0  0  0
  161.2060  207.4320  157.0520 C   0  0  0  0  0  1  0  0  0  0  0  0
  161.2590  207.9950  155.6380 C   0  0  2  0  0  3  0  0  0  0  0  0
  159.5710  211.7020  154.4800 C   0  0  2  0  0  3  0  0  0  0  0  0
  159.3310  209.4750  155.5100 C   0  0  0  0  0  3  0  0  0  0  0  0
  162.7990  210.7020  155.7650 C   0  0  0  0  0  1  0  0  0  0  0  0
  158.8150  213.3440  154.3310 S   0  0  0  0  0  1  0  0  0  0  0  0
  158.6320  210.7770  155.2420 C   0  0  0  0  0  2  0  0  0  0  0  0
  161.4830  210.5910  155.0160 C   0  0  1  0  0  3  0  0  0  0  0  0
  160.6700  209.3780  155.4800 C   0  0  0  0  0  0  0  0  0  0  0  0
  160.7780  211.8040  155.1890 O   0  0  0  0  0  0  0  0  0  0  0  0
  1  9  1  1  0  0  0
  1 14  1  0  0  0  0
  1  6  1  0  0  0  0
  2 13  1  0  0  0  0
  3 19  1  0  0  0  0
  3  2  2  0  0  0  0
  4  7  1  0  0  0  0
  5  2  1  0  0  0  0
  5 16  1  0  0  0  0
  6 17  1  0  0  0  0
  7  3  1  0  0  0  0
  8 21  1  1  0  0  0
 10 18  1  0  0  0  0
 11  4  2  0  0  0  0
 11 15  1  0  0  0  0
 12  8  1  0  0  0  0
 13 18  2  0  0  0  0
 13  8  1  0  0  0  0
 14  5  1  0  0  0  0
 15 20  2  0  0  0  0
 16 17  1  6  0  0  0
 16 12  1  0  0  0  0
 19 10  2  0  0  0  0
 20 19  1  0  0  0  0
 21 23  1  0  0  0  0
 23 22  1  1  0  0  0
 24 27  1  1  0  0  0
 24 31  1  0  0  0  0
 24 28  1  0  0  0  0
 28 25  1  0  0  0  0
 29 31  1  0  0  0  0
 29 30  1  0  0  0  0
 29 26  1  1  0  0  0
 30 25  2  0  0  0  0
 30 23  1  0  0  0  0
M  END
>  <MODEL>
5

>  <REMARK>
 VINA RESULT:      -8.4      2.068      4.748
  Name = 
  3 active torsions:
  status: ('A' for Active; 'I' for Inactive)
    1  A    between atoms: C_9  and  C_22
    2  A    between atoms: C_9  and  C_23
    3  A    between atoms: C_15  and  C_23
                            x       y       z     vdW  Elec       q    Type
                         _______ _______ _______ _____ _____    ______ ____

>  <TORSDO>
F 3

$$$$
=
 OpenBabel11052422413D

 31 35  0  0  1  0  0  0  0  0999 V2000
  159.3540  211.7560  154.6060 C   0  0  2  0  0  3  0  0  0  0  0  0
  161.1080  210.5030  151.5030 C   0  0  0  0  0  0  0  0  0  0  0  0
  160.8740  211.5150  150.5460 C   0  0  0  0  0  0  0  0  0  0  0  0
  160.5670  213.9580  150.7510 C   0  0  0  0  0  3  0  0  0  0  0  0
  160.6260  210.5540  152.8680 N   0  0  0  0  0  0  0  0  0  0  0  0
  159.5700  210.5570  155.5310 C   0  0  0  0  0  2  0  0  0  0  0  0
  159.9060  212.6240  150.8200 C   0  0  0  0  0  2  0  0  0  0  0  0
  162.0120  208.2730  152.1270 C   0  0  2  0  0  3  0  0  0  0  0  0
  157.9850  211.7020  153.9480 C   0  0  0  0  0  1  0  0  0  0  0  0
  162.1530  210.2570  148.9690 N   0  0  0  0  0  0  0  0  0  0  0  0
  161.0920  214.4440  149.6290 C   0  0  0  0  0  3  0  0  0  0  0  0
  160.8720  208.1930  152.9490 O   0  0  0  0  0  0  0  0  0  0  0  0
  161.8110  209.3610  151.1080 C   0  0  0  0  0  0  0  0  0  0  0  0
  160.4590  211.8370  153.5540 C   0  0  0  0  0  2  0  0  0  0  0  0
  161.1680  213.7150  148.3490 C   0  0  0  0  0  3  0  0  0  0  0  0
  160.8310  209.3700  153.7220 C   0  0  2  0  0  3  0  0  0  0  0  0
  159.7020  209.2580  154.7390 C   0  0  0  0  0  2  0  0  0  0  0  0
  162.3310  209.2800  149.8570 N   0  0  0  0  0  0  0  0  0  0  0  0
  161.4480  211.3810  149.2640 C   0  0  0  0  0  0  0  0  0  0  0  0
  161.3140  212.3940  148.1960 C   0  0  0  0  0  3  0  0  0  0  0  0
  162.2580  206.9190  151.4630 C   0  0  0  0  0  2  0  0  0  0  0  0
  161.2070  205.2940  153.1140 C   0  0  0  0  0  1  0  0  0  0  0  0
  161.1360  205.9120  151.7250 C   0  0  2  0  0  3  0  0  0  0  0  0
  161.3580  203.0800  148.5830 C   0  0  2  0  0  3  0  0  0  0  0  0
  160.8530  203.6280  150.9340 C   0  0  0  0  0  3  0  0  0  0  0  0
  160.4570  206.5770  148.7570 C   0  0  0  0  0  1  0  0  0  0  0  0
  161.1010  201.8570  147.2690 S   0  0  0  0  0  1  0  0  0  0  0  0
  160.7910  202.5470  149.8930 C   0  0  0  0  0  2  0  0  0  0  0  0
  161.1610  205.2820  149.1220 C   0  0  1  0  0  3  0  0  0  0  0  0
  160.9540  204.9230  150.5960 C   0  0  0  0  0  0  0  0  0  0  0  0
  160.6900  204.2700  148.2550 O   0  0  0  0  0  0  0  0  0  0  0  0
  1  9  1  6  0  0  0
  1  6  1  0  0  0  0
  2  5  1  0  0  0  0
  3  7  1  0  0  0  0
  3  2  2  0  0  0  0
  4  7  1  0  0  0  0
  5 14  1  0  0  0  0
  5 16  1  0  0  0  0
  8 21  1  6  0  0  0
  8 12  1  0  0  0  0
 10 19  2  0  0  0  0
 10 18  1  0  0  0  0
 11  4  2  0  0  0  0
 12 16  1  0  0  0  0
 13  2  1  0  0  0  0
 13  8  1  0  0  0  0
 14  1  1  0  0  0  0
 15 11  1  0  0  0  0
 16 17  1  1  0  0  0
 17  6  1  0  0  0  0
 18 13  2  0  0  0  0
 19  3  1  0  0  0  0
 20 15  2  0  0  0  0
 20 19  1  0  0  0  0
 21 23  1  0  0  0  0
 23 22  1  1  0  0  0
 24 27  1  6  0  0  0
 24 28  1  0  0  0  0
 28 25  1  0  0  0  0
 29 26  1  6  0  0  0
 29 30  1  0  0  0  0
 30 25  2  0  0  0  0
 30 23  1  0  0  0  0
 31 24  1  0  0  0  0
 31 29  1  0  0  0  0
M  END
>  <MODEL>
6

>  <REMARK>
 VINA RESULT:      -8.2      3.531      7.979
  Name = 
  3 active torsions:
  status: ('A' for Active; 'I' for Inactive)
    1  A    between atoms: C_9  and  C_22
    2  A    between atoms: C_9  and  C_23
    3  A    between atoms: C_15  and  C_23
                            x       y       z     vdW  Elec       q    Type
                         _______ _______ _______ _____ _____    ______ ____

>  <TORSDO>
F 3

$$$$
=
 OpenBabel11052422413D

 31 35  0  0  1  0  0  0  0  0999 V2000
  162.0560  206.8380  147.3150 C   0  0  2  0  0  3  0  0  0  0  0  0
  161.2400  204.9810  150.5020 C   0  0  0  0  0  0  0  0  0  0  0  0
  160.8910  203.6840  150.0610 C   0  0  0  0  0  0  0  0  0  0  0  0
  161.6280  202.3290  148.1320 C   0  0  0  0  0  3  0  0  0  0  0  0
  161.6430  206.0530  149.6160 N   0  0  0  0  0  0  0  0  0  0  0  0
  162.3100  208.2360  147.8840 C   0  0  0  0  0  2  0  0  0  0  0  0
  160.6970  203.3920  148.6060 C   0  0  0  0  0  2  0  0  0  0  0  0
  161.4860  206.6640  152.3130 C   0  0  2  0  0  3  0  0  0  0  0  0
  160.6380  206.7090  146.7840 C   0  0  0  0  0  1  0  0  0  0  0  0
  160.5510  203.0510  152.3390 N   0  0  0  0  0  0  0  0  0  0  0  0
  161.5790  201.0770  148.5800 C   0  0  0  0  0  3  0  0  0  0  0  0
  161.0460  207.5780  151.3370 O   0  0  0  0  0  0  0  0  0  0  0  0
  161.1550  205.2670  151.8670 C   0  0  0  0  0  0  0  0  0  0  0  0
  162.3440  205.7640  148.3630 C   0  0  0  0  0  2  0  0  0  0  0  0
  160.6770  200.5970  149.6420 C   0  0  0  0  0  3  0  0  0  0  0  0
  161.8530  207.3920  150.1970 C   0  0  2  0  0  3  0  0  0  0  0  0
  161.5170  208.4660  149.1690 C   0  0  0  0  0  2  0  0  0  0  0  0
  160.8320  204.2870  152.7500 N   0  0  0  0  0  0  0  0  0  0  0  0
  160.5730  202.7040  151.0260 C   0  0  0  0  0  0  0  0  0  0  0  0
  160.2390  201.3030  150.6910 C   0  0  0  0  0  3  0  0  0  0  0  0
  160.8320  206.9970  153.6530 C   0  0  0  0  0  2  0  0  0  0  0  0
  161.7380  208.0970  155.7610 C   0  0  0  0  0  1  0  0  0  0  0  0
  161.3880  208.2720  154.2900 C   0  0  2  0  0  3  0  0  0  0  0  0
  159.6610  212.0860  153.6480 C   0  0  2  0  0  3  0  0  0  0  0  0
  160.7390  210.0530  152.7630 C   0  0  0  0  0  3  0  0  0  0  0  0
  158.9640  209.3610  155.9200 C   0  0  0  0  0  1  0  0  0  0  0  0
  158.6690  213.5380  153.2050 S   0  0  0  0  0  1  0  0  0  0  0  0
  160.0660  211.3410  152.3830 C   0  0  0  0  0  2  0  0  0  0  0  0
  159.7800  210.2830  155.0310 C   0  0  1  0  0  3  0  0  0  0  0  0
  160.5630  209.4990  153.9730 C   0  0  0  0  0  0  0  0  0  0  0  0
  158.8990  211.2250  154.4530 O   0  0  0  0  0  0  0  0  0  0  0  0
  1  9  1  1  0  0  0
  1  6  1  0  0  0  0
  1 14  1  0  0  0  0
  2 13  1  0  0  0  0
  3  2  2  0  0  0  0
  3 19  1  0  0  0  0
  4 11  2  0  0  0  0
  4  7  1  0  0  0  0
  5 16  1  0  0  0  0
  5  2  1  0  0  0  0
  6 17  1  0  0  0  0
  7  3  1  0  0  0  0
  8 21  1  1  0  0  0
 10 18  1  0  0  0  0
 11 15  1  0  0  0  0
 12  8  1  0  0  0  0
 13  8  1  0  0  0  0
 13 18  2  0  0  0  0
 14  5  1  0  0  0  0
 15 20  2  0  0  0  0
 16 17  1  6  0  0  0
 16 12  1  0  0  0  0
 19 10  2  0  0  0  0
 20 19  1  0  0  0  0
 21 23  1  0  0  0  0
 23 22  1  1  0  0  0
 24 27  1  6  0  0  0
 24 31  1  0  0  0  0
 25 30  2  0  0  0  0
 28 25  1  0  0  0  0
 28 24  1  0  0  0  0
 29 26  1  6  0  0  0
 30 23  1  0  0  0  0
 30 29  1  0  0  0  0
 31 29  1  0  0  0  0
M  END
>  <MODEL>
7

>  <REMARK>
 VINA RESULT:      -7.7      1.766      4.299
  Name = 
  3 active torsions:
  status: ('A' for Active; 'I' for Inactive)
    1  A    between atoms: C_9  and  C_22
    2  A    between atoms: C_9  and  C_23
    3  A    between atoms: C_15  and  C_23
                            x       y       z     vdW  Elec       q    Type
                         _______ _______ _______ _____ _____    ______ ____

>  <TORSDO>
F 3

$$$$
=
 OpenBabel11052422413D

 31 35  0  0  1  0  0  0  0  0999 V2000
  161.2100  204.3180  144.5400 C   0  0  2  0  0  3  0  0  0  0  0  0
  161.0490  204.3950  148.3130 C   0  0  0  0  0  0  0  0  0  0  0  0
  160.8010  203.0520  148.6720 C   0  0  0  0  0  0  0  0  0  0  0  0
  161.4290  200.9060  147.6210 C   0  0  0  0  0  3  0  0  0  0  0  0
  161.2020  204.8510  146.9480 N   0  0  0  0  0  0  0  0  0  0  0  0
  161.3700  205.8120  144.2540 C   0  0  0  0  0  2  0  0  0  0  0  0
  160.4510  202.0310  147.6350 C   0  0  0  0  0  2  0  0  0  0  0  0
  161.3350  206.7880  148.9240 C   0  0  2  0  0  3  0  0  0  0  0  0
  159.7590  203.8860  144.4090 C   0  0  0  0  0  1  0  0  0  0  0  0
  160.8440  203.7050  150.9690 N   0  0  0  0  0  0  0  0  0  0  0  0
  161.5880  200.0770  148.6500 C   0  0  0  0  0  3  0  0  0  0  0  0
  160.6640  207.0360  147.7110 O   0  0  0  0  0  0  0  0  0  0  0  0
  161.1140  205.3550  149.3270 C   0  0  0  0  0  0  0  0  0  0  0  0
  161.7590  203.9670  145.9210 C   0  0  0  0  0  2  0  0  0  0  0  0
  160.8980  200.2020  149.9470 C   0  0  0  0  0  3  0  0  0  0  0  0
  161.3280  206.3020  146.7090 C   0  0  2  0  0  3  0  0  0  0  0  0
  160.7340  206.6610  145.3530 C   0  0  0  0  0  2  0  0  0  0  0  0
  161.0290  204.9790  150.6290 N   0  0  0  0  0  0  0  0  0  0  0  0
  160.7320  202.7180  150.0420 C   0  0  0  0  0  0  0  0  0  0  0  0
  160.5240  201.3420  150.5400 C   0  0  0  0  0  3  0  0  0  0  0  0
  160.8310  207.7570  149.9920 C   0  0  0  0  0  2  0  0  0  0  0  0
  163.0750  207.3190  151.1070 C   0  0  0  0  0  1  0  0  0  0  0  0
  161.9530  208.3190  150.8670 C   0  0  2  0  0  3  0  0  0  0  0  0
  161.2330  210.4040  154.4830 C   0  0  2  0  0  3  0  0  0  0  0  0
  161.2220  210.3350  152.0180 C   0  0  0  0  0  3  0  0  0  0  0  0
  160.8700  206.9570  153.4540 C   0  0  0  0  0  1  0  0  0  0  0  0
  160.5850  211.2780  155.9340 S   0  0  0  0  0  1  0  0  0  0  0  0
  160.8310  211.1510  153.2180 C   0  0  0  0  0  2  0  0  0  0  0  0
  161.4390  208.3640  153.4960 C   0  0  1  0  0  3  0  0  0  0  0  0
  161.4420  209.0140  152.1090 C   0  0  0  0  0  0  0  0  0  0  0  0
  160.6900  209.1100  154.4340 O   0  0  0  0  0  0  0  0  0  0  0  0
  1  9  1  1  0  0  0
  1 14  1  0  0  0  0
  2  3  2  0  0  0  0
  2 13  1  0  0  0  0
  3 19  1  0  0  0  0
  4  7  1  0  0  0  0
  4 11  2  0  0  0  0
  5  2  1  0  0  0  0
  6  1  1  0  0  0  0
  6 17  1  0  0  0  0
  7  3  1  0  0  0  0
  8 13  1  0  0  0  0
  8 21  1  1  0  0  0
 11 15  1  0  0  0  0
 12  8  1  0  0  0  0
 13 18  2  0  0  0  0
 14  5  1  0  0  0  0
 15 20  2  0  0  0  0
 16 17  1  6  0  0  0
 16  5  1  0  0  0  0
 16 12  1  0  0  0  0
 18 10  1  0  0  0  0
 19 20  1  0  0  0  0
 19 10  2  0  0  0  0
 21 23  1  0  0  0  0
 23 22  1  1  0  0  0
 23 30  1  0  0  0  0
 24 27  1  1  0  0  0
 25 30  2  0  0  0  0
 25 28  1  0  0  0  0
 28 24  1  0  0  0  0
 29 26  1  6  0  0  0
 29 31  1  0  0  0  0
 30 29  1  0  0  0  0
 31 24  1  0  0  0  0
M  END
>  <MODEL>
8

>  <REMARK>
 VINA RESULT:      -7.6      1.544      4.190
  Name = 
  3 active torsions:
  status: ('A' for Active; 'I' for Inactive)
    1  A    between atoms: C_9  and  C_22
    2  A    between atoms: C_9  and  C_23
    3  A    between atoms: C_15  and  C_23
                            x       y       z     vdW  Elec       q    Type
                         _______ _______ _______ _____ _____    ______ ____

>  <TORSDO>
F 3

$$$$
=
 OpenBabel11052422413D

 31 35  0  0  1  0  0  0  0  0999 V2000
  160.3130  201.3070  149.6180 C   0  0  2  0  0  3  0  0  0  0  0  0
  161.5150  204.7360  148.5820 C   0  0  0  0  0  0  0  0  0  0  0  0
  161.6460  204.6420  147.1790 C   0  0  0  0  0  0  0  0  0  0  0  0
  160.4360  203.3180  145.4800 C   0  0  0  0  0  3  0  0  0  0  0  0
  161.0630  203.6490  149.4250 N   0  0  0  0  0  0  0  0  0  0  0  0
  160.3090  201.4790  151.1380 C   0  0  0  0  0  2  0  0  0  0  0  0
  161.5390  203.3210  146.4830 C   0  0  0  0  0  2  0  0  0  0  0  0
  161.7750  205.9990  150.7070 C   0  0  2  0  0  3  0  0  0  0  0  0
  161.5890  200.6310  149.1450 C   0  0  0  0  0  1  0  0  0  0  0  0
  162.3360  206.9290  147.1360 N   0  0  0  0  0  0  0  0  0  0  0  0
  160.4420  204.0970  144.4000 C   0  0  0  0  0  3  0  0  0  0  0  0
  162.1150  204.7460  151.2510 O   0  0  0  0  0  0  0  0  0  0  0  0
  161.8780  205.9320  149.2080 C   0  0  0  0  0  0  0  0  0  0  0  0
  160.1180  202.6510  148.9180 C   0  0  0  0  0  2  0  0  0  0  0  0
  161.4730  205.1060  144.0950 C   0  0  0  0  0  3  0  0  0  0  0  0
  161.0980  203.8430  150.8870 C   0  0  2  0  0  3  0  0  0  0  0  0
  161.3430  202.5100  151.5850 C   0  0  0  0  0  2  0  0  0  0  0  0
  162.2590  207.0010  148.4640 N   0  0  0  0  0  0  0  0  0  0  0  0
  162.0380  205.7900  146.4570 C   0  0  0  0  0  0  0  0  0  0  0  0
  162.1640  205.8290  144.9850 C   0  0  0  0  0  3  0  0  0  0  0  0
  162.6940  207.0730  151.2860 C   0  0  0  0  0  2  0  0  0  0  0  0
  160.7800  207.5550  152.8920 C   0  0  0  0  0  1  0  0  0  0  0  0
  161.9410  208.1320  152.0950 C   0  0  2  0  0  3  0  0  0  0  0  0
  161.6950  211.8080  150.0050 C   0  0  2  0  0  3  0  0  0  0  0  0
  161.9560  209.3550  149.9910 C   0  0  0  0  0  3  0  0  0  0  0  0
  160.0940  210.4880  152.9660 C   0  0  0  0  0  1  0  0  0  0  0  0
  161.2860  213.2500  148.9840 S   0  0  0  0  0  1  0  0  0  0  0  0
  161.7870  210.5690  149.1220 C   0  0  0  0  0  2  0  0  0  0  0  0
  161.1750  210.6930  151.9190 C   0  0  1  0  0  3  0  0  0  0  0  0
  161.6100  209.3670  151.2880 C   0  0  0  0  0  0  0  0  0  0  0  0
  160.6850  211.6060  150.9590 O   0  0  0  0  0  0  0  0  0  0  0  0
  1  9  1  6  0  0  0
  1  6  1  0  0  0  0
  2 13  1  0  0  0  0
  2  5  1  0  0  0  0
  3  2  2  0  0  0  0
  4  7  1  0  0  0  0
  5 16  1  0  0  0  0
  6 17  1  0  0  0  0
  7  3  1  0  0  0  0
  8 12  1  0  0  0  0
  8 21  1  1  0  0  0
 10 18  1  0  0  0  0
 11  4  2  0  0  0  0
 13  8  1  0  0  0  0
 14  5  1  0  0  0  0
 14  1  1  0  0  0  0
 15 11  1  0  0  0  0
 15 20  2  0  0  0  0
 16 12  1  0  0  0  0
 16 17  1  1  0  0  0
 18 13  2  0  0  0  0
 19 10  2  0  0  0  0
 19  3  1  0  0  0  0
 20 19  1  0  0  0  0
 21 23  1  0  0  0  0
 23 22  1  6  0  0  0
 24 27  1  6  0  0  0
 24 31  1  0  0  0  0
 25 30  2  0  0  0  0
 28 25  1  0  0  0  0
 28 24  1  0  0  0  0
 29 26  1  1  0  0  0
 30 29  1  0  0  0  0
 30 23  1  0  0  0  0
 31 29  1  0  0  0  0
M  END
>  <MODEL>
9

>  <REMARK>
 VINA RESULT:      -7.4      1.735      2.089
  Name = 
  3 active torsions:
  status: ('A' for Active; 'I' for Inactive)
    1  A    between atoms: C_9  and  C_22
    2  A    between atoms: C_9  and  C_23
    3  A    between atoms: C_15  and  C_23
                            x       y       z     vdW  Elec       q    Type
                         _______ _______ _______ _____ _____    ______ ____

>  <TORSDO>
F 3

$$$$
