=
 OpenBabel11062408083D

 34 39  0  0  1  0  0  0  0  0999 V2000
  160.8790  207.5070  154.5030 C   0  0  0  0  0  0  0  0  0  0  0  0
  161.3020  209.7910  154.2090 C   0  0  2  0  0  3  0  0  0  0  0  0
  161.2810  208.1080  152.1690 C   0  0  0  0  0  0  0  0  0  0  0  0
  161.6710  208.5740  149.8030 C   0  0  1  0  0  3  0  0  0  0  0  0
  160.7260  208.0580  155.8710 C   0  0  1  0  0  3  0  0  0  0  0  0
  160.9960  209.5520  155.6990 C   0  0  2  0  0  3  0  0  0  0  0  0
  161.2920  210.5250  151.4180 C   0  0  0  0  0  3  0  0  0  0  0  0
  161.1590  208.4570  153.5470 C   0  0  0  0  0  0  0  0  0  0  0  0
  161.8240  211.3730  150.2950 C   0  0  0  0  0  3  0  0  0  0  0  0
  161.9550  209.4300  148.8230 C   0  0  0  0  0  3  0  0  0  0  0  0
  159.5780  209.0550  155.9170 C   0  0  0  0  0  2  0  0  0  0  0  0
  161.1940  206.7100  151.8330 C   0  0  0  0  0  0  0  0  0  0  0  0
  160.7900  206.1620  154.1870 C   0  0  0  0  0  3  0  0  0  0  0  0
  162.7420  210.2680  154.1100 C   0  0  0  0  0  1  0  0  0  0  0  0
  161.5980  207.2140  149.5330 O   0  0  0  0  0  0  0  0  0  0  0  0
  161.3320  206.2840  150.5440 C   0  0  0  0  0  0  0  0  0  0  0  0
  162.0800  210.8730  149.0830 C   0  0  0  0  0  0  0  0  0  0  0  0
  161.4580  209.0370  151.1890 C   0  0  0  0  0  0  0  0  0  0  0  0
  160.9600  205.7730  152.8620 C   0  0  0  0  0  3  0  0  0  0  0  0
  161.1740  203.2440  148.3000 C   0  0  0  0  0  0  0  0  0  0  0  0
  160.9370  202.2160  149.2150 C   0  0  0  0  0  3  0  0  0  0  0  0
  161.2290  204.8640  150.1150 C   0  0  0  0  0  0  0  0  0  0  0  0
  160.8310  202.5070  150.5780 C   0  0  0  0  0  3  0  0  0  0  0  0
  161.3130  204.5610  148.7480 C   0  0  0  0  0  3  0  0  0  0  0  0
  160.9700  203.8240  151.0240 C   0  0  0  0  0  3  0  0  0  0  0  0
  161.2680  202.9660  146.9780 F   0  0  0  0  0  0  0  0  0  0  0  0
  162.5780  211.7730  148.0080 C   0  0  0  0  0  2  0  0  0  0  0  0
  162.1370  213.2020  148.2770 C   0  0  0  0  0  2  0  0  0  0  0  0
  159.6920  213.5480  147.9310 C   0  0  0  0  0  1  0  0  0  0  0  0
  161.0640  213.6250  147.2850 C   0  0  2  0  0  3  0  0  0  0  0  0
  161.1140  212.8160  145.9840 C   0  0  0  0  0  2  0  0  0  0  0  0
  163.1110  213.1500  144.5170 O   0  0  0  0  0  1  0  0  0  0  0  0
  161.8230  213.5270  144.8750 C   0  0  0  0  0  0  0  0  0  0  0  0
  161.2440  214.4530  144.2490 O   0  0  0  0  0  0  0  0  0  0  0  0
  1  5  1  0  0  0  0
  2 14  1  1  0  0  0
  2  6  1  0  0  0  0
  3  8  1  0  0  0  0
  4 10  1  1  0  0  0
  4 18  1  0  0  0  0
  5 11  1  6  0  0  0
  6  5  1  0  0  0  0
  6 11  1  6  0  0  0
  8  2  1  0  0  0  0
  8  1  2  0  0  0  0
  9  7  2  0  0  0  0
 10 17  2  0  0  0  0
 12  3  1  0  0  0  0
 12 19  1  0  0  0  0
 13  1  1  0  0  0  0
 15  4  1  0  0  0  0
 15 16  1  0  0  0  0
 16 12  2  0  0  0  0
 17  9  1  0  0  0  0
 18  7  1  0  0  0  0
 18  3  2  0  0  0  0
 19 13  2  0  0  0  0
 20 24  2  0  0  0  0
 20 21  1  0  0  0  0
 21 23  2  0  0  0  0
 22 16  1  0  0  0  0
 22 25  2  0  0  0  0
 23 25  1  0  0  0  0
 24 22  1  0  0  0  0
 26 20  1  0  0  0  0
 27 28  1  0  0  0  0
 27 17  1  0  0  0  0
 30 29  1  1  0  0  0
 30 28  1  0  0  0  0
 31 30  1  0  0  0  0
 32 33  1  0  0  0  0
 33 31  1  0  0  0  0
 34 33  2  0  0  0  0
M  END
>  <MODEL>
1

>  <REMARK>
 VINA RESULT:      -9.4      0.000      0.000
  Name = 
  6 active torsions:
  status: ('A' for Active; 'I' for Inactive)
    1  A    between atoms: C_3  and  C_13
    2  A    between atoms: C_3  and  C_29
    3  A    between atoms: C_12  and  C_28
    4  A    between atoms: C_13  and  C_33
    5  A    between atoms: C_20  and  C_22
    6  A    between atoms: C_22  and  C_33
                            x       y       z     vdW  Elec       q    Type
                         _______ _______ _______ _____ _____    ______ ____

>  <TORSDO>
F 6

$$$$
=
 OpenBabel11062408083D

 34 39  0  0  1  0  0  0  0  0999 V2000
  161.1550  209.8990  155.2550 C   0  0  0  0  0  0  0  0  0  0  0  0
  160.9540  207.6030  155.6640 C   0  0  2  0  0  3  0  0  0  0  0  0
  161.2010  208.5610  153.2110 C   0  0  0  0  0  0  0  0  0  0  0  0
  161.2530  207.3410  151.0950 C   0  0  1  0  0  3  0  0  0  0  0  0
  161.1130  209.8210  156.7350 C   0  0  1  0  0  3  0  0  0  0  0  0
  160.9850  208.3260  157.0220 C   0  0  2  0  0  3  0  0  0  0  0  0
  161.4920  206.0480  153.2920 C   0  0  0  0  0  3  0  0  0  0  0  0
  161.1120  208.6730  154.6300 C   0  0  0  0  0  0  0  0  0  0  0  0
  161.2210  204.8360  152.4440 C   0  0  0  0  0  3  0  0  0  0  0  0
  161.2020  206.1960  150.4170 C   0  0  0  0  0  3  0  0  0  0  0  0
  162.3050  209.0370  157.2610 C   0  0  0  0  0  2  0  0  0  0  0  0
  161.2420  209.7860  152.4540 C   0  0  0  0  0  0  0  0  0  0  0  0
  161.1990  211.0810  154.5340 C   0  0  0  0  0  3  0  0  0  0  0  0
  159.5910  206.9450  155.5270 C   0  0  0  0  0  1  0  0  0  0  0  0
  161.2720  208.5480  150.4110 O   0  0  0  0  0  0  0  0  0  0  0  0
  161.2950  209.7710  151.0910 C   0  0  0  0  0  0  0  0  0  0  0  0
  161.1400  204.9000  151.1120 C   0  0  0  0  0  0  0  0  0  0  0  0
  161.2600  207.3600  152.5720 C   0  0  0  0  0  0  0  0  0  0  0  0
  161.2290  211.0160  153.1440 C   0  0  0  0  0  3  0  0  0  0  0  0
  162.4570  212.1970  148.4320 C   0  0  0  0  0  0  0  0  0  0  0  0
  161.6360  213.3020  148.6650 C   0  0  0  0  0  3  0  0  0  0  0  0
  161.3660  210.9900  150.2420 C   0  0  0  0  0  0  0  0  0  0  0  0
  160.6890  213.2630  149.6910 C   0  0  0  0  0  3  0  0  0  0  0  0
  162.3260  211.0500  149.2210 C   0  0  0  0  0  3  0  0  0  0  0  0
  160.5600  212.1160  150.4790 C   0  0  0  0  0  3  0  0  0  0  0  0
  163.3820  212.2360  147.4430 F   0  0  0  0  0  0  0  0  0  0  0  0
  160.8980  203.6580  150.3300 C   0  0  0  0  0  2  0  0  0  0  0  0
  161.3760  203.8410  148.8990 C   0  0  0  0  0  2  0  0  0  0  0  0
  161.1660  201.3700  148.6340 C   0  0  0  0  0  1  0  0  0  0  0  0
  160.8500  202.7200  148.0140 C   0  0  2  0  0  3  0  0  0  0  0  0
  161.3760  202.8090  146.5770 C   0  0  0  0  0  2  0  0  0  0  0  0
  163.0860  204.6050  146.2590 O   0  0  0  0  0  1  0  0  0  0  0  0
  161.7600  204.1990  146.1760 C   0  0  0  0  0  0  0  0  0  0  0  0
  160.8870  204.9940  145.7420 O   0  0  0  0  0  0  0  0  0  0  0  0
  1  5  1  0  0  0  0
  2 14  1  6  0  0  0
  2  6  1  0  0  0  0
  3  8  1  0  0  0  0
  4 10  1  1  0  0  0
  4 18  1  0  0  0  0
  5  6  1  0  0  0  0
  5 11  1  1  0  0  0
  6 11  1  1  0  0  0
  8  1  2  0  0  0  0
  8  2  1  0  0  0  0
  9  7  2  0  0  0  0
 10 17  2  0  0  0  0
 12 19  1  0  0  0  0
 12  3  1  0  0  0  0
 13  1  1  0  0  0  0
 15 16  1  0  0  0  0
 15  4  1  0  0  0  0
 16 12  2  0  0  0  0
 17  9  1  0  0  0  0
 18  3  2  0  0  0  0
 18  7  1  0  0  0  0
 19 13  2  0  0  0  0
 20 21  2  0  0  0  0
 20 24  1  0  0  0  0
 21 23  1  0  0  0  0
 22 25  1  0  0  0  0
 22 16  1  0  0  0  0
 23 25  2  0  0  0  0
 24 22  2  0  0  0  0
 26 20  1  0  0  0  0
 27 17  1  0  0  0  0
 28 27  1  0  0  0  0
 30 29  1  1  0  0  0
 30 28  1  0  0  0  0
 31 30  1  0  0  0  0
 33 32  1  0  0  0  0
 33 31  1  0  0  0  0
 34 33  2  0  0  0  0
M  END
>  <MODEL>
2

>  <REMARK>
 VINA RESULT:      -9.3      2.877      6.901
  Name = 
  6 active torsions:
  status: ('A' for Active; 'I' for Inactive)
    1  A    between atoms: C_3  and  C_13
    2  A    between atoms: C_3  and  C_29
    3  A    between atoms: C_12  and  C_28
    4  A    between atoms: C_13  and  C_33
    5  A    between atoms: C_20  and  C_22
    6  A    between atoms: C_22  and  C_33
                            x       y       z     vdW  Elec       q    Type
                         _______ _______ _______ _____ _____    ______ ____

>  <TORSDO>
F 6

$$$$
=
 OpenBabel11062408083D

 34 39  0  0  1  0  0  0  0  0999 V2000
  160.9300  207.4380  154.3970 C   0  0  0  0  0  0  0  0  0  0  0  0
  161.3240  209.7320  154.1530 C   0  0  2  0  0  3  0  0  0  0  0  0
  161.2840  208.1010  152.0720 C   0  0  0  0  0  0  0  0  0  0  0  0
  161.6270  208.6310  149.7120 C   0  0  1  0  0  3  0  0  0  0  0  0
  160.7960  207.9520  155.7810 C   0  0  1  0  0  3  0  0  0  0  0  0
  161.0470  209.4530  155.6420 C   0  0  2  0  0  3  0  0  0  0  0  0
  161.2570  210.5360  151.3830 C   0  0  0  0  0  3  0  0  0  0  0  0
  161.1830  208.4140  153.4600 C   0  0  0  0  0  0  0  0  0  0  0  0
  161.7610  211.4180  150.2730 C   0  0  0  0  0  3  0  0  0  0  0  0
  161.8850  209.5150  148.7500 C   0  0  0  0  0  3  0  0  0  0  0  0
  159.6390  208.9350  155.8730 C   0  0  0  0  0  2  0  0  0  0  0  0
  161.2060  206.7110  151.7020 C   0  0  0  0  0  0  0  0  0  0  0  0
  160.8500  206.1000  154.0480 C   0  0  0  0  0  3  0  0  0  0  0  0
  162.7570  210.2270  154.0410 C   0  0  0  0  0  1  0  0  0  0  0  0
  161.5640  207.2780  149.4090 O   0  0  0  0  0  0  0  0  0  0  0  0
  161.3250  206.3200  150.4000 C   0  0  0  0  0  0  0  0  0  0  0  0
  161.9990  210.9520  149.0440 C   0  0  0  0  0  0  0  0  0  0  0  0
  161.4350  209.0570  151.1130 C   0  0  0  0  0  0  0  0  0  0  0  0
  161.0000  205.7460  152.7110 C   0  0  0  0  0  3  0  0  0  0  0  0
  161.2390  203.3290  148.0880 C   0  0  0  0  0  0  0  0  0  0  0  0
  160.9540  202.2840  148.9700 C   0  0  0  0  0  3  0  0  0  0  0  0
  161.2290  204.9100  149.9370 C   0  0  0  0  0  0  0  0  0  0  0  0
  160.7930  202.5470  150.3320 C   0  0  0  0  0  3  0  0  0  0  0  0
  161.3690  204.6350  148.5690 C   0  0  0  0  0  3  0  0  0  0  0  0
  160.9240  203.8530  150.8120 C   0  0  0  0  0  3  0  0  0  0  0  0
  161.3860  203.0780  146.7650 F   0  0  0  0  0  0  0  0  0  0  0  0
  162.4690  211.8840  147.9830 C   0  0  0  0  0  2  0  0  0  0  0  0
  161.5240  213.0700  147.8750 C   0  0  0  0  0  2  0  0  0  0  0  0
  160.5080  212.6270  145.6420 C   0  0  0  0  0  1  0  0  0  0  0  0
  160.2540  212.6740  147.1380 C   0  0  2  0  0  3  0  0  0  0  0  0
  159.0700  213.5880  147.4740 C   0  0  0  0  0  2  0  0  0  0  0  0
  157.0860  212.8290  148.7920 O   0  0  0  0  0  1  0  0  0  0  0  0
  157.7710  212.8530  147.5850 C   0  0  0  0  0  0  0  0  0  0  0  0
  157.2870  212.2750  146.5770 O   0  0  0  0  0  0  0  0  0  0  0  0
  1  5  1  0  0  0  0
  2 14  1  1  0  0  0
  2  6  1  0  0  0  0
  3  8  1  0  0  0  0
  4 10  1  1  0  0  0
  4 18  1  0  0  0  0
  5 11  1  6  0  0  0
  6  5  1  0  0  0  0
  6 11  1  6  0  0  0
  8  2  1  0  0  0  0
  8  1  2  0  0  0  0
  9  7  2  0  0  0  0
 10 17  2  0  0  0  0
 12  3  1  0  0  0  0
 12 19  1  0  0  0  0
 13  1  1  0  0  0  0
 15  4  1  0  0  0  0
 15 16  1  0  0  0  0
 16 12  2  0  0  0  0
 17  9  1  0  0  0  0
 18  7  1  0  0  0  0
 18  3  2  0  0  0  0
 19 13  2  0  0  0  0
 20 24  2  0  0  0  0
 20 21  1  0  0  0  0
 21 23  2  0  0  0  0
 22 16  1  0  0  0  0
 22 25  2  0  0  0  0
 23 25  1  0  0  0  0
 24 22  1  0  0  0  0
 26 20  1  0  0  0  0
 27 17  1  0  0  0  0
 28 27  1  0  0  0  0
 30 29  1  6  0  0  0
 30 31  1  0  0  0  0
 30 28  1  0  0  0  0
 31 33  1  0  0  0  0
 33 32  1  0  0  0  0
 34 33  2  0  0  0  0
M  END
>  <MODEL>
3

>  <REMARK>
 VINA RESULT:      -9.3      1.481      1.889
  Name = 
  6 active torsions:
  status: ('A' for Active; 'I' for Inactive)
    1  A    between atoms: C_3  and  C_13
    2  A    between atoms: C_3  and  C_29
    3  A    between atoms: C_12  and  C_28
    4  A    between atoms: C_13  and  C_33
    5  A    between atoms: C_20  and  C_22
    6  A    between atoms: C_22  and  C_33
                            x       y       z     vdW  Elec       q    Type
                         _______ _______ _______ _____ _____    ______ ____

>  <TORSDO>
F 6

$$$$
=
 OpenBabel11062408083D

 34 39  0  0  1  0  0  0  0  0999 V2000
  160.9240  207.2550  154.1670 C   0  0  0  0  0  0  0  0  0  0  0  0
  161.3500  209.5540  154.0540 C   0  0  2  0  0  3  0  0  0  0  0  0
  161.2980  208.0430  151.8840 C   0  0  0  0  0  0  0  0  0  0  0  0
  161.6600  208.6990  149.5590 C   0  0  1  0  0  3  0  0  0  0  0  0
  160.7900  207.6930  155.5770 C   0  0  1  0  0  3  0  0  0  0  0  0
  161.0620  209.1960  155.5230 C   0  0  2  0  0  3  0  0  0  0  0  0
  161.3070  210.5130  151.3320 C   0  0  0  0  0  3  0  0  0  0  0  0
  161.1940  208.2790  153.2870 C   0  0  0  0  0  0  0  0  0  0  0  0
  161.8280  211.4480  150.2750 C   0  0  0  0  0  3  0  0  0  0  0  0
  161.9340  209.6320  148.6480 C   0  0  0  0  0  3  0  0  0  0  0  0
  159.6460  208.6850  155.7180 C   0  0  0  0  0  2  0  0  0  0  0  0
  161.2020  206.6770  151.4360 C   0  0  0  0  0  0  0  0  0  0  0  0
  160.8270  205.9400  153.7430 C   0  0  0  0  0  3  0  0  0  0  0  0
  162.7900  210.0350  153.9750 C   0  0  0  0  0  1  0  0  0  0  0  0
  161.5790  207.3670  149.1800 O   0  0  0  0  0  0  0  0  0  0  0  0
  161.3220  206.3580  150.1150 C   0  0  0  0  0  0  0  0  0  0  0  0
  162.0670  211.0490  149.0230 C   0  0  0  0  0  0  0  0  0  0  0  0
  161.4660  209.0490  150.9810 C   0  0  0  0  0  0  0  0  0  0  0  0
  160.9780  205.6600  152.3880 C   0  0  0  0  0  3  0  0  0  0  0  0
  160.7910  202.6160  149.9830 C   0  0  0  0  0  0  0  0  0  0  0  0
  161.0810  202.3250  148.6490 C   0  0  0  0  0  3  0  0  0  0  0  0
  161.2090  204.9770  149.5730 C   0  0  0  0  0  0  0  0  0  0  0  0
  161.4470  203.3520  147.7760 C   0  0  0  0  0  3  0  0  0  0  0  0
  160.8620  203.9340  150.4440 C   0  0  0  0  0  3  0  0  0  0  0  0
  161.5170  204.6700  148.2370 C   0  0  0  0  0  3  0  0  0  0  0  0
  160.4440  201.6200  150.8340 F   0  0  0  0  0  0  0  0  0  0  0  0
  162.5540  212.0320  148.0190 C   0  0  0  0  0  2  0  0  0  0  0  0
  161.4380  212.9960  147.6470 C   0  0  0  0  0  2  0  0  0  0  0  0
  161.2460  214.4500  145.6310 C   0  0  0  0  0  1  0  0  0  0  0  0
  161.2340  213.0190  146.1400 C   0  0  2  0  0  3  0  0  0  0  0  0
  159.9600  212.2850  145.7070 C   0  0  0  0  0  2  0  0  0  0  0  0
  158.5530  213.5810  144.0980 O   0  0  0  0  0  0  0  0  0  0  0  0
  158.8210  213.2080  145.4080 C   0  0  0  0  0  0  0  0  0  0  0  0
  158.0900  213.6300  146.3420 O   0  0  0  0  0  1  0  0  0  0  0  0
  1  5  1  0  0  0  0
  2 14  1  1  0  0  0
  2  6  1  0  0  0  0
  3  8  1  0  0  0  0
  4 10  1  1  0  0  0
  4 18  1  0  0  0  0
  5 11  1  6  0  0  0
  6  5  1  0  0  0  0
  6 11  1  6  0  0  0
  8  2  1  0  0  0  0
  8  1  2  0  0  0  0
  9  7  2  0  0  0  0
 10 17  2  0  0  0  0
 12  3  1  0  0  0  0
 12 19  1  0  0  0  0
 13  1  1  0  0  0  0
 15  4  1  0  0  0  0
 15 16  1  0  0  0  0
 16 12  2  0  0  0  0
 17  9  1  0  0  0  0
 18  7  1  0  0  0  0
 18  3  2  0  0  0  0
 19 13  2  0  0  0  0
 20 24  1  0  0  0  0
 20 26  1  0  0  0  0
 21 20  2  0  0  0  0
 22 16  1  0  0  0  0
 22 24  2  0  0  0  0
 23 25  2  0  0  0  0
 23 21  1  0  0  0  0
 25 22  1  0  0  0  0
 27 17  1  0  0  0  0
 28 27  1  0  0  0  0
 30 29  1  1  0  0  0
 30 28  1  0  0  0  0
 31 30  1  0  0  0  0
 32 33  2  0  0  0  0
 33 31  1  0  0  0  0
 33 34  1  0  0  0  0
M  END
>  <MODEL>
4

>  <REMARK>
 VINA RESULT:      -8.5      1.304      1.743
  Name = 
  6 active torsions:
  status: ('A' for Active; 'I' for Inactive)
    1  A    between atoms: C_3  and  C_13
    2  A    between atoms: C_3  and  C_29
    3  A    between atoms: C_12  and  C_28
    4  A    between atoms: C_13  and  C_33
    5  A    between atoms: C_20  and  C_22
    6  A    between atoms: C_22  and  C_33
                            x       y       z     vdW  Elec       q    Type
                         _______ _______ _______ _____ _____    ______ ____

>  <TORSDO>
F 6

$$$$
=
 OpenBabel11062408083D

 34 39  0  0  1  0  0  0  0  0999 V2000
  160.9480  205.4780  152.3290 C   0  0  0  0  0  0  0  0  0  0  0  0
  161.2580  205.6650  150.0160 C   0  0  2  0  0  3  0  0  0  0  0  0
  161.3540  207.7770  151.6050 C   0  0  0  0  0  0  0  0  0  0  0  0
  161.7420  210.1150  151.0130 C   0  0  0  0  0  0  0  0  0  0  0  0
  160.8810  204.0720  151.8650 C   0  0  1  0  0  3  0  0  0  0  0  0
  161.0840  204.1730  150.3540 C   0  0  2  0  0  3  0  0  0  0  0  0
  162.2010  208.2900  149.2760 C   0  0  0  0  0  2  0  0  0  0  0  0
  161.2000  206.3860  151.3260 C   0  0  0  0  0  0  0  0  0  0  0  0
  162.2350  209.4300  148.2950 C   0  0  0  0  0  3  0  0  0  0  0  0
  161.9700  211.0550  150.0980 C   0  0  0  0  0  3  0  0  0  0  0  0
  162.2030  203.6550  151.2400 C   0  0  0  0  0  2  0  0  0  0  0  0
  161.1400  208.2030  152.9650 C   0  0  0  0  0  0  0  0  0  0  0  0
  160.7450  205.8810  153.6390 C   0  0  0  0  0  3  0  0  0  0  0  0
  160.0820  206.0750  149.1440 C   0  0  0  0  0  1  0  0  0  0  0  0
  161.5090  210.4780  152.3320 O   0  0  0  0  0  0  0  0  0  0  0  0
  161.2350  209.5190  153.3140 C   0  0  0  0  0  0  0  0  0  0  0  0
  162.1810  210.7070  148.6830 C   0  0  0  0  0  0  0  0  0  0  0  0
  161.7010  208.6840  150.6500 C   0  0  0  0  0  0  0  0  0  0  0  0
  160.8300  207.2360  153.9440 C   0  0  0  0  0  3  0  0  0  0  0  0
  159.6110  211.0900  156.3460 C   0  0  0  0  0  0  0  0  0  0  0  0
  160.6660  211.1220  157.2610 C   0  0  0  0  0  3  0  0  0  0  0  0
  161.0550  210.0330  154.6980 C   0  0  0  0  0  0  0  0  0  0  0  0
  161.9190  210.6240  156.8960 C   0  0  0  0  0  3  0  0  0  0  0  0
  159.8080  210.5550  155.0700 C   0  0  0  0  0  3  0  0  0  0  0  0
  162.1140  210.0880  155.6200 C   0  0  0  0  0  3  0  0  0  0  0  0
  158.3970  211.5810  156.6940 F   0  0  0  0  0  0  0  0  0  0  0  0
  162.2490  211.7880  147.6630 C   0  0  0  0  0  2  0  0  0  0  0  0
  160.8490  212.1580  147.2010 C   0  0  0  0  0  2  0  0  0  0  0  0
  161.8380  214.3220  147.9460 C   0  0  0  0  0  1  0  0  0  0  0  0
  160.6390  213.6620  147.2870 C   0  0  2  0  0  3  0  0  0  0  0  0
  159.3350  214.0350  148.0010 C   0  0  0  0  0  2  0  0  0  0  0  0
  157.9260  213.5920  145.9840 O   0  0  0  0  0  0  0  0  0  0  0  0
  158.1210  213.4500  147.3510 C   0  0  0  0  0  0  0  0  0  0  0  0
  157.2850  212.8090  148.0400 O   0  0  0  0  0  1  0  0  0  0  0  0
  1 13  1  0  0  0  0
  2 14  1  6  0  0  0
  2  6  1  0  0  0  0
  2  8  1  0  0  0  0
  3 12  1  0  0  0  0
  4 15  1  0  0  0  0
  5 11  1  1  0  0  0
  5  1  1  0  0  0  0
  6 11  1  1  0  0  0
  6  5  1  0  0  0  0
  7 18  1  0  0  0  0
  8  3  1  0  0  0  0
  8  1  2  0  0  0  0
  9 17  2  0  0  0  0
  9  7  1  0  0  0  0
 10  4  2  0  0  0  0
 12 16  2  0  0  0  0
 12 19  1  0  0  0  0
 13 19  2  0  0  0  0
 15 16  1  0  0  0  0
 16 22  1  0  0  0  0
 17 10  1  0  0  0  0
 18  4  1  0  0  0  0
 18  3  2  0  0  0  0
 20 26  1  0  0  0  0
 20 21  1  0  0  0  0
 22 24  1  0  0  0  0
 22 25  2  0  0  0  0
 23 21  2  0  0  0  0
 24 20  2  0  0  0  0
 25 23  1  0  0  0  0
 27 17  1  0  0  0  0
 28 30  1  0  0  0  0
 28 27  1  0  0  0  0
 30 29  1  1  0  0  0
 30 31  1  0  0  0  0
 32 33  2  0  0  0  0
 33 31  1  0  0  0  0
 33 34  1  0  0  0  0
M  END
>  <MODEL>
5

>  <REMARK>
 VINA RESULT:      -8.5      2.895      5.854
  Name = 
  6 active torsions:
  status: ('A' for Active; 'I' for Inactive)
    1  A    between atoms: C_3  and  C_13
    2  A    between atoms: C_3  and  C_29
    3  A    between atoms: C_12  and  C_28
    4  A    between atoms: C_13  and  C_33
    5  A    between atoms: C_20  and  C_22
    6  A    between atoms: C_22  and  C_33
                            x       y       z     vdW  Elec       q    Type
                         _______ _______ _______ _____ _____    ______ ____

>  <TORSDO>
F 6

$$$$
=
 OpenBabel11062408083D

 34 39  0  0  1  0  0  0  0  0999 V2000
  160.8940  204.5270  150.6340 C   0  0  0  0  0  0  0  0  0  0  0  0
  161.2350  205.4850  148.5260 C   0  0  2  0  0  3  0  0  0  0  0  0
  161.3470  206.9260  150.7410 C   0  0  0  0  0  0  0  0  0  0  0  0
  161.7800  209.3170  150.9840 C   0  0  0  0  0  0  0  0  0  0  0  0
  160.8090  203.3650  149.7170 C   0  0  1  0  0  3  0  0  0  0  0  0
  161.0320  203.9710  148.3330 C   0  0  2  0  0  3  0  0  0  0  0  0
  162.2310  208.1860  148.7320 C   0  0  0  0  0  2  0  0  0  0  0  0
  161.1730  205.7170  150.0030 C   0  0  0  0  0  0  0  0  0  0  0  0
  162.2960  209.5910  148.1990 C   0  0  0  0  0  3  0  0  0  0  0  0
  162.0360  210.5080  150.4460 C   0  0  0  0  0  3  0  0  0  0  0  0
  162.1320  203.1590  148.9950 C   0  0  0  0  0  2  0  0  0  0  0  0
  161.1240  206.8670  152.1630 C   0  0  0  0  0  0  0  0  0  0  0  0
  160.6820  204.4620  152.0010 C   0  0  0  0  0  3  0  0  0  0  0  0
  160.0770  206.1910  147.8400 C   0  0  0  0  0  1  0  0  0  0  0  0
  161.5370  209.2130  152.3470 O   0  0  0  0  0  0  0  0  0  0  0  0
  161.2370  207.9820  152.9410 C   0  0  0  0  0  0  0  0  0  0  0  0
  162.2580  210.6600  148.9990 C   0  0  0  0  0  0  0  0  0  0  0  0
  161.7200  208.0970  150.1540 C   0  0  0  0  0  0  0  0  0  0  0  0
  160.7860  205.6300  152.7510 C   0  0  0  0  0  3  0  0  0  0  0  0
  161.5050  209.0630  156.5550 C   0  0  0  0  0  0  0  0  0  0  0  0
  160.8280  208.0380  157.2190 C   0  0  0  0  0  3  0  0  0  0  0  0
  161.0480  207.9970  154.4160 C   0  0  0  0  0  0  0  0  0  0  0  0
  160.2700  206.9850  156.4890 C   0  0  0  0  0  3  0  0  0  0  0  0
  161.6200  209.0380  155.1620 C   0  0  0  0  0  3  0  0  0  0  0  0
  160.3860  206.9620  155.0970 C   0  0  0  0  0  3  0  0  0  0  0  0
  162.0540  210.0800  157.2610 F   0  0  0  0  0  0  0  0  0  0  0  0
  162.3560  212.0220  148.4090 C   0  0  0  0  0  2  0  0  0  0  0  0
  161.1190  212.8330  148.7600 C   0  0  0  0  0  2  0  0  0  0  0  0
  158.9420  213.2750  147.6290 C   0  0  0  0  0  1  0  0  0  0  0  0
  160.4530  213.3620  147.4990 C   0  0  2  0  0  3  0  0  0  0  0  0
  160.9450  212.6540  146.2320 C   0  0  0  0  0  2  0  0  0  0  0  0
  159.4690  212.2900  144.2480 O   0  0  0  0  0  0  0  0  0  0  0  0
  160.2770  213.1440  144.9870 C   0  0  0  0  0  0  0  0  0  0  0  0
  160.4290  214.3380  144.6190 O   0  0  0  0  0  1  0  0  0  0  0  0
  1 13  1  0  0  0  0
  2 14  1  6  0  0  0
  2  8  1  0  0  0  0
  3 12  1  0  0  0  0
  4 15  1  0  0  0  0
  5 11  1  1  0  0  0
  5  1  1  0  0  0  0
  6  2  1  0  0  0  0
  6 11  1  1  0  0  0
  6  5  1  0  0  0  0
  7 18  1  0  0  0  0
  8  1  2  0  0  0  0
  8  3  1  0  0  0  0
  9  7  1  0  0  0  0
  9 17  2  0  0  0  0
 10  4  2  0  0  0  0
 12 19  1  0  0  0  0
 12 16  2  0  0  0  0
 13 19  2  0  0  0  0
 15 16  1  0  0  0  0
 16 22  1  0  0  0  0
 17 10  1  0  0  0  0
 18  3  2  0  0  0  0
 18  4  1  0  0  0  0
 20 21  1  0  0  0  0
 20 26  1  0  0  0  0
 22 25  2  0  0  0  0
 22 24  1  0  0  0  0
 23 21  2  0  0  0  0
 24 20  2  0  0  0  0
 25 23  1  0  0  0  0
 27 28  1  0  0  0  0
 27 17  1  0  0  0  0
 30 29  1  1  0  0  0
 30 28  1  0  0  0  0
 31 30  1  0  0  0  0
 32 33  2  0  0  0  0
 33 31  1  0  0  0  0
 34 33  1  0  0  0  0
M  END
>  <MODEL>
6

>  <REMARK>
 VINA RESULT:      -8.4      2.478      5.430
  Name = 
  6 active torsions:
  status: ('A' for Active; 'I' for Inactive)
    1  A    between atoms: C_3  and  C_13
    2  A    between atoms: C_3  and  C_29
    3  A    between atoms: C_12  and  C_28
    4  A    between atoms: C_13  and  C_33
    5  A    between atoms: C_20  and  C_22
    6  A    between atoms: C_22  and  C_33
                            x       y       z     vdW  Elec       q    Type
                         _______ _______ _______ _____ _____    ______ ____

>  <TORSDO>
F 6

$$$$
=
 OpenBabel11062408083D

 34 39  0  0  1  0  0  0  0  0999 V2000
  160.8160  204.5230  150.6670 C   0  0  0  0  0  0  0  0  0  0  0  0
  161.1570  205.4640  148.5510 C   0  0  2  0  0  3  0  0  0  0  0  0
  161.3190  206.9120  150.7590 C   0  0  0  0  0  0  0  0  0  0  0  0
  161.8050  209.2950  150.9880 C   0  0  0  0  0  0  0  0  0  0  0  0
  160.6980  203.3590  149.7560 C   0  0  1  0  0  3  0  0  0  0  0  0
  160.9220  203.9540  148.3670 C   0  0  2  0  0  3  0  0  0  0  0  0
  162.2110  208.1450  148.7360 C   0  0  0  0  0  2  0  0  0  0  0  0
  161.1140  205.7040  150.0280 C   0  0  0  0  0  0  0  0  0  0  0  0
  162.3000  209.5460  148.1960 C   0  0  0  0  0  3  0  0  0  0  0  0
  162.0800  210.4780  150.4420 C   0  0  0  0  0  3  0  0  0  0  0  0
  162.0100  203.1230  149.0230 C   0  0  0  0  0  2  0  0  0  0  0  0
  161.1080  206.8640  152.1830 C   0  0  0  0  0  0  0  0  0  0  0  0
  160.6150  204.4680  152.0360 C   0  0  0  0  0  3  0  0  0  0  0  0
  160.0080  206.1920  147.8720 C   0  0  0  0  0  1  0  0  0  0  0  0
  161.5720  209.2020  152.3530 O   0  0  0  0  0  0  0  0  0  0  0  0
  161.2510  207.9800  152.9550 C   0  0  0  0  0  0  0  0  0  0  0  0
  162.2920  210.6190  148.9920 C   0  0  0  0  0  0  0  0  0  0  0  0
  161.7120  208.0730  150.1640 C   0  0  0  0  0  0  0  0  0  0  0  0
  160.7500  205.6370  152.7800 C   0  0  0  0  0  3  0  0  0  0  0  0
  161.5030  209.1190  156.5520 C   0  0  0  0  0  0  0  0  0  0  0  0
  160.8810  208.0720  157.2360 C   0  0  0  0  0  3  0  0  0  0  0  0
  161.0760  208.0050  154.4320 C   0  0  0  0  0  0  0  0  0  0  0  0
  160.3660  206.9850  156.5250 C   0  0  0  0  0  3  0  0  0  0  0  0
  161.6060  209.0810  155.1580 C   0  0  0  0  0  3  0  0  0  0  0  0
  160.4690  206.9490  155.1320 C   0  0  0  0  0  3  0  0  0  0  0  0
  162.0110  210.1700  157.2400 F   0  0  0  0  0  0  0  0  0  0  0  0
  162.4130  211.9770  148.3960 C   0  0  0  0  0  2  0  0  0  0  0  0
  161.2910  212.2100  147.3960 C   0  0  0  0  0  2  0  0  0  0  0  0
  159.0000  213.1440  147.0930 C   0  0  0  0  0  1  0  0  0  0  0  0
  160.0360  212.6930  148.1070 C   0  0  2  0  0  3  0  0  0  0  0  0
  160.3270  213.7940  149.1330 C   0  0  0  0  0  2  0  0  0  0  0  0
  160.1060  213.1880  151.5480 O   0  0  0  0  0  1  0  0  0  0  0  0
  159.5170  213.6630  150.3840 C   0  0  0  0  0  0  0  0  0  0  0  0
  158.3050  214.0040  150.3880 O   0  0  0  0  0  0  0  0  0  0  0  0
  1 13  1  0  0  0  0
  2 14  1  6  0  0  0
  2  8  1  0  0  0  0
  3 12  1  0  0  0  0
  4 15  1  0  0  0  0
  5 11  1  1  0  0  0
  5  1  1  0  0  0  0
  6  2  1  0  0  0  0
  6 11  1  1  0  0  0
  6  5  1  0  0  0  0
  7 18  1  0  0  0  0
  8  1  2  0  0  0  0
  8  3  1  0  0  0  0
  9  7  1  0  0  0  0
  9 17  2  0  0  0  0
 10  4  2  0  0  0  0
 12 19  1  0  0  0  0
 12 16  2  0  0  0  0
 13 19  2  0  0  0  0
 15 16  1  0  0  0  0
 16 22  1  0  0  0  0
 17 10  1  0  0  0  0
 18  3  2  0  0  0  0
 18  4  1  0  0  0  0
 20 21  1  0  0  0  0
 20 26  1  0  0  0  0
 22 25  2  0  0  0  0
 22 24  1  0  0  0  0
 23 21  2  0  0  0  0
 24 20  2  0  0  0  0
 25 23  1  0  0  0  0
 27 17  1  0  0  0  0
 28 30  1  0  0  0  0
 28 27  1  0  0  0  0
 30 29  1  6  0  0  0
 30 31  1  0  0  0  0
 31 33  1  0  0  0  0
 33 34  2  0  0  0  0
 33 32  1  0  0  0  0
M  END
>  <MODEL>
7

>  <REMARK>
 VINA RESULT:      -8.3      3.044      5.796
  Name = 
  6 active torsions:
  status: ('A' for Active; 'I' for Inactive)
    1  A    between atoms: C_3  and  C_13
    2  A    between atoms: C_3  and  C_29
    3  A    between atoms: C_12  and  C_28
    4  A    between atoms: C_13  and  C_33
    5  A    between atoms: C_20  and  C_22
    6  A    between atoms: C_22  and  C_33
                            x       y       z     vdW  Elec       q    Type
                         _______ _______ _______ _____ _____    ______ ____

>  <TORSDO>
F 6

$$$$
=
 OpenBabel11062408083D

 34 39  0  0  1  0  0  0  0  0999 V2000
  161.8240  210.3990  150.1770 C   0  0  0  0  0  0  0  0  0  0  0  0
  162.0760  208.8850  148.4100 C   0  0  2  0  0  3  0  0  0  0  0  0
  161.3800  208.0880  150.8340 C   0  0  0  0  0  0  0  0  0  0  0  0
  160.9170  205.8220  151.6200 C   0  0  0  0  0  0  0  0  0  0  0  0
  162.1450  211.2750  149.0250 C   0  0  1  0  0  3  0  0  0  0  0  0
  162.3100  210.3030  147.8580 C   0  0  2  0  0  3  0  0  0  0  0  0
  161.0850  206.2650  149.1030 C   0  0  0  0  0  2  0  0  0  0  0  0
  161.7370  209.0640  149.8560 C   0  0  0  0  0  0  0  0  0  0  0  0
  161.1790  204.7680  148.9890 C   0  0  0  0  0  3  0  0  0  0  0  0
  160.8270  204.5130  151.3910 C   0  0  0  0  0  3  0  0  0  0  0  0
  161.0660  211.1670  147.9580 C   0  0  0  0  0  2  0  0  0  0  0  0
  161.2080  208.5450  152.1890 C   0  0  0  0  0  0  0  0  0  0  0  0
  161.6560  210.8470  151.4770 C   0  0  0  0  0  3  0  0  0  0  0  0
  163.3830  208.1200  148.2740 C   0  0  0  0  0  1  0  0  0  0  0  0
  160.7800  206.3080  152.9120 O   0  0  0  0  0  0  0  0  0  0  0  0
  160.8970  207.6750  153.1930 C   0  0  0  0  0  0  0  0  0  0  0  0
  161.0070  203.9600  150.0390 C   0  0  0  0  0  0  0  0  0  0  0  0
  161.1890  206.7750  150.5250 C   0  0  0  0  0  0  0  0  0  0  0  0
  161.3630  209.9180  152.4720 C   0  0  0  0  0  3  0  0  0  0  0  0
  159.9350  209.7580  156.1990 C   0  0  0  0  0  0  0  0  0  0  0  0
  160.3320  208.9420  157.2600 C   0  0  0  0  0  3  0  0  0  0  0  0
  160.6790  208.0720  154.6090 C   0  0  0  0  0  0  0  0  0  0  0  0
  160.9140  207.6980  157.0030 C   0  0  0  0  0  3  0  0  0  0  0  0
  160.1140  209.3270  154.8800 C   0  0  0  0  0  3  0  0  0  0  0  0
  161.0920  207.2690  155.6850 C   0  0  0  0  0  3  0  0  0  0  0  0
  159.3790  210.9680  156.4450 F   0  0  0  0  0  0  0  0  0  0  0  0
  161.0850  202.4860  149.8530 C   0  0  0  0  0  2  0  0  0  0  0  0
  160.0020  202.0240  148.8910 C   0  0  0  0  0  2  0  0  0  0  0  0
  161.5280  200.2860  147.9600 C   0  0  0  0  0  1  0  0  0  0  0  0
  160.6210  201.4570  147.6230 C   0  0  2  0  0  3  0  0  0  0  0  0
  161.3640  202.5190  146.8050 C   0  0  0  0  0  2  0  0  0  0  0  0
  159.9040  201.8080  144.9050 O   0  0  0  0  0  1  0  0  0  0  0  0
  160.7600  202.7520  145.4560 C   0  0  0  0  0  0  0  0  0  0  0  0
  161.0090  203.8150  144.8290 O   0  0  0  0  0  0  0  0  0  0  0  0
  1 13  1  0  0  0  0
  2 14  1  1  0  0  0
  2  8  1  0  0  0  0
  3 12  1  0  0  0  0
  4 15  1  0  0  0  0
  5 11  1  6  0  0  0
  5  1  1  0  0  0  0
  6 11  1  6  0  0  0
  6  2  1  0  0  0  0
  6  5  1  0  0  0  0
  7 18  1  0  0  0  0
  8  1  2  0  0  0  0
  8  3  1  0  0  0  0
  9  7  1  0  0  0  0
  9 17  2  0  0  0  0
 10  4  2  0  0  0  0
 12 19  1  0  0  0  0
 12 16  2  0  0  0  0
 13 19  2  0  0  0  0
 15 16  1  0  0  0  0
 16 22  1  0  0  0  0
 17 10  1  0  0  0  0
 18  3  2  0  0  0  0
 18  4  1  0  0  0  0
 20 26  1  0  0  0  0
 20 21  1  0  0  0  0
 22 24  1  0  0  0  0
 22 25  2  0  0  0  0
 23 21  2  0  0  0  0
 24 20  2  0  0  0  0
 25 23  1  0  0  0  0
 27 17  1  0  0  0  0
 28 27  1  0  0  0  0
 30 29  1  1  0  0  0
 30 28  1  0  0  0  0
 31 30  1  0  0  0  0
 32 33  1  0  0  0  0
 33 31  1  0  0  0  0
 34 33  2  0  0  0  0
M  END
>  <MODEL>
8

>  <REMARK>
 VINA RESULT:      -7.3      3.610      7.947
  Name = 
  6 active torsions:
  status: ('A' for Active; 'I' for Inactive)
    1  A    between atoms: C_3  and  C_13
    2  A    between atoms: C_3  and  C_29
    3  A    between atoms: C_12  and  C_28
    4  A    between atoms: C_13  and  C_33
    5  A    between atoms: C_20  and  C_22
    6  A    between atoms: C_22  and  C_33
                            x       y       z     vdW  Elec       q    Type
                         _______ _______ _______ _____ _____    ______ ____

>  <TORSDO>
F 6

$$$$
=
 OpenBabel11062408083D

 34 39  0  0  1  0  0  0  0  0999 V2000
  161.7660  209.6130  148.9700 C   0  0  0  0  0  0  0  0  0  0  0  0
  161.7220  211.3410  150.5490 C   0  0  2  0  0  3  0  0  0  0  0  0
  161.5450  208.8000  151.2640 C   0  0  0  0  0  0  0  0  0  0  0  0
  161.3160  207.8590  153.5060 C   0  0  0  0  0  0  0  0  0  0  0  0
  161.9570  210.8300  148.1450 C   0  0  1  0  0  3  0  0  0  0  0  0
  161.9350  211.9710  149.1610 C   0  0  2  0  0  3  0  0  0  0  0  0
  161.9460  210.3280  153.2420 C   0  0  0  0  0  2  0  0  0  0  0  0
  161.6740  209.8630  150.3210 C   0  0  0  0  0  0  0  0  0  0  0  0
  161.5940  210.4270  154.7020 C   0  0  0  0  0  3  0  0  0  0  0  0
  161.2060  208.0210  154.8240 C   0  0  0  0  0  3  0  0  0  0  0  0
  163.2470  211.5370  148.5320 C   0  0  0  0  0  2  0  0  0  0  0  0
  161.4200  207.4650  150.7400 C   0  0  0  0  0  0  0  0  0  0  0  0
  161.6490  208.3310  148.4590 C   0  0  0  0  0  3  0  0  0  0  0  0
  160.3810  211.8300  151.0720 C   0  0  0  0  0  1  0  0  0  0  0  0
  161.1810  206.5950  152.9520 O   0  0  0  0  0  0  0  0  0  0  0  0
  161.2600  206.3930  151.5690 C   0  0  0  0  0  0  0  0  0  0  0  0
  161.3050  209.3530  155.4410 C   0  0  0  0  0  0  0  0  0  0  0  0
  161.5520  209.0090  152.6100 C   0  0  0  0  0  0  0  0  0  0  0  0
  161.4660  207.2720  149.3430 C   0  0  0  0  0  3  0  0  0  0  0  0
  160.9070  203.4210  149.2570 C   0  0  0  0  0  0  0  0  0  0  0  0
  160.8310  202.3570  150.1580 C   0  0  0  0  0  3  0  0  0  0  0  0
  161.1500  204.9840  151.1060 C   0  0  0  0  0  0  0  0  0  0  0  0
  160.9010  202.6000  151.5310 C   0  0  0  0  0  3  0  0  0  0  0  0
  161.0590  204.7280  149.7300 C   0  0  0  0  0  3  0  0  0  0  0  0
  161.0530  203.9070  152.0030 C   0  0  0  0  0  3  0  0  0  0  0  0
  160.8300  203.1890  147.9250 F   0  0  0  0  0  0  0  0  0  0  0  0
  160.9940  209.5180  156.8870 C   0  0  0  0  0  2  0  0  0  0  0  0
  159.5210  209.8460  157.0700 C   0  0  0  0  0  2  0  0  0  0  0  0
  159.8760  212.3070  157.2600 C   0  0  0  0  0  1  0  0  0  0  0  0
  159.1980  211.2040  156.4650 C   0  0  2  0  0  3  0  0  0  0  0  0
  157.6890  211.4510  156.3460 C   0  0  0  0  0  2  0  0  0  0  0  0
  158.1700  212.1990  154.0100 O   0  0  0  0  0  0  0  0  0  0  0  0
  157.2500  211.7470  154.9470 C   0  0  0  0  0  0  0  0  0  0  0  0
  156.0510  211.5660  154.6110 O   0  0  0  0  0  1  0  0  0  0  0  0
  1  8  2  0  0  0  0
  2 14  1  6  0  0  0
  3 18  2  0  0  0  0
  4 10  2  0  0  0  0
  5 11  1  1  0  0  0
  5  1  1  0  0  0  0
  5  6  1  0  0  0  0
  6 11  1  1  0  0  0
  6  2  1  0  0  0  0
  7  9  1  0  0  0  0
  8  2  1  0  0  0  0
  8  3  1  0  0  0  0
  9 17  2  0  0  0  0
 10 17  1  0  0  0  0
 12  3  1  0  0  0  0
 12 16  2  0  0  0  0
 13  1  1  0  0  0  0
 13 19  2  0  0  0  0
 15  4  1  0  0  0  0
 16 15  1  0  0  0  0
 17 27  1  0  0  0  0
 18  7  1  0  0  0  0
 18  4  1  0  0  0  0
 19 12  1  0  0  0  0
 20 24  2  0  0  0  0
 20 21  1  0  0  0  0
 21 23  2  0  0  0  0
 22 16  1  0  0  0  0
 22 25  2  0  0  0  0
 23 25  1  0  0  0  0
 24 22  1  0  0  0  0
 26 20  1  0  0  0  0
 27 28  1  0  0  0  0
 30 28  1  0  0  0  0
 30 29  1  1  0  0  0
 31 30  1  0  0  0  0
 32 33  2  0  0  0  0
 33 31  1  0  0  0  0
 34 33  1  0  0  0  0
M  END
>  <MODEL>
9

>  <REMARK>
 VINA RESULT:      -7.2      3.012      6.283
  Name = 
  6 active torsions:
  status: ('A' for Active; 'I' for Inactive)
    1  A    between atoms: C_3  and  C_13
    2  A    between atoms: C_3  and  C_29
    3  A    between atoms: C_12  and  C_28
    4  A    between atoms: C_13  and  C_33
    5  A    between atoms: C_20  and  C_22
    6  A    between atoms: C_22  and  C_33
                            x       y       z     vdW  Elec       q    Type
                         _______ _______ _______ _____ _____    ______ ____

>  <TORSDO>
F 6

$$$$
