=
 OpenBabel11062409133D

 37 40  0  0  1  0  0  0  0  0999 V2000
  160.5890  211.6730  154.9010 O   0  0  0  0  0  0  0  0  0  0  0  0
  159.9970  210.7070  151.3740 C   0  0  0  0  0  2  0  0  0  0  0  0
  157.3170  212.5660  156.7480 C   0  0  0  0  0  2  0  0  0  0  0  0
  160.0150  210.5510  154.2740 C   0  0  2  0  0  3  0  0  0  0  0  0
  158.2640  211.7640  155.8450 C   0  0  1  0  0  3  0  0  0  0  0  0
  161.0060  209.8120  153.4780 N   0  0  0  0  0  0  0  0  0  0  0  0
  159.9520  213.6300  156.0850 C   0  0  0  0  0  1  0  0  0  0  0  0
  157.8050  211.7840  154.3810 C   0  0  2  0  0  3  0  0  0  0  0  0
  155.4390  212.0850  155.1380 C   0  0  0  0  0  2  0  0  0  0  0  0
  159.7790  212.1180  155.9900 C   0  0  2  0  0  0  0  0  0  0  0  0
  156.3800  211.2570  154.2650 C   0  0  0  0  0  2  0  0  0  0  0  0
  161.2750  210.4460  152.1790 C   0  0  0  0  0  2  0  0  0  0  0  0
  158.7430  210.9560  153.4960 C   0  0  1  0  0  3  0  0  0  0  0  0
  155.8780  212.0650  156.6050 C   0  0  1  0  0  3  0  0  0  0  0  0
  159.0620  211.6340  152.1470 C   0  0  1  0  0  3  0  0  0  0  0  0
  154.3820  210.5720  157.2600 C   0  0  0  0  0  1  0  0  0  0  0  0
  155.7570  210.7760  157.1300 O   0  0  0  0  0  0  0  0  0  0  0  0
  161.1830  210.6740  157.2420 O   0  0  0  0  0  0  0  0  0  0  0  0
  160.2870  211.5030  157.2610 C   0  0  0  0  0  3  0  0  0  0  0  0
  159.6600  213.0630  152.2700 C   0  0  2  0  0  3  0  0  0  0  0  0
  158.2780  214.4520  153.7090 O   0  0  0  0  0  1  0  0  0  0  0  0
  157.3810  213.8860  151.5650 C   0  0  0  0  0  1  0  0  0  0  0  0
  158.6230  214.1970  152.3790 C   0  0  2  0  0  3  0  0  0  0  0  0
  160.7160  213.3390  151.3650 O   0  0  0  0  0  0  0  0  0  0  0  0
  160.2160  214.0770  150.2770 C   0  0  0  0  0  2  0  0  0  0  0  0
  162.4730  212.2990  147.7460 C   0  0  0  0  0  1  0  0  0  0  0  0
  160.9670  213.7270  149.0360 C   0  0  0  0  0  3  0  0  0  0  0  0
  161.7280  212.6390  148.9940 C   0  0  0  0  0  3  0  0  0  0  0  0
  160.5160  208.4560  153.2610 C   0  0  0  0  0  2  0  0  0  0  0  0
  161.8680  207.2580  153.5120 S   0  0  0  0  0  0  0  0  0  0  0  0
  160.6690  207.1650  150.9980 C   0  0  0  0  0  2  0  0  0  0  0  0
  161.7700  206.5120  151.8470 C   0  0  0  0  0  3  0  0  0  0  0  0
  161.6880  204.9760  151.9380 C   0  0  0  0  0  2  0  0  0  0  0  0
  161.0020  204.4070  149.5380 C   0  0  0  0  0  2  0  0  0  0  0  0
  161.6560  205.7200  149.0970 C   0  0  0  0  0  2  0  0  0  0  0  0
  160.6300  204.3530  151.0220 C   0  0  0  0  0  2  0  0  0  0  0  0
  160.8630  206.9740  149.4870 C   0  0  0  0  0  2  0  0  0  0  0  0
  1 10  1  0  0  0  0
  2 15  1  0  0  0  0
  2 12  1  0  0  0  0
  4  1  1  6  0  0  0
  5 10  1  0  0  0  0
  5  3  1  1  0  0  0
  6  4  1  0  0  0  0
  8 11  1  1  0  0  0
  8  5  1  0  0  0  0
  9 14  1  0  0  0  0
 10  7  1  1  0  0  0
 10 19  1  0  0  0  0
 11  9  1  0  0  0  0
 12  6  1  0  0  0  0
 13  4  1  0  0  0  0
 13  8  1  0  0  0  0
 14  3  1  0  0  0  0
 14 17  1  0  0  0  0
 15 20  1  0  0  0  0
 15 13  1  0  0  0  0
 17 16  1  0  0  0  0
 18 19  2  0  0  0  0
 20 23  1  0  0  0  0
 22 23  1  0  0  0  0
 23 21  1  0  0  0  0
 24 20  1  0  0  0  0
 25 24  1  0  0  0  0
 26 28  1  0  0  0  0
 27 25  1  0  0  0  0
 28 27  2  0  0  0  0
 29  6  1  0  0  0  0
 29 30  1  0  0  0  0
 31 32  1  0  0  0  0
 32 33  1  0  0  0  0
 32 30  1  0  0  0  0
 34 36  1  0  0  0  0
 35 37  1  0  0  0  0
 35 34  1  0  0  0  0
 36 33  1  0  0  0  0
 37 31  1  0  0  0  0
M  END
>  <MODEL>
1

>  <REMARK>
 VINA RESULT:      -3.4      0.000      0.000
  Name = 
  10 active torsions:
  status: ('A' for Active; 'I' for Inactive)
    1  A    between atoms: C_1  and  C_23
    2  A    between atoms: C_1  and  O_33
    3  A    between atoms: C_1  and  C_36
    4  A    between atoms: C_6  and  S_31
    5  A    between atoms: N_14  and  C_37
    6  A    between atoms: C_17  and  C_26
    7  A    between atoms: C_17  and  O_33
    8  A    between atoms: C_24  and  C_28
    9  A    between atoms: O_30  and  C_32
   10  A    between atoms: S_31  and  C_37
                            x       y       z     vdW  Elec       q    Type
                         _______ _______ _______ _____ _____    ______ ____

>  <TORSDO>
F 10

$$$$
=
 OpenBabel11062409133D

 37 40  0  0  1  0  0  0  0  0999 V2000
  160.4290  211.1660  140.6470 O   0  0  0  0  0  0  0  0  0  0  0  0
  158.4820  214.2590  141.2530 C   0  0  0  0  0  2  0  0  0  0  0  0
  163.2850  211.7030  138.1040 C   0  0  0  0  0  2  0  0  0  0  0  0
  160.6940  212.3770  141.3120 C   0  0  2  0  0  3  0  0  0  0  0  0
  162.3850  211.9990  139.3110 C   0  0  1  0  0  3  0  0  0  0  0  0
  159.8260  212.5500  142.4860 N   0  0  0  0  0  0  0  0  0  0  0  0
  160.9390  210.0450  138.6170 C   0  0  0  0  0  1  0  0  0  0  0  0
  161.5380  213.2600  139.0930 C   0  0  2  0  0  3  0  0  0  0  0  0
  163.3000  214.1640  137.5620 C   0  0  0  0  0  2  0  0  0  0  0  0
  161.5250  210.7940  139.8100 C   0  0  2  0  0  0  0  0  0  0  0  0
  162.4350  214.4530  138.7870 C   0  0  0  0  0  2  0  0  0  0  0  0
  158.4730  213.0010  142.1290 C   0  0  0  0  0  2  0  0  0  0  0  0
  160.6670  213.5590  140.3170 C   0  0  1  0  0  3  0  0  0  0  0  0
  164.1590  212.9140  137.7700 C   0  0  1  0  0  3  0  0  0  0  0  0
  159.2330  213.9940  139.9500 C   0  0  1  0  0  3  0  0  0  0  0  0
  166.0190  214.0220  138.2300 C   0  0  0  0  0  1  0  0  0  0  0  0
  165.0960  213.1320  138.7840 O   0  0  0  0  0  0  0  0  0  0  0  0
  162.6090  208.7160  140.1710 O   0  0  0  0  0  0  0  0  0  0  0  0
  162.4200  209.8560  140.5640 C   0  0  0  0  0  3  0  0  0  0  0  0
  158.4640  212.9840  139.0520 C   0  0  2  0  0  3  0  0  0  0  0  0
  159.0460  214.2100  137.0350 O   0  0  0  0  0  1  0  0  0  0  0  0
  156.8070  214.4530  137.8390 C   0  0  0  0  0  1  0  0  0  0  0  0
  158.0090  213.5390  137.6890 C   0  0  2  0  0  3  0  0  0  0  0  0
  157.4650  212.2380  139.7270 O   0  0  0  0  0  0  0  0  0  0  0  0
  157.2540  211.0240  139.0490 C   0  0  0  0  0  2  0  0  0  0  0  0
  154.0070  209.0210  139.3860 C   0  0  0  0  0  1  0  0  0  0  0  0
  155.8110  210.6470  139.1160 C   0  0  0  0  0  3  0  0  0  0  0  0
  155.4530  209.3840  139.3190 C   0  0  0  0  0  3  0  0  0  0  0  0
  160.4380  213.5250  143.3820 C   0  0  0  0  0  2  0  0  0  0  0  0
  159.3410  213.8350  144.8060 S   0  0  0  0  0  0  0  0  0  0  0  0
  160.1280  213.6520  147.4740 C   0  0  0  0  0  2  0  0  0  0  0  0
  160.4690  213.1410  146.0660 C   0  0  0  0  0  3  0  0  0  0  0  0
  161.9400  213.3340  145.6510 C   0  0  0  0  0  2  0  0  0  0  0  0
  163.1190  212.7840  147.8560 C   0  0  0  0  0  2  0  0  0  0  0  0
  161.9020  211.9340  148.2320 C   0  0  0  0  0  2  0  0  0  0  0  0
  162.8460  213.8380  146.7780 C   0  0  0  0  0  2  0  0  0  0  0  0
  160.6580  212.7540  148.6000 C   0  0  0  0  0  2  0  0  0  0  0  0
  2 12  1  0  0  0  0
  4  1  1  6  0  0  0
  4  6  1  0  0  0  0
  5  3  1  6  0  0  0
  5 10  1  0  0  0  0
  6 29  1  0  0  0  0
  8 11  1  1  0  0  0
  8  5  1  0  0  0  0
  8 13  1  0  0  0  0
  9 14  1  0  0  0  0
  9 11  1  0  0  0  0
 10  7  1  6  0  0  0
 10 19  1  0  0  0  0
 10  1  1  0  0  0  0
 12  6  1  0  0  0  0
 13  4  1  0  0  0  0
 14  3  1  0  0  0  0
 14 17  1  0  0  0  0
 15 13  1  0  0  0  0
 15  2  1  0  0  0  0
 16 17  1  0  0  0  0
 18 19  2  0  0  0  0
 20 24  1  0  0  0  0
 20 15  1  0  0  0  0
 21 23  1  0  0  0  0
 23 22  1  0  0  0  0
 23 20  1  0  0  0  0
 25 27  1  0  0  0  0
 25 24  1  0  0  0  0
 27 28  2  0  0  0  0
 28 26  1  0  0  0  0
 29 30  1  0  0  0  0
 30 32  1  0  0  0  0
 31 37  1  0  0  0  0
 32 31  1  0  0  0  0
 33 32  1  0  0  0  0
 33 36  1  0  0  0  0
 34 35  1  0  0  0  0
 35 37  1  0  0  0  0
 36 34  1  0  0  0  0
M  END
>  <MODEL>
2

>  <REMARK>
 VINA RESULT:      -2.7      9.167     14.268
  Name = 
  10 active torsions:
  status: ('A' for Active; 'I' for Inactive)
    1  A    between atoms: C_1  and  C_23
    2  A    between atoms: C_1  and  O_33
    3  A    between atoms: C_1  and  C_36
    4  A    between atoms: C_6  and  S_31
    5  A    between atoms: N_14  and  C_37
    6  A    between atoms: C_17  and  C_26
    7  A    between atoms: C_17  and  O_33
    8  A    between atoms: C_24  and  C_28
    9  A    between atoms: O_30  and  C_32
   10  A    between atoms: S_31  and  C_37
                            x       y       z     vdW  Elec       q    Type
                         _______ _______ _______ _____ _____    ______ ____

>  <TORSDO>
F 10

$$$$
=
 OpenBabel11062409133D

 37 40  0  0  1  0  0  0  0  0999 V2000
  161.2070  211.9040  154.7410 O   0  0  0  0  0  0  0  0  0  0  0  0
  158.3980  211.8510  152.3260 C   0  0  0  0  0  2  0  0  0  0  0  0
  161.0490  208.9650  157.2420 C   0  0  0  0  0  2  0  0  0  0  0  0
  160.8700  211.0870  153.6460 C   0  0  2  0  0  3  0  0  0  0  0  0
  160.9930  209.6790  155.8840 C   0  0  1  0  0  3  0  0  0  0  0  0
  160.8960  211.8380  152.3830 N   0  0  0  0  0  0  0  0  0  0  0  0
  161.1920  211.8770  157.1160 C   0  0  0  0  0  1  0  0  0  0  0  0
  159.5810  209.6470  155.2840 C   0  0  2  0  0  3  0  0  0  0  0  0
  159.1170  207.5190  156.5180 C   0  0  0  0  0  2  0  0  0  0  0  0
  161.6080  211.1150  155.8620 C   0  0  2  0  0  0  0  0  0  0  0  0
  159.0930  208.2090  155.1550 C   0  0  0  0  0  2  0  0  0  0  0  0
  159.6920  212.6590  152.1870 C   0  0  0  0  0  2  0  0  0  0  0  0
  159.5460  210.3360  153.9160 C   0  0  1  0  0  3  0  0  0  0  0  0
  160.5230  207.5330  157.1240 C   0  0  1  0  0  3  0  0  0  0  0  0
  158.3050  211.2320  153.7190 C   0  0  1  0  0  3  0  0  0  0  0  0
  160.5580  206.0360  155.4950 C   0  0  0  0  0  1  0  0  0  0  0  0
  161.3920  206.7570  156.3520 O   0  0  0  0  0  0  0  0  0  0  0  0
  163.7450  211.1100  156.8910 O   0  0  0  0  0  0  0  0  0  0  0  0
  163.1030  210.9870  155.8600 C   0  0  0  0  0  3  0  0  0  0  0  0
  158.1190  212.3240  154.8100 C   0  0  2  0  0  3  0  0  0  0  0  0
  157.9110  211.4510  157.0690 O   0  0  0  0  0  1  0  0  0  0  0  0
  156.1590  210.9080  155.5340 C   0  0  0  0  0  1  0  0  0  0  0  0
  157.1900  211.9320  155.9740 C   0  0  2  0  0  3  0  0  0  0  0  0
  157.8830  213.6270  154.3030 O   0  0  0  0  0  0  0  0  0  0  0  0
  156.6370  214.0880  154.7660 C   0  0  0  0  0  2  0  0  0  0  0  0
  155.2120  214.4520  151.2300 C   0  0  0  0  0  1  0  0  0  0  0  0
  155.7000  214.2630  153.6170 C   0  0  0  0  0  3  0  0  0  0  0  0
  156.1590  214.2770  152.3710 C   0  0  0  0  0  3  0  0  0  0  0  0
  161.0210  210.8940  151.2780 C   0  0  0  0  0  2  0  0  0  0  0  0
  162.4200  209.7630  151.5810 S   0  0  0  0  0  0  0  0  0  0  0  0
  162.2350  206.9970  151.3010 C   0  0  0  0  0  2  0  0  0  0  0  0
  161.6740  208.3160  150.7510 C   0  0  0  0  0  3  0  0  0  0  0  0
  161.7550  208.4610  149.2190 C   0  0  0  0  0  2  0  0  0  0  0  0
  161.1680  206.0760  148.4970 C   0  0  0  0  0  2  0  0  0  0  0  0
  160.4120  205.9200  149.8200 C   0  0  0  0  0  2  0  0  0  0  0  0
  162.2170  207.1920  148.4950 C   0  0  0  0  0  2  0  0  0  0  0  0
  161.3230  205.7880  151.0470 C   0  0  0  0  0  2  0  0  0  0  0  0
  1 10  1  0  0  0  0
  2 15  1  0  0  0  0
  4 13  1  0  0  0  0
  4  1  1  1  0  0  0
  5  3  1  1  0  0  0
  6  4  1  0  0  0  0
  8 11  1  6  0  0  0
  8  5  1  0  0  0  0
  9 14  1  0  0  0  0
 10  5  1  0  0  0  0
 10  7  1  1  0  0  0
 11  9  1  0  0  0  0
 12  2  1  0  0  0  0
 12  6  1  0  0  0  0
 13  8  1  0  0  0  0
 14  3  1  0  0  0  0
 15 13  1  0  0  0  0
 15 20  1  0  0  0  0
 16 17  1  0  0  0  0
 17 14  1  0  0  0  0
 19 10  1  0  0  0  0
 19 18  2  0  0  0  0
 20 23  1  0  0  0  0
 22 23  1  0  0  0  0
 23 21  1  0  0  0  0
 24 25  1  0  0  0  0
 24 20  1  0  0  0  0
 26 28  1  0  0  0  0
 27 25  1  0  0  0  0
 28 27  2  0  0  0  0
 29 30  1  0  0  0  0
 29  6  1  0  0  0  0
 32 31  1  0  0  0  0
 32 30  1  0  0  0  0
 33 32  1  0  0  0  0
 34 35  1  0  0  0  0
 35 37  1  0  0  0  0
 36 34  1  0  0  0  0
 36 33  1  0  0  0  0
 37 31  1  0  0  0  0
M  END
>  <MODEL>
3

>  <REMARK>
 VINA RESULT:      -2.7      2.076      4.249
  Name = 
  10 active torsions:
  status: ('A' for Active; 'I' for Inactive)
    1  A    between atoms: C_1  and  C_23
    2  A    between atoms: C_1  and  O_33
    3  A    between atoms: C_1  and  C_36
    4  A    between atoms: C_6  and  S_31
    5  A    between atoms: N_14  and  C_37
    6  A    between atoms: C_17  and  C_26
    7  A    between atoms: C_17  and  O_33
    8  A    between atoms: C_24  and  C_28
    9  A    between atoms: O_30  and  C_32
   10  A    between atoms: S_31  and  C_37
                            x       y       z     vdW  Elec       q    Type
                         _______ _______ _______ _____ _____    ______ ____

>  <TORSDO>
F 10

$$$$
=
 OpenBabel11062409133D

 37 40  0  0  1  0  0  0  0  0999 V2000
  158.6570  210.7440  152.6740 O   0  0  0  0  0  0  0  0  0  0  0  0
  162.1530  209.8800  151.8030 C   0  0  0  0  0  2  0  0  0  0  0  0
  158.3090  211.9530  156.3250 C   0  0  0  0  0  2  0  0  0  0  0  0
  159.8290  211.4940  152.4600 C   0  0  2  0  0  3  0  0  0  0  0  0
  158.9040  211.8500  154.9140 C   0  0  1  0  0  3  0  0  0  0  0  0
  160.2950  211.3830  151.0700 N   0  0  0  0  0  0  0  0  0  0  0  0
  157.2790  209.9720  154.4470 C   0  0  0  0  0  1  0  0  0  0  0  0
  160.3010  211.2160  154.9330 C   0  0  2  0  0  3  0  0  0  0  0  0
  160.6450  212.0690  157.2610 C   0  0  0  0  0  2  0  0  0  0  0  0
  157.9740  211.1890  153.8470 C   0  0  2  0  0  0  0  0  0  0  0  0
  161.2280  212.0040  155.8510 C   0  0  0  0  0  2  0  0  0  0  0  0
  161.0100  210.1240  150.8120 C   0  0  0  0  0  2  0  0  0  0  0  0
  160.8960  211.1470  153.5220 C   0  0  1  0  0  3  0  0  0  0  0  0
  159.2540  212.7100  157.2590 C   0  0  1  0  0  3  0  0  0  0  0  0
  161.6130  209.8120  153.2300 C   0  0  1  0  0  3  0  0  0  0  0  0
  158.0150  214.4530  156.6900 C   0  0  0  0  0  1  0  0  0  0  0  0
  159.3390  214.0530  156.8820 O   0  0  0  0  0  0  0  0  0  0  0  0
  157.1680  213.3830  153.4430 O   0  0  0  0  0  0  0  0  0  0  0  0
  156.9250  212.1870  153.4540 C   0  0  0  0  0  3  0  0  0  0  0  0
  160.7320  208.5480  153.4400 C   0  0  2  0  0  3  0  0  0  0  0  0
  159.8780  207.2840  155.3330 O   0  0  0  0  0  1  0  0  0  0  0  0
  161.8750  208.5510  155.6900 C   0  0  0  0  0  1  0  0  0  0  0  0
  161.0450  207.7400  154.7120 C   0  0  2  0  0  3  0  0  0  0  0  0
  160.5640  207.7490  152.2810 O   0  0  0  0  0  0  0  0  0  0  0  0
  161.2840  206.5510  152.4340 C   0  0  0  0  0  2  0  0  0  0  0  0
  161.0880  204.3930  149.2760 C   0  0  0  0  0  1  0  0  0  0  0  0
  161.5670  205.9520  151.0960 C   0  0  0  0  0  3  0  0  0  0  0  0
  160.7960  204.9820  150.6160 C   0  0  0  0  0  3  0  0  0  0  0  0
  161.1780  212.5070  150.7800 C   0  0  0  0  0  2  0  0  0  0  0  0
  160.1920  214.0100  150.4730 S   0  0  0  0  0  0  0  0  0  0  0  0
  159.2440  213.3730  147.9300 C   0  0  0  0  0  2  0  0  0  0  0  0
  160.4290  214.0230  148.6610 C   0  0  0  0  0  3  0  0  0  0  0  0
  161.8090  213.4510  148.2850 C   0  0  0  0  0  2  0  0  0  0  0  0
  161.5010  213.1200  145.7650 C   0  0  0  0  0  2  0  0  0  0  0  0
  160.4400  214.2240  145.8040 C   0  0  0  0  0  2  0  0  0  0  0  0
  161.7770  212.4580  147.1180 C   0  0  0  0  0  2  0  0  0  0  0  0
  159.1200  213.7980  146.4600 C   0  0  0  0  0  2  0  0  0  0  0  0
  1 10  1  0  0  0  0
  2 15  1  0  0  0  0
  3 14  1  0  0  0  0
  4  1  1  6  0  0  0
  4 13  1  0  0  0  0
  5  8  1  0  0  0  0
  5  3  1  1  0  0  0
  6  4  1  0  0  0  0
  8 11  1  1  0  0  0
 10  7  1  1  0  0  0
 10  5  1  0  0  0  0
 11  9  1  0  0  0  0
 12  6  1  0  0  0  0
 12  2  1  0  0  0  0
 13  8  1  0  0  0  0
 14  9  1  0  0  0  0
 15 20  1  0  0  0  0
 15 13  1  0  0  0  0
 16 17  1  0  0  0  0
 17 14  1  0  0  0  0
 18 19  2  0  0  0  0
 19 10  1  0  0  0  0
 20 23  1  0  0  0  0
 23 21  1  0  0  0  0
 23 22  1  0  0  0  0
 24 25  1  0  0  0  0
 24 20  1  0  0  0  0
 26 28  1  0  0  0  0
 27 25  1  0  0  0  0
 28 27  2  0  0  0  0
 29  6  1  0  0  0  0
 30 29  1  0  0  0  0
 31 32  1  0  0  0  0
 32 30  1  0  0  0  0
 33 32  1  0  0  0  0
 34 35  1  0  0  0  0
 34 36  1  0  0  0  0
 35 37  1  0  0  0  0
 36 33  1  0  0  0  0
 37 31  1  0  0  0  0
M  END
>  <MODEL>
4

>  <REMARK>
 VINA RESULT:      -2.3      2.354      6.065
  Name = 
  10 active torsions:
  status: ('A' for Active; 'I' for Inactive)
    1  A    between atoms: C_1  and  C_23
    2  A    between atoms: C_1  and  O_33
    3  A    between atoms: C_1  and  C_36
    4  A    between atoms: C_6  and  S_31
    5  A    between atoms: N_14  and  C_37
    6  A    between atoms: C_17  and  C_26
    7  A    between atoms: C_17  and  O_33
    8  A    between atoms: C_24  and  C_28
    9  A    between atoms: O_30  and  C_32
   10  A    between atoms: S_31  and  C_37
                            x       y       z     vdW  Elec       q    Type
                         _______ _______ _______ _____ _____    ______ ____

>  <TORSDO>
F 10

$$$$
=
 OpenBabel11062409133D

 37 40  0  0  1  0  0  0  0  0999 V2000
  161.8670  209.3640  154.1790 O   0  0  0  0  0  0  0  0  0  0  0  0
  160.9990  208.5070  150.6800 C   0  0  0  0  0  2  0  0  0  0  0  0
  159.1280  211.4780  155.8960 C   0  0  0  0  0  2  0  0  0  0  0  0
  160.9290  208.4990  153.5840 C   0  0  2  0  0  3  0  0  0  0  0  0
  159.7260  210.3420  155.0540 C   0  0  1  0  0  3  0  0  0  0  0  0
  161.5890  207.4110  152.8480 N   0  0  0  0  0  0  0  0  0  0  0  0
  161.9770  211.4740  155.2620 C   0  0  0  0  0  1  0  0  0  0  0  0
  159.3210  210.4560  153.5780 C   0  0  2  0  0  3  0  0  0  0  0  0
  157.2210  211.6360  154.2560 C   0  0  0  0  0  2  0  0  0  0  0  0
  161.2640  210.1270  155.2250 C   0  0  2  0  0  0  0  0  0  0  0  0
  157.8040  210.4810  153.4460 C   0  0  0  0  0  2  0  0  0  0  0  0
  162.0840  207.8380  151.5310 C   0  0  0  0  0  2  0  0  0  0  0  0
  159.9000  209.3010  152.7550 C   0  0  1  0  0  3  0  0  0  0  0  0
  157.6080  211.5300  155.7350 C   0  0  1  0  0  3  0  0  0  0  0  0
  160.4590  209.7480  151.3880 C   0  0  1  0  0  3  0  0  0  0  0  0
  155.7060  210.7880  156.5900 C   0  0  0  0  0  1  0  0  0  0  0  0
  157.0190  210.4010  156.3100 O   0  0  0  0  0  0  0  0  0  0  0  0
  162.5440  209.5820  157.1460 O   0  0  0  0  0  0  0  0  0  0  0  0
  161.4990  209.4320  156.5340 C   0  0  0  0  0  3  0  0  0  0  0  0
  161.5370  210.8660  151.4670 C   0  0  2  0  0  3  0  0  0  0  0  0
  160.4470  212.6200  152.7480 O   0  0  0  0  0  1  0  0  0  0  0  0
  159.9490  212.5190  150.4120 C   0  0  0  0  0  1  0  0  0  0  0  0
  160.9850  212.3030  151.4990 C   0  0  2  0  0  3  0  0  0  0  0  0
  162.6310  210.6920  150.5820 O   0  0  0  0  0  0  0  0  0  0  0  0
  162.1690  210.7550  149.2540 C   0  0  0  0  0  2  0  0  0  0  0  0
  162.5840  213.6640  146.7980 C   0  0  0  0  0  1  0  0  0  0  0  0
  162.5530  212.0610  148.6430 C   0  0  0  0  0  3  0  0  0  0  0  0
  162.1950  212.3530  147.3980 C   0  0  0  0  0  3  0  0  0  0  0  0
  160.6390  206.3180  152.6740 C   0  0  0  0  0  2  0  0  0  0  0  0
  161.4810  204.7180  152.9160 S   0  0  0  0  0  0  0  0  0  0  0  0
  160.4720  205.0300  150.3370 C   0  0  0  0  0  2  0  0  0  0  0  0
  161.5250  204.2600  151.1470 C   0  0  0  0  0  3  0  0  0  0  0  0
  161.4760  202.7290  150.9760 C   0  0  0  0  0  2  0  0  0  0  0  0
  160.9830  202.5590  148.4700 C   0  0  0  0  0  2  0  0  0  0  0  0
  161.6320  203.9360  148.3040 C   0  0  0  0  0  2  0  0  0  0  0  0
  160.5040  202.2530  149.8920 C   0  0  0  0  0  2  0  0  0  0  0  0
  160.7800  205.0970  148.8340 C   0  0  0  0  0  2  0  0  0  0  0  0
  1 10  1  0  0  0  0
  2 15  1  0  0  0  0
  2 12  1  0  0  0  0
  4  1  1  6  0  0  0
  5 10  1  0  0  0  0
  5  3  1  1  0  0  0
  6  4  1  0  0  0  0
  8 11  1  1  0  0  0
  8  5  1  0  0  0  0
  9 14  1  0  0  0  0
 10  7  1  1  0  0  0
 10 19  1  0  0  0  0
 11  9  1  0  0  0  0
 12  6  1  0  0  0  0
 13  8  1  0  0  0  0
 13  4  1  0  0  0  0
 14  3  1  0  0  0  0
 14 17  1  0  0  0  0
 15 20  1  0  0  0  0
 15 13  1  0  0  0  0
 17 16  1  0  0  0  0
 19 18  2  0  0  0  0
 20 23  1  0  0  0  0
 22 23  1  0  0  0  0
 23 21  1  0  0  0  0
 24 20  1  0  0  0  0
 25 24  1  0  0  0  0
 26 28  1  0  0  0  0
 27 25  1  0  0  0  0
 28 27  2  0  0  0  0
 29  6  1  0  0  0  0
 29 30  1  0  0  0  0
 31 32  1  0  0  0  0
 32 30  1  0  0  0  0
 33 32  1  0  0  0  0
 34 36  1  0  0  0  0
 35 34  1  0  0  0  0
 35 37  1  0  0  0  0
 36 33  1  0  0  0  0
 37 31  1  0  0  0  0
M  END
>  <MODEL>
5

>  <REMARK>
 VINA RESULT:      -0.7      1.688      2.457
  Name = 
  10 active torsions:
  status: ('A' for Active; 'I' for Inactive)
    1  A    between atoms: C_1  and  C_23
    2  A    between atoms: C_1  and  O_33
    3  A    between atoms: C_1  and  C_36
    4  A    between atoms: C_6  and  S_31
    5  A    between atoms: N_14  and  C_37
    6  A    between atoms: C_17  and  C_26
    7  A    between atoms: C_17  and  O_33
    8  A    between atoms: C_24  and  C_28
    9  A    between atoms: O_30  and  C_32
   10  A    between atoms: S_31  and  C_37
                            x       y       z     vdW  Elec       q    Type
                         _______ _______ _______ _____ _____    ______ ____

>  <TORSDO>
F 10

$$$$
