=
 OpenBabel11062409483D

 34 37  0  0  1  0  0  0  0  0999 V2000
  161.0240  209.7740  153.9380 C   0  0  1  0  0  0  0  0  0  0  0  0
  157.9090  210.3550  155.6010 C   0  0  0  0  0  2  0  0  0  0  0  0
  160.1130  209.3700  156.1440 C   0  0  1  0  0  3  0  0  0  0  0  0
  162.1740  210.4870  153.2220 C   0  0  0  0  0  1  0  0  0  0  0  0
  161.4010  209.2700  155.3380 C   0  0  2  0  0  3  0  0  0  0  0  0
  157.2580  211.7160  155.8260 C   0  0  0  0  0  2  0  0  0  0  0  0
  157.6050  212.7570  154.7450 C   0  0  1  0  0  3  0  0  0  0  0  0
  159.0920  213.1160  154.6250 C   0  0  0  0  0  2  0  0  0  0  0  0
  159.3650  210.5060  155.5790 N   0  0  1  0  0  0  0  0  0  0  0  0
  159.9300  212.1310  153.7950 C   0  0  0  0  0  2  0  0  0  0  0  0
  159.7700  210.6480  154.1830 C   0  0  1  0  0  3  0  0  0  0  0  0
  156.7960  212.7970  153.4340 C   0  0  0  0  0  3  0  0  0  0  0  0
  155.4090  213.3710  153.6620 C   0  0  0  0  0  2  0  0  0  0  0  0
  156.4610  214.2030  152.9610 C   0  0  0  0  0  2  0  0  0  0  0  0
  162.2700  211.4370  156.4090 C   0  0  0  0  0  1  0  0  0  0  0  0
  162.5770  209.9950  156.0280 C   0  0  0  0  0  3  0  0  0  0  0  0
  163.0280  209.2290  157.2570 C   0  0  0  0  0  1  0  0  0  0  0  0
  159.4030  208.0740  156.0870 C   0  0  0  0  0  0  0  0  0  0  0  0
  158.8320  207.0110  156.0400 C   0  0  0  0  0  3  0  0  0  0  0  0
  160.6660  208.5330  153.1120 C   0  0  0  0  0  2  0  0  0  0  0  0
  161.6880  208.1870  152.1270 N   0  0  0  0  0  0  0  0  0  0  0  0
  160.9640  207.9930  150.8790 C   0  0  0  0  0  2  0  0  0  0  0  0
  161.6440  205.9090  147.2790 C   0  0  2  0  0  3  0  0  0  0  0  0
  161.2190  205.1220  148.4450 N   0  0  0  0  0  2  0  0  0  0  0  0
  160.6070  205.9930  149.4510 C   0  0  0  0  0  2  0  0  0  0  0  0
  162.4130  207.6370  148.9120 C   0  0  0  0  0  3  0  0  0  0  0  0
  161.6580  206.9500  150.0210 C   0  0  1  0  0  3  0  0  0  0  0  0
  162.4110  207.1580  147.6620 C   0  0  0  0  0  3  0  0  0  0  0  0
  160.4880  206.1830  146.3110 C   0  0  0  0  0  2  0  0  0  0  0  0
  160.8720  204.4800  144.7550 C   0  0  0  0  0  1  0  0  0  0  0  0
  160.8690  205.9200  144.9300 N   0  0  0  0  0  2  0  0  0  0  0  0
  162.2400  206.8930  152.5070 C   0  0  0  0  0  2  0  0  0  0  0  0
  161.0810  204.7240  152.8810 C   0  0  0  0  0  1  0  0  0  0  0  0
  161.2510  206.1410  153.3850 C   0  0  0  0  0  2  0  0  0  0  0  0
  1  4  1  6  0  0  0
  1 11  1  0  0  0  0
  1  5  1  0  0  0  0
  2  6  1  0  0  0  0
  3 18  1  6  0  0  0
  5 16  1  1  0  0  0
  5  3  1  0  0  0  0
  7 12  1  6  0  0  0
  7  6  1  0  0  0  0
  8  7  1  0  0  0  0
  9  2  1  6  0  0  0
  9  3  1  0  0  0  0
 10  8  1  0  0  0  0
 11 10  1  1  0  0  0
 11  9  1  0  0  0  0
 12 13  1  0  0  0  0
 14 12  1  0  0  0  0
 14 13  1  0  0  0  0
 16 15  1  0  0  0  0
 16 17  1  0  0  0  0
 19 18  3  0  0  0  0
 20  1  1  0  0  0  0
 21 32  1  0  0  0  0
 21 20  1  0  0  0  0
 22 21  1  0  0  0  0
 23 29  1  1  0  0  0
 23 28  1  0  0  0  0
 23 24  1  0  0  0  0
 24 25  1  0  0  0  0
 25 27  1  0  0  0  0
 26 27  1  0  0  0  0
 27 22  1  6  0  0  0
 28 26  2  0  0  0  0
 30 31  1  0  0  0  0
 31 29  1  0  0  0  0
 32 34  1  0  0  0  0
 33 34  1  0  0  0  0
M  END
>  <MODEL>
1

>  <REMARK>
 VINA RESULT:      -5.1      0.000      0.000
  Name = 
  11 active torsions:
  status: ('A' for Active; 'I' for Inactive)
    1  A    between atoms: C_1  and  C_8
    2  A    between atoms: C_3  and  C_25
    3  A    between atoms: C_5  and  C_19
    4  A    between atoms: C_6  and  N_18
    5  A    between atoms: C_6  and  C_28
    6  A    between atoms: C_7  and  C_11
    7  A    between atoms: C_8  and  N_18
    8  A    between atoms: C_11  and  N_21
    9  A    between atoms: C_12  and  C_20
   10  A    between atoms: N_18  and  C_30
   11  A    between atoms: C_30  and  C_31
                            x       y       z     vdW  Elec       q    Type
                         _______ _______ _______ _____ _____    ______ ____

>  <TORSDO>
F 11

$$$$
=
 OpenBabel11062409483D

 34 37  0  0  1  0  0  0  0  0999 V2000
  159.8200  211.3280  154.1360 C   0  0  1  0  0  0  0  0  0  0  0  0
  156.9300  213.0550  152.9220 C   0  0  0  0  0  2  0  0  0  0  0  0
  158.0590  212.6850  155.0940 C   0  0  1  0  0  3  0  0  0  0  0  0
  161.3420  211.2540  153.9970 C   0  0  0  0  0  1  0  0  0  0  0  0
  159.3620  211.9810  155.4480 C   0  0  2  0  0  3  0  0  0  0  0  0
  156.9300  214.1790  151.8910 C   0  0  0  0  0  2  0  0  0  0  0  0
  158.0920  214.0970  150.8830 C   0  0  1  0  0  3  0  0  0  0  0  0
  159.4990  214.1990  151.4850 C   0  0  0  0  0  2  0  0  0  0  0  0
  158.1820  213.0850  153.6810 N   0  0  1  0  0  0  0  0  0  0  0  0
  160.0510  212.8870  152.0670 C   0  0  0  0  0  2  0  0  0  0  0  0
  159.1060  212.1550  153.0400 C   0  0  1  0  0  3  0  0  0  0  0  0
  157.9590  213.2060  149.6330 C   0  0  0  0  0  3  0  0  0  0  0  0
  156.5440  213.2380  149.0840 C   0  0  0  0  0  2  0  0  0  0  0  0
  157.6490  213.9760  148.3590 C   0  0  0  0  0  2  0  0  0  0  0  0
  159.7510  214.2290  156.6280 C   0  0  0  0  0  1  0  0  0  0  0  0
  160.3730  212.9340  156.1220 C   0  0  0  0  0  3  0  0  0  0  0  0
  161.0880  212.2340  157.2610 C   0  0  0  0  0  1  0  0  0  0  0  0
  156.9250  211.7800  155.3810 C   0  0  0  0  0  0  0  0  0  0  0  0
  155.9990  211.0380  155.6070 C   0  0  0  0  0  3  0  0  0  0  0  0
  159.2900  209.8890  154.1610 C   0  0  0  0  0  2  0  0  0  0  0  0
  160.2060  208.9530  154.8050 N   0  0  0  0  0  0  0  0  0  0  0  0
  160.0610  207.7070  154.0660 C   0  0  0  0  0  2  0  0  0  0  0  0
  161.8160  206.4700  150.4390 C   0  0  2  0  0  3  0  0  0  0  0  0
  162.3130  205.8500  151.6760 N   0  0  0  0  0  2  0  0  0  0  0  0
  161.3430  206.0290  152.7600 C   0  0  0  0  0  2  0  0  0  0  0  0
  161.0100  208.3470  151.8790 C   0  0  0  0  0  3  0  0  0  0  0  0
  161.2300  207.5140  153.1160 C   0  0  1  0  0  3  0  0  0  0  0  0
  161.2840  207.8710  150.6580 C   0  0  0  0  0  3  0  0  0  0  0  0
  160.8360  205.5620  149.6880 C   0  0  0  0  0  2  0  0  0  0  0  0
  161.3160  205.8250  147.4140 C   0  0  0  0  0  1  0  0  0  0  0  0
  160.3680  206.1790  148.4550 N   0  0  0  0  0  2  0  0  0  0  0  0
  159.7070  208.7110  156.1530 C   0  0  0  0  0  2  0  0  0  0  0  0
  162.1470  208.8980  156.6000 C   0  0  0  0  0  1  0  0  0  0  0  0
  160.8470  208.2740  157.0610 C   0  0  0  0  0  2  0  0  0  0  0  0
  1  4  1  6  0  0  0
  1 20  1  0  0  0  0
  1  5  1  0  0  0  0
  3 18  1  6  0  0  0
  3  5  1  0  0  0  0
  5 16  1  6  0  0  0
  6  2  1  0  0  0  0
  7 12  1  1  0  0  0
  7  8  1  0  0  0  0
  7  6  1  0  0  0  0
  8 10  1  0  0  0  0
  9  2  1  6  0  0  0
  9  3  1  0  0  0  0
 11 10  1  1  0  0  0
 11  9  1  0  0  0  0
 11  1  1  0  0  0  0
 13 12  1  0  0  0  0
 14 13  1  0  0  0  0
 14 12  1  0  0  0  0
 16 15  1  0  0  0  0
 16 17  1  0  0  0  0
 18 19  3  0  0  0  0
 20 21  1  0  0  0  0
 21 32  1  0  0  0  0
 22 21  1  0  0  0  0
 23 29  1  1  0  0  0
 23 28  1  0  0  0  0
 23 24  1  0  0  0  0
 24 25  1  0  0  0  0
 25 27  1  0  0  0  0
 26 27  1  0  0  0  0
 27 22  1  1  0  0  0
 28 26  2  0  0  0  0
 30 31  1  0  0  0  0
 31 29  1  0  0  0  0
 32 34  1  0  0  0  0
 33 34  1  0  0  0  0
M  END
>  <MODEL>
2

>  <REMARK>
 VINA RESULT:      -4.7      1.956      3.692
  Name = 
  11 active torsions:
  status: ('A' for Active; 'I' for Inactive)
    1  A    between atoms: C_1  and  C_8
    2  A    between atoms: C_3  and  C_25
    3  A    between atoms: C_5  and  C_19
    4  A    between atoms: C_6  and  N_18
    5  A    between atoms: C_6  and  C_28
    6  A    between atoms: C_7  and  C_11
    7  A    between atoms: C_8  and  N_18
    8  A    between atoms: C_11  and  N_21
    9  A    between atoms: C_12  and  C_20
   10  A    between atoms: N_18  and  C_30
   11  A    between atoms: C_30  and  C_31
                            x       y       z     vdW  Elec       q    Type
                         _______ _______ _______ _____ _____    ______ ____

>  <TORSDO>
F 11

$$$$
=
 OpenBabel11062409483D

 34 37  0  0  1  0  0  0  0  0999 V2000
  160.3430  210.7360  153.9250 C   0  0  1  0  0  0  0  0  0  0  0  0
  157.2890  212.4670  153.2260 C   0  0  0  0  0  2  0  0  0  0  0  0
  158.6310  211.8590  155.2160 C   0  0  1  0  0  3  0  0  0  0  0  0
  161.8470  210.7570  153.6430 C   0  0  0  0  0  1  0  0  0  0  0  0
  159.9870  211.1790  155.3500 C   0  0  2  0  0  3  0  0  0  0  0  0
  157.1510  213.7210  152.3690 C   0  0  0  0  0  2  0  0  0  0  0  0
  158.2150  213.8360  151.2600 C   0  0  1  0  0  3  0  0  0  0  0  0
  159.6680  213.9240  151.7450 C   0  0  0  0  0  2  0  0  0  0  0  0
  158.6050  212.4550  153.8680 N   0  0  1  0  0  0  0  0  0  0  0  0
  160.3200  212.5740  152.0840 C   0  0  0  0  0  2  0  0  0  0  0  0
  159.4990  211.6690  153.0230 C   0  0  1  0  0  3  0  0  0  0  0  0
  157.9980  213.1190  149.9140 C   0  0  0  0  0  3  0  0  0  0  0  0
  156.5920  213.3510  149.3900 C   0  0  0  0  0  2  0  0  0  0  0  0
  157.7610  214.0630  148.7460 C   0  0  0  0  0  2  0  0  0  0  0  0
  160.4020  213.2550  156.8050 C   0  0  0  0  0  1  0  0  0  0  0  0
  161.0210  212.0800  156.0610 C   0  0  0  0  0  3  0  0  0  0  0  0
  161.8710  211.2640  157.0150 C   0  0  0  0  0  1  0  0  0  0  0  0
  157.5630  210.8680  155.4710 C   0  0  0  0  0  0  0  0  0  0  0  0
  156.6990  210.0510  155.6820 C   0  0  0  0  0  3  0  0  0  0  0  0
  159.8710  209.2820  153.7920 C   0  0  0  0  0  2  0  0  0  0  0  0
  160.9720  208.3350  153.6450 N   0  0  0  0  0  0  0  0  0  0  0  0
  160.4540  207.2780  152.7870 C   0  0  0  0  0  2  0  0  0  0  0  0
  161.8420  206.4690  148.8910 C   0  0  2  0  0  3  0  0  0  0  0  0
  161.8750  205.3660  149.8610 N   0  0  0  0  0  2  0  0  0  0  0  0
  160.9790  205.6520  150.9860 C   0  0  0  0  0  2  0  0  0  0  0  0
  161.8160  208.0060  150.8610 C   0  0  0  0  0  3  0  0  0  0  0  0
  161.5070  206.8510  151.7790 C   0  0  1  0  0  3  0  0  0  0  0  0
  161.9750  207.8290  149.5430 C   0  0  0  0  0  3  0  0  0  0  0  0
  160.6460  206.3690  147.9390 C   0  0  0  0  0  2  0  0  0  0  0  0
  160.2990  206.3090  145.6270 C   0  0  0  0  0  1  0  0  0  0  0  0
  160.9860  205.6480  146.7200 N   0  0  0  0  0  2  0  0  0  0  0  0
  161.2140  207.7410  154.9540 C   0  0  0  0  0  2  0  0  0  0  0  0
  160.0660  207.3790  157.1310 C   0  0  0  0  0  1  0  0  0  0  0  0
  159.8920  207.4050  155.6280 C   0  0  0  0  0  2  0  0  0  0  0  0
  1  4  1  6  0  0  0
  1  5  1  0  0  0  0
  3  5  1  0  0  0  0
  3 18  1  6  0  0  0
  5 16  1  6  0  0  0
  6  2  1  0  0  0  0
  7 12  1  6  0  0  0
  7  8  1  0  0  0  0
  7  6  1  0  0  0  0
  8 10  1  0  0  0  0
  9  2  1  6  0  0  0
  9  3  1  0  0  0  0
 11 10  1  1  0  0  0
 11  9  1  0  0  0  0
 11  1  1  0  0  0  0
 13 12  1  0  0  0  0
 14 13  1  0  0  0  0
 14 12  1  0  0  0  0
 16 15  1  0  0  0  0
 16 17  1  0  0  0  0
 18 19  3  0  0  0  0
 20  1  1  0  0  0  0
 21 20  1  0  0  0  0
 21 32  1  0  0  0  0
 22 21  1  0  0  0  0
 23 29  1  1  0  0  0
 23 28  1  0  0  0  0
 23 24  1  0  0  0  0
 24 25  1  0  0  0  0
 25 27  1  0  0  0  0
 26 27  1  0  0  0  0
 27 22  1  1  0  0  0
 28 26  2  0  0  0  0
 30 31  1  0  0  0  0
 31 29  1  0  0  0  0
 32 34  1  0  0  0  0
 34 33  1  0  0  0  0
M  END
>  <MODEL>
3

>  <REMARK>
 VINA RESULT:      -4.4      1.832      2.756
  Name = 
  11 active torsions:
  status: ('A' for Active; 'I' for Inactive)
    1  A    between atoms: C_1  and  C_8
    2  A    between atoms: C_3  and  C_25
    3  A    between atoms: C_5  and  C_19
    4  A    between atoms: C_6  and  N_18
    5  A    between atoms: C_6  and  C_28
    6  A    between atoms: C_7  and  C_11
    7  A    between atoms: C_8  and  N_18
    8  A    between atoms: C_11  and  N_21
    9  A    between atoms: C_12  and  C_20
   10  A    between atoms: N_18  and  C_30
   11  A    between atoms: C_30  and  C_31
                            x       y       z     vdW  Elec       q    Type
                         _______ _______ _______ _____ _____    ______ ____

>  <TORSDO>
F 11

$$$$
=
 OpenBabel11062409483D

 34 37  0  0  1  0  0  0  0  0999 V2000
  160.0390  211.0390  154.1390 C   0  0  1  0  0  0  0  0  0  0  0  0
  156.9920  212.6290  153.1420 C   0  0  0  0  0  2  0  0  0  0  0  0
  158.1700  212.1010  155.2530 C   0  0  1  0  0  3  0  0  0  0  0  0
  161.5610  211.1230  153.9950 C   0  0  0  0  0  1  0  0  0  0  0  0
  159.5360  211.4810  155.5200 C   0  0  2  0  0  3  0  0  0  0  0  0
  156.8790  213.8670  152.2570 C   0  0  0  0  0  2  0  0  0  0  0  0
  158.0350  214.0170  151.2490 C   0  0  1  0  0  3  0  0  0  0  0  0
  159.4320  214.1730  151.8620 C   0  0  0  0  0  2  0  0  0  0  0  0
  158.2430  212.6810  153.9010 N   0  0  1  0  0  0  0  0  0  0  0  0
  160.1070  212.8560  152.2780 C   0  0  0  0  0  2  0  0  0  0  0  0
  159.2430  211.9260  153.1520 C   0  0  1  0  0  3  0  0  0  0  0  0
  157.9720  213.2780  149.8980 C   0  0  0  0  0  3  0  0  0  0  0  0
  156.6260  213.4790  149.2250 C   0  0  0  0  0  2  0  0  0  0  0  0
  157.8470  214.2010  148.6970 C   0  0  0  0  0  2  0  0  0  0  0  0
  159.7160  213.5150  157.0780 C   0  0  0  0  0  1  0  0  0  0  0  0
  160.4610  212.4330  156.3090 C   0  0  0  0  0  3  0  0  0  0  0  0
  161.3460  211.6510  157.2600 C   0  0  0  0  0  1  0  0  0  0  0  0
  157.1270  211.0670  155.4250 C   0  0  0  0  0  0  0  0  0  0  0  0
  156.2690  210.2280  155.5580 C   0  0  0  0  0  3  0  0  0  0  0  0
  159.6430  209.5660  153.9850 C   0  0  0  0  0  2  0  0  0  0  0  0
  160.7590  208.7120  153.5870 N   0  0  0  0  0  0  0  0  0  0  0  0
  160.4250  208.2460  152.2490 C   0  0  0  0  0  2  0  0  0  0  0  0
  162.3800  210.0160  148.9610 C   0  0  2  0  0  3  0  0  0  0  0  0
  162.1990  208.5570  148.9340 N   0  0  0  0  0  2  0  0  0  0  0  0
  161.1500  208.1580  149.8760 C   0  0  0  0  0  2  0  0  0  0  0  0
  162.1150  209.8540  151.4410 C   0  0  0  0  0  3  0  0  0  0  0  0
  161.6030  208.4420  151.3100 C   0  0  1  0  0  3  0  0  0  0  0  0
  162.4750  210.5690  150.3670 C   0  0  0  0  0  3  0  0  0  0  0  0
  161.3490  210.7450  148.0930 C   0  0  0  0  0  2  0  0  0  0  0  0
  162.6070  212.6350  147.5310 C   0  0  0  0  0  1  0  0  0  0  0  0
  161.4320  212.1900  148.2580 N   0  0  0  0  0  2  0  0  0  0  0  0
  160.7490  207.5460  154.4610 C   0  0  0  0  0  2  0  0  0  0  0  0
  160.1470  207.3560  156.8670 C   0  0  0  0  0  1  0  0  0  0  0  0
  161.1260  207.9520  155.8780 C   0  0  0  0  0  2  0  0  0  0  0  0
  1  4  1  6  0  0  0
  1  5  1  0  0  0  0
  3 18  1  6  0  0  0
  3  5  1  0  0  0  0
  5 16  1  6  0  0  0
  6  2  1  0  0  0  0
  7 12  1  6  0  0  0
  7  8  1  0  0  0  0
  7  6  1  0  0  0  0
  8 10  1  0  0  0  0
  9  2  1  6  0  0  0
  9  3  1  0  0  0  0
 11 10  1  1  0  0  0
 11  9  1  0  0  0  0
 11  1  1  0  0  0  0
 13 12  1  0  0  0  0
 14 13  1  0  0  0  0
 14 12  1  0  0  0  0
 16 15  1  0  0  0  0
 16 17  1  0  0  0  0
 18 19  3  0  0  0  0
 20  1  1  0  0  0  0
 21 20  1  0  0  0  0
 21 32  1  0  0  0  0
 22 21  1  0  0  0  0
 23 29  1  1  0  0  0
 23 28  1  0  0  0  0
 24 23  1  0  0  0  0
 24 25  1  0  0  0  0
 25 27  1  0  0  0  0
 27 26  1  0  0  0  0
 27 22  1  1  0  0  0
 28 26  2  0  0  0  0
 29 31  1  0  0  0  0
 30 31  1  0  0  0  0
 32 34  1  0  0  0  0
 34 33  1  0  0  0  0
M  END
>  <MODEL>
4

>  <REMARK>
 VINA RESULT:      -3.6      2.465      3.767
  Name = 
  11 active torsions:
  status: ('A' for Active; 'I' for Inactive)
    1  A    between atoms: C_1  and  C_8
    2  A    between atoms: C_3  and  C_25
    3  A    between atoms: C_5  and  C_19
    4  A    between atoms: C_6  and  N_18
    5  A    between atoms: C_6  and  C_28
    6  A    between atoms: C_7  and  C_11
    7  A    between atoms: C_8  and  N_18
    8  A    between atoms: C_11  and  N_21
    9  A    between atoms: C_12  and  C_20
   10  A    between atoms: N_18  and  C_30
   11  A    between atoms: C_30  and  C_31
                            x       y       z     vdW  Elec       q    Type
                         _______ _______ _______ _____ _____    ______ ____

>  <TORSDO>
F 11

$$$$
=
 OpenBabel11062409483D

 34 37  0  0  1  0  0  0  0  0999 V2000
  160.4650  210.5430  153.1160 C   0  0  1  0  0  0  0  0  0  0  0  0
  157.5920  212.6500  152.7750 C   0  0  0  0  0  2  0  0  0  0  0  0
  158.9010  211.6290  154.6110 C   0  0  1  0  0  3  0  0  0  0  0  0
  161.9580  210.4580  152.7900 C   0  0  0  0  0  1  0  0  0  0  0  0
  160.1830  210.8070  154.6010 C   0  0  2  0  0  3  0  0  0  0  0  0
  157.5660  214.0230  152.1110 C   0  0  0  0  0  2  0  0  0  0  0  0
  158.6160  214.1940  150.9960 C   0  0  1  0  0  3  0  0  0  0  0  0
  160.0790  214.0670  151.4390 C   0  0  0  0  0  2  0  0  0  0  0  0
  158.9110  212.4150  153.3640 N   0  0  1  0  0  0  0  0  0  0  0  0
  160.5960  212.6240  151.5590 C   0  0  0  0  0  2  0  0  0  0  0  0
  159.7040  211.6770  152.3860 C   0  0  1  0  0  3  0  0  0  0  0  0
  158.3010  213.7060  149.5680 C   0  0  0  0  0  3  0  0  0  0  0  0
  156.9460  213.0240  149.5080 C   0  0  0  0  0  2  0  0  0  0  0  0
  157.1170  214.4100  148.9250 C   0  0  0  0  0  2  0  0  0  0  0  0
  160.8210  212.4610  156.4600 C   0  0  0  0  0  1  0  0  0  0  0  0
  161.3170  211.4880  155.3990 C   0  0  0  0  0  3  0  0  0  0  0  0
  162.2150  210.4500  156.0410 C   0  0  0  0  0  1  0  0  0  0  0  0
  157.7430  210.7210  154.7570 C   0  0  0  0  0  0  0  0  0  0  0  0
  156.7940  209.9840  154.8690 C   0  0  0  0  0  3  0  0  0  0  0  0
  159.8440  209.1790  152.7920 C   0  0  0  0  0  2  0  0  0  0  0  0
  160.8360  208.1740  152.4180 N   0  0  0  0  0  0  0  0  0  0  0  0
  160.3010  207.5360  151.2240 C   0  0  0  0  0  2  0  0  0  0  0  0
  162.0030  206.4420  147.5260 C   0  0  2  0  0  3  0  0  0  0  0  0
  161.9440  205.4120  148.5730 N   0  0  0  0  0  2  0  0  0  0  0  0
  160.9610  205.7820  149.5950 C   0  0  0  0  0  2  0  0  0  0  0  0
  161.8260  208.1180  149.3710 C   0  0  0  0  0  3  0  0  0  0  0  0
  161.4300  207.0340  150.3410 C   0  0  1  0  0  3  0  0  0  0  0  0
  162.0920  207.8460  148.0870 C   0  0  0  0  0  3  0  0  0  0  0  0
  160.8890  206.2770  146.4870 C   0  0  0  0  0  2  0  0  0  0  0  0
  160.8140  204.5030  144.9640 C   0  0  0  0  0  1  0  0  0  0  0  0
  161.4090  205.8040  145.2110 N   0  0  0  0  0  2  0  0  0  0  0  0
  160.8530  207.1650  153.4700 C   0  0  0  0  0  2  0  0  0  0  0  0
  161.1790  204.7350  153.0490 C   0  0  0  0  0  1  0  0  0  0  0  0
  161.8660  206.0810  153.1360 C   0  0  0  0  0  2  0  0  0  0  0  0
  1  4  1  6  0  0  0
  1  5  1  0  0  0  0
  3 18  1  6  0  0  0
  5  3  1  0  0  0  0
  5 16  1  6  0  0  0
  6  2  1  0  0  0  0
  7 12  1  6  0  0  0
  7  8  1  0  0  0  0
  7  6  1  0  0  0  0
  8 10  1  0  0  0  0
  9  2  1  6  0  0  0
  9  3  1  0  0  0  0
 11 10  1  1  0  0  0
 11  1  1  0  0  0  0
 11  9  1  0  0  0  0
 13 12  1  0  0  0  0
 14 13  1  0  0  0  0
 14 12  1  0  0  0  0
 16 17  1  0  0  0  0
 16 15  1  0  0  0  0
 18 19  3  0  0  0  0
 20  1  1  0  0  0  0
 21 20  1  0  0  0  0
 21 32  1  0  0  0  0
 22 21  1  0  0  0  0
 23 29  1  1  0  0  0
 23 28  1  0  0  0  0
 23 24  1  0  0  0  0
 24 25  1  0  0  0  0
 25 27  1  0  0  0  0
 26 27  1  0  0  0  0
 27 22  1  1  0  0  0
 28 26  2  0  0  0  0
 30 31  1  0  0  0  0
 31 29  1  0  0  0  0
 33 34  1  0  0  0  0
 34 32  1  0  0  0  0
M  END
>  <MODEL>
5

>  <REMARK>
 VINA RESULT:      -3.1      1.744      2.406
  Name = 
  11 active torsions:
  status: ('A' for Active; 'I' for Inactive)
    1  A    between atoms: C_1  and  C_8
    2  A    between atoms: C_3  and  C_25
    3  A    between atoms: C_5  and  C_19
    4  A    between atoms: C_6  and  N_18
    5  A    between atoms: C_6  and  C_28
    6  A    between atoms: C_7  and  C_11
    7  A    between atoms: C_8  and  N_18
    8  A    between atoms: C_11  and  N_21
    9  A    between atoms: C_12  and  C_20
   10  A    between atoms: N_18  and  C_30
   11  A    between atoms: C_30  and  C_31
                            x       y       z     vdW  Elec       q    Type
                         _______ _______ _______ _____ _____    ______ ____

>  <TORSDO>
F 11

$$$$
=
 OpenBabel11062409483D

 34 37  0  0  1  0  0  0  0  0999 V2000
  161.0360  210.0380  154.0450 C   0  0  1  0  0  0  0  0  0  0  0  0
  157.8380  210.3000  155.6290 C   0  0  0  0  0  2  0  0  0  0  0  0
  160.0690  209.3670  156.1600 C   0  0  1  0  0  3  0  0  0  0  0  0
  162.1750  210.8720  153.4520 C   0  0  0  0  0  1  0  0  0  0  0  0
  161.3880  209.4100  155.4000 C   0  0  2  0  0  3  0  0  0  0  0  0
  157.1120  211.6000  155.9640 C   0  0  0  0  0  2  0  0  0  0  0  0
  157.4460  212.7610  155.0080 C   0  0  1  0  0  3  0  0  0  0  0  0
  158.9160  213.1990  154.9860 C   0  0  0  0  0  2  0  0  0  0  0  0
  159.2850  210.5190  155.6810 N   0  0  1  0  0  0  0  0  0  0  0  0
  159.8320  212.3430  154.0960 C   0  0  0  0  0  2  0  0  0  0  0  0
  159.7330  210.8220  154.3250 C   0  0  1  0  0  3  0  0  0  0  0  0
  156.6840  212.8990  153.6760 C   0  0  0  0  0  3  0  0  0  0  0  0
  155.1930  212.6910  153.8730 C   0  0  0  0  0  2  0  0  0  0  0  0
  155.7330  214.0840  153.6310 C   0  0  0  0  0  2  0  0  0  0  0  0
  162.0540  211.4130  156.8650 C   0  0  0  0  0  1  0  0  0  0  0  0
  162.5010  210.1140  156.2080 C   0  0  0  0  0  3  0  0  0  0  0  0
  163.0680  209.1810  157.2600 C   0  0  0  0  0  1  0  0  0  0  0  0
  159.4270  208.0530  155.9430 C   0  0  0  0  0  0  0  0  0  0  0  0
  158.8970  206.9810  155.7740 C   0  0  0  0  0  3  0  0  0  0  0  0
  160.7710  208.8720  153.0840 C   0  0  0  0  0  2  0  0  0  0  0  0
  161.8030  208.7300  152.0600 N   0  0  0  0  0  0  0  0  0  0  0  0
  161.1780  209.1790  150.8240 C   0  0  0  0  0  2  0  0  0  0  0  0
  161.6830  212.3780  148.1260 C   0  0  2  0  0  3  0  0  0  0  0  0
  162.7450  211.3640  148.1770 N   0  0  0  0  0  2  0  0  0  0  0  0
  162.2440  210.1330  148.7940 C   0  0  0  0  0  2  0  0  0  0  0  0
  161.0440  211.6100  150.4170 C   0  0  0  0  0  3  0  0  0  0  0  0
  161.9120  210.3870  150.2670 C   0  0  1  0  0  3  0  0  0  0  0  0
  160.9450  212.5220  149.4410 C   0  0  0  0  0  3  0  0  0  0  0  0
  160.7490  212.1810  146.9280 C   0  0  0  0  0  2  0  0  0  0  0  0
  159.4280  213.1530  145.2610 C   0  0  0  0  0  1  0  0  0  0  0  0
  160.3430  213.4530  146.3460 N   0  0  0  0  0  2  0  0  0  0  0  0
  162.0740  207.3060  151.9080 C   0  0  0  0  0  2  0  0  0  0  0  0
  161.2110  205.1080  152.6900 C   0  0  0  0  0  1  0  0  0  0  0  0
  161.5030  206.5380  153.0910 C   0  0  0  0  0  2  0  0  0  0  0  0
  1  4  1  6  0  0  0
  1 11  1  0  0  0  0
  1  5  1  0  0  0  0
  2  6  1  0  0  0  0
  3 18  1  6  0  0  0
  5  3  1  0  0  0  0
  5 16  1  1  0  0  0
  7 12  1  6  0  0  0
  7  6  1  0  0  0  0
  8  7  1  0  0  0  0
  9  2  1  6  0  0  0
  9  3  1  0  0  0  0
 10  8  1  0  0  0  0
 11 10  1  1  0  0  0
 11  9  1  0  0  0  0
 12 13  1  0  0  0  0
 14 12  1  0  0  0  0
 14 13  1  0  0  0  0
 16 15  1  0  0  0  0
 16 17  1  0  0  0  0
 19 18  3  0  0  0  0
 20  1  1  0  0  0  0
 21 20  1  0  0  0  0
 22 21  1  0  0  0  0
 23 29  1  6  0  0  0
 23 24  1  0  0  0  0
 23 28  1  0  0  0  0
 24 25  1  0  0  0  0
 25 27  1  0  0  0  0
 27 26  1  0  0  0  0
 27 22  1  6  0  0  0
 28 26  2  0  0  0  0
 30 31  1  0  0  0  0
 31 29  1  0  0  0  0
 32 21  1  0  0  0  0
 32 34  1  0  0  0  0
 33 34  1  0  0  0  0
M  END
>  <MODEL>
6

>  <REMARK>
 VINA RESULT:      -3.0      2.637      3.204
  Name = 
  11 active torsions:
  status: ('A' for Active; 'I' for Inactive)
    1  A    between atoms: C_1  and  C_8
    2  A    between atoms: C_3  and  C_25
    3  A    between atoms: C_5  and  C_19
    4  A    between atoms: C_6  and  N_18
    5  A    between atoms: C_6  and  C_28
    6  A    between atoms: C_7  and  C_11
    7  A    between atoms: C_8  and  N_18
    8  A    between atoms: C_11  and  N_21
    9  A    between atoms: C_12  and  C_20
   10  A    between atoms: N_18  and  C_30
   11  A    between atoms: C_30  and  C_31
                            x       y       z     vdW  Elec       q    Type
                         _______ _______ _______ _____ _____    ______ ____

>  <TORSDO>
F 11

$$$$
=
 OpenBabel11062409483D

 34 37  0  0  1  0  0  0  0  0999 V2000
  160.2730  209.6360  153.5710 C   0  0  1  0  0  0  0  0  0  0  0  0
  162.2030  207.9480  151.0740 C   0  0  0  0  0  2  0  0  0  0  0  0
  162.4310  209.9440  152.5190 C   0  0  1  0  0  3  0  0  0  0  0  0
  159.6180  209.4430  154.9410 C   0  0  0  0  0  1  0  0  0  0  0  0
  161.5400  210.5000  153.6220 C   0  0  2  0  0  3  0  0  0  0  0  0
  162.6960  206.5060  151.1510 C   0  0  0  0  0  2  0  0  0  0  0  0
  161.7870  205.5830  151.9850 C   0  0  1  0  0  3  0  0  0  0  0  0
  161.6370  205.9610  153.4640 C   0  0  0  0  0  2  0  0  0  0  0  0
  162.1150  208.5090  152.4240 N   0  0  1  0  0  0  0  0  0  0  0  0
  160.6010  207.0610  153.7480 C   0  0  0  0  0  2  0  0  0  0  0  0
  160.7410  208.3300  152.8850 C   0  0  1  0  0  3  0  0  0  0  0  0
  160.5550  204.9280  151.3300 C   0  0  0  0  0  3  0  0  0  0  0  0
  160.8650  204.4660  149.9170 C   0  0  0  0  0  2  0  0  0  0  0  0
  160.7320  203.4480  151.0290 C   0  0  0  0  0  2  0  0  0  0  0  0
  163.7350  210.9550  154.8770 C   0  0  0  0  0  1  0  0  0  0  0  0
  162.2690  210.5600  154.9830 C   0  0  0  0  0  3  0  0  0  0  0  0
  161.5550  211.5070  155.9280 C   0  0  0  0  0  1  0  0  0  0  0  0
  162.1990  210.7100  151.2760 C   0  0  0  0  0  0  0  0  0  0  0  0
  162.0000  211.3370  150.2630 C   0  0  0  0  0  3  0  0  0  0  0  0
  159.2720  210.3860  152.6840 C   0  0  0  0  0  2  0  0  0  0  0  0
  159.0730  211.7730  153.0930 N   0  0  0  0  0  0  0  0  0  0  0  0
  157.6920  211.8430  153.5480 C   0  0  0  0  0  2  0  0  0  0  0  0
  156.1990  213.1670  157.2610 C   0  0  2  0  0  3  0  0  0  0  0  0
  157.6330  213.3610  157.0020 N   0  0  0  0  0  2  0  0  0  0  0  0
  157.9060  213.2770  155.5650 C   0  0  0  0  0  2  0  0  0  0  0  0
  156.2770  211.3790  155.5170 C   0  0  0  0  0  3  0  0  0  0  0  0
  157.6350  211.8550  155.0660 C   0  0  1  0  0  3  0  0  0  0  0  0
  155.6260  211.9750  156.5240 C   0  0  0  0  0  3  0  0  0  0  0  0
  155.3920  214.4530  157.0510 C   0  0  0  0  0  2  0  0  0  0  0  0
  153.0540  214.4530  157.0200 C   0  0  0  0  0  1  0  0  0  0  0  0
  154.2310  214.2260  156.2020 N   0  0  0  0  0  2  0  0  0  0  0  0
  159.1700  212.5990  151.8960 C   0  0  0  0  0  2  0  0  0  0  0  0
  157.8700  214.0830  150.3810 C   0  0  0  0  0  1  0  0  0  0  0  0
  157.9340  213.4760  151.7660 C   0  0  0  0  0  2  0  0  0  0  0  0
  1  5  1  0  0  0  0
  1  4  1  1  0  0  0
  2  6  1  0  0  0  0
  3 18  1  6  0  0  0
  3  5  1  0  0  0  0
  5 16  1  1  0  0  0
  6  7  1  0  0  0  0
  7 12  1  6  0  0  0
  7  8  1  0  0  0  0
  8 10  1  0  0  0  0
  9  2  1  6  0  0  0
  9  3  1  0  0  0  0
  9 11  1  0  0  0  0
 11  1  1  0  0  0  0
 11 10  1  1  0  0  0
 13 14  1  0  0  0  0
 13 12  1  0  0  0  0
 14 12  1  0  0  0  0
 15 16  1  0  0  0  0
 16 17  1  0  0  0  0
 19 18  3  0  0  0  0
 20 21  1  0  0  0  0
 20  1  1  0  0  0  0
 21 22  1  0  0  0  0
 23 29  1  6  0  0  0
 24 23  1  0  0  0  0
 25 24  1  0  0  0  0
 26 28  2  0  0  0  0
 27 22  1  6  0  0  0
 27 26  1  0  0  0  0
 27 25  1  0  0  0  0
 28 23  1  0  0  0  0
 31 30  1  0  0  0  0
 31 29  1  0  0  0  0
 32 21  1  0  0  0  0
 33 34  1  0  0  0  0
 34 32  1  0  0  0  0
M  END
>  <MODEL>
7

>  <REMARK>
 VINA RESULT:      -3.0      2.622      8.714
  Name = 
  11 active torsions:
  status: ('A' for Active; 'I' for Inactive)
    1  A    between atoms: C_1  and  C_8
    2  A    between atoms: C_3  and  C_25
    3  A    between atoms: C_5  and  C_19
    4  A    between atoms: C_6  and  N_18
    5  A    between atoms: C_6  and  C_28
    6  A    between atoms: C_7  and  C_11
    7  A    between atoms: C_8  and  N_18
    8  A    between atoms: C_11  and  N_21
    9  A    between atoms: C_12  and  C_20
   10  A    between atoms: N_18  and  C_30
   11  A    between atoms: C_30  and  C_31
                            x       y       z     vdW  Elec       q    Type
                         _______ _______ _______ _____ _____    ______ ____

>  <TORSDO>
F 11

$$$$
=
 OpenBabel11062409483D

 34 37  0  0  1  0  0  0  0  0999 V2000
  160.1700  209.0130  154.7010 C   0  0  1  0  0  0  0  0  0  0  0  0
  161.6390  208.5300  151.4730 C   0  0  0  0  0  2  0  0  0  0  0  0
  161.9560  210.0260  153.4190 C   0  0  1  0  0  3  0  0  0  0  0  0
  159.8920  208.3070  156.0310 C   0  0  0  0  0  1  0  0  0  0  0  0
  161.2940  210.0540  154.7900 C   0  0  2  0  0  3  0  0  0  0  0  0
  162.3130  207.2520  150.9820 C   0  0  0  0  0  2  0  0  0  0  0  0
  161.7540  205.9680  151.6250 C   0  0  1  0  0  3  0  0  0  0  0  0
  161.9170  205.8650  153.1470 C   0  0  0  0  0  2  0  0  0  0  0  0
  161.8080  208.6470  152.9230 N   0  0  1  0  0  0  0  0  0  0  0  0
  160.8510  206.6120  153.9640 C   0  0  0  0  0  2  0  0  0  0  0  0
  160.6190  208.0790  153.5510 C   0  0  1  0  0  3  0  0  0  0  0  0
  160.4930  205.3050  151.0380 C   0  0  0  0  0  3  0  0  0  0  0  0
  160.6400  205.0720  149.5450 C   0  0  0  0  0  2  0  0  0  0  0  0
  160.7300  203.9020  150.5010 C   0  0  0  0  0  2  0  0  0  0  0  0
  162.9050  211.1590  156.4580 C   0  0  0  0  0  1  0  0  0  0  0  0
  162.3140  209.8580  155.9330 C   0  0  0  0  0  3  0  0  0  0  0  0
  161.6900  209.0840  157.0780 C   0  0  0  0  0  1  0  0  0  0  0  0
  161.3380  211.0590  152.5600 C   0  0  0  0  0  0  0  0  0  0  0  0
  160.8320  211.8960  151.8520 C   0  0  0  0  0  3  0  0  0  0  0  0
  158.8990  209.7780  154.3120 C   0  0  0  0  0  2  0  0  0  0  0  0
  158.3820  210.6140  155.3910 N   0  0  0  0  0  0  0  0  0  0  0  0
  157.0690  211.0510  154.9410 C   0  0  0  0  0  2  0  0  0  0  0  0
  156.1250  214.4530  152.6390 C   0  0  2  0  0  3  0  0  0  0  0  0
  157.5480  214.1760  152.8820 N   0  0  0  0  0  2  0  0  0  0  0  0
  157.7320  212.7790  153.2860 C   0  0  0  0  0  2  0  0  0  0  0  0
  155.6610  213.0590  154.6610 C   0  0  0  0  0  3  0  0  0  0  0  0
  157.0760  212.5410  154.6490 C   0  0  1  0  0  3  0  0  0  0  0  0
  155.2290  213.9370  153.7460 C   0  0  0  0  0  3  0  0  0  0  0  0
  155.6770  214.0100  151.2430 C   0  0  0  0  0  2  0  0  0  0  0  0
  156.9900  213.2100  149.4810 C   0  0  0  0  0  1  0  0  0  0  0  0
  156.6340  214.4070  150.2190 N   0  0  0  0  0  2  0  0  0  0  0  0
  159.2240  211.8010  155.4660 C   0  0  0  0  0  2  0  0  0  0  0  0
  160.0490  213.5850  156.9910 C   0  0  0  0  0  1  0  0  0  0  0  0
  159.4250  212.2080  156.9180 C   0  0  0  0  0  2  0  0  0  0  0  0
  1  5  1  0  0  0  0
  1  4  1  1  0  0  0
  3 18  1  6  0  0  0
  3  5  1  0  0  0  0
  5 16  1  1  0  0  0
  6  2  1  0  0  0  0
  6  7  1  0  0  0  0
  7 12  1  1  0  0  0
  7  8  1  0  0  0  0
  8 10  1  0  0  0  0
  9  2  1  6  0  0  0
  9  3  1  0  0  0  0
  9 11  1  0  0  0  0
 11 10  1  1  0  0  0
 11  1  1  0  0  0  0
 13 14  1  0  0  0  0
 13 12  1  0  0  0  0
 14 12  1  0  0  0  0
 16 15  1  0  0  0  0
 16 17  1  0  0  0  0
 19 18  3  0  0  0  0
 20  1  1  0  0  0  0
 20 21  1  0  0  0  0
 21 32  1  0  0  0  0
 22 21  1  0  0  0  0
 23 29  1  6  0  0  0
 23 24  1  0  0  0  0
 23 28  1  0  0  0  0
 24 25  1  0  0  0  0
 25 27  1  0  0  0  0
 27 26  1  0  0  0  0
 27 22  1  6  0  0  0
 28 26  2  0  0  0  0
 30 31  1  0  0  0  0
 31 29  1  0  0  0  0
 32 34  1  0  0  0  0
 34 33  1  0  0  0  0
M  END
>  <MODEL>
8

>  <REMARK>
 VINA RESULT:      -3.0      2.384      7.587
  Name = 
  11 active torsions:
  status: ('A' for Active; 'I' for Inactive)
    1  A    between atoms: C_1  and  C_8
    2  A    between atoms: C_3  and  C_25
    3  A    between atoms: C_5  and  C_19
    4  A    between atoms: C_6  and  N_18
    5  A    between atoms: C_6  and  C_28
    6  A    between atoms: C_7  and  C_11
    7  A    between atoms: C_8  and  N_18
    8  A    between atoms: C_11  and  N_21
    9  A    between atoms: C_12  and  C_20
   10  A    between atoms: N_18  and  C_30
   11  A    between atoms: C_30  and  C_31
                            x       y       z     vdW  Elec       q    Type
                         _______ _______ _______ _____ _____    ______ ____

>  <TORSDO>
F 11

$$$$
=
 OpenBabel11062409483D

 34 38  0  0  1  0  0  0  0  0999 V2000
  161.0790  210.0300  154.0540 C   0  0  1  0  0  0  0  0  0  0  0  0
  157.9190  210.2870  155.7150 C   0  0  0  0  0  2  0  0  0  0  0  0
  160.2230  209.5740  156.2720 C   0  0  1  0  0  3  0  0  0  0  0  0
  162.1390  210.8540  153.3180 C   0  0  0  0  0  2  0  0  0  0  0  0
  161.5140  209.6040  155.4630 C   0  0  2  0  0  3  0  0  0  0  0  0
  157.1170  211.5690  155.9120 C   0  0  0  0  0  2  0  0  0  0  0  0
  157.3410  212.6180  154.8060 C   0  0  1  0  0  3  0  0  0  0  0  0
  158.7760  213.1430  154.6730 C   0  0  0  0  0  2  0  0  0  0  0  0
  159.3490  210.6030  155.6840 N   0  0  1  0  0  0  0  0  0  0  0  0
  159.7220  212.2410  153.8620 C   0  0  0  0  0  2  0  0  0  0  0  0
  159.7330  210.7590  154.2840 C   0  0  1  0  0  3  0  0  0  0  0  0
  156.5310  212.5350  153.4970 C   0  0  0  0  0  3  0  0  0  0  0  0
  155.2410  213.3280  153.5990 C   0  0  0  0  0  2  0  0  0  0  0  0
  156.3910  213.8660  152.7760 C   0  0  0  0  0  2  0  0  0  0  0  0
  162.0810  211.8090  156.6520 C   0  0  0  0  0  1  0  0  0  0  0  0
  162.5990  210.4750  156.1330 C   0  0  0  0  0  3  0  0  0  0  0  0
  163.2700  209.7160  157.2610 C   0  0  0  0  0  1  0  0  0  0  0  0
  159.6670  208.2040  156.2460 C   0  0  0  0  0  0  0  0  0  0  0  0
  159.2160  207.0850  156.2150 C   0  0  0  0  0  3  0  0  0  0  0  0
  160.8660  208.7370  153.2570 C   0  0  0  0  0  2  0  0  0  0  0  0
  161.1200  208.8980  151.8280 N   0  0  0  0  0  0  0  0  0  0  0  0
  161.7780  207.6660  151.4170 C   0  0  0  0  0  2  0  0  0  0  0  0
  161.0380  205.0100  148.2290 C   0  0  2  0  0  3  0  0  0  0  0  0
  160.4670  206.3610  148.1280 N   0  0  0  0  0  2  0  0  0  0  0  0
  161.1560  207.2730  149.0450 C   0  0  0  0  0  2  0  0  0  0  0  0
  161.1330  205.3940  150.6960 C   0  0  0  0  0  3  0  0  0  0  0  0
  160.8750  206.8660  150.4940 C   0  0  1  0  0  3  0  0  0  0  0  0
  161.2010  204.5470  149.6610 C   0  0  0  0  0  3  0  0  0  0  0  0
  162.3130  204.8550  147.3940 C   0  0  0  0  0  2  0  0  0  0  0  0
  161.8310  204.1430  145.2190 C   0  0  0  0  0  1  0  0  0  0  0  0
  162.1200  205.3140  146.0250 N   0  0  0  0  0  2  0  0  0  0  0  0
  162.0930  209.9720  151.6760 C   0  0  1  0  0  3  0  0  0  0  0  0
  161.5840  211.5830  149.8500 C   0  0  0  0  0  1  0  0  0  0  0  0
  162.2910  210.2920  150.2020 C   0  0  0  0  0  2  0  0  0  0  0  0
  1 20  1  6  0  0  0
  1 11  1  0  0  0  0
  1  5  1  0  0  0  0
  2  6  1  0  0  0  0
  3 18  1  6  0  0  0
  4  1  1  0  0  0  0
  5 16  1  1  0  0  0
  5  3  1  0  0  0  0
  7 12  1  6  0  0  0
  7  6  1  0  0  0  0
  8  7  1  0  0  0  0
  9  2  1  6  0  0  0
  9  3  1  0  0  0  0
 10  8  1  0  0  0  0
 11 10  1  1  0  0  0
 11  9  1  0  0  0  0
 12 13  1  0  0  0  0
 14 12  1  0  0  0  0
 14 13  1  0  0  0  0
 16 15  1  0  0  0  0
 16 17  1  0  0  0  0
 19 18  3  0  0  0  0
 21 20  1  0  0  0  0
 22 21  1  0  0  0  0
 23 29  1  1  0  0  0
 23 28  1  0  0  0  0
 24 23  1  0  0  0  0
 24 25  1  0  0  0  0
 25 27  1  0  0  0  0
 27 26  1  0  0  0  0
 27 22  1  1  0  0  0
 28 26  2  0  0  0  0
 30 31  1  0  0  0  0
 31 29  1  0  0  0  0
 32 34  1  6  0  0  0
 32 21  1  0  0  0  0
 32  4  1  0  0  0  0
 33 34  1  0  0  0  0
M  END
>  <MODEL>
9

>  <REMARK>
 VINA RESULT:      -2.6      1.143      2.025
  Name = 
  11 active torsions:
  status: ('A' for Active; 'I' for Inactive)
    1  A    between atoms: C_1  and  C_8
    2  A    between atoms: C_3  and  C_25
    3  A    between atoms: C_5  and  C_19
    4  A    between atoms: C_6  and  N_18
    5  A    between atoms: C_6  and  C_28
    6  A    between atoms: C_7  and  C_11
    7  A    between atoms: C_8  and  N_18
    8  A    between atoms: C_11  and  N_21
    9  A    between atoms: C_12  and  C_20
   10  A    between atoms: N_18  and  C_30
   11  A    between atoms: C_30  and  C_31
                            x       y       z     vdW  Elec       q    Type
                         _______ _______ _______ _____ _____    ______ ____

>  <TORSDO>
F 11

$$$$
