=
 OpenBabel11062410213D

 43 49  0  0  1  0  0  0  0  0999 V2000
  155.7550  211.7910  155.4900 N   0  0  0  0  0  2  0  0  0  0  0  0
  160.5950  211.8520  152.7390 C   0  0  2  0  0  3  0  0  0  0  0  0
  157.9450  212.7130  153.5220 C   0  0  1  0  0  3  0  0  0  0  0  0
  156.3410  210.6710  154.7680 C   0  0  0  0  0  2  0  0  0  0  0  0
  155.7040  212.9360  154.5930 C   0  0  0  0  0  2  0  0  0  0  0  0
  158.7140  211.6140  154.3090 C   0  0  1  0  0  3  0  0  0  0  0  0
  157.0810  213.5650  154.4390 C   0  0  0  0  0  2  0  0  0  0  0  0
  157.8340  210.5970  155.0660 C   0  0  0  0  0  2  0  0  0  0  0  0
  160.5420  209.8250  153.9110 C   0  0  0  0  0  2  0  0  0  0  0  0
  159.6260  210.8800  153.3310 C   0  0  2  0  0  3  0  0  0  0  0  0
  159.8610  212.8430  151.8490 C   0  0  0  0  0  2  0  0  0  0  0  0
  161.6490  210.9480  152.1380 C   0  0  1  0  0  3  0  0  0  0  0  0
  161.7970  209.8620  153.1410 N   0  0  2  0  0  0  0  0  0  0  0  0
  158.8970  213.6350  152.7390 C   0  0  0  0  0  2  0  0  0  0  0  0
  160.9270  208.1830  151.5900 C   0  0  1  0  0  3  0  0  0  0  0  0
  160.9380  207.5880  152.9820 C   0  0  0  0  0  2  0  0  0  0  0  0
  162.0410  208.5390  152.5630 C   0  0  2  0  0  3  0  0  0  0  0  0
  161.4360  207.1530  150.5960 C   0  0  0  0  0  2  0  0  0  0  0  0
  160.3210  206.1880  150.1800 C   0  0  2  0  0  3  0  0  0  0  0  0
  160.6380  204.7150  150.4800 C   0  0  1  0  0  3  0  0  0  0  0  0
  160.9940  203.9150  149.2290 C   0  0  0  0  0  2  0  0  0  0  0  0
  161.1090  202.4380  149.5530 C   0  0  0  0  0  2  0  0  0  0  0  0
  159.9190  201.7000  148.9780 C   0  0  0  0  0  1  0  0  0  0  0  0
  161.7470  204.6090  151.5160 C   0  0  0  0  0  2  0  0  0  0  0  0
  160.3300  203.0130  152.5620 F   0  0  0  0  0  0  0  0  0  0  0  0
  161.2190  204.0410  152.8210 C   0  0  0  0  0  2  0  0  0  0  0  0
  160.0230  206.3590  148.8260 O   0  0  0  0  0  0  0  0  0  0  0  0
  161.2030  206.8440  148.2550 C   0  0  0  0  0  2  0  0  0  0  0  0
  161.4140  206.2170  146.9200 C   0  0  0  0  0  0  0  0  0  0  0  0
  160.6340  205.7530  144.7100 N   0  0  0  0  0  0  0  0  0  0  0  0
  162.7220  204.8360  145.4280 C   0  0  0  0  0  3  0  0  0  0  0  0
  161.7410  205.0060  144.4470 C   0  0  0  0  0  3  0  0  0  0  0  0
  162.5530  205.4470  146.6730 C   0  0  0  0  0  3  0  0  0  0  0  0
  160.4500  206.3520  145.9170 C   0  0  0  0  0  3  0  0  0  0  0  0
  161.2190  210.4690  150.7380 C   0  0  0  0  0  2  0  0  0  0  0  0
  160.4430  213.4820  147.5800 C   0  0  0  0  0  2  0  0  0  0  0  0
  163.0010  213.7780  147.5890 C   0  0  2  0  0  3  0  0  0  0  0  0
  161.6220  214.4520  147.4670 C   0  0  1  0  0  3  0  0  0  0  0  0
  162.1970  210.9270  149.7030 C   0  0  0  0  0  3  0  0  0  0  0  0
  160.5770  212.5860  148.8070 C   0  0  0  0  0  2  0  0  0  0  0  0
  161.9180  211.8960  148.8250 C   0  0  0  0  0  0  0  0  0  0  0  0
  162.4290  214.1210  146.2280 C   0  0  0  0  0  2  0  0  0  0  0  0
  162.9490  212.2610  147.8000 C   0  0  0  0  0  2  0  0  0  0  0  0
  2 11  1  6  0  0  0
  2 10  1  0  0  0  0
  3 14  1  1  0  0  0
  3  6  1  0  0  0  0
  3  7  1  0  0  0  0
  4  8  1  0  0  0  0
  4  1  1  0  0  0  0
  5  1  1  0  0  0  0
  6  8  1  6  0  0  0
  7  5  1  0  0  0  0
 10  9  1  1  0  0  0
 10  6  1  0  0  0  0
 11 14  1  0  0  0  0
 12 35  1  6  0  0  0
 12  2  1  0  0  0  0
 12 13  1  0  0  0  0
 13  9  1  6  0  0  0
 15 18  1  6  0  0  0
 15 17  1  0  0  0  0
 15 16  1  0  0  0  0
 17 16  1  1  0  0  0
 17 13  1  0  0  0  0
 19 20  1  0  0  0  0
 19 18  1  6  0  0  0
 20 21  1  6  0  0  0
 20 24  1  0  0  0  0
 21 22  1  0  0  0  0
 23 22  1  0  0  0  0
 24 26  1  0  0  0  0
 25 26  1  0  0  0  0
 27 19  1  0  0  0  0
 28 27  1  0  0  0  0
 29 28  1  0  0  0  0
 30 34  1  0  0  0  0
 31 33  2  0  0  0  0
 32 30  2  0  0  0  0
 32 31  1  0  0  0  0
 33 29  1  0  0  0  0
 34 29  2  0  0  0  0
 36 40  1  0  0  0  0
 37 42  1  6  0  0  0
 37 43  1  0  0  0  0
 38 42  1  6  0  0  0
 38 36  1  0  0  0  0
 38 37  1  0  0  0  0
 39 35  1  0  0  0  0
 40 41  1  0  0  0  0
 41 39  2  0  0  0  0
 43 41  1  0  0  0  0
M  END
>  <MODEL>
1

>  <REMARK>
 VINA RESULT:      -7.5      0.000      0.000
  Name = 
  13 active torsions:
  status: ('A' for Active; 'I' for Inactive)
    1  A    between atoms: C_1  and  C_28
    2  A    between atoms: C_1  and  C_34
    3  A    between atoms: C_2  and  C_6
    4  A    between atoms: C_3  and  C_4
    5  A    between atoms: C_3  and  C_12
    6  A    between atoms: C_4  and  C_15
    7  A    between atoms: C_4  and  C_22
    8  A    between atoms: C_6  and  C_22
    9  A    between atoms: C_11  and  C_14
   10  A    between atoms: C_13  and  N_38
   11  A    between atoms: C_14  and  O_41
   12  A    between atoms: C_15  and  C_42
   13  A    between atoms: C_22  and  O_41
                            x       y       z     vdW  Elec       q    Type
                         _______ _______ _______ _____ _____    ______ ____

>  <TORSDO>
F 13

$$$$
=
 OpenBabel11062410213D

 43 49  0  0  1  0  0  0  0  0999 V2000
  155.4170  211.2820  156.4100 N   0  0  0  0  0  2  0  0  0  0  0  0
  159.5050  213.0310  153.0600 C   0  0  2  0  0  3  0  0  0  0  0  0
  157.1090  213.1910  154.6750 C   0  0  1  0  0  3  0  0  0  0  0  0
  155.8160  210.6630  155.1540 C   0  0  0  0  0  2  0  0  0  0  0  0
  155.1710  212.6960  156.1640 C   0  0  0  0  0  2  0  0  0  0  0  0
  158.0290  211.9380  154.6980 C   0  0  1  0  0  3  0  0  0  0  0  0
  156.4810  213.4590  156.0340 C   0  0  0  0  0  2  0  0  0  0  0  0
  157.3380  210.6110  155.0730 C   0  0  0  0  0  2  0  0  0  0  0  0
  159.7070  210.7000  153.1640 C   0  0  0  0  0  2  0  0  0  0  0  0
  158.6900  211.8080  153.3290 C   0  0  2  0  0  3  0  0  0  0  0  0
  158.5950  214.2370  152.8900 C   0  0  0  0  0  2  0  0  0  0  0  0
  160.3890  212.5960  151.9110 C   0  0  1  0  0  3  0  0  0  0  0  0
  160.7530  211.1980  152.2560 N   0  0  2  0  0  0  0  0  0  0  0  0
  157.8640  214.4530  154.2190 C   0  0  0  0  0  2  0  0  0  0  0  0
  161.7730  209.1350  151.4260 C   0  0  1  0  0  3  0  0  0  0  0  0
  162.2750  210.2890  150.5850 C   0  0  0  0  0  2  0  0  0  0  0  0
  160.8510  210.3010  151.1030 C   0  0  2  0  0  3  0  0  0  0  0  0
  161.4350  207.9600  150.5230 C   0  0  0  0  0  2  0  0  0  0  0  0
  161.5070  206.6360  151.2900 C   0  0  2  0  0  3  0  0  0  0  0  0
  161.0470  205.4230  150.4680 C   0  0  1  0  0  3  0  0  0  0  0  0
  161.3350  205.5690  148.9750 C   0  0  0  0  0  2  0  0  0  0  0  0
  161.0050  204.2850  148.2380 C   0  0  0  0  0  2  0  0  0  0  0  0
  162.0480  204.0340  147.1700 C   0  0  0  0  0  1  0  0  0  0  0  0
  161.6690  204.1450  151.0100 C   0  0  0  0  0  2  0  0  0  0  0  0
  161.0320  202.1000  152.0410 F   0  0  0  0  0  0  0  0  0  0  0  0
  160.7230  203.4460  151.9710 C   0  0  0  0  0  2  0  0  0  0  0  0
  160.7740  206.7310  152.4750 O   0  0  0  0  0  0  0  0  0  0  0  0
  161.7330  206.7730  153.4910 C   0  0  0  0  0  2  0  0  0  0  0  0
  161.1410  207.3700  154.7200 C   0  0  0  0  0  0  0  0  0  0  0  0
  159.5640  207.2700  156.5140 N   0  0  0  0  0  0  0  0  0  0  0  0
  160.9760  209.1890  156.3050 C   0  0  0  0  0  3  0  0  0  0  0  0
  159.9690  208.4860  156.9730 C   0  0  0  0  0  3  0  0  0  0  0  0
  161.5630  208.6240  155.1710 C   0  0  0  0  0  3  0  0  0  0  0  0
  160.1220  206.7050  155.4080 C   0  0  0  0  0  3  0  0  0  0  0  0
  159.6490  212.7500  150.5680 C   0  0  0  0  0  2  0  0  0  0  0  0
  158.7550  212.7950  146.2260 C   0  0  0  0  0  2  0  0  0  0  0  0
  160.7210  214.4530  146.0970 C   0  0  2  0  0  3  0  0  0  0  0  0
  159.3270  214.0580  145.5770 C   0  0  1  0  0  3  0  0  0  0  0  0
  160.6070  213.1140  149.4780 C   0  0  0  0  0  3  0  0  0  0  0  0
  158.8410  212.8650  147.7480 C   0  0  0  0  0  2  0  0  0  0  0  0
  160.2470  213.1780  148.1930 C   0  0  0  0  0  0  0  0  0  0  0  0
  160.5710  213.7000  144.7900 C   0  0  0  0  0  2  0  0  0  0  0  0
  161.2890  213.5140  147.1670 C   0  0  0  0  0  2  0  0  0  0  0  0
  2 11  1  6  0  0  0
  2 10  1  0  0  0  0
  3 14  1  1  0  0  0
  3  6  1  0  0  0  0
  3  7  1  0  0  0  0
  4  1  1  0  0  0  0
  5  1  1  0  0  0  0
  6  8  1  6  0  0  0
  7  5  1  0  0  0  0
  8  4  1  0  0  0  0
 10  9  1  1  0  0  0
 10  6  1  0  0  0  0
 11 14  1  0  0  0  0
 12 35  1  6  0  0  0
 12 13  1  0  0  0  0
 12  2  1  0  0  0  0
 13  9  1  1  0  0  0
 15 18  1  6  0  0  0
 16 15  1  0  0  0  0
 17 16  1  6  0  0  0
 17 15  1  0  0  0  0
 17 13  1  0  0  0  0
 19 18  1  6  0  0  0
 19 27  1  0  0  0  0
 20 21  1  6  0  0  0
 20 24  1  0  0  0  0
 20 19  1  0  0  0  0
 22 21  1  0  0  0  0
 23 22  1  0  0  0  0
 24 26  1  0  0  0  0
 26 25  1  0  0  0  0
 27 28  1  0  0  0  0
 28 29  1  0  0  0  0
 29 33  2  0  0  0  0
 29 34  1  0  0  0  0
 30 32  1  0  0  0  0
 31 32  2  0  0  0  0
 33 31  1  0  0  0  0
 34 30  2  0  0  0  0
 36 40  1  0  0  0  0
 37 42  1  6  0  0  0
 37 43  1  0  0  0  0
 38 42  1  6  0  0  0
 38 37  1  0  0  0  0
 38 36  1  0  0  0  0
 39 35  1  0  0  0  0
 40 41  1  0  0  0  0
 41 39  2  0  0  0  0
 43 41  1  0  0  0  0
M  END
>  <MODEL>
2

>  <REMARK>
 VINA RESULT:      -7.4      2.110      4.511
  Name = 
  13 active torsions:
  status: ('A' for Active; 'I' for Inactive)
    1  A    between atoms: C_1  and  C_28
    2  A    between atoms: C_1  and  C_34
    3  A    between atoms: C_2  and  C_6
    4  A    between atoms: C_3  and  C_4
    5  A    between atoms: C_3  and  C_12
    6  A    between atoms: C_4  and  C_15
    7  A    between atoms: C_4  and  C_22
    8  A    between atoms: C_6  and  C_22
    9  A    between atoms: C_11  and  C_14
   10  A    between atoms: C_13  and  N_38
   11  A    between atoms: C_14  and  O_41
   12  A    between atoms: C_15  and  C_42
   13  A    between atoms: C_22  and  O_41
                            x       y       z     vdW  Elec       q    Type
                         _______ _______ _______ _____ _____    ______ ____

>  <TORSDO>
F 13

$$$$
=
 OpenBabel11062410213D

 43 49  0  0  1  0  0  0  0  0999 V2000
  156.4460  213.1530  154.1810 N   0  0  0  0  0  2  0  0  0  0  0  0
  157.9480  214.0850  148.9020 C   0  0  2  0  0  3  0  0  0  0  0  0
  156.1800  213.7840  151.1730 C   0  0  1  0  0  3  0  0  0  0  0  0
  157.2940  212.2910  153.3690 C   0  0  0  0  0  2  0  0  0  0  0  0
  155.2180  213.4110  153.4440 C   0  0  0  0  0  2  0  0  0  0  0  0
  157.7240  213.8510  151.3420 C   0  0  1  0  0  3  0  0  0  0  0  0
  155.4540  214.4330  152.3420 C   0  0  0  0  0  2  0  0  0  0  0  0
  158.2900  213.1430  152.5900 C   0  0  0  0  0  2  0  0  0  0  0  0
  159.8750  213.3290  149.9990 C   0  0  0  0  0  2  0  0  0  0  0  0
  158.3650  213.2720  150.0850 C   0  0  2  0  0  3  0  0  0  0  0  0
  156.4600  213.9050  148.6440 C   0  0  0  0  0  2  0  0  0  0  0  0
  158.9440  213.6670  147.8420 C   0  0  1  0  0  3  0  0  0  0  0  0
  160.2250  213.5540  148.5870 N   0  0  2  0  0  0  0  0  0  0  0  0
  155.7120  214.4500  149.8660 C   0  0  0  0  0  2  0  0  0  0  0  0
  161.8450  211.8710  149.3100 C   0  0  1  0  0  3  0  0  0  0  0  0
  162.5410  212.8320  148.3700 C   0  0  0  0  0  2  0  0  0  0  0  0
  161.0900  212.4650  148.1300 C   0  0  2  0  0  3  0  0  0  0  0  0
  162.2610  210.4480  148.9770 C   0  0  0  0  0  2  0  0  0  0  0  0
  162.3560  209.5900  150.2420 C   0  0  2  0  0  3  0  0  0  0  0  0
  161.9700  208.1200  150.0200 C   0  0  1  0  0  3  0  0  0  0  0  0
  160.9600  207.6070  151.0440 C   0  0  0  0  0  2  0  0  0  0  0  0
  161.5280  206.4270  151.8110 C   0  0  0  0  0  2  0  0  0  0  0  0
  161.2850  205.1530  151.0290 C   0  0  0  0  0  1  0  0  0  0  0  0
  161.4480  207.9140  148.6060 C   0  0  0  0  0  2  0  0  0  0  0  0
  160.6720  205.8890  147.6340 F   0  0  0  0  0  0  0  0  0  0  0  0
  161.8080  206.5320  148.0900 C   0  0  0  0  0  2  0  0  0  0  0  0
  161.5790  210.1510  151.2590 O   0  0  0  0  0  0  0  0  0  0  0  0
  162.4650  210.3500  152.3220 C   0  0  0  0  0  2  0  0  0  0  0  0
  161.7180  210.3330  153.6110 C   0  0  0  0  0  0  0  0  0  0  0  0
  161.7010  210.5340  155.9920 N   0  0  0  0  0  0  0  0  0  0  0  0
  159.6740  209.9760  154.8520 C   0  0  0  0  0  3  0  0  0  0  0  0
  160.3720  210.2420  156.0340 C   0  0  0  0  0  3  0  0  0  0  0  0
  160.3560  210.0230  153.6340 C   0  0  0  0  0  3  0  0  0  0  0  0
  162.3830  210.5800  154.8150 C   0  0  0  0  0  3  0  0  0  0  0  0
  158.4900  212.3650  147.1530 C   0  0  0  0  0  2  0  0  0  0  0  0
  161.5970  213.0340  144.0630 C   0  0  0  0  0  2  0  0  0  0  0  0
  159.7930  212.1950  142.4290 C   0  0  2  0  0  3  0  0  0  0  0  0
  161.2850  212.2170  142.8080 C   0  0  1  0  0  3  0  0  0  0  0  0
  158.2420  212.6000  145.6970 C   0  0  0  0  0  3  0  0  0  0  0  0
  160.6820  212.6460  145.2200 C   0  0  0  0  0  2  0  0  0  0  0  0
  159.2330  212.7200  144.8070 C   0  0  0  0  0  0  0  0  0  0  0  0
  160.7510  213.1370  141.7290 C   0  0  0  0  0  2  0  0  0  0  0  0
  158.8880  212.9930  143.3740 C   0  0  0  0  0  2  0  0  0  0  0  0
  2 11  1  6  0  0  0
  2 10  1  0  0  0  0
  3 14  1  6  0  0  0
  3  6  1  0  0  0  0
  3  7  1  0  0  0  0
  4  1  1  0  0  0  0
  5  1  1  0  0  0  0
  6  8  1  1  0  0  0
  7  5  1  0  0  0  0
  8  4  1  0  0  0  0
 10  9  1  1  0  0  0
 10  6  1  0  0  0  0
 11 14  1  0  0  0  0
 12 35  1  1  0  0  0
 12 13  1  0  0  0  0
 12  2  1  0  0  0  0
 13  9  1  1  0  0  0
 15 18  1  6  0  0  0
 16 15  1  0  0  0  0
 17 16  1  6  0  0  0
 17 13  1  0  0  0  0
 17 15  1  0  0  0  0
 19 18  1  6  0  0  0
 19 27  1  0  0  0  0
 20 24  1  6  0  0  0
 20 19  1  0  0  0  0
 20 21  1  0  0  0  0
 21 22  1  0  0  0  0
 23 22  1  0  0  0  0
 25 26  1  0  0  0  0
 26 24  1  0  0  0  0
 27 28  1  0  0  0  0
 28 29  1  0  0  0  0
 29 33  2  0  0  0  0
 29 34  1  0  0  0  0
 30 32  1  0  0  0  0
 31 32  2  0  0  0  0
 33 31  1  0  0  0  0
 34 30  2  0  0  0  0
 36 40  1  0  0  0  0
 37 42  1  6  0  0  0
 37 38  1  0  0  0  0
 37 43  1  0  0  0  0
 38 42  1  6  0  0  0
 38 36  1  0  0  0  0
 39 35  1  0  0  0  0
 41 40  1  0  0  0  0
 41 39  2  0  0  0  0
 43 41  1  0  0  0  0
M  END
>  <MODEL>
3

>  <REMARK>
 VINA RESULT:      -7.2      2.778      5.895
  Name = 
  13 active torsions:
  status: ('A' for Active; 'I' for Inactive)
    1  A    between atoms: C_1  and  C_28
    2  A    between atoms: C_1  and  C_34
    3  A    between atoms: C_2  and  C_6
    4  A    between atoms: C_3  and  C_4
    5  A    between atoms: C_3  and  C_12
    6  A    between atoms: C_4  and  C_15
    7  A    between atoms: C_4  and  C_22
    8  A    between atoms: C_6  and  C_22
    9  A    between atoms: C_11  and  C_14
   10  A    between atoms: C_13  and  N_38
   11  A    between atoms: C_14  and  O_41
   12  A    between atoms: C_15  and  C_42
   13  A    between atoms: C_22  and  O_41
                            x       y       z     vdW  Elec       q    Type
                         _______ _______ _______ _____ _____    ______ ____

>  <TORSDO>
F 13

$$$$
=
 OpenBabel11062410213D

 43 49  0  0  1  0  0  0  0  0999 V2000
  161.7670  209.7920  157.2320 N   0  0  0  0  0  2  0  0  0  0  0  0
  160.8110  208.1840  151.9880 C   0  0  2  0  0  3  0  0  0  0  0  0
  161.2400  207.9180  154.8380 C   0  0  1  0  0  3  0  0  0  0  0  0
  162.5540  210.1670  156.0670 C   0  0  0  0  0  2  0  0  0  0  0  0
  161.6570  208.3410  157.2610 C   0  0  0  0  0  2  0  0  0  0  0  0
  161.0070  209.3040  154.1720 C   0  0  1  0  0  3  0  0  0  0  0  0
  160.6430  207.8550  156.2360 C   0  0  0  0  0  2  0  0  0  0  0  0
  161.6210  210.5110  154.9100 C   0  0  0  0  0  2  0  0  0  0  0  0
  161.3330  210.4650  151.8810 C   0  0  0  0  0  2  0  0  0  0  0  0
  161.5460  209.2420  152.7460 C   0  0  2  0  0  3  0  0  0  0  0  0
  161.1520  206.8110  152.5460 C   0  0  0  0  0  2  0  0  0  0  0  0
  161.1480  208.5090  150.5490 C   0  0  1  0  0  3  0  0  0  0  0  0
  161.1070  209.9940  150.5050 N   0  0  2  0  0  0  0  0  0  0  0  0
  160.6590  206.7680  153.9960 C   0  0  0  0  0  2  0  0  0  0  0  0
  161.4970  211.7510  148.8480 C   0  0  1  0  0  3  0  0  0  0  0  0
  161.6970  210.4080  148.1780 C   0  0  0  0  0  2  0  0  0  0  0  0
  162.1110  210.5950  149.6240 C   0  0  2  0  0  3  0  0  0  0  0  0
  162.5960  212.7040  148.4100 C   0  0  0  0  0  2  0  0  0  0  0  0
  162.0440  214.1140  148.1780 C   0  0  2  0  0  3  0  0  0  0  0  0
  160.6710  214.3520  148.8240 C   0  0  1  0  0  3  0  0  0  0  0  0
  159.6410  213.2890  148.4450 C   0  0  0  0  0  2  0  0  0  0  0  0
  158.8580  213.7170  147.2180 C   0  0  0  0  0  2  0  0  0  0  0  0
  158.7450  212.5500  146.2600 C   0  0  0  0  0  1  0  0  0  0  0  0
  160.8040  214.4520  150.3360 C   0  0  0  0  0  2  0  0  0  0  0  0
  159.6270  212.8120  151.5900 F   0  0  0  0  0  0  0  0  0  0  0  0
  159.5050  214.0670  151.0230 C   0  0  0  0  0  2  0  0  0  0  0  0
  161.9950  214.3880  146.8090 O   0  0  0  0  0  0  0  0  0  0  0  0
  162.7230  213.3570  146.2080 C   0  0  0  0  0  2  0  0  0  0  0  0
  162.5860  213.4380  144.7270 C   0  0  0  0  0  0  0  0  0  0  0  0
  163.4650  214.0890  142.6030 N   0  0  0  0  0  0  0  0  0  0  0  0
  161.2820  213.1210  142.7160 C   0  0  0  0  0  3  0  0  0  0  0  0
  162.3340  213.6680  141.9740 C   0  0  0  0  0  3  0  0  0  0  0  0
  161.4120  213.0080  144.1020 C   0  0  0  0  0  3  0  0  0  0  0  0
  163.6090  213.9910  143.9520 C   0  0  0  0  0  3  0  0  0  0  0  0
  162.5070  207.8960  150.1580 C   0  0  0  0  0  2  0  0  0  0  0  0
  160.8300  206.2970  146.3790 C   0  0  0  0  0  2  0  0  0  0  0  0
  162.1930  204.1920  146.9610 C   0  0  2  0  0  3  0  0  0  0  0  0
  161.6910  205.1430  145.8600 C   0  0  1  0  0  3  0  0  0  0  0  0
  162.3490  206.4490  149.8110 C   0  0  0  0  0  3  0  0  0  0  0  0
  161.5070  207.0160  147.5420 C   0  0  0  0  0  2  0  0  0  0  0  0
  161.9030  206.0380  148.6190 C   0  0  0  0  0  0  0  0  0  0  0  0
  160.9830  203.8300  146.1230 C   0  0  0  0  0  2  0  0  0  0  0  0
  161.7420  204.5670  148.3770 C   0  0  0  0  0  2  0  0  0  0  0  0
  1  5  1  0  0  0  0
  2 11  1  1  0  0  0
  2 10  1  0  0  0  0
  3 14  1  6  0  0  0
  3  7  1  0  0  0  0
  4  1  1  0  0  0  0
  6  3  1  0  0  0  0
  6  8  1  1  0  0  0
  7  5  1  0  0  0  0
  8  4  1  0  0  0  0
 10  9  1  6  0  0  0
 10  6  1  0  0  0  0
 11 14  1  0  0  0  0
 12 35  1  1  0  0  0
 12  2  1  0  0  0  0
 13 12  1  0  0  0  0
 13  9  1  1  0  0  0
 15 18  1  6  0  0  0
 15 17  1  0  0  0  0
 16 15  1  0  0  0  0
 17 16  1  6  0  0  0
 17 13  1  0  0  0  0
 19 18  1  6  0  0  0
 19 20  1  0  0  0  0
 20 21  1  1  0  0  0
 20 24  1  0  0  0  0
 22 21  1  0  0  0  0
 23 22  1  0  0  0  0
 24 26  1  0  0  0  0
 26 25  1  0  0  0  0
 27 19  1  0  0  0  0
 28 27  1  0  0  0  0
 29 28  1  0  0  0  0
 30 34  1  0  0  0  0
 31 33  2  0  0  0  0
 32 30  2  0  0  0  0
 32 31  1  0  0  0  0
 33 29  1  0  0  0  0
 34 29  2  0  0  0  0
 36 40  1  0  0  0  0
 37 42  1  6  0  0  0
 37 43  1  0  0  0  0
 38 42  1  6  0  0  0
 38 36  1  0  0  0  0
 38 37  1  0  0  0  0
 39 35  1  0  0  0  0
 40 41  1  0  0  0  0
 41 39  2  0  0  0  0
 43 41  1  0  0  0  0
M  END
>  <MODEL>
4

>  <REMARK>
 VINA RESULT:      -7.0      3.245      7.430
  Name = 
  13 active torsions:
  status: ('A' for Active; 'I' for Inactive)
    1  A    between atoms: C_1  and  C_28
    2  A    between atoms: C_1  and  C_34
    3  A    between atoms: C_2  and  C_6
    4  A    between atoms: C_3  and  C_4
    5  A    between atoms: C_3  and  C_12
    6  A    between atoms: C_4  and  C_15
    7  A    between atoms: C_4  and  C_22
    8  A    between atoms: C_6  and  C_22
    9  A    between atoms: C_11  and  C_14
   10  A    between atoms: C_13  and  N_38
   11  A    between atoms: C_14  and  O_41
   12  A    between atoms: C_15  and  C_42
   13  A    between atoms: C_22  and  O_41
                            x       y       z     vdW  Elec       q    Type
                         _______ _______ _______ _____ _____    ______ ____

>  <TORSDO>
F 13

$$$$
=
 OpenBabel11062410213D

 43 49  0  0  1  0  0  0  0  0999 V2000
  155.4380  211.5380  156.6280 N   0  0  0  0  0  2  0  0  0  0  0  0
  159.7290  212.8710  153.3400 C   0  0  2  0  0  3  0  0  0  0  0  0
  157.3940  213.2830  154.9990 C   0  0  1  0  0  3  0  0  0  0  0  0
  155.7320  210.9540  155.3270 C   0  0  0  0  0  2  0  0  0  0  0  0
  155.4100  212.9860  156.4810 C   0  0  0  0  0  2  0  0  0  0  0  0
  158.1110  211.9060  154.9240 C   0  0  1  0  0  3  0  0  0  0  0  0
  156.8210  213.5480  156.3830 C   0  0  0  0  0  2  0  0  0  0  0  0
  157.2270  210.6760  155.2190 C   0  0  0  0  0  2  0  0  0  0  0  0
  159.5730  210.5350  153.2840 C   0  0  0  0  0  2  0  0  0  0  0  0
  158.7380  211.7710  153.5390 C   0  0  2  0  0  3  0  0  0  0  0  0
  159.0130  214.2110  153.2660 C   0  0  0  0  0  2  0  0  0  0  0  0
  160.5310  212.3870  152.1510 C   0  0  1  0  0  3  0  0  0  0  0  0
  160.6780  210.9290  152.3960 N   0  0  2  0  0  0  0  0  0  0  0  0
  158.3310  214.4430  154.6180 C   0  0  0  0  0  2  0  0  0  0  0  0
  161.1600  208.7140  151.4780 C   0  0  1  0  0  3  0  0  0  0  0  0
  162.0390  209.7250  150.7730 C   0  0  0  0  0  2  0  0  0  0  0  0
  160.6320  210.1090  151.1830 C   0  0  2  0  0  3  0  0  0  0  0  0
  160.5980  207.7370  150.4590 C   0  0  0  0  0  2  0  0  0  0  0  0
  161.2370  206.3530  150.6100 C   0  0  2  0  0  3  0  0  0  0  0  0
  161.6010  205.9980  152.0600 C   0  0  1  0  0  3  0  0  0  0  0  0
  160.8000  206.7940  153.0880 C   0  0  0  0  0  2  0  0  0  0  0  0
  161.4310  206.6790  154.4630 C   0  0  0  0  0  2  0  0  0  0  0  0
  160.6830  207.5640  155.4370 C   0  0  0  0  0  1  0  0  0  0  0  0
  161.4420  204.5040  152.2990 C   0  0  0  0  0  2  0  0  0  0  0  0
  161.0730  202.5040  151.0690 F   0  0  0  0  0  0  0  0  0  0  0  0
  160.7260  203.8410  151.1350 C   0  0  0  0  0  2  0  0  0  0  0  0
  162.3600  206.2530  149.7850 O   0  0  0  0  0  0  0  0  0  0  0  0
  161.9440  206.7540  148.5480 C   0  0  0  0  0  2  0  0  0  0  0  0
  161.9160  205.6560  147.5430 C   0  0  0  0  0  0  0  0  0  0  0  0
  162.1840  204.9110  145.2880 N   0  0  0  0  0  0  0  0  0  0  0  0
  161.4640  203.3550  146.9540 C   0  0  0  0  0  3  0  0  0  0  0  0
  161.8080  203.6490  145.6310 C   0  0  0  0  0  3  0  0  0  0  0  0
  161.5190  204.3680  147.9130 C   0  0  0  0  0  3  0  0  0  0  0  0
  162.2410  205.9120  146.2070 C   0  0  0  0  0  3  0  0  0  0  0  0
  159.8150  212.7440  150.8330 C   0  0  0  0  0  2  0  0  0  0  0  0
  158.9960  212.8960  146.4790 C   0  0  0  0  0  2  0  0  0  0  0  0
  161.0680  214.4230  146.4000 C   0  0  2  0  0  3  0  0  0  0  0  0
  159.6590  214.1260  145.8550 C   0  0  1  0  0  3  0  0  0  0  0  0
  160.8130  213.0560  149.7630 C   0  0  0  0  0  3  0  0  0  0  0  0
  159.0620  212.9430  148.0030 C   0  0  0  0  0  2  0  0  0  0  0  0
  160.4790  213.1580  148.4730 C   0  0  0  0  0  0  0  0  0  0  0  0
  160.8900  213.6960  145.0820 C   0  0  0  0  0  2  0  0  0  0  0  0
  161.5560  213.4370  147.4670 C   0  0  0  0  0  2  0  0  0  0  0  0
  2 11  1  6  0  0  0
  2 10  1  0  0  0  0
  3 14  1  1  0  0  0
  3  7  1  0  0  0  0
  4  1  1  0  0  0  0
  5  1  1  0  0  0  0
  6  3  1  0  0  0  0
  6  8  1  6  0  0  0
  7  5  1  0  0  0  0
  8  4  1  0  0  0  0
 10  9  1  1  0  0  0
 10  6  1  0  0  0  0
 11 14  1  0  0  0  0
 12 35  1  6  0  0  0
 12 13  1  0  0  0  0
 12  2  1  0  0  0  0
 13  9  1  1  0  0  0
 15 18  1  6  0  0  0
 16 15  1  0  0  0  0
 17 16  1  6  0  0  0
 17 15  1  0  0  0  0
 17 13  1  0  0  0  0
 19 18  1  1  0  0  0
 19 20  1  0  0  0  0
 20 24  1  1  0  0  0
 20 21  1  0  0  0  0
 21 22  1  0  0  0  0
 22 23  1  0  0  0  0
 25 26  1  0  0  0  0
 26 24  1  0  0  0  0
 27 19  1  0  0  0  0
 28 27  1  0  0  0  0
 29 33  1  0  0  0  0
 29 28  1  0  0  0  0
 30 32  2  0  0  0  0
 30 34  1  0  0  0  0
 31 33  2  0  0  0  0
 32 31  1  0  0  0  0
 34 29  2  0  0  0  0
 36 40  1  0  0  0  0
 37 42  1  6  0  0  0
 37 43  1  0  0  0  0
 38 42  1  6  0  0  0
 38 37  1  0  0  0  0
 38 36  1  0  0  0  0
 39 35  1  0  0  0  0
 40 41  1  0  0  0  0
 41 39  2  0  0  0  0
 43 41  1  0  0  0  0
M  END
>  <MODEL>
5

>  <REMARK>
 VINA RESULT:      -6.7      1.386      2.551
  Name = 
  13 active torsions:
  status: ('A' for Active; 'I' for Inactive)
    1  A    between atoms: C_1  and  C_28
    2  A    between atoms: C_1  and  C_34
    3  A    between atoms: C_2  and  C_6
    4  A    between atoms: C_3  and  C_4
    5  A    between atoms: C_3  and  C_12
    6  A    between atoms: C_4  and  C_15
    7  A    between atoms: C_4  and  C_22
    8  A    between atoms: C_6  and  C_22
    9  A    between atoms: C_11  and  C_14
   10  A    between atoms: C_13  and  N_38
   11  A    between atoms: C_14  and  O_41
   12  A    between atoms: C_15  and  C_42
   13  A    between atoms: C_22  and  O_41
                            x       y       z     vdW  Elec       q    Type
                         _______ _______ _______ _____ _____    ______ ____

>  <TORSDO>
F 13

$$$$
=
 OpenBabel11062410213D

 43 49  0  0  1  0  0  0  0  0999 V2000
  161.5750  201.1980  150.6260 N   0  0  0  0  0  2  0  0  0  0  0  0
  160.6190  206.5100  149.2580 C   0  0  2  0  0  3  0  0  0  0  0  0
  161.1780  203.6980  148.8610 C   0  0  1  0  0  3  0  0  0  0  0  0
  162.2710  202.3580  151.1640 C   0  0  0  0  0  2  0  0  0  0  0  0
  161.6320  201.2660  149.1730 C   0  0  0  0  0  2  0  0  0  0  0  0
  160.7650  204.2620  150.2500 C   0  0  1  0  0  3  0  0  0  0  0  0
  160.6430  202.2920  148.6390 C   0  0  0  0  0  2  0  0  0  0  0  0
  161.2640  203.4610  151.4700 C   0  0  0  0  0  2  0  0  0  0  0  0
  160.8740  206.4770  151.5860 C   0  0  0  0  0  2  0  0  0  0  0  0
  161.2560  205.7040  150.3430 C   0  0  2  0  0  3  0  0  0  0  0  0
  161.1340  206.0570  147.9010 C   0  0  0  0  0  2  0  0  0  0  0  0
  160.8640  207.9330  149.7110 C   0  0  1  0  0  3  0  0  0  0  0  0
  160.6530  207.8750  151.1810 N   0  0  2  0  0  0  0  0  0  0  0  0
  160.7020  204.5990  147.7080 C   0  0  0  0  0  2  0  0  0  0  0  0
  160.9340  209.0550  153.3050 C   0  0  1  0  0  3  0  0  0  0  0  0
  160.8800  210.0800  152.1920 C   0  0  0  0  0  2  0  0  0  0  0  0
  161.5490  208.7420  151.9500 C   0  0  2  0  0  3  0  0  0  0  0  0
  162.0340  209.4290  154.2840 C   0  0  0  0  0  2  0  0  0  0  0  0
  161.4770  210.2430  155.4560 C   0  0  2  0  0  3  0  0  0  0  0  0
  161.7580  209.6150  156.8300 C   0  0  1  0  0  3  0  0  0  0  0  0
  161.4660  208.1170  156.8720 C   0  0  0  0  0  2  0  0  0  0  0  0
  159.9710  207.8640  156.9130 C   0  0  0  0  0  2  0  0  0  0  0  0
  159.5910  206.9050  155.8040 C   0  0  0  0  0  1  0  0  0  0  0  0
  163.1900  209.8940  157.2610 C   0  0  0  0  0  2  0  0  0  0  0  0
  164.5810  211.4410  156.1120 F   0  0  0  0  0  0  0  0  0  0  0  0
  163.5530  211.3500  157.0320 C   0  0  0  0  0  2  0  0  0  0  0  0
  160.1070  210.4510  155.2840 O   0  0  0  0  0  0  0  0  0  0  0  0
  159.9280  211.8280  155.4460 C   0  0  0  0  0  2  0  0  0  0  0  0
  158.6070  212.2340  154.8880 C   0  0  0  0  0  0  0  0  0  0  0  0
  157.2420  213.8500  153.7760 N   0  0  0  0  0  0  0  0  0  0  0  0
  156.2530  211.8100  154.5340 C   0  0  0  0  0  3  0  0  0  0  0  0
  156.1480  213.0500  153.8980 C   0  0  0  0  0  3  0  0  0  0  0  0
  157.4930  211.4020  155.0310 C   0  0  0  0  0  3  0  0  0  0  0  0
  158.4580  213.4730  154.2570 C   0  0  0  0  0  3  0  0  0  0  0  0
  162.2690  208.4030  149.2860 C   0  0  0  0  0  2  0  0  0  0  0  0
  161.1780  212.6920  149.5570 C   0  0  0  0  0  2  0  0  0  0  0  0
  162.4600  212.8970  147.3330 C   0  0  2  0  0  3  0  0  0  0  0  0
  162.1160  213.5360  148.6910 C   0  0  1  0  0  3  0  0  0  0  0  0
  162.1770  209.3600  148.1390 C   0  0  0  0  0  3  0  0  0  0  0  0
  161.6710  211.2530  149.6690 C   0  0  0  0  0  2  0  0  0  0  0  0
  161.9140  210.6600  148.3040 C   0  0  0  0  0  0  0  0  0  0  0  0
  161.3890  213.9650  147.4330 C   0  0  0  0  0  2  0  0  0  0  0  0
  161.8040  211.5340  147.0900 C   0  0  0  0  0  2  0  0  0  0  0  0
  1  4  1  0  0  0  0
  2 11  1  6  0  0  0
  2 12  1  0  0  0  0
  2 10  1  0  0  0  0
  3 14  1  6  0  0  0
  3  6  1  0  0  0  0
  4  8  1  0  0  0  0
  5  1  1  0  0  0  0
  6 10  1  0  0  0  0
  6  8  1  1  0  0  0
  7  3  1  0  0  0  0
  7  5  1  0  0  0  0
 10  9  1  1  0  0  0
 12 35  1  1  0  0  0
 12 13  1  0  0  0  0
 13  9  1  1  0  0  0
 13 17  1  0  0  0  0
 14 11  1  0  0  0  0
 15 18  1  1  0  0  0
 16 15  1  0  0  0  0
 17 16  1  6  0  0  0
 17 15  1  0  0  0  0
 19 18  1  6  0  0  0
 19 20  1  0  0  0  0
 20 21  1  6  0  0  0
 20 24  1  0  0  0  0
 21 22  1  0  0  0  0
 23 22  1  0  0  0  0
 25 26  1  0  0  0  0
 26 24  1  0  0  0  0
 27 28  1  0  0  0  0
 27 19  1  0  0  0  0
 29 33  1  0  0  0  0
 29 28  1  0  0  0  0
 30 32  2  0  0  0  0
 30 34  1  0  0  0  0
 31 33  2  0  0  0  0
 32 31  1  0  0  0  0
 34 29  2  0  0  0  0
 36 40  1  0  0  0  0
 37 43  1  1  0  0  0
 37 42  1  0  0  0  0
 37 38  1  0  0  0  0
 38 42  1  6  0  0  0
 38 36  1  0  0  0  0
 39 41  2  0  0  0  0
 39 35  1  0  0  0  0
 41 40  1  0  0  0  0
 43 41  1  0  0  0  0
M  END
>  <MODEL>
6

>  <REMARK>
 VINA RESULT:      -6.6      2.945      8.192
  Name = 
  13 active torsions:
  status: ('A' for Active; 'I' for Inactive)
    1  A    between atoms: C_1  and  C_28
    2  A    between atoms: C_1  and  C_34
    3  A    between atoms: C_2  and  C_6
    4  A    between atoms: C_3  and  C_4
    5  A    between atoms: C_3  and  C_12
    6  A    between atoms: C_4  and  C_15
    7  A    between atoms: C_4  and  C_22
    8  A    between atoms: C_6  and  C_22
    9  A    between atoms: C_11  and  C_14
   10  A    between atoms: C_13  and  N_38
   11  A    between atoms: C_14  and  O_41
   12  A    between atoms: C_15  and  C_42
   13  A    between atoms: C_22  and  O_41
                            x       y       z     vdW  Elec       q    Type
                         _______ _______ _______ _____ _____    ______ ____

>  <TORSDO>
F 13

$$$$
=
 OpenBabel11062410213D

 43 49  0  0  1  0  0  0  0  0999 V2000
  160.2260  207.0510  156.8950 N   0  0  0  0  0  2  0  0  0  0  0  0
  162.3910  209.7970  152.5620 C   0  0  2  0  0  3  0  0  0  0  0  0
  161.2260  209.4160  155.1840 C   0  0  1  0  0  3  0  0  0  0  0  0
  159.7930  206.9400  155.5100 C   0  0  0  0  0  2  0  0  0  0  0  0
  160.2290  208.4600  157.2610 C   0  0  0  0  0  2  0  0  0  0  0  0
  161.7140  208.2160  154.3240 C   0  0  1  0  0  3  0  0  0  0  0  0
  161.4380  209.1710  156.6700 C   0  0  0  0  0  2  0  0  0  0  0  0
  161.0120  206.8700  154.5980 C   0  0  0  0  0  2  0  0  0  0  0  0
  162.0670  207.5940  151.8360 C   0  0  0  0  0  2  0  0  0  0  0  0
  161.5570  208.5910  152.8530 C   0  0  2  0  0  3  0  0  0  0  0  0
  161.8270  211.0080  153.2880 C   0  0  0  0  0  2  0  0  0  0  0  0
  162.4580  209.7990  151.0500 C   0  0  1  0  0  3  0  0  0  0  0  0
  162.6070  208.3620  150.7020 N   0  0  2  0  0  0  0  0  0  0  0  0
  161.9260  210.7300  154.7920 C   0  0  0  0  0  2  0  0  0  0  0  0
  162.5420  206.7100  148.8990 C   0  0  1  0  0  3  0  0  0  0  0  0
  162.8500  208.0650  148.2970 C   0  0  0  0  0  2  0  0  0  0  0  0
  161.9070  207.9650  149.4790 C   0  0  2  0  0  3  0  0  0  0  0  0
  161.5280  205.9880  148.0290 C   0  0  0  0  0  2  0  0  0  0  0  0
  162.1670  204.7940  147.3120 C   0  0  2  0  0  3  0  0  0  0  0  0
  161.5310  204.4820  145.9490 C   0  0  1  0  0  3  0  0  0  0  0  0
  161.9910  205.4320  144.8450 C   0  0  0  0  0  2  0  0  0  0  0  0
  160.8050  206.1540  144.2330 C   0  0  0  0  0  2  0  0  0  0  0  0
  159.6070  206.0250  145.1500 C   0  0  0  0  0  1  0  0  0  0  0  0
  161.7970  203.0370  145.5550 C   0  0  0  0  0  2  0  0  0  0  0  0
  159.6630  202.6840  144.5700 F   0  0  0  0  0  0  0  0  0  0  0  0
  160.5120  202.2270  145.5610 C   0  0  0  0  0  2  0  0  0  0  0  0
  162.1300  203.6670  148.1380 O   0  0  0  0  0  0  0  0  0  0  0  0
  160.8220  203.6220  148.6290 C   0  0  0  0  0  2  0  0  0  0  0  0
  160.8420  203.6300  150.1180 C   0  0  0  0  0  0  0  0  0  0  0  0
  161.3040  202.5230  152.1850 N   0  0  0  0  0  0  0  0  0  0  0  0
  160.3350  204.7090  152.2220 C   0  0  0  0  0  3  0  0  0  0  0  0
  160.8300  203.5860  152.8920 C   0  0  0  0  0  3  0  0  0  0  0  0
  160.3430  204.7270  150.8260 C   0  0  0  0  0  3  0  0  0  0  0  0
  161.3160  202.5210  150.8250 C   0  0  0  0  0  3  0  0  0  0  0  0
  161.2080  210.4730  150.4520 C   0  0  0  0  0  2  0  0  0  0  0  0
  160.8360  211.8080  146.2410 C   0  0  0  0  0  2  0  0  0  0  0  0
  160.7040  214.1670  147.2660 C   0  0  2  0  0  3  0  0  0  0  0  0
  160.2040  213.2000  146.1770 C   0  0  1  0  0  3  0  0  0  0  0  0
  161.5460  211.8340  149.9300 C   0  0  0  0  0  3  0  0  0  0  0  0
  160.7620  211.2280  147.6500 C   0  0  0  0  0  2  0  0  0  0  0  0
  161.3380  212.1910  148.6580 C   0  0  0  0  0  0  0  0  0  0  0  0
  161.2750  214.2250  145.8630 C   0  0  0  0  0  2  0  0  0  0  0  0
  161.7440  213.5650  148.2180 C   0  0  0  0  0  2  0  0  0  0  0  0
  1  5  1  0  0  0  0
  2 10  1  0  0  0  0
  2 11  1  6  0  0  0
  3 14  1  6  0  0  0
  3  7  1  0  0  0  0
  4  1  1  0  0  0  0
  6  8  1  1  0  0  0
  6  3  1  0  0  0  0
  7  5  1  0  0  0  0
  8  4  1  0  0  0  0
 10  9  1  6  0  0  0
 10  6  1  0  0  0  0
 11 14  1  0  0  0  0
 12 35  1  6  0  0  0
 12  2  1  0  0  0  0
 13 12  1  0  0  0  0
 13  9  1  1  0  0  0
 15 18  1  6  0  0  0
 15 17  1  0  0  0  0
 16 15  1  0  0  0  0
 17 16  1  6  0  0  0
 17 13  1  0  0  0  0
 19 18  1  1  0  0  0
 19 27  1  0  0  0  0
 20 21  1  6  0  0  0
 20 19  1  0  0  0  0
 22 21  1  0  0  0  0
 22 23  1  0  0  0  0
 24 26  1  0  0  0  0
 24 20  1  0  0  0  0
 25 26  1  0  0  0  0
 27 28  1  0  0  0  0
 28 29  1  0  0  0  0
 29 34  2  0  0  0  0
 29 33  1  0  0  0  0
 30 32  2  0  0  0  0
 31 32  1  0  0  0  0
 33 31  2  0  0  0  0
 34 30  1  0  0  0  0
 36 40  1  0  0  0  0
 37 42  1  6  0  0  0
 37 43  1  0  0  0  0
 38 42  1  6  0  0  0
 38 36  1  0  0  0  0
 38 37  1  0  0  0  0
 39 35  1  0  0  0  0
 40 41  1  0  0  0  0
 41 39  2  0  0  0  0
 43 41  1  0  0  0  0
M  END
>  <MODEL>
7

>  <REMARK>
 VINA RESULT:      -5.9      3.000      4.751
  Name = 
  13 active torsions:
  status: ('A' for Active; 'I' for Inactive)
    1  A    between atoms: C_1  and  C_28
    2  A    between atoms: C_1  and  C_34
    3  A    between atoms: C_2  and  C_6
    4  A    between atoms: C_3  and  C_4
    5  A    between atoms: C_3  and  C_12
    6  A    between atoms: C_4  and  C_15
    7  A    between atoms: C_4  and  C_22
    8  A    between atoms: C_6  and  C_22
    9  A    between atoms: C_11  and  C_14
   10  A    between atoms: C_13  and  N_38
   11  A    between atoms: C_14  and  O_41
   12  A    between atoms: C_15  and  C_42
   13  A    between atoms: C_22  and  O_41
                            x       y       z     vdW  Elec       q    Type
                         _______ _______ _______ _____ _____    ______ ____

>  <TORSDO>
F 13

$$$$
=
 OpenBabel11062410213D

 43 49  0  0  1  0  0  0  0  0999 V2000
  159.7220  207.3260  156.9080 N   0  0  0  0  0  2  0  0  0  0  0  0
  162.1280  209.9820  152.6460 C   0  0  2  0  0  3  0  0  0  0  0  0
  160.8460  209.6520  155.2200 C   0  0  1  0  0  3  0  0  0  0  0  0
  159.3450  207.2110  155.5070 C   0  0  0  0  0  2  0  0  0  0  0  0
  159.7410  208.7380  157.2610 C   0  0  0  0  0  2  0  0  0  0  0  0
  161.3420  208.4340  154.3910 C   0  0  1  0  0  3  0  0  0  0  0  0
  160.9890  209.4160  156.7160 C   0  0  0  0  0  2  0  0  0  0  0  0
  160.6000  207.1060  154.6470 C   0  0  0  0  0  2  0  0  0  0  0  0
  161.7860  207.7790  151.9260 C   0  0  0  0  0  2  0  0  0  0  0  0
  161.2560  208.7980  152.9130 C   0  0  2  0  0  3  0  0  0  0  0  0
  161.5610  211.2120  153.3380 C   0  0  0  0  0  2  0  0  0  0  0  0
  162.2590  209.9680  151.1390 C   0  0  1  0  0  3  0  0  0  0  0  0
  162.3900  208.5250  150.8100 N   0  0  2  0  0  0  0  0  0  0  0  0
  161.5910  210.9460  154.8470 C   0  0  0  0  0  2  0  0  0  0  0  0
  162.2010  206.7470  149.1400 C   0  0  1  0  0  3  0  0  0  0  0  0
  162.7690  207.9780  148.4670 C   0  0  0  0  0  2  0  0  0  0  0  0
  161.7330  208.1310  149.5620 C   0  0  2  0  0  3  0  0  0  0  0  0
  161.1550  206.1140  148.2390 C   0  0  0  0  0  2  0  0  0  0  0  0
  161.5670  204.6970  147.8260 C   0  0  2  0  0  3  0  0  0  0  0  0
  161.3160  203.6410  148.9130 C   0  0  1  0  0  3  0  0  0  0  0  0
  160.6480  204.2160  150.1600 C   0  0  0  0  0  2  0  0  0  0  0  0
  161.6010  204.1870  151.3390 C   0  0  0  0  0  2  0  0  0  0  0  0
  161.5340  202.8310  152.0090 C   0  0  0  0  0  1  0  0  0  0  0  0
  160.5010  202.4850  148.3540 C   0  0  0  0  0  2  0  0  0  0  0  0
  161.0940  200.2550  148.9250 F   0  0  0  0  0  0  0  0  0  0  0  0
  160.3890  201.3590  149.3670 C   0  0  0  0  0  2  0  0  0  0  0  0
  162.9070  204.6860  147.4330 O   0  0  0  0  0  0  0  0  0  0  0  0
  162.9690  203.7600  146.3870 C   0  0  0  0  0  2  0  0  0  0  0  0
  161.8070  203.9510  145.4750 C   0  0  0  0  0  0  0  0  0  0  0  0
  160.5390  205.3480  144.0080 N   0  0  0  0  0  0  0  0  0  0  0  0
  159.7630  203.1350  144.4730 C   0  0  0  0  0  3  0  0  0  0  0  0
  159.6170  204.3640  143.8230 C   0  0  0  0  0  3  0  0  0  0  0  0
  160.8670  202.9310  145.3040 C   0  0  0  0  0  3  0  0  0  0  0  0
  161.6180  205.1700  144.8170 C   0  0  0  0  0  3  0  0  0  0  0  0
  161.0500  210.6640  150.4830 C   0  0  0  0  0  2  0  0  0  0  0  0
  160.8450  212.0420  146.2740 C   0  0  0  0  0  2  0  0  0  0  0  0
  160.7300  214.3950  147.3160 C   0  0  2  0  0  3  0  0  0  0  0  0
  160.2450  213.4490  146.2030 C   0  0  1  0  0  3  0  0  0  0  0  0
  161.4340  212.0220  149.9840 C   0  0  0  0  0  3  0  0  0  0  0  0
  160.7120  211.4530  147.6750 C   0  0  0  0  0  2  0  0  0  0  0  0
  161.2750  212.3930  148.7100 C   0  0  0  0  0  0  0  0  0  0  0  0
  161.3470  214.4530  145.9340 C   0  0  0  0  0  2  0  0  0  0  0  0
  161.7250  213.7630  148.2960 C   0  0  0  0  0  2  0  0  0  0  0  0
  1  5  1  0  0  0  0
  2 10  1  0  0  0  0
  2 11  1  6  0  0  0
  3 14  1  6  0  0  0
  3  7  1  0  0  0  0
  4  1  1  0  0  0  0
  6  8  1  6  0  0  0
  6  3  1  0  0  0  0
  7  5  1  0  0  0  0
  8  4  1  0  0  0  0
 10  9  1  6  0  0  0
 10  6  1  0  0  0  0
 11 14  1  0  0  0  0
 12 35  1  6  0  0  0
 12  2  1  0  0  0  0
 13 12  1  0  0  0  0
 13  9  1  1  0  0  0
 15 18  1  6  0  0  0
 15 17  1  0  0  0  0
 16 15  1  0  0  0  0
 17 16  1  6  0  0  0
 17 13  1  0  0  0  0
 19 18  1  1  0  0  0
 19 20  1  0  0  0  0
 20 24  1  6  0  0  0
 20 21  1  0  0  0  0
 21 22  1  0  0  0  0
 22 23  1  0  0  0  0
 24 26  1  0  0  0  0
 25 26  1  0  0  0  0
 27 19  1  0  0  0  0
 28 27  1  0  0  0  0
 29 28  1  0  0  0  0
 30 34  1  0  0  0  0
 31 33  2  0  0  0  0
 32 30  2  0  0  0  0
 32 31  1  0  0  0  0
 33 29  1  0  0  0  0
 34 29  2  0  0  0  0
 36 40  1  0  0  0  0
 37 42  1  6  0  0  0
 37 43  1  0  0  0  0
 38 42  1  6  0  0  0
 38 36  1  0  0  0  0
 38 37  1  0  0  0  0
 39 35  1  0  0  0  0
 40 41  1  0  0  0  0
 41 39  2  0  0  0  0
 43 41  1  0  0  0  0
M  END
>  <MODEL>
8

>  <REMARK>
 VINA RESULT:      -5.8      2.494      3.378
  Name = 
  13 active torsions:
  status: ('A' for Active; 'I' for Inactive)
    1  A    between atoms: C_1  and  C_28
    2  A    between atoms: C_1  and  C_34
    3  A    between atoms: C_2  and  C_6
    4  A    between atoms: C_3  and  C_4
    5  A    between atoms: C_3  and  C_12
    6  A    between atoms: C_4  and  C_15
    7  A    between atoms: C_4  and  C_22
    8  A    between atoms: C_6  and  C_22
    9  A    between atoms: C_11  and  C_14
   10  A    between atoms: C_13  and  N_38
   11  A    between atoms: C_14  and  O_41
   12  A    between atoms: C_15  and  C_42
   13  A    between atoms: C_22  and  O_41
                            x       y       z     vdW  Elec       q    Type
                         _______ _______ _______ _____ _____    ______ ____

>  <TORSDO>
F 13

$$$$
=
 OpenBabel11062410213D

 43 49  0  0  1  0  0  0  0  0999 V2000
  155.2070  212.2750  156.3460 N   0  0  0  0  0  2  0  0  0  0  0  0
  159.9240  212.4460  153.3920 C   0  0  2  0  0  3  0  0  0  0  0  0
  157.5090  213.4310  154.6480 C   0  0  1  0  0  3  0  0  0  0  0  0
  155.5490  211.4040  155.2310 C   0  0  0  0  0  2  0  0  0  0  0  0
  155.3720  213.6550  155.9130 C   0  0  0  0  0  2  0  0  0  0  0  0
  158.0550  212.0040  154.9320 C   0  0  1  0  0  3  0  0  0  0  0  0
  156.8440  214.0380  155.8740 C   0  0  0  0  0  2  0  0  0  0  0  0
  157.0030  210.9590  155.3570 C   0  0  0  0  0  2  0  0  0  0  0  0
  159.4870  210.1790  153.7810 C   0  0  0  0  0  2  0  0  0  0  0  0
  158.7900  211.5190  153.6860 C   0  0  2  0  0  3  0  0  0  0  0  0
  159.3890  213.8060  152.9700 C   0  0  0  0  0  2  0  0  0  0  0  0
  160.7690  211.6450  152.4260 C   0  0  1  0  0  3  0  0  0  0  0  0
  160.7120  210.2630  152.9700 N   0  0  2  0  0  0  0  0  0  0  0  0
  158.6140  214.3850  154.1590 C   0  0  0  0  0  2  0  0  0  0  0  0
  161.3070  207.9400  152.4880 C   0  0  1  0  0  3  0  0  0  0  0  0
  162.0960  208.8390  151.5600 C   0  0  0  0  0  2  0  0  0  0  0  0
  160.6800  209.2160  151.9470 C   0  0  2  0  0  3  0  0  0  0  0  0
  160.7770  206.7490  151.7080 C   0  0  0  0  0  2  0  0  0  0  0  0
  161.8760  206.1200  150.8470 C   0  0  2  0  0  3  0  0  0  0  0  0
  161.4590  205.8900  149.3860 C   0  0  1  0  0  3  0  0  0  0  0  0
  160.7910  207.1110  148.7580 C   0  0  0  0  0  2  0  0  0  0  0  0
  161.7970  207.9220  147.9630 C   0  0  0  0  0  2  0  0  0  0  0  0
  161.6050  209.3940  148.2580 C   0  0  0  0  0  1  0  0  0  0  0  0
  162.6520  205.4460  148.5540 C   0  0  0  0  0  2  0  0  0  0  0  0
  160.8910  204.1430  147.6340 F   0  0  0  0  0  0  0  0  0  0  0  0
  162.2310  204.4500  147.4880 C   0  0  0  0  0  2  0  0  0  0  0  0
  162.3100  204.9240  151.4250 O   0  0  0  0  0  0  0  0  0  0  0  0
  161.1390  204.2590  151.7990 C   0  0  0  0  0  2  0  0  0  0  0  0
  160.9070  203.0980  150.8930 C   0  0  0  0  0  0  0  0  0  0  0  0
  159.5460  201.9730  149.2830 N   0  0  0  0  0  0  0  0  0  0  0  0
  161.5560  200.9280  150.0480 C   0  0  0  0  0  3  0  0  0  0  0  0
  160.4110  200.9220  149.2470 C   0  0  0  0  0  3  0  0  0  0  0  0
  161.8020  202.0250  150.8760 C   0  0  0  0  0  3  0  0  0  0  0  0
  159.7670  203.0490  150.0860 C   0  0  0  0  0  3  0  0  0  0  0  0
  160.2320  211.7870  150.9880 C   0  0  0  0  0  2  0  0  0  0  0  0
  159.7130  212.8640  146.7190 C   0  0  0  0  0  2  0  0  0  0  0  0
  161.7750  214.3580  147.1080 C   0  0  2  0  0  3  0  0  0  0  0  0
  160.4090  214.1930  146.4170 C   0  0  1  0  0  3  0  0  0  0  0  0
  161.2990  212.3120  150.0790 C   0  0  0  0  0  3  0  0  0  0  0  0
  159.6740  212.5870  148.2190 C   0  0  0  0  0  2  0  0  0  0  0  0
  161.0530  212.6870  148.8200 C   0  0  0  0  0  0  0  0  0  0  0  0
  161.6930  213.9280  145.6570 C   0  0  0  0  0  2  0  0  0  0  0  0
  162.1950  213.1640  147.9730 C   0  0  0  0  0  2  0  0  0  0  0  0
  2 11  1  6  0  0  0
  2 10  1  0  0  0  0
  3 14  1  1  0  0  0
  3  6  1  0  0  0  0
  3  7  1  0  0  0  0
  4  8  1  0  0  0  0
  4  1  1  0  0  0  0
  5  1  1  0  0  0  0
  6  8  1  6  0  0  0
  7  5  1  0  0  0  0
 10  9  1  1  0  0  0
 10  6  1  0  0  0  0
 11 14  1  0  0  0  0
 12 35  1  6  0  0  0
 12 13  1  0  0  0  0
 12  2  1  0  0  0  0
 13  9  1  6  0  0  0
 15 18  1  6  0  0  0
 16 15  1  0  0  0  0
 17 16  1  6  0  0  0
 17 15  1  0  0  0  0
 17 13  1  0  0  0  0
 19 27  1  0  0  0  0
 19 18  1  1  0  0  0
 20 24  1  6  0  0  0
 20 19  1  0  0  0  0
 21 20  1  0  0  0  0
 22 23  1  0  0  0  0
 22 21  1  0  0  0  0
 26 25  1  0  0  0  0
 26 24  1  0  0  0  0
 27 28  1  0  0  0  0
 29 28  1  0  0  0  0
 30 34  1  0  0  0  0
 31 33  2  0  0  0  0
 32 30  2  0  0  0  0
 32 31  1  0  0  0  0
 33 29  1  0  0  0  0
 34 29  2  0  0  0  0
 36 40  1  0  0  0  0
 37 42  1  6  0  0  0
 37 43  1  0  0  0  0
 38 42  1  6  0  0  0
 38 36  1  0  0  0  0
 38 37  1  0  0  0  0
 39 35  1  0  0  0  0
 40 41  1  0  0  0  0
 41 39  2  0  0  0  0
 43 41  1  0  0  0  0
M  END
>  <MODEL>
9

>  <REMARK>
 VINA RESULT:      -5.4      1.862      3.277
  Name = 
  13 active torsions:
  status: ('A' for Active; 'I' for Inactive)
    1  A    between atoms: C_1  and  C_28
    2  A    between atoms: C_1  and  C_34
    3  A    between atoms: C_2  and  C_6
    4  A    between atoms: C_3  and  C_4
    5  A    between atoms: C_3  and  C_12
    6  A    between atoms: C_4  and  C_15
    7  A    between atoms: C_4  and  C_22
    8  A    between atoms: C_6  and  C_22
    9  A    between atoms: C_11  and  C_14
   10  A    between atoms: C_13  and  N_38
   11  A    between atoms: C_14  and  O_41
   12  A    between atoms: C_15  and  C_42
   13  A    between atoms: C_22  and  O_41
                            x       y       z     vdW  Elec       q    Type
                         _______ _______ _______ _____ _____    ______ ____

>  <TORSDO>
F 13

$$$$
