=
 OpenBabel11052422153D

 25 29  0  0  0  0  0  0  0  0999 V2000
  161.4080  205.2390  148.9920 N   0  0  0  0  0  0  0  0  0  0  0  0
  161.4690  206.4580  149.5990 C   0  0  0  0  0  0  0  0  0  0  0  0
  161.9240  206.1510  146.8420 C   0  0  0  0  0  3  0  0  0  0  0  0
  161.1480  204.0170  149.4840 C   0  0  0  0  0  0  0  0  0  0  0  0
  160.6780  201.3410  150.0200 C   0  0  0  0  0  3  0  0  0  0  0  0
  161.9960  207.4230  147.4300 C   0  0  0  0  0  3  0  0  0  0  0  0
  161.2020  203.0910  148.4690 C   0  0  0  0  0  0  0  0  0  0  0  0
  160.9700  201.7370  148.7030 C   0  0  0  0  0  3  0  0  0  0  0  0
  161.8290  208.8370  149.4430 C   0  0  0  0  0  0  0  0  0  0  0  0
  162.1400  210.0840  148.6840 C   0  0  0  0  0  1  0  0  0  0  0  0
  161.2480  206.5990  150.9330 N   0  0  0  0  0  0  0  0  0  0  0  0
  160.6230  202.2920  151.0610 C   0  0  0  0  0  3  0  0  0  0  0  0
  161.6230  205.0680  147.6670 C   0  0  0  0  0  0  0  0  0  0  0  0
  161.5070  203.7350  147.2780 C   0  0  0  0  0  3  0  0  0  0  0  0
  161.6000  208.9220  150.7810 N   0  0  0  0  0  0  0  0  0  0  0  0
  160.8590  203.6520  150.8000 C   0  0  0  0  0  3  0  0  0  0  0  0
  161.3100  207.8210  151.5290 C   0  0  0  0  0  0  0  0  0  0  0  0
  161.7690  207.5890  148.8110 C   0  0  0  0  0  0  0  0  0  0  0  0
  160.8010  209.3150  154.9550 C   0  0  0  0  0  0  0  0  0  0  0  0
  161.0670  207.9500  152.9780 C   0  0  0  0  0  0  0  0  0  0  0  0
  161.0340  209.2130  153.5820 C   0  0  0  0  0  3  0  0  0  0  0  0
  160.7660  210.5930  155.5770 N   0  0  0  0  0  1  0  0  0  0  0  0
  160.8660  206.8120  153.7680 C   0  0  0  0  0  3  0  0  0  0  0  0
  160.6100  208.1930  155.6990 N   0  0  0  0  0  0  0  0  0  0  0  0
  160.6370  206.9550  155.1380 C   0  0  0  0  0  3  0  0  0  0  0  0
  1  4  1  0  0  0  0
  1  2  1  0  0  0  0
  2 11  1  0  0  0  0
  3  6  2  0  0  0  0
  3 13  1  0  0  0  0
  4 16  1  0  0  0  0
  5 12  1  0  0  0  0
  6 18  1  0  0  0  0
  7  8  1  0  0  0  0
  7  4  2  0  0  0  0
  8  5  2  0  0  0  0
  9 15  2  0  0  0  0
 10  9  1  0  0  0  0
 11 17  2  0  0  0  0
 13  1  1  0  0  0  0
 14 13  2  0  0  0  0
 14  7  1  0  0  0  0
 15 17  1  0  0  0  0
 16 12  2  0  0  0  0
 17 20  1  0  0  0  0
 18  9  1  0  0  0  0
 18  2  2  0  0  0  0
 19 22  1  0  0  0  0
 19 24  1  0  0  0  0
 20 21  1  0  0  0  0
 20 23  2  0  0  0  0
 21 19  2  0  0  0  0
 23 25  1  0  0  0  0
 25 24  2  0  0  0  0
M  END
>  <MODEL>
1

>  <REMARK>
 VINA RESULT:     -10.8      0.000      0.000
  Name = 
  1 active torsions:
  status: ('A' for Active; 'I' for Inactive)
    1  A    between atoms: C_6  and  C_23
                            x       y       z     vdW  Elec       q    Type
                         _______ _______ _______ _____ _____    ______ ____

>  <TORSDO>
F 1

$$$$
=
 OpenBabel11052422153D

 25 29  0  0  0  0  0  0  0  0999 V2000
  161.4010  205.6930  149.4210 N   0  0  0  0  0  0  0  0  0  0  0  0
  161.5040  206.9570  149.9190 C   0  0  0  0  0  0  0  0  0  0  0  0
  161.7830  206.4180  147.1740 C   0  0  0  0  0  3  0  0  0  0  0  0
  161.1700  204.5180  150.0290 C   0  0  0  0  0  0  0  0  0  0  0  0
  160.7270  201.8990  150.8150 C   0  0  0  0  0  3  0  0  0  0  0  0
  161.8950  207.7330  147.6470 C   0  0  0  0  0  3  0  0  0  0  0  0
  161.1570  203.5100  149.0940 C   0  0  0  0  0  0  0  0  0  0  0  0
  160.9370  202.1820  149.4540 C   0  0  0  0  0  3  0  0  0  0  0  0
  161.8600  209.3120  149.5410 C   0  0  0  0  0  0  0  0  0  0  0  0
  162.1260  210.4890  148.6630 C   0  0  0  0  0  1  0  0  0  0  0  0
  161.3670  207.2110  151.2470 N   0  0  0  0  0  0  0  0  0  0  0  0
  160.7400  202.9340  151.7750 C   0  0  0  0  0  3  0  0  0  0  0  0
  161.5320  205.4100  148.1040 C   0  0  0  0  0  0  0  0  0  0  0  0
  161.3880  204.0500  147.8360 C   0  0  0  0  0  3  0  0  0  0  0  0
  161.7150  209.5100  150.8790 N   0  0  0  0  0  0  0  0  0  0  0  0
  160.9640  204.2660  151.3860 C   0  0  0  0  0  3  0  0  0  0  0  0
  161.4710  208.4770  151.7330 C   0  0  0  0  0  0  0  0  0  0  0  0
  161.7560  208.0160  149.0210 C   0  0  0  0  0  0  0  0  0  0  0  0
  160.7300  207.9740  155.3980 C   0  0  0  0  0  0  0  0  0  0  0  0
  161.3190  208.7300  153.1790 C   0  0  0  0  0  0  0  0  0  0  0  0
  160.8660  207.7160  154.0330 C   0  0  0  0  0  3  0  0  0  0  0  0
  160.2700  206.9510  156.2720 N   0  0  0  0  0  1  0  0  0  0  0  0
  161.6270  209.9860  153.7160 C   0  0  0  0  0  3  0  0  0  0  0  0
  161.0350  209.2040  155.8930 N   0  0  0  0  0  0  0  0  0  0  0  0
  161.4780  210.2050  155.0870 C   0  0  0  0  0  3  0  0  0  0  0  0
  1  2  1  0  0  0  0
  1  4  1  0  0  0  0
  2 11  1  0  0  0  0
  3  6  2  0  0  0  0
  3 13  1  0  0  0  0
  4 16  1  0  0  0  0
  5 12  1  0  0  0  0
  6 18  1  0  0  0  0
  7  8  1  0  0  0  0
  7  4  2  0  0  0  0
  8  5  2  0  0  0  0
  9 15  2  0  0  0  0
 10  9  1  0  0  0  0
 11 17  2  0  0  0  0
 13  1  1  0  0  0  0
 14 13  2  0  0  0  0
 14  7  1  0  0  0  0
 15 17  1  0  0  0  0
 16 12  2  0  0  0  0
 17 20  1  0  0  0  0
 18  9  1  0  0  0  0
 18  2  2  0  0  0  0
 19 24  1  0  0  0  0
 19 22  1  0  0  0  0
 20 23  2  0  0  0  0
 20 21  1  0  0  0  0
 21 19  2  0  0  0  0
 23 25  1  0  0  0  0
 25 24  2  0  0  0  0
M  END
>  <MODEL>
2

>  <REMARK>
 VINA RESULT:     -10.1      0.784      1.424
  Name = 
  1 active torsions:
  status: ('A' for Active; 'I' for Inactive)
    1  A    between atoms: C_6  and  C_23
                            x       y       z     vdW  Elec       q    Type
                         _______ _______ _______ _____ _____    ______ ____

>  <TORSDO>
F 1

$$$$
=
 OpenBabel11052422153D

 25 29  0  0  0  0  0  0  0  0999 V2000
  161.5450  207.4540  151.0740 N   0  0  0  0  0  0  0  0  0  0  0  0
  161.3800  206.1490  150.7170 C   0  0  0  0  0  0  0  0  0  0  0  0
  161.3930  206.9590  153.4090 C   0  0  0  0  0  3  0  0  0  0  0  0
  161.7230  208.5590  150.3320 C   0  0  0  0  0  0  0  0  0  0  0  0
  162.1090  211.0780  149.2470 C   0  0  0  0  0  3  0  0  0  0  0  0
  161.2200  205.6070  153.0830 C   0  0  0  0  0  3  0  0  0  0  0  0
  161.8440  209.6530  151.1550 C   0  0  0  0  0  0  0  0  0  0  0  0
  162.0380  210.9340  150.6440 C   0  0  0  0  0  3  0  0  0  0  0  0
  161.0410  203.8500  151.3610 C   0  0  0  0  0  0  0  0  0  0  0  0
  160.8560  202.7710  152.3760 C   0  0  0  0  0  1  0  0  0  0  0  0
  161.3740  205.7640  149.4140 N   0  0  0  0  0  0  0  0  0  0  0  0
  161.9860  209.9540  148.4020 C   0  0  0  0  0  3  0  0  0  0  0  0
  161.5550  207.8660  152.3620 C   0  0  0  0  0  0  0  0  0  0  0  0
  161.7400  209.2430  152.4770 C   0  0  0  0  0  3  0  0  0  0  0  0
  161.0430  203.5190  150.0420 N   0  0  0  0  0  0  0  0  0  0  0  0
  161.7890  208.6720  148.9420 C   0  0  0  0  0  3  0  0  0  0  0  0
  161.2070  204.4580  149.0690 C   0  0  0  0  0  0  0  0  0  0  0  0
  161.2110  205.1890  151.7370 C   0  0  0  0  0  0  0  0  0  0  0  0
  161.3160  204.6350  145.3020 C   0  0  0  0  0  0  0  0  0  0  0  0
  161.2040  204.0630  147.6480 C   0  0  0  0  0  0  0  0  0  0  0  0
  161.3200  205.0300  146.6410 C   0  0  0  0  0  3  0  0  0  0  0  0
  161.4320  205.6110  144.2740 N   0  0  0  0  0  1  0  0  0  0  0  0
  161.0870  202.7150  147.2860 C   0  0  0  0  0  3  0  0  0  0  0  0
  161.2000  203.3190  144.9790 N   0  0  0  0  0  0  0  0  0  0  0  0
  161.0860  202.3600  145.9360 C   0  0  0  0  0  3  0  0  0  0  0  0
  1 13  1  0  0  0  0
  2  1  1  0  0  0  0
  2 18  2  0  0  0  0
  4  1  1  0  0  0  0
  4  7  1  0  0  0  0
  5  8  1  0  0  0  0
  6  3  2  0  0  0  0
  7 14  1  0  0  0  0
  8  7  2  0  0  0  0
  9 18  1  0  0  0  0
  9 10  1  0  0  0  0
 11  2  1  0  0  0  0
 12 16  1  0  0  0  0
 12  5  2  0  0  0  0
 13 14  2  0  0  0  0
 13  3  1  0  0  0  0
 15  9  2  0  0  0  0
 16  4  2  0  0  0  0
 17 11  2  0  0  0  0
 17 15  1  0  0  0  0
 18  6  1  0  0  0  0
 19 21  1  0  0  0  0
 20 17  1  0  0  0  0
 21 20  2  0  0  0  0
 22 19  1  0  0  0  0
 23 20  1  0  0  0  0
 24 19  2  0  0  0  0
 24 25  1  0  0  0  0
 25 23  2  0  0  0  0
M  END
>  <MODEL>
3

>  <REMARK>
 VINA RESULT:      -9.8      1.961      7.426
  Name = 
  1 active torsions:
  status: ('A' for Active; 'I' for Inactive)
    1  A    between atoms: C_6  and  C_23
                            x       y       z     vdW  Elec       q    Type
                         _______ _______ _______ _____ _____    ______ ____

>  <TORSDO>
F 1

$$$$
=
 OpenBabel11052422153D

 25 29  0  0  0  0  0  0  0  0999 V2000
  161.1790  208.6720  153.0430 N   0  0  0  0  0  0  0  0  0  0  0  0
  161.3480  207.9840  151.8800 C   0  0  0  0  0  0  0  0  0  0  0  0
  161.6800  210.7720  152.0150 C   0  0  0  0  0  3  0  0  0  0  0  0
  160.8500  208.2560  154.2780 C   0  0  0  0  0  0  0  0  0  0  0  0
  160.2060  207.8910  156.9460 C   0  0  0  0  0  3  0  0  0  0  0  0
  161.8640  210.1000  150.7980 C   0  0  0  0  0  3  0  0  0  0  0  0
  160.8000  209.3350  155.1290 C   0  0  0  0  0  0  0  0  0  0  0  0
  160.4800  209.1880  156.4760 C   0  0  0  0  0  3  0  0  0  0  0  0
  161.8750  207.9870  149.5260 C   0  0  0  0  0  0  0  0  0  0  0  0
  162.2470  208.6690  148.2520 C   0  0  0  0  0  1  0  0  0  0  0  0
  161.1870  206.6350  151.8210 N   0  0  0  0  0  0  0  0  0  0  0  0
  160.2580  206.7840  156.0720 C   0  0  0  0  0  3  0  0  0  0  0  0
  161.3330  210.0130  153.1320 C   0  0  0  0  0  0  0  0  0  0  0  0
  161.1070  210.4890  154.4220 C   0  0  0  0  0  3  0  0  0  0  0  0
  161.7000  206.6380  149.5230 N   0  0  0  0  0  0  0  0  0  0  0  0
  160.5830  206.9580  154.7170 C   0  0  0  0  0  3  0  0  0  0  0  0
  161.3600  205.9580  150.6540 C   0  0  0  0  0  0  0  0  0  0  0  0
  161.7010  208.7020  150.7180 C   0  0  0  0  0  0  0  0  0  0  0  0
  160.7890  202.4540  149.3780 C   0  0  0  0  0  0  0  0  0  0  0  0
  161.1790  204.4950  150.6140 C   0  0  0  0  0  0  0  0  0  0  0  0
  160.9570  203.8400  149.3950 C   0  0  0  0  0  3  0  0  0  0  0  0
  160.5630  201.7810  148.1460 N   0  0  0  0  0  1  0  0  0  0  0  0
  161.2260  203.7410  151.7930 C   0  0  0  0  0  3  0  0  0  0  0  0
  160.8390  201.7460  150.5390 N   0  0  0  0  0  0  0  0  0  0  0  0
  161.0520  202.3570  151.7350 C   0  0  0  0  0  3  0  0  0  0  0  0
  1 13  1  0  0  0  0
  1  4  1  0  0  0  0
  2  1  1  0  0  0  0
  3 13  1  0  0  0  0
  4 16  2  0  0  0  0
  4  7  1  0  0  0  0
  6  3  2  0  0  0  0
  7  8  2  0  0  0  0
  8  5  1  0  0  0  0
  9 18  1  0  0  0  0
 10  9  1  0  0  0  0
 11  2  1  0  0  0  0
 12  5  2  0  0  0  0
 13 14  2  0  0  0  0
 14  7  1  0  0  0  0
 15  9  2  0  0  0  0
 15 17  1  0  0  0  0
 16 12  1  0  0  0  0
 17 11  2  0  0  0  0
 18  6  1  0  0  0  0
 18  2  2  0  0  0  0
 19 21  2  0  0  0  0
 19 24  1  0  0  0  0
 20 17  1  0  0  0  0
 20 23  2  0  0  0  0
 21 20  1  0  0  0  0
 22 19  1  0  0  0  0
 24 25  2  0  0  0  0
 25 23  1  0  0  0  0
M  END
>  <MODEL>
4

>  <REMARK>
 VINA RESULT:      -9.3      1.633      6.532
  Name = 
  1 active torsions:
  status: ('A' for Active; 'I' for Inactive)
    1  A    between atoms: C_6  and  C_23
                            x       y       z     vdW  Elec       q    Type
                         _______ _______ _______ _____ _____    ______ ____

>  <TORSDO>
F 1

$$$$
=
 OpenBabel11052422153D

 25 29  0  0  0  0  0  0  0  0999 V2000
  161.0990  203.8370  148.0490 N   0  0  0  0  0  0  0  0  0  0  0  0
  161.0940  204.3350  149.3170 C   0  0  0  0  0  0  0  0  0  0  0  0
  160.8550  201.5820  148.8050 C   0  0  0  0  0  3  0  0  0  0  0  0
  161.2060  204.4490  146.8580 C   0  0  0  0  0  0  0  0  0  0  0  0
  161.3880  205.2430  144.2110 C   0  0  0  0  0  3  0  0  0  0  0  0
  160.8460  202.0550  150.1250 C   0  0  0  0  0  3  0  0  0  0  0  0
  161.1580  203.5130  145.8530 C   0  0  0  0  0  0  0  0  0  0  0  0
  161.2470  203.8760  144.5110 C   0  0  0  0  0  3  0  0  0  0  0  0
  160.9630  203.9530  151.6950 C   0  0  0  0  0  0  0  0  0  0  0  0
  160.8310  203.0690  152.8900 C   0  0  0  0  0  1  0  0  0  0  0  0
  161.2110  205.6680  149.5580 N   0  0  0  0  0  0  0  0  0  0  0  0
  161.4360  206.2040  145.2430 C   0  0  0  0  0  3  0  0  0  0  0  0
  160.9860  202.5170  147.7790 C   0  0  0  0  0  0  0  0  0  0  0  0
  161.0160  202.2500  146.4110 C   0  0  0  0  0  3  0  0  0  0  0  0
  161.0820  205.2950  151.8800 N   0  0  0  0  0  0  0  0  0  0  0  0
  161.3460  205.8120  146.5890 C   0  0  0  0  0  3  0  0  0  0  0  0
  161.2060  206.1540  150.8290 C   0  0  0  0  0  0  0  0  0  0  0  0
  160.9660  203.4330  150.3940 C   0  0  0  0  0  0  0  0  0  0  0  0
  160.9630  209.5520  152.4490 C   0  0  0  0  0  0  0  0  0  0  0  0
  161.3330  207.6040  151.0670 C   0  0  0  0  0  0  0  0  0  0  0  0
  160.8320  208.1780  152.2430 C   0  0  0  0  0  3  0  0  0  0  0  0
  160.4570  210.1420  153.6400 N   0  0  0  0  0  1  0  0  0  0  0  0
  161.9560  208.4270  150.1200 C   0  0  0  0  0  3  0  0  0  0  0  0
  161.5720  210.3280  151.5130 N   0  0  0  0  0  0  0  0  0  0  0  0
  162.0670  209.7980  150.3630 C   0  0  0  0  0  3  0  0  0  0  0  0
  1  2  1  0  0  0  0
  2 11  1  0  0  0  0
  2 18  2  0  0  0  0
  3  6  2  0  0  0  0
  4  1  1  0  0  0  0
  5  8  2  0  0  0  0
  5 12  1  0  0  0  0
  6 18  1  0  0  0  0
  7 14  1  0  0  0  0
  7  4  2  0  0  0  0
  8  7  1  0  0  0  0
  9 15  2  0  0  0  0
  9 10  1  0  0  0  0
 11 17  2  0  0  0  0
 12 16  2  0  0  0  0
 13  1  1  0  0  0  0
 13  3  1  0  0  0  0
 14 13  2  0  0  0  0
 16  4  1  0  0  0  0
 17 20  1  0  0  0  0
 17 15  1  0  0  0  0
 18  9  1  0  0  0  0
 19 22  1  0  0  0  0
 20 21  2  0  0  0  0
 21 19  1  0  0  0  0
 23 25  2  0  0  0  0
 23 20  1  0  0  0  0
 24 19  2  0  0  0  0
 25 24  1  0  0  0  0
M  END
>  <MODEL>
5

>  <REMARK>
 VINA RESULT:      -9.3      1.514      4.331
  Name = 
  1 active torsions:
  status: ('A' for Active; 'I' for Inactive)
    1  A    between atoms: C_6  and  C_23
                            x       y       z     vdW  Elec       q    Type
                         _______ _______ _______ _____ _____    ______ ____

>  <TORSDO>
F 1

$$$$
=
 OpenBabel11052422153D

 25 29  0  0  0  0  0  0  0  0999 V2000
  161.4830  206.5200  149.6120 N   0  0  0  0  0  0  0  0  0  0  0  0
  161.5780  207.8210  150.0050 C   0  0  0  0  0  0  0  0  0  0  0  0
  161.2060  205.7370  151.8540 C   0  0  0  0  0  3  0  0  0  0  0  0
  161.5350  205.9570  148.3930 C   0  0  0  0  0  0  0  0  0  0  0  0
  161.5750  204.3610  146.1300 C   0  0  0  0  0  3  0  0  0  0  0  0
  161.2990  207.0630  152.2990 C   0  0  0  0  0  3  0  0  0  0  0  0
  161.3890  204.5950  148.5070 C   0  0  0  0  0  0  0  0  0  0  0  0
  161.4040  203.7630  147.3910 C   0  0  0  0  0  3  0  0  0  0  0  0
  161.5860  209.4560  151.7770 C   0  0  0  0  0  0  0  0  0  0  0  0
  161.4990  209.8560  153.2130 C   0  0  0  0  0  1  0  0  0  0  0  0
  161.7590  208.8240  149.1060 N   0  0  0  0  0  0  0  0  0  0  0  0
  161.7260  205.7600  146.0130 C   0  0  0  0  0  3  0  0  0  0  0  0
  161.3040  205.5010  150.4830 C   0  0  0  0  0  0  0  0  0  0  0  0
  161.2360  204.2630  149.8460 C   0  0  0  0  0  3  0  0  0  0  0  0
  161.7660  210.4210  150.8360 N   0  0  0  0  0  0  0  0  0  0  0  0
  161.7070  206.5780  147.1550 C   0  0  0  0  0  3  0  0  0  0  0  0
  161.8540  210.1200  149.5100 C   0  0  0  0  0  0  0  0  0  0  0  0
  161.4870  208.1160  151.3820 C   0  0  0  0  0  0  0  0  0  0  0  0
  161.2010  212.6060  146.7480 C   0  0  0  0  0  0  0  0  0  0  0  0
  162.0490  211.1920  148.5170 C   0  0  0  0  0  0  0  0  0  0  0  0
  160.9960  211.5880  147.6820 C   0  0  0  0  0  3  0  0  0  0  0  0
  160.1370  213.0130  145.8970 N   0  0  0  0  0  1  0  0  0  0  0  0
  163.2900  211.8290  148.3940 C   0  0  0  0  0  3  0  0  0  0  0  0
  162.4170  213.2070  146.6510 N   0  0  0  0  0  0  0  0  0  0  0  0
  163.4560  212.8430  147.4480 C   0  0  0  0  0  3  0  0  0  0  0  0
  1  2  1  0  0  0  0
  1 13  1  0  0  0  0
  2 18  2  0  0  0  0
  3  6  2  0  0  0  0
  4  7  1  0  0  0  0
  4  1  1  0  0  0  0
  5  8  1  0  0  0  0
  7 14  1  0  0  0  0
  8  7  2  0  0  0  0
  9 10  1  0  0  0  0
 11 17  2  0  0  0  0
 11  2  1  0  0  0  0
 12  5  2  0  0  0  0
 12 16  1  0  0  0  0
 13  3  1  0  0  0  0
 14 13  2  0  0  0  0
 15  9  2  0  0  0  0
 16  4  2  0  0  0  0
 17 15  1  0  0  0  0
 18  9  1  0  0  0  0
 18  6  1  0  0  0  0
 19 21  1  0  0  0  0
 20 17  1  0  0  0  0
 21 20  2  0  0  0  0
 22 19  1  0  0  0  0
 23 20  1  0  0  0  0
 24 19  2  0  0  0  0
 24 25  1  0  0  0  0
 25 23  2  0  0  0  0
M  END
>  <MODEL>
6

>  <REMARK>
 VINA RESULT:      -9.3      2.337      5.461
  Name = 
  1 active torsions:
  status: ('A' for Active; 'I' for Inactive)
    1  A    between atoms: C_6  and  C_23
                            x       y       z     vdW  Elec       q    Type
                         _______ _______ _______ _____ _____    ______ ____

>  <TORSDO>
F 1

$$$$
=
 OpenBabel11052422153D

 25 29  0  0  0  0  0  0  0  0999 V2000
  161.2450  206.3020  151.0860 N   0  0  0  0  0  0  0  0  0  0  0  0
  161.2210  207.5380  151.6580 C   0  0  0  0  0  0  0  0  0  0  0  0
  161.2140  205.1900  153.2030 C   0  0  0  0  0  3  0  0  0  0  0  0
  161.2750  205.9230  149.7980 C   0  0  0  0  0  0  0  0  0  0  0  0
  161.3360  204.6700  147.3290 C   0  0  0  0  0  3  0  0  0  0  0  0
  161.1890  206.4440  153.8300 C   0  0  0  0  0  3  0  0  0  0  0  0
  161.2910  204.5500  149.7220 C   0  0  0  0  0  0  0  0  0  0  0  0
  161.3220  203.8870  148.4970 C   0  0  0  0  0  3  0  0  0  0  0  0
  161.1680  208.9030  153.6460 C   0  0  0  0  0  0  0  0  0  0  0  0
  161.1370  209.0890  155.1270 C   0  0  0  0  0  1  0  0  0  0  0  0
  161.2240  208.6700  150.9050 N   0  0  0  0  0  0  0  0  0  0  0  0
  161.3200  206.0790  147.4080 C   0  0  0  0  0  3  0  0  0  0  0  0
  161.2430  205.1590  151.8100 C   0  0  0  0  0  0  0  0  0  0  0  0
  161.2700  204.0210  151.0050 C   0  0  0  0  0  3  0  0  0  0  0  0
  161.1720  210.0030  152.8460 N   0  0  0  0  0  0  0  0  0  0  0  0
  161.2890  206.7250  148.6550 C   0  0  0  0  0  3  0  0  0  0  0  0
  161.2010  209.9000  151.4880 C   0  0  0  0  0  0  0  0  0  0  0  0
  161.1920  207.6280  153.0660 C   0  0  0  0  0  0  0  0  0  0  0  0
  162.0030  212.3460  148.7300 C   0  0  0  0  0  0  0  0  0  0  0  0
  161.2050  211.1140  150.6510 C   0  0  0  0  0  0  0  0  0  0  0  0
  162.0130  211.1880  149.5100 C   0  0  0  0  0  3  0  0  0  0  0  0
  162.8210  212.4290  147.5700 N   0  0  0  0  0  1  0  0  0  0  0  0
  160.4000  212.2100  150.9860 C   0  0  0  0  0  3  0  0  0  0  0  0
  161.2110  213.3960  149.0800 N   0  0  0  0  0  0  0  0  0  0  0  0
  160.4170  213.3510  150.1820 C   0  0  0  0  0  3  0  0  0  0  0  0
  1  2  1  0  0  0  0
  1 13  1  0  0  0  0
  2 18  2  0  0  0  0
  3  6  2  0  0  0  0
  4  1  1  0  0  0  0
  5 12  2  0  0  0  0
  5  8  1  0  0  0  0
  7  4  1  0  0  0  0
  7 14  1  0  0  0  0
  8  7  2  0  0  0  0
  9 10  1  0  0  0  0
 11 17  2  0  0  0  0
 11  2  1  0  0  0  0
 12 16  1  0  0  0  0
 13  3  1  0  0  0  0
 14 13  2  0  0  0  0
 15  9  2  0  0  0  0
 16  4  2  0  0  0  0
 17 15  1  0  0  0  0
 18  9  1  0  0  0  0
 18  6  1  0  0  0  0
 19 24  2  0  0  0  0
 19 21  1  0  0  0  0
 20 23  1  0  0  0  0
 20 17  1  0  0  0  0
 21 20  2  0  0  0  0
 22 19  1  0  0  0  0
 24 25  1  0  0  0  0
 25 23  2  0  0  0  0
M  END
>  <MODEL>
7

>  <REMARK>
 VINA RESULT:      -8.9      2.099      5.006
  Name = 
  1 active torsions:
  status: ('A' for Active; 'I' for Inactive)
    1  A    between atoms: C_6  and  C_23
                            x       y       z     vdW  Elec       q    Type
                         _______ _______ _______ _____ _____    ______ ____

>  <TORSDO>
F 1

$$$$
=
 OpenBabel11052422153D

 25 29  0  0  0  0  0  0  0  0999 V2000
  161.4730  207.8140  151.0650 N   0  0  0  0  0  0  0  0  0  0  0  0
  161.5120  206.9310  150.0270 C   0  0  0  0  0  0  0  0  0  0  0  0
  161.9030  209.6880  149.6440 C   0  0  0  0  0  3  0  0  0  0  0  0
  161.2640  207.6270  152.3780 C   0  0  0  0  0  0  0  0  0  0  0  0
  160.8870  207.7460  155.1200 C   0  0  0  0  0  3  0  0  0  0  0  0
  161.9520  208.8120  148.5500 C   0  0  0  0  0  3  0  0  0  0  0  0
  161.3180  208.8360  153.0300 C   0  0  0  0  0  0  0  0  0  0  0  0
  161.1340  208.9330  154.4070 C   0  0  0  0  0  3  0  0  0  0  0  0
  161.7980  206.5130  147.6690 C   0  0  0  0  0  0  0  0  0  0  0  0
  162.0510  206.9540  146.2660 C   0  0  0  0  0  1  0  0  0  0  0  0
  161.3230  205.5990  150.2200 N   0  0  0  0  0  0  0  0  0  0  0  0
  160.8310  206.5050  154.4500 C   0  0  0  0  0  3  0  0  0  0  0  0
  161.6580  209.1440  150.9040 C   0  0  0  0  0  0  0  0  0  0  0  0
  161.5720  209.8420  152.1070 C   0  0  0  0  0  3  0  0  0  0  0  0
  161.6010  205.1910  147.9180 N   0  0  0  0  0  0  0  0  0  0  0  0
  161.0210  206.4330  153.0600 C   0  0  0  0  0  3  0  0  0  0  0  0
  161.3660  204.7260  149.1770 C   0  0  0  0  0  0  0  0  0  0  0  0
  161.7580  207.4280  148.7300 C   0  0  0  0  0  0  0  0  0  0  0  0
  161.0810  201.0090  148.5960 C   0  0  0  0  0  0  0  0  0  0  0  0
  161.1570  203.2850  149.4090 C   0  0  0  0  0  0  0  0  0  0  0  0
  161.2820  202.3700  148.3550 C   0  0  0  0  0  3  0  0  0  0  0  0
  161.2060  200.0750  147.5320 N   0  0  0  0  0  1  0  0  0  0  0  0
  160.8310  202.8120  150.6860 C   0  0  0  0  0  3  0  0  0  0  0  0
  160.7650  200.5780  149.8460 N   0  0  0  0  0  0  0  0  0  0  0  0
  160.6370  201.4430  150.8860 C   0  0  0  0  0  3  0  0  0  0  0  0
  1  4  1  0  0  0  0
  2 11  1  0  0  0  0
  2  1  1  0  0  0  0
  3 13  1  0  0  0  0
  4  7  2  0  0  0  0
  4 16  1  0  0  0  0
  6 18  1  0  0  0  0
  6  3  2  0  0  0  0
  7  8  1  0  0  0  0
  8  5  2  0  0  0  0
  9 15  2  0  0  0  0
  9 18  1  0  0  0  0
 10  9  1  0  0  0  0
 12  5  1  0  0  0  0
 13  1  1  0  0  0  0
 13 14  2  0  0  0  0
 14  7  1  0  0  0  0
 15 17  1  0  0  0  0
 16 12  2  0  0  0  0
 17 20  1  0  0  0  0
 17 11  2  0  0  0  0
 18  2  2  0  0  0  0
 19 24  1  0  0  0  0
 20 23  2  0  0  0  0
 21 19  2  0  0  0  0
 21 20  1  0  0  0  0
 22 19  1  0  0  0  0
 23 25  1  0  0  0  0
 24 25  2  0  0  0  0
M  END
>  <MODEL>
8

>  <REMARK>
 VINA RESULT:      -8.4      1.694      6.370
  Name = 
  1 active torsions:
  status: ('A' for Active; 'I' for Inactive)
    1  A    between atoms: C_6  and  C_23
                            x       y       z     vdW  Elec       q    Type
                         _______ _______ _______ _____ _____    ______ ____

>  <TORSDO>
F 1

$$$$
=
 OpenBabel11052422153D

 25 29  0  0  0  0  0  0  0  0999 V2000
  161.1680  203.2960  148.2440 N   0  0  0  0  0  0  0  0  0  0  0  0
  161.3370  204.5180  147.6650 C   0  0  0  0  0  0  0  0  0  0  0  0
  161.0350  202.1810  146.1330 C   0  0  0  0  0  3  0  0  0  0  0  0
  161.1090  202.9280  149.5350 C   0  0  0  0  0  0  0  0  0  0  0  0
  160.9260  201.7010  152.0110 C   0  0  0  0  0  3  0  0  0  0  0  0
  161.2060  203.4200  145.4990 C   0  0  0  0  0  3  0  0  0  0  0  0
  160.9260  201.5680  149.6190 C   0  0  0  0  0  0  0  0  0  0  0  0
  160.8300  200.9180  150.8470 C   0  0  0  0  0  3  0  0  0  0  0  0
  161.5310  205.8590  145.6700 C   0  0  0  0  0  0  0  0  0  0  0  0
  161.5650  206.0330  144.1880 C   0  0  0  0  0  1  0  0  0  0  0  0
  161.4810  205.6440  148.4120 N   0  0  0  0  0  0  0  0  0  0  0  0
  161.1140  203.0970  151.9250 C   0  0  0  0  0  3  0  0  0  0  0  0
  161.0210  202.1580  147.5270 C   0  0  0  0  0  0  0  0  0  0  0  0
  160.8650  201.0350  148.3380 C   0  0  0  0  0  3  0  0  0  0  0  0
  161.6710  206.9530  146.4650 N   0  0  0  0  0  0  0  0  0  0  0  0
  161.2070  203.7300  150.6730 C   0  0  0  0  0  3  0  0  0  0  0  0
  161.6480  206.8590  147.8240 C   0  0  0  0  0  0  0  0  0  0  0  0
  161.3570  204.5980  146.2570 C   0  0  0  0  0  0  0  0  0  0  0  0
  162.0960  210.4590  148.8600 C   0  0  0  0  0  0  0  0  0  0  0  0
  161.8040  208.0680  148.6540 C   0  0  0  0  0  0  0  0  0  0  0  0
  161.9500  209.3270  148.0560 C   0  0  0  0  0  3  0  0  0  0  0  0
  162.2450  211.7400  148.2600 N   0  0  0  0  0  1  0  0  0  0  0  0
  161.8080  207.9740  150.0510 C   0  0  0  0  0  3  0  0  0  0  0  0
  162.0960  210.3390  150.2140 N   0  0  0  0  0  0  0  0  0  0  0  0
  161.9560  209.1300  150.8210 C   0  0  0  0  0  3  0  0  0  0  0  0
  1  4  1  0  0  0  0
  2  1  1  0  0  0  0
  2 11  1  0  0  0  0
  3 13  1  0  0  0  0
  4  7  2  0  0  0  0
  4 16  1  0  0  0  0
  6  3  2  0  0  0  0
  6 18  1  0  0  0  0
  7  8  1  0  0  0  0
  8  5  2  0  0  0  0
  9 18  1  0  0  0  0
  9 15  2  0  0  0  0
 10  9  1  0  0  0  0
 12  5  1  0  0  0  0
 13  1  1  0  0  0  0
 13 14  2  0  0  0  0
 14  7  1  0  0  0  0
 15 17  1  0  0  0  0
 16 12  2  0  0  0  0
 17 11  2  0  0  0  0
 17 20  1  0  0  0  0
 18  2  2  0  0  0  0
 19 24  1  0  0  0  0
 20 23  2  0  0  0  0
 21 20  1  0  0  0  0
 21 19  2  0  0  0  0
 22 19  1  0  0  0  0
 23 25  1  0  0  0  0
 24 25  2  0  0  0  0
M  END
>  <MODEL>
9

>  <REMARK>
 VINA RESULT:      -8.1      2.582      4.144
  Name = 
  1 active torsions:
  status: ('A' for Active; 'I' for Inactive)
    1  A    between atoms: C_6  and  C_23
                            x       y       z     vdW  Elec       q    Type
                         _______ _______ _______ _____ _____    ______ ____

>  <TORSDO>
F 1

$$$$
