=
 OpenBabel11062408083D

 34 39  0  0  1  0  0  0  0  0999 V2000
  160.8210  208.1730  154.8840 C   0  0  2  0  0  3  0  0  0  0  0  0
  161.2250  211.4950  154.1950 O   0  0  0  0  0  1  0  0  0  0  0  0
  161.5080  211.5160  147.7340 C   0  0  0  0  0  3  0  0  0  0  0  0
  161.1330  208.4730  152.4280 C   0  0  0  0  0  0  0  0  0  0  0  0
  161.5520  208.5520  150.0330 C   0  0  0  0  0  0  0  0  0  0  0  0
  161.9070  209.8630  155.6760 O   0  0  0  0  0  0  0  0  0  0  0  0
  161.7770  210.2190  154.3080 C   0  0  0  0  0  0  0  0  0  0  0  0
  161.2650  210.7300  151.2740 C   0  0  0  0  0  2  0  0  0  0  0  0
  161.4620  212.8080  147.7940 N   0  0  0  0  0  0  0  0  0  0  0  0
  160.8130  209.1480  153.7580 C   0  0  2  0  0  3  0  0  0  0  0  0
  162.1000  211.3570  150.1710 C   0  0  0  0  0  2  0  0  0  0  0  0
  161.8730  209.2860  148.7570 C   0  0  0  0  0  2  0  0  0  0  0  0
  161.4110  208.6120  155.9390 N   0  0  0  0  0  2  0  0  0  0  0  0
  161.0070  207.0600  152.3270 C   0  0  0  0  0  0  0  0  0  0  0  0
  160.5220  206.7650  154.6750 C   0  0  0  0  0  3  0  0  0  0  0  0
  163.0300  210.1730  153.6900 O   0  0  0  0  0  1  0  0  0  0  0  0
  161.4880  207.2000  149.9900 N   0  0  0  0  0  0  0  0  0  0  0  0
  161.2210  206.4310  151.0800 C   0  0  0  0  0  0  0  0  0  0  0  0
  161.7500  210.7310  148.9020 N   0  0  0  0  0  0  0  0  0  0  0  0
  161.3640  209.2280  151.2560 C   0  0  0  0  0  0  0  0  0  0  0  0
  160.6060  206.2780  153.4740 N   0  0  0  0  0  0  0  0  0  0  0  0
  161.0680  203.0310  149.4510 N   0  0  0  0  0  0  0  0  0  0  0  0
  161.4020  202.0860  150.5180 C   0  0  0  0  0  2  0  0  0  0  0  0
  161.1650  204.9570  150.8980 C   0  0  0  0  0  0  0  0  0  0  0  0
  161.2720  202.7060  151.8810 C   0  0  0  0  0  3  0  0  0  0  0  0
  161.1000  204.4480  149.6630 C   0  0  0  0  0  3  0  0  0  0  0  0
  161.1950  204.0280  152.0470 C   0  0  0  0  0  3  0  0  0  0  0  0
  160.9170  202.5300  148.0990 C   0  0  0  0  0  1  0  0  0  0  0  0
  159.2840  213.1570  145.2690 O   0  0  0  0  0  1  0  0  0  0  0  0
  160.5890  212.7370  145.5160 C   0  0  2  0  0  3  0  0  0  0  0  0
  162.7960  213.3260  144.7730 C   0  0  0  0  0  2  0  0  0  0  0  0
  162.5390  214.1040  146.0460 C   0  0  0  0  0  2  0  0  0  0  0  0
  161.2180  213.6020  146.5990 C   0  0  2  0  0  3  0  0  0  0  0  0
  161.4310  212.9220  144.2730 C   0  0  0  0  0  2  0  0  0  0  0  0
  1 15  1  6  0  0  0
  1 13  1  0  0  0  0
  2  7  1  0  0  0  0
  3  9  2  0  0  0  0
  3 19  1  0  0  0  0
  5 20  1  0  0  0  0
  6 13  1  0  0  0  0
  7  6  1  0  0  0  0
 10  4  1  6  0  0  0
 10  7  1  0  0  0  0
 10  1  1  0  0  0  0
 11  8  1  0  0  0  0
 12 19  1  0  0  0  0
 12  5  1  0  0  0  0
 14  4  1  0  0  0  0
 14 21  1  0  0  0  0
 16  7  1  0  0  0  0
 17  5  2  0  0  0  0
 17 18  1  0  0  0  0
 18 14  2  0  0  0  0
 19 11  1  0  0  0  0
 20  8  1  0  0  0  0
 20  4  2  0  0  0  0
 21 15  2  0  0  0  0
 22 26  1  0  0  0  0
 22 23  1  0  0  0  0
 23 25  1  0  0  0  0
 24 18  1  0  0  0  0
 24 27  1  0  0  0  0
 25 27  2  0  0  0  0
 26 24  2  0  0  0  0
 28 22  1  0  0  0  0
 30 29  1  6  0  0  0
 30 33  1  0  0  0  0
 31 32  1  0  0  0  0
 32 33  1  0  0  0  0
 33  9  1  1  0  0  0
 34 31  1  0  0  0  0
 34 30  1  0  0  0  0
M  END
>  <MODEL>
1

>  <REMARK>
 VINA RESULT:      -9.0      0.000      0.000
  Name = 
  2 active torsions:
  status: ('A' for Active; 'I' for Inactive)
    1  A    between atoms: C_12  and  C_28
    2  A    between atoms: N_13  and  C_33
                            x       y       z     vdW  Elec       q    Type
                         _______ _______ _______ _____ _____    ______ ____

>  <TORSDO>
F 2

$$$$
=
 OpenBabel11062408083D

 34 39  0  0  1  0  0  0  0  0999 V2000
  160.5710  204.5090  152.3730 C   0  0  2  0  0  3  0  0  0  0  0  0
  161.0300  207.6370  153.6680 O   0  0  0  0  0  1  0  0  0  0  0  0
  161.8010  211.2140  148.3360 C   0  0  0  0  0  3  0  0  0  0  0  0
  161.0690  206.1030  150.5210 C   0  0  0  0  0  0  0  0  0  0  0  0
  161.6680  207.4750  148.6030 C   0  0  0  0  0  0  0  0  0  0  0  0
  161.5960  205.4310  154.0350 O   0  0  0  0  0  0  0  0  0  0  0  0
  161.5700  206.4890  153.0880 C   0  0  0  0  0  0  0  0  0  0  0  0
  161.2900  208.6140  150.8230 C   0  0  0  0  0  2  0  0  0  0  0  0
  161.7530  212.2590  149.0990 N   0  0  0  0  0  0  0  0  0  0  0  0
  160.6500  205.9430  151.9780 C   0  0  2  0  0  3  0  0  0  0  0  0
  162.2070  209.7100  150.3070 C   0  0  0  0  0  2  0  0  0  0  0  0
  162.0860  208.7770  147.9710 C   0  0  0  0  0  2  0  0  0  0  0  0
  161.0800  204.2660  153.5280 N   0  0  0  0  0  2  0  0  0  0  0  0
  160.9490  204.9880  149.6450 C   0  0  0  0  0  0  0  0  0  0  0  0
  160.2870  203.4660  151.4000 C   0  0  0  0  0  3  0  0  0  0  0  0
  162.8660  206.7390  152.6290 O   0  0  0  0  0  1  0  0  0  0  0  0
  161.6060  206.3760  147.8140 N   0  0  0  0  0  0  0  0  0  0  0  0
  161.2560  205.1450  148.2750 C   0  0  0  0  0  0  0  0  0  0  0  0
  161.9530  209.9050  148.8850 N   0  0  0  0  0  0  0  0  0  0  0  0
  161.3890  207.3690  149.9810 C   0  0  0  0  0  0  0  0  0  0  0  0
  160.4610  203.7210  150.1390 N   0  0  0  0  0  0  0  0  0  0  0  0
  161.1680  201.6560  146.8410 N   0  0  0  0  0  0  0  0  0  0  0  0
  160.7860  201.8330  145.4390 C   0  0  0  0  0  2  0  0  0  0  0  0
  161.2130  204.0210  147.3030 C   0  0  0  0  0  0  0  0  0  0  0  0
  160.9720  203.2530  144.9800 C   0  0  0  0  0  3  0  0  0  0  0  0
  161.2310  202.7620  147.7510 C   0  0  0  0  0  3  0  0  0  0  0  0
  161.1370  204.2550  145.8450 C   0  0  0  0  0  3  0  0  0  0  0  0
  161.2700  200.3100  147.3710 C   0  0  0  0  0  1  0  0  0  0  0  0
  159.4080  214.4520  148.1310 O   0  0  0  0  0  1  0  0  0  0  0  0
  160.3980  213.6270  147.6000 C   0  0  2  0  0  3  0  0  0  0  0  0
  162.3640  213.8880  146.2450 C   0  0  0  0  0  2  0  0  0  0  0  0
  162.8170  213.9230  147.6890 C   0  0  0  0  0  2  0  0  0  0  0  0
  161.6000  213.5900  148.5320 C   0  0  2  0  0  3  0  0  0  0  0  0
  160.8870  214.1950  146.2860 C   0  0  0  0  0  2  0  0  0  0  0  0
  1 15  1  6  0  0  0
  1 13  1  0  0  0  0
  3 19  1  0  0  0  0
  3  9  2  0  0  0  0
  5 20  2  0  0  0  0
  7  2  1  0  0  0  0
  7  6  1  0  0  0  0
 10  4  1  6  0  0  0
 10  1  1  0  0  0  0
 10  7  1  0  0  0  0
 11  8  1  0  0  0  0
 12  5  1  0  0  0  0
 12 19  1  0  0  0  0
 13  6  1  0  0  0  0
 14 21  1  0  0  0  0
 14  4  2  0  0  0  0
 16  7  1  0  0  0  0
 17 18  2  0  0  0  0
 17  5  1  0  0  0  0
 18 14  1  0  0  0  0
 19 11  1  0  0  0  0
 20  4  1  0  0  0  0
 20  8  1  0  0  0  0
 21 15  2  0  0  0  0
 22 28  1  0  0  0  0
 22 26  1  0  0  0  0
 23 22  1  0  0  0  0
 24 26  2  0  0  0  0
 24 18  1  0  0  0  0
 25 23  1  0  0  0  0
 25 27  2  0  0  0  0
 27 24  1  0  0  0  0
 30 29  1  1  0  0  0
 30 33  1  0  0  0  0
 31 34  1  0  0  0  0
 31 32  1  0  0  0  0
 32 33  1  0  0  0  0
 33  9  1  6  0  0  0
 34 30  1  0  0  0  0
M  END
>  <MODEL>
2

>  <REMARK>
 VINA RESULT:      -7.9      2.102      3.417
  Name = 
  2 active torsions:
  status: ('A' for Active; 'I' for Inactive)
    1  A    between atoms: C_12  and  C_28
    2  A    between atoms: N_13  and  C_33
                            x       y       z     vdW  Elec       q    Type
                         _______ _______ _______ _____ _____    ______ ____

>  <TORSDO>
F 2

$$$$
