=
 OpenBabel11062410413D

 32 36  0  0  1  0  0  0  0  0999 V2000
  160.1860  207.8670  153.6940 C   0  0  0  0  0  2  0  0  0  0  0  0
  162.0830  210.9630  149.1950 C   0  0  0  0  0  3  0  0  0  0  0  0
  162.2040  209.6990  148.5880 C   0  0  0  0  0  3  0  0  0  0  0  0
  160.7700  209.5390  155.5950 C   0  0  2  0  0  3  0  0  0  0  0  0
  161.9500  210.5990  153.7110 C   0  0  0  0  0  2  0  0  0  0  0  0
  162.7470  210.8530  155.9180 C   0  0  0  0  0  1  0  0  0  0  0  0
  161.7980  211.0650  150.5660 C   0  0  0  0  0  3  0  0  0  0  0  0
  161.2230  209.7170  152.6980 C   0  0  1  0  0  3  0  0  0  0  0  0
  161.6840  209.8870  151.3050 C   0  0  0  0  0  0  0  0  0  0  0  0
  161.5160  207.5950  151.7180 C   0  0  2  0  0  3  0  0  0  0  0  0
  162.0690  209.9370  155.0130 N   0  0  0  0  0  0  0  0  0  0  0  0
  162.0460  208.5300  149.3510 C   0  0  0  0  0  3  0  0  0  0  0  0
  161.8100  208.6590  150.7210 C   0  0  0  0  0  0  0  0  0  0  0  0
  160.3070  208.1220  155.2030 C   0  0  0  0  0  2  0  0  0  0  0  0
  161.3970  208.2900  153.0080 N   0  0  2  0  0  0  0  0  0  0  0  0
  157.8440  212.6610  156.2280 C   0  0  0  0  0  0  0  0  0  0  0  0
  158.8990  210.4980  153.4930 F   0  0  0  0  0  0  0  0  0  0  0  0
  157.9350  212.0700  154.9670 C   0  0  0  0  0  3  0  0  0  0  0  0
  158.6830  212.2360  157.2580 C   0  0  0  0  0  3  0  0  0  0  0  0
  159.7240  210.6240  155.7610 C   0  0  0  0  0  0  0  0  0  0  0  0
  156.9390  213.6430  156.4520 F   0  0  0  0  0  0  0  0  0  0  0  0
  159.6160  211.2230  157.0230 C   0  0  0  0  0  3  0  0  0  0  0  0
  158.8660  211.0550  154.7260 C   0  0  0  0  0  0  0  0  0  0  0  0
  162.5760  206.4770  151.7900 C   0  0  0  0  0  2  0  0  0  0  0  0
  161.6800  204.9900  149.8810 C   0  0  0  0  0  2  0  0  0  0  0  0
  160.9800  203.7000  149.5530 C   0  0  0  0  0  0  0  0  0  0  0  0
  161.2530  204.3600  152.3170 C   0  0  0  0  0  0  0  0  0  0  0  0
  160.5990  203.2540  151.9570 C   0  0  0  0  0  3  0  0  0  0  0  0
  160.7740  202.6440  150.5990 C   0  0  0  0  0  2  0  0  0  0  0  0
  160.6000  203.4970  148.4120 O   0  0  0  0  0  0  0  0  0  0  0  0
  161.1310  204.8160  153.6240 O   0  0  0  0  0  1  0  0  0  0  0  0
  162.1650  205.0610  151.3390 C   0  0  2  0  0  3  0  0  0  0  0  0
  1 14  1  0  0  0  0
  2  7  1  0  0  0  0
  3  2  2  0  0  0  0
  3 12  1  0  0  0  0
  4 20  1  6  0  0  0
  5 11  1  0  0  0  0
  7  9  2  0  0  0  0
  8 15  1  0  0  0  0
  8  5  1  1  0  0  0
  9  8  1  0  0  0  0
 10 24  1  1  0  0  0
 10 15  1  0  0  0  0
 11  4  1  0  0  0  0
 11  6  1  0  0  0  0
 12 13  2  0  0  0  0
 13  9  1  0  0  0  0
 13 10  1  0  0  0  0
 14  4  1  0  0  0  0
 15  1  1  6  0  0  0
 16 21  1  0  0  0  0
 16 19  1  0  0  0  0
 17 23  1  0  0  0  0
 18 16  2  0  0  0  0
 20 22  1  0  0  0  0
 22 19  2  0  0  0  0
 23 18  1  0  0  0  0
 23 20  2  0  0  0  0
 25 32  1  0  0  0  0
 26 25  1  0  0  0  0
 26 29  1  0  0  0  0
 27 31  1  0  0  0  0
 28 27  2  0  0  0  0
 29 28  1  0  0  0  0
 30 26  2  0  0  0  0
 32 24  1  1  0  0  0
 32 27  1  0  0  0  0
M  END
>  <MODEL>
1

>  <REMARK>
 VINA RESULT:      -7.5      0.000      0.000
  Name = 
  3 active torsions:
  status: ('A' for Active; 'I' for Inactive)
    1  A    between atoms: C_8  and  C_19
    2  A    between atoms: C_16  and  C_27
    3  A    between atoms: C_27  and  C_32
                            x       y       z     vdW  Elec       q    Type
                         _______ _______ _______ _____ _____    ______ ____

>  <TORSDO>
F 3

$$$$
=
 OpenBabel11062410413D

 32 36  0  0  1  0  0  0  0  0999 V2000
  160.6250  206.9130  147.4500 C   0  0  0  0  0  2  0  0  0  0  0  0
  161.2640  204.3010  152.5680 C   0  0  0  0  0  3  0  0  0  0  0  0
  161.0430  205.5970  153.0700 C   0  0  0  0  0  3  0  0  0  0  0  0
  161.9770  205.2450  145.9860 C   0  0  2  0  0  3  0  0  0  0  0  0
  162.5810  204.4360  148.2330 C   0  0  0  0  0  2  0  0  0  0  0  0
  164.0790  204.1860  146.4270 C   0  0  0  0  0  1  0  0  0  0  0  0
  161.4570  204.1000  151.1920 C   0  0  0  0  0  3  0  0  0  0  0  0
  161.4720  205.2620  148.8810 C   0  0  1  0  0  3  0  0  0  0  0  0
  161.4660  205.2180  150.3560 C   0  0  0  0  0  0  0  0  0  0  0  0
  161.1970  207.4470  149.7170 C   0  0  2  0  0  3  0  0  0  0  0  0
  163.0480  205.0460  146.9850 N   0  0  0  0  0  0  0  0  0  0  0  0
  161.0190  206.6980  152.2000 C   0  0  0  0  0  3  0  0  0  0  0  0
  161.2600  206.4770  150.8430 C   0  0  0  0  0  0  0  0  0  0  0  0
  161.2610  206.6070  146.0870 C   0  0  0  0  0  2  0  0  0  0  0  0
  161.5830  206.6830  148.5210 N   0  0  2  0  0  0  0  0  0  0  0  0
  159.7270  201.6880  144.9910 C   0  0  0  0  0  0  0  0  0  0  0  0
  160.0440  205.0920  143.7330 F   0  0  0  0  0  0  0  0  0  0  0  0
  159.5360  202.8400  144.2270 C   0  0  0  0  0  3  0  0  0  0  0  0
  160.6380  201.6960  146.0470 C   0  0  0  0  0  3  0  0  0  0  0  0
  161.1660  204.0270  145.5890 C   0  0  0  0  0  0  0  0  0  0  0  0
  159.0330  200.5610  144.7030 F   0  0  0  0  0  0  0  0  0  0  0  0
  161.3520  202.8600  146.3430 C   0  0  0  0  0  3  0  0  0  0  0  0
  160.2480  204.0080  144.5170 C   0  0  0  0  0  0  0  0  0  0  0  0
  162.0950  208.6880  149.8910 C   0  0  0  0  0  2  0  0  0  0  0  0
  162.1910  210.8550  148.4920 C   0  0  0  0  0  2  0  0  0  0  0  0
  161.8040  212.3080  148.4480 C   0  0  0  0  0  0  0  0  0  0  0  0
  161.2270  210.8850  150.8550 C   0  0  0  0  0  0  0  0  0  0  0  0
  160.9530  212.1880  150.7680 C   0  0  0  0  0  3  0  0  0  0  0  0
  160.8400  212.8820  149.4440 C   0  0  0  0  0  2  0  0  0  0  0  0
  162.2580  213.0220  147.5700 O   0  0  0  0  0  0  0  0  0  0  0  0
  161.2130  210.2790  152.1050 O   0  0  0  0  0  1  0  0  0  0  0  0
  161.4770  210.0730  149.6070 C   0  0  2  0  0  3  0  0  0  0  0  0
  2  3  1  0  0  0  0
  4 20  1  1  0  0  0
  4 14  1  0  0  0  0
  4 11  1  0  0  0  0
  6 11  1  0  0  0  0
  7  2  2  0  0  0  0
  8  5  1  1  0  0  0
  8  9  1  0  0  0  0
  9 13  2  0  0  0  0
  9  7  1  0  0  0  0
 10 24  1  1  0  0  0
 10 13  1  0  0  0  0
 11  5  1  0  0  0  0
 12  3  2  0  0  0  0
 13 12  1  0  0  0  0
 14  1  1  0  0  0  0
 15  1  1  6  0  0  0
 15  8  1  0  0  0  0
 15 10  1  0  0  0  0
 16 19  1  0  0  0  0
 17 23  1  0  0  0  0
 18 23  1  0  0  0  0
 18 16  2  0  0  0  0
 19 22  2  0  0  0  0
 20 22  1  0  0  0  0
 21 16  1  0  0  0  0
 23 20  2  0  0  0  0
 25 32  1  0  0  0  0
 26 25  1  0  0  0  0
 26 29  1  0  0  0  0
 27 31  1  0  0  0  0
 28 27  2  0  0  0  0
 29 28  1  0  0  0  0
 30 26  2  0  0  0  0
 32 24  1  1  0  0  0
 32 27  1  0  0  0  0
M  END
>  <MODEL>
2

>  <REMARK>
 VINA RESULT:      -5.0      5.108      9.539
  Name = 
  3 active torsions:
  status: ('A' for Active; 'I' for Inactive)
    1  A    between atoms: C_8  and  C_19
    2  A    between atoms: C_16  and  C_27
    3  A    between atoms: C_27  and  C_32
                            x       y       z     vdW  Elec       q    Type
                         _______ _______ _______ _____ _____    ______ ____

>  <TORSDO>
F 3

$$$$
=
 OpenBabel11062410413D

 32 36  0  0  1  0  0  0  0  0999 V2000
  160.3020  208.1480  151.2860 C   0  0  0  0  0  2  0  0  0  0  0  0
  160.2260  207.1190  156.9750 C   0  0  0  0  0  3  0  0  0  0  0  0
  159.7850  208.4540  157.0430 C   0  0  0  0  0  3  0  0  0  0  0  0
  162.0660  206.3710  150.5900 C   0  0  2  0  0  3  0  0  0  0  0  0
  162.3140  206.2890  153.0390 C   0  0  0  0  0  2  0  0  0  0  0  0
  164.1440  205.7940  151.6320 C   0  0  0  0  0  1  0  0  0  0  0  0
  160.6940  206.5900  155.7620 C   0  0  0  0  0  3  0  0  0  0  0  0
  161.0260  207.0830  153.2440 C   0  0  1  0  0  3  0  0  0  0  0  0
  160.7470  207.4330  154.6510 C   0  0  0  0  0  0  0  0  0  0  0  0
  160.3800  209.3450  153.3630 C   0  0  2  0  0  3  0  0  0  0  0  0
  162.9450  206.6080  151.7550 N   0  0  0  0  0  0  0  0  0  0  0  0
  159.8150  209.2670  155.8990 C   0  0  0  0  0  3  0  0  0  0  0  0
  160.3280  208.7310  154.7170 C   0  0  0  0  0  0  0  0  0  0  0  0
  161.2100  207.5880  150.1830 C   0  0  0  0  0  2  0  0  0  0  0  0
  161.0600  208.3570  152.5110 N   0  0  2  0  0  0  0  0  0  0  0  0
  160.3580  202.4060  150.3400 C   0  0  0  0  0  0  0  0  0  0  0  0
  161.3780  205.0290  148.0280 F   0  0  0  0  0  0  0  0  0  0  0  0
  160.5940  203.1120  149.1600 C   0  0  0  0  0  3  0  0  0  0  0  0
  160.6810  202.9780  151.5700 C   0  0  0  0  0  3  0  0  0  0  0  0
  161.4710  204.9840  150.4420 C   0  0  0  0  0  0  0  0  0  0  0  0
  159.8200  201.1640  150.2910 F   0  0  0  0  0  0  0  0  0  0  0  0
  161.2350  204.2600  151.6180 C   0  0  0  0  0  3  0  0  0  0  0  0
  161.1480  204.3950  149.2010 C   0  0  0  0  0  0  0  0  0  0  0  0
  161.1000  210.7080  153.3060 C   0  0  0  0  0  2  0  0  0  0  0  0
  158.8930  211.9700  153.7490 C   0  0  0  0  0  2  0  0  0  0  0  0
  157.9460  213.0130  153.2220 C   0  0  0  0  0  0  0  0  0  0  0  0
  160.1570  212.3090  151.5580 C   0  0  0  0  0  0  0  0  0  0  0  0
  159.2530  213.1920  151.1300 C   0  0  0  0  0  3  0  0  0  0  0  0
  158.3340  213.9020  152.0780 C   0  0  0  0  0  2  0  0  0  0  0  0
  156.8580  213.1570  153.7540 O   0  0  0  0  0  0  0  0  0  0  0  0
  161.0500  211.7660  150.6440 O   0  0  0  0  0  1  0  0  0  0  0  0
  160.2490  211.9630  153.0250 C   0  0  2  0  0  3  0  0  0  0  0  0
  2  3  1  0  0  0  0
  4 20  1  1  0  0  0
  4 11  1  0  0  0  0
  6 11  1  0  0  0  0
  7  2  2  0  0  0  0
  8  5  1  1  0  0  0
  8  9  1  0  0  0  0
  9 13  2  0  0  0  0
  9  7  1  0  0  0  0
 10 24  1  1  0  0  0
 10 13  1  0  0  0  0
 11  5  1  0  0  0  0
 12  3  2  0  0  0  0
 13 12  1  0  0  0  0
 14  4  1  0  0  0  0
 14  1  1  0  0  0  0
 15  1  1  6  0  0  0
 15  8  1  0  0  0  0
 15 10  1  0  0  0  0
 16 19  1  0  0  0  0
 17 23  1  0  0  0  0
 18 23  1  0  0  0  0
 18 16  2  0  0  0  0
 19 22  2  0  0  0  0
 20 22  1  0  0  0  0
 21 16  1  0  0  0  0
 23 20  2  0  0  0  0
 26 25  1  0  0  0  0
 26 30  2  0  0  0  0
 27 32  1  0  0  0  0
 28 27  2  0  0  0  0
 28 29  1  0  0  0  0
 29 26  1  0  0  0  0
 31 27  1  0  0  0  0
 32 24  1  6  0  0  0
 32 25  1  0  0  0  0
M  END
>  <MODEL>
3

>  <REMARK>
 VINA RESULT:      -4.5      3.782      8.089
  Name = 
  3 active torsions:
  status: ('A' for Active; 'I' for Inactive)
    1  A    between atoms: C_8  and  C_19
    2  A    between atoms: C_16  and  C_27
    3  A    between atoms: C_27  and  C_32
                            x       y       z     vdW  Elec       q    Type
                         _______ _______ _______ _____ _____    ______ ____

>  <TORSDO>
F 3

$$$$
