=
 OpenBabel11052422053D

 25 28  0  0  1  0  0  0  0  0999 V2000
  161.3610  205.0910  149.2480 C   0  0  0  0  0  0  0  0  0  0  0  0
  161.4600  206.2050  150.1030 C   0  0  0  0  0  0  0  0  0  0  0  0
  160.6800  203.7000  151.1130 C   0  0  0  0  0  3  0  0  0  0  0  0
  161.6100  205.0180  147.8650 C   0  0  0  0  0  0  0  0  0  0  0  0
  161.9890  209.8840  150.2010 C   0  0  0  0  0  0  0  0  0  0  0  0
  162.0040  204.4840  145.1480 C   0  0  0  0  0  3  0  0  0  0  0  0
  160.7800  204.7820  151.9330 N   0  0  0  0  0  0  0  0  0  0  0  0
  161.4090  203.7380  147.3480 C   0  0  0  0  0  0  0  0  0  0  0  0
  161.5970  203.4460  145.9990 C   0  0  0  0  0  3  0  0  0  0  0  0
  161.2240  207.1480  152.4230 C   0  0  0  0  0  0  0  0  0  0  0  0
  160.9110  206.9020  154.1320 Cl  0  0  0  0  0  0  0  0  0  0  0  0
  162.2160  211.1080  149.8130 C   0  0  0  0  0  3  0  0  0  0  0  0
  161.9320  207.5440  149.5910 C   0  0  0  0  0  2  0  0  0  0  0  0
  162.2110  205.7810  145.6530 C   0  0  0  0  0  3  0  0  0  0  0  0
  160.9710  203.8590  149.7660 C   0  0  0  0  0  0  0  0  0  0  0  0
  160.9250  202.6790  148.5640 S   0  0  0  0  0  0  0  0  0  0  0  0
  161.4950  208.3810  151.9980 C   0  0  0  0  0  3  0  0  0  0  0  0
  162.0150  206.0540  147.0170 C   0  0  0  0  0  3  0  0  0  0  0  0
  161.7630  208.6580  150.5820 C   0  0  0  0  0  0  0  0  0  0  0  0
  161.1570  206.0150  151.4770 C   0  0  0  0  0  0  0  0  0  0  0  0
  161.9580  211.5270  148.4030 C   0  0  2  0  0  3  0  0  0  0  0  0
  163.1850  212.1890  147.7970 C   0  0  0  0  0  1  0  0  0  0  0  0
  160.7850  212.4490  148.3390 C   0  0  0  0  0  0  0  0  0  0  0  0
  160.4710  213.2350  149.4390 O   0  0  0  0  0  1  0  0  0  0  0  0
  160.0800  212.5230  147.2960 O   0  0  0  0  0  0  0  0  0  0  0  0
  1 15  1  0  0  0  0
  1  2  2  0  0  0  0
  2 20  1  0  0  0  0
  3  7  1  0  0  0  0
  4  1  1  0  0  0  0
  5 19  2  0  0  0  0
  6 14  2  0  0  0  0
  6  9  1  0  0  0  0
  8  4  1  0  0  0  0
  8 16  1  0  0  0  0
  9  8  2  0  0  0  0
 10 11  1  0  0  0  0
 12  5  2  0  0  0  0
 13  2  1  0  0  0  0
 13 19  1  0  0  0  0
 14 18  1  0  0  0  0
 15  3  2  0  0  0  0
 16 15  1  0  0  0  0
 17 10  2  0  0  0  0
 18  4  2  0  0  0  0
 19 17  1  0  0  0  0
 20  7  2  0  0  0  0
 20 10  1  0  0  0  0
 21 22  1  1  0  0  0
 21 12  1  0  0  0  0
 23 21  1  0  0  0  0
 23 24  1  0  0  0  0
 25 23  2  0  0  0  0
M  END
>  <MODEL>
1

>  <REMARK>
 VINA RESULT:      -9.9      0.000      0.000
  Name = 
  2 active torsions:
  status: ('A' for Active; 'I' for Inactive)
    1  A    between atoms: C_2  and  C_21
    2  A    between atoms: C_15  and  C_21
                            x       y       z     vdW  Elec       q    Type
                         _______ _______ _______ _____ _____    ______ ____

>  <TORSDO>
F 2

$$$$
=
 OpenBabel11052422053D

 25 28  0  0  1  0  0  0  0  0999 V2000
  161.4140  205.4830  148.9780 C   0  0  0  0  0  0  0  0  0  0  0  0
  161.4220  206.7420  149.6090 C   0  0  0  0  0  0  0  0  0  0  0  0
  162.0870  206.5080  146.8880 C   0  0  0  0  0  3  0  0  0  0  0  0
  161.1000  204.2250  149.5270 C   0  0  0  0  0  0  0  0  0  0  0  0
  161.1290  208.4630  152.8920 C   0  0  0  0  0  0  0  0  0  0  0  0
  160.5560  201.5790  150.2500 C   0  0  0  0  0  3  0  0  0  0  0  0
  162.0910  207.7210  147.5050 N   0  0  0  0  0  0  0  0  0  0  0  0
  161.1980  203.1910  148.5960 C   0  0  0  0  0  0  0  0  0  0  0  0
  160.9330  201.8650  148.9310 C   0  0  0  0  0  3  0  0  0  0  0  0
  161.8170  209.2190  149.4340 C   0  0  0  0  0  0  0  0  0  0  0  0
  162.1880  210.6260  148.4540 Cl  0  0  0  0  0  0  0  0  0  0  0  0
  160.9630  208.6610  154.1710 C   0  0  0  0  0  3  0  0  0  0  0  0
  161.0140  206.8940  151.0540 C   0  0  0  0  0  2  0  0  0  0  0  0
  160.4520  202.6100  151.2030 C   0  0  0  0  0  3  0  0  0  0  0  0
  161.7480  205.3870  147.6310 C   0  0  0  0  0  0  0  0  0  0  0  0
  161.6670  203.7910  147.0940 S   0  0  0  0  0  0  0  0  0  0  0  0
  161.6060  209.3910  150.7370 C   0  0  0  0  0  3  0  0  0  0  0  0
  160.7250  203.9400  150.8440 C   0  0  0  0  0  3  0  0  0  0  0  0
  161.2940  208.2570  151.6160 C   0  0  0  0  0  0  0  0  0  0  0  0
  161.7720  207.8730  148.8270 C   0  0  0  0  0  0  0  0  0  0  0  0
  161.1850  207.5590  155.1530 C   0  0  2  0  0  3  0  0  0  0  0  0
  160.8130  206.2110  154.5550 C   0  0  0  0  0  1  0  0  0  0  0  0
  160.4030  207.8070  156.4010 C   0  0  0  0  0  0  0  0  0  0  0  0
  160.0300  209.1030  156.7300 O   0  0  0  0  0  0  0  0  0  0  0  0
  160.0760  206.8530  157.1570 O   0  0  0  0  0  1  0  0  0  0  0  0
  1  4  1  0  0  0  0
  1  2  1  0  0  0  0
  2 13  1  0  0  0  0
  3  7  2  0  0  0  0
  3 15  1  0  0  0  0
  4 18  1  0  0  0  0
  5 12  2  0  0  0  0
  6 14  1  0  0  0  0
  7 20  1  0  0  0  0
  8  9  1  0  0  0  0
  8  4  2  0  0  0  0
  9  6  2  0  0  0  0
 10 17  2  0  0  0  0
 11 10  1  0  0  0  0
 12 21  1  0  0  0  0
 13 19  1  0  0  0  0
 15  1  2  0  0  0  0
 16 15  1  0  0  0  0
 16  8  1  0  0  0  0
 17 19  1  0  0  0  0
 18 14  2  0  0  0  0
 19  5  2  0  0  0  0
 20 10  1  0  0  0  0
 20  2  2  0  0  0  0
 21 22  1  6  0  0  0
 21 23  1  0  0  0  0
 23 24  2  0  0  0  0
 23 25  1  0  0  0  0
M  END
>  <MODEL>
2

>  <REMARK>
 VINA RESULT:      -9.8      3.539      5.440
  Name = 
  2 active torsions:
  status: ('A' for Active; 'I' for Inactive)
    1  A    between atoms: C_2  and  C_21
    2  A    between atoms: C_15  and  C_21
                            x       y       z     vdW  Elec       q    Type
                         _______ _______ _______ _____ _____    ______ ____

>  <TORSDO>
F 2

$$$$
=
 OpenBabel11052422053D

 25 28  0  0  1  0  0  0  0  0999 V2000
  161.4620  207.1930  151.0860 C   0  0  0  0  0  0  0  0  0  0  0  0
  161.2640  205.8890  150.5920 C   0  0  0  0  0  0  0  0  0  0  0  0
  161.2720  206.3770  153.3600 C   0  0  0  0  0  3  0  0  0  0  0  0
  161.6690  208.3850  150.3660 C   0  0  0  0  0  0  0  0  0  0  0  0
  161.3110  203.7980  147.5180 C   0  0  0  0  0  0  0  0  0  0  0  0
  162.1040  210.9320  149.2970 C   0  0  0  0  0  3  0  0  0  0  0  0
  161.0800  205.1210  152.8750 N   0  0  0  0  0  0  0  0  0  0  0  0
  161.8260  209.4950  151.1960 C   0  0  0  0  0  0  0  0  0  0  0  0
  162.0450  210.7740  150.6890 C   0  0  0  0  0  3  0  0  0  0  0  0
  160.8740  203.4530  151.0810 C   0  0  0  0  0  0  0  0  0  0  0  0
  160.5710  202.1730  152.2420 Cl  0  0  0  0  0  0  0  0  0  0  0  0
  161.4170  203.4470  146.2660 C   0  0  0  0  0  3  0  0  0  0  0  0
  161.2000  205.6170  149.1080 C   0  0  0  0  0  2  0  0  0  0  0  0
  161.9480  209.8230  148.4450 C   0  0  0  0  0  3  0  0  0  0  0  0
  161.4650  207.4140  152.4600 C   0  0  0  0  0  0  0  0  0  0  0  0
  161.7160  209.0430  152.8140 S   0  0  0  0  0  0  0  0  0  0  0  0
  160.9520  203.1350  149.7900 C   0  0  0  0  0  3  0  0  0  0  0  0
  161.7290  208.5420  148.9780 C   0  0  0  0  0  3  0  0  0  0  0  0
  161.2070  204.1560  148.7660 C   0  0  0  0  0  0  0  0  0  0  0  0
  161.0690  204.8460  151.5340 C   0  0  0  0  0  0  0  0  0  0  0  0
  162.1830  204.2860  145.2960 C   0  0  2  0  0  3  0  0  0  0  0  0
  163.3380  204.9960  145.9830 C   0  0  0  0  0  1  0  0  0  0  0  0
  161.2800  205.2770  144.6380 C   0  0  0  0  0  0  0  0  0  0  0  0
  160.4120  206.0340  145.4130 O   0  0  0  0  0  1  0  0  0  0  0  0
  161.3010  205.4360  143.3880 O   0  0  0  0  0  0  0  0  0  0  0  0
  1 15  1  0  0  0  0
  2  1  2  0  0  0  0
  2 20  1  0  0  0  0
  4  1  1  0  0  0  0
  4  8  1  0  0  0  0
  5 19  2  0  0  0  0
  6  9  1  0  0  0  0
  7  3  1  0  0  0  0
  8 16  1  0  0  0  0
  9  8  2  0  0  0  0
 10 20  1  0  0  0  0
 10 11  1  0  0  0  0
 12  5  2  0  0  0  0
 13  2  1  0  0  0  0
 14 18  1  0  0  0  0
 14  6  2  0  0  0  0
 15 16  1  0  0  0  0
 15  3  2  0  0  0  0
 17 10  2  0  0  0  0
 18  4  2  0  0  0  0
 19 13  1  0  0  0  0
 19 17  1  0  0  0  0
 20  7  2  0  0  0  0
 21 22  1  1  0  0  0
 21 12  1  0  0  0  0
 23 21  1  0  0  0  0
 23 24  1  0  0  0  0
 25 23  2  0  0  0  0
M  END
>  <MODEL>
3

>  <REMARK>
 VINA RESULT:      -9.8      3.003      5.913
  Name = 
  2 active torsions:
  status: ('A' for Active; 'I' for Inactive)
    1  A    between atoms: C_2  and  C_21
    2  A    between atoms: C_15  and  C_21
                            x       y       z     vdW  Elec       q    Type
                         _______ _______ _______ _____ _____    ______ ____

>  <TORSDO>
F 2

$$$$
=
 OpenBabel11052422053D

 25 28  0  0  1  0  0  0  0  0999 V2000
  161.2160  204.6010  150.0300 C   0  0  0  0  0  0  0  0  0  0  0  0
  161.3550  205.7480  150.8350 C   0  0  0  0  0  0  0  0  0  0  0  0
  160.6940  203.2700  151.9870 C   0  0  0  0  0  3  0  0  0  0  0  0
  161.3690  204.4810  148.6350 C   0  0  0  0  0  0  0  0  0  0  0  0
  161.8200  209.4360  150.7640 C   0  0  0  0  0  0  0  0  0  0  0  0
  161.5810  203.8540  145.9190 C   0  0  0  0  0  3  0  0  0  0  0  0
  160.8310  204.3820  152.7580 N   0  0  0  0  0  0  0  0  0  0  0  0
  161.1550  203.1800  148.1800 C   0  0  0  0  0  0  0  0  0  0  0  0
  161.2540  202.8410  146.8330 C   0  0  0  0  0  3  0  0  0  0  0  0
  161.2640  206.7720  153.1300 C   0  0  0  0  0  0  0  0  0  0  0  0
  161.0770  206.5850  154.8650 Cl  0  0  0  0  0  0  0  0  0  0  0  0
  161.9960  210.6490  150.3160 C   0  0  0  0  0  3  0  0  0  0  0  0
  161.7630  207.0740  150.2430 C   0  0  0  0  0  2  0  0  0  0  0  0
  161.7990  205.1710  146.3610 C   0  0  0  0  0  3  0  0  0  0  0  0
  160.8870  203.3840  150.6180 C   0  0  0  0  0  0  0  0  0  0  0  0
  160.7790  202.1590  149.4640 S   0  0  0  0  0  0  0  0  0  0  0  0
  161.4820  207.9930  152.6440 C   0  0  0  0  0  3  0  0  0  0  0  0
  161.6930  205.4910  147.7240 C   0  0  0  0  0  3  0  0  0  0  0  0
  161.6440  208.2220  151.2020 C   0  0  0  0  0  0  0  0  0  0  0  0
  161.1520  205.6040  152.2330 C   0  0  0  0  0  0  0  0  0  0  0  0
  161.6310  211.0100  148.9140 C   0  0  2  0  0  3  0  0  0  0  0  0
  161.9560  209.8740  147.9560 C   0  0  0  0  0  1  0  0  0  0  0  0
  162.3370  212.2590  148.4970 C   0  0  0  0  0  0  0  0  0  0  0  0
  161.7650  213.4930  148.7720 O   0  0  0  0  0  1  0  0  0  0  0  0
  163.4460  212.2030  147.9020 O   0  0  0  0  0  0  0  0  0  0  0  0
  1 15  1  0  0  0  0
  1  2  2  0  0  0  0
  2 20  1  0  0  0  0
  3  7  1  0  0  0  0
  4  1  1  0  0  0  0
  5 19  2  0  0  0  0
  6 14  2  0  0  0  0
  6  9  1  0  0  0  0
  8  4  1  0  0  0  0
  8 16  1  0  0  0  0
  9  8  2  0  0  0  0
 10 11  1  0  0  0  0
 12  5  2  0  0  0  0
 13  2  1  0  0  0  0
 13 19  1  0  0  0  0
 14 18  1  0  0  0  0
 15  3  2  0  0  0  0
 16 15  1  0  0  0  0
 17 10  2  0  0  0  0
 18  4  2  0  0  0  0
 19 17  1  0  0  0  0
 20  7  2  0  0  0  0
 20 10  1  0  0  0  0
 21 22  1  6  0  0  0
 21 12  1  0  0  0  0
 23 24  1  0  0  0  0
 23 21  1  0  0  0  0
 25 23  2  0  0  0  0
M  END
>  <MODEL>
4

>  <REMARK>
 VINA RESULT:      -9.0      1.132      1.276
  Name = 
  2 active torsions:
  status: ('A' for Active; 'I' for Inactive)
    1  A    between atoms: C_2  and  C_21
    2  A    between atoms: C_15  and  C_21
                            x       y       z     vdW  Elec       q    Type
                         _______ _______ _______ _____ _____    ______ ____

>  <TORSDO>
F 2

$$$$
=
 OpenBabel11052422053D

 25 28  0  0  1  0  0  0  0  0999 V2000
  161.4610  206.2510  149.7740 C   0  0  0  0  0  0  0  0  0  0  0  0
  161.5250  207.6040  150.1590 C   0  0  0  0  0  0  0  0  0  0  0  0
  162.0380  206.8550  147.4990 C   0  0  0  0  0  3  0  0  0  0  0  0
  161.1560  205.1250  150.5620 C   0  0  0  0  0  0  0  0  0  0  0  0
  161.4400  209.9080  153.0750 C   0  0  0  0  0  0  0  0  0  0  0  0
  160.6050  202.6740  151.7890 C   0  0  0  0  0  3  0  0  0  0  0  0
  162.0970  208.1600  147.8790 N   0  0  0  0  0  0  0  0  0  0  0  0
  161.1860  203.9350  149.8350 C   0  0  0  0  0  0  0  0  0  0  0  0
  160.9160  202.7010  150.4220 C   0  0  0  0  0  3  0  0  0  0  0  0
  161.9530  209.9950  149.5070 C   0  0  0  0  0  0  0  0  0  0  0  0
  162.2950  211.1870  148.2660 Cl  0  0  0  0  0  0  0  0  0  0  0  0
  161.3460  210.3440  154.3020 C   0  0  0  0  0  3  0  0  0  0  0  0
  161.1980  208.0320  151.5690 C   0  0  0  0  0  2  0  0  0  0  0  0
  160.5710  203.8650  152.5380 C   0  0  0  0  0  3  0  0  0  0  0  0
  161.7200  205.9000  148.4530 C   0  0  0  0  0  0  0  0  0  0  0  0
  161.5830  204.2350  148.2260 S   0  0  0  0  0  0  0  0  0  0  0  0
  161.8150  210.4110  150.7650 C   0  0  0  0  0  3  0  0  0  0  0  0
  160.8470  205.0980  151.9260 C   0  0  0  0  0  3  0  0  0  0  0  0
  161.5320  209.4670  151.8530 C   0  0  0  0  0  0  0  0  0  0  0  0
  161.8520  208.5620  149.1640 C   0  0  0  0  0  0  0  0  0  0  0  0
  161.6020  209.4360  155.4600 C   0  0  2  0  0  3  0  0  0  0  0  0
  160.3090  208.8050  155.9540 C   0  0  0  0  0  1  0  0  0  0  0  0
  162.2730  210.1800  156.5670 C   0  0  0  0  0  0  0  0  0  0  0  0
  163.3170  209.5830  157.2600 O   0  0  0  0  0  1  0  0  0  0  0  0
  161.9030  211.3450  156.8770 O   0  0  0  0  0  0  0  0  0  0  0  0
  1  2  1  0  0  0  0
  1  4  1  0  0  0  0
  2 13  1  0  0  0  0
  3  7  2  0  0  0  0
  3 15  1  0  0  0  0
  4 18  1  0  0  0  0
  5 12  2  0  0  0  0
  6 14  1  0  0  0  0
  7 20  1  0  0  0  0
  8  9  1  0  0  0  0
  8  4  2  0  0  0  0
  9  6  2  0  0  0  0
 10 17  2  0  0  0  0
 11 10  1  0  0  0  0
 12 21  1  0  0  0  0
 13 19  1  0  0  0  0
 15  1  2  0  0  0  0
 16 15  1  0  0  0  0
 16  8  1  0  0  0  0
 17 19  1  0  0  0  0
 18 14  2  0  0  0  0
 19  5  2  0  0  0  0
 20 10  1  0  0  0  0
 20  2  2  0  0  0  0
 21 22  1  1  0  0  0
 21 23  1  0  0  0  0
 23 25  2  0  0  0  0
 23 24  1  0  0  0  0
M  END
>  <MODEL>
5

>  <REMARK>
 VINA RESULT:      -8.3      3.532      5.488
  Name = 
  2 active torsions:
  status: ('A' for Active; 'I' for Inactive)
    1  A    between atoms: C_2  and  C_21
    2  A    between atoms: C_15  and  C_21
                            x       y       z     vdW  Elec       q    Type
                         _______ _______ _______ _____ _____    ______ ____

>  <TORSDO>
F 2

$$$$
=
 OpenBabel11052422053D

 25 28  0  0  1  0  0  0  0  0999 V2000
  161.0950  206.3160  151.3090 C   0  0  0  0  0  0  0  0  0  0  0  0
  160.9980  207.4000  152.2030 C   0  0  0  0  0  0  0  0  0  0  0  0
  161.1690  204.7670  153.1710 C   0  0  0  0  0  3  0  0  0  0  0  0
  161.1270  206.3360  149.9020 C   0  0  0  0  0  0  0  0  0  0  0  0
  160.4220  211.0660  152.4340 C   0  0  0  0  0  0  0  0  0  0  0  0
  161.2150  205.9730  147.1310 C   0  0  0  0  0  3  0  0  0  0  0  0
  161.0760  205.8200  154.0280 N   0  0  0  0  0  0  0  0  0  0  0  0
  161.2320  205.0610  149.3480 C   0  0  0  0  0  0  0  0  0  0  0  0
  161.2770  204.8530  147.9710 C   0  0  0  0  0  3  0  0  0  0  0  0
  160.8730  208.2050  154.5830 C   0  0  0  0  0  0  0  0  0  0  0  0
  160.9290  207.8590  156.3020 Cl  0  0  0  0  0  0  0  0  0  0  0  0
  160.2100  212.3060  152.0880 C   0  0  0  0  0  3  0  0  0  0  0  0
  160.9610  208.8240  151.7040 C   0  0  0  0  0  2  0  0  0  0  0  0
  161.1080  207.2670  147.6730 C   0  0  0  0  0  3  0  0  0  0  0  0
  161.1770  205.0200  151.8080 C   0  0  0  0  0  0  0  0  0  0  0  0
  161.2880  203.8930  150.5590 S   0  0  0  0  0  0  0  0  0  0  0  0
  160.6940  209.4660  154.1950 C   0  0  0  0  0  3  0  0  0  0  0  0
  161.0630  207.4540  149.0640 C   0  0  0  0  0  3  0  0  0  0  0  0
  160.6340  209.8260  152.7720 C   0  0  0  0  0  0  0  0  0  0  0  0
  160.9920  207.1140  153.5930 C   0  0  0  0  0  0  0  0  0  0  0  0
  159.6140  212.6410  150.7600 C   0  0  2  0  0  3  0  0  0  0  0  0
  160.4340  213.7040  150.0470 C   0  0  0  0  0  1  0  0  0  0  0  0
  158.2010  213.0970  150.9230 C   0  0  0  0  0  0  0  0  0  0  0  0
  157.7370  213.4560  152.1810 O   0  0  0  0  0  1  0  0  0  0  0  0
  157.4270  213.1620  149.9300 O   0  0  0  0  0  0  0  0  0  0  0  0
  1 15  1  0  0  0  0
  1  2  2  0  0  0  0
  2 20  1  0  0  0  0
  3  7  1  0  0  0  0
  4  1  1  0  0  0  0
  5 19  2  0  0  0  0
  6 14  2  0  0  0  0
  6  9  1  0  0  0  0
  8  4  1  0  0  0  0
  8 16  1  0  0  0  0
  9  8  2  0  0  0  0
 10 11  1  0  0  0  0
 12  5  2  0  0  0  0
 13  2  1  0  0  0  0
 13 19  1  0  0  0  0
 14 18  1  0  0  0  0
 15  3  2  0  0  0  0
 16 15  1  0  0  0  0
 17 10  2  0  0  0  0
 18  4  2  0  0  0  0
 19 17  1  0  0  0  0
 20  7  2  0  0  0  0
 20 10  1  0  0  0  0
 21 22  1  1  0  0  0
 21 23  1  0  0  0  0
 21 12  1  0  0  0  0
 23 24  1  0  0  0  0
 25 23  2  0  0  0  0
M  END
>  <MODEL>
6

>  <REMARK>
 VINA RESULT:      -8.1      2.142      2.840
  Name = 
  2 active torsions:
  status: ('A' for Active; 'I' for Inactive)
    1  A    between atoms: C_2  and  C_21
    2  A    between atoms: C_15  and  C_21
                            x       y       z     vdW  Elec       q    Type
                         _______ _______ _______ _____ _____    ______ ____

>  <TORSDO>
F 2

$$$$
=
 OpenBabel11052422053D

 25 28  0  0  1  0  0  0  0  0999 V2000
  161.5270  207.4100  150.0980 C   0  0  0  0  0  0  0  0  0  0  0  0
  161.3990  206.7000  151.3080 C   0  0  0  0  0  0  0  0  0  0  0  0
  161.2110  205.3590  148.8440 C   0  0  0  0  0  3  0  0  0  0  0  0
  161.7540  208.7850  149.9030 C   0  0  0  0  0  0  0  0  0  0  0  0
  161.1090  207.0720  154.9950 C   0  0  0  0  0  0  0  0  0  0  0  0
  162.1920  211.4350  149.1230 C   0  0  0  0  0  3  0  0  0  0  0  0
  161.0900  204.6810  150.0180 N   0  0  0  0  0  0  0  0  0  0  0  0
  161.8260  209.1340  148.5550 C   0  0  0  0  0  0  0  0  0  0  0  0
  162.0430  210.4460  148.1400 C   0  0  0  0  0  3  0  0  0  0  0  0
  161.0150  204.5020  152.4680 C   0  0  0  0  0  0  0  0  0  0  0  0
  160.8040  202.7630  152.3810 Cl  0  0  0  0  0  0  0  0  0  0  0  0
  161.0520  207.6150  156.1800 C   0  0  0  0  0  3  0  0  0  0  0  0
  161.5520  207.3940  152.6400 C   0  0  0  0  0  2  0  0  0  0  0  0
  162.1210  211.1000  150.4880 C   0  0  0  0  0  3  0  0  0  0  0  0
  161.4290  206.7280  148.8880 C   0  0  0  0  0  0  0  0  0  0  0  0
  161.6160  207.7770  147.5810 S   0  0  0  0  0  0  0  0  0  0  0  0
  160.9990  205.0850  153.6650 C   0  0  0  0  0  3  0  0  0  0  0  0
  161.9010  209.7710  150.8850 C   0  0  0  0  0  3  0  0  0  0  0  0
  161.1670  206.5360  153.8090 C   0  0  0  0  0  0  0  0  0  0  0  0
  161.1770  205.3000  151.2350 C   0  0  0  0  0  0  0  0  0  0  0  0
  160.6760  209.0510  156.3490 C   0  0  2  0  0  3  0  0  0  0  0  0
  159.4310  209.3870  155.5420 C   0  0  0  0  0  1  0  0  0  0  0  0
  161.8090  209.9380  155.9500 C   0  0  0  0  0  0  0  0  0  0  0  0
  161.7900  210.5570  154.7080 O   0  0  0  0  0  0  0  0  0  0  0  0
  162.7800  210.1310  156.7290 O   0  0  0  0  0  1  0  0  0  0  0  0
  1  2  2  0  0  0  0
  2 13  1  0  0  0  0
  3 15  2  0  0  0  0
  3  7  1  0  0  0  0
  4  1  1  0  0  0  0
  4 18  1  0  0  0  0
  5 12  2  0  0  0  0
  6 14  1  0  0  0  0
  7 20  2  0  0  0  0
  8  4  2  0  0  0  0
  9  8  1  0  0  0  0
  9  6  2  0  0  0  0
 10 17  2  0  0  0  0
 11 10  1  0  0  0  0
 12 21  1  0  0  0  0
 13 19  1  0  0  0  0
 14 18  2  0  0  0  0
 15  1  1  0  0  0  0
 16  8  1  0  0  0  0
 16 15  1  0  0  0  0
 17 19  1  0  0  0  0
 19  5  2  0  0  0  0
 20  2  1  0  0  0  0
 20 10  1  0  0  0  0
 21 22  1  6  0  0  0
 23 21  1  0  0  0  0
 23 25  1  0  0  0  0
 24 23  2  0  0  0  0
M  END
>  <MODEL>
7

>  <REMARK>
 VINA RESULT:      -7.2      3.182      5.702
  Name = 
  2 active torsions:
  status: ('A' for Active; 'I' for Inactive)
    1  A    between atoms: C_2  and  C_21
    2  A    between atoms: C_15  and  C_21
                            x       y       z     vdW  Elec       q    Type
                         _______ _______ _______ _____ _____    ______ ____

>  <TORSDO>
F 2

$$$$
=
 OpenBabel11052422053D

 25 28  0  0  1  0  0  0  0  0999 V2000
  161.6360  207.2940  150.1690 C   0  0  0  0  0  0  0  0  0  0  0  0
  161.7160  206.3110  149.1640 C   0  0  0  0  0  0  0  0  0  0  0  0
  161.9140  209.0370  148.5070 C   0  0  0  0  0  3  0  0  0  0  0  0
  161.4630  207.1240  151.5550 C   0  0  0  0  0  0  0  0  0  0  0  0
  161.3360  202.6770  148.4750 C   0  0  0  0  0  0  0  0  0  0  0  0
  161.1310  207.1890  154.3310 C   0  0  0  0  0  3  0  0  0  0  0  0
  161.9910  208.0800  147.5420 N   0  0  0  0  0  0  0  0  0  0  0  0
  161.4320  208.3350  152.2470 C   0  0  0  0  0  0  0  0  0  0  0  0
  161.2680  208.3950  153.6290 C   0  0  0  0  0  3  0  0  0  0  0  0
  161.9730  205.7640  146.7220 C   0  0  0  0  0  0  0  0  0  0  0  0
  162.2630  206.2940  145.0760 Cl  0  0  0  0  0  0  0  0  0  0  0  0
  161.1290  201.4020  148.6570 C   0  0  0  0  0  3  0  0  0  0  0  0
  161.6680  204.8410  149.5040 C   0  0  0  0  0  2  0  0  0  0  0  0
  161.1600  205.9580  153.6490 C   0  0  0  0  0  3  0  0  0  0  0  0
  161.7340  208.6390  149.8230 C   0  0  0  0  0  0  0  0  0  0  0  0
  161.6140  209.6280  151.1840 S   0  0  0  0  0  0  0  0  0  0  0  0
  161.7930  204.4640  146.9480 C   0  0  0  0  0  3  0  0  0  0  0  0
  161.3260  205.9210  152.2550 C   0  0  0  0  0  3  0  0  0  0  0  0
  161.5420  203.9520  148.3010 C   0  0  0  0  0  0  0  0  0  0  0  0
  161.8990  206.7450  147.8250 C   0  0  0  0  0  0  0  0  0  0  0  0
  160.3610  200.9100  149.8390 C   0  0  2  0  0  3  0  0  0  0  0  0
  158.8640  201.0690  149.6220 C   0  0  0  0  0  1  0  0  0  0  0  0
  160.7860  201.6330  151.0750 C   0  0  0  0  0  0  0  0  0  0  0  0
  162.0280  201.3630  151.6340 O   0  0  0  0  0  1  0  0  0  0  0  0
  160.0310  202.4870  151.6130 O   0  0  0  0  0  0  0  0  0  0  0  0
  1  4  1  0  0  0  0
  2 13  1  0  0  0  0
  2  1  1  0  0  0  0
  3 15  1  0  0  0  0
  4  8  2  0  0  0  0
  4 18  1  0  0  0  0
  5 12  2  0  0  0  0
  7 20  1  0  0  0  0
  7  3  2  0  0  0  0
  8  9  1  0  0  0  0
  9  6  2  0  0  0  0
 10 17  2  0  0  0  0
 10 20  1  0  0  0  0
 11 10  1  0  0  0  0
 12 21  1  0  0  0  0
 14  6  1  0  0  0  0
 15  1  2  0  0  0  0
 15 16  1  0  0  0  0
 16  8  1  0  0  0  0
 17 19  1  0  0  0  0
 18 14  2  0  0  0  0
 19  5  2  0  0  0  0
 19 13  1  0  0  0  0
 20  2  2  0  0  0  0
 21 22  1  6  0  0  0
 21 23  1  0  0  0  0
 23 25  2  0  0  0  0
 23 24  1  0  0  0  0
M  END
>  <MODEL>
8

>  <REMARK>
 VINA RESULT:      -7.2      4.440      7.751
  Name = 
  2 active torsions:
  status: ('A' for Active; 'I' for Inactive)
    1  A    between atoms: C_2  and  C_21
    2  A    between atoms: C_15  and  C_21
                            x       y       z     vdW  Elec       q    Type
                         _______ _______ _______ _____ _____    ______ ____

>  <TORSDO>
F 2

$$$$
=
 OpenBabel11052422053D

 25 28  0  0  1  0  0  0  0  0999 V2000
  159.5400  211.2440  154.5380 C   0  0  0  0  0  0  0  0  0  0  0  0
  159.9620  209.9020  154.4930 C   0  0  0  0  0  0  0  0  0  0  0  0
  159.3000  211.1060  156.9460 C   0  0  0  0  0  3  0  0  0  0  0  0
  159.3790  212.1520  153.4740 C   0  0  0  0  0  0  0  0  0  0  0  0
  161.3620  207.2600  152.2830 C   0  0  0  0  0  0  0  0  0  0  0  0
  158.9480  214.2210  151.6430 C   0  0  0  0  0  3  0  0  0  0  0  0
  159.7070  209.8090  156.8940 N   0  0  0  0  0  0  0  0  0  0  0  0
  158.9390  213.4060  153.8970 C   0  0  0  0  0  0  0  0  0  0  0  0
  158.7170  214.4530  153.0060 C   0  0  0  0  0  3  0  0  0  0  0  0
  160.4910  207.7840  155.7430 C   0  0  0  0  0  0  0  0  0  0  0  0
  160.5230  206.8830  157.2480 Cl  0  0  0  0  0  0  0  0  0  0  0  0
  161.8120  206.6510  151.2210 C   0  0  0  0  0  3  0  0  0  0  0  0
  160.2680  209.2210  153.1810 C   0  0  0  0  0  2  0  0  0  0  0  0
  159.3930  212.9620  151.1980 C   0  0  0  0  0  3  0  0  0  0  0  0
  159.2180  211.8230  155.7610 C   0  0  0  0  0  0  0  0  0  0  0  0
  158.7390  213.4280  155.5690 S   0  0  0  0  0  0  0  0  0  0  0  0
  160.9090  207.1790  154.6330 C   0  0  0  0  0  3  0  0  0  0  0  0
  159.6110  211.9200  152.1140 C   0  0  0  0  0  3  0  0  0  0  0  0
  160.9110  207.8750  153.3400 C   0  0  0  0  0  0  0  0  0  0  0  0
  160.0370  209.1900  155.7190 C   0  0  0  0  0  0  0  0  0  0  0  0
  162.3390  207.4250  150.0570 C   0  0  2  0  0  3  0  0  0  0  0  0
  162.0660  208.9120  150.2230 C   0  0  0  0  0  1  0  0  0  0  0  0
  161.7380  206.9260  148.7840 C   0  0  0  0  0  0  0  0  0  0  0  0
  160.4150  206.5070  148.7690 O   0  0  0  0  0  1  0  0  0  0  0  0
  162.4180  206.8840  147.7240 O   0  0  0  0  0  0  0  0  0  0  0  0
  1 15  1  0  0  0  0
  2  1  2  0  0  0  0
  2 20  1  0  0  0  0
  4  8  1  0  0  0  0
  4  1  1  0  0  0  0
  5 19  2  0  0  0  0
  6  9  1  0  0  0  0
  7  3  1  0  0  0  0
  8 16  1  0  0  0  0
  9  8  2  0  0  0  0
 10 11  1  0  0  0  0
 12  5  2  0  0  0  0
 13 19  1  0  0  0  0
 13  2  1  0  0  0  0
 14  6  2  0  0  0  0
 14 18  1  0  0  0  0
 15  3  2  0  0  0  0
 16 15  1  0  0  0  0
 17 10  2  0  0  0  0
 18  4  2  0  0  0  0
 19 17  1  0  0  0  0
 20 10  1  0  0  0  0
 20  7  2  0  0  0  0
 21 22  1  1  0  0  0
 21 12  1  0  0  0  0
 23 21  1  0  0  0  0
 24 23  1  0  0  0  0
 25 23  2  0  0  0  0
M  END
>  <MODEL>
9

>  <REMARK>
 VINA RESULT:      -7.1      4.770      7.752
  Name = 
  2 active torsions:
  status: ('A' for Active; 'I' for Inactive)
    1  A    between atoms: C_2  and  C_21
    2  A    between atoms: C_15  and  C_21
                            x       y       z     vdW  Elec       q    Type
                         _______ _______ _______ _____ _____    ______ ____

>  <TORSDO>
F 2

$$$$
