=
 OpenBabel11052422453D

 31 34  0  0  1  0  0  0  0  0999 V2000
  161.5240  205.1890  149.6880 C   0  0  0  0  0  0  0  0  0  0  0  0
  161.2110  203.8900  149.2600 C   0  0  0  0  0  0  0  0  0  0  0  0
  160.8020  202.2230  147.5680 C   0  0  0  0  0  3  0  0  0  0  0  0
  161.8410  206.3230  148.8900 N   0  0  0  0  0  0  0  0  0  0  0  0
  161.1260  203.5360  147.9120 C   0  0  0  0  0  3  0  0  0  0  0  0
  161.9330  206.9260  151.2370 C   0  0  1  0  0  3  0  0  0  0  0  0
  161.0300  203.2490  151.5800 N   0  0  0  0  0  0  0  0  0  0  0  0
  160.5700  201.2970  148.5380 N   0  0  0  0  0  0  0  0  0  0  0  0
  161.5630  205.4960  151.0220 C   0  0  0  0  0  0  0  0  0  0  0  0
  160.3830  200.5980  150.8340 N   0  0  0  0  0  1  0  0  0  0  0  0
  162.1590  207.4390  149.7820 C   0  0  2  0  0  3  0  0  0  0  0  0
  161.3290  204.5150  151.9860 C   0  0  0  0  0  3  0  0  0  0  0  0
  160.9600  202.9140  150.2560 C   0  0  0  0  0  0  0  0  0  0  0  0
  160.6410  201.6060  149.8610 C   0  0  0  0  0  0  0  0  0  0  0  0
  162.2250  209.5830  148.6700 O   0  0  0  0  0  1  0  0  0  0  0  0
  161.3980  208.7080  149.3810 C   0  0  0  0  0  2  0  0  0  0  0  0
  160.8360  207.6680  152.0060 C   0  0  0  0  0  2  0  0  0  0  0  0
  159.8520  209.1020  154.9090 O   0  0  0  0  0  0  0  0  0  0  0  0
  159.7540  207.2900  156.3870 N   0  0  0  0  0  2  0  0  0  0  0  0
  160.2210  207.8420  155.3190 C   0  0  0  0  0  0  0  0  0  0  0  0
  160.5350  209.4740  153.7260 C   0  0  2  0  0  3  0  0  0  0  0  0
  161.1970  207.2010  154.4210 C   0  0  0  0  0  2  0  0  0  0  0  0
  161.3640  208.2410  153.3130 C   0  0  1  0  0  3  0  0  0  0  0  0
  161.4230  210.5920  154.0150 N   0  0  0  0  0  2  0  0  0  0  0  0
  161.3470  210.8690  155.4430 C   0  0  0  0  0  2  0  0  0  0  0  0
  162.6430  210.5380  156.1070 C   0  0  0  0  0  0  0  0  0  0  0  0
  163.6850  211.0250  155.7000 O   0  0  0  0  0  0  0  0  0  0  0  0
  162.6660  209.5970  157.2610 C   0  0  0  0  0  1  0  0  0  0  0  0
  162.2800  206.2790  147.5010 C   0  0  0  0  0  2  0  0  0  0  0  0
  161.0920  206.4410  146.5700 C   0  0  0  0  0  2  0  0  0  0  0  0
  161.4130  205.8110  145.2310 C   0  0  0  0  0  1  0  0  0  0  0  0
  1  9  1  0  0  0  0
  2  1  2  0  0  0  0
  2 13  1  0  0  0  0
  3  5  2  0  0  0  0
  3  8  1  0  0  0  0
  4  1  1  0  0  0  0
  4 11  1  0  0  0  0
  5  2  1  0  0  0  0
  6 17  1  6  0  0  0
  7 12  1  0  0  0  0
  8 14  2  0  0  0  0
  9  6  1  0  0  0  0
  9 12  2  0  0  0  0
 11 16  1  6  0  0  0
 11  6  1  0  0  0  0
 13  7  2  0  0  0  0
 14 13  1  0  0  0  0
 14 10  1  0  0  0  0
 15 16  1  0  0  0  0
 18 20  1  0  0  0  0
 20 19  2  0  0  0  0
 21 24  1  1  0  0  0
 21 18  1  0  0  0  0
 22 20  1  0  0  0  0
 23 17  1  6  0  0  0
 23 21  1  0  0  0  0
 23 22  1  0  0  0  0
 24 25  1  0  0  0  0
 25 26  1  0  0  0  0
 26 28  1  0  0  0  0
 27 26  2  0  0  0  0
 29  4  1  0  0  0  0
 30 29  1  0  0  0  0
 31 30  1  0  0  0  0
M  END
>  <MODEL>
1

>  <REMARK>
 VINA RESULT:      -7.7      0.000      0.000
  Name = 
  8 active torsions:
  status: ('A' for Active; 'I' for Inactive)
    1  A    between atoms: C_1  and  C_24
    2  A    between atoms: C_2  and  C_25
    3  A    between atoms: N_6  and  C_19
    4  A    between atoms: N_6  and  C_24
    5  A    between atoms: N_12  and  C_25
    6  A    between atoms: C_15  and  C_20
    7  A    between atoms: C_20  and  C_23
    8  A    between atoms: C_27  and  C_28
                            x       y       z     vdW  Elec       q    Type
                         _______ _______ _______ _____ _____    ______ ____

>  <TORSDO>
F 8

$$$$
=
 OpenBabel11052422453D

 31 34  0  0  1  0  0  0  0  0999 V2000
  161.2350  205.6850  149.5440 C   0  0  0  0  0  0  0  0  0  0  0  0
  161.2920  204.9140  148.3730 C   0  0  0  0  0  0  0  0  0  0  0  0
  161.2050  202.8310  147.1630 C   0  0  0  0  0  3  0  0  0  0  0  0
  160.9680  205.2470  150.8710 N   0  0  0  0  0  0  0  0  0  0  0  0
  161.1260  203.5280  148.3700 C   0  0  0  0  0  3  0  0  0  0  0  0
  161.3110  207.6470  150.8580 C   0  0  1  0  0  3  0  0  0  0  0  0
  161.7220  206.9460  147.1440 N   0  0  0  0  0  0  0  0  0  0  0  0
  161.4440  203.4970  146.0010 N   0  0  0  0  0  0  0  0  0  0  0  0
  161.4380  207.0390  149.5000 C   0  0  0  0  0  0  0  0  0  0  0  0
  161.8670  205.4920  144.7210 N   0  0  0  0  0  1  0  0  0  0  0  0
  160.9480  206.4190  151.7470 C   0  0  2  0  0  3  0  0  0  0  0  0
  161.6700  207.6860  148.2870 C   0  0  0  0  0  3  0  0  0  0  0  0
  161.5470  205.5900  147.1540 C   0  0  0  0  0  0  0  0  0  0  0  0
  161.6140  204.8460  145.9660 C   0  0  0  0  0  0  0  0  0  0  0  0
  161.1580  206.6460  154.1430 O   0  0  0  0  0  1  0  0  0  0  0  0
  161.8140  206.1990  152.9920 C   0  0  0  0  0  2  0  0  0  0  0  0
  162.6050  208.3610  151.2620 C   0  0  0  0  0  2  0  0  0  0  0  0
  160.1350  210.5270  152.0730 O   0  0  0  0  0  0  0  0  0  0  0  0
  160.1440  210.4870  154.4130 N   0  0  0  0  0  2  0  0  0  0  0  0
  160.7490  210.3210  153.2860 C   0  0  0  0  0  0  0  0  0  0  0  0
  161.0330  210.3040  151.0010 C   0  0  2  0  0  3  0  0  0  0  0  0
  162.1550  209.9000  153.1620 C   0  0  0  0  0  2  0  0  0  0  0  0
  162.3440  209.8090  151.6470 C   0  0  1  0  0  3  0  0  0  0  0  0
  161.2700  211.5590  150.3030 N   0  0  0  0  0  2  0  0  0  0  0  0
  162.0440  211.2680  149.1040 C   0  0  0  0  0  2  0  0  0  0  0  0
  161.7620  212.2810  148.0430 C   0  0  0  0  0  0  0  0  0  0  0  0
  160.7890  212.1570  147.3170 O   0  0  0  0  0  0  0  0  0  0  0  0
  162.6820  213.4360  147.8590 C   0  0  0  0  0  1  0  0  0  0  0  0
  160.3270  203.9880  151.2290 C   0  0  0  0  0  2  0  0  0  0  0  0
  161.3610  202.9970  151.7310 C   0  0  0  0  0  2  0  0  0  0  0  0
  161.1470  201.6610  151.0510 C   0  0  0  0  0  1  0  0  0  0  0  0
  1  4  1  0  0  0  0
  2  1  2  0  0  0  0
  3  5  2  0  0  0  0
  4 29  1  0  0  0  0
  4 11  1  0  0  0  0
  5  2  1  0  0  0  0
  6 17  1  1  0  0  0
  6 11  1  0  0  0  0
  7 13  2  0  0  0  0
  7 12  1  0  0  0  0
  8  3  1  0  0  0  0
  9  1  1  0  0  0  0
  9  6  1  0  0  0  0
 10 14  1  0  0  0  0
 11 16  1  1  0  0  0
 12  9  2  0  0  0  0
 13  2  1  0  0  0  0
 14  8  2  0  0  0  0
 14 13  1  0  0  0  0
 16 15  1  0  0  0  0
 18 20  1  0  0  0  0
 20 19  2  0  0  0  0
 21 24  1  1  0  0  0
 21 23  1  0  0  0  0
 21 18  1  0  0  0  0
 22 20  1  0  0  0  0
 23 17  1  1  0  0  0
 23 22  1  0  0  0  0
 25 24  1  0  0  0  0
 26 25  1  0  0  0  0
 27 26  2  0  0  0  0
 28 26  1  0  0  0  0
 29 30  1  0  0  0  0
 31 30  1  0  0  0  0
M  END
>  <MODEL>
2

>  <REMARK>
 VINA RESULT:      -7.6      2.358      4.889
  Name = 
  8 active torsions:
  status: ('A' for Active; 'I' for Inactive)
    1  A    between atoms: C_1  and  C_24
    2  A    between atoms: C_2  and  C_25
    3  A    between atoms: N_6  and  C_19
    4  A    between atoms: N_6  and  C_24
    5  A    between atoms: N_12  and  C_25
    6  A    between atoms: C_15  and  C_20
    7  A    between atoms: C_20  and  C_23
    8  A    between atoms: C_27  and  C_28
                            x       y       z     vdW  Elec       q    Type
                         _______ _______ _______ _____ _____    ______ ____

>  <TORSDO>
F 8

$$$$
=
 OpenBabel11052422453D

 31 34  0  0  1  0  0  0  0  0999 V2000
  161.5330  205.1550  149.7000 C   0  0  0  0  0  0  0  0  0  0  0  0
  161.2250  203.8630  149.2480 C   0  0  0  0  0  0  0  0  0  0  0  0
  160.8170  202.2280  147.5250 C   0  0  0  0  0  3  0  0  0  0  0  0
  161.8430  206.3060  148.9240 N   0  0  0  0  0  0  0  0  0  0  0  0
  161.1370  203.5350  147.8940 C   0  0  0  0  0  3  0  0  0  0  0  0
  161.9410  206.8630  151.2820 C   0  0  1  0  0  3  0  0  0  0  0  0
  161.0540  203.1760  151.5550 N   0  0  0  0  0  0  0  0  0  0  0  0
  160.5920  201.2820  148.4780 N   0  0  0  0  0  0  0  0  0  0  0  0
  161.5760  205.4350  151.0400 C   0  0  0  0  0  0  0  0  0  0  0  0
  160.4160  200.5370  150.7600 N   0  0  0  0  0  1  0  0  0  0  0  0
  162.1590  207.4060  149.8360 C   0  0  2  0  0  3  0  0  0  0  0  0
  161.3490  204.4350  151.9850 C   0  0  0  0  0  3  0  0  0  0  0  0
  160.9810  202.8660  150.2260 C   0  0  0  0  0  0  0  0  0  0  0  0
  160.6660  201.5660  149.8060 C   0  0  0  0  0  0  0  0  0  0  0  0
  162.1890  209.5360  148.6990 O   0  0  0  0  0  1  0  0  0  0  0  0
  161.3920  208.6780  149.4620 C   0  0  0  0  0  2  0  0  0  0  0  0
  160.8430  207.5840  152.0690 C   0  0  0  0  0  2  0  0  0  0  0  0
  159.8810  208.9770  154.9990 O   0  0  0  0  0  0  0  0  0  0  0  0
  159.8690  207.1580  156.4710 N   0  0  0  0  0  2  0  0  0  0  0  0
  160.2960  207.7280  155.3950 C   0  0  0  0  0  0  0  0  0  0  0  0
  160.5260  209.3750  153.8030 C   0  0  2  0  0  3  0  0  0  0  0  0
  161.2700  207.1200  154.4730 C   0  0  0  0  0  2  0  0  0  0  0  0
  161.3820  208.1680  153.3660 C   0  0  1  0  0  3  0  0  0  0  0  0
  161.3870  210.5170  154.0780 N   0  0  0  0  0  2  0  0  0  0  0  0
  160.5530  211.5940  154.5940 C   0  0  0  0  0  2  0  0  0  0  0  0
  159.6510  212.1140  153.5240 C   0  0  0  0  0  0  0  0  0  0  0  0
  160.1140  212.4980  152.4620 O   0  0  0  0  0  0  0  0  0  0  0  0
  158.1830  212.1800  153.7590 C   0  0  0  0  0  1  0  0  0  0  0  0
  162.2770  206.2900  147.5330 C   0  0  0  0  0  2  0  0  0  0  0  0
  161.0950  206.5310  146.6110 C   0  0  0  0  0  2  0  0  0  0  0  0
  161.3180  205.7980  145.3060 C   0  0  0  0  0  1  0  0  0  0  0  0
  1  9  1  0  0  0  0
  2  1  2  0  0  0  0
  2 13  1  0  0  0  0
  3  5  2  0  0  0  0
  3  8  1  0  0  0  0
  4  1  1  0  0  0  0
  4 11  1  0  0  0  0
  5  2  1  0  0  0  0
  6 17  1  6  0  0  0
  7 12  1  0  0  0  0
  8 14  2  0  0  0  0
  9  6  1  0  0  0  0
  9 12  2  0  0  0  0
 11 16  1  6  0  0  0
 11  6  1  0  0  0  0
 13  7  2  0  0  0  0
 14 13  1  0  0  0  0
 14 10  1  0  0  0  0
 15 16  1  0  0  0  0
 18 20  1  0  0  0  0
 20 19  2  0  0  0  0
 21 24  1  1  0  0  0
 21 18  1  0  0  0  0
 22 20  1  0  0  0  0
 23 17  1  6  0  0  0
 23 21  1  0  0  0  0
 23 22  1  0  0  0  0
 24 25  1  0  0  0  0
 26 28  1  0  0  0  0
 26 25  1  0  0  0  0
 27 26  2  0  0  0  0
 29  4  1  0  0  0  0
 30 29  1  0  0  0  0
 31 30  1  0  0  0  0
M  END
>  <MODEL>
3

>  <REMARK>
 VINA RESULT:      -7.6      1.159      1.653
  Name = 
  8 active torsions:
  status: ('A' for Active; 'I' for Inactive)
    1  A    between atoms: C_1  and  C_24
    2  A    between atoms: C_2  and  C_25
    3  A    between atoms: N_6  and  C_19
    4  A    between atoms: N_6  and  C_24
    5  A    between atoms: N_12  and  C_25
    6  A    between atoms: C_15  and  C_20
    7  A    between atoms: C_20  and  C_23
    8  A    between atoms: C_27  and  C_28
                            x       y       z     vdW  Elec       q    Type
                         _______ _______ _______ _____ _____    ______ ____

>  <TORSDO>
F 8

$$$$
=
 OpenBabel11052422453D

 31 34  0  0  1  0  0  0  0  0999 V2000
  161.1630  205.9440  149.7630 C   0  0  0  0  0  0  0  0  0  0  0  0
  161.3040  205.1900  148.5880 C   0  0  0  0  0  0  0  0  0  0  0  0
  161.4150  203.1160  147.3650 C   0  0  0  0  0  3  0  0  0  0  0  0
  160.9150  205.4750  151.0830 N   0  0  0  0  0  0  0  0  0  0  0  0
  161.2580  203.7940  148.5740 C   0  0  0  0  0  3  0  0  0  0  0  0
  161.0490  207.8960  151.0900 C   0  0  1  0  0  3  0  0  0  0  0  0
  161.5740  207.2600  147.3780 N   0  0  0  0  0  0  0  0  0  0  0  0
  161.6130  203.8090  146.2110 N   0  0  0  0  0  0  0  0  0  0  0  0
  161.2490  207.3110  149.7310 C   0  0  0  0  0  0  0  0  0  0  0  0
  161.8800  205.8420  144.9500 N   0  0  0  0  0  1  0  0  0  0  0  0
  160.7810  206.6350  151.9660 C   0  0  2  0  0  3  0  0  0  0  0  0
  161.4420  207.9850  148.5250 C   0  0  0  0  0  3  0  0  0  0  0  0
  161.5170  205.8940  147.3770 C   0  0  0  0  0  0  0  0  0  0  0  0
  161.6660  205.1680  146.1870 C   0  0  0  0  0  0  0  0  0  0  0  0
  160.8720  206.6220  154.3800 O   0  0  0  0  0  1  0  0  0  0  0  0
  161.6440  206.4810  153.2230 C   0  0  0  0  0  2  0  0  0  0  0  0
  162.2700  208.7160  151.5180 C   0  0  0  0  0  2  0  0  0  0  0  0
  160.2680  209.9350  153.9590 O   0  0  0  0  0  0  0  0  0  0  0  0
  161.6970  210.0440  155.8100 N   0  0  0  0  0  2  0  0  0  0  0  0
  161.5140  210.0300  154.5330 C   0  0  0  0  0  0  0  0  0  0  0  0
  160.3520  209.9710  152.5460 C   0  0  2  0  0  3  0  0  0  0  0  0
  162.6030  210.1170  153.5450 C   0  0  0  0  0  2  0  0  0  0  0  0
  161.8580  210.0040  152.2150 C   0  0  1  0  0  3  0  0  0  0  0  0
  159.7120  211.1850  152.0580 N   0  0  0  0  0  2  0  0  0  0  0  0
  158.5590  211.4570  152.9040 C   0  0  0  0  0  2  0  0  0  0  0  0
  158.5120  212.9040  153.2720 C   0  0  0  0  0  0  0  0  0  0  0  0
  158.1110  213.7300  152.4690 O   0  0  0  0  0  0  0  0  0  0  0  0
  158.9740  213.3420  154.6180 C   0  0  0  0  0  1  0  0  0  0  0  0
  160.3790  204.1630  151.4230 C   0  0  0  0  0  2  0  0  0  0  0  0
  161.4920  203.2520  151.9100 C   0  0  0  0  0  2  0  0  0  0  0  0
  161.3050  201.8710  151.3200 C   0  0  0  0  0  1  0  0  0  0  0  0
  1  4  1  0  0  0  0
  2  1  2  0  0  0  0
  3  5  2  0  0  0  0
  4 29  1  0  0  0  0
  4 11  1  0  0  0  0
  5  2  1  0  0  0  0
  6 17  1  1  0  0  0
  6 11  1  0  0  0  0
  7 12  1  0  0  0  0
  8  3  1  0  0  0  0
  9  1  1  0  0  0  0
  9  6  1  0  0  0  0
 10 14  1  0  0  0  0
 11 16  1  1  0  0  0
 12  9  2  0  0  0  0
 13  7  2  0  0  0  0
 13  2  1  0  0  0  0
 14  8  2  0  0  0  0
 14 13  1  0  0  0  0
 16 15  1  0  0  0  0
 18 20  1  0  0  0  0
 20 19  2  0  0  0  0
 21 24  1  1  0  0  0
 21 18  1  0  0  0  0
 22 20  1  0  0  0  0
 23 17  1  1  0  0  0
 23 21  1  0  0  0  0
 23 22  1  0  0  0  0
 24 25  1  0  0  0  0
 25 26  1  0  0  0  0
 26 28  1  0  0  0  0
 27 26  2  0  0  0  0
 29 30  1  0  0  0  0
 31 30  1  0  0  0  0
M  END
>  <MODEL>
4

>  <REMARK>
 VINA RESULT:      -7.5      2.259      4.251
  Name = 
  8 active torsions:
  status: ('A' for Active; 'I' for Inactive)
    1  A    between atoms: C_1  and  C_24
    2  A    between atoms: C_2  and  C_25
    3  A    between atoms: N_6  and  C_19
    4  A    between atoms: N_6  and  C_24
    5  A    between atoms: N_12  and  C_25
    6  A    between atoms: C_15  and  C_20
    7  A    between atoms: C_20  and  C_23
    8  A    between atoms: C_27  and  C_28
                            x       y       z     vdW  Elec       q    Type
                         _______ _______ _______ _____ _____    ______ ____

>  <TORSDO>
F 8

$$$$
=
 OpenBabel11052422453D

 31 34  0  0  1  0  0  0  0  0999 V2000
  161.4500  208.3600  152.0830 C   0  0  0  0  0  0  0  0  0  0  0  0
  161.6160  208.9180  153.3600 C   0  0  0  0  0  0  0  0  0  0  0  0
  162.3270  210.6550  154.8720 C   0  0  0  0  0  3  0  0  0  0  0  0
  161.7670  208.9410  150.8240 N   0  0  0  0  0  0  0  0  0  0  0  0
  162.1890  210.1740  153.5690 C   0  0  0  0  0  3  0  0  0  0  0  0
  160.8160  206.7350  150.4890 C   0  0  1  0  0  3  0  0  0  0  0  0
  160.6380  206.9140  154.2830 N   0  0  0  0  0  0  0  0  0  0  0  0
  161.9080  209.9060  155.9280 N   0  0  0  0  0  0  0  0  0  0  0  0
  160.9130  207.1090  151.9310 C   0  0  0  0  0  0  0  0  0  0  0  0
  160.9320  207.9340  156.9050 N   0  0  0  0  0  1  0  0  0  0  0  0
  161.3560  208.0100  149.7720 C   0  0  2  0  0  3  0  0  0  0  0  0
  160.4860  206.3770  153.0390 C   0  0  0  0  0  3  0  0  0  0  0  0
  161.1920  208.1490  154.4730 C   0  0  0  0  0  0  0  0  0  0  0  0
  161.3490  208.6770  155.7620 C   0  0  0  0  0  0  0  0  0  0  0  0
  161.9540  207.5540  147.4760 O   0  0  0  0  0  1  0  0  0  0  0  0
  162.4780  207.7940  148.7500 C   0  0  0  0  0  2  0  0  0  0  0  0
  161.6140  205.4600  150.1980 C   0  0  0  0  0  2  0  0  0  0  0  0
  161.8560  202.5750  148.4480 O   0  0  0  0  0  0  0  0  0  0  0  0
  161.2040  200.9540  150.0060 N   0  0  0  0  0  2  0  0  0  0  0  0
  161.1860  202.1710  149.5780 C   0  0  0  0  0  0  0  0  0  0  0  0
  161.6430  203.9500  148.1900 C   0  0  2  0  0  3  0  0  0  0  0  0
  160.4500  203.2640  150.2380 C   0  0  0  0  0  2  0  0  0  0  0  0
  160.8020  204.4730  149.3730 C   0  0  1  0  0  3  0  0  0  0  0  0
  160.8950  204.0970  146.9490 N   0  0  0  0  0  2  0  0  0  0  0  0
  161.8400  204.4220  145.8900 C   0  0  0  0  0  2  0  0  0  0  0  0
  161.1960  205.3020  144.8690 C   0  0  0  0  0  0  0  0  0  0  0  0
  161.5910  205.2960  143.7150 O   0  0  0  0  0  0  0  0  0  0  0  0
  160.0790  206.2030  145.2660 C   0  0  0  0  0  1  0  0  0  0  0  0
  161.9670  210.3630  150.5800 C   0  0  0  0  0  2  0  0  0  0  0  0
  161.9580  210.6460  149.0880 C   0  0  0  0  0  2  0  0  0  0  0  0
  161.8630  212.1390  148.8600 C   0  0  0  0  0  1  0  0  0  0  0  0
  1  2  1  0  0  0  0
  2  5  2  0  0  0  0
  2 13  1  0  0  0  0
  3  8  2  0  0  0  0
  4  1  1  0  0  0  0
  5  3  1  0  0  0  0
  6 17  1  1  0  0  0
  6  9  1  0  0  0  0
  7 13  1  0  0  0  0
  9  1  2  0  0  0  0
  9 12  1  0  0  0  0
 11 16  1  6  0  0  0
 11  6  1  0  0  0  0
 11  4  1  0  0  0  0
 12  7  2  0  0  0  0
 13 14  2  0  0  0  0
 14  8  1  0  0  0  0
 14 10  1  0  0  0  0
 15 16  1  0  0  0  0
 18 20  1  0  0  0  0
 20 19  2  0  0  0  0
 20 22  1  0  0  0  0
 21 24  1  6  0  0  0
 21 18  1  0  0  0  0
 21 23  1  0  0  0  0
 23 17  1  1  0  0  0
 23 22  1  0  0  0  0
 25 24  1  0  0  0  0
 26 28  1  0  0  0  0
 26 25  1  0  0  0  0
 27 26  2  0  0  0  0
 29  4  1  0  0  0  0
 30 29  1  0  0  0  0
 31 30  1  0  0  0  0
M  END
>  <MODEL>
5

>  <REMARK>
 VINA RESULT:      -6.9      2.621      7.759
  Name = 
  8 active torsions:
  status: ('A' for Active; 'I' for Inactive)
    1  A    between atoms: C_1  and  C_24
    2  A    between atoms: C_2  and  C_25
    3  A    between atoms: N_6  and  C_19
    4  A    between atoms: N_6  and  C_24
    5  A    between atoms: N_12  and  C_25
    6  A    between atoms: C_15  and  C_20
    7  A    between atoms: C_20  and  C_23
    8  A    between atoms: C_27  and  C_28
                            x       y       z     vdW  Elec       q    Type
                         _______ _______ _______ _____ _____    ______ ____

>  <TORSDO>
F 8

$$$$
=
 OpenBabel11052422453D

 31 34  0  0  1  0  0  0  0  0999 V2000
  160.4580  210.3300  154.3030 C   0  0  0  0  0  0  0  0  0  0  0  0
  159.8310  211.5820  154.3970 C   0  0  0  0  0  0  0  0  0  0  0  0
  158.7560  213.3640  155.6140 C   0  0  0  0  0  3  0  0  0  0  0  0
  160.7790  209.4290  155.3560 N   0  0  0  0  0  0  0  0  0  0  0  0
  159.3780  212.1140  155.6060 C   0  0  0  0  0  3  0  0  0  0  0  0
  161.5110  208.5040  153.2380 C   0  0  1  0  0  3  0  0  0  0  0  0
  160.0750  211.8010  152.0060 N   0  0  0  0  0  0  0  0  0  0  0  0
  158.5920  214.0560  154.4540 N   0  0  0  0  0  0  0  0  0  0  0  0
  160.8540  209.8360  153.0890 C   0  0  0  0  0  0  0  0  0  0  0  0
  158.8150  214.3330  152.0730 N   0  0  0  0  0  1  0  0  0  0  0  0
  161.4850  208.2830  154.7810 C   0  0  2  0  0  3  0  0  0  0  0  0
  160.6770  210.5820  151.9240 C   0  0  0  0  0  3  0  0  0  0  0  0
  159.6450  212.3150  153.1980 C   0  0  0  0  0  0  0  0  0  0  0  0
  159.0180  213.5680  153.2580 C   0  0  0  0  0  0  0  0  0  0  0  0
  159.6320  207.1600  155.8470 O   0  0  0  0  0  1  0  0  0  0  0  0
  160.8890  206.9590  155.2710 C   0  0  0  0  0  2  0  0  0  0  0  0
  160.7680  207.4330  152.4330 C   0  0  0  0  0  2  0  0  0  0  0  0
  161.0590  206.2450  149.2780 O   0  0  0  0  0  0  0  0  0  0  0  0
  162.2260  207.9490  148.1770 N   0  0  0  0  0  2  0  0  0  0  0  0
  161.9110  207.3240  149.2600 C   0  0  0  0  0  0  0  0  0  0  0  0
  160.9110  205.7320  150.5890 C   0  0  2  0  0  3  0  0  0  0  0  0
  162.4220  207.6820  150.5950 C   0  0  0  0  0  2  0  0  0  0  0  0
  161.7100  206.6810  151.5050 C   0  0  1  0  0  3  0  0  0  0  0  0
  161.4800  204.3930  150.6490 N   0  0  0  0  0  2  0  0  0  0  0  0
  160.4330  203.4440  150.2980 C   0  0  0  0  0  2  0  0  0  0  0  0
  160.8030  202.6940  149.0600 C   0  0  0  0  0  0  0  0  0  0  0  0
  161.4590  203.2360  148.1860 O   0  0  0  0  0  0  0  0  0  0  0  0
  160.3540  201.2860  148.8840 C   0  0  0  0  0  1  0  0  0  0  0  0
  160.8740  209.7820  156.7670 C   0  0  0  0  0  2  0  0  0  0  0  0
  162.2970  209.5940  157.2610 C   0  0  0  0  0  2  0  0  0  0  0  0
  163.1500  210.7510  156.7890 C   0  0  0  0  0  1  0  0  0  0  0  0
  1  2  1  0  0  0  0
  1  4  1  0  0  0  0
  2  5  1  0  0  0  0
  4 29  1  0  0  0  0
  5  3  2  0  0  0  0
  6 17  1  6  0  0  0
  6 11  1  0  0  0  0
  7 13  1  0  0  0  0
  8  3  1  0  0  0  0
  9  6  1  0  0  0  0
  9  1  2  0  0  0  0
 10 14  1  0  0  0  0
 11 16  1  6  0  0  0
 11  4  1  0  0  0  0
 12  7  2  0  0  0  0
 12  9  1  0  0  0  0
 13 14  1  0  0  0  0
 13  2  2  0  0  0  0
 14  8  2  0  0  0  0
 16 15  1  0  0  0  0
 18 21  1  0  0  0  0
 19 20  2  0  0  0  0
 20 18  1  0  0  0  0
 20 22  1  0  0  0  0
 21 24  1  6  0  0  0
 21 23  1  0  0  0  0
 22 23  1  0  0  0  0
 23 17  1  1  0  0  0
 25 24  1  0  0  0  0
 26 25  1  0  0  0  0
 27 26  2  0  0  0  0
 28 26  1  0  0  0  0
 29 30  1  0  0  0  0
 31 30  1  0  0  0  0
M  END
>  <MODEL>
6

>  <REMARK>
 VINA RESULT:      -6.9      2.456      9.052
  Name = 
  8 active torsions:
  status: ('A' for Active; 'I' for Inactive)
    1  A    between atoms: C_1  and  C_24
    2  A    between atoms: C_2  and  C_25
    3  A    between atoms: N_6  and  C_19
    4  A    between atoms: N_6  and  C_24
    5  A    between atoms: N_12  and  C_25
    6  A    between atoms: C_15  and  C_20
    7  A    between atoms: C_20  and  C_23
    8  A    between atoms: C_27  and  C_28
                            x       y       z     vdW  Elec       q    Type
                         _______ _______ _______ _____ _____    ______ ____

>  <TORSDO>
F 8

$$$$
=
 OpenBabel11052422453D

 31 34  0  0  1  0  0  0  0  0999 V2000
  161.0410  209.2430  153.0830 C   0  0  0  0  0  0  0  0  0  0  0  0
  160.9290  209.2690  154.4820 C   0  0  0  0  0  0  0  0  0  0  0  0
  160.8520  210.3950  156.6120 C   0  0  0  0  0  3  0  0  0  0  0  0
  161.1560  210.3450  152.1910 N   0  0  0  0  0  0  0  0  0  0  0  0
  160.9610  210.4530  155.2220 C   0  0  0  0  0  3  0  0  0  0  0  0
  161.1490  208.2730  150.9310 C   0  0  1  0  0  3  0  0  0  0  0  0
  160.7710  206.8620  154.4410 N   0  0  0  0  0  0  0  0  0  0  0  0
  160.7160  209.1950  157.2390 N   0  0  0  0  0  0  0  0  0  0  0  0
  161.0380  208.0530  152.4040 C   0  0  0  0  0  0  0  0  0  0  0  0
  160.5460  206.7940  157.2610 N   0  0  0  0  0  1  0  0  0  0  0  0
  161.1790  209.8280  150.8220 C   0  0  2  0  0  3  0  0  0  0  0  0
  160.8870  206.8450  153.0840 C   0  0  0  0  0  3  0  0  0  0  0  0
  160.7940  208.0290  155.1530 C   0  0  0  0  0  0  0  0  0  0  0  0
  160.6840  208.0220  156.5510 C   0  0  0  0  0  0  0  0  0  0  0  0
  161.9080  210.8200  148.7440 O   0  0  0  0  0  1  0  0  0  0  0  0
  162.3350  210.4320  150.0170 C   0  0  0  0  0  2  0  0  0  0  0  0
  162.3890  207.5750  150.3650 C   0  0  0  0  0  2  0  0  0  0  0  0
  160.0660  206.2320  148.3030 O   0  0  0  0  0  0  0  0  0  0  0  0
  161.0120  206.5220  146.1810 N   0  0  0  0  0  2  0  0  0  0  0  0
  161.1390  206.4000  147.4590 C   0  0  0  0  0  0  0  0  0  0  0  0
  160.4900  206.0950  149.6470 C   0  0  2  0  0  3  0  0  0  0  0  0
  162.4330  206.4230  148.1620 C   0  0  0  0  0  2  0  0  0  0  0  0
  162.0190  206.2960  149.6280 C   0  0  1  0  0  3  0  0  0  0  0  0
  160.1740  204.7530  150.1160 N   0  0  0  0  0  2  0  0  0  0  0  0
  161.3280  203.9030  149.8590 C   0  0  0  0  0  2  0  0  0  0  0  0
  160.9690  202.8120  148.9040 C   0  0  0  0  0  0  0  0  0  0  0  0
  161.2510  202.9120  147.7210 O   0  0  0  0  0  0  0  0  0  0  0  0
  160.2480  201.6050  149.3940 C   0  0  0  0  0  1  0  0  0  0  0  0
  160.7980  211.7220  152.5040 C   0  0  0  0  0  2  0  0  0  0  0  0
  159.4290  212.0510  151.9370 C   0  0  0  0  0  2  0  0  0  0  0  0
  158.3640  211.6730  152.9430 C   0  0  0  0  0  1  0  0  0  0  0  0
  1  2  1  0  0  0  0
  2 13  2  0  0  0  0
  2  5  1  0  0  0  0
  3  8  1  0  0  0  0
  4 29  1  0  0  0  0
  4  1  1  0  0  0  0
  5  3  2  0  0  0  0
  6 17  1  1  0  0  0
  6  9  1  0  0  0  0
  7 13  1  0  0  0  0
  9  1  2  0  0  0  0
  9 12  1  0  0  0  0
 11 16  1  1  0  0  0
 11  6  1  0  0  0  0
 11  4  1  0  0  0  0
 12  7  2  0  0  0  0
 13 14  1  0  0  0  0
 14  8  2  0  0  0  0
 14 10  1  0  0  0  0
 15 16  1  0  0  0  0
 18 21  1  0  0  0  0
 19 20  2  0  0  0  0
 20 22  1  0  0  0  0
 20 18  1  0  0  0  0
 21 24  1  6  0  0  0
 22 23  1  0  0  0  0
 23 21  1  0  0  0  0
 23 17  1  1  0  0  0
 25 24  1  0  0  0  0
 26 28  1  0  0  0  0
 26 25  1  0  0  0  0
 27 26  2  0  0  0  0
 30 29  1  0  0  0  0
 30 31  1  0  0  0  0
M  END
>  <MODEL>
7

>  <REMARK>
 VINA RESULT:      -6.8      2.448      7.660
  Name = 
  8 active torsions:
  status: ('A' for Active; 'I' for Inactive)
    1  A    between atoms: C_1  and  C_24
    2  A    between atoms: C_2  and  C_25
    3  A    between atoms: N_6  and  C_19
    4  A    between atoms: N_6  and  C_24
    5  A    between atoms: N_12  and  C_25
    6  A    between atoms: C_15  and  C_20
    7  A    between atoms: C_20  and  C_23
    8  A    between atoms: C_27  and  C_28
                            x       y       z     vdW  Elec       q    Type
                         _______ _______ _______ _____ _____    ______ ____

>  <TORSDO>
F 8

$$$$
=
 OpenBabel11052422453D

 31 34  0  0  1  0  0  0  0  0999 V2000
  160.9650  208.9220  152.9910 C   0  0  0  0  0  0  0  0  0  0  0  0
  160.4780  210.1140  153.5480 C   0  0  0  0  0  0  0  0  0  0  0  0
  159.5980  211.4400  155.3580 C   0  0  0  0  0  3  0  0  0  0  0  0
  161.1800  207.6740  153.6390 N   0  0  0  0  0  0  0  0  0  0  0  0
  160.0790  210.2190  154.8820 C   0  0  0  0  0  3  0  0  0  0  0  0
  161.8190  207.5030  151.3060 C   0  0  1  0  0  3  0  0  0  0  0  0
  160.7590  211.1530  151.3880 N   0  0  0  0  0  0  0  0  0  0  0  0
  159.5170  212.5160  154.5300 N   0  0  0  0  0  0  0  0  0  0  0  0
  161.3130  208.8600  151.6670 C   0  0  0  0  0  0  0  0  0  0  0  0
  159.7830  213.6070  152.4010 N   0  0  0  0  0  1  0  0  0  0  0  0
  161.7600  206.7450  152.6680 C   0  0  2  0  0  3  0  0  0  0  0  0
  161.2250  209.9890  150.8530 C   0  0  0  0  0  3  0  0  0  0  0  0
  160.3810  211.2440  152.6980 C   0  0  0  0  0  0  0  0  0  0  0  0
  159.8940  212.4500  153.2240 C   0  0  0  0  0  0  0  0  0  0  0  0
  161.8860  204.3550  152.3430 O   0  0  0  0  0  1  0  0  0  0  0  0
  161.0200  205.4030  152.6700 C   0  0  0  0  0  2  0  0  0  0  0  0
  160.9680  206.8770  150.1970 C   0  0  0  0  0  2  0  0  0  0  0  0
  160.8020  204.8850  147.4660 O   0  0  0  0  0  0  0  0  0  0  0  0
  161.7600  206.2070  145.7890 N   0  0  0  0  0  2  0  0  0  0  0  0
  161.6230  205.9000  147.0340 C   0  0  0  0  0  0  0  0  0  0  0  0
  160.8620  204.7440  148.8730 C   0  0  2  0  0  3  0  0  0  0  0  0
  162.3230  206.5890  148.1320 C   0  0  0  0  0  2  0  0  0  0  0  0
  161.7730  205.8830  149.3720 C   0  0  1  0  0  3  0  0  0  0  0  0
  161.4570  203.4560  149.2020 N   0  0  0  0  0  2  0  0  0  0  0  0
  160.4600  202.4240  148.9560 C   0  0  0  0  0  2  0  0  0  0  0  0
  160.9880  201.4070  147.9980 C   0  0  0  0  0  0  0  0  0  0  0  0
  161.6300  200.4530  148.4050 O   0  0  0  0  0  0  0  0  0  0  0  0
  160.7440  201.5680  146.5380 C   0  0  0  0  0  1  0  0  0  0  0  0
  161.3040  207.4840  155.0780 C   0  0  0  0  0  2  0  0  0  0  0  0
  159.9830  207.0160  155.6610 C   0  0  0  0  0  2  0  0  0  0  0  0
  160.0440  207.0950  157.1720 C   0  0  0  0  0  1  0  0  0  0  0  0
  1  2  1  0  0  0  0
  1  4  1  0  0  0  0
  2  5  1  0  0  0  0
  4 29  1  0  0  0  0
  5  3  2  0  0  0  0
  6 17  1  6  0  0  0
  6  9  1  0  0  0  0
  6 11  1  0  0  0  0
  7 13  1  0  0  0  0
  8  3  1  0  0  0  0
  9  1  2  0  0  0  0
 10 14  1  0  0  0  0
 11 16  1  6  0  0  0
 11  4  1  0  0  0  0
 12  7  2  0  0  0  0
 12  9  1  0  0  0  0
 13 14  1  0  0  0  0
 13  2  2  0  0  0  0
 14  8  2  0  0  0  0
 15 16  1  0  0  0  0
 18 21  1  0  0  0  0
 19 20  2  0  0  0  0
 20 18  1  0  0  0  0
 20 22  1  0  0  0  0
 21 24  1  6  0  0  0
 21 23  1  0  0  0  0
 22 23  1  0  0  0  0
 23 17  1  1  0  0  0
 25 24  1  0  0  0  0
 26 27  2  0  0  0  0
 26 25  1  0  0  0  0
 28 26  1  0  0  0  0
 29 30  1  0  0  0  0
 30 31  1  0  0  0  0
M  END
>  <MODEL>
8

>  <REMARK>
 VINA RESULT:      -6.7      2.785      8.850
  Name = 
  8 active torsions:
  status: ('A' for Active; 'I' for Inactive)
    1  A    between atoms: C_1  and  C_24
    2  A    between atoms: C_2  and  C_25
    3  A    between atoms: N_6  and  C_19
    4  A    between atoms: N_6  and  C_24
    5  A    between atoms: N_12  and  C_25
    6  A    between atoms: C_15  and  C_20
    7  A    between atoms: C_20  and  C_23
    8  A    between atoms: C_27  and  C_28
                            x       y       z     vdW  Elec       q    Type
                         _______ _______ _______ _____ _____    ______ ____

>  <TORSDO>
F 8

$$$$
=
 OpenBabel11052422453D

 31 34  0  0  1  0  0  0  0  0999 V2000
  161.6030  205.9980  149.9590 C   0  0  0  0  0  0  0  0  0  0  0  0
  161.3320  204.6300  149.7990 C   0  0  0  0  0  0  0  0  0  0  0  0
  160.9800  202.6480  148.4740 C   0  0  0  0  0  3  0  0  0  0  0  0
  161.8870  206.9590  148.9500 N   0  0  0  0  0  0  0  0  0  0  0  0
  161.2620  204.0130  148.5490 C   0  0  0  0  0  3  0  0  0  0  0  0
  161.9540  208.0190  151.1300 C   0  0  1  0  0  3  0  0  0  0  0  0
  161.1640  204.4580  152.2000 N   0  0  0  0  0  0  0  0  0  0  0  0
  160.7740  201.9270  149.6090 N   0  0  0  0  0  0  0  0  0  0  0  0
  161.6280  206.5640  151.2050 C   0  0  0  0  0  0  0  0  0  0  0  0
  160.6020  201.6930  151.9990 N   0  0  0  0  0  1  0  0  0  0  0  0
  162.1680  208.2400  149.6010 C   0  0  2  0  0  3  0  0  0  0  0  0
  161.4220  205.7880  152.3460 C   0  0  0  0  0  3  0  0  0  0  0  0
  161.1080  203.8640  150.9700 C   0  0  0  0  0  0  0  0  0  0  0  0
  160.8310  202.4950  150.8440 C   0  0  0  0  0  0  0  0  0  0  0  0
  162.2050  210.4470  148.6200 O   0  0  0  0  0  1  0  0  0  0  0  0
  161.3690  209.3790  148.9580 C   0  0  0  0  0  2  0  0  0  0  0  0
  160.8310  208.8650  151.7400 C   0  0  0  0  0  2  0  0  0  0  0  0
  160.6100  211.1800  154.1970 O   0  0  0  0  0  0  0  0  0  0  0  0
  162.4660  210.7040  155.5420 N   0  0  0  0  0  2  0  0  0  0  0  0
  161.8680  210.6640  154.3990 C   0  0  0  0  0  0  0  0  0  0  0  0
  160.2070  211.0320  152.8490 C   0  0  2  0  0  3  0  0  0  0  0  0
  162.4550  210.0720  153.1850 C   0  0  0  0  0  2  0  0  0  0  0  0
  161.3350  210.2380  152.1580 C   0  0  1  0  0  3  0  0  0  0  0  0
  160.0810  212.3470  152.2360 N   0  0  0  0  0  2  0  0  0  0  0  0
  158.6630  212.6380  152.0840 C   0  0  0  0  0  2  0  0  0  0  0  0
  158.1540  213.3860  153.2730 C   0  0  0  0  0  0  0  0  0  0  0  0
  158.8470  214.2360  153.8080 O   0  0  0  0  0  0  0  0  0  0  0  0
  156.8040  213.0790  153.8190 C   0  0  0  0  0  1  0  0  0  0  0  0
  162.3310  206.6530  147.5960 C   0  0  0  0  0  2  0  0  0  0  0  0
  161.1410  206.5780  146.6580 C   0  0  0  0  0  2  0  0  0  0  0  0
  161.5270  205.8010  145.4170 C   0  0  0  0  0  1  0  0  0  0  0  0
  1  9  1  0  0  0  0
  2  1  2  0  0  0  0
  2 13  1  0  0  0  0
  3  5  2  0  0  0  0
  3  8  1  0  0  0  0
  4 11  1  0  0  0  0
  4  1  1  0  0  0  0
  5  2  1  0  0  0  0
  6  9  1  0  0  0  0
  6 17  1  6  0  0  0
  7 12  1  0  0  0  0
  8 14  2  0  0  0  0
  9 12  2  0  0  0  0
 11 16  1  6  0  0  0
 11  6  1  0  0  0  0
 13  7  2  0  0  0  0
 14 13  1  0  0  0  0
 14 10  1  0  0  0  0
 15 16  1  0  0  0  0
 18 20  1  0  0  0  0
 20 19  2  0  0  0  0
 21 24  1  6  0  0  0
 21 18  1  0  0  0  0
 22 20  1  0  0  0  0
 23 17  1  1  0  0  0
 23 21  1  0  0  0  0
 23 22  1  0  0  0  0
 25 24  1  0  0  0  0
 25 26  1  0  0  0  0
 26 27  2  0  0  0  0
 26 28  1  0  0  0  0
 29  4  1  0  0  0  0
 30 29  1  0  0  0  0
 31 30  1  0  0  0  0
M  END
>  <MODEL>
9

>  <REMARK>
 VINA RESULT:      -6.3      2.129      2.777
  Name = 
  8 active torsions:
  status: ('A' for Active; 'I' for Inactive)
    1  A    between atoms: C_1  and  C_24
    2  A    between atoms: C_2  and  C_25
    3  A    between atoms: N_6  and  C_19
    4  A    between atoms: N_6  and  C_24
    5  A    between atoms: N_12  and  C_25
    6  A    between atoms: C_15  and  C_20
    7  A    between atoms: C_20  and  C_23
    8  A    between atoms: C_27  and  C_28
                            x       y       z     vdW  Elec       q    Type
                         _______ _______ _______ _____ _____    ______ ____

>  <TORSDO>
F 8

$$$$
