=
 OpenBabel11062409203D

 37 42  0  0  1  0  0  0  0  0999 V2000
  162.8450  210.6430  156.0000 C   0  0  0  0  0  1  0  0  0  0  0  0
  160.2360  207.1680  157.0660 C   0  0  0  0  0  1  0  0  0  0  0  0
  160.2180  209.5580  152.4090 O   0  0  0  0  0  0  0  0  0  0  0  0
  160.9870  209.0460  155.6180 C   0  0  0  0  0  0  0  0  0  0  0  0
  161.2180  209.3560  153.3830 C   0  0  1  0  0  0  0  0  0  0  0  0
  161.4900  210.4300  155.3460 C   0  0  0  0  0  0  0  0  0  0  0  0
  160.8000  208.2970  154.3690 C   0  0  0  0  0  2  0  0  0  0  0  0
  160.5070  211.4660  155.8720 C   0  0  0  0  0  1  0  0  0  0  0  0
  161.4700  209.1030  151.9440 C   0  0  1  0  0  0  0  0  0  0  0  0
  160.7400  208.5570  156.8420 C   0  0  0  0  0  3  0  0  0  0  0  0
  161.6210  210.5820  153.9470 O   0  0  0  0  0  0  0  0  0  0  0  0
  162.0520  206.6850  152.2570 C   0  0  0  0  0  3  0  0  0  0  0  0
  161.4520  207.6770  151.4780 C   0  0  0  0  0  0  0  0  0  0  0  0
  160.8420  207.3290  150.2660 C   0  0  0  0  0  3  0  0  0  0  0  0
  161.4100  205.0120  150.6270 C   0  0  0  0  0  3  0  0  0  0  0  0
  162.0250  205.3530  151.8360 C   0  0  0  0  0  3  0  0  0  0  0  0
  160.8250  205.9970  149.8260 C   0  0  0  0  0  0  0  0  0  0  0  0
  160.2290  205.6080  148.6160 O   0  0  0  0  0  0  0  0  0  0  0  0
  160.2170  206.0210  146.1870 C   0  0  0  0  0  3  0  0  0  0  0  0
  160.8440  205.5560  147.3540 C   0  0  0  0  0  0  0  0  0  0  0  0
  162.1510  205.0590  147.2700 C   0  0  0  0  0  3  0  0  0  0  0  0
  164.0850  204.5410  145.9760 F   0  0  0  0  0  0  0  0  0  0  0  0
  162.1890  205.4890  144.8890 C   0  0  0  0  0  3  0  0  0  0  0  0
  162.8210  205.0240  146.0440 C   0  0  0  0  0  0  0  0  0  0  0  0
  160.8850  205.9880  144.9600 C   0  0  0  0  0  3  0  0  0  0  0  0
  162.2180  210.1690  151.1510 C   0  0  0  0  0  2  0  0  0  0  0  0
  161.3370  210.7860  150.0760 C   0  0  0  0  0  2  0  0  0  0  0  0
  161.8610  212.0850  149.6860 N   0  0  0  0  0  0  0  0  0  0  0  0
  159.9910  213.1940  150.7730 C   0  0  0  0  0  1  0  0  0  0  0  0
  160.7120  212.9490  149.4670 C   0  0  0  0  0  2  0  0  0  0  0  0
  162.4960  211.9030  148.3900 C   0  0  0  0  0  2  0  0  0  0  0  0
  162.9450  213.0900  146.2900 C   0  0  2  0  0  3  0  0  0  0  0  0
  162.0130  212.9710  147.4290 C   0  0  2  0  0  3  0  0  0  0  0  0
  162.9660  214.0020  147.3610 O   0  0  0  0  0  0  0  0  0  0  0  0
  162.7030  213.0710  143.8390 C   0  0  0  0  0  2  0  0  0  0  0  0
  163.2110  214.4360  144.2280 C   0  0  0  0  0  2  0  0  0  0  0  0
  162.2190  213.7200  145.1190 C   0  0  0  0  0  3  0  0  0  0  0  0
  3  5  1  0  0  0  0
  4 10  2  0  0  0  0
  5 11  1  0  0  0  0
  5  7  1  1  0  0  0
  6  4  1  0  0  0  0
  6  8  1  0  0  0  0
  6  1  1  0  0  0  0
  7  4  1  0  0  0  0
  9 26  1  6  0  0  0
  9  3  1  0  0  0  0
  9  5  1  0  0  0  0
 10  2  1  0  0  0  0
 11  6  1  0  0  0  0
 13  9  1  0  0  0  0
 13 12  2  0  0  0  0
 14 13  1  0  0  0  0
 15 16  2  0  0  0  0
 16 12  1  0  0  0  0
 17 14  2  0  0  0  0
 17 15  1  0  0  0  0
 18 17  1  0  0  0  0
 19 20  1  0  0  0  0
 20 18  1  0  0  0  0
 21 20  2  0  0  0  0
 22 24  1  0  0  0  0
 23 25  1  0  0  0  0
 23 24  2  0  0  0  0
 24 21  1  0  0  0  0
 25 19  2  0  0  0  0
 27 26  1  0  0  0  0
 28 27  1  0  0  0  0
 30 28  1  0  0  0  0
 30 29  1  0  0  0  0
 31 28  1  0  0  0  0
 32 37  1  6  0  0  0
 32 34  1  0  0  0  0
 32 33  1  0  0  0  0
 33 31  1  1  0  0  0
 34 33  1  0  0  0  0
 35 36  1  0  0  0  0
 35 37  1  0  0  0  0
 36 37  1  0  0  0  0
M  END
>  <MODEL>
1

>  <REMARK>
 VINA RESULT:      -7.8      0.000      0.000
  Name = 
  10 active torsions:
  status: ('A' for Active; 'I' for Inactive)
    1  A    between atoms: C_1  and  N_5
    2  A    between atoms: C_1  and  C_36
    3  A    between atoms: N_5  and  C_17
    4  A    between atoms: N_5  and  C_23
    5  A    between atoms: C_6  and  O_37
    6  A    between atoms: C_10  and  C_29
    7  A    between atoms: C_11  and  C_33
    8  A    between atoms: C_17  and  C_26
    9  A    between atoms: C_29  and  C_36
   10  A    between atoms: C_31  and  O_37
                            x       y       z     vdW  Elec       q    Type
                         _______ _______ _______ _____ _____    ______ ____

>  <TORSDO>
F 10

$$$$
=
 OpenBabel11062409203D

 37 42  0  0  1  0  0  0  0  0999 V2000
  162.8640  210.6910  155.6740 C   0  0  0  0  0  1  0  0  0  0  0  0
  160.2670  207.1260  156.4230 C   0  0  0  0  0  1  0  0  0  0  0  0
  160.1880  209.9670  152.0270 O   0  0  0  0  0  0  0  0  0  0  0  0
  161.0000  209.1390  155.1600 C   0  0  0  0  0  0  0  0  0  0  0  0
  161.2010  209.6700  152.9640 C   0  0  1  0  0  0  0  0  0  0  0  0
  161.5000  210.5430  155.0200 C   0  0  0  0  0  0  0  0  0  0  0  0
  160.7960  208.5170  153.8450 C   0  0  0  0  0  2  0  0  0  0  0  0
  160.5250  211.5210  155.6590 C   0  0  0  0  0  1  0  0  0  0  0  0
  161.4340  209.5610  151.5030 C   0  0  1  0  0  0  0  0  0  0  0  0
  160.7680  208.5300  156.3320 C   0  0  0  0  0  3  0  0  0  0  0  0
  161.6130  210.8340  153.6410 O   0  0  0  0  0  0  0  0  0  0  0  0
  160.9110  207.1130  151.6370 C   0  0  0  0  0  3  0  0  0  0  0  0
  161.4090  208.1890  150.8980 C   0  0  0  0  0  0  0  0  0  0  0  0
  161.8850  207.9730  149.5980 C   0  0  0  0  0  3  0  0  0  0  0  0
  161.3430  205.6280  149.7730 C   0  0  0  0  0  3  0  0  0  0  0  0
  160.8710  205.8360  151.0730 C   0  0  0  0  0  3  0  0  0  0  0  0
  161.8650  206.6900  149.0290 C   0  0  0  0  0  0  0  0  0  0  0  0
  162.3360  206.4310  147.7330 O   0  0  0  0  0  0  0  0  0  0  0  0
  161.0620  206.1300  145.6450 C   0  0  0  0  0  3  0  0  0  0  0  0
  161.7290  205.6110  146.7670 C   0  0  0  0  0  0  0  0  0  0  0  0
  161.8340  204.2220  146.9110 C   0  0  0  0  0  3  0  0  0  0  0  0
  161.3910  202.0210  146.1070 F   0  0  0  0  0  0  0  0  0  0  0  0
  160.6210  203.8890  144.8430 C   0  0  0  0  0  3  0  0  0  0  0  0
  161.2820  203.3640  145.9560 C   0  0  0  0  0  0  0  0  0  0  0  0
  160.5100  205.2730  144.6880 C   0  0  0  0  0  3  0  0  0  0  0  0
  162.1720  210.7020  150.8100 C   0  0  0  0  0  2  0  0  0  0  0  0
  161.2050  211.7270  150.2380 C   0  0  0  0  0  2  0  0  0  0  0  0
  161.2240  211.6740  148.7850 N   0  0  0  0  0  0  0  0  0  0  0  0
  163.0820  212.9660  147.9000 C   0  0  0  0  0  1  0  0  0  0  0  0
  162.6210  211.6110  148.3870 C   0  0  0  0  0  2  0  0  0  0  0  0
  160.7170  212.9560  148.3190 C   0  0  0  0  0  2  0  0  0  0  0  0
  159.8230  213.3620  146.0710 C   0  0  2  0  0  3  0  0  0  0  0  0
  159.5500  212.7330  147.3790 C   0  0  2  0  0  3  0  0  0  0  0  0
  158.9920  213.9750  147.0270 O   0  0  0  0  0  0  0  0  0  0  0  0
  159.8570  212.0870  143.9640 C   0  0  0  0  0  2  0  0  0  0  0  0
  159.1630  213.3960  143.6830 C   0  0  0  0  0  2  0  0  0  0  0  0
  158.9590  212.7040  145.0140 C   0  0  0  0  0  3  0  0  0  0  0  0
  3  5  1  0  0  0  0
  4 10  2  0  0  0  0
  5 11  1  0  0  0  0
  5  7  1  1  0  0  0
  6  4  1  0  0  0  0
  6  8  1  0  0  0  0
  6  1  1  0  0  0  0
  7  4  1  0  0  0  0
  9 26  1  6  0  0  0
  9  3  1  0  0  0  0
  9  5  1  0  0  0  0
 10  2  1  0  0  0  0
 11  6  1  0  0  0  0
 13  9  1  0  0  0  0
 13 12  2  0  0  0  0
 14 13  1  0  0  0  0
 15 16  2  0  0  0  0
 16 12  1  0  0  0  0
 17 14  2  0  0  0  0
 17 15  1  0  0  0  0
 18 17  1  0  0  0  0
 19 20  1  0  0  0  0
 20 21  2  0  0  0  0
 20 18  1  0  0  0  0
 23 24  2  0  0  0  0
 24 22  1  0  0  0  0
 24 21  1  0  0  0  0
 25 23  1  0  0  0  0
 25 19  2  0  0  0  0
 27 26  1  0  0  0  0
 28 27  1  0  0  0  0
 29 30  1  0  0  0  0
 30 28  1  0  0  0  0
 31 28  1  0  0  0  0
 32 37  1  6  0  0  0
 32 34  1  0  0  0  0
 32 33  1  0  0  0  0
 33 31  1  1  0  0  0
 34 33  1  0  0  0  0
 35 37  1  0  0  0  0
 36 35  1  0  0  0  0
 36 37  1  0  0  0  0
M  END
>  <MODEL>
2

>  <REMARK>
 VINA RESULT:      -7.2      1.707      1.999
  Name = 
  10 active torsions:
  status: ('A' for Active; 'I' for Inactive)
    1  A    between atoms: C_1  and  N_5
    2  A    between atoms: C_1  and  C_36
    3  A    between atoms: N_5  and  C_17
    4  A    between atoms: N_5  and  C_23
    5  A    between atoms: C_6  and  O_37
    6  A    between atoms: C_10  and  C_29
    7  A    between atoms: C_11  and  C_33
    8  A    between atoms: C_17  and  C_26
    9  A    between atoms: C_29  and  C_36
   10  A    between atoms: C_31  and  O_37
                            x       y       z     vdW  Elec       q    Type
                         _______ _______ _______ _____ _____    ______ ____

>  <TORSDO>
F 10

$$$$
=
 OpenBabel11062409203D

 37 42  0  0  1  0  0  0  0  0999 V2000
  159.8820  208.5610  156.6530 C   0  0  0  0  0  1  0  0  0  0  0  0
  160.4410  212.9590  157.2610 C   0  0  0  0  0  1  0  0  0  0  0  0
  162.1770  210.3080  153.0940 O   0  0  0  0  0  0  0  0  0  0  0  0
  160.8350  210.7860  156.1150 C   0  0  0  0  0  0  0  0  0  0  0  0
  161.0740  210.1310  153.9570 C   0  0  1  0  0  0  0  0  0  0  0  0
  161.0640  209.3080  156.0550 C   0  0  0  0  0  0  0  0  0  0  0  0
  160.8240  211.3740  154.7690 C   0  0  0  0  0  2  0  0  0  0  0  0
  162.3300  208.9340  156.8100 C   0  0  0  0  0  1  0  0  0  0  0  0
  160.9310  210.0550  152.4830 C   0  0  1  0  0  0  0  0  0  0  0  0
  160.6640  211.4810  157.2490 C   0  0  0  0  0  3  0  0  0  0  0  0
  161.2060  208.9400  154.6980 O   0  0  0  0  0  0  0  0  0  0  0  0
  159.1150  211.7550  152.1730 C   0  0  0  0  0  3  0  0  0  0  0  0
  160.3570  211.2490  151.7800 C   0  0  0  0  0  0  0  0  0  0  0  0
  161.0510  211.8620  150.7290 C   0  0  0  0  0  3  0  0  0  0  0  0
  159.2840  213.4870  150.4880 C   0  0  0  0  0  3  0  0  0  0  0  0
  158.5830  212.8770  151.5330 C   0  0  0  0  0  3  0  0  0  0  0  0
  160.5160  212.9780  150.0690 C   0  0  0  0  0  0  0  0  0  0  0  0
  161.1780  213.6180  149.0090 O   0  0  0  0  0  0  0  0  0  0  0  0
  159.9120  212.7790  147.0680 C   0  0  0  0  0  3  0  0  0  0  0  0
  161.0830  213.2990  147.6440 C   0  0  0  0  0  0  0  0  0  0  0  0
  162.1890  213.5500  146.8220 C   0  0  0  0  0  3  0  0  0  0  0  0
  163.2080  213.5350  144.6660 F   0  0  0  0  0  0  0  0  0  0  0  0
  160.9620  212.7710  144.8870 C   0  0  0  0  0  3  0  0  0  0  0  0
  162.1310  213.2870  145.4510 C   0  0  0  0  0  0  0  0  0  0  0  0
  159.8510  212.5160  145.6960 C   0  0  0  0  0  3  0  0  0  0  0  0
  160.8690  208.6730  151.8410 C   0  0  0  0  0  2  0  0  0  0  0  0
  162.1860  208.3050  151.1760 C   0  0  0  0  0  2  0  0  0  0  0  0
  162.0410  207.0640  150.4340 N   0  0  0  0  0  0  0  0  0  0  0  0
  161.9560  208.6970  148.6360 C   0  0  0  0  0  1  0  0  0  0  0  0
  161.3930  207.4010  149.1770 C   0  0  0  0  0  2  0  0  0  0  0  0
  161.0970  206.2440  151.1790 C   0  0  0  0  0  2  0  0  0  0  0  0
  160.5980  204.0610  150.1790 C   0  0  2  0  0  3  0  0  0  0  0  0
  161.5030  204.7870  151.0910 C   0  0  2  0  0  3  0  0  0  0  0  0
  160.4580  203.9820  151.5760 O   0  0  0  0  0  0  0  0  0  0  0  0
  160.8270  202.5230  148.2690 C   0  0  0  0  0  2  0  0  0  0  0  0
  160.2710  201.7250  149.4200 C   0  0  0  0  0  2  0  0  0  0  0  0
  161.2930  202.8110  149.6800 C   0  0  0  0  0  3  0  0  0  0  0  0
  3  5  1  0  0  0  0
  4 10  2  0  0  0  0
  5 11  1  0  0  0  0
  5  7  1  1  0  0  0
  6  4  1  0  0  0  0
  6  1  1  0  0  0  0
  6  8  1  0  0  0  0
  7  4  1  0  0  0  0
  9 26  1  6  0  0  0
  9  3  1  0  0  0  0
  9  5  1  0  0  0  0
 10  2  1  0  0  0  0
 11  6  1  0  0  0  0
 13 12  1  0  0  0  0
 13  9  1  0  0  0  0
 14 13  2  0  0  0  0
 15 16  1  0  0  0  0
 16 12  2  0  0  0  0
 17 15  2  0  0  0  0
 17 14  1  0  0  0  0
 18 17  1  0  0  0  0
 19 20  1  0  0  0  0
 20 18  1  0  0  0  0
 21 20  2  0  0  0  0
 22 24  1  0  0  0  0
 23 24  2  0  0  0  0
 23 25  1  0  0  0  0
 24 21  1  0  0  0  0
 25 19  2  0  0  0  0
 27 26  1  0  0  0  0
 28 27  1  0  0  0  0
 28 31  1  0  0  0  0
 29 30  1  0  0  0  0
 30 28  1  0  0  0  0
 32 37  1  1  0  0  0
 32 33  1  0  0  0  0
 32 34  1  0  0  0  0
 33 31  1  6  0  0  0
 33 34  1  0  0  0  0
 35 36  1  0  0  0  0
 35 37  1  0  0  0  0
 36 37  1  0  0  0  0
M  END
>  <MODEL>
3

>  <REMARK>
 VINA RESULT:      -7.1      2.653      6.917
  Name = 
  10 active torsions:
  status: ('A' for Active; 'I' for Inactive)
    1  A    between atoms: C_1  and  N_5
    2  A    between atoms: C_1  and  C_36
    3  A    between atoms: N_5  and  C_17
    4  A    between atoms: N_5  and  C_23
    5  A    between atoms: C_6  and  O_37
    6  A    between atoms: C_10  and  C_29
    7  A    between atoms: C_11  and  C_33
    8  A    between atoms: C_17  and  C_26
    9  A    between atoms: C_29  and  C_36
   10  A    between atoms: C_31  and  O_37
                            x       y       z     vdW  Elec       q    Type
                         _______ _______ _______ _____ _____    ______ ____

>  <TORSDO>
F 10

$$$$
=
 OpenBabel11062409203D

 37 42  0  0  1  0  0  0  0  0999 V2000
  160.0840  205.9290  145.9390 C   0  0  0  0  0  1  0  0  0  0  0  0
  161.1940  202.8640  149.0040 C   0  0  0  0  0  1  0  0  0  0  0  0
  162.9680  207.7890  148.9730 O   0  0  0  0  0  0  0  0  0  0  0  0
  161.3950  205.0630  147.8570 C   0  0  0  0  0  0  0  0  0  0  0  0
  161.7660  207.1960  148.5320 C   0  0  1  0  0  0  0  0  0  0  0  0
  161.4170  205.9740  146.6700 C   0  0  0  0  0  0  0  0  0  0  0  0
  161.6110  205.8110  149.1020 C   0  0  0  0  0  2  0  0  0  0  0  0
  162.5310  205.5760  145.7140 C   0  0  0  0  0  1  0  0  0  0  0  0
  161.7710  208.4370  149.3430 C   0  0  1  0  0  0  0  0  0  0  0  0
  161.2060  203.7370  147.7910 C   0  0  0  0  0  3  0  0  0  0  0  0
  161.6480  207.2900  147.1310 O   0  0  0  0  0  0  0  0  0  0  0  0
  161.3100  207.0450  151.3760 C   0  0  0  0  0  3  0  0  0  0  0  0
  161.4490  208.3110  150.8030 C   0  0  0  0  0  0  0  0  0  0  0  0
  161.2820  209.4520  151.5990 C   0  0  0  0  0  3  0  0  0  0  0  0
  160.8650  208.0650  153.5280 C   0  0  0  0  0  3  0  0  0  0  0  0
  161.0260  206.9210  152.7380 C   0  0  0  0  0  3  0  0  0  0  0  0
  160.9790  209.3380  152.9640 C   0  0  0  0  0  0  0  0  0  0  0  0
  160.8000  210.4550  153.7940 O   0  0  0  0  0  0  0  0  0  0  0  0
  159.2950  212.2980  153.1480 C   0  0  0  0  0  3  0  0  0  0  0  0
  159.6180  211.1980  153.9600 C   0  0  0  0  0  0  0  0  0  0  0  0
  158.7120  210.7950  154.9490 C   0  0  0  0  0  3  0  0  0  0  0  0
  156.6360  211.0760  156.0870 F   0  0  0  0  0  0  0  0  0  0  0  0
  157.1920  212.5680  154.3150 C   0  0  0  0  0  3  0  0  0  0  0  0
  157.5050  211.4770  155.1280 C   0  0  0  0  0  0  0  0  0  0  0  0
  158.0880  212.9800  153.3250 C   0  0  0  0  0  3  0  0  0  0  0  0
  161.5810  209.7650  148.6180 C   0  0  0  0  0  2  0  0  0  0  0  0
  162.8540  210.5960  148.6320 C   0  0  0  0  0  2  0  0  0  0  0  0
  162.5280  212.0080  148.7550 N   0  0  0  0  0  0  0  0  0  0  0  0
  160.5030  213.0250  149.6340 C   0  0  0  0  0  1  0  0  0  0  0  0
  161.0900  212.1220  148.5720 C   0  0  0  0  0  2  0  0  0  0  0  0
  163.1440  212.6750  147.6180 C   0  0  0  0  0  2  0  0  0  0  0  0
  162.7020  213.2390  145.2720 C   0  0  2  0  0  3  0  0  0  0  0  0
  162.0830  213.0280  146.5960 C   0  0  2  0  0  3  0  0  0  0  0  0
  162.3300  214.3180  146.0940 O   0  0  0  0  0  0  0  0  0  0  0  0
  162.3290  212.5800  142.9280 C   0  0  0  0  0  2  0  0  0  0  0  0
  161.9020  214.0200  143.0610 C   0  0  0  0  0  2  0  0  0  0  0  0
  161.6510  213.0520  144.1970 C   0  0  0  0  0  3  0  0  0  0  0  0
  1  6  1  0  0  0  0
  3  9  1  0  0  0  0
  4  7  1  0  0  0  0
  5  3  1  0  0  0  0
  5  7  1  1  0  0  0
  5  9  1  0  0  0  0
  6 11  1  0  0  0  0
  6  4  1  0  0  0  0
  8  6  1  0  0  0  0
  9 26  1  6  0  0  0
  9 13  1  0  0  0  0
 10  4  2  0  0  0  0
 10  2  1  0  0  0  0
 11  5  1  0  0  0  0
 12 16  1  0  0  0  0
 13 12  2  0  0  0  0
 13 14  1  0  0  0  0
 14 17  2  0  0  0  0
 16 15  2  0  0  0  0
 17 15  1  0  0  0  0
 17 18  1  0  0  0  0
 18 20  1  0  0  0  0
 19 25  2  0  0  0  0
 19 20  1  0  0  0  0
 20 21  2  0  0  0  0
 21 24  1  0  0  0  0
 23 24  2  0  0  0  0
 24 22  1  0  0  0  0
 25 23  1  0  0  0  0
 26 27  1  0  0  0  0
 27 28  1  0  0  0  0
 30 28  1  0  0  0  0
 30 29  1  0  0  0  0
 31 28  1  0  0  0  0
 32 37  1  6  0  0  0
 32 34  1  0  0  0  0
 32 33  1  0  0  0  0
 33 31  1  1  0  0  0
 34 33  1  0  0  0  0
 35 36  1  0  0  0  0
 35 37  1  0  0  0  0
 36 37  1  0  0  0  0
M  END
>  <MODEL>
4

>  <REMARK>
 VINA RESULT:      -7.1      2.908      7.028
  Name = 
  10 active torsions:
  status: ('A' for Active; 'I' for Inactive)
    1  A    between atoms: C_1  and  N_5
    2  A    between atoms: C_1  and  C_36
    3  A    between atoms: N_5  and  C_17
    4  A    between atoms: N_5  and  C_23
    5  A    between atoms: C_6  and  O_37
    6  A    between atoms: C_10  and  C_29
    7  A    between atoms: C_11  and  C_33
    8  A    between atoms: C_17  and  C_26
    9  A    between atoms: C_29  and  C_36
   10  A    between atoms: C_31  and  O_37
                            x       y       z     vdW  Elec       q    Type
                         _______ _______ _______ _____ _____    ______ ____

>  <TORSDO>
F 10

$$$$
=
 OpenBabel11062409203D

 37 42  0  0  1  0  0  0  0  0999 V2000
  162.7340  210.7020  155.4460 C   0  0  0  0  0  1  0  0  0  0  0  0
  159.8780  207.7540  157.2270 C   0  0  0  0  0  1  0  0  0  0  0  0
  160.2810  208.7530  152.1050 O   0  0  0  0  0  0  0  0  0  0  0  0
  160.8190  209.1280  155.3790 C   0  0  0  0  0  0  0  0  0  0  0  0
  161.2060  208.7950  153.1690 C   0  0  1  0  0  0  0  0  0  0  0  0
  161.4130  210.3630  154.7760 C   0  0  0  0  0  0  0  0  0  0  0  0
  160.6700  208.0670  154.3740 C   0  0  0  0  0  2  0  0  0  0  0  0
  160.4570  211.5380  154.9210 C   0  0  0  0  0  1  0  0  0  0  0  0
  161.5330  208.1430  151.8780 C   0  0  1  0  0  0  0  0  0  0  0  0
  160.4690  209.0080  156.6680 C   0  0  0  0  0  3  0  0  0  0  0  0
  161.6390  210.1150  153.4030 O   0  0  0  0  0  0  0  0  0  0  0  0
  162.0460  205.8860  152.8420 C   0  0  0  0  0  3  0  0  0  0  0  0
  161.4670  206.6450  151.8230 C   0  0  0  0  0  0  0  0  0  0  0  0
  160.8310  205.9980  150.7550 C   0  0  0  0  0  3  0  0  0  0  0  0
  161.3340  203.8520  151.7370 C   0  0  0  0  0  3  0  0  0  0  0  0
  161.9740  204.4920  152.8030 C   0  0  0  0  0  3  0  0  0  0  0  0
  160.7690  204.5970  150.6990 C   0  0  0  0  0  0  0  0  0  0  0  0
  160.1470  203.9100  149.6450 O   0  0  0  0  0  0  0  0  0  0  0  0
  160.8550  201.5640  149.9010 C   0  0  0  0  0  3  0  0  0  0  0  0
  160.5350  202.6740  149.1020 C   0  0  0  0  0  0  0  0  0  0  0  0
  160.5610  202.5360  147.7090 C   0  0  0  0  0  3  0  0  0  0  0  0
  160.9230  201.1950  145.7710 F   0  0  0  0  0  0  0  0  0  0  0  0
  161.2180  200.2170  147.9230 C   0  0  0  0  0  3  0  0  0  0  0  0
  160.9020  201.3150  147.1200 C   0  0  0  0  0  0  0  0  0  0  0  0
  161.1960  200.3410  149.3150 C   0  0  0  0  0  3  0  0  0  0  0  0
  162.3860  208.9200  150.8810 C   0  0  0  0  0  2  0  0  0  0  0  0
  162.7900  208.0540  149.6980 C   0  0  0  0  0  2  0  0  0  0  0  0
  162.3510  208.6690  148.4560 N   0  0  0  0  0  0  0  0  0  0  0  0
  162.3000  211.0970  148.3540 C   0  0  0  0  0  1  0  0  0  0  0  0
  161.5850  209.8500  148.8230 C   0  0  0  0  0  2  0  0  0  0  0  0
  161.4120  207.7410  147.8450 C   0  0  0  0  0  2  0  0  0  0  0  0
  161.2610  205.6650  146.5460 C   0  0  2  0  0  3  0  0  0  0  0  0
  162.1630  206.7520  146.9770 C   0  0  2  0  0  3  0  0  0  0  0  0
  162.1720  205.4940  147.6040 O   0  0  0  0  0  0  0  0  0  0  0  0
  161.2540  205.7170  144.0840 C   0  0  0  0  0  2  0  0  0  0  0  0
  160.7070  204.3770  144.5040 C   0  0  0  0  0  2  0  0  0  0  0  0
  161.8250  205.0170  145.2980 C   0  0  0  0  0  3  0  0  0  0  0  0
  3  5  1  0  0  0  0
  4 10  2  0  0  0  0
  5 11  1  0  0  0  0
  5  7  1  1  0  0  0
  6  8  1  0  0  0  0
  6  4  1  0  0  0  0
  6  1  1  0  0  0  0
  7  4  1  0  0  0  0
  9 26  1  6  0  0  0
  9  3  1  0  0  0  0
  9  5  1  0  0  0  0
 10  2  1  0  0  0  0
 11  6  1  0  0  0  0
 13  9  1  0  0  0  0
 13 12  2  0  0  0  0
 14 13  1  0  0  0  0
 15 16  2  0  0  0  0
 16 12  1  0  0  0  0
 17 14  2  0  0  0  0
 17 15  1  0  0  0  0
 18 17  1  0  0  0  0
 20 18  1  0  0  0  0
 20 19  2  0  0  0  0
 21 20  1  0  0  0  0
 22 24  1  0  0  0  0
 23 25  2  0  0  0  0
 24 21  2  0  0  0  0
 24 23  1  0  0  0  0
 25 19  1  0  0  0  0
 27 26  1  0  0  0  0
 28 30  1  0  0  0  0
 28 27  1  0  0  0  0
 29 30  1  0  0  0  0
 31 28  1  0  0  0  0
 32 37  1  6  0  0  0
 32 33  1  0  0  0  0
 32 34  1  0  0  0  0
 33 34  1  0  0  0  0
 33 31  1  1  0  0  0
 35 36  1  0  0  0  0
 35 37  1  0  0  0  0
 36 37  1  0  0  0  0
M  END
>  <MODEL>
5

>  <REMARK>
 VINA RESULT:      -7.1      2.445      4.297
  Name = 
  10 active torsions:
  status: ('A' for Active; 'I' for Inactive)
    1  A    between atoms: C_1  and  N_5
    2  A    between atoms: C_1  and  C_36
    3  A    between atoms: N_5  and  C_17
    4  A    between atoms: N_5  and  C_23
    5  A    between atoms: C_6  and  O_37
    6  A    between atoms: C_10  and  C_29
    7  A    between atoms: C_11  and  C_33
    8  A    between atoms: C_17  and  C_26
    9  A    between atoms: C_29  and  C_36
   10  A    between atoms: C_31  and  O_37
                            x       y       z     vdW  Elec       q    Type
                         _______ _______ _______ _____ _____    ______ ____

>  <TORSDO>
F 10

$$$$
=
 OpenBabel11062409203D

 37 42  0  0  1  0  0  0  0  0999 V2000
  161.4680  211.4420  157.0000 C   0  0  0  0  0  1  0  0  0  0  0  0
  160.4120  207.0960  157.1390 C   0  0  0  0  0  1  0  0  0  0  0  0
  159.2960  210.2820  153.1380 O   0  0  0  0  0  0  0  0  0  0  0  0
  160.3370  209.3920  156.1840 C   0  0  0  0  0  0  0  0  0  0  0  0
  160.3390  210.2590  154.0880 C   0  0  1  0  0  0  0  0  0  0  0  0
  160.2670  210.8860  156.2520 C   0  0  0  0  0  0  0  0  0  0  0  0
  160.3940  208.9280  154.7920 C   0  0  0  0  0  2  0  0  0  0  0  0
  158.9900  211.3280  156.9490 C   0  0  0  0  0  1  0  0  0  0  0  0
  160.6070  210.4500  152.6420 C   0  0  1  0  0  0  0  0  0  0  0  0
  160.3440  208.5850  157.2550 C   0  0  0  0  0  3  0  0  0  0  0  0
  160.2720  211.3860  154.9300 O   0  0  0  0  0  0  0  0  0  0  0  0
  161.8840  209.4630  150.7240 C   0  0  0  0  0  3  0  0  0  0  0  0
  161.1090  209.2660  151.8690 C   0  0  0  0  0  0  0  0  0  0  0  0
  160.8050  207.9620  152.2830 C   0  0  0  0  0  3  0  0  0  0  0  0
  162.0650  207.0650  150.4310 C   0  0  0  0  0  3  0  0  0  0  0  0
  162.3670  208.3640  150.0100 C   0  0  0  0  0  3  0  0  0  0  0  0
  161.2720  206.8530  151.5620 C   0  0  0  0  0  0  0  0  0  0  0  0
  160.9860  205.5320  151.9390 O   0  0  0  0  0  0  0  0  0  0  0  0
  161.0220  203.0870  151.6280 C   0  0  0  0  0  3  0  0  0  0  0  0
  161.0240  204.3950  151.1140 C   0  0  0  0  0  0  0  0  0  0  0  0
  161.0200  204.5790  149.7260 C   0  0  0  0  0  3  0  0  0  0  0  0
  161.0130  203.6700  147.5210 F   0  0  0  0  0  0  0  0  0  0  0  0
  161.0150  202.1830  149.3820 C   0  0  0  0  0  3  0  0  0  0  0  0
  161.0170  203.4790  148.8630 C   0  0  0  0  0  0  0  0  0  0  0  0
  161.0180  201.9860  150.7660 C   0  0  0  0  0  3  0  0  0  0  0  0
  160.8620  211.8680  152.1440 C   0  0  0  0  0  2  0  0  0  0  0  0
  159.6740  212.4090  151.3660 C   0  0  0  0  0  2  0  0  0  0  0  0
  160.1110  213.4430  150.4410 N   0  0  0  0  0  0  0  0  0  0  0  0
  157.6810  213.4240  150.4610 C   0  0  0  0  0  1  0  0  0  0  0  0
  158.9210  213.9150  149.7500 C   0  0  0  0  0  2  0  0  0  0  0  0
  160.9350  212.7810  149.4410 C   0  0  0  0  0  2  0  0  0  0  0  0
  161.9260  213.0540  147.2140 C   0  0  2  0  0  3  0  0  0  0  0  0
  161.3010  213.7640  148.3480 C   0  0  2  0  0  3  0  0  0  0  0  0
  162.6950  213.7550  148.1610 O   0  0  0  0  0  0  0  0  0  0  0  0
  161.2650  213.0300  144.8420 C   0  0  0  0  0  2  0  0  0  0  0  0
  162.7290  213.3840  144.8940 C   0  0  0  0  0  2  0  0  0  0  0  0
  161.7910  213.8990  145.9640 C   0  0  0  0  0  3  0  0  0  0  0  0
  2 10  1  0  0  0  0
  3  5  1  0  0  0  0
  4  6  1  0  0  0  0
  4 10  2  0  0  0  0
  5  7  1  1  0  0  0
  5 11  1  0  0  0  0
  6  8  1  0  0  0  0
  6  1  1  0  0  0  0
  7  4  1  0  0  0  0
  9 26  1  6  0  0  0
  9  3  1  0  0  0  0
  9  5  1  0  0  0  0
 11  6  1  0  0  0  0
 12 13  1  0  0  0  0
 13 14  2  0  0  0  0
 13  9  1  0  0  0  0
 15 17  2  0  0  0  0
 16 15  1  0  0  0  0
 16 12  2  0  0  0  0
 17 18  1  0  0  0  0
 17 14  1  0  0  0  0
 20 19  1  0  0  0  0
 20 18  1  0  0  0  0
 21 20  2  0  0  0  0
 22 24  1  0  0  0  0
 23 25  1  0  0  0  0
 24 23  2  0  0  0  0
 24 21  1  0  0  0  0
 25 19  2  0  0  0  0
 27 26  1  0  0  0  0
 28 27  1  0  0  0  0
 30 28  1  0  0  0  0
 30 29  1  0  0  0  0
 31 28  1  0  0  0  0
 32 37  1  6  0  0  0
 32 34  1  0  0  0  0
 32 33  1  0  0  0  0
 33 31  1  1  0  0  0
 34 33  1  0  0  0  0
 35 36  1  0  0  0  0
 35 37  1  0  0  0  0
 36 37  1  0  0  0  0
M  END
>  <MODEL>
6

>  <REMARK>
 VINA RESULT:      -7.0      2.024      2.776
  Name = 
  10 active torsions:
  status: ('A' for Active; 'I' for Inactive)
    1  A    between atoms: C_1  and  N_5
    2  A    between atoms: C_1  and  C_36
    3  A    between atoms: N_5  and  C_17
    4  A    between atoms: N_5  and  C_23
    5  A    between atoms: C_6  and  O_37
    6  A    between atoms: C_10  and  C_29
    7  A    between atoms: C_11  and  C_33
    8  A    between atoms: C_17  and  C_26
    9  A    between atoms: C_29  and  C_36
   10  A    between atoms: C_31  and  O_37
                            x       y       z     vdW  Elec       q    Type
                         _______ _______ _______ _____ _____    ______ ____

>  <TORSDO>
F 10

$$$$
=
 OpenBabel11062409203D

 37 42  0  0  1  0  0  0  0  0999 V2000
  160.1020  206.0440  145.8910 C   0  0  0  0  0  1  0  0  0  0  0  0
  161.2090  202.4280  148.2820 C   0  0  0  0  0  1  0  0  0  0  0  0
  163.0220  207.2500  149.2080 O   0  0  0  0  0  0  0  0  0  0  0  0
  161.4190  204.8080  147.5900 C   0  0  0  0  0  0  0  0  0  0  0  0
  161.8130  206.7640  148.6680 C   0  0  1  0  0  0  0  0  0  0  0  0
  161.4400  205.9360  146.6050 C   0  0  0  0  0  0  0  0  0  0  0  0
  161.6500  205.2940  148.9560 C   0  0  0  0  0  2  0  0  0  0  0  0
  162.5430  205.7270  145.5800 C   0  0  0  0  0  1  0  0  0  0  0  0
  161.8330  207.8200  149.7090 C   0  0  1  0  0  0  0  0  0  0  0  0
  161.2190  203.5220  147.2640 C   0  0  0  0  0  3  0  0  0  0  0  0
  161.6850  207.1330  147.3150 O   0  0  0  0  0  0  0  0  0  0  0  0
  161.8570  206.1280  151.5590 C   0  0  0  0  0  3  0  0  0  0  0  0
  161.5210  207.4100  151.1180 C   0  0  0  0  0  0  0  0  0  0  0  0
  160.8900  208.3000  151.9970 C   0  0  0  0  0  3  0  0  0  0  0  0
  160.9570  206.6410  153.7480 C   0  0  0  0  0  3  0  0  0  0  0  0
  161.5830  205.7460  152.8740 C   0  0  0  0  0  3  0  0  0  0  0  0
  160.5940  207.9190  153.3150 C   0  0  0  0  0  0  0  0  0  0  0  0
  159.9600  208.7790  154.2250 O   0  0  0  0  0  0  0  0  0  0  0  0
  159.9240  210.0690  156.3250 C   0  0  0  0  0  3  0  0  0  0  0  0
  160.5830  209.6080  155.1730 C   0  0  0  0  0  0  0  0  0  0  0  0
  161.9270  209.9500  154.9780 C   0  0  0  0  0  3  0  0  0  0  0  0
  163.9030  211.0630  155.7120 F   0  0  0  0  0  0  0  0  0  0  0  0
  161.9400  211.1930  157.0540 C   0  0  0  0  0  3  0  0  0  0  0  0
  162.6030  210.7400  155.9120 C   0  0  0  0  0  0  0  0  0  0  0  0
  160.5980  210.8590  157.2610 C   0  0  0  0  0  3  0  0  0  0  0  0
  161.6480  209.2660  149.2620 C   0  0  0  0  0  2  0  0  0  0  0  0
  161.9900  210.2430  150.3760 C   0  0  0  0  0  2  0  0  0  0  0  0
  161.9650  211.6060  149.8710 N   0  0  0  0  0  0  0  0  0  0  0  0
  160.4630  211.8070  151.7720 C   0  0  0  0  0  1  0  0  0  0  0  0
  160.7200  212.1990  150.3340 C   0  0  0  0  0  2  0  0  0  0  0  0
  161.8630  211.5080  148.4230 C   0  0  0  0  0  2  0  0  0  0  0  0
  160.1070  212.2180  146.8630 C   0  0  2  0  0  3  0  0  0  0  0  0
  161.0670  212.6800  147.8860 C   0  0  2  0  0  3  0  0  0  0  0  0
  161.3250  212.8280  146.5120 O   0  0  0  0  0  0  0  0  0  0  0  0
  157.6670  212.5010  146.6900 C   0  0  0  0  0  2  0  0  0  0  0  0
  158.2710  213.0400  145.4180 C   0  0  0  0  0  2  0  0  0  0  0  0
  158.9900  213.2340  146.7350 C   0  0  0  0  0  3  0  0  0  0  0  0
  1  6  1  0  0  0  0
  3  9  1  0  0  0  0
  4  7  1  0  0  0  0
  5  7  1  1  0  0  0
  5  3  1  0  0  0  0
  5  9  1  0  0  0  0
  6 11  1  0  0  0  0
  6  4  1  0  0  0  0
  8  6  1  0  0  0  0
  9 26  1  6  0  0  0
  9 13  1  0  0  0  0
 10  4  2  0  0  0  0
 10  2  1  0  0  0  0
 11  5  1  0  0  0  0
 12 16  1  0  0  0  0
 13 12  2  0  0  0  0
 13 14  1  0  0  0  0
 14 17  2  0  0  0  0
 16 15  2  0  0  0  0
 17 15  1  0  0  0  0
 17 18  1  0  0  0  0
 18 20  1  0  0  0  0
 19 25  1  0  0  0  0
 20 19  2  0  0  0  0
 21 20  1  0  0  0  0
 21 24  2  0  0  0  0
 22 24  1  0  0  0  0
 23 25  2  0  0  0  0
 24 23  1  0  0  0  0
 26 27  1  0  0  0  0
 28 30  1  0  0  0  0
 28 27  1  0  0  0  0
 30 29  1  0  0  0  0
 31 28  1  0  0  0  0
 32 37  1  1  0  0  0
 32 33  1  0  0  0  0
 33 31  1  6  0  0  0
 34 32  1  0  0  0  0
 34 33  1  0  0  0  0
 35 37  1  0  0  0  0
 36 35  1  0  0  0  0
 36 37  1  0  0  0  0
M  END
>  <MODEL>
7

>  <REMARK>
 VINA RESULT:      -7.0      2.640      7.178
  Name = 
  10 active torsions:
  status: ('A' for Active; 'I' for Inactive)
    1  A    between atoms: C_1  and  N_5
    2  A    between atoms: C_1  and  C_36
    3  A    between atoms: N_5  and  C_17
    4  A    between atoms: N_5  and  C_23
    5  A    between atoms: C_6  and  O_37
    6  A    between atoms: C_10  and  C_29
    7  A    between atoms: C_11  and  C_33
    8  A    between atoms: C_17  and  C_26
    9  A    between atoms: C_29  and  C_36
   10  A    between atoms: C_31  and  O_37
                            x       y       z     vdW  Elec       q    Type
                         _______ _______ _______ _____ _____    ______ ____

>  <TORSDO>
F 10

$$$$
=
 OpenBabel11062409203D

 37 42  0  0  1  0  0  0  0  0999 V2000
  157.3070  211.5060  154.2350 C   0  0  0  0  0  1  0  0  0  0  0  0
  158.2240  214.0960  150.7030 C   0  0  0  0  0  1  0  0  0  0  0  0
  161.7220  211.0330  153.1090 O   0  0  0  0  0  0  0  0  0  0  0  0
  158.8170  212.6010  152.6020 C   0  0  0  0  0  0  0  0  0  0  0  0
  160.3260  210.9390  152.9240 C   0  0  1  0  0  0  0  0  0  0  0  0
  158.6980  212.0700  153.9960 C   0  0  0  0  0  0  0  0  0  0  0  0
  159.8620  211.8910  151.8530 C   0  0  0  0  0  2  0  0  0  0  0  0
  158.9770  213.1700  155.0100 C   0  0  0  0  0  1  0  0  0  0  0  0
  161.2240  209.7840  152.6810 C   0  0  1  0  0  0  0  0  0  0  0  0
  158.0690  213.5960  152.1030 C   0  0  0  0  0  3  0  0  0  0  0  0
  159.6510  211.0390  154.1560 O   0  0  0  0  0  0  0  0  0  0  0  0
  161.9260  210.4850  150.3790 C   0  0  0  0  0  3  0  0  0  0  0  0
  161.5660  209.4600  151.2570 C   0  0  0  0  0  0  0  0  0  0  0  0
  161.5240  208.1370  150.7960 C   0  0  0  0  0  3  0  0  0  0  0  0
  162.2210  208.8640  148.6030 C   0  0  0  0  0  3  0  0  0  0  0  0
  162.2600  210.1870  149.0560 C   0  0  0  0  0  3  0  0  0  0  0  0
  161.8410  207.8310  149.4640 C   0  0  0  0  0  0  0  0  0  0  0  0
  161.8070  206.5210  148.9610 O   0  0  0  0  0  0  0  0  0  0  0  0
  162.8100  205.4860  146.9620 C   0  0  0  0  0  3  0  0  0  0  0  0
  161.7490  206.1400  147.6100 C   0  0  0  0  0  0  0  0  0  0  0  0
  160.5690  206.3880  146.8980 C   0  0  0  0  0  3  0  0  0  0  0  0
  159.2990  206.2390  144.8850 F   0  0  0  0  0  0  0  0  0  0  0  0
  161.5060  205.3420  144.9270 C   0  0  0  0  0  3  0  0  0  0  0  0
  160.4470  205.9930  145.5630 C   0  0  0  0  0  0  0  0  0  0  0  0
  162.6890  205.0890  145.6270 C   0  0  0  0  0  3  0  0  0  0  0  0
  161.3240  208.7160  153.7660 C   0  0  0  0  0  2  0  0  0  0  0  0
  160.2860  207.6230  153.5700 C   0  0  0  0  0  2  0  0  0  0  0  0
  160.5330  206.5280  154.4940 N   0  0  0  0  0  0  0  0  0  0  0  0
  160.2280  207.2910  156.7810 C   0  0  0  0  0  1  0  0  0  0  0  0
  161.2100  207.1000  155.6480 C   0  0  0  0  0  2  0  0  0  0  0  0
  161.4940  205.6490  153.8450 C   0  0  0  0  0  2  0  0  0  0  0  0
  161.3350  203.9950  152.0400 C   0  0  2  0  0  3  0  0  0  0  0  0
  161.0720  205.4000  152.4110 C   0  0  2  0  0  3  0  0  0  0  0  0
  162.1970  205.0360  151.6510 O   0  0  0  0  0  0  0  0  0  0  0  0
  160.6210  202.1400  150.5850 C   0  0  0  0  0  2  0  0  0  0  0  0
  161.3130  203.1540  149.7100 C   0  0  0  0  0  2  0  0  0  0  0  0
  160.4540  203.6180  150.8670 C   0  0  0  0  0  3  0  0  0  0  0  0
  2 10  1  0  0  0  0
  4  6  1  0  0  0  0
  5  7  1  6  0  0  0
  5  3  1  0  0  0  0
  5 11  1  0  0  0  0
  6 11  1  0  0  0  0
  6  1  1  0  0  0  0
  6  8  1  0  0  0  0
  7  4  1  0  0  0  0
  9  5  1  0  0  0  0
  9  3  1  0  0  0  0
  9 26  1  1  0  0  0
 10  4  2  0  0  0  0
 12 13  1  0  0  0  0
 13  9  1  0  0  0  0
 14 13  2  0  0  0  0
 15 16  1  0  0  0  0
 15 17  2  0  0  0  0
 16 12  2  0  0  0  0
 17 14  1  0  0  0  0
 18 17  1  0  0  0  0
 19 20  1  0  0  0  0
 20 18  1  0  0  0  0
 21 20  2  0  0  0  0
 22 24  1  0  0  0  0
 23 24  2  0  0  0  0
 23 25  1  0  0  0  0
 24 21  1  0  0  0  0
 25 19  2  0  0  0  0
 27 26  1  0  0  0  0
 27 28  1  0  0  0  0
 28 30  1  0  0  0  0
 30 29  1  0  0  0  0
 31 28  1  0  0  0  0
 32 37  1  6  0  0  0
 32 33  1  0  0  0  0
 33 31  1  1  0  0  0
 34 32  1  0  0  0  0
 34 33  1  0  0  0  0
 35 37  1  0  0  0  0
 36 35  1  0  0  0  0
 36 37  1  0  0  0  0
M  END
>  <MODEL>
8

>  <REMARK>
 VINA RESULT:      -6.9      2.988      6.294
  Name = 
  10 active torsions:
  status: ('A' for Active; 'I' for Inactive)
    1  A    between atoms: C_1  and  N_5
    2  A    between atoms: C_1  and  C_36
    3  A    between atoms: N_5  and  C_17
    4  A    between atoms: N_5  and  C_23
    5  A    between atoms: C_6  and  O_37
    6  A    between atoms: C_10  and  C_29
    7  A    between atoms: C_11  and  C_33
    8  A    between atoms: C_17  and  C_26
    9  A    between atoms: C_29  and  C_36
   10  A    between atoms: C_31  and  O_37
                            x       y       z     vdW  Elec       q    Type
                         _______ _______ _______ _____ _____    ______ ____

>  <TORSDO>
F 10

$$$$
=
 OpenBabel11062409203D

 37 42  0  0  1  0  0  0  0  0999 V2000
  158.9250  207.3810  155.5880 C   0  0  0  0  0  1  0  0  0  0  0  0
  161.2480  211.1480  154.9340 C   0  0  0  0  0  1  0  0  0  0  0  0
  162.3690  206.5580  152.6810 O   0  0  0  0  0  0  0  0  0  0  0  0
  160.8450  208.7010  154.7400 C   0  0  0  0  0  0  0  0  0  0  0  0
  161.1630  207.1460  153.1200 C   0  0  1  0  0  0  0  0  0  0  0  0
  160.4030  207.3580  155.2310 C   0  0  0  0  0  0  0  0  0  0  0  0
  161.3440  208.6220  153.3610 C   0  0  0  0  0  2  0  0  0  0  0  0
  161.2100  206.9460  156.4530 C   0  0  0  0  0  1  0  0  0  0  0  0
  161.2760  206.4980  151.7910 C   0  0  1  0  0  0  0  0  0  0  0  0
  160.7930  209.8280  155.4660 C   0  0  0  0  0  3  0  0  0  0  0  0
  160.6160  206.4200  154.1960 O   0  0  0  0  0  0  0  0  0  0  0  0
  161.2010  206.8840  149.3150 C   0  0  0  0  0  3  0  0  0  0  0  0
  161.4290  207.3920  150.5960 C   0  0  0  0  0  0  0  0  0  0  0  0
  161.8050  208.7330  150.7510 C   0  0  0  0  0  3  0  0  0  0  0  0
  161.6970  209.0550  148.3620 C   0  0  0  0  0  3  0  0  0  0  0  0
  161.3270  207.7160  148.2000 C   0  0  0  0  0  3  0  0  0  0  0  0
  161.9510  209.5710  149.6360 C   0  0  0  0  0  0  0  0  0  0  0  0
  162.3290  210.9180  149.7470 O   0  0  0  0  0  0  0  0  0  0  0  0
  160.8400  212.8290  149.2960 C   0  0  0  0  0  3  0  0  0  0  0  0
  161.9010  211.9820  148.9350 C   0  0  0  0  0  0  0  0  0  0  0  0
  162.5900  212.2280  147.7410 C   0  0  0  0  0  3  0  0  0  0  0  0
  162.9020  213.5260  145.7650 F   0  0  0  0  0  0  0  0  0  0  0  0
  161.1720  214.1360  147.2850 C   0  0  0  0  0  3  0  0  0  0  0  0
  162.2270  213.2980  146.9180 C   0  0  0  0  0  0  0  0  0  0  0  0
  160.4770  213.9010  148.4750 C   0  0  0  0  0  3  0  0  0  0  0  0
  160.7280  205.0830  151.6370 C   0  0  0  0  0  2  0  0  0  0  0  0
  161.5730  204.2580  150.6790 C   0  0  0  0  0  2  0  0  0  0  0  0
  160.7350  203.3080  149.9660 N   0  0  0  0  0  0  0  0  0  0  0  0
  161.1820  200.9230  149.8360 C   0  0  0  0  0  1  0  0  0  0  0  0
  160.7650  202.0700  150.7280 C   0  0  0  0  0  2  0  0  0  0  0  0
  161.4050  203.0340  148.7030 C   0  0  0  0  0  2  0  0  0  0  0  0
  161.4590  204.0320  146.4630 C   0  0  2  0  0  3  0  0  0  0  0  0
  161.5460  204.3160  147.9100 C   0  0  2  0  0  3  0  0  0  0  0  0
  162.6950  204.2410  147.1030 O   0  0  0  0  0  0  0  0  0  0  0  0
  161.1580  205.0500  144.2410 C   0  0  0  0  0  2  0  0  0  0  0  0
  162.2420  205.8270  144.9460 C   0  0  0  0  0  2  0  0  0  0  0  0
  161.0610  205.2980  145.7310 C   0  0  0  0  0  3  0  0  0  0  0  0
  2 10  1  0  0  0  0
  3  5  1  0  0  0  0
  4  6  1  0  0  0  0
  4 10  2  0  0  0  0
  5  7  1  1  0  0  0
  5 11  1  0  0  0  0
  6  1  1  0  0  0  0
  6  8  1  0  0  0  0
  7  4  1  0  0  0  0
  9 26  1  6  0  0  0
  9  3  1  0  0  0  0
  9  5  1  0  0  0  0
 11  6  1  0  0  0  0
 12 13  1  0  0  0  0
 13 14  2  0  0  0  0
 13  9  1  0  0  0  0
 15 17  2  0  0  0  0
 16 15  1  0  0  0  0
 16 12  2  0  0  0  0
 17 18  1  0  0  0  0
 17 14  1  0  0  0  0
 20 19  1  0  0  0  0
 20 18  1  0  0  0  0
 21 20  2  0  0  0  0
 22 24  1  0  0  0  0
 23 25  1  0  0  0  0
 24 23  2  0  0  0  0
 24 21  1  0  0  0  0
 25 19  2  0  0  0  0
 27 26  1  0  0  0  0
 28 27  1  0  0  0  0
 28 30  1  0  0  0  0
 29 30  1  0  0  0  0
 31 28  1  0  0  0  0
 32 37  1  6  0  0  0
 32 34  1  0  0  0  0
 32 33  1  0  0  0  0
 33 31  1  1  0  0  0
 34 33  1  0  0  0  0
 35 36  1  0  0  0  0
 35 37  1  0  0  0  0
 36 37  1  0  0  0  0
M  END
>  <MODEL>
9

>  <REMARK>
 VINA RESULT:      -6.9      2.782      6.710
  Name = 
  10 active torsions:
  status: ('A' for Active; 'I' for Inactive)
    1  A    between atoms: C_1  and  N_5
    2  A    between atoms: C_1  and  C_36
    3  A    between atoms: N_5  and  C_17
    4  A    between atoms: N_5  and  C_23
    5  A    between atoms: C_6  and  O_37
    6  A    between atoms: C_10  and  C_29
    7  A    between atoms: C_11  and  C_33
    8  A    between atoms: C_17  and  C_26
    9  A    between atoms: C_29  and  C_36
   10  A    between atoms: C_31  and  O_37
                            x       y       z     vdW  Elec       q    Type
                         _______ _______ _______ _____ _____    ______ ____

>  <TORSDO>
F 10

$$$$
