=
 OpenBabel11062410383D

 32 36  0  0  1  0  0  0  0  0999 V2000
  161.1730  208.8070  152.2540 C   0  0  0  0  0  0  0  0  0  0  0  0
  160.6380  207.7620  156.9650 C   0  0  0  0  0  2  0  0  0  0  0  0
  160.0570  209.1360  157.2600 C   0  0  0  0  0  2  0  0  0  0  0  0
  160.3750  211.1230  151.5810 C   0  0  1  0  0  3  0  0  0  0  0  0
  161.4610  211.6240  150.6190 C   0  0  0  0  0  2  0  0  0  0  0  0
  161.8030  207.1270  150.5690 C   0  0  0  0  0  0  0  0  0  0  0  0
  161.2590  206.4300  152.9970 C   0  0  0  0  0  2  0  0  0  0  0  0
  160.0790  213.6720  151.9580 C   0  0  0  0  0  2  0  0  0  0  0  0
  162.3300  204.9730  151.4520 O   0  0  0  0  0  0  0  0  0  0  0  0
  160.2540  207.3400  155.5540 C   0  0  0  0  0  2  0  0  0  0  0  0
  161.0650  207.9100  153.2560 C   0  0  0  0  0  0  0  0  0  0  0  0
  160.6740  208.3500  154.5780 N   0  0  0  0  0  0  0  0  0  0  0  0
  161.0020  210.7100  153.8870 C   0  0  2  0  0  3  0  0  0  0  0  0
  159.5170  214.0590  150.5800 C   0  0  0  0  0  2  0  0  0  0  0  0
  161.8340  206.1140  151.6480 C   0  0  0  0  0  0  0  0  0  0  0  0
  159.5210  212.9320  149.5450 C   0  0  0  0  0  2  0  0  0  0  0  0
  160.6250  210.1460  156.2750 C   0  0  0  0  0  2  0  0  0  0  0  0
  160.2840  209.7520  154.8350 C   0  0  2  0  0  3  0  0  0  0  0  0
  160.3100  212.0650  153.8430 C   0  0  0  0  0  2  0  0  0  0  0  0
  161.4980  208.3850  150.8770 C   0  0  0  0  0  3  0  0  0  0  0  0
  160.8900  212.2740  149.3520 C   0  0  0  0  0  2  0  0  0  0  0  0
  158.2420  212.0440  152.5010 C   0  0  0  0  0  1  0  0  0  0  0  0
  160.9600  210.1970  152.5330 N   0  0  0  0  0  0  0  0  0  0  0  0
  159.7490  212.2450  152.4360 C   0  0  2  0  0  0  0  0  0  0  0  0
  162.1010  206.8330  149.2320 O   0  0  0  0  0  0  0  0  0  0  0  0
  161.1310  206.4620  148.2590 C   0  0  0  0  0  2  0  0  0  0  0  0
  161.1080  203.3810  148.3780 C   0  0  0  0  0  0  0  0  0  0  0  0
  162.3220  206.1020  146.2390 O   0  0  0  0  0  0  0  0  0  0  0  0
  161.7430  204.1470  147.3480 N   0  0  0  0  0  2  0  0  0  0  0  0
  160.4320  203.9360  149.2850 O   0  0  0  0  0  0  0  0  0  0  0  0
  161.2400  201.9010  148.3710 C   0  0  0  0  0  1  0  0  0  0  0  0
  161.7500  205.5750  147.2270 C   0  0  0  0  0  0  0  0  0  0  0  0
  1 23  1  0  0  0  0
  1 11  2  0  0  0  0
  2  3  1  0  0  0  0
  4  5  1  6  0  0  0
  4 24  1  0  0  0  0
  4 23  1  0  0  0  0
  6 20  2  0  0  0  0
  6 15  1  0  0  0  0
  7 11  1  0  0  0  0
  8 24  1  0  0  0  0
  9 15  2  0  0  0  0
 10  2  1  0  0  0  0
 11 12  1  0  0  0  0
 12 18  1  0  0  0  0
 12 10  1  0  0  0  0
 13 19  1  6  0  0  0
 13 18  1  0  0  0  0
 14  8  1  0  0  0  0
 15  7  1  0  0  0  0
 16 14  1  0  0  0  0
 17  3  1  0  0  0  0
 18 17  1  1  0  0  0
 20  1  1  0  0  0  0
 21 16  1  0  0  0  0
 21  5  1  0  0  0  0
 23 13  1  0  0  0  0
 24 22  1  1  0  0  0
 24 19  1  0  0  0  0
 25  6  1  0  0  0  0
 26 25  1  0  0  0  0
 27 30  2  0  0  0  0
 28 32  2  0  0  0  0
 29 27  1  0  0  0  0
 31 27  1  0  0  0  0
 32 29  1  0  0  0  0
 32 26  1  0  0  0  0
M  END
>  <MODEL>
1

>  <REMARK>
 VINA RESULT:      -7.1      0.000      0.000
  Name = 
  3 active torsions:
  status: ('A' for Active; 'I' for Inactive)
    1  A    between atoms: C_8  and  O_23
    2  A    between atoms: C_19  and  O_23
    3  A    between atoms: C_19  and  C_24
                            x       y       z     vdW  Elec       q    Type
                         _______ _______ _______ _____ _____    ______ ____

>  <TORSDO>
F 3

$$$$
=
 OpenBabel11062410383D

 32 36  0  0  1  0  0  0  0  0999 V2000
  161.5520  208.3370  151.8080 C   0  0  0  0  0  0  0  0  0  0  0  0
  161.0990  203.6570  150.5990 C   0  0  0  0  0  2  0  0  0  0  0  0
  160.6590  203.2790  152.0050 C   0  0  0  0  0  2  0  0  0  0  0  0
  160.9490  208.8770  154.2150 C   0  0  1  0  0  3  0  0  0  0  0  0
  162.0400  209.8620  154.6580 C   0  0  0  0  0  2  0  0  0  0  0  0
  161.9590  210.1170  150.1560 C   0  0  0  0  0  0  0  0  0  0  0  0
  161.4430  207.7000  149.4000 C   0  0  0  0  0  2  0  0  0  0  0  0
  160.9060  208.3800  156.7600 C   0  0  0  0  0  2  0  0  0  0  0  0
  162.3150  209.3490  147.9250 O   0  0  0  0  0  0  0  0  0  0  0  0
  160.6240  205.0680  150.2800 C   0  0  0  0  0  2  0  0  0  0  0  0
  161.3980  207.3710  150.8780 C   0  0  0  0  0  0  0  0  0  0  0  0
  161.0990  206.0160  151.2910 N   0  0  0  0  0  0  0  0  0  0  0  0
  161.6200  206.6190  153.6400 C   0  0  2  0  0  3  0  0  0  0  0  0
  160.3320  209.7160  157.2610 C   0  0  0  0  0  2  0  0  0  0  0  0
  161.9350  209.0840  149.0960 C   0  0  0  0  0  0  0  0  0  0  0  0
  160.1920  210.7970  156.1870 C   0  0  0  0  0  2  0  0  0  0  0  0
  161.2820  204.2440  153.0040 C   0  0  0  0  0  2  0  0  0  0  0  0
  160.8530  205.6830  152.7090 C   0  0  2  0  0  3  0  0  0  0  0  0
  161.0570  206.5760  155.0540 C   0  0  0  0  0  2  0  0  0  0  0  0
  161.7850  209.7430  151.4220 C   0  0  0  0  0  3  0  0  0  0  0  0
  161.4850  211.0750  155.4160 C   0  0  0  0  0  2  0  0  0  0  0  0
  158.9480  207.8320  155.2850 C   0  0  0  0  0  1  0  0  0  0  0  0
  161.4800  207.9910  153.1970 N   0  0  0  0  0  0  0  0  0  0  0  0
  160.4630  207.9500  155.3490 C   0  0  2  0  0  0  0  0  0  0  0  0
  162.1780  211.4770  149.8980 O   0  0  0  0  0  0  0  0  0  0  0  0
  161.3840  212.2610  149.0150 C   0  0  0  0  0  2  0  0  0  0  0  0
  160.1520  212.7360  146.2280 C   0  0  0  0  0  0  0  0  0  0  0  0
  163.4200  212.7390  147.8940 O   0  0  0  0  0  0  0  0  0  0  0  0
  161.5540  212.7940  146.5140 N   0  0  0  0  0  2  0  0  0  0  0  0
  159.3030  212.5580  147.1420 O   0  0  0  0  0  0  0  0  0  0  0  0
  159.6880  212.8990  144.8260 C   0  0  0  0  0  1  0  0  0  0  0  0
  162.1720  212.6190  147.7960 C   0  0  0  0  0  0  0  0  0  0  0  0
  1 23  1  0  0  0  0
  2  3  1  0  0  0  0
  3 17  1  0  0  0  0
  4  5  1  1  0  0  0
  4 24  1  0  0  0  0
  5 21  1  0  0  0  0
  6 20  2  0  0  0  0
  7 11  1  0  0  0  0
  8 14  1  0  0  0  0
  9 15  2  0  0  0  0
 10  2  1  0  0  0  0
 10 12  1  0  0  0  0
 11 12  1  0  0  0  0
 11  1  2  0  0  0  0
 12 18  1  0  0  0  0
 13 19  1  1  0  0  0
 15  7  1  0  0  0  0
 15  6  1  0  0  0  0
 16 14  1  0  0  0  0
 18 17  1  6  0  0  0
 18 13  1  0  0  0  0
 19 24  1  0  0  0  0
 20  1  1  0  0  0  0
 21 16  1  0  0  0  0
 23 13  1  0  0  0  0
 23  4  1  0  0  0  0
 24 22  1  6  0  0  0
 24  8  1  0  0  0  0
 25  6  1  0  0  0  0
 26 25  1  0  0  0  0
 27 29  1  0  0  0  0
 27 30  2  0  0  0  0
 29 32  1  0  0  0  0
 31 27  1  0  0  0  0
 32 28  2  0  0  0  0
 32 26  1  0  0  0  0
M  END
>  <MODEL>
2

>  <REMARK>
 VINA RESULT:      -6.8      2.859      6.122
  Name = 
  3 active torsions:
  status: ('A' for Active; 'I' for Inactive)
    1  A    between atoms: C_8  and  O_23
    2  A    between atoms: C_19  and  O_23
    3  A    between atoms: C_19  and  C_24
                            x       y       z     vdW  Elec       q    Type
                         _______ _______ _______ _____ _____    ______ ____

>  <TORSDO>
F 3

$$$$
=
 OpenBabel11062410383D

 32 36  0  0  1  0  0  0  0  0999 V2000
  161.4220  207.3550  149.2310 C   0  0  0  0  0  0  0  0  0  0  0  0
  161.2060  205.4420  153.6870 C   0  0  0  0  0  2  0  0  0  0  0  0
  161.1230  204.0270  153.1360 C   0  0  0  0  0  2  0  0  0  0  0  0
  161.3930  205.6580  147.3420 C   0  0  1  0  0  3  0  0  0  0  0  0
  160.4550  206.2800  146.2980 C   0  0  0  0  0  2  0  0  0  0  0  0
  161.9060  209.7320  148.8120 C   0  0  0  0  0  0  0  0  0  0  0  0
  162.0950  208.7400  151.1910 C   0  0  0  0  0  2  0  0  0  0  0  0
  160.5800  203.4740  146.2010 C   0  0  0  0  0  2  0  0  0  0  0  0
  162.0660  211.0810  150.7740 O   0  0  0  0  0  0  0  0  0  0  0  0
  162.0410  206.3040  152.7510 C   0  0  0  0  0  2  0  0  0  0  0  0
  161.6340  207.4420  150.5600 C   0  0  0  0  0  0  0  0  0  0  0  0
  161.5030  206.2620  151.3890 N   0  0  0  0  0  0  0  0  0  0  0  0
  160.4560  205.0510  149.4950 C   0  0  2  0  0  3  0  0  0  0  0  0
  161.2520  203.6500  144.8300 C   0  0  0  0  0  2  0  0  0  0  0  0
  162.0200  209.9260  150.2750 C   0  0  0  0  0  0  0  0  0  0  0  0
  161.9270  205.0060  144.6140 C   0  0  0  0  0  2  0  0  0  0  0  0
  160.4540  204.0570  151.7690 C   0  0  0  0  0  2  0  0  0  0  0  0
  161.2460  204.9340  150.7960 C   0  0  2  0  0  3  0  0  0  0  0  0
  160.5580  203.7750  148.6710 C   0  0  0  0  0  2  0  0  0  0  0  0
  161.6180  208.5200  148.3450 C   0  0  0  0  0  3  0  0  0  0  0  0
  161.0070  206.2030  144.8690 C   0  0  0  0  0  2  0  0  0  0  0  0
  162.7220  203.5490  147.5130 C   0  0  0  0  0  1  0  0  0  0  0  0
  161.0080  206.1040  148.6670 N   0  0  0  0  0  0  0  0  0  0  0  0
  161.3160  204.1170  147.3920 C   0  0  2  0  0  0  0  0  0  0  0  0
  162.0660  210.7720  147.8860 O   0  0  0  0  0  0  0  0  0  0  0  0
  161.2040  211.9010  147.7950 C   0  0  0  0  0  2  0  0  0  0  0  0
  160.7500  212.9530  144.9320 C   0  0  0  0  0  0  0  0  0  0  0  0
  162.7960  213.6560  147.8930 O   0  0  0  0  0  0  0  0  0  0  0  0
  161.7130  213.4870  145.8480 N   0  0  0  0  0  2  0  0  0  0  0  0
  159.9510  212.0430  145.2770 O   0  0  0  0  0  0  0  0  0  0  0  0
  160.6860  213.4920  143.5480 C   0  0  0  0  0  1  0  0  0  0  0  0
  161.9360  213.0600  147.1980 C   0  0  0  0  0  0  0  0  0  0  0  0
  1 11  2  0  0  0  0
  3  2  1  0  0  0  0
  4  5  1  6  0  0  0
  4 24  1  0  0  0  0
  4 23  1  0  0  0  0
  6 15  1  0  0  0  0
  8 24  1  0  0  0  0
 10  2  1  0  0  0  0
 11  7  1  0  0  0  0
 11 12  1  0  0  0  0
 12 10  1  0  0  0  0
 13 19  1  6  0  0  0
 13 18  1  0  0  0  0
 14  8  1  0  0  0  0
 15  9  2  0  0  0  0
 15  7  1  0  0  0  0
 16 14  1  0  0  0  0
 16 21  1  0  0  0  0
 17  3  1  0  0  0  0
 18 12  1  0  0  0  0
 18 17  1  1  0  0  0
 20  6  2  0  0  0  0
 20  1  1  0  0  0  0
 21  5  1  0  0  0  0
 23  1  1  0  0  0  0
 23 13  1  0  0  0  0
 24 22  1  1  0  0  0
 24 19  1  0  0  0  0
 25  6  1  0  0  0  0
 26 25  1  0  0  0  0
 27 30  2  0  0  0  0
 27 29  1  0  0  0  0
 29 32  1  0  0  0  0
 31 27  1  0  0  0  0
 32 26  1  0  0  0  0
 32 28  2  0  0  0  0
M  END
>  <MODEL>
3

>  <REMARK>
 VINA RESULT:      -6.7      3.577      7.500
  Name = 
  3 active torsions:
  status: ('A' for Active; 'I' for Inactive)
    1  A    between atoms: C_8  and  O_23
    2  A    between atoms: C_19  and  O_23
    3  A    between atoms: C_19  and  C_24
                            x       y       z     vdW  Elec       q    Type
                         _______ _______ _______ _____ _____    ______ ____

>  <TORSDO>
F 3

$$$$
=
 OpenBabel11062410383D

 32 36  0  0  1  0  0  0  0  0999 V2000
  161.5950  208.4780  151.7320 C   0  0  0  0  0  0  0  0  0  0  0  0
  161.2060  203.8450  150.3360 C   0  0  0  0  0  2  0  0  0  0  0  0
  160.7860  203.4020  151.7300 C   0  0  0  0  0  2  0  0  0  0  0  0
  161.0060  208.9090  154.1650 C   0  0  1  0  0  3  0  0  0  0  0  0
  162.0850  209.8930  154.6390 C   0  0  0  0  0  2  0  0  0  0  0  0
  161.9560  210.3300  150.1520 C   0  0  0  0  0  0  0  0  0  0  0  0
  161.4730  207.9380  149.3020 C   0  0  0  0  0  2  0  0  0  0  0  0
  160.9960  208.3080  156.6880 C   0  0  0  0  0  2  0  0  0  0  0  0
  162.3040  209.6600  147.8880 O   0  0  0  0  0  0  0  0  0  0  0  0
  160.7050  205.2590  150.0800 C   0  0  0  0  0  2  0  0  0  0  0  0
  161.4470  207.5490  150.7650 C   0  0  0  0  0  0  0  0  0  0  0  0
  161.1750  206.1730  151.1250 N   0  0  0  0  0  0  0  0  0  0  0  0
  161.7080  206.6880  153.4920 C   0  0  2  0  0  3  0  0  0  0  0  0
  160.4040  209.6120  157.2480 C   0  0  0  0  0  2  0  0  0  0  0  0
  161.9400  209.3420  149.0500 C   0  0  0  0  0  0  0  0  0  0  0  0
  160.2360  210.7340  156.2210 C   0  0  0  0  0  2  0  0  0  0  0  0
  161.4020  204.3360  152.7620 C   0  0  0  0  0  2  0  0  0  0  0  0
  160.9470  205.7780  152.5300 C   0  0  2  0  0  3  0  0  0  0  0  0
  161.1590  206.5780  154.9070 C   0  0  0  0  0  2  0  0  0  0  0  0
  161.8010  209.9020  151.4020 C   0  0  0  0  0  3  0  0  0  0  0  0
  161.5180  211.0640  155.4500 C   0  0  0  0  0  2  0  0  0  0  0  0
  159.0320  207.7880  155.2080 C   0  0  0  0  0  1  0  0  0  0  0  0
  161.5420  208.0740  153.1070 N   0  0  0  0  0  0  0  0  0  0  0  0
  160.5450  207.9290  155.2650 C   0  0  2  0  0  0  0  0  0  0  0  0
  162.1520  211.7030  149.9470 O   0  0  0  0  0  0  0  0  0  0  0  0
  161.6150  212.4320  148.8490 C   0  0  0  0  0  2  0  0  0  0  0  0
  159.1880  212.9290  147.0130 C   0  0  0  0  0  0  0  0  0  0  0  0
  160.3010  213.5980  150.4430 O   0  0  0  0  0  0  0  0  0  0  0  0
  159.2890  213.3920  148.3640 N   0  0  0  0  0  2  0  0  0  0  0  0
  160.0790  212.2010  146.5010 O   0  0  0  0  0  0  0  0  0  0  0  0
  158.0010  213.3060  146.2020 C   0  0  0  0  0  1  0  0  0  0  0  0
  160.3760  213.1560  149.2690 C   0  0  0  0  0  0  0  0  0  0  0  0
  1 23  1  0  0  0  0
  2  3  1  0  0  0  0
  3 17  1  0  0  0  0
  4  5  1  1  0  0  0
  4 24  1  0  0  0  0
  5 21  1  0  0  0  0
  6 20  2  0  0  0  0
  7 11  1  0  0  0  0
  8 14  1  0  0  0  0
  9 15  2  0  0  0  0
 10  2  1  0  0  0  0
 10 12  1  0  0  0  0
 11 12  1  0  0  0  0
 11  1  2  0  0  0  0
 12 18  1  0  0  0  0
 13 19  1  1  0  0  0
 15  7  1  0  0  0  0
 15  6  1  0  0  0  0
 16 14  1  0  0  0  0
 18 17  1  6  0  0  0
 18 13  1  0  0  0  0
 19 24  1  0  0  0  0
 20  1  1  0  0  0  0
 21 16  1  0  0  0  0
 23 13  1  0  0  0  0
 23  4  1  0  0  0  0
 24 22  1  6  0  0  0
 24  8  1  0  0  0  0
 25  6  1  0  0  0  0
 26 32  1  0  0  0  0
 26 25  1  0  0  0  0
 27 29  1  0  0  0  0
 29 32  1  0  0  0  0
 30 27  2  0  0  0  0
 31 27  1  0  0  0  0
 32 28  2  0  0  0  0
M  END
>  <MODEL>
4

>  <REMARK>
 VINA RESULT:      -6.4      2.760      6.346
  Name = 
  3 active torsions:
  status: ('A' for Active; 'I' for Inactive)
    1  A    between atoms: C_8  and  O_23
    2  A    between atoms: C_19  and  O_23
    3  A    between atoms: C_19  and  C_24
                            x       y       z     vdW  Elec       q    Type
                         _______ _______ _______ _____ _____    ______ ____

>  <TORSDO>
F 3

$$$$
=
 OpenBabel11062410383D

 32 36  0  0  1  0  0  0  0  0999 V2000
  161.4140  207.6470  149.2320 C   0  0  0  0  0  0  0  0  0  0  0  0
  161.2550  205.7290  153.6880 C   0  0  0  0  0  2  0  0  0  0  0  0
  161.2020  204.3120  153.1370 C   0  0  0  0  0  2  0  0  0  0  0  0
  161.4180  205.9490  147.3430 C   0  0  1  0  0  3  0  0  0  0  0  0
  160.4630  206.5510  146.3020 C   0  0  0  0  0  2  0  0  0  0  0  0
  161.8420  210.0340  148.8120 C   0  0  0  0  0  0  0  0  0  0  0  0
  162.0610  209.0460  151.1900 C   0  0  0  0  0  2  0  0  0  0  0  0
  160.6520  203.7480  146.2030 C   0  0  0  0  0  2  0  0  0  0  0  0
  161.9770  211.3860  150.7740 O   0  0  0  0  0  0  0  0  0  0  0  0
  162.0680  206.6100  152.7500 C   0  0  0  0  0  2  0  0  0  0  0  0
  161.6280  207.7380  150.5610 C   0  0  0  0  0  0  0  0  0  0  0  0
  161.5260  206.5560  151.3900 N   0  0  0  0  0  0  0  0  0  0  0  0
  160.5020  205.3210  149.4980 C   0  0  2  0  0  3  0  0  0  0  0  0
  161.3160  203.9390  144.8300 C   0  0  0  0  0  2  0  0  0  0  0  0
  161.9560  210.2300  150.2750 C   0  0  0  0  0  0  0  0  0  0  0  0
  161.9600  205.3110  144.6130 C   0  0  0  0  0  2  0  0  0  0  0  0
  160.5290  204.3270  151.7720 C   0  0  0  0  0  2  0  0  0  0  0  0
  161.2980  205.2220  150.7970 C   0  0  2  0  0  3  0  0  0  0  0  0
  160.6300  204.0470  148.6730 C   0  0  0  0  0  2  0  0  0  0  0  0
  161.5800  208.8160  148.3450 C   0  0  0  0  0  3  0  0  0  0  0  0
  161.0130  206.4860  144.8710 C   0  0  0  0  0  2  0  0  0  0  0  0
  162.7960  203.8720  147.5090 C   0  0  0  0  0  1  0  0  0  0  0  0
  161.0270  206.3860  148.6690 N   0  0  0  0  0  0  0  0  0  0  0  0
  161.3770  204.4070  147.3920 C   0  0  2  0  0  0  0  0  0  0  0  0
  161.9760  211.0770  147.8860 O   0  0  0  0  0  0  0  0  0  0  0  0
  160.8820  211.8070  147.3400 C   0  0  0  0  0  2  0  0  0  0  0  0
  158.3140  213.5060  147.4990 C   0  0  0  0  0  0  0  0  0  0  0  0
  161.8510  213.6620  148.4560 O   0  0  0  0  0  0  0  0  0  0  0  0
  159.5960  213.9290  147.9770 N   0  0  0  0  0  2  0  0  0  0  0  0
  158.1350  212.3470  147.0400 O   0  0  0  0  0  0  0  0  0  0  0  0
  157.1680  214.4520  147.5550 C   0  0  0  0  0  1  0  0  0  0  0  0
  160.8080  213.1640  147.9620 C   0  0  0  0  0  0  0  0  0  0  0  0
  1 11  2  0  0  0  0
  3  2  1  0  0  0  0
  4  5  1  6  0  0  0
  4 24  1  0  0  0  0
  4 23  1  0  0  0  0
  6 15  1  0  0  0  0
  8 24  1  0  0  0  0
 10  2  1  0  0  0  0
 11  7  1  0  0  0  0
 11 12  1  0  0  0  0
 12 10  1  0  0  0  0
 13 19  1  6  0  0  0
 13 18  1  0  0  0  0
 14  8  1  0  0  0  0
 15  9  2  0  0  0  0
 15  7  1  0  0  0  0
 16 14  1  0  0  0  0
 16 21  1  0  0  0  0
 17  3  1  0  0  0  0
 18 12  1  0  0  0  0
 18 17  1  1  0  0  0
 20  6  2  0  0  0  0
 20  1  1  0  0  0  0
 21  5  1  0  0  0  0
 23  1  1  0  0  0  0
 23 13  1  0  0  0  0
 24 22  1  1  0  0  0
 24 19  1  0  0  0  0
 25  6  1  0  0  0  0
 26 25  1  0  0  0  0
 26 32  1  0  0  0  0
 27 31  1  0  0  0  0
 27 29  1  0  0  0  0
 30 27  2  0  0  0  0
 32 29  1  0  0  0  0
 32 28  2  0  0  0  0
M  END
>  <MODEL>
5

>  <REMARK>
 VINA RESULT:      -6.4      3.508      7.490
  Name = 
  3 active torsions:
  status: ('A' for Active; 'I' for Inactive)
    1  A    between atoms: C_8  and  O_23
    2  A    between atoms: C_19  and  O_23
    3  A    between atoms: C_19  and  C_24
                            x       y       z     vdW  Elec       q    Type
                         _______ _______ _______ _____ _____    ______ ____

>  <TORSDO>
F 3

$$$$
=
 OpenBabel11062410383D

 32 36  0  0  1  0  0  0  0  0999 V2000
  160.3080  211.0690  152.3910 C   0  0  0  0  0  0  0  0  0  0  0  0
  157.8270  213.0310  156.0740 C   0  0  0  0  0  2  0  0  0  0  0  0
  157.3220  214.1690  155.2000 C   0  0  0  0  0  2  0  0  0  0  0  0
  160.0900  212.3060  150.1830 C   0  0  1  0  0  3  0  0  0  0  0  0
  161.5160  212.3030  149.6140 C   0  0  0  0  0  2  0  0  0  0  0  0
  161.3810  208.8580  152.5220 C   0  0  0  0  0  0  0  0  0  0  0  0
  159.8420  209.6990  154.4200 C   0  0  0  0  0  2  0  0  0  0  0  0
  159.9330  214.4530  148.7350 C   0  0  0  0  0  2  0  0  0  0  0  0
  161.2850  207.8250  154.6710 O   0  0  0  0  0  0  0  0  0  0  0  0
  157.9990  211.7780  155.2280 C   0  0  0  0  0  2  0  0  0  0  0  0
  159.7150  210.9650  153.5980 C   0  0  0  0  0  0  0  0  0  0  0  0
  158.8750  212.0400  154.0840 N   0  0  0  0  0  0  0  0  0  0  0  0
  159.6950  213.5020  152.2550 C   0  0  2  0  0  3  0  0  0  0  0  0
  160.0130  213.8130  147.3400 C   0  0  0  0  0  2  0  0  0  0  0  0
  160.8730  208.7370  153.9070 C   0  0  0  0  0  0  0  0  0  0  0  0
  160.3140  212.3130  147.3370 C   0  0  0  0  0  2  0  0  0  0  0  0
  158.3380  214.4520  154.1040 C   0  0  0  0  0  2  0  0  0  0  0  0
  158.5630  213.2110  153.2370 C   0  0  2  0  0  3  0  0  0  0  0  0
  159.2230  214.3990  151.1190 C   0  0  0  0  0  2  0  0  0  0  0  0
  161.1110  209.9640  151.8320 C   0  0  0  0  0  3  0  0  0  0  0  0
  161.5700  211.9320  148.1270 C   0  0  0  0  0  2  0  0  0  0  0  0
  157.8760  213.1950  149.4420 C   0  0  0  0  0  1  0  0  0  0  0  0
  160.1460  212.2750  151.6320 N   0  0  0  0  0  0  0  0  0  0  0  0
  159.2940  213.5810  149.8330 C   0  0  2  0  0  0  0  0  0  0  0  0
  162.1580  207.8700  151.9010 O   0  0  0  0  0  0  0  0  0  0  0  0
  161.6930  206.5590  151.6010 C   0  0  0  0  0  2  0  0  0  0  0  0
  160.8960  203.9190  150.2210 C   0  0  0  0  0  0  0  0  0  0  0  0
  161.7270  207.3910  149.3800 O   0  0  0  0  0  0  0  0  0  0  0  0
  161.1930  205.1370  149.5290 N   0  0  0  0  0  2  0  0  0  0  0  0
  160.8670  203.8710  151.4790 O   0  0  0  0  0  0  0  0  0  0  0  0
  160.6080  202.6890  149.4390 C   0  0  0  0  0  1  0  0  0  0  0  0
  161.5300  206.3970  150.1240 C   0  0  0  0  0  0  0  0  0  0  0  0
  1 11  2  0  0  0  0
  3  2  1  0  0  0  0
  4  5  1  6  0  0  0
  4 23  1  0  0  0  0
  6 15  1  0  0  0  0
  8 24  1  0  0  0  0
 10  2  1  0  0  0  0
 11 12  1  0  0  0  0
 11  7  1  0  0  0  0
 12 10  1  0  0  0  0
 13 19  1  6  0  0  0
 13 18  1  0  0  0  0
 14  8  1  0  0  0  0
 15  7  1  0  0  0  0
 15  9  2  0  0  0  0
 16 14  1  0  0  0  0
 16 21  1  0  0  0  0
 17  3  1  0  0  0  0
 18 12  1  0  0  0  0
 18 17  1  1  0  0  0
 20  1  1  0  0  0  0
 20  6  2  0  0  0  0
 21  5  1  0  0  0  0
 23 13  1  0  0  0  0
 23  1  1  0  0  0  0
 24 22  1  6  0  0  0
 24  4  1  0  0  0  0
 24 19  1  0  0  0  0
 25  6  1  0  0  0  0
 26 25  1  0  0  0  0
 27 30  2  0  0  0  0
 28 32  2  0  0  0  0
 29 32  1  0  0  0  0
 29 27  1  0  0  0  0
 31 27  1  0  0  0  0
 32 26  1  0  0  0  0
M  END
>  <MODEL>
6

>  <REMARK>
 VINA RESULT:      -6.3      2.009      3.447
  Name = 
  3 active torsions:
  status: ('A' for Active; 'I' for Inactive)
    1  A    between atoms: C_8  and  O_23
    2  A    between atoms: C_19  and  O_23
    3  A    between atoms: C_19  and  C_24
                            x       y       z     vdW  Elec       q    Type
                         _______ _______ _______ _____ _____    ______ ____

>  <TORSDO>
F 3

$$$$
=
 OpenBabel11062410383D

 32 36  0  0  1  0  0  0  0  0999 V2000
  160.6530  210.2930  152.2390 C   0  0  0  0  0  0  0  0  0  0  0  0
  158.6660  211.3010  156.5530 C   0  0  0  0  0  2  0  0  0  0  0  0
  158.0890  212.6130  156.0420 C   0  0  0  0  0  2  0  0  0  0  0  0
  160.2090  212.0230  150.4330 C   0  0  1  0  0  3  0  0  0  0  0  0
  161.5580  212.1630  149.7140 C   0  0  0  0  0  2  0  0  0  0  0  0
  161.6820  208.1200  151.7100 C   0  0  0  0  0  0  0  0  0  0  0  0
  160.3950  208.4740  153.9230 C   0  0  0  0  0  2  0  0  0  0  0  0
  159.9350  214.4530  149.5690 C   0  0  0  0  0  2  0  0  0  0  0  0
  161.8130  206.6020  153.5460 O   0  0  0  0  0  0  0  0  0  0  0  0
  158.7080  210.2880  155.4170 C   0  0  0  0  0  2  0  0  0  0  0  0
  160.2030  209.8990  153.4490 C   0  0  0  0  0  0  0  0  0  0  0  0
  159.4510  210.8220  154.2730 N   0  0  0  0  0  0  0  0  0  0  0  0
  160.0860  212.6850  152.7630 C   0  0  2  0  0  3  0  0  0  0  0  0
  159.8360  214.1680  148.0620 C   0  0  0  0  0  2  0  0  0  0  0  0
  161.3360  207.6680  153.0760 C   0  0  0  0  0  0  0  0  0  0  0  0
  160.0990  212.7130  147.6650 C   0  0  0  0  0  2  0  0  0  0  0  0
  158.9770  213.1560  154.9320 C   0  0  0  0  0  2  0  0  0  0  0  0
  159.0700  212.1600  153.7740 C   0  0  2  0  0  3  0  0  0  0  0  0
  159.5060  213.8250  151.9380 C   0  0  0  0  0  2  0  0  0  0  0  0
  161.3590  209.3580  151.3410 C   0  0  0  0  0  3  0  0  0  0  0  0
  161.4290  212.1610  148.1860 C   0  0  0  0  0  2  0  0  0  0  0  0
  157.9450  213.0520  150.1950 C   0  0  0  0  0  1  0  0  0  0  0  0
  160.4330  211.6450  151.8160 N   0  0  0  0  0  0  0  0  0  0  0  0
  159.4070  213.3400  150.4950 C   0  0  2  0  0  0  0  0  0  0  0  0
  162.3580  207.3150  150.7830 O   0  0  0  0  0  0  0  0  0  0  0  0
  161.7110  206.4720  149.8360 C   0  0  0  0  0  2  0  0  0  0  0  0
  161.5840  204.6890  147.3230 C   0  0  0  0  0  0  0  0  0  0  0  0
  162.2900  208.1600  148.2740 O   0  0  0  0  0  0  0  0  0  0  0  0
  161.9480  206.0740  147.3160 N   0  0  0  0  0  2  0  0  0  0  0  0
  161.2070  204.1160  148.3790 O   0  0  0  0  0  0  0  0  0  0  0  0
  161.6430  203.9150  146.0560 C   0  0  0  0  0  1  0  0  0  0  0  0
  161.9850  206.9530  148.4470 C   0  0  0  0  0  0  0  0  0  0  0  0
  1 11  2  0  0  0  0
  3  2  1  0  0  0  0
  4  5  1  1  0  0  0
  4 24  1  0  0  0  0
  4 23  1  0  0  0  0
  6 15  1  0  0  0  0
  8 24  1  0  0  0  0
 10  2  1  0  0  0  0
 11  7  1  0  0  0  0
 11 12  1  0  0  0  0
 12 10  1  0  0  0  0
 13 19  1  6  0  0  0
 13 18  1  0  0  0  0
 14  8  1  0  0  0  0
 15  9  2  0  0  0  0
 15  7  1  0  0  0  0
 16 14  1  0  0  0  0
 16 21  1  0  0  0  0
 17  3  1  0  0  0  0
 18 12  1  0  0  0  0
 18 17  1  1  0  0  0
 20  6  2  0  0  0  0
 20  1  1  0  0  0  0
 21  5  1  0  0  0  0
 23  1  1  0  0  0  0
 23 13  1  0  0  0  0
 24 22  1  6  0  0  0
 24 19  1  0  0  0  0
 25  6  1  0  0  0  0
 26 25  1  0  0  0  0
 27 30  2  0  0  0  0
 28 32  2  0  0  0  0
 29 27  1  0  0  0  0
 29 32  1  0  0  0  0
 31 27  1  0  0  0  0
 32 26  1  0  0  0  0
M  END
>  <MODEL>
7

>  <REMARK>
 VINA RESULT:      -6.3      1.695      2.423
  Name = 
  3 active torsions:
  status: ('A' for Active; 'I' for Inactive)
    1  A    between atoms: C_8  and  O_23
    2  A    between atoms: C_19  and  O_23
    3  A    between atoms: C_19  and  C_24
                            x       y       z     vdW  Elec       q    Type
                         _______ _______ _______ _____ _____    ______ ____

>  <TORSDO>
F 3

$$$$
=
 OpenBabel11062410383D

 32 36  0  0  1  0  0  0  0  0999 V2000
  160.8490  209.9400  152.3810 C   0  0  0  0  0  0  0  0  0  0  0  0
  161.2140  206.6780  155.9590 C   0  0  0  0  0  2  0  0  0  0  0  0
  160.2540  207.4600  156.8430 C   0  0  0  0  0  2  0  0  0  0  0  0
  159.2710  211.8710  152.8600 C   0  0  1  0  0  3  0  0  0  0  0  0
  160.0200  213.1020  152.3290 C   0  0  0  0  0  2  0  0  0  0  0  0
  161.7970  209.5830  150.1370 C   0  0  0  0  0  0  0  0  0  0  0  0
  161.7850  207.6830  151.8890 C   0  0  0  0  0  2  0  0  0  0  0  0
  158.2070  213.6670  154.4000 C   0  0  0  0  0  2  0  0  0  0  0  0
  163.0910  207.5910  149.9030 O   0  0  0  0  0  0  0  0  0  0  0  0
  160.8320  206.8730  154.4980 C   0  0  0  0  0  2  0  0  0  0  0  0
  161.1510  208.6990  152.8160 C   0  0  0  0  0  0  0  0  0  0  0  0
  160.7890  208.2980  154.1600 N   0  0  0  0  0  0  0  0  0  0  0  0
  160.2520  210.6560  154.7140 C   0  0  2  0  0  3  0  0  0  0  0  0
  157.3990  214.4440  153.3480 C   0  0  0  0  0  2  0  0  0  0  0  0
  162.2760  208.2590  150.5930 C   0  0  0  0  0  0  0  0  0  0  0  0
  157.6530  214.0190  151.9000 C   0  0  0  0  0  2  0  0  0  0  0  0
  160.3490  208.9400  156.5050 C   0  0  0  0  0  2  0  0  0  0  0  0
  159.9960  209.1860  155.0360 C   0  0  2  0  0  3  0  0  0  0  0  0
  159.1570  211.5450  155.2860 C   0  0  0  0  0  2  0  0  0  0  0  0
  161.1370  210.3580  150.9950 C   0  0  0  0  0  3  0  0  0  0  0  0
  159.1310  214.0370  151.5000 C   0  0  0  0  0  2  0  0  0  0  0  0
  157.0720  211.4660  153.9740 C   0  0  0  0  0  1  0  0  0  0  0  0
  160.2280  210.8660  153.2810 N   0  0  0  0  0  0  0  0  0  0  0  0
  158.4140  212.1690  154.1080 C   0  0  2  0  0  0  0  0  0  0  0  0
  162.0230  210.0780  148.8460 O   0  0  0  0  0  0  0  0  0  0  0  0
  161.3410  211.1940  148.2860 C   0  0  0  0  0  2  0  0  0  0  0  0
  160.7500  213.1360  145.9650 C   0  0  0  0  0  0  0  0  0  0  0  0
  163.4730  212.2320  148.2500 O   0  0  0  0  0  0  0  0  0  0  0  0
  162.0120  213.0350  146.6360 N   0  0  0  0  0  2  0  0  0  0  0  0
  159.7510  212.4720  146.3460 O   0  0  0  0  0  0  0  0  0  0  0  0
  160.6160  214.0520  144.8020 C   0  0  0  0  0  1  0  0  0  0  0  0
  162.3250  212.1790  147.7410 C   0  0  0  0  0  0  0  0  0  0  0  0
  1 11  2  0  0  0  0
  1 23  1  0  0  0  0
  2  3  1  0  0  0  0
  4  5  1  1  0  0  0
  4 23  1  0  0  0  0
  4 24  1  0  0  0  0
  6 15  1  0  0  0  0
  6 20  2  0  0  0  0
  7 11  1  0  0  0  0
  9 15  2  0  0  0  0
 10  2  1  0  0  0  0
 11 12  1  0  0  0  0
 12 10  1  0  0  0  0
 12 18  1  0  0  0  0
 13 18  1  0  0  0  0
 13 19  1  1  0  0  0
 14  8  1  0  0  0  0
 15  7  1  0  0  0  0
 16 14  1  0  0  0  0
 17  3  1  0  0  0  0
 18 17  1  1  0  0  0
 20  1  1  0  0  0  0
 21 16  1  0  0  0  0
 21  5  1  0  0  0  0
 23 13  1  0  0  0  0
 24 22  1  6  0  0  0
 24  8  1  0  0  0  0
 24 19  1  0  0  0  0
 25  6  1  0  0  0  0
 26 25  1  0  0  0  0
 27 30  2  0  0  0  0
 27 29  1  0  0  0  0
 29 32  1  0  0  0  0
 31 27  1  0  0  0  0
 32 28  2  0  0  0  0
 32 26  1  0  0  0  0
M  END
>  <MODEL>
8

>  <REMARK>
 VINA RESULT:      -5.6      2.799      4.516
  Name = 
  3 active torsions:
  status: ('A' for Active; 'I' for Inactive)
    1  A    between atoms: C_8  and  O_23
    2  A    between atoms: C_19  and  O_23
    3  A    between atoms: C_19  and  C_24
                            x       y       z     vdW  Elec       q    Type
                         _______ _______ _______ _____ _____    ______ ____

>  <TORSDO>
F 3

$$$$
=
 OpenBabel11062410383D

 32 36  0  0  1  0  0  0  0  0999 V2000
  161.2720  206.0540  149.9490 C   0  0  0  0  0  0  0  0  0  0  0  0
  161.1820  208.3930  154.2020 C   0  0  0  0  0  2  0  0  0  0  0  0
  161.1060  207.0880  154.9810 C   0  0  0  0  0  2  0  0  0  0  0  0
  161.2240  203.5210  150.1270 C   0  0  1  0  0  3  0  0  0  0  0  0
  160.2540  203.0890  149.0180 C   0  0  0  0  0  2  0  0  0  0  0  0
  161.7120  207.1810  147.8060 C   0  0  0  0  0  0  0  0  0  0  0  0
  161.9690  208.4450  150.0460 C   0  0  0  0  0  2  0  0  0  0  0  0
  160.4170  201.2850  151.1670 C   0  0  0  0  0  2  0  0  0  0  0  0
  161.8960  209.5570  147.9440 O   0  0  0  0  0  0  0  0  0  0  0  0
  161.9840  208.1780  152.9260 C   0  0  0  0  0  2  0  0  0  0  0  0
  161.5110  207.1540  150.6930 C   0  0  0  0  0  0  0  0  0  0  0  0
  161.4160  207.0830  152.1360 N   0  0  0  0  0  0  0  0  0  0  0  0
  160.3450  204.8530  151.9520 C   0  0  2  0  0  3  0  0  0  0  0  0
  161.0560  200.3060  150.1690 C   0  0  0  0  0  2  0  0  0  0  0  0
  161.8560  208.4530  148.5500 C   0  0  0  0  0  0  0  0  0  0  0  0
  161.7070  200.9650  148.9500 C   0  0  0  0  0  2  0  0  0  0  0  0
  160.4070  206.0350  154.1340 C   0  0  0  0  0  2  0  0  0  0  0  0
  161.1650  205.8000  152.8250 C   0  0  2  0  0  3  0  0  0  0  0  0
  160.4460  203.4170  152.4490 C   0  0  0  0  0  2  0  0  0  0  0  0
  161.4310  206.0700  148.4810 C   0  0  0  0  0  3  0  0  0  0  0  0
  160.7760  201.9100  148.1870 C   0  0  0  0  0  2  0  0  0  0  0  0
  162.5870  202.3470  151.8610 C   0  0  0  0  0  1  0  0  0  0  0  0
  160.8630  204.8440  150.6000 N   0  0  0  0  0  0  0  0  0  0  0  0
  161.1710  202.6130  151.3740 C   0  0  2  0  0  0  0  0  0  0  0  0
  161.8370  207.0890  146.4130 O   0  0  0  0  0  0  0  0  0  0  0  0
  161.2710  206.0460  145.6270 C   0  0  0  0  0  2  0  0  0  0  0  0
  160.3420  203.1880  144.9340 C   0  0  0  0  0  0  0  0  0  0  0  0
  163.3640  204.9870  145.9770 O   0  0  0  0  0  0  0  0  0  0  0  0
  161.6680  203.5290  145.3570 N   0  0  0  0  0  2  0  0  0  0  0  0
  159.4690  204.0740  144.7390 O   0  0  0  0  0  0  0  0  0  0  0  0
  159.9940  201.7610  144.7120 C   0  0  0  0  0  1  0  0  0  0  0  0
  162.1580  204.8430  145.6530 C   0  0  0  0  0  0  0  0  0  0  0  0
  1 23  1  0  0  0  0
  1 11  2  0  0  0  0
  2  3  1  0  0  0  0
  4  5  1  6  0  0  0
  4 23  1  0  0  0  0
  4 24  1  0  0  0  0
  6 20  2  0  0  0  0
  6 15  1  0  0  0  0
  7 11  1  0  0  0  0
  8 24  1  0  0  0  0
  9 15  2  0  0  0  0
 10  2  1  0  0  0  0
 11 12  1  0  0  0  0
 12 18  1  0  0  0  0
 12 10  1  0  0  0  0
 13 19  1  1  0  0  0
 13 18  1  0  0  0  0
 14  8  1  0  0  0  0
 15  7  1  0  0  0  0
 16 14  1  0  0  0  0
 17  3  1  0  0  0  0
 18 17  1  1  0  0  0
 20  1  1  0  0  0  0
 21 16  1  0  0  0  0
 21  5  1  0  0  0  0
 23 13  1  0  0  0  0
 24 22  1  1  0  0  0
 24 19  1  0  0  0  0
 25  6  1  0  0  0  0
 26 32  1  0  0  0  0
 26 25  1  0  0  0  0
 27 29  1  0  0  0  0
 29 32  1  0  0  0  0
 30 27  2  0  0  0  0
 31 27  1  0  0  0  0
 32 28  2  0  0  0  0
M  END
>  <MODEL>
9

>  <REMARK>
 VINA RESULT:      -5.5      3.166      6.500
  Name = 
  3 active torsions:
  status: ('A' for Active; 'I' for Inactive)
    1  A    between atoms: C_8  and  O_23
    2  A    between atoms: C_19  and  O_23
    3  A    between atoms: C_19  and  C_24
                            x       y       z     vdW  Elec       q    Type
                         _______ _______ _______ _____ _____    ______ ____

>  <TORSDO>
F 3

$$$$
