=
 OpenBabel11062407403D

 27 31  0  0  1  0  0  0  0  0999 V2000
  161.2660  210.2580  151.7650 N   0  0  0  0  0  2  0  0  0  0  0  0
  161.6280  208.7120  149.8820 C   0  0  0  0  0  0  0  0  0  0  0  0
  161.4460  207.2320  151.8920 N   0  0  0  0  0  2  0  0  0  0  0  0
  161.1230  204.3240  148.5940 N   0  0  0  0  0  0  0  0  0  0  0  0
  160.8270  202.3750  149.9390 C   0  0  0  0  0  3  0  0  0  0  0  0
  161.6530  208.4450  148.5200 C   0  0  0  0  0  3  0  0  0  0  0  0
  160.8890  203.1670  151.0850 C   0  0  0  0  0  3  0  0  0  0  0  0
  161.0700  204.5450  150.9680 C   0  0  0  0  0  3  0  0  0  0  0  0
  160.5640  208.5670  155.0330 C   0  0  0  0  0  0  0  0  0  0  0  0
  161.1880  205.1240  149.6960 C   0  0  0  0  0  0  0  0  0  0  0  0
  162.0440  209.9740  150.5640 C   0  0  1  0  0  3  0  0  0  0  0  0
  160.9470  202.9800  148.6870 C   0  0  0  0  0  3  0  0  0  0  0  0
  161.3740  206.5430  149.5330 N   0  0  0  0  0  0  0  0  0  0  0  0
  160.9950  209.4560  152.7520 C   0  0  0  0  0  0  0  0  0  0  0  0
  161.4810  207.4910  150.4850 C   0  0  0  0  0  0  0  0  0  0  0  0
  161.0130  207.5820  154.1600 C   0  0  0  0  0  3  0  0  0  0  0  0
  161.4730  207.1190  148.3440 N   0  0  0  0  0  0  0  0  0  0  0  0
  160.4370  210.0330  154.2280 S   0  0  0  0  0  0  0  0  0  0  0  0
  161.2360  208.0720  152.8650 C   0  0  0  0  0  0  0  0  0  0  0  0
  161.9750  213.4110  147.9810 C   0  0  0  0  0  3  0  0  0  0  0  0
  162.0260  211.1630  149.6510 C   0  0  0  0  0  0  0  0  0  0  0  0
  161.0310  212.1340  149.8100 C   0  0  0  0  0  3  0  0  0  0  0  0
  161.0040  213.2550  148.9760 C   0  0  0  0  0  3  0  0  0  0  0  0
  162.9720  212.4460  147.8200 C   0  0  0  0  0  3  0  0  0  0  0  0
  163.0000  211.3240  148.6540 C   0  0  0  0  0  3  0  0  0  0  0  0
  160.1090  207.0950  156.9520 C   0  0  0  0  0  1  0  0  0  0  0  0
  160.2490  208.3860  156.3790 O   0  0  0  0  0  0  0  0  0  0  0  0
  1 14  1  0  0  0  0
  2 15  2  0  0  0  0
  2 11  1  0  0  0  0
  3 19  1  0  0  0  0
  4 12  2  0  0  0  0
  4 10  1  0  0  0  0
  5  7  2  0  0  0  0
  6  2  1  0  0  0  0
  8  7  1  0  0  0  0
  9 27  1  0  0  0  0
 10  8  2  0  0  0  0
 11 21  1  6  0  0  0
 11  1  1  0  0  0  0
 12  5  1  0  0  0  0
 13 10  1  0  0  0  0
 13 15  1  0  0  0  0
 14 19  2  0  0  0  0
 14 18  1  0  0  0  0
 15  3  1  0  0  0  0
 16  9  2  0  0  0  0
 17  6  2  0  0  0  0
 17 13  1  0  0  0  0
 18  9  1  0  0  0  0
 19 16  1  0  0  0  0
 20 23  1  0  0  0  0
 21 22  1  0  0  0  0
 23 22  2  0  0  0  0
 24 20  2  0  0  0  0
 24 25  1  0  0  0  0
 25 21  2  0  0  0  0
 27 26  1  0  0  0  0
M  END
>  <MODEL>
1

>  <REMARK>
 VINA RESULT:      -8.9      0.000      0.000
  Name = 
  2 active torsions:
  status: ('A' for Active; 'I' for Inactive)
    1  A    between atoms: C_9  and  C_15
    2  A    between atoms: C_13  and  O_22
                            x       y       z     vdW  Elec       q    Type
                         _______ _______ _______ _____ _____    ______ ____

>  <TORSDO>
F 2

$$$$
=
 OpenBabel11062407403D

 27 31  0  0  1  0  0  0  0  0999 V2000
  161.5980  206.9920  150.0260 N   0  0  0  0  0  2  0  0  0  0  0  0
  161.2260  206.6660  152.4390 C   0  0  0  0  0  0  0  0  0  0  0  0
  161.8250  209.0850  152.2100 N   0  0  0  0  0  2  0  0  0  0  0  0
  160.2890  208.9180  156.3400 N   0  0  0  0  0  0  0  0  0  0  0  0
  160.5330  211.2380  156.8460 C   0  0  0  0  0  3  0  0  0  0  0  0
  160.7340  205.9180  153.4990 C   0  0  0  0  0  3  0  0  0  0  0  0
  161.0210  211.4590  155.5580 C   0  0  0  0  0  3  0  0  0  0  0  0
  161.1380  210.3910  154.6670 C   0  0  0  0  0  3  0  0  0  0  0  0
  162.1930  210.5530  149.0270 C   0  0  0  0  0  0  0  0  0  0  0  0
  160.7640  209.1020  155.0750 C   0  0  0  0  0  0  0  0  0  0  0  0
  161.8630  206.1530  151.1900 C   0  0  1  0  0  3  0  0  0  0  0  0
  160.1670  209.9440  157.2220 C   0  0  0  0  0  3  0  0  0  0  0  0
  160.8670  207.9760  154.1850 N   0  0  0  0  0  0  0  0  0  0  0  0
  161.7240  208.2820  149.9230 C   0  0  0  0  0  0  0  0  0  0  0  0
  161.3230  207.9460  152.9160 C   0  0  0  0  0  0  0  0  0  0  0  0
  162.2820  210.5050  150.4140 C   0  0  0  0  0  3  0  0  0  0  0  0
  160.5060  206.7510  154.5370 N   0  0  0  0  0  0  0  0  0  0  0  0
  161.7640  209.0460  148.4270 S   0  0  0  0  0  0  0  0  0  0  0  0
  161.9960  209.2320  150.9280 C   0  0  0  0  0  0  0  0  0  0  0  0
  160.8230  202.0820  150.2800 C   0  0  0  0  0  3  0  0  0  0  0  0
  161.4960  204.7310  150.8880 C   0  0  0  0  0  0  0  0  0  0  0  0
  161.0400  204.3980  149.6080 C   0  0  0  0  0  3  0  0  0  0  0  0
  160.7040  203.0760  149.3040 C   0  0  0  0  0  3  0  0  0  0  0  0
  161.2810  202.4090  151.5590 C   0  0  0  0  0  3  0  0  0  0  0  0
  161.6180  203.7300  151.8640 C   0  0  0  0  0  3  0  0  0  0  0  0
  161.3450  212.3830  147.6170 C   0  0  0  0  0  1  0  0  0  0  0  0
  162.4130  211.6760  148.2300 O   0  0  0  0  0  0  0  0  0  0  0  0
  1 11  1  0  0  0  0
  2 15  2  0  0  0  0
  2  6  1  0  0  0  0
  3 15  1  0  0  0  0
  4 12  1  0  0  0  0
  5 12  2  0  0  0  0
  6 17  2  0  0  0  0
  7  5  1  0  0  0  0
  8 10  1  0  0  0  0
  8  7  2  0  0  0  0
  9 16  2  0  0  0  0
 10  4  2  0  0  0  0
 11 21  1  6  0  0  0
 11  2  1  0  0  0  0
 13 17  1  0  0  0  0
 13 10  1  0  0  0  0
 14  1  1  0  0  0  0
 14 19  2  0  0  0  0
 15 13  1  0  0  0  0
 16 19  1  0  0  0  0
 18  9  1  0  0  0  0
 18 14  1  0  0  0  0
 19  3  1  0  0  0  0
 20 24  1  0  0  0  0
 21 25  1  0  0  0  0
 22 21  2  0  0  0  0
 23 22  1  0  0  0  0
 23 20  2  0  0  0  0
 24 25  2  0  0  0  0
 26 27  1  0  0  0  0
 27  9  1  0  0  0  0
M  END
>  <MODEL>
2

>  <REMARK>
 VINA RESULT:      -8.9      2.750      7.462
  Name = 
  2 active torsions:
  status: ('A' for Active; 'I' for Inactive)
    1  A    between atoms: C_9  and  C_15
    2  A    between atoms: C_13  and  O_22
                            x       y       z     vdW  Elec       q    Type
                         _______ _______ _______ _____ _____    ______ ____

>  <TORSDO>
F 2

$$$$
=
 OpenBabel11062407403D

 27 31  0  0  1  0  0  0  0  0999 V2000
  161.5370  208.6650  152.3740 N   0  0  0  0  0  2  0  0  0  0  0  0
  161.0050  206.2610  152.4450 C   0  0  0  0  0  0  0  0  0  0  0  0
  161.1010  206.8180  150.0060 N   0  0  0  0  0  2  0  0  0  0  0  0
  161.1050  202.4100  149.9290 N   0  0  0  0  0  0  0  0  0  0  0  0
  161.2610  202.1510  147.5610 C   0  0  0  0  0  3  0  0  0  0  0  0
  160.9300  205.0560  153.1290 C   0  0  0  0  0  3  0  0  0  0  0  0
  161.2900  203.5380  147.4200 C   0  0  0  0  0  3  0  0  0  0  0  0
  161.2260  204.3530  148.5500 C   0  0  0  0  0  3  0  0  0  0  0  0
  162.1580  210.0040  148.9310 C   0  0  0  0  0  0  0  0  0  0  0  0
  161.1310  203.7690  149.8220 C   0  0  0  0  0  0  0  0  0  0  0  0
  160.7130  207.6240  152.9790 C   0  0  1  0  0  3  0  0  0  0  0  0
  161.1670  201.5990  148.8400 C   0  0  0  0  0  3  0  0  0  0  0  0
  161.0650  204.5750  151.0130 N   0  0  0  0  0  0  0  0  0  0  0  0
  161.7580  208.8770  151.1100 C   0  0  0  0  0  0  0  0  0  0  0  0
  161.0600  205.9200  151.1190 C   0  0  0  0  0  0  0  0  0  0  0  0
  161.6080  208.7360  148.7750 C   0  0  0  0  0  3  0  0  0  0  0  0
  160.9920  204.0520  152.2280 N   0  0  0  0  0  0  0  0  0  0  0  0
  162.3940  210.3310  150.5590 S   0  0  0  0  0  0  0  0  0  0  0  0
  161.4010  208.0860  150.0000 C   0  0  0  0  0  0  0  0  0  0  0  0
  161.0170  207.8820  157.2610 C   0  0  0  0  0  3  0  0  0  0  0  0
  160.8140  207.6980  154.4740 C   0  0  0  0  0  0  0  0  0  0  0  0
  161.7670  208.5430  155.0540 C   0  0  0  0  0  3  0  0  0  0  0  0
  161.8690  208.6340  156.4460 C   0  0  0  0  0  3  0  0  0  0  0  0
  160.0630  207.0390  156.6850 C   0  0  0  0  0  3  0  0  0  0  0  0
  159.9590  206.9480  155.2940 C   0  0  0  0  0  3  0  0  0  0  0  0
  162.6120  212.2850  148.1240 C   0  0  0  0  0  1  0  0  0  0  0  0
  162.4840  210.8880  147.9030 O   0  0  0  0  0  0  0  0  0  0  0  0
  1 11  1  0  0  0  0
  2 11  1  0  0  0  0
  2  6  1  0  0  0  0
  3 15  1  0  0  0  0
  5 12  1  0  0  0  0
  7  5  2  0  0  0  0
  7  8  1  0  0  0  0
  8 10  2  0  0  0  0
  9 18  1  0  0  0  0
 10  4  1  0  0  0  0
 10 13  1  0  0  0  0
 11 21  1  1  0  0  0
 12  4  2  0  0  0  0
 13 15  1  0  0  0  0
 13 17  1  0  0  0  0
 14  1  1  0  0  0  0
 15  2  2  0  0  0  0
 16  9  2  0  0  0  0
 16 19  1  0  0  0  0
 17  6  2  0  0  0  0
 18 14  1  0  0  0  0
 19  3  1  0  0  0  0
 19 14  2  0  0  0  0
 21 22  2  0  0  0  0
 21 25  1  0  0  0  0
 22 23  1  0  0  0  0
 23 20  2  0  0  0  0
 24 20  1  0  0  0  0
 25 24  2  0  0  0  0
 27 26  1  0  0  0  0
 27  9  1  0  0  0  0
M  END
>  <MODEL>
3

>  <REMARK>
 VINA RESULT:      -8.6      2.431      5.751
  Name = 
  2 active torsions:
  status: ('A' for Active; 'I' for Inactive)
    1  A    between atoms: C_9  and  C_15
    2  A    between atoms: C_13  and  O_22
                            x       y       z     vdW  Elec       q    Type
                         _______ _______ _______ _____ _____    ______ ____

>  <TORSDO>
F 2

$$$$
=
 OpenBabel11062407403D

 27 31  0  0  1  0  0  0  0  0999 V2000
  161.7550  208.1050  148.3660 N   0  0  0  0  0  2  0  0  0  0  0  0
  161.5070  206.6730  150.3550 C   0  0  0  0  0  0  0  0  0  0  0  0
  161.8190  208.9820  151.2700 N   0  0  0  0  0  2  0  0  0  0  0  0
  160.4560  206.7720  154.8330 N   0  0  0  0  0  0  0  0  0  0  0  0
  160.4520  208.6160  156.3480 C   0  0  0  0  0  3  0  0  0  0  0  0
  161.1400  205.4720  150.9460 C   0  0  0  0  0  3  0  0  0  0  0  0
  160.8680  209.4550  155.3140 C   0  0  0  0  0  3  0  0  0  0  0  0
  161.0740  208.9340  154.0370 C   0  0  0  0  0  3  0  0  0  0  0  0
  161.9070  211.7710  149.1170 C   0  0  0  0  0  0  0  0  0  0  0  0
  160.8630  207.5670  153.8030 C   0  0  0  0  0  0  0  0  0  0  0  0
  162.1540  206.8650  149.0240 C   0  0  1  0  0  3  0  0  0  0  0  0
  160.2500  207.2610  156.0840 C   0  0  0  0  0  3  0  0  0  0  0  0
  161.0630  206.9900  152.4990 N   0  0  0  0  0  0  0  0  0  0  0  0
  161.7300  209.3040  148.8670 C   0  0  0  0  0  0  0  0  0  0  0  0
  161.4740  207.5960  151.3660 C   0  0  0  0  0  0  0  0  0  0  0  0
  162.0490  211.1070  150.3300 C   0  0  0  0  0  3  0  0  0  0  0  0
  160.8550  205.7070  152.2440 N   0  0  0  0  0  0  0  0  0  0  0  0
  161.6310  210.6660  147.8860 S   0  0  0  0  0  0  0  0  0  0  0  0
  161.9280  209.7160  150.2000 C   0  0  0  0  0  0  0  0  0  0  0  0
  161.5800  203.5520  146.3430 C   0  0  0  0  0  3  0  0  0  0  0  0
  161.9410  205.7050  148.0980 C   0  0  0  0  0  0  0  0  0  0  0  0
  162.3010  205.8280  146.7510 C   0  0  0  0  0  3  0  0  0  0  0  0
  162.1200  204.7540  145.8750 C   0  0  0  0  0  3  0  0  0  0  0  0
  161.2210  203.4240  147.6870 C   0  0  0  0  0  3  0  0  0  0  0  0
  161.4020  204.4970  148.5650 C   0  0  0  0  0  3  0  0  0  0  0  0
  162.7070  213.7300  147.8600 C   0  0  0  0  0  1  0  0  0  0  0  0
  161.9700  213.1520  148.9260 O   0  0  0  0  0  0  0  0  0  0  0  0
  1 14  1  0  0  0  0
  1 11  1  0  0  0  0
  2  6  1  0  0  0  0
  2 15  2  0  0  0  0
  3 15  1  0  0  0  0
  4 12  1  0  0  0  0
  6 17  2  0  0  0  0
  7  5  1  0  0  0  0
  8  7  2  0  0  0  0
  9 16  2  0  0  0  0
 10  8  1  0  0  0  0
 10  4  2  0  0  0  0
 11 21  1  6  0  0  0
 11  2  1  0  0  0  0
 12  5  2  0  0  0  0
 13 10  1  0  0  0  0
 14 19  2  0  0  0  0
 15 13  1  0  0  0  0
 17 13  1  0  0  0  0
 18 14  1  0  0  0  0
 18  9  1  0  0  0  0
 19 16  1  0  0  0  0
 19  3  1  0  0  0  0
 20 24  1  0  0  0  0
 21 25  1  0  0  0  0
 22 21  2  0  0  0  0
 23 20  2  0  0  0  0
 23 22  1  0  0  0  0
 24 25  2  0  0  0  0
 26 27  1  0  0  0  0
 27  9  1  0  0  0  0
M  END
>  <MODEL>
4

>  <REMARK>
 VINA RESULT:      -7.4      2.642      6.511
  Name = 
  2 active torsions:
  status: ('A' for Active; 'I' for Inactive)
    1  A    between atoms: C_9  and  C_15
    2  A    between atoms: C_13  and  O_22
                            x       y       z     vdW  Elec       q    Type
                         _______ _______ _______ _____ _____    ______ ____

>  <TORSDO>
F 2

$$$$
=
 OpenBabel11062407403D

 27 31  0  0  1  0  0  0  0  0999 V2000
  161.0810  205.1770  151.8930 N   0  0  0  0  0  2  0  0  0  0  0  0
  161.2150  206.3710  149.7430 C   0  0  0  0  0  0  0  0  0  0  0  0
  160.9380  208.1760  151.4550 N   0  0  0  0  0  2  0  0  0  0  0  0
  162.1070  210.4850  147.8860 N   0  0  0  0  0  0  0  0  0  0  0  0
  162.1100  212.6410  148.9090 C   0  0  0  0  0  3  0  0  0  0  0  0
  161.5260  206.4010  148.3900 C   0  0  0  0  0  3  0  0  0  0  0  0
  161.7560  212.0550  150.1250 C   0  0  0  0  0  3  0  0  0  0  0  0
  161.5810  210.6730  150.2050 C   0  0  0  0  0  3  0  0  0  0  0  0
  161.0090  207.4150  154.8960 C   0  0  0  0  0  0  0  0  0  0  0  0
  161.7610  209.8830  149.0590 C   0  0  0  0  0  0  0  0  0  0  0  0
  160.6220  205.2360  150.5090 C   0  0  1  0  0  3  0  0  0  0  0  0
  162.2820  211.8290  147.7880 C   0  0  0  0  0  3  0  0  0  0  0  0
  161.5910  208.4540  149.1010 N   0  0  0  0  0  0  0  0  0  0  0  0
  161.1220  206.1410  152.7640 C   0  0  0  0  0  0  0  0  0  0  0  0
  161.2380  207.6800  150.1470 C   0  0  0  0  0  0  0  0  0  0  0  0
  160.8040  208.2270  153.7850 C   0  0  0  0  0  3  0  0  0  0  0  0
  161.7700  207.6820  148.0400 N   0  0  0  0  0  0  0  0  0  0  0  0
  161.2960  205.8370  154.4070 S   0  0  0  0  0  0  0  0  0  0  0  0
  160.8890  207.5190  152.5780 C   0  0  0  0  0  0  0  0  0  0  0  0
  161.2050  201.4090  148.6360 C   0  0  0  0  0  3  0  0  0  0  0  0
  160.8350  203.9080  149.8440 C   0  0  0  0  0  0  0  0  0  0  0  0
  160.8310  202.7450  150.6220 C   0  0  0  0  0  3  0  0  0  0  0  0
  161.0170  201.4970  150.0190 C   0  0  0  0  0  3  0  0  0  0  0  0
  161.2070  202.5680  147.8560 C   0  0  0  0  0  3  0  0  0  0  0  0
  161.0210  203.8160  148.4570 C   0  0  0  0  0  3  0  0  0  0  0  0
  160.4550  207.0180  157.2610 C   0  0  0  0  0  1  0  0  0  0  0  0
  160.9930  207.8290  156.2270 O   0  0  0  0  0  0  0  0  0  0  0  0
  1 14  1  0  0  0  0
  2 15  2  0  0  0  0
  2 11  1  0  0  0  0
  3 19  1  0  0  0  0
  4 10  1  0  0  0  0
  5  7  2  0  0  0  0
  6  2  1  0  0  0  0
  7  8  1  0  0  0  0
  9 27  1  0  0  0  0
 10 13  1  0  0  0  0
 10  8  2  0  0  0  0
 11 21  1  6  0  0  0
 11  1  1  0  0  0  0
 12  4  2  0  0  0  0
 12  5  1  0  0  0  0
 13 15  1  0  0  0  0
 14 18  1  0  0  0  0
 15  3  1  0  0  0  0
 16  9  2  0  0  0  0
 17  6  2  0  0  0  0
 17 13  1  0  0  0  0
 18  9  1  0  0  0  0
 19 14  2  0  0  0  0
 19 16  1  0  0  0  0
 20 23  1  0  0  0  0
 21 22  1  0  0  0  0
 23 22  2  0  0  0  0
 24 25  1  0  0  0  0
 24 20  2  0  0  0  0
 25 21  2  0  0  0  0
 27 26  1  0  0  0  0
M  END
>  <MODEL>
5

>  <REMARK>
 VINA RESULT:      -7.0      1.544      6.261
  Name = 
  2 active torsions:
  status: ('A' for Active; 'I' for Inactive)
    1  A    between atoms: C_9  and  C_15
    2  A    between atoms: C_13  and  O_22
                            x       y       z     vdW  Elec       q    Type
                         _______ _______ _______ _____ _____    ______ ____

>  <TORSDO>
F 2

$$$$
=
 OpenBabel11062407403D

 27 31  0  0  1  0  0  0  0  0999 V2000
  161.1760  207.3080  151.8260 N   0  0  0  0  0  2  0  0  0  0  0  0
  161.1880  209.7650  152.0040 C   0  0  0  0  0  0  0  0  0  0  0  0
  161.8920  209.2960  149.6490 N   0  0  0  0  0  2  0  0  0  0  0  0
  161.0510  213.6210  149.4980 N   0  0  0  0  0  0  0  0  0  0  0  0
  161.5210  213.9390  147.1800 C   0  0  0  0  0  3  0  0  0  0  0  0
  160.8310  210.9340  152.6610 C   0  0  0  0  0  3  0  0  0  0  0  0
  161.8030  212.5780  147.0590 C   0  0  0  0  0  3  0  0  0  0  0  0
  161.7040  211.7470  148.1750 C   0  0  0  0  0  3  0  0  0  0  0  0
  161.8220  206.0110  148.3720 C   0  0  0  0  0  0  0  0  0  0  0  0
  161.3210  212.2870  149.4120 C   0  0  0  0  0  0  0  0  0  0  0  0
  161.5770  208.4630  152.6230 C   0  0  1  0  0  3  0  0  0  0  0  0
  161.1420  214.4470  148.4230 C   0  0  0  0  0  3  0  0  0  0  0  0
  161.2060  211.4630  150.5860 N   0  0  0  0  0  0  0  0  0  0  0  0
  161.3650  207.1080  150.5560 C   0  0  0  0  0  0  0  0  0  0  0  0
  161.4430  210.1410  150.7120 C   0  0  0  0  0  0  0  0  0  0  0  0
  162.1350  207.3660  148.3570 C   0  0  0  0  0  3  0  0  0  0  0  0
  160.8310  211.9420  151.7630 N   0  0  0  0  0  0  0  0  0  0  0  0
  161.2060  205.5810  149.8720 S   0  0  0  0  0  0  0  0  0  0  0  0
  161.8590  207.9950  149.5790 C   0  0  0  0  0  0  0  0  0  0  0  0
  160.1500  207.9840  156.6510 C   0  0  0  0  0  3  0  0  0  0  0  0
  161.0770  208.3120  154.0290 C   0  0  0  0  0  0  0  0  0  0  0  0
  160.4560  207.1170  154.4100 C   0  0  0  0  0  3  0  0  0  0  0  0
  159.9920  206.9530  155.7180 C   0  0  0  0  0  3  0  0  0  0  0  0
  160.7710  209.1770  156.2750 C   0  0  0  0  0  3  0  0  0  0  0  0
  161.2350  209.3420  154.9670 C   0  0  0  0  0  3  0  0  0  0  0  0
  162.3310  205.5630  146.0060 C   0  0  0  0  0  1  0  0  0  0  0  0
  161.9770  205.1220  147.3090 O   0  0  0  0  0  0  0  0  0  0  0  0
  1 11  1  0  0  0  0
  2 11  1  0  0  0  0
  2  6  1  0  0  0  0
  3 15  1  0  0  0  0
  5 12  1  0  0  0  0
  7  5  2  0  0  0  0
  7  8  1  0  0  0  0
  8 10  2  0  0  0  0
  9 18  1  0  0  0  0
 10  4  1  0  0  0  0
 10 13  1  0  0  0  0
 11 21  1  1  0  0  0
 12  4  2  0  0  0  0
 13 15  1  0  0  0  0
 13 17  1  0  0  0  0
 14  1  1  0  0  0  0
 15  2  2  0  0  0  0
 16  9  2  0  0  0  0
 16 19  1  0  0  0  0
 17  6  2  0  0  0  0
 18 14  1  0  0  0  0
 19  3  1  0  0  0  0
 19 14  2  0  0  0  0
 21 22  2  0  0  0  0
 21 25  1  0  0  0  0
 22 23  1  0  0  0  0
 23 20  2  0  0  0  0
 24 20  1  0  0  0  0
 25 24  2  0  0  0  0
 26 27  1  0  0  0  0
 27  9  1  0  0  0  0
M  END
>  <MODEL>
6

>  <REMARK>
 VINA RESULT:      -6.6      2.964      7.390
  Name = 
  2 active torsions:
  status: ('A' for Active; 'I' for Inactive)
    1  A    between atoms: C_9  and  C_15
    2  A    between atoms: C_13  and  O_22
                            x       y       z     vdW  Elec       q    Type
                         _______ _______ _______ _____ _____    ______ ____

>  <TORSDO>
F 2

$$$$
=
 OpenBabel11062407403D

 27 31  0  0  1  0  0  0  0  0999 V2000
  161.1820  207.9700  152.7120 N   0  0  0  0  0  2  0  0  0  0  0  0
  161.4710  208.4510  150.3140 C   0  0  0  0  0  0  0  0  0  0  0  0
  161.0610  210.6850  151.3640 N   0  0  0  0  0  2  0  0  0  0  0  0
  162.4830  211.8190  147.3480 N   0  0  0  0  0  0  0  0  0  0  0  0
  162.4020  214.1850  147.6560 C   0  0  0  0  0  3  0  0  0  0  0  0
  161.8810  208.0730  149.0430 C   0  0  0  0  0  3  0  0  0  0  0  0
  161.9620  213.9900  148.9660 C   0  0  0  0  0  3  0  0  0  0  0  0
  161.7860  212.6950  149.4540 C   0  0  0  0  0  3  0  0  0  0  0  0
  160.8790  211.0180  154.8680 C   0  0  0  0  0  0  0  0  0  0  0  0
  162.0530  211.5970  148.6220 C   0  0  0  0  0  0  0  0  0  0  0  0
  160.8260  207.5900  151.3490 C   0  0  1  0  0  3  0  0  0  0  0  0
  162.6610  213.0730  146.8530 C   0  0  0  0  0  3  0  0  0  0  0  0
  161.8860  210.2460  149.0900 N   0  0  0  0  0  0  0  0  0  0  0  0
  161.1550  209.1560  153.2450 C   0  0  0  0  0  0  0  0  0  0  0  0
  161.4590  209.8200  150.2960 C   0  0  0  0  0  0  0  0  0  0  0  0
  160.7540  211.4450  153.5510 C   0  0  0  0  0  3  0  0  0  0  0  0
  162.1460  209.1900  148.3330 N   0  0  0  0  0  0  0  0  0  0  0  0
  161.2070  209.3740  154.9100 S   0  0  0  0  0  0  0  0  0  0  0  0
  160.9310  210.4030  152.6290 C   0  0  0  0  0  0  0  0  0  0  0  0
  161.5830  203.3930  150.8000 C   0  0  0  0  0  3  0  0  0  0  0  0
  161.0920  206.1290  151.1410 C   0  0  0  0  0  0  0  0  0  0  0  0
  161.6590  205.3820  152.1800 C   0  0  0  0  0  3  0  0  0  0  0  0
  161.9050  204.0160  152.0090 C   0  0  0  0  0  3  0  0  0  0  0  0
  161.0140  204.1340  149.7610 C   0  0  0  0  0  3  0  0  0  0  0  0
  160.7680  205.5000  149.9300 C   0  0  0  0  0  3  0  0  0  0  0  0
  159.8630  212.9170  156.0600 C   0  0  0  0  0  1  0  0  0  0  0  0
  160.7630  211.8200  156.0030 O   0  0  0  0  0  0  0  0  0  0  0  0
  1 14  1  0  0  0  0
  2 11  1  0  0  0  0
  3 19  1  0  0  0  0
  4 10  1  0  0  0  0
  5  7  2  0  0  0  0
  6  2  1  0  0  0  0
  7  8  1  0  0  0  0
  9 18  1  0  0  0  0
  9 27  1  0  0  0  0
 10 13  1  0  0  0  0
 10  8  2  0  0  0  0
 11 21  1  6  0  0  0
 11  1  1  0  0  0  0
 12  4  2  0  0  0  0
 12  5  1  0  0  0  0
 13 15  1  0  0  0  0
 14 18  1  0  0  0  0
 15  2  2  0  0  0  0
 15  3  1  0  0  0  0
 16  9  2  0  0  0  0
 17  6  2  0  0  0  0
 17 13  1  0  0  0  0
 19 14  2  0  0  0  0
 19 16  1  0  0  0  0
 20 23  1  0  0  0  0
 21 22  1  0  0  0  0
 23 22  2  0  0  0  0
 24 25  1  0  0  0  0
 24 20  2  0  0  0  0
 25 21  2  0  0  0  0
 27 26  1  0  0  0  0
M  END
>  <MODEL>
7

>  <REMARK>
 VINA RESULT:      -6.6      1.930      6.322
  Name = 
  2 active torsions:
  status: ('A' for Active; 'I' for Inactive)
    1  A    between atoms: C_9  and  C_15
    2  A    between atoms: C_13  and  O_22
                            x       y       z     vdW  Elec       q    Type
                         _______ _______ _______ _____ _____    ______ ____

>  <TORSDO>
F 2

$$$$
