=
 OpenBabel11052422323D

 31 34  0  0  0  0  0  0  0  0999 V2000
  160.8810  204.1400  152.3800 C   0  0  0  0  0  0  0  0  0  0  0  0
  161.3760  205.3630  148.8510 C   0  0  0  0  0  0  0  0  0  0  0  0
  161.2250  204.2300  147.9880 C   0  0  0  0  0  0  0  0  0  0  0  0
  160.7860  201.8160  147.7120 C   0  0  0  0  0  3  0  0  0  0  0  0
  161.2630  205.3200  150.2740 C   0  0  0  0  0  0  0  0  0  0  0  0
  161.0550  205.3260  153.0910 C   0  0  0  0  0  3  0  0  0  0  0  0
  160.9280  202.8750  148.5040 C   0  0  0  0  0  3  0  0  0  0  0  0
  161.8230  207.7660  149.0350 C   0  0  0  0  0  0  0  0  0  0  0  0
  160.6130  202.9880  153.0390 F   0  0  0  0  0  0  0  0  0  0  0  0
  161.6380  205.6530  146.0720 C   0  0  0  0  0  3  0  0  0  0  0  0
  160.9170  201.9400  146.2580 C   0  0  0  0  0  0  0  0  0  0  0  0
  161.7070  207.6820  150.3840 N   0  0  0  0  0  0  0  0  0  0  0  0
  161.6620  206.6180  148.2440 C   0  0  0  0  0  0  0  0  0  0  0  0
  160.9850  204.1400  150.9870 C   0  0  0  0  0  3  0  0  0  0  0  0
  160.7770  200.9180  145.5360 O   0  0  0  0  0  0  0  0  0  0  0  0
  161.4370  206.5160  151.0160 C   0  0  0  0  0  0  0  0  0  0  0  0
  161.3340  206.5110  152.4100 C   0  0  0  0  0  3  0  0  0  0  0  0
  161.7810  206.7170  146.8930 N   0  0  0  0  0  0  0  0  0  0  0  0
  161.3600  204.3960  146.5900 C   0  0  0  0  0  0  0  0  0  0  0  0
  161.2150  203.2600  145.6130 C   0  0  0  0  0  2  0  0  0  0  0  0
  161.9410  210.2230  149.0280 C   0  0  0  0  0  3  0  0  0  0  0  0
  162.1180  209.0630  148.4050 C   0  0  0  0  0  3  0  0  0  0  0  0
  162.2570  211.5040  148.3310 C   0  0  0  0  0  2  0  0  0  0  0  0
  161.4530  212.6750  148.8950 C   0  0  0  0  0  2  0  0  0  0  0  0
  160.2200  213.0080  148.0590 C   0  0  0  0  0  2  0  0  0  0  0  0
  159.9670  211.9780  145.9260 O   0  0  0  0  0  0  0  0  0  0  0  0
  160.5010  212.9000  146.5980 C   0  0  0  0  0  0  0  0  0  0  0  0
  161.3650  213.8610  145.9820 N   0  0  0  0  0  2  0  0  0  0  0  0
  161.7180  213.9030  144.5960 C   0  0  0  0  0  0  0  0  0  0  0  0
  160.8140  214.4050  143.6160 N   0  0  0  0  0  1  0  0  0  0  0  0
  163.1880  213.3700  144.1310 S   0  0  0  0  0  0  0  0  0  0  0  0
  1  9  1  0  0  0  0
  1  6  1  0  0  0  0
  2  5  1  0  0  0  0
  3  7  1  0  0  0  0
  3  2  1  0  0  0  0
  4  7  2  0  0  0  0
  5 14  1  0  0  0  0
  5 16  2  0  0  0  0
  8 12  2  0  0  0  0
 10 19  1  0  0  0  0
 10 18  2  0  0  0  0
 11  4  1  0  0  0  0
 12 16  1  0  0  0  0
 13  2  2  0  0  0  0
 13  8  1  0  0  0  0
 14  1  2  0  0  0  0
 15 11  2  0  0  0  0
 16 17  1  0  0  0  0
 17  6  2  0  0  0  0
 18 13  1  0  0  0  0
 19  3  2  0  0  0  0
 20 11  1  0  0  0  0
 20 19  1  0  0  0  0
 22 21  2  0  0  0  0
 22  8  1  0  0  0  0
 23 24  1  0  0  0  0
 23 21  1  0  0  0  0
 25 24  1  0  0  0  0
 26 27  2  0  0  0  0
 27 25  1  0  0  0  0
 28 27  1  0  0  0  0
 29 28  1  0  0  0  0
 30 29  1  0  0  0  0
 31 29  2  0  0  0  0
M  END
>  <MODEL>
1

>  <REMARK>
 VINA RESULT:     -10.0      0.000      0.000
  Name = 
  6 active torsions:
  status: ('A' for Active; 'I' for Inactive)
    1  A    between atoms: C_1  and  N_24
    2  A    between atoms: C_3  and  C_19
    3  A    between atoms: C_3  and  C_22
    4  A    between atoms: C_7  and  C_9
    5  A    between atoms: C_7  and  C_22
    6  A    between atoms: C_15  and  C_23
                            x       y       z     vdW  Elec       q    Type
                         _______ _______ _______ _____ _____    ______ ____

>  <TORSDO>
F 6

$$$$
=
 OpenBabel11052422323D

 31 34  0  0  0  0  0  0  0  0999 V2000
  160.4730  209.3740  155.2200 C   0  0  0  0  0  0  0  0  0  0  0  0
  161.4110  207.8970  151.8840 C   0  0  0  0  0  0  0  0  0  0  0  0
  161.6120  208.9900  150.9820 C   0  0  0  0  0  0  0  0  0  0  0  0
  161.6340  211.4230  150.5670 C   0  0  0  0  0  3  0  0  0  0  0  0
  161.0410  208.0350  153.2570 C   0  0  0  0  0  0  0  0  0  0  0  0
  160.3120  208.2160  155.9800 C   0  0  0  0  0  3  0  0  0  0  0  0
  161.4510  210.4010  151.3980 C   0  0  0  0  0  3  0  0  0  0  0  0
  161.4100  205.4660  152.2080 C   0  0  0  0  0  0  0  0  0  0  0  0
  160.2790  210.5890  155.7870 F   0  0  0  0  0  0  0  0  0  0  0  0
  162.1370  207.4160  149.2160 C   0  0  0  0  0  3  0  0  0  0  0  0
  162.0130  211.2010  149.1700 C   0  0  0  0  0  0  0  0  0  0  0  0
  161.0590  205.6410  153.5060 N   0  0  0  0  0  0  0  0  0  0  0  0
  161.5930  206.5800  151.3740 C   0  0  0  0  0  0  0  0  0  0  0  0
  160.8330  209.2810  153.8740 C   0  0  0  0  0  3  0  0  0  0  0  0
  162.1790  212.1900  148.4100 O   0  0  0  0  0  0  0  0  0  0  0  0
  160.8720  206.8680  154.0470 C   0  0  0  0  0  0  0  0  0  0  0  0
  160.5110  206.9670  155.3930 C   0  0  0  0  0  3  0  0  0  0  0  0
  161.9450  206.3890  150.0740 N   0  0  0  0  0  0  0  0  0  0  0  0
  161.9770  208.7280  149.6410 C   0  0  0  0  0  0  0  0  0  0  0  0
  162.2080  209.8170  148.6280 C   0  0  0  0  0  2  0  0  0  0  0  0
  160.6330  203.4320  151.0640 C   0  0  0  0  0  3  0  0  0  0  0  0
  161.5990  204.1060  151.6780 C   0  0  0  0  0  3  0  0  0  0  0  0
  160.8890  202.0550  150.5510 C   0  0  0  0  0  2  0  0  0  0  0  0
  160.1120  201.7690  149.2660 C   0  0  0  0  0  2  0  0  0  0  0  0
  161.0020  201.2680  148.1310 C   0  0  0  0  0  2  0  0  0  0  0  0
  160.8370  202.0800  145.8980 O   0  0  0  0  0  0  0  0  0  0  0  0
  161.1960  202.3110  147.0830 C   0  0  0  0  0  0  0  0  0  0  0  0
  161.7750  203.5680  147.4510 N   0  0  0  0  0  2  0  0  0  0  0  0
  162.0100  204.6710  146.5700 C   0  0  0  0  0  0  0  0  0  0  0  0
  163.2850  204.8800  145.9700 N   0  0  0  0  0  1  0  0  0  0  0  0
  160.7920  205.7070  146.2460 S   0  0  0  0  0  0  0  0  0  0  0  0
  1  9  1  0  0  0  0
  1  6  1  0  0  0  0
  2  5  1  0  0  0  0
  3  7  1  0  0  0  0
  3  2  1  0  0  0  0
  4  7  2  0  0  0  0
  5 14  1  0  0  0  0
  5 16  2  0  0  0  0
  8 12  2  0  0  0  0
 10 19  1  0  0  0  0
 10 18  2  0  0  0  0
 11  4  1  0  0  0  0
 12 16  1  0  0  0  0
 13  2  2  0  0  0  0
 13  8  1  0  0  0  0
 14  1  2  0  0  0  0
 15 11  2  0  0  0  0
 16 17  1  0  0  0  0
 17  6  2  0  0  0  0
 18 13  1  0  0  0  0
 19  3  2  0  0  0  0
 20 11  1  0  0  0  0
 20 19  1  0  0  0  0
 21 22  2  0  0  0  0
 22  8  1  0  0  0  0
 23 21  1  0  0  0  0
 24 23  1  0  0  0  0
 25 24  1  0  0  0  0
 26 27  2  0  0  0  0
 27 28  1  0  0  0  0
 27 25  1  0  0  0  0
 29 28  1  0  0  0  0
 30 29  1  0  0  0  0
 31 29  2  0  0  0  0
M  END
>  <MODEL>
2

>  <REMARK>
 VINA RESULT:      -9.8      3.628      7.627
  Name = 
  6 active torsions:
  status: ('A' for Active; 'I' for Inactive)
    1  A    between atoms: C_1  and  N_24
    2  A    between atoms: C_3  and  C_19
    3  A    between atoms: C_3  and  C_22
    4  A    between atoms: C_7  and  C_9
    5  A    between atoms: C_7  and  C_22
    6  A    between atoms: C_15  and  C_23
                            x       y       z     vdW  Elec       q    Type
                         _______ _______ _______ _____ _____    ______ ____

>  <TORSDO>
F 6

$$$$
=
 OpenBabel11052422323D

 31 34  0  0  0  0  0  0  0  0999 V2000
  161.9580  210.7700  149.7210 C   0  0  0  0  0  0  0  0  0  0  0  0
  161.2650  208.2840  152.4670 C   0  0  0  0  0  0  0  0  0  0  0  0
  161.0600  209.0330  153.6700 C   0  0  0  0  0  0  0  0  0  0  0  0
  160.9450  211.2150  154.8180 C   0  0  0  0  0  3  0  0  0  0  0  0
  161.5560  208.8600  151.1920 C   0  0  0  0  0  0  0  0  0  0  0  0
  162.1330  209.9130  148.6350 C   0  0  0  0  0  3  0  0  0  0  0  0
  161.1330  210.5100  153.7060 C   0  0  0  0  0  3  0  0  0  0  0  0
  161.3640  206.0750  151.4070 C   0  0  0  0  0  0  0  0  0  0  0  0
  162.0640  212.1090  149.5520 F   0  0  0  0  0  0  0  0  0  0  0  0
  160.7030  206.9630  154.8780 C   0  0  0  0  0  3  0  0  0  0  0  0
  160.6500  210.5520  156.0900 C   0  0  0  0  0  0  0  0  0  0  0  0
  161.6390  206.6620  150.2150 N   0  0  0  0  0  0  0  0  0  0  0  0
  161.1730  206.8660  152.5500 C   0  0  0  0  0  0  0  0  0  0  0  0
  161.6730  210.2450  150.9840 C   0  0  0  0  0  3  0  0  0  0  0  0
  160.4780  211.2480  157.1240 O   0  0  0  0  0  0  0  0  0  0  0  0
  161.7390  208.0050  150.0750 C   0  0  0  0  0  0  0  0  0  0  0  0
  162.0250  208.5340  148.8130 C   0  0  0  0  0  3  0  0  0  0  0  0
  160.8980  206.2640  153.7380 N   0  0  0  0  0  0  0  0  0  0  0  0
  160.7780  208.3500  154.8760 C   0  0  0  0  0  0  0  0  0  0  0  0
  160.5490  209.0590  156.1830 C   0  0  0  0  0  2  0  0  0  0  0  0
  160.7890  203.8580  150.5110 C   0  0  0  0  0  3  0  0  0  0  0  0
  161.2680  204.6090  151.4960 C   0  0  0  0  0  3  0  0  0  0  0  0
  160.7160  202.3760  150.6650 C   0  0  0  0  0  2  0  0  0  0  0  0
  160.1040  201.7020  149.4380 C   0  0  0  0  0  2  0  0  0  0  0  0
  161.1480  201.2880  148.4030 C   0  0  0  0  0  2  0  0  0  0  0  0
  160.7930  201.9810  146.1520 O   0  0  0  0  0  0  0  0  0  0  0  0
  161.2420  202.2780  147.2910 C   0  0  0  0  0  0  0  0  0  0  0  0
  161.8290  203.5580  147.5460 N   0  0  0  0  0  2  0  0  0  0  0  0
  161.9770  204.6160  146.5940 C   0  0  0  0  0  0  0  0  0  0  0  0
  163.0720  204.6460  145.6840 N   0  0  0  0  0  1  0  0  0  0  0  0
  160.8650  205.8090  146.5490 S   0  0  0  0  0  0  0  0  0  0  0  0
  1 14  1  0  0  0  0
  2 13  2  0  0  0  0
  2  3  1  0  0  0  0
  3  7  1  0  0  0  0
  3 19  2  0  0  0  0
  4 11  1  0  0  0  0
  5  2  1  0  0  0  0
  6 17  1  0  0  0  0
  6  1  2  0  0  0  0
  7  4  2  0  0  0  0
  8 22  1  0  0  0  0
  8 13  1  0  0  0  0
  9  1  1  0  0  0  0
 11 20  1  0  0  0  0
 11 15  2  0  0  0  0
 12  8  2  0  0  0  0
 13 18  1  0  0  0  0
 14  5  2  0  0  0  0
 16 12  1  0  0  0  0
 16  5  1  0  0  0  0
 17 16  2  0  0  0  0
 18 10  2  0  0  0  0
 19 10  1  0  0  0  0
 19 20  1  0  0  0  0
 21 23  1  0  0  0  0
 21 22  2  0  0  0  0
 24 23  1  0  0  0  0
 25 24  1  0  0  0  0
 26 27  2  0  0  0  0
 27 28  1  0  0  0  0
 27 25  1  0  0  0  0
 29 28  1  0  0  0  0
 30 29  1  0  0  0  0
 31 29  2  0  0  0  0
M  END
>  <MODEL>
3

>  <REMARK>
 VINA RESULT:      -9.7      4.196      8.756
  Name = 
  6 active torsions:
  status: ('A' for Active; 'I' for Inactive)
    1  A    between atoms: C_1  and  N_24
    2  A    between atoms: C_3  and  C_19
    3  A    between atoms: C_3  and  C_22
    4  A    between atoms: C_7  and  C_9
    5  A    between atoms: C_7  and  C_22
    6  A    between atoms: C_15  and  C_23
                            x       y       z     vdW  Elec       q    Type
                         _______ _______ _______ _____ _____    ______ ____

>  <TORSDO>
F 6

$$$$
=
 OpenBabel11052422323D

 31 34  0  0  0  0  0  0  0  0999 V2000
  160.8280  207.3980  154.1860 C   0  0  0  0  0  0  0  0  0  0  0  0
  161.4410  207.2320  150.4720 C   0  0  0  0  0  0  0  0  0  0  0  0
  161.2690  205.8660  150.0790 C   0  0  0  0  0  0  0  0  0  0  0  0
  160.7550  203.5300  150.6890 C   0  0  0  0  0  3  0  0  0  0  0  0
  161.2960  207.7160  151.8080 C   0  0  0  0  0  0  0  0  0  0  0  0
  161.0270  208.7580  154.4200 C   0  0  0  0  0  3  0  0  0  0  0  0
  160.9160  204.8020  151.0440 C   0  0  0  0  0  3  0  0  0  0  0  0
  161.9660  209.5250  149.7800 C   0  0  0  0  0  0  0  0  0  0  0  0
  160.5060  206.5740  155.2110 F   0  0  0  0  0  0  0  0  0  0  0  0
  161.7730  206.4790  147.7890 C   0  0  0  0  0  3  0  0  0  0  0  0
  160.9210  203.1090  149.2960 C   0  0  0  0  0  0  0  0  0  0  0  0
  161.8180  209.9430  151.0620 N   0  0  0  0  0  0  0  0  0  0  0  0
  161.7820  208.1710  149.4590 C   0  0  0  0  0  0  0  0  0  0  0  0
  160.9620  206.8870  152.8930 C   0  0  0  0  0  3  0  0  0  0  0  0
  160.7610  201.8990  148.9930 O   0  0  0  0  0  0  0  0  0  0  0  0
  161.4950  209.0970  152.0670 C   0  0  0  0  0  0  0  0  0  0  0  0
  161.3610  209.6040  153.3620 C   0  0  0  0  0  3  0  0  0  0  0  0
  161.9340  207.7660  148.1690 N   0  0  0  0  0  0  0  0  0  0  0  0
  161.4400  205.5060  148.7220 C   0  0  0  0  0  0  0  0  0  0  0  0
  161.2780  204.0950  148.2230 C   0  0  0  0  0  2  0  0  0  0  0  0
  161.9780  211.7760  148.7900 C   0  0  0  0  0  3  0  0  0  0  0  0
  162.3180  210.4940  148.7290 C   0  0  0  0  0  3  0  0  0  0  0  0
  162.3640  212.7070  147.6890 C   0  0  0  0  0  2  0  0  0  0  0  0
  161.1920  213.5760  147.2370 C   0  0  0  0  0  2  0  0  0  0  0  0
  160.1520  212.8000  146.4320 C   0  0  0  0  0  2  0  0  0  0  0  0
  159.3070  213.3850  144.2830 O   0  0  0  0  0  0  0  0  0  0  0  0
  160.3050  213.0340  144.9660 C   0  0  0  0  0  0  0  0  0  0  0  0
  161.5930  212.8690  144.3660 N   0  0  0  0  0  2  0  0  0  0  0  0
  161.9060  213.0720  142.9840 C   0  0  0  0  0  0  0  0  0  0  0  0
  162.6460  214.2090  142.5510 N   0  0  0  0  0  1  0  0  0  0  0  0
  161.4080  211.9740  141.8850 S   0  0  0  0  0  0  0  0  0  0  0  0
  1  6  1  0  0  0  0
  1  9  1  0  0  0  0
  2  5  1  0  0  0  0
  3  2  1  0  0  0  0
  3  7  1  0  0  0  0
  4  7  2  0  0  0  0
  5 16  2  0  0  0  0
  5 14  1  0  0  0  0
  8 12  2  0  0  0  0
 10 18  2  0  0  0  0
 10 19  1  0  0  0  0
 11  4  1  0  0  0  0
 12 16  1  0  0  0  0
 13  8  1  0  0  0  0
 13  2  2  0  0  0  0
 14  1  2  0  0  0  0
 15 11  2  0  0  0  0
 16 17  1  0  0  0  0
 17  6  2  0  0  0  0
 18 13  1  0  0  0  0
 19  3  2  0  0  0  0
 20 19  1  0  0  0  0
 20 11  1  0  0  0  0
 22 21  2  0  0  0  0
 22  8  1  0  0  0  0
 23 21  1  0  0  0  0
 24 23  1  0  0  0  0
 25 24  1  0  0  0  0
 26 27  2  0  0  0  0
 27 25  1  0  0  0  0
 28 27  1  0  0  0  0
 29 28  1  0  0  0  0
 30 29  1  0  0  0  0
 31 29  2  0  0  0  0
M  END
>  <MODEL>
4

>  <REMARK>
 VINA RESULT:      -9.4      1.882      2.642
  Name = 
  6 active torsions:
  status: ('A' for Active; 'I' for Inactive)
    1  A    between atoms: C_1  and  N_24
    2  A    between atoms: C_3  and  C_19
    3  A    between atoms: C_3  and  C_22
    4  A    between atoms: C_7  and  C_9
    5  A    between atoms: C_7  and  C_22
    6  A    between atoms: C_15  and  C_23
                            x       y       z     vdW  Elec       q    Type
                         _______ _______ _______ _____ _____    ______ ____

>  <TORSDO>
F 6

$$$$
=
 OpenBabel11052422323D

 31 34  0  0  0  0  0  0  0  0999 V2000
  160.9210  206.5130  153.8540 C   0  0  0  0  0  0  0  0  0  0  0  0
  161.4690  206.6240  150.1280 C   0  0  0  0  0  0  0  0  0  0  0  0
  161.3050  205.2890  149.6390 C   0  0  0  0  0  0  0  0  0  0  0  0
  160.8260  202.9090  150.0860 C   0  0  0  0  0  3  0  0  0  0  0  0
  161.3420  207.0080  151.4980 C   0  0  0  0  0  0  0  0  0  0  0  0
  161.1100  207.8550  154.1830 C   0  0  0  0  0  3  0  0  0  0  0  0
  160.9800  204.1530  150.5300 C   0  0  0  0  0  3  0  0  0  0  0  0
  161.9570  208.9680  149.5960 C   0  0  0  0  0  0  0  0  0  0  0  0
  160.6260  205.6130  154.8220 F   0  0  0  0  0  0  0  0  0  0  0  0
  161.7610  206.0720  147.3920 C   0  0  0  0  0  3  0  0  0  0  0  0
  160.9720  202.5920  148.6640 C   0  0  0  0  0  0  0  0  0  0  0  0
  161.8270  209.2900  150.9070 N   0  0  0  0  0  0  0  0  0  0  0  0
  161.7820  207.6380  149.1800 C   0  0  0  0  0  0  0  0  0  0  0  0
  161.0370  206.0980  152.5260 C   0  0  0  0  0  3  0  0  0  0  0  0
  160.8200  201.4050  148.2760 O   0  0  0  0  0  0  0  0  0  0  0  0
  161.5310  208.3690  151.8540 C   0  0  0  0  0  0  0  0  0  0  0  0
  161.4150  208.7790  153.1850 C   0  0  0  0  0  3  0  0  0  0  0  0
  161.9150  207.3300  147.8620 N   0  0  0  0  0  0  0  0  0  0  0  0
  161.4550  205.0300  148.2570 C   0  0  0  0  0  0  0  0  0  0  0  0
  161.2990  203.6570  147.6600 C   0  0  0  0  0  2  0  0  0  0  0  0
  162.3310  211.3040  148.9260 C   0  0  0  0  0  3  0  0  0  0  0  0
  162.2800  210.0140  148.6130 C   0  0  0  0  0  3  0  0  0  0  0  0
  162.6630  212.3160  147.8810 C   0  0  0  0  0  2  0  0  0  0  0  0
  162.1660  213.7110  148.2580 C   0  0  0  0  0  2  0  0  0  0  0  0
  160.7500  213.9930  147.7620 C   0  0  0  0  0  2  0  0  0  0  0  0
  158.5160  213.8490  148.5770 O   0  0  0  0  0  0  0  0  0  0  0  0
  159.7450  213.8450  148.8540 C   0  0  0  0  0  0  0  0  0  0  0  0
  160.2010  213.6830  150.2010 N   0  0  0  0  0  2  0  0  0  0  0  0
  159.3680  213.5130  151.3530 C   0  0  0  0  0  0  0  0  0  0  0  0
  158.3460  214.4530  151.6730 N   0  0  0  0  0  1  0  0  0  0  0  0
  159.5920  212.2150  152.3150 S   0  0  0  0  0  0  0  0  0  0  0  0
  1  6  1  0  0  0  0
  1  9  1  0  0  0  0
  2  5  1  0  0  0  0
  3  2  1  0  0  0  0
  3  7  1  0  0  0  0
  4  7  2  0  0  0  0
  5 16  2  0  0  0  0
  5 14  1  0  0  0  0
  8 12  2  0  0  0  0
 10 18  2  0  0  0  0
 10 19  1  0  0  0  0
 11  4  1  0  0  0  0
 12 16  1  0  0  0  0
 13  8  1  0  0  0  0
 13  2  2  0  0  0  0
 14  1  2  0  0  0  0
 15 11  2  0  0  0  0
 16 17  1  0  0  0  0
 17  6  2  0  0  0  0
 18 13  1  0  0  0  0
 19  3  2  0  0  0  0
 20 19  1  0  0  0  0
 20 11  1  0  0  0  0
 22 21  2  0  0  0  0
 22  8  1  0  0  0  0
 23 24  1  0  0  0  0
 23 21  1  0  0  0  0
 25 24  1  0  0  0  0
 25 27  1  0  0  0  0
 26 27  2  0  0  0  0
 27 28  1  0  0  0  0
 28 29  1  0  0  0  0
 29 30  1  0  0  0  0
 29 31  2  0  0  0  0
M  END
>  <MODEL>
5

>  <REMARK>
 VINA RESULT:      -9.3      2.666      3.339
  Name = 
  6 active torsions:
  status: ('A' for Active; 'I' for Inactive)
    1  A    between atoms: C_1  and  N_24
    2  A    between atoms: C_3  and  C_19
    3  A    between atoms: C_3  and  C_22
    4  A    between atoms: C_7  and  C_9
    5  A    between atoms: C_7  and  C_22
    6  A    between atoms: C_15  and  C_23
                            x       y       z     vdW  Elec       q    Type
                         _______ _______ _______ _____ _____    ______ ____

>  <TORSDO>
F 6

$$$$
=
 OpenBabel11052422323D

 31 34  0  0  0  0  0  0  0  0999 V2000
  161.8840  207.8140  148.1570 C   0  0  0  0  0  0  0  0  0  0  0  0
  161.2710  205.1120  150.7100 C   0  0  0  0  0  0  0  0  0  0  0  0
  161.1720  203.8750  149.9960 C   0  0  0  0  0  0  0  0  0  0  0  0
  161.2120  202.6520  147.8520 C   0  0  0  0  0  3  0  0  0  0  0  0
  161.5020  206.3830  150.1010 C   0  0  0  0  0  0  0  0  0  0  0  0
  161.9560  208.9370  148.9820 C   0  0  0  0  0  3  0  0  0  0  0  0
  161.3030  203.7960  148.5240 C   0  0  0  0  0  3  0  0  0  0  0  0
  161.2130  206.2470  152.8820 C   0  0  0  0  0  0  0  0  0  0  0  0
  162.0320  207.9470  146.8180 F   0  0  0  0  0  0  0  0  0  0  0  0
  160.8120  202.7120  152.0920 C   0  0  0  0  0  3  0  0  0  0  0  0
  160.9730  201.3850  148.5480 C   0  0  0  0  0  0  0  0  0  0  0  0
  161.4340  207.4350  152.2650 N   0  0  0  0  0  0  0  0  0  0  0  0
  161.1280  205.0690  152.1250 C   0  0  0  0  0  0  0  0  0  0  0  0
  161.6590  206.5540  148.7140 C   0  0  0  0  0  3  0  0  0  0  0  0
  160.8920  200.3200  147.8820 O   0  0  0  0  0  0  0  0  0  0  0  0
  161.5780  207.5370  150.9230 C   0  0  0  0  0  0  0  0  0  0  0  0
  161.8020  208.7970  150.3610 C   0  0  0  0  0  3  0  0  0  0  0  0
  160.9060  203.8850  152.7570 N   0  0  0  0  0  0  0  0  0  0  0  0
  160.9400  202.6750  150.7100 C   0  0  0  0  0  0  0  0  0  0  0  0
  160.8240  201.3330  150.0390 C   0  0  0  0  0  2  0  0  0  0  0  0
  160.4090  207.1270  155.0330 C   0  0  0  0  0  3  0  0  0  0  0  0
  161.0650  206.1990  154.3450 C   0  0  0  0  0  3  0  0  0  0  0  0
  160.2970  207.0210  156.5170 C   0  0  0  0  0  2  0  0  0  0  0  0
  160.5260  208.3660  157.2060 C   0  0  0  0  0  2  0  0  0  0  0  0
  161.8690  208.9980  156.8460 C   0  0  0  0  0  2  0  0  0  0  0  0
  162.7050  210.7040  155.4090 O   0  0  0  0  0  0  0  0  0  0  0  0
  161.6980  210.1860  155.9620 C   0  0  0  0  0  0  0  0  0  0  0  0
  160.3830  210.7090  155.7450 N   0  0  0  0  0  2  0  0  0  0  0  0
  160.0520  211.8270  154.9160 C   0  0  0  0  0  0  0  0  0  0  0  0
  159.6980  213.0870  155.4780 N   0  0  0  0  0  1  0  0  0  0  0  0
  160.0850  211.6550  153.2940 S   0  0  0  0  0  0  0  0  0  0  0  0
  1 14  2  0  0  0  0
  1  6  1  0  0  0  0
  2 13  1  0  0  0  0
  3  2  2  0  0  0  0
  3 19  1  0  0  0  0
  4  7  2  0  0  0  0
  4 11  1  0  0  0  0
  5  2  1  0  0  0  0
  5 16  2  0  0  0  0
  6 17  2  0  0  0  0
  7  3  1  0  0  0  0
  8 22  1  0  0  0  0
  9  1  1  0  0  0  0
 10 18  1  0  0  0  0
 11 20  1  0  0  0  0
 12  8  2  0  0  0  0
 13 18  2  0  0  0  0
 13  8  1  0  0  0  0
 14  5  1  0  0  0  0
 15 11  2  0  0  0  0
 16 12  1  0  0  0  0
 17 16  1  0  0  0  0
 19 10  2  0  0  0  0
 20 19  1  0  0  0  0
 21 23  1  0  0  0  0
 22 21  2  0  0  0  0
 23 24  1  0  0  0  0
 25 24  1  0  0  0  0
 26 27  2  0  0  0  0
 27 25  1  0  0  0  0
 28 27  1  0  0  0  0
 29 30  1  0  0  0  0
 29 28  1  0  0  0  0
 31 29  2  0  0  0  0
M  END
>  <MODEL>
6

>  <REMARK>
 VINA RESULT:      -9.1      4.561      6.642
  Name = 
  6 active torsions:
  status: ('A' for Active; 'I' for Inactive)
    1  A    between atoms: C_1  and  N_24
    2  A    between atoms: C_3  and  C_19
    3  A    between atoms: C_3  and  C_22
    4  A    between atoms: C_7  and  C_9
    5  A    between atoms: C_7  and  C_22
    6  A    between atoms: C_15  and  C_23
                            x       y       z     vdW  Elec       q    Type
                         _______ _______ _______ _____ _____    ______ ____

>  <TORSDO>
F 6

$$$$
=
 OpenBabel11052422323D

 31 34  0  0  0  0  0  0  0  0999 V2000
  161.2060  200.9670  149.1420 C   0  0  0  0  0  0  0  0  0  0  0  0
  161.2050  204.6980  148.6210 C   0  0  0  0  0  0  0  0  0  0  0  0
  161.2050  204.9250  147.2080 C   0  0  0  0  0  0  0  0  0  0  0  0
  161.2070  204.0170  144.9120 C   0  0  0  0  0  3  0  0  0  0  0  0
  161.2050  203.4090  149.2360 C   0  0  0  0  0  0  0  0  0  0  0  0
  161.2060  200.9010  150.5350 C   0  0  0  0  0  3  0  0  0  0  0  0
  161.2060  203.8170  146.2270 C   0  0  0  0  0  3  0  0  0  0  0  0
  161.2060  205.6850  150.8660 C   0  0  0  0  0  0  0  0  0  0  0  0
  161.2060  199.8280  148.4090 F   0  0  0  0  0  0  0  0  0  0  0  0
  161.2040  207.3150  147.6070 C   0  0  0  0  0  3  0  0  0  0  0  0
  161.2070  205.3720  144.3560 C   0  0  0  0  0  0  0  0  0  0  0  0
  161.2060  204.4420  151.4100 N   0  0  0  0  0  0  0  0  0  0  0  0
  161.2050  205.8400  149.4710 C   0  0  0  0  0  0  0  0  0  0  0  0
  161.2060  202.2090  148.5040 C   0  0  0  0  0  3  0  0  0  0  0  0
  161.2080  205.5270  143.1070 O   0  0  0  0  0  0  0  0  0  0  0  0
  161.2060  203.3200  150.6520 C   0  0  0  0  0  0  0  0  0  0  0  0
  161.2070  202.0750  151.2870 C   0  0  0  0  0  3  0  0  0  0  0  0
  161.2050  207.0920  148.9400 N   0  0  0  0  0  0  0  0  0  0  0  0
  161.2050  206.2510  146.7150 C   0  0  0  0  0  0  0  0  0  0  0  0
  161.2040  206.5780  145.2460 C   0  0  0  0  0  2  0  0  0  0  0  0
  161.1620  206.7810  153.0670 C   0  0  0  0  0  3  0  0  0  0  0  0
  161.2060  206.8670  151.7420 C   0  0  0  0  0  3  0  0  0  0  0  0
  161.1630  208.0200  153.8990 C   0  0  0  0  0  2  0  0  0  0  0  0
  160.8860  209.2700  153.0650 C   0  0  0  0  0  2  0  0  0  0  0  0
  161.3740  210.5520  153.7350 C   0  0  0  0  0  2  0  0  0  0  0  0
  160.4560  212.0620  155.3330 O   0  0  0  0  0  0  0  0  0  0  0  0
  160.2460  211.3230  154.3350 C   0  0  0  0  0  0  0  0  0  0  0  0
  158.9440  211.2180  153.7500 N   0  0  0  0  0  2  0  0  0  0  0  0
  157.7680  211.9020  154.1950 C   0  0  0  0  0  0  0  0  0  0  0  0
  156.9400  211.3610  155.2200 N   0  0  0  0  0  1  0  0  0  0  0  0
  157.3730  213.3320  153.5170 S   0  0  0  0  0  0  0  0  0  0  0  0
  1  6  1  0  0  0  0
  2  5  2  0  0  0  0
  2 13  1  0  0  0  0
  3  2  1  0  0  0  0
  4  7  2  0  0  0  0
  5 16  1  0  0  0  0
  6 17  2  0  0  0  0
  7  3  1  0  0  0  0
  8 12  1  0  0  0  0
  8 22  1  0  0  0  0
  9  1  1  0  0  0  0
 10 18  2  0  0  0  0
 11  4  1  0  0  0  0
 11 20  1  0  0  0  0
 13  8  2  0  0  0  0
 14  1  2  0  0  0  0
 14  5  1  0  0  0  0
 15 11  2  0  0  0  0
 16 17  1  0  0  0  0
 16 12  2  0  0  0  0
 18 13  1  0  0  0  0
 19  3  2  0  0  0  0
 19 10  1  0  0  0  0
 20 19  1  0  0  0  0
 21 23  1  0  0  0  0
 22 21  2  0  0  0  0
 24 25  1  0  0  0  0
 24 23  1  0  0  0  0
 25 27  1  0  0  0  0
 27 26  2  0  0  0  0
 28 29  1  0  0  0  0
 28 27  1  0  0  0  0
 29 30  1  0  0  0  0
 31 29  2  0  0  0  0
M  END
>  <MODEL>
7

>  <REMARK>
 VINA RESULT:      -8.9      4.319      5.709
  Name = 
  6 active torsions:
  status: ('A' for Active; 'I' for Inactive)
    1  A    between atoms: C_1  and  N_24
    2  A    between atoms: C_3  and  C_19
    3  A    between atoms: C_3  and  C_22
    4  A    between atoms: C_7  and  C_9
    5  A    between atoms: C_7  and  C_22
    6  A    between atoms: C_15  and  C_23
                            x       y       z     vdW  Elec       q    Type
                         _______ _______ _______ _____ _____    ______ ____

>  <TORSDO>
F 6

$$$$
=
 OpenBabel11052422323D

 31 34  0  0  0  0  0  0  0  0999 V2000
  160.9480  204.5350  149.7610 C   0  0  0  0  0  0  0  0  0  0  0  0
  161.4360  207.9990  151.1590 C   0  0  0  0  0  0  0  0  0  0  0  0
  161.2070  207.9190  152.5700 C   0  0  0  0  0  0  0  0  0  0  0  0
  160.6340  206.5670  154.5540 C   0  0  0  0  0  3  0  0  0  0  0  0
  161.3480  206.8940  150.2590 C   0  0  0  0  0  0  0  0  0  0  0  0
  161.1970  204.7650  148.4090 C   0  0  0  0  0  3  0  0  0  0  0  0
  160.8500  206.6510  153.2450 C   0  0  0  0  0  3  0  0  0  0  0  0
  162.0080  209.4170  149.2430 C   0  0  0  0  0  0  0  0  0  0  0  0
  160.6320  203.2900  150.1910 F   0  0  0  0  0  0  0  0  0  0  0  0
  161.6570  210.2920  152.7630 C   0  0  0  0  0  3  0  0  0  0  0  0
  160.7430  207.7470  155.4150 C   0  0  0  0  0  0  0  0  0  0  0  0
  161.9150  208.3410  148.4220 N   0  0  0  0  0  0  0  0  0  0  0  0
  161.7730  209.2720  150.6190 C   0  0  0  0  0  0  0  0  0  0  0  0
  161.0230  205.5900  150.6730 C   0  0  0  0  0  3  0  0  0  0  0  0
  160.5330  207.6330  156.6500 O   0  0  0  0  0  0  0  0  0  0  0  0
  161.5980  207.1070  148.8790 C   0  0  0  0  0  0  0  0  0  0  0  0
  161.5210  206.0480  147.9700 C   0  0  0  0  0  3  0  0  0  0  0  0
  161.8710  210.3590  151.4300 N   0  0  0  0  0  0  0  0  0  0  0  0
  161.3230  209.0850  153.3620 C   0  0  0  0  0  0  0  0  0  0  0  0
  161.1010  209.0890  154.8510 C   0  0  0  0  0  2  0  0  0  0  0  0
  161.4820  211.5000  148.0460 C   0  0  0  0  0  3  0  0  0  0  0  0
  162.3570  210.7340  148.6860 C   0  0  0  0  0  3  0  0  0  0  0  0
  161.9000  212.8250  147.5030 C   0  0  0  0  0  2  0  0  0  0  0  0
  161.4580  213.0150  146.0530 C   0  0  0  0  0  2  0  0  0  0  0  0
  162.6250  213.2900  145.1060 C   0  0  0  0  0  2  0  0  0  0  0  0
  162.9660  213.5400  142.7620 O   0  0  0  0  0  0  0  0  0  0  0  0
  162.2380  213.0790  143.6810 C   0  0  0  0  0  0  0  0  0  0  0  0
  161.0490  212.3400  143.3850 N   0  0  0  0  0  2  0  0  0  0  0  0
  160.5530  212.0390  142.0770 C   0  0  0  0  0  0  0  0  0  0  0  0
  161.1240  210.9980  141.2900 N   0  0  0  0  0  1  0  0  0  0  0  0
  159.3060  212.9050  141.4780 S   0  0  0  0  0  0  0  0  0  0  0  0
  1  9  1  0  0  0  0
  1 14  1  0  0  0  0
  2  3  1  0  0  0  0
  3  7  1  0  0  0  0
  3 19  2  0  0  0  0
  4 11  1  0  0  0  0
  5 14  2  0  0  0  0
  5  2  1  0  0  0  0
  6  1  2  0  0  0  0
  7  4  2  0  0  0  0
  8 13  1  0  0  0  0
 10 19  1  0  0  0  0
 11 15  2  0  0  0  0
 12 16  1  0  0  0  0
 12  8  2  0  0  0  0
 13  2  2  0  0  0  0
 13 18  1  0  0  0  0
 16  5  1  0  0  0  0
 17  6  1  0  0  0  0
 17 16  2  0  0  0  0
 18 10  2  0  0  0  0
 19 20  1  0  0  0  0
 20 11  1  0  0  0  0
 21 22  2  0  0  0  0
 22  8  1  0  0  0  0
 23 21  1  0  0  0  0
 24 23  1  0  0  0  0
 25 24  1  0  0  0  0
 26 27  2  0  0  0  0
 27 25  1  0  0  0  0
 28 27  1  0  0  0  0
 29 28  1  0  0  0  0
 30 29  1  0  0  0  0
 31 29  2  0  0  0  0
M  END
>  <MODEL>
8

>  <REMARK>
 VINA RESULT:      -8.8      3.157      5.499
  Name = 
  6 active torsions:
  status: ('A' for Active; 'I' for Inactive)
    1  A    between atoms: C_1  and  N_24
    2  A    between atoms: C_3  and  C_19
    3  A    between atoms: C_3  and  C_22
    4  A    between atoms: C_7  and  C_9
    5  A    between atoms: C_7  and  C_22
    6  A    between atoms: C_15  and  C_23
                            x       y       z     vdW  Elec       q    Type
                         _______ _______ _______ _____ _____    ______ ____

>  <TORSDO>
F 6

$$$$
=
 OpenBabel11052422323D

 31 34  0  0  0  0  0  0  0  0999 V2000
  161.0590  206.2450  153.4740 C   0  0  0  0  0  0  0  0  0  0  0  0
  161.5380  206.5640  149.7510 C   0  0  0  0  0  0  0  0  0  0  0  0
  161.4310  205.2470  149.1990 C   0  0  0  0  0  0  0  0  0  0  0  0
  161.0750  202.8270  149.5350 C   0  0  0  0  0  3  0  0  0  0  0  0
  161.4160  206.8740  151.1390 C   0  0  0  0  0  0  0  0  0  0  0  0
  161.1880  207.5770  153.8660 C   0  0  0  0  0  3  0  0  0  0  0  0
  161.1760  204.0550  150.0370 C   0  0  0  0  0  3  0  0  0  0  0  0
  161.9040  208.9510  149.3270 C   0  0  0  0  0  0  0  0  0  0  0  0
  160.8240  205.2860  154.4000 F   0  0  0  0  0  0  0  0  0  0  0  0
  161.8100  206.1600  146.9870 C   0  0  0  0  0  3  0  0  0  0  0  0
  161.2120  202.5880  148.0960 C   0  0  0  0  0  0  0  0  0  0  0  0
  161.7810  209.2030  150.6550 N   0  0  0  0  0  0  0  0  0  0  0  0
  161.7860  207.6370  148.8490 C   0  0  0  0  0  0  0  0  0  0  0  0
  161.1730  205.9010  152.1250 C   0  0  0  0  0  3  0  0  0  0  0  0
  161.1110  201.4150  147.6530 O   0  0  0  0  0  0  0  0  0  0  0  0
  161.5450  208.2230  151.5590 C   0  0  0  0  0  0  0  0  0  0  0  0
  161.4320  208.5620  152.9100 C   0  0  0  0  0  3  0  0  0  0  0  0
  161.9110  207.3990  147.5160 N   0  0  0  0  0  0  0  0  0  0  0  0
  161.5700  205.0630  147.8030 C   0  0  0  0  0  0  0  0  0  0  0  0
  161.4700  203.7150  147.1420 C   0  0  0  0  0  2  0  0  0  0  0  0
  162.3640  211.3070  148.7950 C   0  0  0  0  0  3  0  0  0  0  0  0
  162.1590  210.0590  148.3930 C   0  0  0  0  0  3  0  0  0  0  0  0
  162.6150  212.3860  147.7960 C   0  0  0  0  0  2  0  0  0  0  0  0
  161.3630  213.2180  147.5230 C   0  0  0  0  0  2  0  0  0  0  0  0
  160.7820  212.9810  146.1310 C   0  0  0  0  0  2  0  0  0  0  0  0
  158.6250  212.6280  145.1850 O   0  0  0  0  0  0  0  0  0  0  0  0
  159.2980  213.1340  146.1210 C   0  0  0  0  0  0  0  0  0  0  0  0
  158.6650  213.8430  147.1910 N   0  0  0  0  0  2  0  0  0  0  0  0
  157.2580  214.0610  147.3340 C   0  0  0  0  0  0  0  0  0  0  0  0
  156.6160  213.9460  148.6010 N   0  0  0  0  0  1  0  0  0  0  0  0
  156.3740  214.4530  146.0200 S   0  0  0  0  0  0  0  0  0  0  0  0
  1  6  1  0  0  0  0
  1  9  1  0  0  0  0
  2  5  1  0  0  0  0
  3  2  1  0  0  0  0
  3  7  1  0  0  0  0
  4  7  2  0  0  0  0
  5 16  2  0  0  0  0
  5 14  1  0  0  0  0
  8 12  2  0  0  0  0
 10 18  2  0  0  0  0
 10 19  1  0  0  0  0
 11  4  1  0  0  0  0
 12 16  1  0  0  0  0
 13  8  1  0  0  0  0
 13  2  2  0  0  0  0
 14  1  2  0  0  0  0
 15 11  2  0  0  0  0
 16 17  1  0  0  0  0
 17  6  2  0  0  0  0
 18 13  1  0  0  0  0
 19  3  2  0  0  0  0
 20 19  1  0  0  0  0
 20 11  1  0  0  0  0
 22 21  2  0  0  0  0
 22  8  1  0  0  0  0
 23 21  1  0  0  0  0
 24 23  1  0  0  0  0
 25 24  1  0  0  0  0
 26 27  2  0  0  0  0
 27 25  1  0  0  0  0
 27 28  1  0  0  0  0
 28 29  1  0  0  0  0
 29 30  1  0  0  0  0
 31 29  2  0  0  0  0
M  END
>  <MODEL>
9

>  <REMARK>
 VINA RESULT:      -8.7      2.154      2.614
  Name = 
  6 active torsions:
  status: ('A' for Active; 'I' for Inactive)
    1  A    between atoms: C_1  and  N_24
    2  A    between atoms: C_3  and  C_19
    3  A    between atoms: C_3  and  C_22
    4  A    between atoms: C_7  and  C_9
    5  A    between atoms: C_7  and  C_22
    6  A    between atoms: C_15  and  C_23
                            x       y       z     vdW  Elec       q    Type
                         _______ _______ _______ _____ _____    ______ ____

>  <TORSDO>
F 6

$$$$
