=
 OpenBabel11052422263D

 31 35  0  0  1  0  0  0  0  0999 V2000
  160.5600  210.2900  152.5820 N   0  0  0  0  0  0  0  0  0  0  0  0
  159.7370  211.2530  153.1690 C   0  0  0  0  0  0  0  0  0  0  0  0
  157.6760  212.6860  152.9940 C   0  0  0  0  0  3  0  0  0  0  0  0
  161.4010  209.3340  152.0330 C   0  0  2  0  0  0  0  0  0  0  0  0
  158.6500  211.6900  152.5440 C   0  0  0  0  0  3  0  0  0  0  0  0
  161.4940  211.0710  155.0440 C   0  0  0  0  0  3  0  0  0  0  0  0
  157.6540  213.3860  154.1240 C   0  0  0  0  0  3  0  0  0  0  0  0
  161.7880  209.7870  153.2710 C   0  0  0  0  0  0  0  0  0  0  0  0
  158.5960  213.3670  155.2480 C   0  0  0  0  0  3  0  0  0  0  0  0
  162.3350  210.0480  154.3850 N   0  0  0  0  0  0  0  0  0  0  0  0
  160.3120  211.6480  154.5370 C   0  0  0  0  0  0  0  0  0  0  0  0
  159.7000  212.6460  155.4200 C   0  0  0  0  0  3  0  0  0  0  0  0
  161.7310  211.1890  148.8590 N   0  0  0  0  0  0  0  0  0  0  0  0
  162.1360  209.8550  148.4350 C   0  0  0  0  0  2  0  0  0  0  0  0
  162.7220  212.1160  148.3400 C   0  0  0  0  0  1  0  0  0  0  0  0
  161.8390  211.2200  150.3140 C   0  0  0  0  0  2  0  0  0  0  0  0
  162.1910  209.8200  150.8020 C   0  0  2  0  0  3  0  0  0  0  0  0
  161.9580  208.9300  149.6120 C   0  0  0  0  0  2  0  0  0  0  0  0
  160.7800  207.9460  152.0180 C   0  0  0  0  0  2  0  0  0  0  0  0
  161.8330  206.8920  152.3420 C   0  0  0  0  0  2  0  0  0  0  0  0
  161.5320  205.5480  151.6780 C   0  0  1  0  0  3  0  0  0  0  0  0
  161.1030  203.1750  152.3060 C   0  0  0  0  0  1  0  0  0  0  0  0
  160.8070  204.6230  152.6430 C   0  0  0  0  0  2  0  0  0  0  0  0
  160.7460  205.7270  150.4590 N   0  0  0  0  0  2  0  0  0  0  0  0
  161.1990  203.0110  148.0110 C   0  0  0  0  0  0  0  0  0  0  0  0
  161.7290  205.0970  146.9320 C   0  0  0  0  0  3  0  0  0  0  0  0
  161.0790  201.5300  147.9740 C   0  0  0  0  0  1  0  0  0  0  0  0
  160.9130  203.6860  149.1580 N   0  0  0  0  0  0  0  0  0  0  0  0
  161.4320  205.7710  148.1170 C   0  0  0  0  0  3  0  0  0  0  0  0
  161.0210  205.0420  149.2350 C   0  0  0  0  0  0  0  0  0  0  0  0
  161.6150  203.7070  146.8760 C   0  0  0  0  0  3  0  0  0  0  0  0
  1  2  1  0  0  0  0
  1  8  1  0  0  0  0
  2 11  1  0  0  0  0
  3  7  2  0  0  0  0
  4 19  1  6  0  0  0
  4  1  1  0  0  0  0
  4  8  1  0  0  0  0
  5  3  1  0  0  0  0
  5  2  2  0  0  0  0
  7  9  1  0  0  0  0
  8 10  2  0  0  0  0
  9 12  2  0  0  0  0
 10  6  1  0  0  0  0
 11  6  2  0  0  0  0
 11 12  1  0  0  0  0
 13 16  1  0  0  0  0
 14 13  1  0  0  0  0
 14 18  1  0  0  0  0
 15 13  1  0  0  0  0
 16 17  1  0  0  0  0
 17 18  1  6  0  0  0
 17  4  1  0  0  0  0
 19 20  1  0  0  0  0
 21 20  1  1  0  0  0
 21 23  1  0  0  0  0
 22 23  1  0  0  0  0
 24 21  1  0  0  0  0
 25 28  1  0  0  0  0
 26 29  2  0  0  0  0
 27 25  1  0  0  0  0
 28 30  2  0  0  0  0
 29 30  1  0  0  0  0
 30 24  1  0  0  0  0
 31 26  1  0  0  0  0
 31 25  2  0  0  0  0
M  END
>  <MODEL>
1

>  <REMARK>
 VINA RESULT:      -7.8      0.000      0.000
  Name = 
  7 active torsions:
  status: ('A' for Active; 'I' for Inactive)
    1  A    between atoms: N_3  and  C_9
    2  A    between atoms: N_3  and  C_22
    3  A    between atoms: C_9  and  C_15
    4  A    between atoms: C_9  and  C_23
    5  A    between atoms: C_12  and  C_20
    6  A    between atoms: C_12  and  C_27
    7  A    between atoms: C_15  and  C_20
                            x       y       z     vdW  Elec       q    Type
                         _______ _______ _______ _____ _____    ______ ____

>  <TORSDO>
F 7

$$$$
=
 OpenBabel11052422263D

 31 35  0  0  1  0  0  0  0  0999 V2000
  160.7550  210.5290  152.1220 N   0  0  0  0  0  0  0  0  0  0  0  0
  159.8820  210.9690  153.1180 C   0  0  0  0  0  0  0  0  0  0  0  0
  157.5760  211.7750  153.7260 C   0  0  0  0  0  3  0  0  0  0  0  0
  161.6520  210.0870  151.1620 C   0  0  2  0  0  0  0  0  0  0  0  0
  158.6290  211.2960  152.8270 C   0  0  0  0  0  3  0  0  0  0  0  0
  161.9680  210.6060  154.5860 C   0  0  0  0  0  3  0  0  0  0  0  0
  157.6310  211.9970  155.0350 C   0  0  0  0  0  3  0  0  0  0  0  0
  162.1710  210.1580  152.4330 C   0  0  0  0  0  0  0  0  0  0  0  0
  158.7560  211.8310  155.9610 C   0  0  0  0  0  3  0  0  0  0  0  0
  162.8570  210.1410  153.4980 N   0  0  0  0  0  0  0  0  0  0  0  0
  160.6170  210.9910  154.4660 C   0  0  0  0  0  0  0  0  0  0  0  0
  159.9960  211.4130  155.7260 C   0  0  0  0  0  3  0  0  0  0  0  0
  160.9380  212.7140  148.6700 N   0  0  0  0  0  0  0  0  0  0  0  0
  161.7890  211.8260  147.8890 C   0  0  0  0  0  2  0  0  0  0  0  0
  161.4350  214.0640  148.4670 C   0  0  0  0  0  1  0  0  0  0  0  0
  161.1590  212.3840  150.0740 C   0  0  0  0  0  2  0  0  0  0  0  0
  162.0720  211.1670  150.1450 C   0  0  2  0  0  3  0  0  0  0  0  0
  162.0960  210.6230  148.7430 C   0  0  0  0  0  2  0  0  0  0  0  0
  161.3390  208.6830  150.6690 C   0  0  0  0  0  2  0  0  0  0  0  0
  160.8420  207.8160  151.8200 C   0  0  0  0  0  2  0  0  0  0  0  0
  161.4190  206.4010  151.7730 C   0  0  1  0  0  3  0  0  0  0  0  0
  160.9650  206.7130  154.2030 C   0  0  0  0  0  1  0  0  0  0  0  0
  161.7290  205.9020  153.1750 C   0  0  0  0  0  2  0  0  0  0  0  0
  160.5060  205.4820  151.0970 N   0  0  0  0  0  2  0  0  0  0  0  0
  161.0960  202.7730  148.6700 C   0  0  0  0  0  0  0  0  0  0  0  0
  161.5810  204.8710  147.5920 C   0  0  0  0  0  3  0  0  0  0  0  0
  161.0250  201.2890  148.6370 C   0  0  0  0  0  1  0  0  0  0  0  0
  160.7660  203.4430  149.8080 N   0  0  0  0  0  0  0  0  0  0  0  0
  161.2380  205.5400  148.7680 C   0  0  0  0  0  3  0  0  0  0  0  0
  160.8280  204.8020  149.8820 C   0  0  0  0  0  0  0  0  0  0  0  0
  161.5130  203.4780  147.5400 C   0  0  0  0  0  3  0  0  0  0  0  0
  1  8  1  0  0  0  0
  1  2  1  0  0  0  0
  2 11  1  0  0  0  0
  3  7  2  0  0  0  0
  4 19  1  6  0  0  0
  4  1  1  0  0  0  0
  4  8  1  0  0  0  0
  5  2  2  0  0  0  0
  5  3  1  0  0  0  0
  7  9  1  0  0  0  0
  8 10  2  0  0  0  0
 10  6  1  0  0  0  0
 11  6  2  0  0  0  0
 11 12  1  0  0  0  0
 12  9  2  0  0  0  0
 13 16  1  0  0  0  0
 14 13  1  0  0  0  0
 14 18  1  0  0  0  0
 15 13  1  0  0  0  0
 16 17  1  0  0  0  0
 17 18  1  6  0  0  0
 17  4  1  0  0  0  0
 19 20  1  0  0  0  0
 21 20  1  1  0  0  0
 21 23  1  0  0  0  0
 23 22  1  0  0  0  0
 24 21  1  0  0  0  0
 25 28  1  0  0  0  0
 26 29  2  0  0  0  0
 27 25  1  0  0  0  0
 28 30  2  0  0  0  0
 29 30  1  0  0  0  0
 30 24  1  0  0  0  0
 31 26  1  0  0  0  0
 31 25  2  0  0  0  0
M  END
>  <MODEL>
2

>  <REMARK>
 VINA RESULT:      -7.6      1.106      1.426
  Name = 
  7 active torsions:
  status: ('A' for Active; 'I' for Inactive)
    1  A    between atoms: N_3  and  C_9
    2  A    between atoms: N_3  and  C_22
    3  A    between atoms: C_9  and  C_15
    4  A    between atoms: C_9  and  C_23
    5  A    between atoms: C_12  and  C_20
    6  A    between atoms: C_12  and  C_27
    7  A    between atoms: C_15  and  C_20
                            x       y       z     vdW  Elec       q    Type
                         _______ _______ _______ _____ _____    ______ ____

>  <TORSDO>
F 7

$$$$
=
 OpenBabel11052422263D

 31 35  0  0  1  0  0  0  0  0999 V2000
  160.6800  209.4140  153.3970 N   0  0  0  0  0  0  0  0  0  0  0  0
  161.0140  208.1030  153.0570 C   0  0  0  0  0  0  0  0  0  0  0  0
  160.9780  205.6640  153.6790 C   0  0  0  0  0  3  0  0  0  0  0  0
  160.3640  210.7300  153.7000 C   0  0  2  0  0  0  0  0  0  0  0  0
  160.7110  207.0920  153.8630 C   0  0  0  0  0  3  0  0  0  0  0  0
  161.9720  209.2840  150.9770 C   0  0  0  0  0  3  0  0  0  0  0  0
  161.5880  205.0500  152.6710 C   0  0  0  0  0  3  0  0  0  0  0  0
  161.0150  210.5640  152.5010 C   0  0  0  0  0  0  0  0  0  0  0  0
  162.1720  205.6170  151.4510 C   0  0  0  0  0  3  0  0  0  0  0  0
  161.5950  210.6570  151.3790 N   0  0  0  0  0  0  0  0  0  0  0  0
  161.7330  208.0970  151.6990 C   0  0  0  0  0  0  0  0  0  0  0  0
  162.2320  206.8830  151.0470 C   0  0  0  0  0  3  0  0  0  0  0  0
  162.4610  210.4290  156.7230 N   0  0  0  0  0  0  0  0  0  0  0  0
  161.3510  211.2170  157.2420 C   0  0  0  0  0  2  0  0  0  0  0  0
  163.6830  211.0790  157.1610 C   0  0  0  0  0  1  0  0  0  0  0  0
  162.4150  210.5420  155.2680 C   0  0  0  0  0  2  0  0  0  0  0  0
  161.1590  211.3140  154.8840 C   0  0  2  0  0  3  0  0  0  0  0  0
  160.3310  211.3490  156.1400 C   0  0  0  0  0  2  0  0  0  0  0  0
  158.8740  211.0150  153.5920 C   0  0  0  0  0  2  0  0  0  0  0  0
  158.6050  212.0160  152.4740 C   0  0  0  0  0  2  0  0  0  0  0  0
  157.8140  213.2300  152.9600 C   0  0  1  0  0  3  0  0  0  0  0  0
  157.6780  214.0960  155.2930 C   0  0  0  0  0  1  0  0  0  0  0  0
  158.5640  213.9490  154.0710 C   0  0  0  0  0  2  0  0  0  0  0  0
  157.5330  214.1500  151.8600 N   0  0  0  0  0  2  0  0  0  0  0  0
  159.3920  213.8010  148.6980 C   0  0  0  0  0  0  0  0  0  0  0  0
  157.1060  213.1540  148.3060 C   0  0  0  0  0  3  0  0  0  0  0  0
  160.7740  214.0260  148.2020 C   0  0  0  0  0  1  0  0  0  0  0  0
  159.0910  214.0430  150.0030 N   0  0  0  0  0  0  0  0  0  0  0  0
  156.8170  213.4080  149.6470 C   0  0  0  0  0  3  0  0  0  0  0  0
  157.8330  213.8590  150.4930 C   0  0  0  0  0  0  0  0  0  0  0  0
  158.4000  213.3520  147.8240 C   0  0  0  0  0  3  0  0  0  0  0  0
  1  4  1  0  0  0  0
  2  1  1  0  0  0  0
  2  5  2  0  0  0  0
  3  5  1  0  0  0  0
  4 19  1  6  0  0  0
  4 17  1  0  0  0  0
  6 10  1  0  0  0  0
  6 11  2  0  0  0  0
  7  3  2  0  0  0  0
  8  1  1  0  0  0  0
  8  4  1  0  0  0  0
  9  7  1  0  0  0  0
 10  8  2  0  0  0  0
 11  2  1  0  0  0  0
 12  9  2  0  0  0  0
 12 11  1  0  0  0  0
 13 15  1  0  0  0  0
 13 14  1  0  0  0  0
 16 13  1  0  0  0  0
 17 16  1  1  0  0  0
 17 18  1  0  0  0  0
 18 14  1  0  0  0  0
 20 19  1  0  0  0  0
 21 20  1  6  0  0  0
 21 23  1  0  0  0  0
 23 22  1  0  0  0  0
 24 21  1  0  0  0  0
 25 28  1  0  0  0  0
 26 29  2  0  0  0  0
 27 25  1  0  0  0  0
 28 30  2  0  0  0  0
 29 30  1  0  0  0  0
 30 24  1  0  0  0  0
 31 26  1  0  0  0  0
 31 25  2  0  0  0  0
M  END
>  <MODEL>
3

>  <REMARK>
 VINA RESULT:      -6.8      2.764      7.847
  Name = 
  7 active torsions:
  status: ('A' for Active; 'I' for Inactive)
    1  A    between atoms: N_3  and  C_9
    2  A    between atoms: N_3  and  C_22
    3  A    between atoms: C_9  and  C_15
    4  A    between atoms: C_9  and  C_23
    5  A    between atoms: C_12  and  C_20
    6  A    between atoms: C_12  and  C_27
    7  A    between atoms: C_15  and  C_20
                            x       y       z     vdW  Elec       q    Type
                         _______ _______ _______ _____ _____    ______ ____

>  <TORSDO>
F 7

$$$$
=
 OpenBabel11052422263D

 31 35  0  0  1  0  0  0  0  0999 V2000
  159.9670  211.6910  152.8110 N   0  0  0  0  0  0  0  0  0  0  0  0
  159.7090  212.5090  151.7110 C   0  0  0  0  0  0  0  0  0  0  0  0
  160.5560  213.5440  149.5790 C   0  0  0  0  0  3  0  0  0  0  0  0
  160.1860  210.8830  153.9170 C   0  0  2  0  0  0  0  0  0  0  0  0
  160.6400  212.7240  150.7890 C   0  0  0  0  0  3  0  0  0  0  0  0
  157.4170  212.7080  152.8700 C   0  0  0  0  0  3  0  0  0  0  0  0
  159.5370  214.2650  149.1250 C   0  0  0  0  0  3  0  0  0  0  0  0
  158.9300  211.4390  153.8590 C   0  0  0  0  0  0  0  0  0  0  0  0
  158.2000  214.4530  149.7000 C   0  0  0  0  0  3  0  0  0  0  0  0
  157.7350  211.8300  154.0170 N   0  0  0  0  0  0  0  0  0  0  0  0
  158.2730  213.0460  151.8020 C   0  0  0  0  0  0  0  0  0  0  0  0
  157.6750  213.9470  150.8120 C   0  0  0  0  0  3  0  0  0  0  0  0
  162.4220  210.6270  156.8420 N   0  0  0  0  0  0  0  0  0  0  0  0
  161.5610  211.7270  157.2560 C   0  0  0  0  0  2  0  0  0  0  0  0
  163.7910  211.0430  157.0950 C   0  0  0  0  0  1  0  0  0  0  0  0
  162.2760  210.4980  155.3960 C   0  0  0  0  0  2  0  0  0  0  0  0
  161.1900  211.4620  154.9330 C   0  0  2  0  0  3  0  0  0  0  0  0
  160.5020  211.9010  156.1970 C   0  0  0  0  0  2  0  0  0  0  0  0
  160.2560  209.4070  153.5610 C   0  0  0  0  0  2  0  0  0  0  0  0
  160.9480  209.2190  152.2160 C   0  0  0  0  0  2  0  0  0  0  0  0
  161.4260  207.7820  152.0050 C   0  0  1  0  0  3  0  0  0  0  0  0
  161.3790  205.5530  153.1180 C   0  0  0  0  0  1  0  0  0  0  0  0
  161.5190  207.0480  153.3330 C   0  0  0  0  0  2  0  0  0  0  0  0
  160.5450  207.0630  151.0880 N   0  0  0  0  0  2  0  0  0  0  0  0
  161.3330  204.7040  148.3690 C   0  0  0  0  0  0  0  0  0  0  0  0
  161.9260  206.9220  147.6410 C   0  0  0  0  0  3  0  0  0  0  0  0
  161.2560  203.2410  148.1240 C   0  0  0  0  0  1  0  0  0  0  0  0
  160.9060  205.2160  149.5560 N   0  0  0  0  0  0  0  0  0  0  0  0
  161.4830  207.4280  148.8640 C   0  0  0  0  0  3  0  0  0  0  0  0
  160.9700  206.5510  149.8230 C   0  0  0  0  0  0  0  0  0  0  0  0
  161.8540  205.5510  147.3900 C   0  0  0  0  0  3  0  0  0  0  0  0
  1  8  1  0  0  0  0
  1  4  1  0  0  0  0
  2 11  1  0  0  0  0
  2  1  1  0  0  0  0
  3  5  1  0  0  0  0
  4 19  1  6  0  0  0
  4 17  1  0  0  0  0
  5  2  2  0  0  0  0
  6 10  1  0  0  0  0
  7  3  2  0  0  0  0
  7  9  1  0  0  0  0
  8  4  1  0  0  0  0
  8 10  2  0  0  0  0
  9 12  2  0  0  0  0
 11  6  2  0  0  0  0
 12 11  1  0  0  0  0
 13 15  1  0  0  0  0
 13 14  1  0  0  0  0
 16 13  1  0  0  0  0
 17 16  1  1  0  0  0
 17 18  1  0  0  0  0
 18 14  1  0  0  0  0
 20 19  1  0  0  0  0
 21 20  1  1  0  0  0
 21 23  1  0  0  0  0
 22 23  1  0  0  0  0
 24 21  1  0  0  0  0
 25 28  1  0  0  0  0
 26 29  2  0  0  0  0
 27 25  1  0  0  0  0
 28 30  2  0  0  0  0
 29 30  1  0  0  0  0
 30 24  1  0  0  0  0
 31 26  1  0  0  0  0
 31 25  2  0  0  0  0
M  END
>  <MODEL>
4

>  <REMARK>
 VINA RESULT:      -6.6      1.894      4.342
  Name = 
  7 active torsions:
  status: ('A' for Active; 'I' for Inactive)
    1  A    between atoms: N_3  and  C_9
    2  A    between atoms: N_3  and  C_22
    3  A    between atoms: C_9  and  C_15
    4  A    between atoms: C_9  and  C_23
    5  A    between atoms: C_12  and  C_20
    6  A    between atoms: C_12  and  C_27
    7  A    between atoms: C_15  and  C_20
                            x       y       z     vdW  Elec       q    Type
                         _______ _______ _______ _____ _____    ______ ____

>  <TORSDO>
F 7

$$$$
=
 OpenBabel11052422263D

 31 35  0  0  1  0  0  0  0  0999 V2000
  161.0100  208.6500  151.6850 N   0  0  0  0  0  0  0  0  0  0  0  0
  161.1630  207.6810  150.6920 C   0  0  0  0  0  0  0  0  0  0  0  0
  160.7640  205.3100  149.9500 C   0  0  0  0  0  3  0  0  0  0  0  0
  160.8780  209.6400  152.6470 C   0  0  2  0  0  0  0  0  0  0  0  0
  160.6990  206.4500  150.8660 C   0  0  0  0  0  3  0  0  0  0  0  0
  162.3320  209.6360  149.4880 C   0  0  0  0  0  3  0  0  0  0  0  0
  161.3050  205.2390  148.7380 C   0  0  0  0  0  3  0  0  0  0  0  0
  161.5290  210.0410  151.5050 C   0  0  0  0  0  0  0  0  0  0  0  0
  161.9940  206.2780  147.9650 C   0  0  0  0  0  3  0  0  0  0  0  0
  162.1450  210.6300  150.5670 N   0  0  0  0  0  0  0  0  0  0  0  0
  161.9080  208.2910  149.4950 C   0  0  0  0  0  0  0  0  0  0  0  0
  162.2450  207.5460  148.2790 C   0  0  0  0  0  3  0  0  0  0  0  0
  161.3120  209.3850  156.3030 N   0  0  0  0  0  0  0  0  0  0  0  0
  162.3100  210.3970  155.9820 C   0  0  0  0  0  2  0  0  0  0  0  0
  161.9570  208.4130  157.1690 C   0  0  0  0  0  1  0  0  0  0  0  0
  160.9910  208.6980  155.0560 C   0  0  0  0  0  2  0  0  0  0  0  0
  161.7180  209.4030  153.9170 C   0  0  2  0  0  3  0  0  0  0  0  0
  162.1950  210.7000  154.5110 C   0  0  0  0  0  2  0  0  0  0  0  0
  159.4470  210.1360  152.7830 C   0  0  0  0  0  2  0  0  0  0  0  0
  159.3580  211.6080  152.3960 C   0  0  0  0  0  2  0  0  0  0  0  0
  158.4210  212.3940  153.3150 C   0  0  1  0  0  3  0  0  0  0  0  0
  158.4180  211.6150  155.6810 C   0  0  0  0  0  1  0  0  0  0  0  0
  159.0460  212.5750  154.6890 C   0  0  0  0  0  2  0  0  0  0  0  0
  158.0850  213.6930  152.7360 N   0  0  0  0  0  2  0  0  0  0  0  0
  156.4800  213.9030  149.4260 C   0  0  0  0  0  0  0  0  0  0  0  0
  154.8350  214.4480  151.0990 C   0  0  0  0  0  3  0  0  0  0  0  0
  156.8650  213.7270  148.0020 C   0  0  0  0  0  1  0  0  0  0  0  0
  157.4020  213.7100  150.4070 N   0  0  0  0  0  0  0  0  0  0  0  0
  155.7960  214.2440  152.0910 C   0  0  0  0  0  3  0  0  0  0  0  0
  157.0910  213.8720  151.7240 C   0  0  0  0  0  0  0  0  0  0  0  0
  155.1770  214.2790  149.7560 C   0  0  0  0  0  3  0  0  0  0  0  0
  1  4  1  0  0  0  0
  2  5  2  0  0  0  0
  2  1  1  0  0  0  0
  3  5  1  0  0  0  0
  4 19  1  1  0  0  0
  4 17  1  0  0  0  0
  6 11  2  0  0  0  0
  6 10  1  0  0  0  0
  7  3  2  0  0  0  0
  8  1  1  0  0  0  0
  8  4  1  0  0  0  0
  9 12  2  0  0  0  0
  9  7  1  0  0  0  0
 10  8  2  0  0  0  0
 11  2  1  0  0  0  0
 12 11  1  0  0  0  0
 13 15  1  0  0  0  0
 14 13  1  0  0  0  0
 16 13  1  0  0  0  0
 17 18  1  1  0  0  0
 17 16  1  0  0  0  0
 18 14  1  0  0  0  0
 20 19  1  0  0  0  0
 21 20  1  6  0  0  0
 21 23  1  0  0  0  0
 23 22  1  0  0  0  0
 24 21  1  0  0  0  0
 25 31  2  0  0  0  0
 25 28  1  0  0  0  0
 26 29  2  0  0  0  0
 27 25  1  0  0  0  0
 28 30  2  0  0  0  0
 30 29  1  0  0  0  0
 30 24  1  0  0  0  0
 31 26  1  0  0  0  0
M  END
>  <MODEL>
5

>  <REMARK>
 VINA RESULT:      -6.6      2.422      8.218
  Name = 
  7 active torsions:
  status: ('A' for Active; 'I' for Inactive)
    1  A    between atoms: N_3  and  C_9
    2  A    between atoms: N_3  and  C_22
    3  A    between atoms: C_9  and  C_15
    4  A    between atoms: C_9  and  C_23
    5  A    between atoms: C_12  and  C_20
    6  A    between atoms: C_12  and  C_27
    7  A    between atoms: C_15  and  C_20
                            x       y       z     vdW  Elec       q    Type
                         _______ _______ _______ _____ _____    ______ ____

>  <TORSDO>
F 7

$$$$
=
 OpenBabel11052422263D

 31 35  0  0  1  0  0  0  0  0999 V2000
  161.0140  208.7030  151.6840 N   0  0  0  0  0  0  0  0  0  0  0  0
  161.1650  207.7510  150.6750 C   0  0  0  0  0  0  0  0  0  0  0  0
  160.7660  205.3920  149.8940 C   0  0  0  0  0  3  0  0  0  0  0  0
  160.8830  209.6760  152.6630 C   0  0  2  0  0  0  0  0  0  0  0  0
  160.7020  206.5170  150.8300 C   0  0  0  0  0  3  0  0  0  0  0  0
  162.3300  209.7270  149.5020 C   0  0  0  0  0  3  0  0  0  0  0  0
  161.3050  205.3420  148.6800 C   0  0  0  0  0  3  0  0  0  0  0  0
  161.5310  210.0980  151.5260 C   0  0  0  0  0  0  0  0  0  0  0  0
  161.9920  206.3940  147.9230 C   0  0  0  0  0  3  0  0  0  0  0  0
  162.1450  210.7030  150.5970 N   0  0  0  0  0  0  0  0  0  0  0  0
  161.9070  208.3820  149.4870 C   0  0  0  0  0  0  0  0  0  0  0  0
  162.2420  207.6570  148.2580 C   0  0  0  0  0  3  0  0  0  0  0  0
  161.3430  209.4370  156.3170 N   0  0  0  0  0  0  0  0  0  0  0  0
  162.3750  210.4080  155.9780 C   0  0  0  0  0  2  0  0  0  0  0  0
  161.9590  208.4490  157.1860 C   0  0  0  0  0  1  0  0  0  0  0  0
  160.9840  208.7520  155.0790 C   0  0  0  0  0  2  0  0  0  0  0  0
  161.7260  209.4190  153.9270 C   0  0  2  0  0  3  0  0  0  0  0  0
  162.2570  210.7030  154.5050 C   0  0  0  0  0  2  0  0  0  0  0  0
  159.4520  210.1700  152.8110 C   0  0  0  0  0  2  0  0  0  0  0  0
  159.4370  211.6080  153.3160 C   0  0  0  0  0  2  0  0  0  0  0  0
  158.1500  212.3420  152.9380 C   0  0  1  0  0  3  0  0  0  0  0  0
  156.0350  213.3320  153.8070 C   0  0  0  0  0  1  0  0  0  0  0  0
  157.3930  212.7720  154.1840 C   0  0  0  0  0  2  0  0  0  0  0  0
  158.4330  213.4990  152.0920 N   0  0  0  0  0  2  0  0  0  0  0  0
  160.0110  213.3680  148.7650 C   0  0  0  0  0  0  0  0  0  0  0  0
  157.6210  213.3260  148.4700 C   0  0  0  0  0  3  0  0  0  0  0  0
  161.3840  213.3770  148.1950 C   0  0  0  0  0  1  0  0  0  0  0  0
  159.8360  213.4150  150.1140 N   0  0  0  0  0  0  0  0  0  0  0  0
  157.4630  213.3740  149.8550 C   0  0  0  0  0  3  0  0  0  0  0  0
  158.5940  213.4190  150.6740 C   0  0  0  0  0  0  0  0  0  0  0  0
  158.9030  213.3250  147.9170 C   0  0  0  0  0  3  0  0  0  0  0  0
  1  4  1  0  0  0  0
  2  5  2  0  0  0  0
  2  1  1  0  0  0  0
  3  5  1  0  0  0  0
  4 19  1  1  0  0  0
  4 17  1  0  0  0  0
  6 10  1  0  0  0  0
  7  3  2  0  0  0  0
  8  1  1  0  0  0  0
  8  4  1  0  0  0  0
  9 12  2  0  0  0  0
  9  7  1  0  0  0  0
 10  8  2  0  0  0  0
 11  6  2  0  0  0  0
 11  2  1  0  0  0  0
 12 11  1  0  0  0  0
 13 15  1  0  0  0  0
 14 13  1  0  0  0  0
 16 13  1  0  0  0  0
 17 18  1  1  0  0  0
 17 16  1  0  0  0  0
 18 14  1  0  0  0  0
 19 20  1  0  0  0  0
 21 20  1  1  0  0  0
 21 23  1  0  0  0  0
 22 23  1  0  0  0  0
 24 21  1  0  0  0  0
 25 28  1  0  0  0  0
 26 29  2  0  0  0  0
 27 25  1  0  0  0  0
 28 30  2  0  0  0  0
 29 30  1  0  0  0  0
 30 24  1  0  0  0  0
 31 26  1  0  0  0  0
 31 25  2  0  0  0  0
M  END
>  <MODEL>
6

>  <REMARK>
 VINA RESULT:      -6.4      2.133      7.756
  Name = 
  7 active torsions:
  status: ('A' for Active; 'I' for Inactive)
    1  A    between atoms: N_3  and  C_9
    2  A    between atoms: N_3  and  C_22
    3  A    between atoms: C_9  and  C_15
    4  A    between atoms: C_9  and  C_23
    5  A    between atoms: C_12  and  C_20
    6  A    between atoms: C_12  and  C_27
    7  A    between atoms: C_15  and  C_20
                            x       y       z     vdW  Elec       q    Type
                         _______ _______ _______ _____ _____    ______ ____

>  <TORSDO>
F 7

$$$$
=
 OpenBabel11052422263D

 31 35  0  0  1  0  0  0  0  0999 V2000
  158.3320  212.1390  154.1000 N   0  0  0  0  0  0  0  0  0  0  0  0
  157.2410  211.7160  154.8600 C   0  0  0  0  0  0  0  0  0  0  0  0
  155.2130  210.2340  155.0360 C   0  0  0  0  0  3  0  0  0  0  0  0
  159.4270  212.5850  153.3760 C   0  0  2  0  0  0  0  0  0  0  0  0
  156.4020  210.7980  154.3930 C   0  0  0  0  0  3  0  0  0  0  0  0
  158.2150  213.4230  156.5250 C   0  0  0  0  0  3  0  0  0  0  0  0
  154.6960  210.5120  156.2280 C   0  0  0  0  0  3  0  0  0  0  0  0
  159.2850  213.1720  154.6100 C   0  0  0  0  0  0  0  0  0  0  0  0
  155.1590  211.4600  157.2470 C   0  0  0  0  0  3  0  0  0  0  0  0
  159.3590  213.8390  155.6860 N   0  0  0  0  0  0  0  0  0  0  0  0
  157.2300  212.4680  156.1980 C   0  0  0  0  0  0  0  0  0  0  0  0
  156.2120  212.2730  157.2350 C   0  0  0  0  0  3  0  0  0  0  0  0
  158.0370  212.9870  149.9800 N   0  0  0  0  0  0  0  0  0  0  0  0
  159.3820  213.5120  149.7850 C   0  0  0  0  0  2  0  0  0  0  0  0
  157.1200  213.9400  149.3810 C   0  0  0  0  0  1  0  0  0  0  0  0
  157.7840  212.9970  151.4170 C   0  0  0  0  0  2  0  0  0  0  0  0
  159.0650  213.4160  152.1290 C   0  0  2  0  0  3  0  0  0  0  0  0
  160.1360  213.3260  151.0770 C   0  0  0  0  0  2  0  0  0  0  0  0
  160.5300  211.5420  153.2790 C   0  0  0  0  0  2  0  0  0  0  0  0
  159.9380  210.1720  152.9680 C   0  0  0  0  0  2  0  0  0  0  0  0
  160.8370  209.3470  152.0460 C   0  0  1  0  0  3  0  0  0  0  0  0
  162.1630  210.0930  150.0730 C   0  0  0  0  0  1  0  0  0  0  0  0
  162.0270  210.1710  151.5810 C   0  0  0  0  0  2  0  0  0  0  0  0
  161.2920  208.1270  152.7090 N   0  0  0  0  0  2  0  0  0  0  0  0
  160.9850  205.4740  150.1700 C   0  0  0  0  0  0  0  0  0  0  0  0
  161.1870  204.4320  152.3320 C   0  0  0  0  0  3  0  0  0  0  0  0
  160.8140  205.3730  148.6980 C   0  0  0  0  0  1  0  0  0  0  0  0
  161.0800  206.6970  150.7600 N   0  0  0  0  0  0  0  0  0  0  0  0
  161.2830  205.6950  152.9170 C   0  0  0  0  0  3  0  0  0  0  0  0
  161.2260  206.8320  152.1080 C   0  0  0  0  0  0  0  0  0  0  0  0
  161.0350  204.3170  150.9490 C   0  0  0  0  0  3  0  0  0  0  0  0
  1  8  1  0  0  0  0
  1  2  1  0  0  0  0
  2 11  1  0  0  0  0
  3  7  2  0  0  0  0
  4 19  1  6  0  0  0
  4  1  1  0  0  0  0
  4  8  1  0  0  0  0
  5  2  2  0  0  0  0
  5  3  1  0  0  0  0
  7  9  1  0  0  0  0
  8 10  2  0  0  0  0
 10  6  1  0  0  0  0
 11  6  2  0  0  0  0
 11 12  1  0  0  0  0
 12  9  2  0  0  0  0
 13 16  1  0  0  0  0
 14 13  1  0  0  0  0
 14 18  1  0  0  0  0
 15 13  1  0  0  0  0
 16 17  1  0  0  0  0
 17 18  1  6  0  0  0
 17  4  1  0  0  0  0
 20 19  1  0  0  0  0
 21 23  1  1  0  0  0
 21 24  1  0  0  0  0
 21 20  1  0  0  0  0
 22 23  1  0  0  0  0
 25 28  1  0  0  0  0
 25 31  2  0  0  0  0
 26 29  2  0  0  0  0
 27 25  1  0  0  0  0
 28 30  2  0  0  0  0
 30 24  1  0  0  0  0
 30 29  1  0  0  0  0
 31 26  1  0  0  0  0
M  END
>  <MODEL>
7

>  <REMARK>
 VINA RESULT:      -6.4      2.505      4.412
  Name = 
  7 active torsions:
  status: ('A' for Active; 'I' for Inactive)
    1  A    between atoms: N_3  and  C_9
    2  A    between atoms: N_3  and  C_22
    3  A    between atoms: C_9  and  C_15
    4  A    between atoms: C_9  and  C_23
    5  A    between atoms: C_12  and  C_20
    6  A    between atoms: C_12  and  C_27
    7  A    between atoms: C_15  and  C_20
                            x       y       z     vdW  Elec       q    Type
                         _______ _______ _______ _____ _____    ______ ____

>  <TORSDO>
F 7

$$$$
=
 OpenBabel11052422263D

 31 35  0  0  1  0  0  0  0  0999 V2000
  160.6880  209.2310  153.4180 N   0  0  0  0  0  0  0  0  0  0  0  0
  161.0030  207.9260  153.0330 C   0  0  0  0  0  0  0  0  0  0  0  0
  160.8530  205.4640  153.5310 C   0  0  0  0  0  3  0  0  0  0  0  0
  160.3950  210.5400  153.7660 C   0  0  2  0  0  0  0  0  0  0  0  0
  160.6190  206.8900  153.7690 C   0  0  0  0  0  3  0  0  0  0  0  0
  162.1240  209.1720  151.0770 C   0  0  0  0  0  3  0  0  0  0  0  0
  161.5050  204.8770  152.5330 C   0  0  0  0  0  3  0  0  0  0  0  0
  161.1140  210.4100  152.6010 C   0  0  0  0  0  0  0  0  0  0  0  0
  162.1800  205.4820  151.3790 C   0  0  0  0  0  3  0  0  0  0  0  0
  161.7650  210.5360  151.5220 N   0  0  0  0  0  0  0  0  0  0  0  0
  161.8040  207.9610  151.7230 C   0  0  0  0  0  0  0  0  0  0  0  0
  162.3040  206.7630  151.0430 C   0  0  0  0  0  3  0  0  0  0  0  0
  162.8910  210.2100  156.4640 N   0  0  0  0  0  0  0  0  0  0  0  0
  161.6780  210.4270  157.2430 C   0  0  0  0  0  2  0  0  0  0  0  0
  163.9050  211.0990  157.0040 C   0  0  0  0  0  1  0  0  0  0  0  0
  162.6060  210.6620  155.1060 C   0  0  0  0  0  2  0  0  0  0  0  0
  161.1330  211.0410  155.0230 C   0  0  2  0  0  3  0  0  0  0  0  0
  160.5210  210.4830  156.2790 C   0  0  0  0  0  2  0  0  0  0  0  0
  158.9240  210.8800  153.5820 C   0  0  0  0  0  2  0  0  0  0  0  0
  158.6960  212.3740  153.7810 C   0  0  0  0  0  2  0  0  0  0  0  0
  157.2110  212.7320  153.8460 C   0  0  1  0  0  3  0  0  0  0  0  0
  157.6280  213.9280  155.9920 C   0  0  0  0  0  1  0  0  0  0  0  0
  156.7630  212.9000  155.2880 C   0  0  0  0  0  2  0  0  0  0  0  0
  156.9280  213.9450  153.0820 N   0  0  0  0  0  2  0  0  0  0  0  0
  157.5980  213.8900  149.4590 C   0  0  0  0  0  0  0  0  0  0  0  0
  155.2250  214.1440  149.7850 C   0  0  0  0  0  3  0  0  0  0  0  0
  158.7750  213.7850  148.5580 C   0  0  0  0  0  1  0  0  0  0  0  0
  157.7710  213.8520  150.8080 N   0  0  0  0  0  0  0  0  0  0  0  0
  155.4240  214.1030  151.1660 C   0  0  0  0  0  3  0  0  0  0  0  0
  156.7190  213.9560  151.6680 C   0  0  0  0  0  0  0  0  0  0  0  0
  156.3180  214.0390  148.9230 C   0  0  0  0  0  3  0  0  0  0  0  0
  1  4  1  0  0  0  0
  2  1  1  0  0  0  0
  2  5  2  0  0  0  0
  3  5  1  0  0  0  0
  4 19  1  6  0  0  0
  4 17  1  0  0  0  0
  6 10  1  0  0  0  0
  6 11  2  0  0  0  0
  7  3  2  0  0  0  0
  8  1  1  0  0  0  0
  8  4  1  0  0  0  0
  9  7  1  0  0  0  0
 10  8  2  0  0  0  0
 11  2  1  0  0  0  0
 12  9  2  0  0  0  0
 12 11  1  0  0  0  0
 13 15  1  0  0  0  0
 13 14  1  0  0  0  0
 16 13  1  0  0  0  0
 17 16  1  6  0  0  0
 17 18  1  0  0  0  0
 18 14  1  0  0  0  0
 19 20  1  0  0  0  0
 21 20  1  1  0  0  0
 21 23  1  0  0  0  0
 23 22  1  0  0  0  0
 24 21  1  0  0  0  0
 25 28  1  0  0  0  0
 26 29  2  0  0  0  0
 27 25  1  0  0  0  0
 28 30  2  0  0  0  0
 29 30  1  0  0  0  0
 30 24  1  0  0  0  0
 31 25  2  0  0  0  0
 31 26  1  0  0  0  0
M  END
>  <MODEL>
8

>  <REMARK>
 VINA RESULT:      -6.3      2.801      8.157
  Name = 
  7 active torsions:
  status: ('A' for Active; 'I' for Inactive)
    1  A    between atoms: N_3  and  C_9
    2  A    between atoms: N_3  and  C_22
    3  A    between atoms: C_9  and  C_15
    4  A    between atoms: C_9  and  C_23
    5  A    between atoms: C_12  and  C_20
    6  A    between atoms: C_12  and  C_27
    7  A    between atoms: C_15  and  C_20
                            x       y       z     vdW  Elec       q    Type
                         _______ _______ _______ _____ _____    ______ ____

>  <TORSDO>
F 7

$$$$
=
 OpenBabel11052422263D

 31 35  0  0  1  0  0  0  0  0999 V2000
  159.7860  210.7670  154.1000 N   0  0  0  0  0  0  0  0  0  0  0  0
  160.1640  209.6590  154.8600 C   0  0  0  0  0  0  0  0  0  0  0  0
  160.3190  207.1540  155.0440 C   0  0  0  0  0  3  0  0  0  0  0  0
  159.4230  211.8920  153.3750 C   0  0  2  0  0  0  0  0  0  0  0  0
  159.9890  208.4260  154.3990 C   0  0  0  0  0  3  0  0  0  0  0  0
  160.8610  211.5040  156.5170 C   0  0  0  0  0  3  0  0  0  0  0  0
  160.8620  206.9360  156.2370 C   0  0  0  0  0  3  0  0  0  0  0  0
  159.9750  212.1620  154.6050 C   0  0  0  0  0  0  0  0  0  0  0  0
  161.2890  207.9010  157.2560 C   0  0  0  0  0  3  0  0  0  0  0  0
  160.4470  212.6480  155.6750 N   0  0  0  0  0  0  0  0  0  0  0  0
  160.7540  210.1360  156.1950 C   0  0  0  0  0  0  0  0  0  0  0  0
  161.2450  209.2300  157.2390 C   0  0  0  0  0  3  0  0  0  0  0  0
  156.2760  213.7870  153.7270 N   0  0  0  0  0  0  0  0  0  0  0  0
  155.9270  212.5530  154.4180 C   0  0  0  0  0  2  0  0  0  0  0  0
  155.1820  214.0880  152.8200 C   0  0  0  0  0  1  0  0  0  0  0  0
  157.4450  213.4940  152.9040 C   0  0  0  0  0  2  0  0  0  0  0  0
  157.9020  212.0710  153.2050 C   0  0  2  0  0  3  0  0  0  0  0  0
  157.1600  211.6870  154.4560 C   0  0  0  0  0  2  0  0  0  0  0  0
  160.3390  212.1430  152.1870 C   0  0  0  0  0  2  0  0  0  0  0  0
  161.2190  210.9260  151.9290 C   0  0  0  0  0  2  0  0  0  0  0  0
  161.3670  210.6230  150.4370 C   0  0  1  0  0  3  0  0  0  0  0  0
  161.6310  211.6910  148.2010 C   0  0  0  0  0  1  0  0  0  0  0  0
  161.8750  211.8450  149.6900 C   0  0  0  0  0  2  0  0  0  0  0  0
  162.2600  209.4870  150.2170 N   0  0  0  0  0  2  0  0  0  0  0  0
  161.1260  206.4740  148.4250 C   0  0  0  0  0  0  0  0  0  0  0  0
  161.0440  206.0220  150.7890 C   0  0  0  0  0  3  0  0  0  0  0  0
  160.9070  206.0450  147.0190 C   0  0  0  0  0  1  0  0  0  0  0  0
  161.5930  207.7240  148.6880 N   0  0  0  0  0  0  0  0  0  0  0  0
  161.5250  207.3080  151.0380 C   0  0  0  0  0  3  0  0  0  0  0  0
  161.7970  208.1580  149.9640 C   0  0  0  0  0  0  0  0  0  0  0  0
  160.8400  205.5990  149.4750 C   0  0  0  0  0  3  0  0  0  0  0  0
  1  8  1  0  0  0  0
  1  2  1  0  0  0  0
  2 11  1  0  0  0  0
  3  7  2  0  0  0  0
  4 19  1  6  0  0  0
  4  1  1  0  0  0  0
  4  8  1  0  0  0  0
  5  2  2  0  0  0  0
  5  3  1  0  0  0  0
  7  9  1  0  0  0  0
  8 10  2  0  0  0  0
 10  6  1  0  0  0  0
 11  6  2  0  0  0  0
 11 12  1  0  0  0  0
 12  9  2  0  0  0  0
 13 14  1  0  0  0  0
 14 18  1  0  0  0  0
 15 13  1  0  0  0  0
 16 13  1  0  0  0  0
 17 16  1  1  0  0  0
 17  4  1  0  0  0  0
 17 18  1  0  0  0  0
 20 19  1  0  0  0  0
 21 23  1  6  0  0  0
 21 20  1  0  0  0  0
 22 23  1  0  0  0  0
 24 21  1  0  0  0  0
 25 28  1  0  0  0  0
 25 31  2  0  0  0  0
 26 29  2  0  0  0  0
 27 25  1  0  0  0  0
 28 30  2  0  0  0  0
 30 24  1  0  0  0  0
 30 29  1  0  0  0  0
 31 26  1  0  0  0  0
M  END
>  <MODEL>
9

>  <REMARK>
 VINA RESULT:      -6.0      2.243      5.361
  Name = 
  7 active torsions:
  status: ('A' for Active; 'I' for Inactive)
    1  A    between atoms: N_3  and  C_9
    2  A    between atoms: N_3  and  C_22
    3  A    between atoms: C_9  and  C_15
    4  A    between atoms: C_9  and  C_23
    5  A    between atoms: C_12  and  C_20
    6  A    between atoms: C_12  and  C_27
    7  A    between atoms: C_15  and  C_20
                            x       y       z     vdW  Elec       q    Type
                         _______ _______ _______ _____ _____    ______ ____

>  <TORSDO>
F 7

$$$$
