=
 OpenBabel11062410263D

 43 48  0  0  1  0  0  0  0  0999 V2000
  160.9510  202.3650  149.2140 C   0  0  0  0  0  0  0  0  0  0  0  0
  161.2520  206.6780  151.8420 C   0  0  0  0  0  0  0  0  0  0  0  0
  161.6690  208.6760  149.9480 C   0  0  0  0  0  0  0  0  0  0  0  0
  160.9900  204.0160  150.9870 C   0  0  0  0  0  0  0  0  0  0  0  0
  161.1630  203.3700  148.2670 C   0  0  0  0  0  3  0  0  0  0  0  0
  160.8180  200.9510  148.7770 C   0  0  0  0  0  1  0  0  0  0  0  0
  161.2000  205.0400  150.0320 C   0  0  0  0  0  0  0  0  0  0  0  0
  160.8660  202.6870  150.5710 C   0  0  0  0  0  3  0  0  0  0  0  0
  161.2870  204.7010  148.6730 C   0  0  0  0  0  3  0  0  0  0  0  0
  161.5220  207.3790  149.5610 N   0  0  0  0  0  0  0  0  0  0  0  0
  161.3250  206.3750  150.4600 C   0  0  0  0  0  0  0  0  0  0  0  0
  161.0430  205.6510  152.7710 C   0  0  0  0  0  3  0  0  0  0  0  0
  161.3930  208.0080  152.2620 C   0  0  0  0  0  0  0  0  0  0  0  0
  161.6020  209.0090  151.3020 C   0  0  0  0  0  3  0  0  0  0  0  0
  160.9120  204.3270  152.3450 C   0  0  0  0  0  3  0  0  0  0  0  0
  161.8790  209.7680  148.9420 C   0  0  2  0  0  3  0  0  0  0  0  0
  162.8280  209.3960  147.9820 O   0  0  0  0  0  1  0  0  0  0  0  0
  162.1870  211.0630  149.5650 N   0  0  0  0  0  2  0  0  0  0  0  0
  161.8410  212.1770  148.6850 C   0  0  1  0  0  3  0  0  0  0  0  0
  163.1070  212.7150  148.0460 C   0  0  0  0  0  1  0  0  0  0  0  0
  160.8740  211.7060  147.6100 C   0  0  0  0  0  2  0  0  0  0  0  0
  160.2620  212.8450  146.9380 N   0  0  0  0  0  0  0  0  0  0  0  0
  158.5040  212.9340  145.2790 C   0  0  0  0  0  2  0  0  0  0  0  0
  159.0050  213.1330  147.6140 C   0  0  0  0  0  2  0  0  0  0  0  0
  159.8910  212.4050  145.5970 C   0  0  1  0  0  3  0  0  0  0  0  0
  158.0140  213.5660  146.5580 C   0  0  0  0  0  2  0  0  0  0  0  0
  161.0070  212.2790  143.3100 C   0  0  0  0  0  0  0  0  0  0  0  0
  160.9020  212.8610  144.5860 C   0  0  0  0  0  0  0  0  0  0  0  0
  163.6770  214.2020  141.8310 F   0  0  0  0  0  0  0  0  0  0  0  0
  162.7000  214.3690  143.9970 C   0  0  0  0  0  3  0  0  0  0  0  0
  162.7710  213.7670  142.7400 C   0  0  0  0  0  0  0  0  0  0  0  0
  161.7610  213.9120  144.9200 C   0  0  0  0  0  3  0  0  0  0  0  0
  161.9300  212.7450  142.4260 N   0  0  0  0  0  0  0  0  0  0  0  0
  160.1890  211.2610  142.9420 F   0  0  0  0  0  0  0  0  0  0  0  0
  161.3330  208.3200  153.6280 O   0  0  0  0  0  0  0  0  0  0  0  0
  159.9400  211.7320  154.3680 C   0  0  0  0  0  2  0  0  0  0  0  0
  160.2410  211.7480  155.8690 C   0  0  1  0  0  3  0  0  0  0  0  0
  161.5820  209.6410  155.6240 C   0  0  0  0  0  2  0  0  0  0  0  0
  159.9610  210.3010  153.8390 C   0  0  0  0  0  2  0  0  0  0  0  0
  161.3170  209.6540  154.1220 C   0  0  2  0  0  3  0  0  0  0  0  0
  161.5790  211.0670  156.1690 C   0  0  0  0  0  2  0  0  0  0  0  0
  159.1950  214.0540  155.7050 C   0  0  0  0  0  1  0  0  0  0  0  0
  160.1980  213.1670  156.4320 C   0  0  0  0  0  2  0  0  0  0  0  0
  1  8  1  0  0  0  0
  2 13  1  0  0  0  0
  2 12  1  0  0  0  0
  3 14  1  0  0  0  0
  4 15  1  0  0  0  0
  5  9  1  0  0  0  0
  5  1  2  0  0  0  0
  6  1  1  0  0  0  0
  7 11  1  0  0  0  0
  7  4  1  0  0  0  0
  8  4  2  0  0  0  0
  9  7  2  0  0  0  0
 10  3  2  0  0  0  0
 10 11  1  0  0  0  0
 11  2  2  0  0  0  0
 13 35  1  0  0  0  0
 14 13  2  0  0  0  0
 15 12  2  0  0  0  0
 16 17  1  6  0  0  0
 16 18  1  0  0  0  0
 16  3  1  0  0  0  0
 19 20  1  6  0  0  0
 19 18  1  0  0  0  0
 21 19  1  0  0  0  0
 22 21  1  0  0  0  0
 22 24  1  0  0  0  0
 23 25  1  0  0  0  0
 23 26  1  0  0  0  0
 25 28  1  6  0  0  0
 25 22  1  0  0  0  0
 26 24  1  0  0  0  0
 27 28  1  0  0  0  0
 28 32  2  0  0  0  0
 29 31  1  0  0  0  0
 30 32  1  0  0  0  0
 31 30  2  0  0  0  0
 33 31  1  0  0  0  0
 33 27  2  0  0  0  0
 34 27  1  0  0  0  0
 36 37  1  0  0  0  0
 37 41  1  0  0  0  0
 37 43  1  6  0  0  0
 38 41  1  0  0  0  0
 39 40  1  0  0  0  0
 39 36  1  0  0  0  0
 40 35  1  1  0  0  0
 40 38  1  0  0  0  0
 42 43  1  0  0  0  0
M  END
>  <MODEL>
1

>  <REMARK>
 VINA RESULT:      -9.8      0.000      0.000
  Name = 
  9 active torsions:
  status: ('A' for Active; 'I' for Inactive)
    1  A    between atoms: O_1  and  C_34
    2  A    between atoms: O_1  and  C_35
    3  A    between atoms: C_2  and  N_6
    4  A    between atoms: C_2  and  C_13
    5  A    between atoms: C_3  and  N_4
    6  A    between atoms: C_3  and  C_12
    7  A    between atoms: N_6  and  C_12
    8  A    between atoms: C_14  and  C_22
    9  A    between atoms: C_19  and  C_37
                            x       y       z     vdW  Elec       q    Type
                         _______ _______ _______ _____ _____    ______ ____

>  <TORSDO>
F 9

$$$$
=
 OpenBabel11062410263D

 43 48  0  0  1  0  0  0  0  0999 V2000
  161.2300  204.1560  148.5660 C   0  0  0  0  0  0  0  0  0  0  0  0
  161.5970  208.4770  151.1710 C   0  0  0  0  0  0  0  0  0  0  0  0
  161.9830  210.4670  149.2630 C   0  0  0  0  0  0  0  0  0  0  0  0
  161.3090  205.8130  150.3320 C   0  0  0  0  0  0  0  0  0  0  0  0
  161.4260  205.1560  147.6110 C   0  0  0  0  0  3  0  0  0  0  0  0
  161.0840  202.7400  148.1370 C   0  0  0  0  0  1  0  0  0  0  0  0
  161.5040  206.8330  149.3690 C   0  0  0  0  0  0  0  0  0  0  0  0
  161.1730  204.4830  149.9240 C   0  0  0  0  0  3  0  0  0  0  0  0
  161.5630  206.4880  148.0100 C   0  0  0  0  0  3  0  0  0  0  0  0
  161.8240  209.1690  148.8840 N   0  0  0  0  0  0  0  0  0  0  0  0
  161.6410  208.1690  149.7900 C   0  0  0  0  0  0  0  0  0  0  0  0
  161.4040  207.4540  152.1080 C   0  0  0  0  0  3  0  0  0  0  0  0
  161.7510  209.8090  151.5840 C   0  0  0  0  0  0  0  0  0  0  0  0
  161.9440  210.8050  150.6160 C   0  0  0  0  0  3  0  0  0  0  0  0
  161.2600  206.1290  151.6900 C   0  0  0  0  0  3  0  0  0  0  0  0
  162.1760  211.5550  148.2490 C   0  0  2  0  0  3  0  0  0  0  0  0
  163.4800  211.5440  147.7360 O   0  0  0  0  0  1  0  0  0  0  0  0
  161.7820  212.8780  148.7520 N   0  0  0  0  0  2  0  0  0  0  0  0
  160.4500  213.2540  148.2850 C   0  0  1  0  0  3  0  0  0  0  0  0
  159.6000  213.6520  149.4770 C   0  0  0  0  0  1  0  0  0  0  0  0
  160.5530  214.4150  147.3080 C   0  0  0  0  0  2  0  0  0  0  0  0
  159.6080  214.2470  146.2120 N   0  0  0  0  0  0  0  0  0  0  0  0
  158.2360  212.3520  145.5950 C   0  0  0  0  0  2  0  0  0  0  0  0
  158.2700  214.4520  146.7480 C   0  0  0  0  0  2  0  0  0  0  0  0
  159.6560  212.8440  145.8130 C   0  0  1  0  0  3  0  0  0  0  0  0
  157.3470  213.4860  146.0430 C   0  0  0  0  0  2  0  0  0  0  0  0
  161.8700  212.9740  144.5580 C   0  0  0  0  0  0  0  0  0  0  0  0
  160.4980  212.6650  144.5840 C   0  0  0  0  0  0  0  0  0  0  0  0
  162.7660  212.1010  141.1750 F   0  0  0  0  0  0  0  0  0  0  0  0
  160.6560  211.9700  142.2720 C   0  0  0  0  0  3  0  0  0  0  0  0
  162.0150  212.2850  142.2880 C   0  0  0  0  0  0  0  0  0  0  0  0
  159.8980  212.1620  143.4260 C   0  0  0  0  0  3  0  0  0  0  0  0
  162.5880  212.7750  143.4200 N   0  0  0  0  0  0  0  0  0  0  0  0
  162.4930  213.4590  145.6610 F   0  0  0  0  0  0  0  0  0  0  0  0
  161.7190  210.1250  152.9500 O   0  0  0  0  0  0  0  0  0  0  0  0
  158.4300  211.8070  153.6430 C   0  0  0  0  0  2  0  0  0  0  0  0
  158.5170  211.7900  155.1710 C   0  0  1  0  0  3  0  0  0  0  0  0
  160.9000  211.0180  155.0290 C   0  0  0  0  0  2  0  0  0  0  0  0
  159.3950  210.7860  153.0470 C   0  0  0  0  0  2  0  0  0  0  0  0
  160.8230  211.0790  153.5070 C   0  0  2  0  0  3  0  0  0  0  0  0
  159.9510  212.0440  155.6430 C   0  0  0  0  0  2  0  0  0  0  0  0
  156.3020  212.1030  156.3710 C   0  0  0  0  0  1  0  0  0  0  0  0
  157.5390  212.7830  155.7970 C   0  0  0  0  0  2  0  0  0  0  0  0
  1  8  1  0  0  0  0
  2 13  1  0  0  0  0
  2 12  1  0  0  0  0
  3 14  1  0  0  0  0
  4 15  1  0  0  0  0
  5  9  1  0  0  0  0
  5  1  2  0  0  0  0
  6  1  1  0  0  0  0
  7 11  1  0  0  0  0
  7  4  1  0  0  0  0
  8  4  2  0  0  0  0
  9  7  2  0  0  0  0
 10  3  2  0  0  0  0
 10 11  1  0  0  0  0
 11  2  2  0  0  0  0
 13 35  1  0  0  0  0
 14 13  2  0  0  0  0
 15 12  2  0  0  0  0
 16 17  1  1  0  0  0
 16 18  1  0  0  0  0
 16  3  1  0  0  0  0
 19 18  1  0  0  0  0
 19 20  1  1  0  0  0
 21 19  1  0  0  0  0
 22 24  1  0  0  0  0
 22 21  1  0  0  0  0
 23 25  1  0  0  0  0
 23 26  1  0  0  0  0
 25 28  1  6  0  0  0
 25 22  1  0  0  0  0
 26 24  1  0  0  0  0
 27 28  1  0  0  0  0
 27 34  1  0  0  0  0
 29 31  1  0  0  0  0
 30 31  2  0  0  0  0
 30 32  1  0  0  0  0
 31 33  1  0  0  0  0
 32 28  2  0  0  0  0
 33 27  2  0  0  0  0
 36 37  1  0  0  0  0
 37 41  1  0  0  0  0
 37 43  1  1  0  0  0
 38 41  1  0  0  0  0
 39 40  1  0  0  0  0
 39 36  1  0  0  0  0
 40 35  1  6  0  0  0
 40 38  1  0  0  0  0
 43 42  1  0  0  0  0
M  END
>  <MODEL>
2

>  <REMARK>
 VINA RESULT:      -9.5      1.558      2.135
  Name = 
  9 active torsions:
  status: ('A' for Active; 'I' for Inactive)
    1  A    between atoms: O_1  and  C_34
    2  A    between atoms: O_1  and  C_35
    3  A    between atoms: C_2  and  N_6
    4  A    between atoms: C_2  and  C_13
    5  A    between atoms: C_3  and  N_4
    6  A    between atoms: C_3  and  C_12
    7  A    between atoms: N_6  and  C_12
    8  A    between atoms: C_14  and  C_22
    9  A    between atoms: C_19  and  C_37
                            x       y       z     vdW  Elec       q    Type
                         _______ _______ _______ _____ _____    ______ ____

>  <TORSDO>
F 9

$$$$
=
 OpenBabel11062410263D

 43 48  0  0  1  0  0  0  0  0999 V2000
  161.3250  204.0360  147.6160 C   0  0  0  0  0  0  0  0  0  0  0  0
  161.5910  208.0570  150.6750 C   0  0  0  0  0  0  0  0  0  0  0  0
  162.0900  210.2300  149.0070 C   0  0  0  0  0  0  0  0  0  0  0  0
  161.3260  205.4990  149.5470 C   0  0  0  0  0  0  0  0  0  0  0  0
  161.5780  205.1270  146.7830 C   0  0  0  0  0  3  0  0  0  0  0  0
  161.1900  202.6740  147.0350 C   0  0  0  0  0  1  0  0  0  0  0  0
  161.5780  206.6110  148.7080 C   0  0  0  0  0  0  0  0  0  0  0  0
  161.2010  204.2200  148.9960 C   0  0  0  0  0  3  0  0  0  0  0  0
  161.7040  206.4090  147.3250 C   0  0  0  0  0  3  0  0  0  0  0  0
  161.9410  208.9800  148.4870 N   0  0  0  0  0  0  0  0  0  0  0  0
  161.7040  207.8940  149.2730 C   0  0  0  0  0  0  0  0  0  0  0  0
  161.3410  206.9440  151.4890 C   0  0  0  0  0  3  0  0  0  0  0  0
  161.7330  209.3360  151.2320 C   0  0  0  0  0  0  0  0  0  0  0  0
  161.9840  210.4250  150.3850 C   0  0  0  0  0  3  0  0  0  0  0  0
  161.2090  205.6720  150.9280 C   0  0  0  0  0  3  0  0  0  0  0  0
  162.3440  211.4140  148.1230 C   0  0  2  0  0  3  0  0  0  0  0  0
  163.3380  212.2430  148.6590 O   0  0  0  0  0  1  0  0  0  0  0  0
  161.1150  212.1510  147.7940 N   0  0  0  0  0  2  0  0  0  0  0  0
  161.4120  213.4220  147.1380 C   0  0  1  0  0  3  0  0  0  0  0  0
  162.1360  213.1490  145.8330 C   0  0  0  0  0  1  0  0  0  0  0  0
  160.1200  214.1790  146.8690 C   0  0  0  0  0  2  0  0  0  0  0  0
  158.9660  213.3480  147.1860 N   0  0  0  0  0  0  0  0  0  0  0  0
  156.6010  213.7680  146.9040 C   0  0  0  0  0  2  0  0  0  0  0  0
  158.5290  212.7110  145.9520 C   0  0  0  0  0  2  0  0  0  0  0  0
  157.8810  214.2450  147.5670 C   0  0  1  0  0  3  0  0  0  0  0  0
  157.0190  212.6450  145.9880 C   0  0  0  0  0  2  0  0  0  0  0  0
  156.4870  214.3880  149.6960 C   0  0  0  0  0  0  0  0  0  0  0  0
  157.7390  214.3110  149.0590 C   0  0  0  0  0  0  0  0  0  0  0  0
  157.4230  214.4390  153.1790 F   0  0  0  0  0  0  0  0  0  0  0  0
  158.7960  214.3250  151.2360 C   0  0  0  0  0  3  0  0  0  0  0  0
  157.5350  214.3990  151.8290 C   0  0  0  0  0  0  0  0  0  0  0  0
  158.8940  214.2810  149.8460 C   0  0  0  0  0  3  0  0  0  0  0  0
  156.4180  214.4280  151.0540 N   0  0  0  0  0  0  0  0  0  0  0  0
  155.3410  214.4140  148.9710 F   0  0  0  0  0  0  0  0  0  0  0  0
  161.6340  209.5100  152.6200 O   0  0  0  0  0  0  0  0  0  0  0  0
  159.3260  210.2020  155.5050 C   0  0  0  0  0  2  0  0  0  0  0  0
  158.6380  211.4370  154.9170 C   0  0  1  0  0  3  0  0  0  0  0  0
  159.7540  211.0090  152.7100 C   0  0  0  0  0  2  0  0  0  0  0  0
  160.6450  209.9370  154.7850 C   0  0  0  0  0  2  0  0  0  0  0  0
  160.4020  209.7540  153.2870 C   0  0  2  0  0  3  0  0  0  0  0  0
  158.4240  211.2810  153.4090 C   0  0  0  0  0  2  0  0  0  0  0  0
  156.1550  210.9420  155.0830 C   0  0  0  0  0  1  0  0  0  0  0  0
  157.3270  211.7420  155.6380 C   0  0  0  0  0  2  0  0  0  0  0  0
  1  8  1  0  0  0  0
  2 13  1  0  0  0  0
  2 12  1  0  0  0  0
  3 14  1  0  0  0  0
  4 15  1  0  0  0  0
  5  9  1  0  0  0  0
  5  1  2  0  0  0  0
  6  1  1  0  0  0  0
  7 11  1  0  0  0  0
  7  4  1  0  0  0  0
  8  4  2  0  0  0  0
  9  7  2  0  0  0  0
 10  3  2  0  0  0  0
 10 11  1  0  0  0  0
 11  2  2  0  0  0  0
 13 35  1  0  0  0  0
 14 13  2  0  0  0  0
 15 12  2  0  0  0  0
 16 17  1  1  0  0  0
 16  3  1  0  0  0  0
 18 16  1  0  0  0  0
 19 20  1  6  0  0  0
 19 18  1  0  0  0  0
 21 19  1  0  0  0  0
 21 22  1  0  0  0  0
 22 25  1  0  0  0  0
 23 25  1  0  0  0  0
 24 26  1  0  0  0  0
 24 22  1  0  0  0  0
 25 28  1  1  0  0  0
 26 23  1  0  0  0  0
 27 33  1  0  0  0  0
 28 27  2  0  0  0  0
 28 32  1  0  0  0  0
 30 31  1  0  0  0  0
 31 29  1  0  0  0  0
 32 30  2  0  0  0  0
 33 31  2  0  0  0  0
 34 27  1  0  0  0  0
 37 36  1  0  0  0  0
 37 43  1  1  0  0  0
 38 40  1  0  0  0  0
 38 41  1  0  0  0  0
 39 36  1  0  0  0  0
 40 35  1  6  0  0  0
 40 39  1  0  0  0  0
 41 37  1  0  0  0  0
 42 43  1  0  0  0  0
M  END
>  <MODEL>
3

>  <REMARK>
 VINA RESULT:      -9.0      2.953      4.454
  Name = 
  9 active torsions:
  status: ('A' for Active; 'I' for Inactive)
    1  A    between atoms: O_1  and  C_34
    2  A    between atoms: O_1  and  C_35
    3  A    between atoms: C_2  and  N_6
    4  A    between atoms: C_2  and  C_13
    5  A    between atoms: C_3  and  N_4
    6  A    between atoms: C_3  and  C_12
    7  A    between atoms: N_6  and  C_12
    8  A    between atoms: C_14  and  C_22
    9  A    between atoms: C_19  and  C_37
                            x       y       z     vdW  Elec       q    Type
                         _______ _______ _______ _____ _____    ______ ____

>  <TORSDO>
F 9

$$$$
=
 OpenBabel11062410263D

 43 48  0  0  1  0  0  0  0  0999 V2000
  161.0670  203.5630  148.4540 C   0  0  0  0  0  0  0  0  0  0  0  0
  161.8240  208.3820  149.7960 C   0  0  0  0  0  0  0  0  0  0  0  0
  161.4390  208.4570  152.5530 C   0  0  0  0  0  0  0  0  0  0  0  0
  161.5450  205.9380  148.4410 C   0  0  0  0  0  0  0  0  0  0  0  0
  160.8720  203.6050  149.8360 C   0  0  0  0  0  3  0  0  0  0  0  0
  160.9150  202.2790  147.7220 C   0  0  0  0  0  1  0  0  0  0  0  0
  161.3540  205.9870  149.8430 C   0  0  0  0  0  0  0  0  0  0  0  0
  161.4010  204.7280  147.7570 C   0  0  0  0  0  3  0  0  0  0  0  0
  161.0140  204.8100  150.5280 C   0  0  0  0  0  3  0  0  0  0  0  0
  161.3270  207.2830  151.8720 N   0  0  0  0  0  0  0  0  0  0  0  0
  161.5000  207.2110  150.5230 C   0  0  0  0  0  0  0  0  0  0  0  0
  162.0090  208.3140  148.4090 C   0  0  0  0  0  3  0  0  0  0  0  0
  161.9520  209.6010  150.4780 C   0  0  0  0  0  0  0  0  0  0  0  0
  161.7570  209.6300  151.8670 C   0  0  0  0  0  3  0  0  0  0  0  0
  161.8720  207.0980  147.7360 C   0  0  0  0  0  3  0  0  0  0  0  0
  161.2510  208.5140  154.0390 C   0  0  2  0  0  3  0  0  0  0  0  0
  160.9930  207.2420  154.5660 O   0  0  0  0  0  1  0  0  0  0  0  0
  160.2460  209.5060  154.4470 N   0  0  0  0  0  2  0  0  0  0  0  0
  160.8060  210.4870  155.3730 C   0  0  1  0  0  3  0  0  0  0  0  0
  162.3210  210.3980  155.3330 C   0  0  0  0  0  1  0  0  0  0  0  0
  160.3560  211.8850  154.9790 C   0  0  0  0  0  2  0  0  0  0  0  0
  159.2830  211.8180  153.9950 N   0  0  0  0  0  0  0  0  0  0  0  0
  157.7300  213.5130  153.2430 C   0  0  0  0  0  2  0  0  0  0  0  0
  159.7870  212.3870  152.7530 C   0  0  0  0  0  2  0  0  0  0  0  0
  158.2330  212.7270  154.4410 C   0  0  1  0  0  3  0  0  0  0  0  0
  158.6470  213.1390  152.1060 C   0  0  0  0  0  2  0  0  0  0  0  0
  156.8120  212.1410  156.4750 C   0  0  0  0  0  0  0  0  0  0  0  0
  157.1220  211.9730  155.1130 C   0  0  0  0  0  0  0  0  0  0  0  0
  154.0170  209.8990  156.8850 F   0  0  0  0  0  0  0  0  0  0  0  0
  155.3110  210.3760  154.9440 C   0  0  0  0  0  3  0  0  0  0  0  0
  155.0340  210.5740  156.2970 C   0  0  0  0  0  0  0  0  0  0  0  0
  156.3600  211.0810  154.3530 C   0  0  0  0  0  3  0  0  0  0  0  0
  155.7830  211.4440  157.0270 N   0  0  0  0  0  0  0  0  0  0  0  0
  157.5230  213.0010  157.2470 F   0  0  0  0  0  0  0  0  0  0  0  0
  162.2620  210.7700  149.7690 O   0  0  0  0  0  0  0  0  0  0  0  0
  160.2830  213.7640  148.6500 C   0  0  0  0  0  2  0  0  0  0  0  0
  160.5650  213.6390  147.1510 C   0  0  1  0  0  3  0  0  0  0  0  0
  161.6230  211.3970  147.5350 C   0  0  0  0  0  2  0  0  0  0  0  0
  161.3130  212.9720  149.4510 C   0  0  0  0  0  2  0  0  0  0  0  0
  161.3000  211.5050  149.0220 C   0  0  2  0  0  3  0  0  0  0  0  0
  160.5920  212.1720  146.7170 C   0  0  0  0  0  2  0  0  0  0  0  0
  158.5980  213.5610  145.5500 C   0  0  0  0  0  1  0  0  0  0  0  0
  159.5640  214.4470  146.3260 C   0  0  0  0  0  2  0  0  0  0  0  0
  1  5  1  0  0  0  0
  2 13  2  0  0  0  0
  2 11  1  0  0  0  0
  3 16  1  0  0  0  0
  4  7  2  0  0  0  0
  5  9  2  0  0  0  0
  6  1  1  0  0  0  0
  7 11  1  0  0  0  0
  7  9  1  0  0  0  0
  8  4  1  0  0  0  0
  8  1  2  0  0  0  0
 10  3  1  0  0  0  0
 11 10  2  0  0  0  0
 12  2  1  0  0  0  0
 13 14  1  0  0  0  0
 14  3  2  0  0  0  0
 15 12  2  0  0  0  0
 15  4  1  0  0  0  0
 16 18  1  0  0  0  0
 16 17  1  6  0  0  0
 18 19  1  0  0  0  0
 19 20  1  6  0  0  0
 21 19  1  0  0  0  0
 22 25  1  0  0  0  0
 22 21  1  0  0  0  0
 23 25  1  0  0  0  0
 24 22  1  0  0  0  0
 25 28  1  6  0  0  0
 26 24  1  0  0  0  0
 26 23  1  0  0  0  0
 27 33  1  0  0  0  0
 27 34  1  0  0  0  0
 28 27  2  0  0  0  0
 30 31  1  0  0  0  0
 31 29  1  0  0  0  0
 31 33  2  0  0  0  0
 32 30  2  0  0  0  0
 32 28  1  0  0  0  0
 35 13  1  0  0  0  0
 36 39  1  0  0  0  0
 37 43  1  6  0  0  0
 37 36  1  0  0  0  0
 38 40  1  0  0  0  0
 40 39  1  0  0  0  0
 40 35  1  1  0  0  0
 41 37  1  0  0  0  0
 41 38  1  0  0  0  0
 42 43  1  0  0  0  0
M  END
>  <MODEL>
4

>  <REMARK>
 VINA RESULT:      -8.9      4.341      8.218
  Name = 
  9 active torsions:
  status: ('A' for Active; 'I' for Inactive)
    1  A    between atoms: O_1  and  C_34
    2  A    between atoms: O_1  and  C_35
    3  A    between atoms: C_2  and  N_6
    4  A    between atoms: C_2  and  C_13
    5  A    between atoms: C_3  and  N_4
    6  A    between atoms: C_3  and  C_12
    7  A    between atoms: N_6  and  C_12
    8  A    between atoms: C_14  and  C_22
    9  A    between atoms: C_19  and  C_37
                            x       y       z     vdW  Elec       q    Type
                         _______ _______ _______ _____ _____    ______ ____

>  <TORSDO>
F 9

$$$$
=
 OpenBabel11062410263D

 43 48  0  0  1  0  0  0  0  0999 V2000
  161.3870  204.1290  146.7470 C   0  0  0  0  0  0  0  0  0  0  0  0
  161.5510  207.0260  150.8910 C   0  0  0  0  0  0  0  0  0  0  0  0
  161.8690  209.6330  149.9650 C   0  0  0  0  0  0  0  0  0  0  0  0
  161.3820  204.9260  149.0350 C   0  0  0  0  0  0  0  0  0  0  0  0
  161.5490  205.4370  146.2860 C   0  0  0  0  0  3  0  0  0  0  0  0
  161.3050  203.0060  145.7760 C   0  0  0  0  0  1  0  0  0  0  0  0
  161.5420  206.2550  148.5740 C   0  0  0  0  0  0  0  0  0  0  0  0
  161.3060  203.8730  148.1180 C   0  0  0  0  0  3  0  0  0  0  0  0
  161.6270  206.4960  147.1950 C   0  0  0  0  0  3  0  0  0  0  0  0
  161.7680  208.5970  149.0880 N   0  0  0  0  0  0  0  0  0  0  0  0
  161.6200  207.3090  149.5050 C   0  0  0  0  0  0  0  0  0  0  0  0
  161.3930  205.7050  151.3260 C   0  0  0  0  0  3  0  0  0  0  0  0
  161.6450  208.0800  151.8120 C   0  0  0  0  0  0  0  0  0  0  0  0
  161.8050  209.3890  151.3380 C   0  0  0  0  0  3  0  0  0  0  0  0
  161.3080  204.6600  150.4030 C   0  0  0  0  0  3  0  0  0  0  0  0
  162.0250  211.0450  149.4850 C   0  0  2  0  0  3  0  0  0  0  0  0
  161.2910  211.9340  150.2800 O   0  0  0  0  0  1  0  0  0  0  0  0
  161.7280  211.1940  148.0530 N   0  0  0  0  0  2  0  0  0  0  0  0
  161.6870  212.6000  147.6580 C   0  0  1  0  0  3  0  0  0  0  0  0
  163.0600  213.2130  147.8650 C   0  0  0  0  0  1  0  0  0  0  0  0
  161.2800  212.7150  146.1970 C   0  0  0  0  0  2  0  0  0  0  0  0
  160.0070  213.4120  146.0740 N   0  0  0  0  0  0  0  0  0  0  0  0
  157.7440  212.5570  146.0230 C   0  0  0  0  0  2  0  0  0  0  0  0
  159.4380  213.5310  147.4100 C   0  0  0  0  0  2  0  0  0  0  0  0
  159.1020  212.5310  145.3440 C   0  0  1  0  0  3  0  0  0  0  0  0
  157.9420  213.3670  147.2800 C   0  0  0  0  0  2  0  0  0  0  0  0
  159.6580  212.2310  142.8750 C   0  0  0  0  0  0  0  0  0  0  0  0
  159.0070  212.9370  143.9020 C   0  0  0  0  0  0  0  0  0  0  0  0
  158.6590  214.0860  139.9470 F   0  0  0  0  0  0  0  0  0  0  0  0
  158.1100  214.4460  142.2360 C   0  0  0  0  0  3  0  0  0  0  0  0
  158.7700  213.7160  141.2460 C   0  0  0  0  0  0  0  0  0  0  0  0
  158.2320  214.0510  143.5680 C   0  0  0  0  0  3  0  0  0  0  0  0
  159.5220  212.6350  141.5820 N   0  0  0  0  0  0  0  0  0  0  0  0
  160.4160  211.1410  143.1540 F   0  0  0  0  0  0  0  0  0  0  0  0
  161.5890  207.8120  153.1880 O   0  0  0  0  0  0  0  0  0  0  0  0
  159.9790  210.9550  154.4770 C   0  0  0  0  0  2  0  0  0  0  0  0
  159.0460  210.2960  155.4960 C   0  0  1  0  0  3  0  0  0  0  0  0
  160.1960  208.0960  155.1300 C   0  0  0  0  0  2  0  0  0  0  0  0
  160.4490  209.9300  153.4490 C   0  0  0  0  0  2  0  0  0  0  0  0
  161.1530  208.7660  154.1480 C   0  0  2  0  0  3  0  0  0  0  0  0
  159.7270  209.1050  156.1750 C   0  0  0  0  0  2  0  0  0  0  0  0
  157.5420  212.2950  155.9250 C   0  0  0  0  0  1  0  0  0  0  0  0
  158.5370  211.3070  156.5220 C   0  0  0  0  0  2  0  0  0  0  0  0
  1  8  1  0  0  0  0
  2 12  1  0  0  0  0
  2 13  1  0  0  0  0
  3 14  1  0  0  0  0
  4 15  1  0  0  0  0
  5  1  2  0  0  0  0
  5  9  1  0  0  0  0
  6  1  1  0  0  0  0
  7  4  1  0  0  0  0
  7 11  1  0  0  0  0
  8  4  2  0  0  0  0
  9  7  2  0  0  0  0
 10 11  1  0  0  0  0
 10  3  2  0  0  0  0
 11  2  2  0  0  0  0
 13 35  1  0  0  0  0
 14 13  2  0  0  0  0
 15 12  2  0  0  0  0
 16  3  1  0  0  0  0
 16 17  1  1  0  0  0
 18 16  1  0  0  0  0
 19 20  1  6  0  0  0
 19 18  1  0  0  0  0
 21 19  1  0  0  0  0
 22 21  1  0  0  0  0
 22 24  1  0  0  0  0
 23 26  1  0  0  0  0
 25 28  1  6  0  0  0
 25 23  1  0  0  0  0
 25 22  1  0  0  0  0
 26 24  1  0  0  0  0
 27 34  1  0  0  0  0
 27 28  1  0  0  0  0
 29 31  1  0  0  0  0
 30 32  1  0  0  0  0
 31 33  1  0  0  0  0
 31 30  2  0  0  0  0
 32 28  2  0  0  0  0
 33 27  2  0  0  0  0
 36 37  1  0  0  0  0
 37 41  1  0  0  0  0
 37 43  1  1  0  0  0
 38 41  1  0  0  0  0
 39 40  1  0  0  0  0
 39 36  1  0  0  0  0
 40 35  1  6  0  0  0
 40 38  1  0  0  0  0
 42 43  1  0  0  0  0
M  END
>  <MODEL>
5

>  <REMARK>
 VINA RESULT:      -8.6      1.798      2.266
  Name = 
  9 active torsions:
  status: ('A' for Active; 'I' for Inactive)
    1  A    between atoms: O_1  and  C_34
    2  A    between atoms: O_1  and  C_35
    3  A    between atoms: C_2  and  N_6
    4  A    between atoms: C_2  and  C_13
    5  A    between atoms: C_3  and  N_4
    6  A    between atoms: C_3  and  C_12
    7  A    between atoms: N_6  and  C_12
    8  A    between atoms: C_14  and  C_22
    9  A    between atoms: C_19  and  C_37
                            x       y       z     vdW  Elec       q    Type
                         _______ _______ _______ _____ _____    ______ ____

>  <TORSDO>
F 9

$$$$
=
 OpenBabel11062410263D

 43 48  0  0  1  0  0  0  0  0999 V2000
  161.5260  204.5670  146.8520 C   0  0  0  0  0  0  0  0  0  0  0  0
  161.5180  207.7480  150.7860 C   0  0  0  0  0  0  0  0  0  0  0  0
  161.9480  210.2770  149.7010 C   0  0  0  0  0  0  0  0  0  0  0  0
  161.4080  205.5250  149.0750 C   0  0  0  0  0  0  0  0  0  0  0  0
  161.7440  205.8360  146.3120 C   0  0  0  0  0  3  0  0  0  0  0  0
  161.4740  203.3800  145.9600 C   0  0  0  0  0  1  0  0  0  0  0  0
  161.6240  206.8150  148.5330 C   0  0  0  0  0  0  0  0  0  0  0  0
  161.3600  204.4110  148.2310 C   0  0  0  0  0  3  0  0  0  0  0  0
  161.7940  206.9550  147.1470 C   0  0  0  0  0  3  0  0  0  0  0  0
  161.8730  209.1830  148.8940 N   0  0  0  0  0  0  0  0  0  0  0  0
  161.6720  207.9300  149.3910 C   0  0  0  0  0  0  0  0  0  0  0  0
  161.3050  206.4640  151.3030 C   0  0  0  0  0  3  0  0  0  0  0  0
  161.5830  208.8620  151.6360 C   0  0  0  0  0  0  0  0  0  0  0  0
  161.7990  210.1320  151.0820 C   0  0  0  0  0  3  0  0  0  0  0  0
  161.2500  205.3590  150.4520 C   0  0  0  0  0  3  0  0  0  0  0  0
  162.1630  211.6480  149.1340 C   0  0  2  0  0  3  0  0  0  0  0  0
  161.1600  212.5320  149.5530 O   0  0  0  0  0  1  0  0  0  0  0  0
  162.3300  211.6380  147.6740 N   0  0  0  0  0  2  0  0  0  0  0  0
  162.1880  212.9780  147.1090 C   0  0  1  0  0  3  0  0  0  0  0  0
  163.0680  213.9390  147.8870 C   0  0  0  0  0  1  0  0  0  0  0  0
  162.5960  212.9680  145.6440 C   0  0  0  0  0  2  0  0  0  0  0  0
  161.5170  213.4810  144.8100 N   0  0  0  0  0  0  0  0  0  0  0  0
  159.7140  212.3260  143.6850 C   0  0  0  0  0  2  0  0  0  0  0  0
  160.3230  213.5710  145.6390 C   0  0  0  0  0  2  0  0  0  0  0  0
  161.2210  212.4590  143.8120 C   0  0  1  0  0  3  0  0  0  0  0  0
  159.1420  213.2020  144.7710 C   0  0  0  0  0  2  0  0  0  0  0  0
  161.8360  211.9140  141.4000 C   0  0  0  0  0  0  0  0  0  0  0  0
  161.8600  212.7950  142.4960 C   0  0  0  0  0  0  0  0  0  0  0  0
  163.5960  213.8080  138.8850 F   0  0  0  0  0  0  0  0  0  0  0  0
  163.0780  214.3830  141.1360 C   0  0  0  0  0  3  0  0  0  0  0  0
  163.0300  213.4820  140.0720 C   0  0  0  0  0  0  0  0  0  0  0  0
  162.4880  214.0340  142.3510 C   0  0  0  0  0  3  0  0  0  0  0  0
  162.4170  212.2780  140.2240 N   0  0  0  0  0  0  0  0  0  0  0  0
  161.2320  210.7030  141.4950 F   0  0  0  0  0  0  0  0  0  0  0  0
  161.4420  208.6940  153.0210 O   0  0  0  0  0  0  0  0  0  0  0  0
  159.0380  211.3710  154.1110 C   0  0  0  0  0  2  0  0  0  0  0  0
  158.6560  210.7570  155.4600 C   0  0  1  0  0  3  0  0  0  0  0  0
  160.4680  209.0420  155.1940 C   0  0  0  0  0  2  0  0  0  0  0  0
  159.6520  210.3100  153.2010 C   0  0  0  0  0  2  0  0  0  0  0  0
  160.8740  209.6830  153.8710 C   0  0  2  0  0  3  0  0  0  0  0  0
  159.8650  210.0920  156.1230 C   0  0  0  0  0  2  0  0  0  0  0  0
  157.3340  212.9180  155.6120 C   0  0  0  0  0  1  0  0  0  0  0  0
  158.0130  211.7920  156.3810 C   0  0  0  0  0  2  0  0  0  0  0  0
  1  8  1  0  0  0  0
  2 12  1  0  0  0  0
  2 13  1  0  0  0  0
  3 14  1  0  0  0  0
  4 15  1  0  0  0  0
  5  1  2  0  0  0  0
  5  9  1  0  0  0  0
  6  1  1  0  0  0  0
  7  4  1  0  0  0  0
  7 11  1  0  0  0  0
  8  4  2  0  0  0  0
  9  7  2  0  0  0  0
 10 11  1  0  0  0  0
 10  3  2  0  0  0  0
 11  2  2  0  0  0  0
 13 35  1  0  0  0  0
 14 13  2  0  0  0  0
 15 12  2  0  0  0  0
 16 17  1  6  0  0  0
 16  3  1  0  0  0  0
 18 16  1  0  0  0  0
 19 18  1  0  0  0  0
 19 20  1  1  0  0  0
 21 19  1  0  0  0  0
 22 24  1  0  0  0  0
 22 21  1  0  0  0  0
 23 25  1  0  0  0  0
 23 26  1  0  0  0  0
 25 28  1  6  0  0  0
 25 22  1  0  0  0  0
 26 24  1  0  0  0  0
 27 34  1  0  0  0  0
 27 28  1  0  0  0  0
 29 31  1  0  0  0  0
 30 32  1  0  0  0  0
 31 33  1  0  0  0  0
 31 30  2  0  0  0  0
 32 28  2  0  0  0  0
 33 27  2  0  0  0  0
 36 37  1  0  0  0  0
 37 41  1  0  0  0  0
 37 43  1  1  0  0  0
 38 41  1  0  0  0  0
 39 40  1  0  0  0  0
 39 36  1  0  0  0  0
 40 35  1  6  0  0  0
 40 38  1  0  0  0  0
 42 43  1  0  0  0  0
M  END
>  <MODEL>
6

>  <REMARK>
 VINA RESULT:      -8.6      1.770      2.269
  Name = 
  9 active torsions:
  status: ('A' for Active; 'I' for Inactive)
    1  A    between atoms: O_1  and  C_34
    2  A    between atoms: O_1  and  C_35
    3  A    between atoms: C_2  and  N_6
    4  A    between atoms: C_2  and  C_13
    5  A    between atoms: C_3  and  N_4
    6  A    between atoms: C_3  and  C_12
    7  A    between atoms: N_6  and  C_12
    8  A    between atoms: C_14  and  C_22
    9  A    between atoms: C_19  and  C_37
                            x       y       z     vdW  Elec       q    Type
                         _______ _______ _______ _____ _____    ______ ____

>  <TORSDO>
F 9

$$$$
=
 OpenBabel11062410263D

 43 48  0  0  1  0  0  0  0  0999 V2000
  161.2050  200.8720  147.4280 C   0  0  0  0  0  0  0  0  0  0  0  0
  161.2180  204.6730  150.7660 C   0  0  0  0  0  0  0  0  0  0  0  0
  161.2310  207.0030  149.2410 C   0  0  0  0  0  0  0  0  0  0  0  0
  161.2000  202.1860  149.4640 C   0  0  0  0  0  0  0  0  0  0  0  0
  161.2150  202.0420  146.6670 C   0  0  0  0  0  3  0  0  0  0  0  0
  161.2040  199.5480  146.7530 C   0  0  0  0  0  1  0  0  0  0  0  0
  161.2050  203.3760  148.6980 C   0  0  0  0  0  0  0  0  0  0  0  0
  161.2000  200.9430  148.8240 C   0  0  0  0  0  3  0  0  0  0  0  0
  161.2150  203.2890  147.2970 C   0  0  0  0  0  3  0  0  0  0  0  0
  161.2060  205.7830  148.6370 N   0  0  0  0  0  0  0  0  0  0  0  0
  161.2070  204.6230  149.3510 C   0  0  0  0  0  0  0  0  0  0  0  0
  161.2130  203.4840  151.5060 C   0  0  0  0  0  3  0  0  0  0  0  0
  161.2360  205.9190  151.4100 C   0  0  0  0  0  0  0  0  0  0  0  0
  161.2420  207.0880  150.6350 C   0  0  0  0  0  3  0  0  0  0  0  0
  161.2030  202.2470  150.8580 C   0  0  0  0  0  3  0  0  0  0  0  0
  161.2230  208.2690  148.4370 C   0  0  2  0  0  3  0  0  0  0  0  0
  161.1670  207.9960  147.0650 O   0  0  0  0  0  1  0  0  0  0  0  0
  162.3300  209.1710  148.7860 N   0  0  0  0  0  2  0  0  0  0  0  0
  161.8450  210.5020  149.1420 C   0  0  1  0  0  3  0  0  0  0  0  0
  161.9580  210.6850  150.6440 C   0  0  0  0  0  1  0  0  0  0  0  0
  162.6670  211.5610  148.4250 C   0  0  0  0  0  2  0  0  0  0  0  0
  161.8700  212.7580  148.1950 N   0  0  0  0  0  0  0  0  0  0  0  0
  159.5430  213.0060  147.5820 C   0  0  0  0  0  2  0  0  0  0  0  0
  161.0990  213.0140  149.4040 C   0  0  0  0  0  2  0  0  0  0  0  0
  160.8870  212.4310  147.1690 C   0  0  1  0  0  3  0  0  0  0  0  0
  159.7500  213.5440  148.9760 C   0  0  0  0  0  2  0  0  0  0  0  0
  160.7270  212.5180  144.6260 C   0  0  0  0  0  0  0  0  0  0  0  0
  161.3200  212.9480  145.8280 C   0  0  0  0  0  0  0  0  0  0  0  0
  162.5300  214.4530  142.1730 F   0  0  0  0  0  0  0  0  0  0  0  0
  162.7550  214.4130  144.5430 C   0  0  0  0  0  3  0  0  0  0  0  0
  162.1390  213.9630  143.3750 C   0  0  0  0  0  0  0  0  0  0  0  0
  162.3400  213.9020  145.7730 C   0  0  0  0  0  3  0  0  0  0  0  0
  161.1480  213.0340  143.4400 N   0  0  0  0  0  0  0  0  0  0  0  0
  159.7300  211.5980  144.6350 F   0  0  0  0  0  0  0  0  0  0  0  0
  161.2570  205.9830  152.8110 O   0  0  0  0  0  0  0  0  0  0  0  0
  159.7650  207.6790  155.8150 C   0  0  0  0  0  2  0  0  0  0  0  0
  160.5490  208.9890  155.7130 C   0  0  1  0  0  3  0  0  0  0  0  0
  161.4250  208.2910  153.4680 C   0  0  0  0  0  2  0  0  0  0  0  0
  160.4600  206.5810  155.0140 C   0  0  0  0  0  2  0  0  0  0  0  0
  160.6070  207.0070  153.5530 C   0  0  2  0  0  3  0  0  0  0  0  0
  160.7360  209.4050  154.2510 C   0  0  0  0  0  2  0  0  0  0  0  0
  158.8830  210.9040  155.7150 C   0  0  0  0  0  1  0  0  0  0  0  0
  159.8890  210.0990  156.5290 C   0  0  0  0  0  2  0  0  0  0  0  0
  1  8  1  0  0  0  0
  2 13  1  0  0  0  0
  2 12  1  0  0  0  0
  3 14  1  0  0  0  0
  4 15  1  0  0  0  0
  5  9  1  0  0  0  0
  5  1  2  0  0  0  0
  6  1  1  0  0  0  0
  7 11  1  0  0  0  0
  7  4  1  0  0  0  0
  8  4  2  0  0  0  0
  9  7  2  0  0  0  0
 10  3  2  0  0  0  0
 10 11  1  0  0  0  0
 11  2  2  0  0  0  0
 13 35  1  0  0  0  0
 14 13  2  0  0  0  0
 15 12  2  0  0  0  0
 16 17  1  6  0  0  0
 16 18  1  0  0  0  0
 16  3  1  0  0  0  0
 18 19  1  0  0  0  0
 19 20  1  1  0  0  0
 21 19  1  0  0  0  0
 22 21  1  0  0  0  0
 22 24  1  0  0  0  0
 23 26  1  0  0  0  0
 25 28  1  6  0  0  0
 25 23  1  0  0  0  0
 25 22  1  0  0  0  0
 26 24  1  0  0  0  0
 27 34  1  0  0  0  0
 27 28  1  0  0  0  0
 29 31  1  0  0  0  0
 30 32  1  0  0  0  0
 31 33  1  0  0  0  0
 31 30  2  0  0  0  0
 32 28  2  0  0  0  0
 33 27  2  0  0  0  0
 37 36  1  0  0  0  0
 37 43  1  1  0  0  0
 38 40  1  0  0  0  0
 38 41  1  0  0  0  0
 39 36  1  0  0  0  0
 40 35  1  6  0  0  0
 40 39  1  0  0  0  0
 41 37  1  0  0  0  0
 42 43  1  0  0  0  0
M  END
>  <MODEL>
7

>  <REMARK>
 VINA RESULT:      -8.6      1.489      2.356
  Name = 
  9 active torsions:
  status: ('A' for Active; 'I' for Inactive)
    1  A    between atoms: O_1  and  C_34
    2  A    between atoms: O_1  and  C_35
    3  A    between atoms: C_2  and  N_6
    4  A    between atoms: C_2  and  C_13
    5  A    between atoms: C_3  and  N_4
    6  A    between atoms: C_3  and  C_12
    7  A    between atoms: N_6  and  C_12
    8  A    between atoms: C_14  and  C_22
    9  A    between atoms: C_19  and  C_37
                            x       y       z     vdW  Elec       q    Type
                         _______ _______ _______ _____ _____    ______ ____

>  <TORSDO>
F 9

$$$$
=
 OpenBabel11062410263D

 43 48  0  0  1  0  0  0  0  0999 V2000
  161.4780  204.1940  146.4460 C   0  0  0  0  0  0  0  0  0  0  0  0
  161.4160  206.5520  150.9220 C   0  0  0  0  0  0  0  0  0  0  0  0
  161.8030  209.2500  150.3480 C   0  0  0  0  0  0  0  0  0  0  0  0
  161.3450  204.7010  148.8120 C   0  0  0  0  0  0  0  0  0  0  0  0
  161.6740  205.5470  146.1620 C   0  0  0  0  0  3  0  0  0  0  0  0
  161.4460  203.2020  145.3400 C   0  0  0  0  0  1  0  0  0  0  0  0
  161.5380  206.0750  148.5310 C   0  0  0  0  0  0  0  0  0  0  0  0
  161.3150  203.7710  147.7680 C   0  0  0  0  0  3  0  0  0  0  0  0
  161.7050  206.4840  147.1990 C   0  0  0  0  0  3  0  0  0  0  0  0
  161.7470  208.3320  149.3440 N   0  0  0  0  0  0  0  0  0  0  0  0
  161.5670  207.0040  149.5880 C   0  0  0  0  0  0  0  0  0  0  0  0
  161.2250  205.1890  151.1790 C   0  0  0  0  0  3  0  0  0  0  0  0
  161.4620  207.4820  151.9710 C   0  0  0  0  0  0  0  0  0  0  0  0
  161.6570  208.8380  151.6740 C   0  0  0  0  0  3  0  0  0  0  0  0
  161.1890  204.2680  150.1300 C   0  0  0  0  0  3  0  0  0  0  0  0
  161.9940  210.7080  150.0580 C   0  0  2  0  0  3  0  0  0  0  0  0
  161.2040  211.5000  150.9010 O   0  0  0  0  0  1  0  0  0  0  0  0
  161.8020  211.0340  148.6380 N   0  0  0  0  0  2  0  0  0  0  0  0
  162.5010  212.2640  148.2710 C   0  0  1  0  0  3  0  0  0  0  0  0
  163.8660  211.9090  147.7090 C   0  0  0  0  0  1  0  0  0  0  0  0
  161.6930  213.0280  147.2340 C   0  0  0  0  0  2  0  0  0  0  0  0
  160.3030  212.5930  147.2470 N   0  0  0  0  0  0  0  0  0  0  0  0
  158.2800  213.7670  146.6280 C   0  0  0  0  0  2  0  0  0  0  0  0
  159.9460  212.2120  145.8880 C   0  0  0  0  0  2  0  0  0  0  0  0
  159.4880  213.7640  147.5490 C   0  0  1  0  0  3  0  0  0  0  0  0
  158.5120  212.6310  145.6630 C   0  0  0  0  0  2  0  0  0  0  0  0
  157.9050  213.1510  149.4510 C   0  0  0  0  0  0  0  0  0  0  0  0
  159.0800  213.7750  148.9940 C   0  0  0  0  0  0  0  0  0  0  0  0
  158.0460  213.8030  152.9960 F   0  0  0  0  0  0  0  0  0  0  0  0
  159.5630  214.4330  151.2720 C   0  0  0  0  0  3  0  0  0  0  0  0
  158.3910  213.7990  151.6850 C   0  0  0  0  0  0  0  0  0  0  0  0
  159.9060  214.4180  149.9200 C   0  0  0  0  0  3  0  0  0  0  0  0
  157.5940  213.1770  150.7750 N   0  0  0  0  0  0  0  0  0  0  0  0
  157.0790  212.5110  148.5870 F   0  0  0  0  0  0  0  0  0  0  0  0
  161.3250  207.0460  153.2970 O   0  0  0  0  0  0  0  0  0  0  0  0
  160.8920  208.6530  156.6680 C   0  0  0  0  0  2  0  0  0  0  0  0
  160.6700  210.0850  156.1780 C   0  0  1  0  0  3  0  0  0  0  0  0
  160.5250  209.2560  153.8140 C   0  0  0  0  0  2  0  0  0  0  0  0
  161.5570  207.8170  155.5780 C   0  0  0  0  0  2  0  0  0  0  0  0
  160.7010  207.8250  154.3110 C   0  0  2  0  0  3  0  0  0  0  0  0
  159.8470  210.1040  154.8870 C   0  0  0  0  0  2  0  0  0  0  0  0
  158.8220  211.7270  156.7500 C   0  0  0  0  0  1  0  0  0  0  0  0
  160.0310  210.9530  157.2600 C   0  0  0  0  0  2  0  0  0  0  0  0
  1  8  1  0  0  0  0
  2 12  1  0  0  0  0
  2 13  1  0  0  0  0
  3 14  1  0  0  0  0
  4 15  1  0  0  0  0
  5  1  2  0  0  0  0
  5  9  1  0  0  0  0
  6  1  1  0  0  0  0
  7  4  1  0  0  0  0
  7 11  1  0  0  0  0
  8  4  2  0  0  0  0
  9  7  2  0  0  0  0
 10 11  1  0  0  0  0
 10  3  2  0  0  0  0
 11  2  2  0  0  0  0
 13 35  1  0  0  0  0
 14 13  2  0  0  0  0
 15 12  2  0  0  0  0
 16  3  1  0  0  0  0
 16 17  1  1  0  0  0
 18 16  1  0  0  0  0
 19 20  1  6  0  0  0
 19 18  1  0  0  0  0
 21 22  1  0  0  0  0
 21 19  1  0  0  0  0
 22 25  1  0  0  0  0
 23 25  1  0  0  0  0
 24 22  1  0  0  0  0
 25 28  1  1  0  0  0
 26 24  1  0  0  0  0
 26 23  1  0  0  0  0
 27 33  1  0  0  0  0
 28 27  2  0  0  0  0
 28 32  1  0  0  0  0
 30 31  1  0  0  0  0
 31 29  1  0  0  0  0
 32 30  2  0  0  0  0
 33 31  2  0  0  0  0
 34 27  1  0  0  0  0
 37 36  1  0  0  0  0
 37 43  1  1  0  0  0
 38 40  1  0  0  0  0
 38 41  1  0  0  0  0
 39 36  1  0  0  0  0
 40 35  1  6  0  0  0
 40 39  1  0  0  0  0
 41 37  1  0  0  0  0
 42 43  1  0  0  0  0
M  END
>  <MODEL>
8

>  <REMARK>
 VINA RESULT:      -8.5      2.638      4.094
  Name = 
  9 active torsions:
  status: ('A' for Active; 'I' for Inactive)
    1  A    between atoms: O_1  and  C_34
    2  A    between atoms: O_1  and  C_35
    3  A    between atoms: C_2  and  N_6
    4  A    between atoms: C_2  and  C_13
    5  A    between atoms: C_3  and  N_4
    6  A    between atoms: C_3  and  C_12
    7  A    between atoms: N_6  and  C_12
    8  A    between atoms: C_14  and  C_22
    9  A    between atoms: C_19  and  C_37
                            x       y       z     vdW  Elec       q    Type
                         _______ _______ _______ _____ _____    ______ ____

>  <TORSDO>
F 9

$$$$
=
 OpenBabel11062410263D

 43 48  0  0  1  0  0  0  0  0999 V2000
  160.8450  202.0860  146.8370 C   0  0  0  0  0  0  0  0  0  0  0  0
  161.8720  206.7480  148.5100 C   0  0  0  0  0  0  0  0  0  0  0  0
  161.6020  206.6230  151.2790 C   0  0  0  0  0  0  0  0  0  0  0  0
  161.4300  204.4320  146.9860 C   0  0  0  0  0  0  0  0  0  0  0  0
  160.7080  202.0270  148.2260 C   0  0  0  0  0  3  0  0  0  0  0  0
  160.6060  200.8700  146.0160 C   0  0  0  0  0  1  0  0  0  0  0  0
  161.2980  204.3790  148.3940 C   0  0  0  0  0  0  0  0  0  0  0  0
  161.2040  203.2860  146.2180 C   0  0  0  0  0  3  0  0  0  0  0  0
  160.9320  203.1670  149.0010 C   0  0  0  0  0  3  0  0  0  0  0  0
  161.4100  205.5120  150.5160 N   0  0  0  0  0  0  0  0  0  0  0  0
  161.5260  205.5380  149.1590 C   0  0  0  0  0  0  0  0  0  0  0  0
  161.9990  206.7810  147.1160 C   0  0  0  0  0  3  0  0  0  0  0  0
  162.0830  207.9040  149.2780 C   0  0  0  0  0  0  0  0  0  0  0  0
  161.9450  207.8320  150.6710 C   0  0  0  0  0  3  0  0  0  0  0  0
  161.7800  205.6290  146.3580 C   0  0  0  0  0  3  0  0  0  0  0  0
  161.4770  206.5710  152.7720 C   0  0  2  0  0  3  0  0  0  0  0  0
  161.2040  205.2700  153.2120 O   0  0  0  0  0  1  0  0  0  0  0  0
  160.5180  207.5540  153.2960 N   0  0  0  0  0  2  0  0  0  0  0  0
  161.1800  208.5610  154.1220 C   0  0  1  0  0  3  0  0  0  0  0  0
  161.7320  209.6530  153.2240 C   0  0  0  0  0  1  0  0  0  0  0  0
  160.1880  209.1520  155.1110 C   0  0  0  0  0  2  0  0  0  0  0  0
  160.4910  210.5550  155.3620 N   0  0  0  0  0  0  0  0  0  0  0  0
  159.7580  212.0300  157.1350 C   0  0  0  0  0  2  0  0  0  0  0  0
  161.5320  210.6060  156.3800 C   0  0  0  0  0  2  0  0  0  0  0  0
  159.3110  211.1460  155.9840 C   0  0  1  0  0  3  0  0  0  0  0  0
  161.2440  211.8000  157.2610 C   0  0  0  0  0  2  0  0  0  0  0  0
  157.1010  211.8470  154.9250 C   0  0  0  0  0  0  0  0  0  0  0  0
  158.5050  211.9150  154.9780 C   0  0  0  0  0  0  0  0  0  0  0  0
  156.3470  214.1010  152.2120 F   0  0  0  0  0  0  0  0  0  0  0  0
  158.4530  213.4790  153.1320 C   0  0  0  0  0  3  0  0  0  0  0  0
  157.0610  213.3860  153.1150 C   0  0  0  0  0  0  0  0  0  0  0  0
  159.1740  212.7400  154.0690 C   0  0  0  0  0  3  0  0  0  0  0  0
  156.4200  212.5800  154.0030 N   0  0  0  0  0  0  0  0  0  0  0  0
  156.4110  211.0650  155.7920 F   0  0  0  0  0  0  0  0  0  0  0  0
  162.4160  209.1110  148.6470 O   0  0  0  0  0  0  0  0  0  0  0  0
  160.7340  212.0320  150.3110 C   0  0  0  0  0  2  0  0  0  0  0  0
  161.2850  213.1270  149.3950 C   0  0  1  0  0  3  0  0  0  0  0  0
  162.2120  211.3750  147.8560 C   0  0  0  0  0  2  0  0  0  0  0  0
  161.5840  210.7690  150.1980 C   0  0  0  0  0  2  0  0  0  0  0  0
  161.6230  210.2870  148.7480 C   0  0  2  0  0  3  0  0  0  0  0  0
  161.3650  212.6410  147.9450 C   0  0  0  0  0  2  0  0  0  0  0  0
  158.9740  214.1470  149.6300 C   0  0  0  0  0  1  0  0  0  0  0  0
  160.4700  214.4130  149.5090 C   0  0  0  0  0  2  0  0  0  0  0  0
  1  5  1  0  0  0  0
  2 11  1  0  0  0  0
  2 13  1  0  0  0  0
  3 16  1  0  0  0  0
  4  7  1  0  0  0  0
  5  9  2  0  0  0  0
  6  1  1  0  0  0  0
  7  9  1  0  0  0  0
  7 11  2  0  0  0  0
  8  1  2  0  0  0  0
  8  4  1  0  0  0  0
 10  3  2  0  0  0  0
 11 10  1  0  0  0  0
 12  2  2  0  0  0  0
 13 14  2  0  0  0  0
 14  3  1  0  0  0  0
 15  4  2  0  0  0  0
 15 12  1  0  0  0  0
 16 17  1  6  0  0  0
 16 18  1  0  0  0  0
 18 19  1  0  0  0  0
 19 20  1  6  0  0  0
 19 21  1  0  0  0  0
 21 22  1  0  0  0  0
 22 25  1  0  0  0  0
 22 24  1  0  0  0  0
 23 26  1  0  0  0  0
 24 26  1  0  0  0  0
 25 28  1  6  0  0  0
 25 23  1  0  0  0  0
 27 28  1  0  0  0  0
 27 34  1  0  0  0  0
 29 31  1  0  0  0  0
 30 32  1  0  0  0  0
 31 30  2  0  0  0  0
 31 33  1  0  0  0  0
 32 28  2  0  0  0  0
 33 27  2  0  0  0  0
 35 13  1  0  0  0  0
 37 43  1  6  0  0  0
 37 36  1  0  0  0  0
 38 41  1  0  0  0  0
 38 40  1  0  0  0  0
 39 36  1  0  0  0  0
 40 35  1  1  0  0  0
 40 39  1  0  0  0  0
 41 37  1  0  0  0  0
 43 42  1  0  0  0  0
M  END
>  <MODEL>
9

>  <REMARK>
 VINA RESULT:      -8.1      3.963      7.497
  Name = 
  9 active torsions:
  status: ('A' for Active; 'I' for Inactive)
    1  A    between atoms: O_1  and  C_34
    2  A    between atoms: O_1  and  C_35
    3  A    between atoms: C_2  and  N_6
    4  A    between atoms: C_2  and  C_13
    5  A    between atoms: C_3  and  N_4
    6  A    between atoms: C_3  and  C_12
    7  A    between atoms: N_6  and  C_12
    8  A    between atoms: C_14  and  C_22
    9  A    between atoms: C_19  and  C_37
                            x       y       z     vdW  Elec       q    Type
                         _______ _______ _______ _____ _____    ______ ____

>  <TORSDO>
F 9

$$$$
