=
 OpenBabel11052422073D

 25 27  0  0  1  0  0  0  0  0999 V2000
  161.2150  205.1360  148.7810 C   0  0  0  0  0  0  0  0  0  0  0  0
  161.3620  206.1040  149.8020 C   0  0  0  0  0  0  0  0  0  0  0  0
  160.9100  203.4540  150.4330 C   0  0  0  0  0  3  0  0  0  0  0  0
  161.0370  204.3680  151.4250 N   0  0  0  0  0  0  0  0  0  0  0  0
  161.4090  206.6140  152.1880 C   0  0  0  0  0  0  0  0  0  0  0  0
  161.3040  206.2030  153.6180 C   0  0  0  0  0  1  0  0  0  0  0  0
  161.6290  207.4530  149.5280 C   0  0  0  0  0  3  0  0  0  0  0  0
  160.9990  203.8390  149.1340 N   0  0  0  0  0  0  0  0  0  0  0  0
  161.6640  207.9530  151.8890 C   0  0  0  0  0  3  0  0  0  0  0  0
  161.7790  208.3820  150.5610 C   0  0  0  0  0  0  0  0  0  0  0  0
  161.2640  205.6800  151.1470 C   0  0  0  0  0  0  0  0  0  0  0  0
  161.2830  205.4670  147.3330 C   0  0  0  0  0  0  0  0  0  0  0  0
  161.3710  205.7010  144.4870 C   0  0  0  0  0  3  0  0  0  0  0  0
  162.4660  205.1060  146.5220 C   0  0  0  0  0  0  0  0  0  0  0  0
  162.3890  205.1710  145.0940 N   0  0  0  0  0  0  0  0  0  0  0  0
  160.2460  206.3580  145.2430 C   0  0  0  0  0  2  0  0  0  0  0  0
  163.5310  204.7150  147.0680 O   0  0  0  0  0  0  0  0  0  0  0  0
  160.2250  205.9890  146.7030 C   0  0  0  0  0  3  0  0  0  0  0  0
  162.0440  209.7500  150.2240 N   0  0  0  0  0  2  0  0  0  0  0  0
  161.9330  210.3520  148.9280 C   0  0  0  0  0  0  0  0  0  0  0  0
  161.5590  209.6800  147.9290 O   0  0  0  0  0  0  0  0  0  0  0  0
  163.4610  212.0260  147.8890 C   0  0  0  0  0  1  0  0  0  0  0  0
  162.2490  211.8060  148.7800 C   0  0  1  0  0  3  0  0  0  0  0  0
  161.0450  212.6050  148.2930 C   0  0  0  0  0  2  0  0  0  0  0  0
  161.1430  212.8800  146.9260 O   0  0  0  0  0  1  0  0  0  0  0  0
  1  8  2  0  0  0  0
  1  2  1  0  0  0  0
  2 11  1  0  0  0  0
  3  4  2  0  0  0  0
  5  6  1  0  0  0  0
  7  2  2  0  0  0  0
  7 10  1  0  0  0  0
  8  3  1  0  0  0  0
  9  5  1  0  0  0  0
 10  9  2  0  0  0  0
 11  4  1  0  0  0  0
 11  5  2  0  0  0  0
 12  1  1  0  0  0  0
 13 15  2  0  0  0  0
 13 16  1  0  0  0  0
 14 17  2  0  0  0  0
 14 12  1  0  0  0  0
 15 14  1  0  0  0  0
 16 18  1  0  0  0  0
 18 12  2  0  0  0  0
 19 10  1  0  0  0  0
 20 19  1  0  0  0  0
 21 20  2  0  0  0  0
 23 22  1  6  0  0  0
 23 20  1  0  0  0  0
 24 23  1  0  0  0  0
 25 24  1  0  0  0  0
M  END
>  <MODEL>
1

>  <REMARK>
 VINA RESULT:      -8.0      0.000      0.000
  Name = 
  4 active torsions:
  status: ('A' for Active; 'I' for Inactive)
    1  A    between atoms: C_1  and  C_5
    2  A    between atoms: C_2  and  C_21
    3  A    between atoms: N_6  and  C_23
    4  A    between atoms: C_15  and  C_21
                            x       y       z     vdW  Elec       q    Type
                         _______ _______ _______ _____ _____    ______ ____

>  <TORSDO>
F 4

$$$$
=
 OpenBabel11052422073D

 25 27  0  0  1  0  0  0  0  0999 V2000
  161.2340  204.1510  149.7340 C   0  0  0  0  0  0  0  0  0  0  0  0
  161.2730  205.4970  150.1650 C   0  0  0  0  0  0  0  0  0  0  0  0
  160.9640  203.4480  151.9890 C   0  0  0  0  0  3  0  0  0  0  0  0
  160.9890  204.7330  152.4200 N   0  0  0  0  0  0  0  0  0  0  0  0
  161.1810  207.0900  152.0120 C   0  0  0  0  0  0  0  0  0  0  0  0
  161.0390  207.4070  153.4620 C   0  0  0  0  0  1  0  0  0  0  0  0
  161.4650  206.5670  149.2780 C   0  0  0  0  0  3  0  0  0  0  0  0
  161.0870  203.1690  150.6660 N   0  0  0  0  0  0  0  0  0  0  0  0
  161.3630  208.1380  151.1070 C   0  0  0  0  0  3  0  0  0  0  0  0
  161.5090  207.8850  149.7380 C   0  0  0  0  0  0  0  0  0  0  0  0
  161.1430  205.7640  151.5470 C   0  0  0  0  0  0  0  0  0  0  0  0
  161.3450  203.7520  148.3060 C   0  0  0  0  0  0  0  0  0  0  0  0
  161.1500  202.9640  145.5670 C   0  0  0  0  0  3  0  0  0  0  0  0
  161.0520  202.3670  147.8750 C   0  0  0  0  0  0  0  0  0  0  0  0
  160.8850  202.0820  146.4820 N   0  0  0  0  0  0  0  0  0  0  0  0
  161.7320  204.3110  145.9030 C   0  0  0  0  0  2  0  0  0  0  0  0
  160.9190  201.4410  148.7180 O   0  0  0  0  0  0  0  0  0  0  0  0
  161.5940  204.6650  147.3600 C   0  0  0  0  0  3  0  0  0  0  0  0
  161.7000  208.9410  148.7860 N   0  0  0  0  0  2  0  0  0  0  0  0
  161.9520  210.3220  149.0760 C   0  0  0  0  0  0  0  0  0  0  0  0
  162.0400  210.7310  150.2650 O   0  0  0  0  0  0  0  0  0  0  0  0
  160.8390  212.0030  147.6100 C   0  0  0  0  0  1  0  0  0  0  0  0
  162.1320  211.2750  147.9380 C   0  0  1  0  0  3  0  0  0  0  0  0
  163.2760  212.2530  148.1880 C   0  0  0  0  0  2  0  0  0  0  0  0
  162.8950  213.5620  147.8810 O   0  0  0  0  0  1  0  0  0  0  0  0
  1  2  2  0  0  0  0
  1  8  1  0  0  0  0
  2 11  1  0  0  0  0
  3  4  1  0  0  0  0
  5  6  1  0  0  0  0
  7 10  2  0  0  0  0
  7  2  1  0  0  0  0
  8  3  2  0  0  0  0
  9  5  2  0  0  0  0
 10  9  1  0  0  0  0
 11  5  1  0  0  0  0
 11  4  2  0  0  0  0
 12  1  1  0  0  0  0
 13 16  1  0  0  0  0
 13 15  2  0  0  0  0
 14 12  1  0  0  0  0
 14 17  2  0  0  0  0
 15 14  1  0  0  0  0
 16 18  1  0  0  0  0
 18 12  2  0  0  0  0
 19 20  1  0  0  0  0
 19 10  1  0  0  0  0
 20 21  2  0  0  0  0
 23 22  1  1  0  0  0
 23 24  1  0  0  0  0
 23 20  1  0  0  0  0
 25 24  1  0  0  0  0
M  END
>  <MODEL>
2

>  <REMARK>
 VINA RESULT:      -7.9      1.770      2.092
  Name = 
  4 active torsions:
  status: ('A' for Active; 'I' for Inactive)
    1  A    between atoms: C_1  and  C_5
    2  A    between atoms: C_2  and  C_21
    3  A    between atoms: N_6  and  C_23
    4  A    between atoms: C_15  and  C_21
                            x       y       z     vdW  Elec       q    Type
                         _______ _______ _______ _____ _____    ______ ____

>  <TORSDO>
F 4

$$$$
=
 OpenBabel11052422073D

 25 27  0  0  1  0  0  0  0  0999 V2000
  161.4620  207.2540  151.4790 C   0  0  0  0  0  0  0  0  0  0  0  0
  161.3090  205.9840  150.8770 C   0  0  0  0  0  0  0  0  0  0  0  0
  161.4720  206.2260  153.6220 C   0  0  0  0  0  3  0  0  0  0  0  0
  161.3360  204.9980  153.0630 N   0  0  0  0  0  0  0  0  0  0  0  0
  161.0940  203.5680  151.1510 C   0  0  0  0  0  0  0  0  0  0  0  0
  161.0360  202.3470  152.0040 C   0  0  0  0  0  1  0  0  0  0  0  0
  161.1860  205.8170  149.4890 C   0  0  0  0  0  3  0  0  0  0  0  0
  161.5320  207.3310  152.8370 N   0  0  0  0  0  0  0  0  0  0  0  0
  160.9840  203.4280  149.7660 C   0  0  0  0  0  3  0  0  0  0  0  0
  161.0250  204.5490  148.9280 C   0  0  0  0  0  0  0  0  0  0  0  0
  161.2500  204.8460  151.7150 C   0  0  0  0  0  0  0  0  0  0  0  0
  161.5530  208.5170  150.6990 C   0  0  0  0  0  0  0  0  0  0  0  0
  162.0510  211.0290  149.4330 C   0  0  0  0  0  3  0  0  0  0  0  0
  161.2160  209.8200  151.3140 C   0  0  0  0  0  0  0  0  0  0  0  0
  161.5830  211.0310  150.6450 N   0  0  0  0  0  0  0  0  0  0  0  0
  162.1560  209.7650  148.6220 C   0  0  0  0  0  2  0  0  0  0  0  0
  160.6360  209.8790  152.4300 O   0  0  0  0  0  0  0  0  0  0  0  0
  162.0570  208.5180  149.4600 C   0  0  0  0  0  3  0  0  0  0  0  0
  160.9110  204.4360  147.5030 N   0  0  0  0  0  2  0  0  0  0  0  0
  161.9710  204.5480  146.5450 C   0  0  0  0  0  0  0  0  0  0  0  0
  163.1600  204.7560  146.9120 O   0  0  0  0  0  0  0  0  0  0  0  0
  160.5590  203.3570  144.8710 C   0  0  0  0  0  1  0  0  0  0  0  0
  161.6500  204.3910  145.0930 C   0  0  1  0  0  3  0  0  0  0  0  0
  161.2990  205.7230  144.4390 C   0  0  0  0  0  2  0  0  0  0  0  0
  160.1680  206.2920  145.0310 O   0  0  0  0  0  1  0  0  0  0  0  0
  1  8  1  0  0  0  0
  2  1  2  0  0  0  0
  2 11  1  0  0  0  0
  4  3  1  0  0  0  0
  5 11  1  0  0  0  0
  5  6  1  0  0  0  0
  7  2  1  0  0  0  0
  8  3  2  0  0  0  0
  9  5  2  0  0  0  0
 10  7  2  0  0  0  0
 10  9  1  0  0  0  0
 11  4  2  0  0  0  0
 12 14  1  0  0  0  0
 12  1  1  0  0  0  0
 13 15  2  0  0  0  0
 14 17  2  0  0  0  0
 15 14  1  0  0  0  0
 16 13  1  0  0  0  0
 16 18  1  0  0  0  0
 18 12  2  0  0  0  0
 19 10  1  0  0  0  0
 20 21  2  0  0  0  0
 20 19  1  0  0  0  0
 23 22  1  1  0  0  0
 23 20  1  0  0  0  0
 24 25  1  0  0  0  0
 24 23  1  0  0  0  0
M  END
>  <MODEL>
3

>  <REMARK>
 VINA RESULT:      -7.8      2.034      5.679
  Name = 
  4 active torsions:
  status: ('A' for Active; 'I' for Inactive)
    1  A    between atoms: C_1  and  C_5
    2  A    between atoms: C_2  and  C_21
    3  A    between atoms: N_6  and  C_23
    4  A    between atoms: C_15  and  C_21
                            x       y       z     vdW  Elec       q    Type
                         _______ _______ _______ _____ _____    ______ ____

>  <TORSDO>
F 4

$$$$
=
 OpenBabel11052422073D

 25 27  0  0  1  0  0  0  0  0999 V2000
  161.3040  203.1950  147.8180 C   0  0  0  0  0  0  0  0  0  0  0  0
  161.1630  203.8380  149.0700 C   0  0  0  0  0  0  0  0  0  0  0  0
  161.0440  201.0860  148.8830 C   0  0  0  0  0  3  0  0  0  0  0  0
  160.8950  201.6840  150.0900 N   0  0  0  0  0  0  0  0  0  0  0  0
  160.8110  203.6410  151.4770 C   0  0  0  0  0  0  0  0  0  0  0  0
  160.5800  202.8270  152.7050 C   0  0  0  0  0  1  0  0  0  0  0  0
  161.2520  205.2300  149.2170 C   0  0  0  0  0  3  0  0  0  0  0  0
  161.2460  201.8360  147.7690 N   0  0  0  0  0  0  0  0  0  0  0  0
  160.8940  205.0300  151.5950 C   0  0  0  0  0  3  0  0  0  0  0  0
  161.1180  205.8320  150.4700 C   0  0  0  0  0  0  0  0  0  0  0  0
  160.9520  203.0360  150.2160 C   0  0  0  0  0  0  0  0  0  0  0  0
  161.5130  203.9350  146.5450 C   0  0  0  0  0  0  0  0  0  0  0  0
  161.5300  205.4850  144.1460 C   0  0  0  0  0  3  0  0  0  0  0  0
  160.8400  203.5120  145.2970 C   0  0  0  0  0  0  0  0  0  0  0  0
  160.8250  204.3940  144.1700 N   0  0  0  0  0  0  0  0  0  0  0  0
  162.4730  205.8490  145.2610 C   0  0  0  0  0  2  0  0  0  0  0  0
  160.2550  202.3990  145.2210 O   0  0  0  0  0  0  0  0  0  0  0  0
  162.2180  205.0710  146.5250 C   0  0  0  0  0  3  0  0  0  0  0  0
  161.2120  207.2600  150.5610 N   0  0  0  0  0  2  0  0  0  0  0  0
  161.0290  208.0580  151.7380 C   0  0  0  0  0  0  0  0  0  0  0  0
  160.7670  207.5260  152.8510 O   0  0  0  0  0  0  0  0  0  0  0  0
  161.2760  210.1930  153.0010 C   0  0  0  0  0  1  0  0  0  0  0  0
  161.1770  209.5430  151.6310 C   0  0  1  0  0  3  0  0  0  0  0  0
  162.3480  209.9380  150.7380 C   0  0  0  0  0  2  0  0  0  0  0  0
  161.9670  210.9080  149.8080 O   0  0  0  0  0  1  0  0  0  0  0  0
  1  2  1  0  0  0  0
  2  7  2  0  0  0  0
  2 11  1  0  0  0  0
  3  4  2  0  0  0  0
  4 11  1  0  0  0  0
  5  9  1  0  0  0  0
  5  6  1  0  0  0  0
  7 10  1  0  0  0  0
  8  1  2  0  0  0  0
  8  3  1  0  0  0  0
 10 19  1  0  0  0  0
 10  9  2  0  0  0  0
 11  5  2  0  0  0  0
 12  1  1  0  0  0  0
 13 15  2  0  0  0  0
 13 16  1  0  0  0  0
 14 12  1  0  0  0  0
 15 14  1  0  0  0  0
 16 18  1  0  0  0  0
 17 14  2  0  0  0  0
 18 12  2  0  0  0  0
 19 20  1  0  0  0  0
 20 21  2  0  0  0  0
 23 20  1  0  0  0  0
 23 22  1  1  0  0  0
 24 23  1  0  0  0  0
 25 24  1  0  0  0  0
M  END
>  <MODEL>
4

>  <REMARK>
 VINA RESULT:      -7.8      2.270      3.196
  Name = 
  4 active torsions:
  status: ('A' for Active; 'I' for Inactive)
    1  A    between atoms: C_1  and  C_5
    2  A    between atoms: C_2  and  C_21
    3  A    between atoms: N_6  and  C_23
    4  A    between atoms: C_15  and  C_21
                            x       y       z     vdW  Elec       q    Type
                         _______ _______ _______ _____ _____    ______ ____

>  <TORSDO>
F 4

$$$$
=
 OpenBabel11052422073D

 25 27  0  0  1  0  0  0  0  0999 V2000
  161.2330  204.9600  148.4710 C   0  0  0  0  0  0  0  0  0  0  0  0
  161.4400  206.0990  149.2840 C   0  0  0  0  0  0  0  0  0  0  0  0
  161.4220  206.3220  146.5330 C   0  0  0  0  0  3  0  0  0  0  0  0
  161.6320  207.4230  147.2940 N   0  0  0  0  0  0  0  0  0  0  0  0
  161.8490  208.5010  149.4280 C   0  0  0  0  0  0  0  0  0  0  0  0
  162.0740  209.8310  148.7940 C   0  0  0  0  0  1  0  0  0  0  0  0
  161.4220  206.0380  150.6860 C   0  0  0  0  0  3  0  0  0  0  0  0
  161.2250  205.1140  147.1190 N   0  0  0  0  0  0  0  0  0  0  0  0
  161.8360  208.4120  150.8210 C   0  0  0  0  0  3  0  0  0  0  0  0
  161.6190  207.1840  151.4590 C   0  0  0  0  0  0  0  0  0  0  0  0
  161.6440  207.3470  148.6510 C   0  0  0  0  0  0  0  0  0  0  0  0
  161.0250  203.5950  149.0240 C   0  0  0  0  0  0  0  0  0  0  0  0
  161.0240  200.9180  150.0200 C   0  0  0  0  0  3  0  0  0  0  0  0
  161.0820  202.4010  148.1520 C   0  0  0  0  0  0  0  0  0  0  0  0
  161.1670  201.1010  148.7420 N   0  0  0  0  0  0  0  0  0  0  0  0
  160.6730  202.0470  150.9510 C   0  0  0  0  0  2  0  0  0  0  0  0
  161.0850  202.5150  146.8980 O   0  0  0  0  0  0  0  0  0  0  0  0
  160.9020  203.4050  150.3420 C   0  0  0  0  0  3  0  0  0  0  0  0
  161.5970  207.0640  152.8880 N   0  0  0  0  0  2  0  0  0  0  0  0
  161.0680  208.0140  153.8210 C   0  0  0  0  0  0  0  0  0  0  0  0
  160.5400  209.0890  153.4260 O   0  0  0  0  0  0  0  0  0  0  0  0
  161.6970  208.8660  156.0780 C   0  0  0  0  0  1  0  0  0  0  0  0
  161.1310  207.7010  155.2820 C   0  0  1  0  0  3  0  0  0  0  0  0
  159.7800  207.2540  155.8290 C   0  0  0  0  0  2  0  0  0  0  0  0
  159.8870  206.8410  157.1600 O   0  0  0  0  0  1  0  0  0  0  0  0
  1 12  1  0  0  0  0
  1  2  1  0  0  0  0
  2  7  1  0  0  0  0
  3  8  1  0  0  0  0
  3  4  2  0  0  0  0
  4 11  1  0  0  0  0
  5  9  2  0  0  0  0
  6  5  1  0  0  0  0
  7 10  2  0  0  0  0
  8  1  2  0  0  0  0
  9 10  1  0  0  0  0
 10 19  1  0  0  0  0
 11  2  2  0  0  0  0
 11  5  1  0  0  0  0
 12 18  2  0  0  0  0
 13 16  1  0  0  0  0
 14 15  1  0  0  0  0
 14 12  1  0  0  0  0
 15 13  2  0  0  0  0
 17 14  2  0  0  0  0
 18 16  1  0  0  0  0
 19 20  1  0  0  0  0
 20 23  1  0  0  0  0
 21 20  2  0  0  0  0
 23 24  1  0  0  0  0
 23 22  1  1  0  0  0
 24 25  1  0  0  0  0
M  END
>  <MODEL>
5

>  <REMARK>
 VINA RESULT:      -7.7      2.996      5.491
  Name = 
  4 active torsions:
  status: ('A' for Active; 'I' for Inactive)
    1  A    between atoms: C_1  and  C_5
    2  A    between atoms: C_2  and  C_21
    3  A    between atoms: N_6  and  C_23
    4  A    between atoms: C_15  and  C_21
                            x       y       z     vdW  Elec       q    Type
                         _______ _______ _______ _____ _____    ______ ____

>  <TORSDO>
F 4

$$$$
=
 OpenBabel11052422073D

 25 27  0  0  1  0  0  0  0  0999 V2000
  161.5820  206.1990  149.7070 C   0  0  0  0  0  0  0  0  0  0  0  0
  161.5410  207.4450  150.3750 C   0  0  0  0  0  0  0  0  0  0  0  0
  162.3600  207.2900  147.7430 C   0  0  0  0  0  3  0  0  0  0  0  0
  162.3370  208.4920  148.3690 N   0  0  0  0  0  0  0  0  0  0  0  0
  161.9030  209.8580  150.2950 C   0  0  0  0  0  0  0  0  0  0  0  0
  162.3200  211.0970  149.5770 C   0  0  0  0  0  1  0  0  0  0  0  0
  161.0970  207.5760  151.6990 C   0  0  0  0  0  3  0  0  0  0  0  0
  161.9860  206.1670  148.4070 N   0  0  0  0  0  0  0  0  0  0  0  0
  161.4670  209.9590  151.6180 C   0  0  0  0  0  3  0  0  0  0  0  0
  161.0590  208.8230  152.3270 C   0  0  0  0  0  0  0  0  0  0  0  0
  161.9360  208.6020  149.6640 C   0  0  0  0  0  0  0  0  0  0  0  0
  161.2060  204.9160  150.3570 C   0  0  0  0  0  0  0  0  0  0  0  0
  160.8560  202.3210  151.4990 C   0  0  0  0  0  3  0  0  0  0  0  0
  160.9420  203.7020  149.5550 C   0  0  0  0  0  0  0  0  0  0  0  0
  160.8690  202.4290  150.2040 N   0  0  0  0  0  0  0  0  0  0  0  0
  160.8290  203.5280  152.3980 C   0  0  0  0  0  2  0  0  0  0  0  0
  160.8090  203.7690  148.3040 O   0  0  0  0  0  0  0  0  0  0  0  0
  161.2170  204.7990  151.6900 C   0  0  0  0  0  3  0  0  0  0  0  0
  160.6030  208.8980  153.6840 N   0  0  0  0  0  2  0  0  0  0  0  0
  160.8310  207.9340  154.7200 C   0  0  0  0  0  0  0  0  0  0  0  0
  161.5020  206.8890  154.5010 O   0  0  0  0  0  0  0  0  0  0  0  0
  160.3200  206.9520  156.9540 C   0  0  0  0  0  1  0  0  0  0  0  0
  160.2760  208.1980  156.0840 C   0  0  1  0  0  3  0  0  0  0  0  0
  160.9630  209.3780  156.7620 C   0  0  0  0  0  2  0  0  0  0  0  0
  162.3430  209.1770  156.8460 O   0  0  0  0  0  1  0  0  0  0  0  0
  1 12  1  0  0  0  0
  1  2  1  0  0  0  0
  2  7  1  0  0  0  0
  3  4  2  0  0  0  0
  3  8  1  0  0  0  0
  4 11  1  0  0  0  0
  5  9  2  0  0  0  0
  6  5  1  0  0  0  0
  7 10  2  0  0  0  0
  8  1  2  0  0  0  0
  9 10  1  0  0  0  0
 10 19  1  0  0  0  0
 11  5  1  0  0  0  0
 11  2  2  0  0  0  0
 12 18  2  0  0  0  0
 13 16  1  0  0  0  0
 14 15  1  0  0  0  0
 14 12  1  0  0  0  0
 15 13  2  0  0  0  0
 17 14  2  0  0  0  0
 18 16  1  0  0  0  0
 19 20  1  0  0  0  0
 20 23  1  0  0  0  0
 21 20  2  0  0  0  0
 23 24  1  0  0  0  0
 23 22  1  1  0  0  0
 24 25  1  0  0  0  0
M  END
>  <MODEL>
6

>  <REMARK>
 VINA RESULT:      -7.0      3.118      5.830
  Name = 
  4 active torsions:
  status: ('A' for Active; 'I' for Inactive)
    1  A    between atoms: C_1  and  C_5
    2  A    between atoms: C_2  and  C_21
    3  A    between atoms: N_6  and  C_23
    4  A    between atoms: C_15  and  C_21
                            x       y       z     vdW  Elec       q    Type
                         _______ _______ _______ _____ _____    ______ ____

>  <TORSDO>
F 4

$$$$
=
 OpenBabel11052422073D

 25 27  0  0  1  0  0  0  0  0999 V2000
  161.4610  210.8400  150.6050 C   0  0  0  0  0  0  0  0  0  0  0  0
  161.6200  209.4410  150.4720 C   0  0  0  0  0  0  0  0  0  0  0  0
  160.8500  210.5430  152.8830 C   0  0  0  0  0  3  0  0  0  0  0  0
  161.0080  209.2010  152.7780 N   0  0  0  0  0  0  0  0  0  0  0  0
  161.5280  207.2320  151.5070 C   0  0  0  0  0  0  0  0  0  0  0  0
  161.2930  206.3460  152.6820 C   0  0  0  0  0  1  0  0  0  0  0  0
  161.9750  208.8360  149.2570 C   0  0  0  0  0  3  0  0  0  0  0  0
  161.0730  211.3430  151.8090 N   0  0  0  0  0  0  0  0  0  0  0  0
  161.8920  206.6550  150.2890 C   0  0  0  0  0  3  0  0  0  0  0  0
  162.1140  207.4490  149.1570 C   0  0  0  0  0  0  0  0  0  0  0  0
  161.3830  208.6270  151.6040 C   0  0  0  0  0  0  0  0  0  0  0  0
  161.6980  211.7940  149.4900 C   0  0  0  0  0  0  0  0  0  0  0  0
  162.2920  213.8830  147.6340 C   0  0  0  0  0  3  0  0  0  0  0  0
  160.8590  213.0020  149.3260 C   0  0  0  0  0  0  0  0  0  0  0  0
  161.2820  214.0390  148.4360 N   0  0  0  0  0  0  0  0  0  0  0  0
  163.0290  212.5750  147.5260 C   0  0  0  0  0  2  0  0  0  0  0  0
  159.7930  213.1430  149.9810 O   0  0  0  0  0  0  0  0  0  0  0  0
  162.7520  211.6470  148.6800 C   0  0  0  0  0  3  0  0  0  0  0  0
  162.4850  206.8840  147.8930 N   0  0  0  0  0  2  0  0  0  0  0  0
  161.6050  206.3080  146.9190 C   0  0  0  0  0  0  0  0  0  0  0  0
  160.3600  206.2660  147.1120 O   0  0  0  0  0  0  0  0  0  0  0  0
  163.1830  204.6580  145.9180 C   0  0  0  0  0  1  0  0  0  0  0  0
  162.1860  205.7730  145.6490 C   0  0  1  0  0  3  0  0  0  0  0  0
  161.1060  205.3330  144.6670 C   0  0  0  0  0  2  0  0  0  0  0  0
  160.8470  203.9650  144.7840 O   0  0  0  0  0  1  0  0  0  0  0  0
  1  8  1  0  0  0  0
  2  1  2  0  0  0  0
  2 11  1  0  0  0  0
  4  3  1  0  0  0  0
  5 11  1  0  0  0  0
  5  6  1  0  0  0  0
  7  2  1  0  0  0  0
  8  3  2  0  0  0  0
  9  5  2  0  0  0  0
 10  7  2  0  0  0  0
 10  9  1  0  0  0  0
 11  4  2  0  0  0  0
 12  1  1  0  0  0  0
 13 15  2  0  0  0  0
 14 12  1  0  0  0  0
 14 17  2  0  0  0  0
 15 14  1  0  0  0  0
 16 13  1  0  0  0  0
 16 18  1  0  0  0  0
 18 12  2  0  0  0  0
 19 10  1  0  0  0  0
 20 21  2  0  0  0  0
 20 19  1  0  0  0  0
 23 22  1  1  0  0  0
 23 20  1  0  0  0  0
 24 25  1  0  0  0  0
 24 23  1  0  0  0  0
M  END
>  <MODEL>
7

>  <REMARK>
 VINA RESULT:      -6.9      2.206      6.290
  Name = 
  4 active torsions:
  status: ('A' for Active; 'I' for Inactive)
    1  A    between atoms: C_1  and  C_5
    2  A    between atoms: C_2  and  C_21
    3  A    between atoms: N_6  and  C_23
    4  A    between atoms: C_15  and  C_21
                            x       y       z     vdW  Elec       q    Type
                         _______ _______ _______ _____ _____    ______ ____

>  <TORSDO>
F 4

$$$$
=
 OpenBabel11052422073D

 25 27  0  0  1  0  0  0  0  0999 V2000
  161.2670  210.2930  151.7830 C   0  0  0  0  0  0  0  0  0  0  0  0
  161.2540  208.8830  151.6830 C   0  0  0  0  0  0  0  0  0  0  0  0
  161.1980  210.1160  154.1520 C   0  0  0  0  0  3  0  0  0  0  0  0
  161.1960  208.7620  154.0770 N   0  0  0  0  0  0  0  0  0  0  0  0
  161.2020  206.7210  152.8150 C   0  0  0  0  0  0  0  0  0  0  0  0
  161.1740  205.8910  154.0540 C   0  0  0  0  0  1  0  0  0  0  0  0
  161.2460  208.2140  150.4490 C   0  0  0  0  0  3  0  0  0  0  0  0
  161.2320  210.8620  153.0190 N   0  0  0  0  0  0  0  0  0  0  0  0
  161.2040  206.0800  151.5750 C   0  0  0  0  0  3  0  0  0  0  0  0
  161.2230  206.8190  150.3860 C   0  0  0  0  0  0  0  0  0  0  0  0
  161.2200  208.1250  152.8760 C   0  0  0  0  0  0  0  0  0  0  0  0
  161.3190  211.1910  150.5980 C   0  0  0  0  0  0  0  0  0  0  0  0
  161.6200  213.1750  148.5650 C   0  0  0  0  0  3  0  0  0  0  0  0
  160.5120  212.4290  150.5420 C   0  0  0  0  0  0  0  0  0  0  0  0
  160.7920  213.4090  149.5390 N   0  0  0  0  0  0  0  0  0  0  0  0
  162.2710  211.8300  148.3800 C   0  0  0  0  0  2  0  0  0  0  0  0
  159.6000  212.6460  151.3840 O   0  0  0  0  0  0  0  0  0  0  0  0
  162.1890  210.9630  149.6080 C   0  0  0  0  0  3  0  0  0  0  0  0
  161.2210  206.1880  149.0980 N   0  0  0  0  0  2  0  0  0  0  0  0
  161.9670  206.5930  147.9430 C   0  0  0  0  0  0  0  0  0  0  0  0
  162.7360  207.5910  147.9830 O   0  0  0  0  0  0  0  0  0  0  0  0
  161.7800  204.3040  146.9740 C   0  0  0  0  0  1  0  0  0  0  0  0
  161.8360  205.7950  146.6850 C   0  0  1  0  0  3  0  0  0  0  0  0
  160.6470  206.2460  145.8440 C   0  0  0  0  0  2  0  0  0  0  0  0
  160.3360  205.3000  144.8630 O   0  0  0  0  0  1  0  0  0  0  0  0
  1  8  1  0  0  0  0
  2  1  2  0  0  0  0
  2 11  1  0  0  0  0
  4  3  1  0  0  0  0
  5 11  1  0  0  0  0
  5  6  1  0  0  0  0
  7  2  1  0  0  0  0
  8  3  2  0  0  0  0
  9  5  2  0  0  0  0
 10  7  2  0  0  0  0
 10  9  1  0  0  0  0
 11  4  2  0  0  0  0
 12  1  1  0  0  0  0
 13 15  2  0  0  0  0
 14 12  1  0  0  0  0
 14 17  2  0  0  0  0
 15 14  1  0  0  0  0
 16 13  1  0  0  0  0
 16 18  1  0  0  0  0
 18 12  2  0  0  0  0
 19 10  1  0  0  0  0
 20 21  2  0  0  0  0
 20 19  1  0  0  0  0
 23 22  1  1  0  0  0
 23 20  1  0  0  0  0
 24 23  1  0  0  0  0
 25 24  1  0  0  0  0
M  END
>  <MODEL>
8

>  <REMARK>
 VINA RESULT:      -6.7      2.250      6.066
  Name = 
  4 active torsions:
  status: ('A' for Active; 'I' for Inactive)
    1  A    between atoms: C_1  and  C_5
    2  A    between atoms: C_2  and  C_21
    3  A    between atoms: N_6  and  C_23
    4  A    between atoms: C_15  and  C_21
                            x       y       z     vdW  Elec       q    Type
                         _______ _______ _______ _____ _____    ______ ____

>  <TORSDO>
F 4

$$$$
=
 OpenBabel11052422073D

 25 27  0  0  1  0  0  0  0  0999 V2000
  160.8500  208.1230  152.8150 C   0  0  0  0  0  0  0  0  0  0  0  0
  160.9630  207.0490  151.9020 C   0  0  0  0  0  0  0  0  0  0  0  0
  160.9340  206.5830  154.6230 C   0  0  0  0  0  3  0  0  0  0  0  0
  161.0530  205.5410  153.7650 N   0  0  0  0  0  0  0  0  0  0  0  0
  161.1770  204.6440  151.5420 C   0  0  0  0  0  0  0  0  0  0  0  0
  161.2970  203.2490  152.0530 C   0  0  0  0  0  1  0  0  0  0  0  0
  160.9460  207.2360  150.5120 C   0  0  0  0  0  3  0  0  0  0  0  0
  160.8330  207.8500  154.1490 N   0  0  0  0  0  0  0  0  0  0  0  0
  161.1680  204.8580  150.1620 C   0  0  0  0  0  3  0  0  0  0  0  0
  161.0490  206.1510  149.6380 C   0  0  0  0  0  0  0  0  0  0  0  0
  161.0680  205.7370  152.4200 C   0  0  0  0  0  0  0  0  0  0  0  0
  160.7500  209.5440  152.3880 C   0  0  0  0  0  0  0  0  0  0  0  0
  160.4540  212.1250  151.2010 C   0  0  0  0  0  3  0  0  0  0  0  0
  161.7450  210.1370  151.4680 C   0  0  0  0  0  0  0  0  0  0  0  0
  161.4710  211.3980  150.8500 N   0  0  0  0  0  0  0  0  0  0  0  0
  159.5470  211.7320  152.3360 C   0  0  0  0  0  2  0  0  0  0  0  0
  162.8170  209.5340  151.1980 O   0  0  0  0  0  0  0  0  0  0  0  0
  159.6890  210.2850  152.7290 C   0  0  0  0  0  3  0  0  0  0  0  0
  161.0320  206.4010  148.2260 N   0  0  0  0  0  2  0  0  0  0  0  0
  161.5360  205.5390  147.1970 C   0  0  0  0  0  0  0  0  0  0  0  0
  162.0520  204.4240  147.4770 O   0  0  0  0  0  0  0  0  0  0  0  0
  162.5810  205.4660  144.9350 C   0  0  0  0  0  1  0  0  0  0  0  0
  161.4190  205.9760  145.7710 C   0  0  1  0  0  3  0  0  0  0  0  0
  160.0770  205.5850  145.1620 C   0  0  0  0  0  2  0  0  0  0  0  0
  160.1610  204.3520  144.5080 O   0  0  0  0  0  1  0  0  0  0  0  0
  1  8  1  0  0  0  0
  2 11  1  0  0  0  0
  2  1  2  0  0  0  0
  4  3  1  0  0  0  0
  5  6  1  0  0  0  0
  5 11  1  0  0  0  0
  7  2  1  0  0  0  0
  8  3  2  0  0  0  0
  9  5  2  0  0  0  0
 10  9  1  0  0  0  0
 10  7  2  0  0  0  0
 11  4  2  0  0  0  0
 12 18  2  0  0  0  0
 12  1  1  0  0  0  0
 13 16  1  0  0  0  0
 14 12  1  0  0  0  0
 15 13  2  0  0  0  0
 15 14  1  0  0  0  0
 16 18  1  0  0  0  0
 17 14  2  0  0  0  0
 19 10  1  0  0  0  0
 20 21  2  0  0  0  0
 20 19  1  0  0  0  0
 23 22  1  6  0  0  0
 23 20  1  0  0  0  0
 24 23  1  0  0  0  0
 25 24  1  0  0  0  0
M  END
>  <MODEL>
9

>  <REMARK>
 VINA RESULT:      -6.6      2.365      5.929
  Name = 
  4 active torsions:
  status: ('A' for Active; 'I' for Inactive)
    1  A    between atoms: C_1  and  C_5
    2  A    between atoms: C_2  and  C_21
    3  A    between atoms: N_6  and  C_23
    4  A    between atoms: C_15  and  C_21
                            x       y       z     vdW  Elec       q    Type
                         _______ _______ _______ _____ _____    ______ ____

>  <TORSDO>
F 4

$$$$
