=
 OpenBabel11062409413D

 34 37  0  0  1  0  0  0  0  0999 V2000
  160.6230  211.0110  153.2320 N   0  0  0  0  0  0  0  0  0  0  0  0
  158.0320  213.0140  151.3170 C   0  0  0  0  0  3  0  0  0  0  0  0
  157.9180  212.2390  153.5980 C   0  0  0  0  0  2  0  0  0  0  0  0
  160.0570  209.9610  155.4700 C   0  0  0  0  0  3  0  0  0  0  0  0
  158.9660  210.0510  156.2680 N   0  0  0  0  0  2  0  0  0  0  0  0
  158.5630  211.2770  154.5420 C   0  0  0  0  0  0  0  0  0  0  0  0
  159.8010  210.7470  154.3690 C   0  0  0  0  0  0  0  0  0  0  0  0
  158.0620  210.8510  155.7110 N   0  0  0  0  0  0  0  0  0  0  0  0
  158.6890  212.3830  152.3030 C   0  0  0  0  0  0  0  0  0  0  0  0
  160.8110  212.1250  151.1940 O   0  0  0  0  0  0  0  0  0  0  0  0
  160.0890  211.8480  152.1880 C   0  0  0  0  0  0  0  0  0  0  0  0
  158.5060  213.3120  149.9260 C   0  0  2  0  0  3  0  0  0  0  0  0
  159.2890  214.4530  149.8930 F   0  0  0  0  0  0  0  0  0  0  0  0
  157.3480  213.3870  148.9420 C   0  0  0  0  0  2  0  0  0  0  0  0
  157.7870  212.9550  147.5860 C   0  0  0  0  0  0  0  0  0  0  0  0
  159.1260  212.6740  147.3460 O   0  0  0  0  0  1  0  0  0  0  0  0
  156.9500  212.8740  146.6490 O   0  0  0  0  0  0  0  0  0  0  0  0
  161.9340  210.3830  153.1010 C   0  0  0  0  0  2  0  0  0  0  0  0
  161.8470  209.1970  152.2040 C   0  0  0  0  0  0  0  0  0  0  0  0
  162.2240  209.2980  151.0060 O   0  0  0  0  0  0  0  0  0  0  0  0
  161.3730  207.9520  152.7330 N   0  0  0  0  0  2  0  0  0  0  0  0
  161.0980  204.2800  152.1440 C   0  0  0  0  0  3  0  0  0  0  0  0
  161.2860  206.6330  150.6330 C   0  0  0  0  0  3  0  0  0  0  0  0
  161.0240  202.9410  148.6940 C   0  0  0  0  0  0  0  0  0  0  0  0
  161.0170  202.9870  150.0930 C   0  0  0  0  0  3  0  0  0  0  0  0
  161.1040  204.2140  150.7500 C   0  0  0  0  0  0  0  0  0  0  0  0
  161.2050  205.3320  148.6300 N   0  0  0  0  0  0  0  0  0  0  0  0
  161.1980  205.3970  149.9880 C   0  0  0  0  0  0  0  0  0  0  0  0
  161.1200  204.1410  147.9760 C   0  0  0  0  0  3  0  0  0  0  0  0
  161.2810  206.7020  152.0360 C   0  0  0  0  0  0  0  0  0  0  0  0
  161.1870  205.5210  152.7830 C   0  0  0  0  0  3  0  0  0  0  0  0
  160.9330  201.6550  147.9830 C   0  0  0  0  0  0  0  0  0  0  0  0
  160.6830  201.6280  146.6160 O   0  0  0  0  0  0  0  0  0  0  0  0
  161.0820  200.5700  148.6060 O   0  0  0  0  0  1  0  0  0  0  0  0
  1  7  1  0  0  0  0
  2  9  2  0  0  0  0
  3  6  1  0  0  0  0
  4  5  1  0  0  0  0
  6  8  2  0  0  0  0
  7  6  1  0  0  0  0
  7  4  2  0  0  0  0
  8  5  1  0  0  0  0
  9  3  1  0  0  0  0
 10 11  2  0  0  0  0
 11  9  1  0  0  0  0
 11  1  1  0  0  0  0
 12 13  1  1  0  0  0
 12  2  1  0  0  0  0
 14 12  1  0  0  0  0
 15 14  1  0  0  0  0
 16 15  1  0  0  0  0
 17 15  2  0  0  0  0
 18  1  1  0  0  0  0
 19 21  1  0  0  0  0
 19 18  1  0  0  0  0
 20 19  2  0  0  0  0
 22 31  1  0  0  0  0
 23 30  1  0  0  0  0
 24 25  2  0  0  0  0
 25 26  1  0  0  0  0
 26 22  2  0  0  0  0
 27 28  1  0  0  0  0
 28 23  2  0  0  0  0
 28 26  1  0  0  0  0
 29 27  2  0  0  0  0
 29 24  1  0  0  0  0
 30 21  1  0  0  0  0
 30 31  2  0  0  0  0
 32 34  1  0  0  0  0
 32 24  1  0  0  0  0
 33 32  2  0  0  0  0
M  END
>  <MODEL>
1

>  <REMARK>
 VINA RESULT:      -8.5      0.000      0.000
  Name = 
  7 active torsions:
  status: ('A' for Active; 'I' for Inactive)
    1  A    between atoms: N_1  and  C_9
    2  A    between atoms: C_2  and  C_23
    3  A    between atoms: C_3  and  C_27
    4  A    between atoms: C_7  and  C_11
    5  A    between atoms: C_8  and  C_9
    6  A    between atoms: N_18  and  C_30
    7  A    between atoms: C_23  and  C_27
                            x       y       z     vdW  Elec       q    Type
                         _______ _______ _______ _____ _____    ______ ____

>  <TORSDO>
F 7

$$$$
=
 OpenBabel11062409413D

 34 37  0  0  1  0  0  0  0  0999 V2000
  161.0170  211.0500  151.5560 N   0  0  0  0  0  0  0  0  0  0  0  0
  158.1560  211.8370  153.9210 C   0  0  0  0  0  3  0  0  0  0  0  0
  158.5790  212.7750  151.7390 C   0  0  0  0  0  2  0  0  0  0  0  0
  161.4540  212.4980  149.5210 C   0  0  0  0  0  3  0  0  0  0  0  0
  160.7660  213.5270  148.9710 N   0  0  0  0  0  0  0  0  0  0  0  0
  159.6510  212.9050  150.7070 C   0  0  0  0  0  0  0  0  0  0  0  0
  160.7400  212.0990  150.6280 C   0  0  1  0  0  3  0  0  0  0  0  0
  159.6710  213.7730  149.6840 N   0  0  0  0  0  0  0  0  0  0  0  0
  158.9460  211.7990  152.8360 C   0  0  0  0  0  0  0  0  0  0  0  0
  160.3200  209.9260  153.4750 O   0  0  0  0  0  0  0  0  0  0  0  0
  160.1160  210.8700  152.6650 C   0  0  0  0  0  0  0  0  0  0  0  0
  158.2510  211.0140  155.1690 C   0  0  2  0  0  3  0  0  0  0  0  0
  156.9980  210.6490  155.6310 F   0  0  0  0  0  0  0  0  0  0  0  0
  159.0720  211.7140  156.2430 C   0  0  0  0  0  2  0  0  0  0  0  0
  160.2240  210.8640  156.6550 C   0  0  0  0  0  0  0  0  0  0  0  0
  161.5240  211.3120  156.4550 O   0  0  0  0  0  0  0  0  0  0  0  0
  160.0210  209.7270  157.1560 O   0  0  0  0  0  1  0  0  0  0  0  0
  162.2240  210.2390  151.4230 C   0  0  0  0  0  2  0  0  0  0  0  0
  161.9580  209.0640  150.5480 C   0  0  0  0  0  0  0  0  0  0  0  0
  161.9940  209.2040  149.2960 O   0  0  0  0  0  0  0  0  0  0  0  0
  161.7070  207.7860  151.1470 N   0  0  0  0  0  2  0  0  0  0  0  0
  160.8250  204.2090  150.5720 C   0  0  0  0  0  3  0  0  0  0  0  0
  161.7290  206.4060  149.0850 C   0  0  0  0  0  3  0  0  0  0  0  0
  161.0890  202.7400  147.1850 C   0  0  0  0  0  0  0  0  0  0  0  0
  160.8480  202.8560  148.5590 C   0  0  0  0  0  3  0  0  0  0  0  0
  161.0590  204.0750  149.2030 C   0  0  0  0  0  0  0  0  0  0  0  0
  161.7430  205.0470  147.1190 N   0  0  0  0  0  0  0  0  0  0  0  0
  161.5140  205.1790  148.4530 C   0  0  0  0  0  0  0  0  0  0  0  0
  161.5410  203.8630  146.4780 C   0  0  0  0  0  3  0  0  0  0  0  0
  161.4940  206.5440  150.4630 C   0  0  0  0  0  0  0  0  0  0  0  0
  161.0420  205.4410  151.1980 C   0  0  0  0  0  3  0  0  0  0  0  0
  160.8730  201.4610  146.4890 C   0  0  0  0  0  0  0  0  0  0  0  0
  160.2580  201.4390  145.2410 O   0  0  0  0  0  0  0  0  0  0  0  0
  161.2420  200.3780  147.0140 O   0  0  0  0  0  1  0  0  0  0  0  0
  1 11  1  0  0  0  0
  2 12  1  0  0  0  0
  3  9  1  0  0  0  0
  5  4  2  0  0  0  0
  5  8  1  0  0  0  0
  6  3  1  0  0  0  0
  7  4  1  6  0  0  0
  7  6  1  0  0  0  0
  7  1  1  0  0  0  0
  8  6  2  0  0  0  0
  9  2  2  0  0  0  0
 11  9  1  0  0  0  0
 11 10  2  0  0  0  0
 12 13  1  1  0  0  0
 12 14  1  0  0  0  0
 14 15  1  0  0  0  0
 15 17  1  0  0  0  0
 16 15  2  0  0  0  0
 18  1  1  0  0  0  0
 19 21  1  0  0  0  0
 19 18  1  0  0  0  0
 20 19  2  0  0  0  0
 22 31  1  0  0  0  0
 23 30  1  0  0  0  0
 24 25  2  0  0  0  0
 25 26  1  0  0  0  0
 26 22  2  0  0  0  0
 27 28  1  0  0  0  0
 28 23  2  0  0  0  0
 28 26  1  0  0  0  0
 29 27  2  0  0  0  0
 29 24  1  0  0  0  0
 30 21  1  0  0  0  0
 30 31  2  0  0  0  0
 32 34  1  0  0  0  0
 32 24  1  0  0  0  0
 33 32  2  0  0  0  0
M  END
>  <MODEL>
2

>  <REMARK>
 VINA RESULT:      -7.9      2.729      4.612
  Name = 
  7 active torsions:
  status: ('A' for Active; 'I' for Inactive)
    1  A    between atoms: N_1  and  C_9
    2  A    between atoms: C_2  and  C_23
    3  A    between atoms: C_3  and  C_27
    4  A    between atoms: C_7  and  C_11
    5  A    between atoms: C_8  and  C_9
    6  A    between atoms: N_18  and  C_30
    7  A    between atoms: C_23  and  C_27
                            x       y       z     vdW  Elec       q    Type
                         _______ _______ _______ _____ _____    ______ ____

>  <TORSDO>
F 7

$$$$
=
 OpenBabel11062409413D

 34 37  0  0  1  0  0  0  0  0999 V2000
  161.9350  207.3140  150.8570 N   0  0  0  0  0  0  0  0  0  0  0  0
  160.8140  205.5510  147.6900 C   0  0  0  0  0  3  0  0  0  0  0  0
  160.5430  204.8170  149.9710 C   0  0  0  0  0  2  0  0  0  0  0  0
  161.9100  206.1120  153.0890 C   0  0  0  0  0  3  0  0  0  0  0  0
  161.4400  204.8980  153.4640 N   0  0  0  0  0  2  0  0  0  0  0  0
  161.0430  205.0810  151.3540 C   0  0  0  0  0  0  0  0  0  0  0  0
  161.6530  206.2300  151.7420 C   0  0  0  0  0  0  0  0  0  0  0  0
  160.9100  204.2740  152.4170 N   0  0  0  0  0  0  0  0  0  0  0  0
  160.9980  205.8680  148.9810 C   0  0  0  0  0  0  0  0  0  0  0  0
  161.8000  208.1180  148.6730 O   0  0  0  0  0  0  0  0  0  0  0  0
  161.5960  207.1590  149.4650 C   0  0  0  0  0  0  0  0  0  0  0  0
  161.1550  206.3610  146.4760 C   0  0  2  0  0  3  0  0  0  0  0  0
  160.0170  206.7320  145.7790 F   0  0  0  0  0  0  0  0  0  0  0  0
  162.1590  205.6440  145.5860 C   0  0  0  0  0  2  0  0  0  0  0  0
  161.4570  204.8860  144.5130 C   0  0  0  0  0  0  0  0  0  0  0  0
  160.9560  203.6160  144.7730 O   0  0  0  0  0  1  0  0  0  0  0  0
  161.3430  205.3830  143.3620 O   0  0  0  0  0  0  0  0  0  0  0  0
  162.6200  208.5090  151.3390 C   0  0  0  0  0  2  0  0  0  0  0  0
  161.6360  209.4700  151.9080 C   0  0  0  0  0  0  0  0  0  0  0  0
  161.2350  210.4360  151.2050 O   0  0  0  0  0  0  0  0  0  0  0  0
  161.1320  209.2560  153.2330 N   0  0  0  0  0  2  0  0  0  0  0  0
  158.9590  210.5410  155.9770 C   0  0  0  0  0  3  0  0  0  0  0  0
  159.3940  211.0260  153.2510 C   0  0  0  0  0  3  0  0  0  0  0  0
  156.5220  213.2490  155.3180 C   0  0  0  0  0  0  0  0  0  0  0  0
  157.2560  212.2700  155.9970 C   0  0  0  0  0  3  0  0  0  0  0  0
  158.2170  211.5230  155.3160 C   0  0  0  0  0  0  0  0  0  0  0  0
  157.7110  212.7230  153.3020 N   0  0  0  0  0  0  0  0  0  0  0  0
  158.4350  211.7680  153.9450 C   0  0  0  0  0  0  0  0  0  0  0  0
  156.7710  213.4600  153.9540 C   0  0  0  0  0  3  0  0  0  0  0  0
  160.1420  210.0390  153.9130 C   0  0  0  0  0  0  0  0  0  0  0  0
  159.9170  209.8030  155.2750 C   0  0  0  0  0  3  0  0  0  0  0  0
  155.5040  214.0470  156.0190 C   0  0  0  0  0  0  0  0  0  0  0  0
  154.3500  214.4490  155.3550 O   0  0  0  0  0  0  0  0  0  0  0  0
  155.6670  214.3730  157.2250 O   0  0  0  0  0  1  0  0  0  0  0  0
  1 18  1  0  0  0  0
  1  7  1  0  0  0  0
  2  9  2  0  0  0  0
  3  6  1  0  0  0  0
  4  5  1  0  0  0  0
  6  7  1  0  0  0  0
  6  8  2  0  0  0  0
  7  4  2  0  0  0  0
  8  5  1  0  0  0  0
  9 11  1  0  0  0  0
  9  3  1  0  0  0  0
 10 11  2  0  0  0  0
 11  1  1  0  0  0  0
 12 13  1  6  0  0  0
 12  2  1  0  0  0  0
 14 12  1  0  0  0  0
 15 16  1  0  0  0  0
 15 14  1  0  0  0  0
 17 15  2  0  0  0  0
 18 19  1  0  0  0  0
 19 21  1  0  0  0  0
 20 19  2  0  0  0  0
 21 30  1  0  0  0  0
 23 30  2  0  0  0  0
 23 28  1  0  0  0  0
 24 25  1  0  0  0  0
 24 32  1  0  0  0  0
 26 22  1  0  0  0  0
 26 25  2  0  0  0  0
 27 28  2  0  0  0  0
 27 29  1  0  0  0  0
 28 26  1  0  0  0  0
 29 24  2  0  0  0  0
 30 31  1  0  0  0  0
 31 22  2  0  0  0  0
 32 34  1  0  0  0  0
 33 32  2  0  0  0  0
M  END
>  <MODEL>
3

>  <REMARK>
 VINA RESULT:      -7.6      3.273      8.829
  Name = 
  7 active torsions:
  status: ('A' for Active; 'I' for Inactive)
    1  A    between atoms: N_1  and  C_9
    2  A    between atoms: C_2  and  C_23
    3  A    between atoms: C_3  and  C_27
    4  A    between atoms: C_7  and  C_11
    5  A    between atoms: C_8  and  C_9
    6  A    between atoms: N_18  and  C_30
    7  A    between atoms: C_23  and  C_27
                            x       y       z     vdW  Elec       q    Type
                         _______ _______ _______ _____ _____    ______ ____

>  <TORSDO>
F 7

$$$$
=
 OpenBabel11062409413D

 34 37  0  0  1  0  0  0  0  0999 V2000
  160.9800  209.9990  153.6980 N   0  0  0  0  0  0  0  0  0  0  0  0
  158.2270  212.2660  154.9940 C   0  0  0  0  0  3  0  0  0  0  0  0
  159.0280  210.2040  155.9570 C   0  0  0  0  0  2  0  0  0  0  0  0
  161.3170  207.6810  154.6680 C   0  0  0  0  0  3  0  0  0  0  0  0
  160.7510  207.0440  155.7220 N   0  0  0  0  0  2  0  0  0  0  0  0
  159.8410  208.9950  155.6270 C   0  0  0  0  0  0  0  0  0  0  0  0
  160.7370  208.9280  154.6100 C   0  0  0  0  0  0  0  0  0  0  0  0
  159.8610  207.8390  156.3080 N   0  0  0  0  0  0  0  0  0  0  0  0
  159.1310  211.2780  154.8950 C   0  0  0  0  0  0  0  0  0  0  0  0
  160.4190  212.1710  153.0660 O   0  0  0  0  0  0  0  0  0  0  0  0
  160.1940  211.1990  153.8360 C   0  0  0  0  0  0  0  0  0  0  0  0
  158.0580  213.4630  154.1090 C   0  0  2  0  0  3  0  0  0  0  0  0
  158.9810  214.4490  154.4110 F   0  0  0  0  0  0  0  0  0  0  0  0
  156.6300  213.9890  154.1440 C   0  0  0  0  0  2  0  0  0  0  0  0
  156.0840  214.1040  152.7630 C   0  0  0  0  0  0  0  0  0  0  0  0
  154.7180  213.9790  152.5430 O   0  0  0  0  0  1  0  0  0  0  0  0
  156.8630  214.2840  151.7900 O   0  0  0  0  0  0  0  0  0  0  0  0
  161.9410  209.8460  152.6100 C   0  0  0  0  0  2  0  0  0  0  0  0
  161.4960  208.7700  151.6800 C   0  0  0  0  0  0  0  0  0  0  0  0
  160.2670  208.5170  151.5700 O   0  0  0  0  0  0  0  0  0  0  0  0
  162.4730  208.0700  150.8990 N   0  0  0  0  0  2  0  0  0  0  0  0
  162.2070  206.3990  147.5770 C   0  0  0  0  0  3  0  0  0  0  0  0
  161.7600  205.7780  150.2730 C   0  0  0  0  0  3  0  0  0  0  0  0
  161.0470  202.8920  147.3370 C   0  0  0  0  0  0  0  0  0  0  0  0
  161.5070  204.1590  146.9610 C   0  0  0  0  0  3  0  0  0  0  0  0
  161.7480  205.1290  147.9330 C   0  0  0  0  0  0  0  0  0  0  0  0
  161.0750  203.5790  149.6350 N   0  0  0  0  0  0  0  0  0  0  0  0
  161.5230  204.8150  149.2890 C   0  0  0  0  0  0  0  0  0  0  0  0
  160.8360  202.6220  148.6970 C   0  0  0  0  0  3  0  0  0  0  0  0
  162.2220  207.0560  149.9180 C   0  0  0  0  0  0  0  0  0  0  0  0
  162.4420  207.3570  148.5680 C   0  0  0  0  0  3  0  0  0  0  0  0
  160.7860  201.8550  146.3250 C   0  0  0  0  0  0  0  0  0  0  0  0
  161.0770  200.5220  146.5970 O   0  0  0  0  0  1  0  0  0  0  0  0
  160.2980  202.1640  145.2060 O   0  0  0  0  0  0  0  0  0  0  0  0
  1 11  1  0  0  0  0
  1  7  1  0  0  0  0
  4  5  1  0  0  0  0
  5  8  1  0  0  0  0
  6  3  1  0  0  0  0
  6  8  2  0  0  0  0
  7  4  2  0  0  0  0
  7  6  1  0  0  0  0
  9  2  2  0  0  0  0
  9  3  1  0  0  0  0
 10 11  2  0  0  0  0
 11  9  1  0  0  0  0
 12 14  1  0  0  0  0
 12 13  1  1  0  0  0
 12  2  1  0  0  0  0
 15 14  1  0  0  0  0
 16 15  1  0  0  0  0
 17 15  2  0  0  0  0
 18  1  1  0  0  0  0
 19 18  1  0  0  0  0
 20 19  2  0  0  0  0
 21 19  1  0  0  0  0
 22 26  2  0  0  0  0
 22 31  1  0  0  0  0
 24 29  1  0  0  0  0
 25 24  2  0  0  0  0
 25 26  1  0  0  0  0
 26 28  1  0  0  0  0
 28 27  1  0  0  0  0
 28 23  2  0  0  0  0
 29 27  2  0  0  0  0
 30 23  1  0  0  0  0
 30 21  1  0  0  0  0
 31 30  2  0  0  0  0
 32 33  1  0  0  0  0
 32 24  1  0  0  0  0
 34 32  2  0  0  0  0
M  END
>  <MODEL>
4

>  <REMARK>
 VINA RESULT:      -7.5      2.585      3.324
  Name = 
  7 active torsions:
  status: ('A' for Active; 'I' for Inactive)
    1  A    between atoms: N_1  and  C_9
    2  A    between atoms: C_2  and  C_23
    3  A    between atoms: C_3  and  C_27
    4  A    between atoms: C_7  and  C_11
    5  A    between atoms: C_8  and  C_9
    6  A    between atoms: N_18  and  C_30
    7  A    between atoms: C_23  and  C_27
                            x       y       z     vdW  Elec       q    Type
                         _______ _______ _______ _____ _____    ______ ____

>  <TORSDO>
F 7

$$$$
=
 OpenBabel11062409413D

 34 37  0  0  1  0  0  0  0  0999 V2000
  160.5450  209.7540  154.2230 N   0  0  0  0  0  0  0  0  0  0  0  0
  157.8320  212.2920  154.9930 C   0  0  0  0  0  3  0  0  0  0  0  0
  159.0460  211.9980  152.9290 C   0  0  0  0  0  2  0  0  0  0  0  0
  161.9500  209.9540  152.1220 C   0  0  0  0  0  3  0  0  0  0  0  0
  161.8740  210.7800  151.0510 N   0  0  0  0  0  0  0  0  0  0  0  0
  160.2670  211.3430  152.3720 C   0  0  0  0  0  0  0  0  0  0  0  0
  160.9210  210.3120  152.9640 C   0  0  1  0  0  3  0  0  0  0  0  0
  160.8530  211.6190  151.1970 N   0  0  0  0  0  0  0  0  0  0  0  0
  158.7440  211.5510  154.3440 C   0  0  0  0  0  0  0  0  0  0  0  0
  159.0660  209.8530  156.0210 O   0  0  0  0  0  0  0  0  0  0  0  0
  159.4390  210.3530  154.9260 C   0  0  0  0  0  0  0  0  0  0  0  0
  157.3190  212.1210  156.3910 C   0  0  2  0  0  3  0  0  0  0  0  0
  156.3880  211.0990  156.4650 F   0  0  0  0  0  0  0  0  0  0  0  0
  156.7770  213.4270  156.9540 C   0  0  0  0  0  2  0  0  0  0  0  0
  155.4160  213.7010  156.4160 C   0  0  0  0  0  0  0  0  0  0  0  0
  155.2530  214.0560  155.0830 O   0  0  0  0  0  0  0  0  0  0  0  0
  154.4150  213.6420  157.1770 O   0  0  0  0  0  1  0  0  0  0  0  0
  161.3140  208.6620  154.8130 C   0  0  0  0  0  2  0  0  0  0  0  0
  161.0210  207.3870  154.1010 C   0  0  0  0  0  0  0  0  0  0  0  0
  160.1560  206.6000  154.5710 O   0  0  0  0  0  0  0  0  0  0  0  0
  161.7010  207.0970  152.8730 N   0  0  0  0  0  2  0  0  0  0  0  0
  161.0090  203.5820  151.8390 C   0  0  0  0  0  3  0  0  0  0  0  0
  161.5970  206.0420  150.6300 C   0  0  0  0  0  3  0  0  0  0  0  0
  161.0110  202.6540  148.2550 C   0  0  0  0  0  0  0  0  0  0  0  0
  160.9110  202.5460  149.6470 C   0  0  0  0  0  3  0  0  0  0  0  0
  161.1050  203.6710  150.4490 C   0  0  0  0  0  0  0  0  0  0  0  0
  161.4940  204.9930  148.4860 N   0  0  0  0  0  0  0  0  0  0  0  0
  161.4000  204.9070  149.8390 C   0  0  0  0  0  0  0  0  0  0  0  0
  161.3070  203.9030  147.6910 C   0  0  0  0  0  3  0  0  0  0  0  0
  161.5020  205.9560  152.0290 C   0  0  0  0  0  0  0  0  0  0  0  0
  161.2080  204.7220  152.6240 C   0  0  0  0  0  3  0  0  0  0  0  0
  160.8100  201.4780  147.3930 C   0  0  0  0  0  0  0  0  0  0  0  0
  161.2660  200.2280  147.7970 O   0  0  0  0  0  1  0  0  0  0  0  0
  160.2240  201.5930  146.2840 O   0  0  0  0  0  0  0  0  0  0  0  0
  1 18  1  0  0  0  0
  1 11  1  0  0  0  0
  2 12  1  0  0  0  0
  3  9  1  0  0  0  0
  5  8  1  0  0  0  0
  5  4  2  0  0  0  0
  6  3  1  0  0  0  0
  6  7  1  0  0  0  0
  7  4  1  6  0  0  0
  7  1  1  0  0  0  0
  8  6  2  0  0  0  0
  9 11  1  0  0  0  0
  9  2  2  0  0  0  0
 11 10  2  0  0  0  0
 12 13  1  6  0  0  0
 12 14  1  0  0  0  0
 15 14  1  0  0  0  0
 15 17  1  0  0  0  0
 16 15  2  0  0  0  0
 19 20  2  0  0  0  0
 19 18  1  0  0  0  0
 21 19  1  0  0  0  0
 22 31  1  0  0  0  0
 23 30  1  0  0  0  0
 24 25  2  0  0  0  0
 25 26  1  0  0  0  0
 26 22  2  0  0  0  0
 27 28  1  0  0  0  0
 28 26  1  0  0  0  0
 28 23  2  0  0  0  0
 29 24  1  0  0  0  0
 29 27  2  0  0  0  0
 30 31  2  0  0  0  0
 30 21  1  0  0  0  0
 32 33  1  0  0  0  0
 32 24  1  0  0  0  0
 34 32  2  0  0  0  0
M  END
>  <MODEL>
5

>  <REMARK>
 VINA RESULT:      -7.4      3.296      4.408
  Name = 
  7 active torsions:
  status: ('A' for Active; 'I' for Inactive)
    1  A    between atoms: N_1  and  C_9
    2  A    between atoms: C_2  and  C_23
    3  A    between atoms: C_3  and  C_27
    4  A    between atoms: C_7  and  C_11
    5  A    between atoms: C_8  and  C_9
    6  A    between atoms: N_18  and  C_30
    7  A    between atoms: C_23  and  C_27
                            x       y       z     vdW  Elec       q    Type
                         _______ _______ _______ _____ _____    ______ ____

>  <TORSDO>
F 7

$$$$
=
 OpenBabel11062409413D

 34 37  0  0  1  0  0  0  0  0999 V2000
  161.3200  212.5900  148.9880 N   0  0  0  0  0  0  0  0  0  0  0  0
  160.1620  214.0770  145.6950 C   0  0  0  0  0  3  0  0  0  0  0  0
  159.2060  214.4000  147.8850 C   0  0  0  0  0  2  0  0  0  0  0  0
  159.8710  212.7500  151.0640 C   0  0  0  0  0  3  0  0  0  0  0  0
  158.7120  213.4040  151.3170 N   0  0  0  0  0  2  0  0  0  0  0  0
  159.2150  213.8240  149.2640 C   0  0  0  0  0  0  0  0  0  0  0  0
  160.1940  213.0220  149.7530 C   0  0  0  0  0  0  0  0  0  0  0  0
  158.3140  214.0590  150.2310 N   0  0  0  0  0  0  0  0  0  0  0  0
  160.2850  213.8070  147.0040 C   0  0  0  0  0  0  0  0  0  0  0  0
  162.3980  212.6530  146.9230 O   0  0  0  0  0  0  0  0  0  0  0  0
  161.3940  212.9900  147.6060 C   0  0  0  0  0  0  0  0  0  0  0  0
  161.0510  213.6410  144.5690 C   0  0  2  0  0  3  0  0  0  0  0  0
  162.1690  214.4500  144.4650 F   0  0  0  0  0  0  0  0  0  0  0  0
  160.2890  213.5520  143.2550 C   0  0  0  0  0  2  0  0  0  0  0  0
  160.9910  212.6440  142.3060 C   0  0  0  0  0  0  0  0  0  0  0  0
  162.0860  213.1030  141.5840 O   0  0  0  0  0  0  0  0  0  0  0  0
  160.5740  211.4680  142.1340 O   0  0  0  0  0  1  0  0  0  0  0  0
  162.3210  211.7040  149.5730 C   0  0  0  0  0  2  0  0  0  0  0  0
  161.9410  210.2820  149.3490 C   0  0  0  0  0  0  0  0  0  0  0  0
  161.6550  209.8940  148.1840 O   0  0  0  0  0  0  0  0  0  0  0  0
  161.9450  209.3720  150.4560 N   0  0  0  0  0  2  0  0  0  0  0  0
  161.1190  205.9260  151.6180 C   0  0  0  0  0  3  0  0  0  0  0  0
  161.6700  207.2450  149.2070 C   0  0  0  0  0  3  0  0  0  0  0  0
  160.8600  203.1460  149.1880 C   0  0  0  0  0  0  0  0  0  0  0  0
  160.8530  203.8450  150.4010 C   0  0  0  0  0  3  0  0  0  0  0  0
  161.1220  205.2130  150.4180 C   0  0  0  0  0  0  0  0  0  0  0  0
  161.4030  205.1790  148.0360 N   0  0  0  0  0  0  0  0  0  0  0  0
  161.3990  205.8750  149.2040 C   0  0  0  0  0  0  0  0  0  0  0  0
  161.1410  203.8440  148.0040 C   0  0  0  0  0  3  0  0  0  0  0  0
  161.6680  207.9660  150.4130 C   0  0  0  0  0  0  0  0  0  0  0  0
  161.3920  207.2980  151.6130 C   0  0  0  0  0  3  0  0  0  0  0  0
  160.5790  201.7020  149.1500 C   0  0  0  0  0  0  0  0  0  0  0  0
  161.5350  200.8150  148.6630 O   0  0  0  0  0  0  0  0  0  0  0  0
  159.4750  201.2560  149.5570 O   0  0  0  0  0  1  0  0  0  0  0  0
  1 18  1  0  0  0  0
  1  7  1  0  0  0  0
  2  9  2  0  0  0  0
  3  6  1  0  0  0  0
  4  5  1  0  0  0  0
  6  7  1  0  0  0  0
  6  8  2  0  0  0  0
  7  4  2  0  0  0  0
  8  5  1  0  0  0  0
  9 11  1  0  0  0  0
  9  3  1  0  0  0  0
 10 11  2  0  0  0  0
 11  1  1  0  0  0  0
 12 13  1  6  0  0  0
 12  2  1  0  0  0  0
 14 12  1  0  0  0  0
 15 14  1  0  0  0  0
 16 15  2  0  0  0  0
 17 15  1  0  0  0  0
 19 18  1  0  0  0  0
 19 21  1  0  0  0  0
 20 19  2  0  0  0  0
 23 30  1  0  0  0  0
 24 25  2  0  0  0  0
 25 26  1  0  0  0  0
 26 22  2  0  0  0  0
 27 28  1  0  0  0  0
 28 23  2  0  0  0  0
 28 26  1  0  0  0  0
 29 27  2  0  0  0  0
 29 24  1  0  0  0  0
 30 21  1  0  0  0  0
 30 31  2  0  0  0  0
 31 22  1  0  0  0  0
 32 24  1  0  0  0  0
 32 34  1  0  0  0  0
 33 32  2  0  0  0  0
M  END
>  <MODEL>
6

>  <REMARK>
 VINA RESULT:      -7.4      3.234      4.334
  Name = 
  7 active torsions:
  status: ('A' for Active; 'I' for Inactive)
    1  A    between atoms: N_1  and  C_9
    2  A    between atoms: C_2  and  C_23
    3  A    between atoms: C_3  and  C_27
    4  A    between atoms: C_7  and  C_11
    5  A    between atoms: C_8  and  C_9
    6  A    between atoms: N_18  and  C_30
    7  A    between atoms: C_23  and  C_27
                            x       y       z     vdW  Elec       q    Type
                         _______ _______ _______ _____ _____    ______ ____

>  <TORSDO>
F 7

$$$$
=
 OpenBabel11062409413D

 34 37  0  0  1  0  0  0  0  0999 V2000
  161.0560  211.4180  151.5130 N   0  0  0  0  0  0  0  0  0  0  0  0
  159.3540  211.2580  154.9010 C   0  0  0  0  0  3  0  0  0  0  0  0
  158.6000  212.4000  152.9140 C   0  0  0  0  0  2  0  0  0  0  0  0
  160.2620  213.0450  149.7380 C   0  0  0  0  0  3  0  0  0  0  0  0
  159.1950  213.8780  149.6780 N   0  0  0  0  0  0  0  0  0  0  0  0
  159.0820  212.8760  151.5830 C   0  0  0  0  0  0  0  0  0  0  0  0
  160.1870  212.4030  150.9540 C   0  0  1  0  0  3  0  0  0  0  0  0
  158.4760  213.7740  150.7910 N   0  0  0  0  0  0  0  0  0  0  0  0
  159.6030  211.4990  153.6040 C   0  0  0  0  0  0  0  0  0  0  0  0
  161.4990  210.0380  153.3380 O   0  0  0  0  0  0  0  0  0  0  0  0
  160.7690  210.9360  152.8400 C   0  0  0  0  0  0  0  0  0  0  0  0
  160.1460  210.4210  155.8590 C   0  0  2  0  0  3  0  0  0  0  0  0
  159.3200  209.7450  156.7420 F   0  0  0  0  0  0  0  0  0  0  0  0
  161.2010  211.2430  156.5840 C   0  0  0  0  0  2  0  0  0  0  0  0
  162.4460  210.4460  156.7700 C   0  0  0  0  0  0  0  0  0  0  0  0
  163.6770  211.0860  156.8410 O   0  0  0  0  0  1  0  0  0  0  0  0
  162.3860  209.1900  156.8320 O   0  0  0  0  0  0  0  0  0  0  0  0
  162.2440  210.9760  150.7900 C   0  0  0  0  0  2  0  0  0  0  0  0
  161.9510  209.7250  150.0380 C   0  0  0  0  0  0  0  0  0  0  0  0
  161.8530  209.7650  148.7820 O   0  0  0  0  0  0  0  0  0  0  0  0
  161.8240  208.4900  150.7540 N   0  0  0  0  0  2  0  0  0  0  0  0
  160.9510  204.8720  150.5290 C   0  0  0  0  0  3  0  0  0  0  0  0
  161.8150  206.9250  148.8290 C   0  0  0  0  0  3  0  0  0  0  0  0
  161.1590  203.0970  147.2870 C   0  0  0  0  0  0  0  0  0  0  0  0
  160.9440  203.3380  148.6490 C   0  0  0  0  0  3  0  0  0  0  0  0
  161.1600  204.6130  149.1730 C   0  0  0  0  0  0  0  0  0  0  0  0
  161.7990  205.3910  146.9970 N   0  0  0  0  0  0  0  0  0  0  0  0
  161.5940  205.6440  148.3170 C   0  0  0  0  0  0  0  0  0  0  0  0
  161.5920  204.1520  146.4710 C   0  0  0  0  0  3  0  0  0  0  0  0
  161.6050  207.1890  150.1920 C   0  0  0  0  0  0  0  0  0  0  0  0
  161.1740  206.1570  151.0340 C   0  0  0  0  0  3  0  0  0  0  0  0
  160.9370  201.7590  146.7160 C   0  0  0  0  0  0  0  0  0  0  0  0
  161.2190  200.6220  147.4660 O   0  0  0  0  0  1  0  0  0  0  0  0
  160.4900  201.6310  145.5450 O   0  0  0  0  0  0  0  0  0  0  0  0
  1 11  1  0  0  0  0
  2 12  1  0  0  0  0
  3  9  1  0  0  0  0
  5  4  2  0  0  0  0
  5  8  1  0  0  0  0
  6  3  1  0  0  0  0
  7  4  1  6  0  0  0
  7  1  1  0  0  0  0
  7  6  1  0  0  0  0
  8  6  2  0  0  0  0
  9  2  2  0  0  0  0
 11 10  2  0  0  0  0
 11  9  1  0  0  0  0
 12 14  1  0  0  0  0
 12 13  1  1  0  0  0
 14 15  1  0  0  0  0
 15 17  2  0  0  0  0
 15 16  1  0  0  0  0
 18  1  1  0  0  0  0
 19 21  1  0  0  0  0
 19 18  1  0  0  0  0
 20 19  2  0  0  0  0
 22 31  1  0  0  0  0
 23 30  1  0  0  0  0
 24 25  2  0  0  0  0
 25 26  1  0  0  0  0
 26 22  2  0  0  0  0
 27 28  1  0  0  0  0
 28 23  2  0  0  0  0
 28 26  1  0  0  0  0
 29 27  2  0  0  0  0
 29 24  1  0  0  0  0
 30 21  1  0  0  0  0
 30 31  2  0  0  0  0
 32 24  1  0  0  0  0
 32 33  1  0  0  0  0
 34 32  2  0  0  0  0
M  END
>  <MODEL>
7

>  <REMARK>
 VINA RESULT:      -7.4      2.760      4.928
  Name = 
  7 active torsions:
  status: ('A' for Active; 'I' for Inactive)
    1  A    between atoms: N_1  and  C_9
    2  A    between atoms: C_2  and  C_23
    3  A    between atoms: C_3  and  C_27
    4  A    between atoms: C_7  and  C_11
    5  A    between atoms: C_8  and  C_9
    6  A    between atoms: N_18  and  C_30
    7  A    between atoms: C_23  and  C_27
                            x       y       z     vdW  Elec       q    Type
                         _______ _______ _______ _____ _____    ______ ____

>  <TORSDO>
F 7

$$$$
=
 OpenBabel11062409413D

 34 37  0  0  1  0  0  0  0  0999 V2000
  160.9880  210.1540  153.5300 N   0  0  0  0  0  0  0  0  0  0  0  0
  157.9900  212.4700  153.7390 C   0  0  0  0  0  3  0  0  0  0  0  0
  158.7200  210.8390  155.3590 C   0  0  0  0  0  2  0  0  0  0  0  0
  161.2680  208.2430  155.1730 C   0  0  0  0  0  3  0  0  0  0  0  0
  160.5790  207.8900  156.2850 N   0  0  0  0  0  2  0  0  0  0  0  0
  159.6180  209.6540  155.5050 C   0  0  0  0  0  0  0  0  0  0  0  0
  160.6560  209.3720  154.6770 C   0  0  0  0  0  0  0  0  0  0  0  0
  159.5830  208.7450  156.4920 N   0  0  0  0  0  0  0  0  0  0  0  0
  158.9360  211.5700  154.0510 C   0  0  0  0  0  0  0  0  0  0  0  0
  160.4420  212.0040  152.2220 O   0  0  0  0  0  0  0  0  0  0  0  0
  160.1450  211.2770  153.2080 C   0  0  0  0  0  0  0  0  0  0  0  0
  157.9060  213.3480  152.5270 C   0  0  2  0  0  3  0  0  0  0  0  0
  159.0210  214.1600  152.4130 F   0  0  0  0  0  0  0  0  0  0  0  0
  156.6120  214.1490  152.5020 C   0  0  0  0  0  2  0  0  0  0  0  0
  155.7530  213.7860  153.6630 C   0  0  0  0  0  0  0  0  0  0  0  0
  155.9390  214.4120  154.8890 O   0  0  0  0  0  1  0  0  0  0  0  0
  154.8770  212.8890  153.5420 O   0  0  0  0  0  0  0  0  0  0  0  0
  162.1030  209.7730  152.6680 C   0  0  0  0  0  2  0  0  0  0  0  0
  161.6710  208.7220  151.7060 C   0  0  0  0  0  0  0  0  0  0  0  0
  161.0720  209.0570  150.6500 O   0  0  0  0  0  0  0  0  0  0  0  0
  161.9820  207.3500  151.9810 N   0  0  0  0  0  2  0  0  0  0  0  0
  160.8780  203.9400  150.9510 C   0  0  0  0  0  3  0  0  0  0  0  0
  161.9500  206.2410  149.7620 C   0  0  0  0  0  3  0  0  0  0  0  0
  161.1060  202.8940  147.4070 C   0  0  0  0  0  0  0  0  0  0  0  0
  160.8490  202.8520  148.7830 C   0  0  0  0  0  3  0  0  0  0  0  0
  161.1270  203.9640  149.5770 C   0  0  0  0  0  0  0  0  0  0  0  0
  161.9100  205.1420  147.6400 N   0  0  0  0  0  0  0  0  0  0  0  0
  161.6660  205.1200  148.9780 C   0  0  0  0  0  0  0  0  0  0  0  0
  161.6430  204.0640  146.8530 C   0  0  0  0  0  3  0  0  0  0  0  0
  161.7010  206.2200  151.1440 C   0  0  0  0  0  0  0  0  0  0  0  0
  161.1650  205.0660  151.7290 C   0  0  0  0  0  3  0  0  0  0  0  0
  160.8190  201.7300  146.5530 C   0  0  0  0  0  0  0  0  0  0  0  0
  161.1240  200.4470  146.9930 O   0  0  0  0  0  1  0  0  0  0  0  0
  160.2950  201.8850  145.4180 O   0  0  0  0  0  0  0  0  0  0  0  0
  1  7  1  0  0  0  0
  2  9  2  0  0  0  0
  3  6  1  0  0  0  0
  4  5  1  0  0  0  0
  5  8  1  0  0  0  0
  6  8  2  0  0  0  0
  7  4  2  0  0  0  0
  7  6  1  0  0  0  0
  9  3  1  0  0  0  0
 10 11  2  0  0  0  0
 11  1  1  0  0  0  0
 11  9  1  0  0  0  0
 12 13  1  1  0  0  0
 12  2  1  0  0  0  0
 14 12  1  0  0  0  0
 14 15  1  0  0  0  0
 15 16  1  0  0  0  0
 17 15  2  0  0  0  0
 18  1  1  0  0  0  0
 19 21  1  0  0  0  0
 19 18  1  0  0  0  0
 20 19  2  0  0  0  0
 22 31  1  0  0  0  0
 23 30  1  0  0  0  0
 24 25  2  0  0  0  0
 25 26  1  0  0  0  0
 26 22  2  0  0  0  0
 27 28  1  0  0  0  0
 28 26  1  0  0  0  0
 28 23  2  0  0  0  0
 29 24  1  0  0  0  0
 29 27  2  0  0  0  0
 30 31  2  0  0  0  0
 30 21  1  0  0  0  0
 32 33  1  0  0  0  0
 32 24  1  0  0  0  0
 34 32  2  0  0  0  0
M  END
>  <MODEL>
8

>  <REMARK>
 VINA RESULT:      -7.3      2.167      2.827
  Name = 
  7 active torsions:
  status: ('A' for Active; 'I' for Inactive)
    1  A    between atoms: N_1  and  C_9
    2  A    between atoms: C_2  and  C_23
    3  A    between atoms: C_3  and  C_27
    4  A    between atoms: C_7  and  C_11
    5  A    between atoms: C_8  and  C_9
    6  A    between atoms: N_18  and  C_30
    7  A    between atoms: C_23  and  C_27
                            x       y       z     vdW  Elec       q    Type
                         _______ _______ _______ _____ _____    ______ ____

>  <TORSDO>
F 7

$$$$
=
 OpenBabel11062409413D

 34 37  0  0  1  0  0  0  0  0999 V2000
  160.6580  211.4450  153.8760 N   0  0  0  0  0  0  0  0  0  0  0  0
  157.6860  212.8910  155.7400 C   0  0  0  0  0  3  0  0  0  0  0  0
  159.7850  212.1320  156.6550 C   0  0  0  0  0  2  0  0  0  0  0  0
  162.5580  210.3290  155.1300 C   0  0  0  0  0  3  0  0  0  0  0  0
  162.8340  210.2160  156.4520 N   0  0  0  0  0  2  0  0  0  0  0  0
  160.9910  211.3230  156.3050 C   0  0  0  0  0  0  0  0  0  0  0  0
  161.3820  211.0400  155.0370 C   0  0  0  0  0  0  0  0  0  0  0  0
  161.8900  210.8210  157.1660 N   0  0  0  0  0  0  0  0  0  0  0  0
  158.9060  212.4090  155.4540 C   0  0  0  0  0  0  0  0  0  0  0  0
  158.7800  212.5530  153.0530 O   0  0  0  0  0  0  0  0  0  0  0  0
  159.4160  212.1520  154.0640 C   0  0  0  0  0  0  0  0  0  0  0  0
  156.5860  213.2600  154.7910 C   0  0  2  0  0  3  0  0  0  0  0  0
  155.9170  214.3970  155.2110 F   0  0  0  0  0  0  0  0  0  0  0  0
  155.6370  212.0960  154.5510 C   0  0  0  0  0  2  0  0  0  0  0  0
  155.5840  211.2120  155.7490 C   0  0  0  0  0  0  0  0  0  0  0  0
  156.2240  209.9800  155.7330 O   0  0  0  0  0  0  0  0  0  0  0  0
  154.9320  211.5680  156.7660 O   0  0  0  0  0  1  0  0  0  0  0  0
  161.1250  211.0790  152.5420 C   0  0  0  0  0  2  0  0  0  0  0  0
  160.8970  209.6280  152.2990 C   0  0  0  0  0  0  0  0  0  0  0  0
  160.0480  209.0090  152.9950 O   0  0  0  0  0  0  0  0  0  0  0  0
  161.6190  208.9710  151.2490 N   0  0  0  0  0  2  0  0  0  0  0  0
  161.0910  205.2860  151.4530 C   0  0  0  0  0  3  0  0  0  0  0  0
  161.6040  207.2210  149.4910 C   0  0  0  0  0  3  0  0  0  0  0  0
  161.2030  203.2100  148.3890 C   0  0  0  0  0  0  0  0  0  0  0  0
  161.0790  203.5710  149.7360 C   0  0  0  0  0  3  0  0  0  0  0  0
  161.2110  204.9070  150.1140 C   0  0  0  0  0  0  0  0  0  0  0  0
  161.5870  205.5100  147.8230 N   0  0  0  0  0  0  0  0  0  0  0  0
  161.4680  205.8790  149.1260 C   0  0  0  0  0  0  0  0  0  0  0  0
  161.4590  204.2100  147.4400 C   0  0  0  0  0  3  0  0  0  0  0  0
  161.4840  207.6050  150.8370 C   0  0  0  0  0  0  0  0  0  0  0  0
  161.2280  206.6310  151.8100 C   0  0  0  0  0  3  0  0  0  0  0  0
  161.0670  201.8060  147.9710 C   0  0  0  0  0  0  0  0  0  0  0  0
  161.2100  200.7820  148.9020 O   0  0  0  0  0  1  0  0  0  0  0  0
  160.8200  201.5180  146.7700 O   0  0  0  0  0  0  0  0  0  0  0  0
  1 11  1  0  0  0  0
  1  7  1  0  0  0  0
  4  5  1  0  0  0  0
  5  8  1  0  0  0  0
  6  3  1  0  0  0  0
  6  8  2  0  0  0  0
  7  4  2  0  0  0  0
  7  6  1  0  0  0  0
  9  2  2  0  0  0  0
  9  3  1  0  0  0  0
 10 11  2  0  0  0  0
 11  9  1  0  0  0  0
 12 13  1  1  0  0  0
 12  2  1  0  0  0  0
 14 12  1  0  0  0  0
 14 15  1  0  0  0  0
 15 17  1  0  0  0  0
 16 15  2  0  0  0  0
 18  1  1  0  0  0  0
 19 18  1  0  0  0  0
 19 20  2  0  0  0  0
 21 19  1  0  0  0  0
 22 31  1  0  0  0  0
 23 30  1  0  0  0  0
 24 25  2  0  0  0  0
 25 26  1  0  0  0  0
 26 22  2  0  0  0  0
 27 28  1  0  0  0  0
 28 23  2  0  0  0  0
 28 26  1  0  0  0  0
 29 27  2  0  0  0  0
 29 24  1  0  0  0  0
 30 21  1  0  0  0  0
 30 31  2  0  0  0  0
 32 24  1  0  0  0  0
 32 33  1  0  0  0  0
 34 32  2  0  0  0  0
M  END
>  <MODEL>
9

>  <REMARK>
 VINA RESULT:      -7.2      2.885      3.887
  Name = 
  7 active torsions:
  status: ('A' for Active; 'I' for Inactive)
    1  A    between atoms: N_1  and  C_9
    2  A    between atoms: C_2  and  C_23
    3  A    between atoms: C_3  and  C_27
    4  A    between atoms: C_7  and  C_11
    5  A    between atoms: C_8  and  C_9
    6  A    between atoms: N_18  and  C_30
    7  A    between atoms: C_23  and  C_27
                            x       y       z     vdW  Elec       q    Type
                         _______ _______ _______ _____ _____    ______ ____

>  <TORSDO>
F 7

$$$$
