=
 OpenBabel11052422473D

 28 30  0  0  1  0  0  0  0  0999 V2000
  161.5150  205.3590  148.7490 C   0  0  0  0  0  0  0  0  0  0  0  0
  160.7940  205.2720  153.5410 F   0  0  0  0  0  0  0  0  0  0  0  0
  161.8550  208.0060  151.3550 C   0  0  0  0  0  0  0  0  0  0  0  0
  161.1410  205.2940  151.1660 C   0  0  0  0  0  0  0  0  0  0  0  0
  161.8570  207.3640  150.1100 C   0  0  0  0  0  3  0  0  0  0  0  0
  160.7990  203.3020  149.8310 C   0  0  0  0  0  3  0  0  0  0  0  0
  161.1360  205.9420  152.4120 C   0  0  0  0  0  0  0  0  0  0  0  0
  160.7900  203.9440  151.0700 C   0  0  0  0  0  3  0  0  0  0  0  0
  161.4950  207.2890  152.5000 C   0  0  0  0  0  3  0  0  0  0  0  0
  161.1580  204.0040  148.6800 C   0  0  0  0  0  3  0  0  0  0  0  0
  161.5050  206.0120  149.9990 C   0  0  0  0  0  0  0  0  0  0  0  0
  161.8960  206.1030  147.4940 C   0  0  2  0  0  3  0  0  0  0  0  0
  160.7070  206.8830  146.9190 C   0  0  0  0  0  2  0  0  0  0  0  0
  161.7680  204.8430  145.1940 C   0  0  1  0  0  3  0  0  0  0  0  0
  159.8950  206.0430  146.1380 O   0  0  0  0  0  0  0  0  0  0  0  0
  163.6190  204.7210  146.6530 O   0  0  0  0  0  0  0  0  0  0  0  0
  162.5100  205.1900  146.4600 C   0  0  0  0  0  0  0  0  0  0  0  0
  161.2440  203.4210  145.2670 C   0  0  0  0  0  1  0  0  0  0  0  0
  160.6130  205.8200  144.9530 C   0  0  0  0  0  2  0  0  0  0  0  0
  161.6930  210.2200  152.3820 C   0  0  0  0  0  0  0  0  0  0  0  0
  162.2320  209.4200  151.4970 C   0  0  0  0  0  3  0  0  0  0  0  0
  161.1670  211.0350  153.2590 C   0  0  0  0  0  3  0  0  0  0  0  0
  159.8350  210.8730  153.7690 N   0  0  0  0  0  0  0  0  0  0  0  0
  158.7230  211.0460  152.8540 C   0  0  0  0  0  1  0  0  0  0  0  0
  159.5400  210.6350  155.1770 C   0  0  0  0  0  2  0  0  0  0  0  0
  159.8590  209.2500  155.5400 C   0  0  0  0  0  0  0  0  0  0  0  0
  160.3800  206.8220  156.2070 O   0  0  0  0  0  1  0  0  0  0  0  0
  160.1060  208.1110  155.8500 C   0  0  0  0  0  0  0  0  0  0  0  0
  1 11  1  0  0  0  0
  3 21  1  0  0  0  0
  3  9  1  0  0  0  0
  4  7  1  0  0  0  0
  5  3  2  0  0  0  0
  6  8  2  0  0  0  0
  7  9  2  0  0  0  0
  7  2  1  0  0  0  0
  8  4  1  0  0  0  0
 10  1  2  0  0  0  0
 10  6  1  0  0  0  0
 11  5  1  0  0  0  0
 11  4  2  0  0  0  0
 12  1  1  1  0  0  0
 13 12  1  0  0  0  0
 14 18  1  1  0  0  0
 14 17  1  0  0  0  0
 15 13  1  0  0  0  0
 17 16  2  0  0  0  0
 17 12  1  0  0  0  0
 19 14  1  0  0  0  0
 19 15  1  0  0  0  0
 20 22  2  0  0  0  0
 21 20  2  0  0  0  0
 22 23  1  0  0  0  0
 23 25  1  0  0  0  0
 24 23  1  0  0  0  0
 25 26  1  0  0  0  0
 26 28  3  0  0  0  0
 28 27  1  0  0  0  0
M  END
>  <MODEL>
1

>  <REMARK>
 VINA RESULT:      -9.5      0.000      0.000
  Name = 
  5 active torsions:
  status: ('A' for Active; 'I' for Inactive)
    1  A    between atoms: C_1  and  C_2
    2  A    between atoms: C_9  and  C_15
    3  A    between atoms: C_10  and  C_13
    4  A    between atoms: N_12  and  C_15
    5  A    between atoms: N_12  and  C_24
                            x       y       z     vdW  Elec       q    Type
                         _______ _______ _______ _____ _____    ______ ____

>  <TORSDO>
F 5

$$$$
=
 OpenBabel11052422473D

 28 30  0  0  1  0  0  0  0  0999 V2000
  161.5250  205.1990  148.6070 C   0  0  0  0  0  0  0  0  0  0  0  0
  160.8160  204.9270  153.3940 F   0  0  0  0  0  0  0  0  0  0  0  0
  161.7820  207.7660  151.3000 C   0  0  0  0  0  0  0  0  0  0  0  0
  161.1580  205.0400  151.0200 C   0  0  0  0  0  0  0  0  0  0  0  0
  161.8030  207.1670  150.0340 C   0  0  0  0  0  3  0  0  0  0  0  0
  160.8780  203.0840  149.6200 C   0  0  0  0  0  3  0  0  0  0  0  0
  161.1340  205.6450  152.2880 C   0  0  0  0  0  0  0  0  0  0  0  0
  160.8510  203.6830  150.8790 C   0  0  0  0  0  3  0  0  0  0  0  0
  161.4480  207.0000  152.4200 C   0  0  0  0  0  3  0  0  0  0  0  0
  161.2120  203.8360  148.4920 C   0  0  0  0  0  3  0  0  0  0  0  0
  161.4960  205.8090  149.8780 C   0  0  0  0  0  0  0  0  0  0  0  0
  161.8780  205.9960  147.3770 C   0  0  2  0  0  3  0  0  0  0  0  0
  160.6770  206.8010  146.8630 C   0  0  0  0  0  2  0  0  0  0  0  0
  161.6980  204.8380  145.0280 C   0  0  1  0  0  3  0  0  0  0  0  0
  159.8480  205.9950  146.0650 O   0  0  0  0  0  0  0  0  0  0  0  0
  163.5810  204.6520  146.4390 O   0  0  0  0  0  0  0  0  0  0  0  0
  162.4680  205.1290  146.2910 C   0  0  0  0  0  0  0  0  0  0  0  0
  161.1740  203.4130  145.0500 C   0  0  0  0  0  1  0  0  0  0  0  0
  160.5390  205.8240  144.8550 C   0  0  0  0  0  2  0  0  0  0  0  0
  161.8290  209.8490  152.5820 C   0  0  0  0  0  0  0  0  0  0  0  0
  162.1120  209.1860  151.4890 C   0  0  0  0  0  3  0  0  0  0  0  0
  161.5550  210.5280  153.6650 C   0  0  0  0  0  3  0  0  0  0  0  0
  160.4520  210.2070  154.5250 N   0  0  0  0  0  0  0  0  0  0  0  0
  160.4510  208.9180  155.1890 C   0  0  0  0  0  1  0  0  0  0  0  0
  159.2900  211.0710  154.6940 C   0  0  0  0  0  2  0  0  0  0  0  0
  158.9220  211.6910  153.4170 C   0  0  0  0  0  0  0  0  0  0  0  0
  158.2870  212.8220  151.1960 O   0  0  0  0  0  1  0  0  0  0  0  0
  158.6240  212.2190  152.3730 C   0  0  0  0  0  0  0  0  0  0  0  0
  1 11  1  0  0  0  0
  3 21  1  0  0  0  0
  3  9  1  0  0  0  0
  4  7  1  0  0  0  0
  5  3  2  0  0  0  0
  6  8  2  0  0  0  0
  7  9  2  0  0  0  0
  7  2  1  0  0  0  0
  8  4  1  0  0  0  0
 10  1  2  0  0  0  0
 10  6  1  0  0  0  0
 11  5  1  0  0  0  0
 11  4  2  0  0  0  0
 12  1  1  1  0  0  0
 13 12  1  0  0  0  0
 14 18  1  1  0  0  0
 14 17  1  0  0  0  0
 15 13  1  0  0  0  0
 17 16  2  0  0  0  0
 17 12  1  0  0  0  0
 19 14  1  0  0  0  0
 19 15  1  0  0  0  0
 20 22  2  0  0  0  0
 21 20  2  0  0  0  0
 22 23  1  0  0  0  0
 23 25  1  0  0  0  0
 23 24  1  0  0  0  0
 26 25  1  0  0  0  0
 27 28  1  0  0  0  0
 28 26  3  0  0  0  0
M  END
>  <MODEL>
2

>  <REMARK>
 VINA RESULT:      -9.3      1.607      2.111
  Name = 
  5 active torsions:
  status: ('A' for Active; 'I' for Inactive)
    1  A    between atoms: C_1  and  C_2
    2  A    between atoms: C_9  and  C_15
    3  A    between atoms: C_10  and  C_13
    4  A    between atoms: N_12  and  C_15
    5  A    between atoms: N_12  and  C_24
                            x       y       z     vdW  Elec       q    Type
                         _______ _______ _______ _____ _____    ______ ____

>  <TORSDO>
F 5

$$$$
=
 OpenBabel11052422473D

 28 30  0  0  1  0  0  0  0  0999 V2000
  161.3910  204.5740  148.4690 C   0  0  0  0  0  0  0  0  0  0  0  0
  160.5300  202.8130  152.9010 F   0  0  0  0  0  0  0  0  0  0  0  0
  161.3750  206.2050  151.8230 C   0  0  0  0  0  0  0  0  0  0  0  0
  160.9490  203.6660  150.6960 C   0  0  0  0  0  0  0  0  0  0  0  0
  161.4820  206.0230  150.4380 C   0  0  0  0  0  3  0  0  0  0  0  0
  160.8550  202.2190  148.7560 C   0  0  0  0  0  3  0  0  0  0  0  0
  160.8380  203.8520  152.0840 C   0  0  0  0  0  0  0  0  0  0  0  0
  160.7410  202.4030  150.1340 C   0  0  0  0  0  3  0  0  0  0  0  0
  161.0530  205.1160  152.6380 C   0  0  0  0  0  3  0  0  0  0  0  0
  161.1770  203.2970  147.9290 C   0  0  0  0  0  3  0  0  0  0  0  0
  161.2740  204.7640  149.8610 C   0  0  0  0  0  0  0  0  0  0  0  0
  161.7330  205.7280  147.5600 C   0  0  2  0  0  3  0  0  0  0  0  0
  160.4990  206.5830  147.2450 C   0  0  0  0  0  2  0  0  0  0  0  0
  161.7230  205.3340  144.9640 C   0  0  1  0  0  3  0  0  0  0  0  0
  159.7580  206.0150  146.1950 O   0  0  0  0  0  0  0  0  0  0  0  0
  163.5600  204.8310  146.3570 O   0  0  0  0  0  0  0  0  0  0  0  0
  162.4230  205.2680  146.2970 C   0  0  0  0  0  0  0  0  0  0  0  0
  161.2990  203.9440  144.5250 C   0  0  0  0  0  1  0  0  0  0  0  0
  160.5040  206.2600  145.0320 C   0  0  0  0  0  2  0  0  0  0  0  0
  161.6240  208.6370  151.7780 C   0  0  0  0  0  0  0  0  0  0  0  0
  161.5990  207.5150  152.4510 C   0  0  0  0  0  3  0  0  0  0  0  0
  161.6510  209.7700  151.1240 C   0  0  0  0  0  3  0  0  0  0  0  0
  162.0410  209.8610  149.7470 N   0  0  0  0  0  0  0  0  0  0  0  0
  162.0420  208.6490  148.9500 C   0  0  0  0  0  1  0  0  0  0  0  0
  162.5230  211.0920  149.1300 C   0  0  0  0  0  2  0  0  0  0  0  0
  161.5520  211.5890  148.1500 C   0  0  0  0  0  0  0  0  0  0  0  0
  159.8840  212.4890  146.4120 O   0  0  0  0  0  1  0  0  0  0  0  0
  160.7670  212.0080  147.3350 C   0  0  0  0  0  0  0  0  0  0  0  0
  1 11  1  0  0  0  0
  3 21  1  0  0  0  0
  3  9  1  0  0  0  0
  4  7  1  0  0  0  0
  5  3  2  0  0  0  0
  6  8  2  0  0  0  0
  7  9  2  0  0  0  0
  7  2  1  0  0  0  0
  8  4  1  0  0  0  0
 10  1  2  0  0  0  0
 10  6  1  0  0  0  0
 11  5  1  0  0  0  0
 11  4  2  0  0  0  0
 12  1  1  6  0  0  0
 13 12  1  0  0  0  0
 14 18  1  1  0  0  0
 14 19  1  0  0  0  0
 14 17  1  0  0  0  0
 15 13  1  0  0  0  0
 17 16  2  0  0  0  0
 17 12  1  0  0  0  0
 19 15  1  0  0  0  0
 20 21  2  0  0  0  0
 22 20  2  0  0  0  0
 23 22  1  0  0  0  0
 24 23  1  0  0  0  0
 25 23  1  0  0  0  0
 26 25  1  0  0  0  0
 27 28  1  0  0  0  0
 28 26  3  0  0  0  0
M  END
>  <MODEL>
3

>  <REMARK>
 VINA RESULT:      -9.0      2.740      3.914
  Name = 
  5 active torsions:
  status: ('A' for Active; 'I' for Inactive)
    1  A    between atoms: C_1  and  C_2
    2  A    between atoms: C_9  and  C_15
    3  A    between atoms: C_10  and  C_13
    4  A    between atoms: N_12  and  C_15
    5  A    between atoms: N_12  and  C_24
                            x       y       z     vdW  Elec       q    Type
                         _______ _______ _______ _____ _____    ______ ____

>  <TORSDO>
F 5

$$$$
=
 OpenBabel11052422473D

 28 30  0  0  1  0  0  0  0  0999 V2000
  160.4570  209.3460  154.5240 C   0  0  0  0  0  0  0  0  0  0  0  0
  161.2880  204.7680  153.1700 F   0  0  0  0  0  0  0  0  0  0  0  0
  161.7650  207.9010  151.3440 C   0  0  0  0  0  0  0  0  0  0  0  0
  160.8730  207.0290  153.8630 C   0  0  0  0  0  0  0  0  0  0  0  0
  161.3420  208.8320  152.3010 C   0  0  0  0  0  3  0  0  0  0  0  0
  159.9970  207.5230  156.0660 C   0  0  0  0  0  3  0  0  0  0  0  0
  161.3020  206.0980  152.9020 C   0  0  0  0  0  0  0  0  0  0  0  0
  160.4250  206.5970  155.1150 C   0  0  0  0  0  3  0  0  0  0  0  0
  161.7420  206.5380  151.6520 C   0  0  0  0  0  3  0  0  0  0  0  0
  160.0120  208.8870  155.7730 C   0  0  0  0  0  3  0  0  0  0  0  0
  160.8930  208.4130  153.5610 C   0  0  0  0  0  0  0  0  0  0  0  0
  160.4710  210.8250  154.2270 C   0  0  2  0  0  3  0  0  0  0  0  0
  161.0330  211.6310  155.4060 C   0  0  0  0  0  2  0  0  0  0  0  0
  158.3090  212.2310  154.7150 C   0  0  1  0  0  3  0  0  0  0  0  0
  160.0340  211.8640  156.3660 O   0  0  0  0  0  0  0  0  0  0  0  0
  158.6530  211.0050  152.7280 O   0  0  0  0  0  0  0  0  0  0  0  0
  159.1120  211.3320  153.8100 C   0  0  0  0  0  0  0  0  0  0  0  0
  157.1640  211.4560  155.3420 C   0  0  0  0  0  1  0  0  0  0  0  0
  159.1940  212.8400  155.8060 C   0  0  0  0  0  2  0  0  0  0  0  0
  162.0370  207.6040  148.9320 C   0  0  0  0  0  0  0  0  0  0  0  0
  162.2290  208.3170  150.0130 C   0  0  0  0  0  3  0  0  0  0  0  0
  161.8540  206.9070  147.8400 C   0  0  0  0  0  3  0  0  0  0  0  0
  161.7290  205.4780  147.8430 N   0  0  0  0  0  0  0  0  0  0  0  0
  162.3360  204.7320  146.7580 C   0  0  0  0  0  1  0  0  0  0  0  0
  160.9440  204.7450  148.8300 C   0  0  0  0  0  2  0  0  0  0  0  0
  161.0450  203.3010  148.5940 C   0  0  0  0  0  0  0  0  0  0  0  0
  161.1740  200.7650  148.1840 O   0  0  0  0  0  1  0  0  0  0  0  0
  161.1090  202.1120  148.4010 C   0  0  0  0  0  0  0  0  0  0  0  0
  1 10  1  0  0  0  0
  3  9  1  0  0  0  0
  3  5  2  0  0  0  0
  4  8  2  0  0  0  0
  5 11  1  0  0  0  0
  7  2  1  0  0  0  0
  7  4  1  0  0  0  0
  8  6  1  0  0  0  0
  9  7  2  0  0  0  0
 10  6  2  0  0  0  0
 11  4  1  0  0  0  0
 11  1  2  0  0  0  0
 12  1  1  1  0  0  0
 12 13  1  0  0  0  0
 13 15  1  0  0  0  0
 14 18  1  1  0  0  0
 14 19  1  0  0  0  0
 16 17  2  0  0  0  0
 17 12  1  0  0  0  0
 17 14  1  0  0  0  0
 19 15  1  0  0  0  0
 20 21  2  0  0  0  0
 21  3  1  0  0  0  0
 22 23  1  0  0  0  0
 22 20  2  0  0  0  0
 23 25  1  0  0  0  0
 24 23  1  0  0  0  0
 26 25  1  0  0  0  0
 27 28  1  0  0  0  0
 28 26  3  0  0  0  0
M  END
>  <MODEL>
4

>  <REMARK>
 VINA RESULT:      -8.6      2.643      8.117
  Name = 
  5 active torsions:
  status: ('A' for Active; 'I' for Inactive)
    1  A    between atoms: C_1  and  C_2
    2  A    between atoms: C_9  and  C_15
    3  A    between atoms: C_10  and  C_13
    4  A    between atoms: N_12  and  C_15
    5  A    between atoms: N_12  and  C_24
                            x       y       z     vdW  Elec       q    Type
                         _______ _______ _______ _____ _____    ______ ____

>  <TORSDO>
F 5

$$$$
=
 OpenBabel11052422473D

 28 30  0  0  1  0  0  0  0  0999 V2000
  161.5970  204.4510  148.2340 C   0  0  0  0  0  0  0  0  0  0  0  0
  160.4510  203.6010  152.8660 F   0  0  0  0  0  0  0  0  0  0  0  0
  161.4170  206.7090  151.1970 C   0  0  0  0  0  0  0  0  0  0  0  0
  161.0110  204.0010  150.5660 C   0  0  0  0  0  0  0  0  0  0  0  0
  161.6000  206.2580  149.8830 C   0  0  0  0  0  3  0  0  0  0  0  0
  161.0030  202.2020  148.9440 C   0  0  0  0  0  3  0  0  0  0  0  0
  160.8240  204.4570  151.8810 C   0  0  0  0  0  0  0  0  0  0  0  0
  160.8140  202.6530  150.2500 C   0  0  0  0  0  3  0  0  0  0  0  0
  161.0300  205.8040  152.1880 C   0  0  0  0  0  3  0  0  0  0  0  0
  161.3910  203.0940  147.9430 C   0  0  0  0  0  3  0  0  0  0  0  0
  161.4040  204.9110  149.5520 C   0  0  0  0  0  0  0  0  0  0  0  0
  162.0110  205.4010  147.1380 C   0  0  2  0  0  3  0  0  0  0  0  0
  161.0430  206.5860  147.0240 C   0  0  0  0  0  2  0  0  0  0  0  0
  161.2090  204.9240  144.6840 C   0  0  1  0  0  3  0  0  0  0  0  0
  159.9210  206.2350  146.2530 O   0  0  0  0  0  0  0  0  0  0  0  0
  163.1170  203.9290  145.6550 O   0  0  0  0  0  0  0  0  0  0  0  0
  162.1810  204.6970  145.8130 C   0  0  0  0  0  0  0  0  0  0  0  0
  160.2990  203.7190  144.5270 C   0  0  0  0  0  1  0  0  0  0  0  0
  160.3760  206.1860  144.9260 C   0  0  0  0  0  2  0  0  0  0  0  0
  161.4950  208.5620  152.7920 C   0  0  0  0  0  0  0  0  0  0  0  0
  161.6290  208.1160  151.5680 C   0  0  0  0  0  3  0  0  0  0  0  0
  161.3670  209.0270  154.0070 C   0  0  0  0  0  3  0  0  0  0  0  0
  160.4900  208.4360  154.9760 N   0  0  0  0  0  0  0  0  0  0  0  0
  160.4610  206.9900  155.0870 C   0  0  0  0  0  1  0  0  0  0  0  0
  159.5590  209.2080  155.7920 C   0  0  0  0  0  2  0  0  0  0  0  0
  159.4500  210.5800  155.2850 C   0  0  0  0  0  0  0  0  0  0  0  0
  159.2920  212.9760  154.3630 O   0  0  0  0  0  1  0  0  0  0  0  0
  159.3730  211.7040  154.8550 C   0  0  0  0  0  0  0  0  0  0  0  0
  1 11  1  0  0  0  0
  3 21  1  0  0  0  0
  3  9  1  0  0  0  0
  4  7  1  0  0  0  0
  5  3  2  0  0  0  0
  6  8  2  0  0  0  0
  7  9  2  0  0  0  0
  7  2  1  0  0  0  0
  8  4  1  0  0  0  0
 10  1  2  0  0  0  0
 10  6  1  0  0  0  0
 11  5  1  0  0  0  0
 11  4  2  0  0  0  0
 12  1  1  1  0  0  0
 13 12  1  0  0  0  0
 14 18  1  1  0  0  0
 14 19  1  0  0  0  0
 14 17  1  0  0  0  0
 15 13  1  0  0  0  0
 16 17  2  0  0  0  0
 17 12  1  0  0  0  0
 19 15  1  0  0  0  0
 20 22  2  0  0  0  0
 21 20  2  0  0  0  0
 22 23  1  0  0  0  0
 23 24  1  0  0  0  0
 23 25  1  0  0  0  0
 26 25  1  0  0  0  0
 27 28  1  0  0  0  0
 28 26  3  0  0  0  0
M  END
>  <MODEL>
5

>  <REMARK>
 VINA RESULT:      -8.5      1.717      2.164
  Name = 
  5 active torsions:
  status: ('A' for Active; 'I' for Inactive)
    1  A    between atoms: C_1  and  C_2
    2  A    between atoms: C_9  and  C_15
    3  A    between atoms: C_10  and  C_13
    4  A    between atoms: N_12  and  C_15
    5  A    between atoms: N_12  and  C_24
                            x       y       z     vdW  Elec       q    Type
                         _______ _______ _______ _____ _____    ______ ____

>  <TORSDO>
F 5

$$$$
=
 OpenBabel11052422473D

 28 30  0  0  1  0  0  0  0  0999 V2000
  160.3640  209.4800  154.6160 C   0  0  0  0  0  0  0  0  0  0  0  0
  161.3240  204.8800  153.4310 F   0  0  0  0  0  0  0  0  0  0  0  0
  161.7380  207.9590  151.5000 C   0  0  0  0  0  0  0  0  0  0  0  0
  160.8450  207.1520  154.0400 C   0  0  0  0  0  0  0  0  0  0  0  0
  161.2820  208.9120  152.4210 C   0  0  0  0  0  3  0  0  0  0  0  0
  159.9370  207.7000  156.2170 C   0  0  0  0  0  3  0  0  0  0  0  0
  161.3070  206.2000  153.1170 C   0  0  0  0  0  0  0  0  0  0  0  0
  160.3970  206.7530  155.3030 C   0  0  0  0  0  3  0  0  0  0  0  0
  161.7470  206.6070  151.8550 C   0  0  0  0  0  3  0  0  0  0  0  0
  159.9200  209.0540  155.8770 C   0  0  0  0  0  3  0  0  0  0  0  0
  160.8330  208.5260  153.6900 C   0  0  0  0  0  0  0  0  0  0  0  0
  160.3440  210.9470  154.2680 C   0  0  2  0  0  3  0  0  0  0  0  0
  160.8260  211.8110  155.4410 C   0  0  0  0  0  2  0  0  0  0  0  0
  158.1170  212.2950  154.6110 C   0  0  1  0  0  3  0  0  0  0  0  0
  159.7780  212.0430  156.3470 O   0  0  0  0  0  0  0  0  0  0  0  0
  158.5890  211.0130  152.6850 O   0  0  0  0  0  0  0  0  0  0  0  0
  158.9880  211.3930  153.7740 C   0  0  0  0  0  0  0  0  0  0  0  0
  156.9710  211.5030  155.2150 C   0  0  0  0  0  1  0  0  0  0  0  0
  158.9320  212.9700  155.7170 C   0  0  0  0  0  2  0  0  0  0  0  0
  161.9680  207.6250  149.0880 C   0  0  0  0  0  0  0  0  0  0  0  0
  162.2040  208.3400  150.1590 C   0  0  0  0  0  3  0  0  0  0  0  0
  161.7420  206.9250  148.0070 C   0  0  0  0  0  3  0  0  0  0  0  0
  161.5550  205.5030  148.0270 N   0  0  0  0  0  0  0  0  0  0  0  0
  160.7660  204.9290  149.1000 C   0  0  0  0  0  1  0  0  0  0  0  0
  162.1910  204.5970  147.0780 C   0  0  0  0  0  2  0  0  0  0  0  0
  161.8730  204.9900  145.7020 C   0  0  0  0  0  0  0  0  0  0  0  0
  161.3610  205.6940  143.2820 O   0  0  0  0  0  1  0  0  0  0  0  0
  161.6300  205.3180  144.5670 C   0  0  0  0  0  0  0  0  0  0  0  0
  1 10  1  0  0  0  0
  3  9  1  0  0  0  0
  3  5  2  0  0  0  0
  4  8  2  0  0  0  0
  5 11  1  0  0  0  0
  7  2  1  0  0  0  0
  7  4  1  0  0  0  0
  8  6  1  0  0  0  0
  9  7  2  0  0  0  0
 10  6  2  0  0  0  0
 11  4  1  0  0  0  0
 11  1  2  0  0  0  0
 12  1  1  1  0  0  0
 12 13  1  0  0  0  0
 13 15  1  0  0  0  0
 14 18  1  1  0  0  0
 14 19  1  0  0  0  0
 16 17  2  0  0  0  0
 17 12  1  0  0  0  0
 17 14  1  0  0  0  0
 19 15  1  0  0  0  0
 20 21  2  0  0  0  0
 21  3  1  0  0  0  0
 22 23  1  0  0  0  0
 22 20  2  0  0  0  0
 23 24  1  0  0  0  0
 25 23  1  0  0  0  0
 26 25  1  0  0  0  0
 27 28  1  0  0  0  0
 28 26  3  0  0  0  0
M  END
>  <MODEL>
6

>  <REMARK>
 VINA RESULT:      -8.2      2.535      8.464
  Name = 
  5 active torsions:
  status: ('A' for Active; 'I' for Inactive)
    1  A    between atoms: C_1  and  C_2
    2  A    between atoms: C_9  and  C_15
    3  A    between atoms: C_10  and  C_13
    4  A    between atoms: N_12  and  C_15
    5  A    between atoms: N_12  and  C_24
                            x       y       z     vdW  Elec       q    Type
                         _______ _______ _______ _____ _____    ______ ____

>  <TORSDO>
F 5

$$$$
=
 OpenBabel11052422473D

 28 30  0  0  1  0  0  0  0  0999 V2000
  161.3500  203.8210  147.8940 C   0  0  0  0  0  0  0  0  0  0  0  0
  160.3440  200.5770  151.3510 F   0  0  0  0  0  0  0  0  0  0  0  0
  161.1210  204.1420  151.6030 C   0  0  0  0  0  0  0  0  0  0  0  0
  160.8360  202.1690  149.6220 C   0  0  0  0  0  0  0  0  0  0  0  0
  161.2990  204.4700  150.2520 C   0  0  0  0  0  3  0  0  0  0  0  0
  160.8820  201.5120  147.2910 C   0  0  0  0  0  3  0  0  0  0  0  0
  160.6540  201.8440  150.9770 C   0  0  0  0  0  0  0  0  0  0  0  0
  160.6980  201.1870  148.6360 C   0  0  0  0  0  3  0  0  0  0  0  0
  160.7990  202.8290  151.9560 C   0  0  0  0  0  3  0  0  0  0  0  0
  161.2060  202.8180  146.9230 C   0  0  0  0  0  3  0  0  0  0  0  0
  161.1620  203.4980  149.2530 C   0  0  0  0  0  0  0  0  0  0  0  0
  161.6940  205.2290  147.4760 C   0  0  2  0  0  3  0  0  0  0  0  0
  160.4630  206.1430  147.5100 C   0  0  0  0  0  2  0  0  0  0  0  0
  161.6690  205.8290  144.9210 C   0  0  1  0  0  3  0  0  0  0  0  0
  159.7140  206.0090  146.3290 O   0  0  0  0  0  0  0  0  0  0  0  0
  163.5100  204.8370  146.0150 O   0  0  0  0  0  0  0  0  0  0  0  0
  162.3750  205.2690  146.1290 C   0  0  0  0  0  0  0  0  0  0  0  0
  161.2360  204.7030  143.9990 C   0  0  0  0  0  1  0  0  0  0  0  0
  160.4560  206.6670  145.3350 C   0  0  0  0  0  2  0  0  0  0  0  0
  161.3650  206.4290  152.4360 C   0  0  0  0  0  0  0  0  0  0  0  0
  161.2710  205.1440  152.6680 C   0  0  0  0  0  3  0  0  0  0  0  0
  161.4610  207.7160  152.2240 C   0  0  0  0  0  3  0  0  0  0  0  0
  162.0010  208.2660  151.0140 N   0  0  0  0  0  0  0  0  0  0  0  0
  162.7060  207.3780  150.1100 C   0  0  0  0  0  1  0  0  0  0  0  0
  161.9560  209.6870  150.6910 C   0  0  0  0  0  2  0  0  0  0  0  0
  161.3080  210.4390  151.7700 C   0  0  0  0  0  0  0  0  0  0  0  0
  160.2030  211.7920  153.6580 O   0  0  0  0  0  1  0  0  0  0  0  0
  160.7870  211.0710  152.6560 C   0  0  0  0  0  0  0  0  0  0  0  0
  1 11  1  0  0  0  0
  3  9  1  0  0  0  0
  3 21  1  0  0  0  0
  4  7  1  0  0  0  0
  5  3  2  0  0  0  0
  6  8  2  0  0  0  0
  7  2  1  0  0  0  0
  7  9  2  0  0  0  0
  8  4  1  0  0  0  0
 10  6  1  0  0  0  0
 10  1  2  0  0  0  0
 11  4  2  0  0  0  0
 11  5  1  0  0  0  0
 12 13  1  0  0  0  0
 12  1  1  6  0  0  0
 14 18  1  6  0  0  0
 14 19  1  0  0  0  0
 14 17  1  0  0  0  0
 15 13  1  0  0  0  0
 16 17  2  0  0  0  0
 17 12  1  0  0  0  0
 19 15  1  0  0  0  0
 20 21  2  0  0  0  0
 22 20  2  0  0  0  0
 23 22  1  0  0  0  0
 24 23  1  0  0  0  0
 25 23  1  0  0  0  0
 25 26  1  0  0  0  0
 26 28  3  0  0  0  0
 28 27  1  0  0  0  0
M  END
>  <MODEL>
7

>  <REMARK>
 VINA RESULT:      -8.2      2.205      3.521
  Name = 
  5 active torsions:
  status: ('A' for Active; 'I' for Inactive)
    1  A    between atoms: C_1  and  C_2
    2  A    between atoms: C_9  and  C_15
    3  A    between atoms: C_10  and  C_13
    4  A    between atoms: N_12  and  C_15
    5  A    between atoms: N_12  and  C_24
                            x       y       z     vdW  Elec       q    Type
                         _______ _______ _______ _____ _____    ______ ____

>  <TORSDO>
F 5

$$$$
=
 OpenBabel11052422473D

 28 30  0  0  1  0  0  0  0  0999 V2000
  161.0720  208.1770  152.9850 C   0  0  0  0  0  0  0  0  0  0  0  0
  161.1070  203.6950  151.1420 F   0  0  0  0  0  0  0  0  0  0  0  0
  161.2640  206.9440  149.4700 C   0  0  0  0  0  0  0  0  0  0  0  0
  161.0920  205.9060  152.0760 C   0  0  0  0  0  0  0  0  0  0  0  0
  161.2170  207.8100  150.5700 C   0  0  0  0  0  3  0  0  0  0  0  0
  160.9480  206.2540  154.4690 C   0  0  0  0  0  3  0  0  0  0  0  0
  161.1440  205.0400  150.9720 C   0  0  0  0  0  0  0  0  0  0  0  0
  161.0020  205.3920  153.3740 C   0  0  0  0  0  3  0  0  0  0  0  0
  161.2270  205.5620  149.6790 C   0  0  0  0  0  3  0  0  0  0  0  0
  160.9820  207.6360  154.2770 C   0  0  0  0  0  3  0  0  0  0  0  0
  161.1290  207.3090  151.8760 C   0  0  0  0  0  0  0  0  0  0  0  0
  161.1130  209.6720  152.7970 C   0  0  2  0  0  3  0  0  0  0  0  0
  162.4030  210.2770  153.3670 C   0  0  0  0  0  2  0  0  0  0  0  0
  159.9790  211.2030  154.6040 C   0  0  1  0  0  3  0  0  0  0  0  0
  162.2820  210.4850  154.7510 O   0  0  0  0  0  0  0  0  0  0  0  0
  158.8080  210.1960  152.8190 O   0  0  0  0  0  0  0  0  0  0  0  0
  159.8880  210.3480  153.3660 C   0  0  0  0  0  0  0  0  0  0  0  0
  159.3890  210.4670  155.7930 C   0  0  0  0  0  1  0  0  0  0  0  0
  161.4320  211.5940  154.8930 C   0  0  0  0  0  2  0  0  0  0  0  0
  161.3660  206.6650  147.0430 C   0  0  0  0  0  0  0  0  0  0  0  0
  161.3440  207.4480  148.0920 C   0  0  0  0  0  3  0  0  0  0  0  0
  161.3890  205.9010  145.9820 C   0  0  0  0  0  3  0  0  0  0  0  0
  161.9080  204.5630  145.9990 N   0  0  0  0  0  0  0  0  0  0  0  0
  162.9860  204.2320  145.0880 C   0  0  0  0  0  1  0  0  0  0  0  0
  161.3460  203.4970  146.8210 C   0  0  0  0  0  2  0  0  0  0  0  0
  160.7920  202.4360  145.9730 C   0  0  0  0  0  0  0  0  0  0  0  0
  159.8630  200.5700  144.4660 O   0  0  0  0  0  1  0  0  0  0  0  0
  160.3540  201.5600  145.2690 C   0  0  0  0  0  0  0  0  0  0  0  0
  1 10  1  0  0  0  0
  3  9  1  0  0  0  0
  3  5  2  0  0  0  0
  4  8  2  0  0  0  0
  5 11  1  0  0  0  0
  7  2  1  0  0  0  0
  7  4  1  0  0  0  0
  8  6  1  0  0  0  0
  9  7  2  0  0  0  0
 10  6  2  0  0  0  0
 11  4  1  0  0  0  0
 11  1  2  0  0  0  0
 12  1  1  1  0  0  0
 12 17  1  0  0  0  0
 12 13  1  0  0  0  0
 13 15  1  0  0  0  0
 14 19  1  0  0  0  0
 14 18  1  1  0  0  0
 15 19  1  0  0  0  0
 16 17  2  0  0  0  0
 17 14  1  0  0  0  0
 20 21  2  0  0  0  0
 21  3  1  0  0  0  0
 22 23  1  0  0  0  0
 22 20  2  0  0  0  0
 23 25  1  0  0  0  0
 24 23  1  0  0  0  0
 26 25  1  0  0  0  0
 27 28  1  0  0  0  0
 28 26  3  0  0  0  0
M  END
>  <MODEL>
8

>  <REMARK>
 VINA RESULT:      -7.3      2.904      8.243
  Name = 
  5 active torsions:
  status: ('A' for Active; 'I' for Inactive)
    1  A    between atoms: C_1  and  C_2
    2  A    between atoms: C_9  and  C_15
    3  A    between atoms: C_10  and  C_13
    4  A    between atoms: N_12  and  C_15
    5  A    between atoms: N_12  and  C_24
                            x       y       z     vdW  Elec       q    Type
                         _______ _______ _______ _____ _____    ______ ____

>  <TORSDO>
F 5

$$$$
=
 OpenBabel11052422473D

 28 30  0  0  1  0  0  0  0  0999 V2000
  161.4920  202.7650  147.1710 C   0  0  0  0  0  0  0  0  0  0  0  0
  160.0940  203.6080  151.7340 F   0  0  0  0  0  0  0  0  0  0  0  0
  161.2060  205.9250  149.1320 C   0  0  0  0  0  0  0  0  0  0  0  0
  160.7790  203.1680  149.4760 C   0  0  0  0  0  0  0  0  0  0  0  0
  161.4480  205.0380  148.0740 C   0  0  0  0  0  3  0  0  0  0  0  0
  160.8180  200.9120  148.5960 C   0  0  0  0  0  3  0  0  0  0  0  0
  160.5340  204.0600  150.5330 C   0  0  0  0  0  0  0  0  0  0  0  0
  160.5710  201.7960  149.6460 C   0  0  0  0  0  3  0  0  0  0  0  0
  160.7500  205.4290  150.3560 C   0  0  0  0  0  3  0  0  0  0  0  0
  161.2750  201.3920  147.3670 C   0  0  0  0  0  3  0  0  0  0  0  0
  161.2410  203.6620  148.2300 C   0  0  0  0  0  0  0  0  0  0  0  0
  161.9820  203.2660  145.8360 C   0  0  2  0  0  3  0  0  0  0  0  0
  163.1870  204.2030  145.9920 C   0  0  0  0  0  2  0  0  0  0  0  0
  160.8620  205.4050  144.8040 C   0  0  1  0  0  3  0  0  0  0  0  0
  162.7620  205.5080  146.2930 O   0  0  0  0  0  0  0  0  0  0  0  0
  159.9820  203.2260  144.5760 O   0  0  0  0  0  0  0  0  0  0  0  0
  160.8770  203.9160  145.0360 C   0  0  0  0  0  0  0  0  0  0  0  0
  159.8020  206.0590  145.6720 C   0  0  0  0  0  1  0  0  0  0  0  0
  162.2350  206.0180  145.0960 C   0  0  0  0  0  2  0  0  0  0  0  0
  161.7380  208.1480  150.0010 C   0  0  0  0  0  0  0  0  0  0  0  0
  161.4270  207.3720  148.9940 C   0  0  0  0  0  3  0  0  0  0  0  0
  162.0510  208.9410  150.9930 C   0  0  0  0  0  3  0  0  0  0  0  0
  161.6680  208.6740  152.3500 N   0  0  0  0  0  0  0  0  0  0  0  0
  161.3900  209.8010  153.2200 C   0  0  0  0  0  1  0  0  0  0  0  0
  161.6340  207.3340  152.9240 C   0  0  0  0  0  2  0  0  0  0  0  0
  160.9320  207.3460  154.2120 C   0  0  0  0  0  0  0  0  0  0  0  0
  159.7180  207.4130  156.4780 O   0  0  0  0  0  1  0  0  0  0  0  0
  160.3610  207.3750  155.2740 C   0  0  0  0  0  0  0  0  0  0  0  0
  1 10  2  0  0  0  0
  1 11  1  0  0  0  0
  3  9  1  0  0  0  0
  4  8  1  0  0  0  0
  4  7  1  0  0  0  0
  5 11  1  0  0  0  0
  5  3  2  0  0  0  0
  6  8  2  0  0  0  0
  7  2  1  0  0  0  0
  9  7  2  0  0  0  0
 10  6  1  0  0  0  0
 11  4  2  0  0  0  0
 12 13  1  0  0  0  0
 12  1  1  1  0  0  0
 13 15  1  0  0  0  0
 14 17  1  0  0  0  0
 14 19  1  0  0  0  0
 14 18  1  1  0  0  0
 16 17  2  0  0  0  0
 17 12  1  0  0  0  0
 19 15  1  0  0  0  0
 20 22  2  0  0  0  0
 21  3  1  0  0  0  0
 21 20  2  0  0  0  0
 22 23  1  0  0  0  0
 23 25  1  0  0  0  0
 23 24  1  0  0  0  0
 25 26  1  0  0  0  0
 26 28  3  0  0  0  0
 28 27  1  0  0  0  0
M  END
>  <MODEL>
9

>  <REMARK>
 VINA RESULT:      -7.2      1.562      2.939
  Name = 
  5 active torsions:
  status: ('A' for Active; 'I' for Inactive)
    1  A    between atoms: C_1  and  C_2
    2  A    between atoms: C_9  and  C_15
    3  A    between atoms: C_10  and  C_13
    4  A    between atoms: N_12  and  C_15
    5  A    between atoms: N_12  and  C_24
                            x       y       z     vdW  Elec       q    Type
                         _______ _______ _______ _____ _____    ______ ____

>  <TORSDO>
F 5

$$$$
