=
 OpenBabel11052421443D

 30 35  0  0  1  0  0  0  0  0999 V2000
  161.2240  211.1290  151.7190 C   0  0  0  0  0  2  0  0  0  0  0  0
  156.7590  212.1340  155.0280 N   0  0  0  0  0  2  0  0  0  0  0  0
  160.2150  210.4790  152.5740 N   0  0  0  0  0  0  0  0  0  0  0  0
  162.3220  210.1580  151.2870 C   0  0  0  0  0  2  0  0  0  0  0  0
  161.0330  206.7980  151.8820 C   0  0  0  0  0  2  0  0  0  0  0  0
  161.3620  210.0300  155.0190 C   0  0  1  0  0  3  0  0  0  0  0  0
  160.6330  208.2520  151.6290 C   0  0  2  0  0  3  0  0  0  0  0  0
  162.7370  207.8750  150.5330 N   0  0  0  0  0  2  0  0  0  0  0  0
  159.9540  210.1970  155.5660 C   0  0  1  0  0  3  0  0  0  0  0  0
  157.6230  211.0140  155.1450 C   0  0  0  0  0  0  0  0  0  0  0  0
  161.7110  208.8840  150.7110 C   0  0  2  0  0  3  0  0  0  0  0  0
  160.3480  209.0590  152.9140 C   0  0  1  0  0  3  0  0  0  0  0  0
  160.1480  210.7440  157.2610 S   0  0  0  0  0  0  0  0  0  0  0  0
  162.3130  209.8500  156.0430 O   0  0  0  0  0  0  0  0  0  0  0  0
  163.0750  205.6420  151.2380 N   0  0  0  0  0  2  0  0  0  0  0  0
  157.2890  213.3470  154.4370 C   0  0  2  0  0  3  0  0  0  0  0  0
  156.2630  214.4530  154.5500 C   0  0  0  0  0  1  0  0  0  0  0  0
  162.3140  206.6800  151.1560 C   0  0  0  0  0  0  0  0  0  0  0  0
  159.2340  211.2950  153.2550 C   0  0  0  0  0  0  0  0  0  0  0  0
  157.1600  209.8970  155.5020 O   0  0  0  0  0  0  0  0  0  0  0  0
  159.0670  211.1800  154.7730 C   0  0  2  0  0  3  0  0  0  0  0  0
  161.6240  209.7050  157.2580 C   0  0  0  0  0  2  0  0  0  0  0  0
  161.2190  207.6600  154.6680 O   0  0  0  0  0  1  0  0  0  0  0  0
  157.5880  213.1190  153.0630 O   0  0  0  0  0  0  0  0  0  0  0  0
  158.5060  212.1910  152.5230 C   0  0  0  0  0  0  0  0  0  0  0  0
  161.4140  208.8780  154.0110 C   0  0  2  0  0  3  0  0  0  0  0  0
  158.6490  212.1830  151.0990 N   0  0  0  0  0  2  0  0  0  0  0  0
  159.4450  213.4050  149.1680 C   0  0  0  0  0  2  0  0  0  0  0  0
  158.4330  213.3730  150.2940 C   0  0  0  0  0  3  0  0  0  0  0  0
  159.6500  214.2680  150.3940 C   0  0  0  0  0  2  0  0  0  0  0  0
  1  3  1  0  0  0  0
  2 10  1  0  0  0  0
  3 19  1  0  0  0  0
  4  1  1  0  0  0  0
  6  9  1  0  0  0  0
  6 14  1  1  0  0  0
  7  5  1  1  0  0  0
  7 12  1  0  0  0  0
  8 11  1  0  0  0  0
  8 18  1  0  0  0  0
  9 13  1  1  0  0  0
 10 20  2  0  0  0  0
 11  4  1  1  0  0  0
 11  7  1  0  0  0  0
 12  3  1  6  0  0  0
 12 26  1  0  0  0  0
 14 22  1  0  0  0  0
 16 17  1  6  0  0  0
 16  2  1  0  0  0  0
 18 15  2  0  0  0  0
 18  5  1  0  0  0  0
 21 19  1  6  0  0  0
 21 10  1  0  0  0  0
 21  9  1  0  0  0  0
 22 13  1  0  0  0  0
 24 16  1  0  0  0  0
 25 24  1  0  0  0  0
 25 19  2  0  0  0  0
 26 23  1  1  0  0  0
 26  6  1  0  0  0  0
 27 25  1  0  0  0  0
 28 29  1  0  0  0  0
 28 30  1  0  0  0  0
 29 30  1  0  0  0  0
 29 27  1  0  0  0  0
M  END
>  <MODEL>
1

>  <REMARK>
 VINA RESULT:      -4.4      0.000      0.000
  Name = 
  2 active torsions:
  status: ('A' for Active; 'I' for Inactive)
    1  A    between atoms: C_14  and  N_22
    2  A    between atoms: N_22  and  C_29
                            x       y       z     vdW  Elec       q    Type
                         _______ _______ _______ _____ _____    ______ ____

>  <TORSDO>
F 2

$$$$
=
 OpenBabel11052421443D

 30 35  0  0  1  0  0  0  0  0999 V2000
  162.0180  209.4760  154.3970 C   0  0  0  0  0  2  0  0  0  0  0  0
  160.9370  205.1840  150.8880 N   0  0  0  0  0  2  0  0  0  0  0  0
  161.1170  209.0260  153.3210 N   0  0  0  0  0  0  0  0  0  0  0  0
  161.8090  210.9500  154.7400 C   0  0  0  0  0  2  0  0  0  0  0  0
  158.5790  211.9000  153.3350 C   0  0  0  0  0  2  0  0  0  0  0  0
  162.0030  210.1310  150.9780 C   0  0  1  0  0  3  0  0  0  0  0  0
  159.4160  210.7210  153.8330 C   0  0  2  0  0  3  0  0  0  0  0  0
  160.1070  212.6700  155.0540 N   0  0  0  0  0  2  0  0  0  0  0  0
  161.4310  208.8840  150.3240 C   0  0  1  0  0  3  0  0  0  0  0  0
  160.6010  206.5410  150.6420 C   0  0  0  0  0  0  0  0  0  0  0  0
  160.3290  211.2390  154.9740 C   0  0  2  0  0  3  0  0  0  0  0  0
  160.1710  209.9680  152.7150 C   0  0  1  0  0  3  0  0  0  0  0  0
  162.3580  208.6560  148.8080 S   0  0  0  0  0  0  0  0  0  0  0  0
  162.6550  210.9670  150.0500 O   0  0  0  0  0  0  0  0  0  0  0  0
  158.7320  214.2490  153.9510 N   0  0  0  0  0  2  0  0  0  0  0  0
  162.0550  204.9060  151.7690 C   0  0  2  0  0  3  0  0  0  0  0  0
  162.3370  203.4200  151.7710 C   0  0  0  0  0  1  0  0  0  0  0  0
  159.0730  213.0220  154.1580 C   0  0  0  0  0  0  0  0  0  0  0  0
  161.3310  207.7300  152.7160 C   0  0  0  0  0  0  0  0  0  0  0  0
  159.5440  206.8240  150.0160 O   0  0  0  0  0  0  0  0  0  0  0  0
  161.4930  207.6130  151.1980 C   0  0  2  0  0  3  0  0  0  0  0  0
  162.4180  210.4600  148.7630 C   0  0  0  0  0  2  0  0  0  0  0  0
  159.9980  211.4410  150.8200 O   0  0  0  0  0  1  0  0  0  0  0  0
  161.7370  205.3280  153.0920 O   0  0  0  0  0  0  0  0  0  0  0  0
  161.4320  206.6360  153.5300 C   0  0  0  0  0  0  0  0  0  0  0  0
  160.9070  210.8940  151.7290 C   0  0  2  0  0  3  0  0  0  0  0  0
  161.1830  206.8030  154.9290 N   0  0  0  0  0  2  0  0  0  0  0  0
  159.4940  208.0010  156.1810 C   0  0  0  0  0  2  0  0  0  0  0  0
  159.8490  206.6990  155.4960 C   0  0  0  0  0  3  0  0  0  0  0  0
  159.9400  206.8110  157.0030 C   0  0  0  0  0  2  0  0  0  0  0  0
  1  4  1  0  0  0  0
  2 16  1  0  0  0  0
  3  1  1  0  0  0  0
  5 18  1  0  0  0  0
  6 14  1  6  0  0  0
  6 26  1  0  0  0  0
  7  5  1  6  0  0  0
  7 11  1  0  0  0  0
  9 13  1  6  0  0  0
  9  6  1  0  0  0  0
  9 21  1  0  0  0  0
 10  2  1  0  0  0  0
 11  4  1  6  0  0  0
 11  8  1  0  0  0  0
 12  3  1  1  0  0  0
 12  7  1  0  0  0  0
 15 18  2  0  0  0  0
 16 17  1  1  0  0  0
 16 24  1  0  0  0  0
 18  8  1  0  0  0  0
 19  3  1  0  0  0  0
 19 25  2  0  0  0  0
 20 10  2  0  0  0  0
 21 10  1  6  0  0  0
 21 19  1  0  0  0  0
 22 13  1  0  0  0  0
 22 14  1  0  0  0  0
 24 25  1  0  0  0  0
 25 27  1  0  0  0  0
 26 23  1  6  0  0  0
 26 12  1  0  0  0  0
 27 29  1  0  0  0  0
 28 30  1  0  0  0  0
 29 28  1  0  0  0  0
 29 30  1  0  0  0  0
M  END
>  <MODEL>
2

>  <REMARK>
 VINA RESULT:      -2.2      3.081      7.079
  Name = 
  2 active torsions:
  status: ('A' for Active; 'I' for Inactive)
    1  A    between atoms: C_14  and  N_22
    2  A    between atoms: N_22  and  C_29
                            x       y       z     vdW  Elec       q    Type
                         _______ _______ _______ _____ _____    ______ ____

>  <TORSDO>
F 2

$$$$
=
 OpenBabel11052421443D

 30 35  0  0  1  0  0  0  0  0999 V2000
  162.3510  209.2070  151.7330 C   0  0  0  0  0  2  0  0  0  0  0  0
  158.1960  212.1660  154.1580 N   0  0  0  0  0  2  0  0  0  0  0  0
  161.0390  209.0820  152.3920 N   0  0  0  0  0  0  0  0  0  0  0  0
  163.0160  207.8480  151.5170 C   0  0  0  0  0  2  0  0  0  0  0  0
  160.3960  205.3360  151.8860 C   0  0  0  0  0  2  0  0  0  0  0  0
  161.4830  208.4130  155.0100 C   0  0  1  0  0  3  0  0  0  0  0  0
  160.6680  206.8040  151.5550 C   0  0  2  0  0  3  0  0  0  0  0  0
  162.5880  205.5360  150.8680 N   0  0  0  0  0  2  0  0  0  0  0  0
  160.1940  209.1690  155.2870 C   0  0  1  0  0  3  0  0  0  0  0  0
  158.4990  210.8080  154.4390 C   0  0  0  0  0  0  0  0  0  0  0  0
  162.0450  206.8800  150.8470 C   0  0  2  0  0  3  0  0  0  0  0  0
  160.5260  207.7590  152.7610 C   0  0  1  0  0  3  0  0  0  0  0  0
  160.3090  209.7280  156.9850 S   0  0  0  0  0  0  0  0  0  0  0  0
  162.0950  207.9520  156.1920 O   0  0  0  0  0  0  0  0  0  0  0  0
  161.8700  203.4160  151.6370 N   0  0  0  0  0  2  0  0  0  0  0  0
  159.2630  213.0170  153.6670 C   0  0  2  0  0  3  0  0  0  0  0  0
  158.7690  214.4450  153.5820 C   0  0  0  0  0  1  0  0  0  0  0  0
  161.6200  204.6610  151.4100 C   0  0  0  0  0  0  0  0  0  0  0  0
  160.3750  210.2720  152.8760 C   0  0  0  0  0  0  0  0  0  0  0  0
  157.5710  210.0000  154.7120 O   0  0  0  0  0  0  0  0  0  0  0  0
  159.9270  210.3560  154.3380 C   0  0  2  0  0  3  0  0  0  0  0  0
  161.2160  208.1920  157.2610 C   0  0  0  0  0  2  0  0  0  0  0  0
  160.4510  206.2750  154.6540 O   0  0  0  0  0  1  0  0  0  0  0  0
  159.6660  212.5790  152.3720 O   0  0  0  0  0  0  0  0  0  0  0  0
  160.2050  211.3220  152.0170 C   0  0  0  0  0  0  0  0  0  0  0  0
  161.2290  207.2580  154.0370 C   0  0  2  0  0  3  0  0  0  0  0  0
  160.5660  211.1430  150.6440 N   0  0  0  0  0  2  0  0  0  0  0  0
  161.1470  212.6890  148.8750 C   0  0  0  0  0  2  0  0  0  0  0  0
  161.6690  211.8670  150.0340 C   0  0  0  0  0  3  0  0  0  0  0  0
  161.8570  211.3790  148.6130 C   0  0  0  0  0  2  0  0  0  0  0  0
  1  3  1  0  0  0  0
  2 10  1  0  0  0  0
  3 19  1  0  0  0  0
  4  1  1  0  0  0  0
  6  9  1  0  0  0  0
  6 14  1  1  0  0  0
  7  5  1  1  0  0  0
  7 12  1  0  0  0  0
  8 18  1  0  0  0  0
  9 13  1  1  0  0  0
 10 20  2  0  0  0  0
 11  8  1  0  0  0  0
 11  4  1  1  0  0  0
 11  7  1  0  0  0  0
 12  3  1  6  0  0  0
 12 26  1  0  0  0  0
 13 22  1  0  0  0  0
 14 22  1  0  0  0  0
 16 17  1  6  0  0  0
 16  2  1  0  0  0  0
 18 15  2  0  0  0  0
 18  5  1  0  0  0  0
 21 19  1  6  0  0  0
 21 10  1  0  0  0  0
 21  9  1  0  0  0  0
 24 16  1  0  0  0  0
 25 24  1  0  0  0  0
 25 19  2  0  0  0  0
 26 23  1  1  0  0  0
 26  6  1  0  0  0  0
 27 25  1  0  0  0  0
 28 29  1  0  0  0  0
 29 27  1  0  0  0  0
 30 28  1  0  0  0  0
 30 29  1  0  0  0  0
M  END
>  <MODEL>
3

>  <REMARK>
 VINA RESULT:      -1.5      1.657      2.038
  Name = 
  2 active torsions:
  status: ('A' for Active; 'I' for Inactive)
    1  A    between atoms: C_14  and  N_22
    2  A    between atoms: N_22  and  C_29
                            x       y       z     vdW  Elec       q    Type
                         _______ _______ _______ _____ _____    ______ ____

>  <TORSDO>
F 2

$$$$
