=
 OpenBabel11062408263D

 32 37  0  0  1  0  0  0  0  0999 V2000
  161.6980  209.1320  151.1270 C   0  0  1  0  0  3  0  0  0  0  0  0
  162.1440  206.8510  149.9880 C   0  0  2  0  0  3  0  0  0  0  0  0
  162.1510  210.5920  151.0640 C   0  0  0  0  0  2  0  0  0  0  0  0
  162.3410  208.3800  149.9470 C   0  0  1  0  0  3  0  0  0  0  0  0
  161.3840  206.2520  148.8070 C   0  0  2  0  0  3  0  0  0  0  0  0
  160.6650  202.7550  152.3860 C   0  0  0  0  0  2  0  0  0  0  0  0
  161.4990  206.3570  151.2720 C   0  0  2  0  0  3  0  0  0  0  0  0
  160.8340  202.8290  149.8850 C   0  0  0  0  0  2  0  0  0  0  0  0
  160.8630  204.3530  149.9330 C   0  0  2  0  0  3  0  0  0  0  0  0
  161.9560  209.0290  148.6360 C   0  0  0  0  0  0  0  0  0  0  0  0
  161.5710  204.8540  148.8180 O   0  0  0  0  0  0  0  0  0  0  0  0
  161.7630  208.3280  147.5560 N   0  0  0  0  0  0  0  0  0  0  0  0
  161.7420  210.4850  148.6080 C   0  0  0  0  0  3  0  0  0  0  0  0
  162.2460  206.9700  152.4490 C   0  0  0  0  0  2  0  0  0  0  0  0
  162.0020  208.4900  152.5100 C   0  0  2  0  0  3  0  0  0  0  0  0
  161.5000  204.8300  151.2620 C   0  0  2  0  0  3  0  0  0  0  0  0
  161.9190  206.8730  147.5160 C   0  0  2  0  0  3  0  0  0  0  0  0
  161.8080  211.2090  149.7310 C   0  0  0  0  0  3  0  0  0  0  0  0
  160.0450  202.2830  151.0730 C   0  0  0  0  0  2  0  0  0  0  0  0
  160.6960  204.2810  152.4390 C   0  0  0  0  0  2  0  0  0  0  0  0
  159.9270  208.2690  155.8340 C   0  0  2  0  0  3  0  0  0  0  0  0
  159.4800  206.9530  155.9540 O   0  0  0  0  0  1  0  0  0  0  0  0
  160.8990  208.7530  153.5440 C   0  0  2  0  0  3  0  0  0  0  0  0
  158.7850  209.1490  155.3020 C   0  0  0  0  0  2  0  0  0  0  0  0
  160.1860  210.1130  153.4310 C   0  0  0  0  0  2  0  0  0  0  0  0
  161.2060  208.3070  154.9810 C   0  0  1  0  0  3  0  0  0  0  0  0
  162.2230  209.2090  155.6590 C   0  0  0  0  0  1  0  0  0  0  0  0
  159.3220  210.4260  154.6600 C   0  0  1  0  0  3  0  0  0  0  0  0
  158.1410  211.8130  153.1640 O   0  0  0  0  0  0  0  0  0  0  0  0
  158.1880  211.3150  154.2770 C   0  0  0  0  0  3  0  0  0  0  0  0
  161.2390  206.3000  146.2730 C   0  0  0  0  0  2  0  0  0  0  0  0
  162.1890  205.4570  145.4360 C   0  0  0  0  0  1  0  0  0  0  0  0
  1  3  1  1  0  0  0
  1 15  1  0  0  0  0
  2  7  1  0  0  0  0
  4  2  1  0  0  0  0
  4  1  1  0  0  0  0
  5 11  1  0  0  0  0
  5  2  1  0  0  0  0
  6 20  1  0  0  0  0
  7 14  1  0  0  0  0
  8  9  1  0  0  0  0
  8 19  1  0  0  0  0
  9 16  1  0  0  0  0
 10  4  1  0  0  0  0
 11  9  1  0  0  0  0
 12 10  2  0  0  0  0
 13 10  1  0  0  0  0
 13 18  2  0  0  0  0
 14 15  1  0  0  0  0
 15 23  1  0  0  0  0
 16  7  1  0  0  0  0
 16 20  1  0  0  0  0
 17 12  1  0  0  0  0
 17  5  1  0  0  0  0
 18  3  1  0  0  0  0
 19  6  1  0  0  0  0
 21 22  1  0  0  0  0
 23 26  1  0  0  0  0
 24 21  1  0  0  0  0
 25 23  1  0  0  0  0
 25 28  1  0  0  0  0
 26 27  1  0  0  0  0
 26 21  1  0  0  0  0
 28 24  1  0  0  0  0
 29 30  2  0  0  0  0
 30 28  1  0  0  0  0
 31 17  1  0  0  0  0
 32 31  1  0  0  0  0
M  END
>  <MODEL>
1

>  <REMARK>
 VINA RESULT:      -7.0      0.000      0.000
  Name = 
  3 active torsions:
  status: ('A' for Active; 'I' for Inactive)
    1  A    between atoms: C_13  and  C_29
    2  A    between atoms: C_15  and  C_26
    3  A    between atoms: C_16  and  C_27
                            x       y       z     vdW  Elec       q    Type
                         _______ _______ _______ _____ _____    ______ ____

>  <TORSDO>
F 3

$$$$
=
 OpenBabel11062408263D

 32 37  0  0  1  0  0  0  0  0999 V2000
  161.4320  204.0060  149.6910 C   0  0  1  0  0  3  0  0  0  0  0  0
  162.0790  206.1460  150.9960 C   0  0  2  0  0  3  0  0  0  0  0  0
  161.4940  202.4830  149.8160 C   0  0  0  0  0  2  0  0  0  0  0  0
  161.8910  204.6150  151.0280 C   0  0  1  0  0  3  0  0  0  0  0  0
  161.1920  206.9400  151.9520 C   0  0  2  0  0  3  0  0  0  0  0  0
  162.3130  210.4080  148.4490 C   0  0  0  0  0  2  0  0  0  0  0  0
  161.9400  206.7440  149.6050 C   0  0  2  0  0  3  0  0  0  0  0  0
  161.7770  210.3650  150.8990 C   0  0  0  0  0  2  0  0  0  0  0  0
  161.4580  208.8770  150.8010 C   0  0  2  0  0  3  0  0  0  0  0  0
  161.0240  204.1130  152.1620 C   0  0  0  0  0  0  0  0  0  0  0  0
  161.6990  208.2530  152.0450 O   0  0  0  0  0  0  0  0  0  0  0  0
  160.7180  204.8680  153.1760 N   0  0  0  0  0  0  0  0  0  0  0  0
  160.4730  202.7500  152.0750 C   0  0  0  0  0  3  0  0  0  0  0  0
  162.8110  205.9390  148.6490 C   0  0  0  0  0  2  0  0  0  0  0  0
  162.2410  204.5190  148.4670 C   0  0  2  0  0  3  0  0  0  0  0  0
  162.2990  208.2270  149.6750 C   0  0  2  0  0  3  0  0  0  0  0  0
  161.1950  206.2450  153.3140 C   0  0  2  0  0  3  0  0  0  0  0  0
  160.6670  202.0010  150.9830 C   0  0  0  0  0  3  0  0  0  0  0  0
  161.4910  211.0500  149.5650 C   0  0  0  0  0  2  0  0  0  0  0  0
  161.9960  208.9180  148.3470 C   0  0  0  0  0  2  0  0  0  0  0  0
  160.7340  205.6810  145.0340 C   0  0  2  0  0  3  0  0  0  0  0  0
  159.9700  206.8200  145.2830 O   0  0  0  0  0  1  0  0  0  0  0  0
  161.4290  204.4970  147.1650 C   0  0  2  0  0  3  0  0  0  0  0  0
  159.8080  204.4620  144.9100 C   0  0  0  0  0  2  0  0  0  0  0  0
  161.1060  203.1030  146.6010 C   0  0  0  0  0  2  0  0  0  0  0  0
  161.8250  205.5410  146.1090 C   0  0  1  0  0  3  0  0  0  0  0  0
  163.1420  205.2040  145.4330 C   0  0  0  0  0  1  0  0  0  0  0  0
  160.5650  203.1610  145.1660 C   0  0  1  0  0  3  0  0  0  0  0  0
  160.1230  200.8630  144.8800 O   0  0  0  0  0  0  0  0  0  0  0  0
  159.6700  201.9960  144.9070 C   0  0  0  0  0  3  0  0  0  0  0  0
  160.3600  206.9970  154.3490 C   0  0  0  0  0  2  0  0  0  0  0  0
  161.2260  207.7130  155.3750 C   0  0  0  0  0  1  0  0  0  0  0  0
  1  3  1  1  0  0  0
  1  4  1  0  0  0  0
  2  4  1  0  0  0  0
  2  5  1  0  0  0  0
  3 18  1  0  0  0  0
  4 10  1  0  0  0  0
  5 11  1  0  0  0  0
  5 17  1  0  0  0  0
  6 19  1  0  0  0  0
  7 16  1  0  0  0  0
  7  2  1  0  0  0  0
  9  8  1  0  0  0  0
  9 11  1  0  0  0  0
 10 12  2  0  0  0  0
 12 17  1  0  0  0  0
 13 10  1  0  0  0  0
 14  7  1  0  0  0  0
 15 14  1  0  0  0  0
 15  1  1  0  0  0  0
 16  9  1  0  0  0  0
 17 31  1  0  0  0  0
 18 13  2  0  0  0  0
 19  8  1  0  0  0  0
 20  6  1  0  0  0  0
 20 16  1  0  0  0  0
 21 22  1  0  0  0  0
 21 26  1  0  0  0  0
 23 15  1  0  0  0  0
 24 21  1  0  0  0  0
 24 28  1  0  0  0  0
 25 23  1  0  0  0  0
 26 23  1  0  0  0  0
 27 26  1  0  0  0  0
 28 25  1  0  0  0  0
 29 30  2  0  0  0  0
 30 28  1  0  0  0  0
 31 32  1  0  0  0  0
M  END
>  <MODEL>
2

>  <REMARK>
 VINA RESULT:      -6.6      2.426      8.264
  Name = 
  3 active torsions:
  status: ('A' for Active; 'I' for Inactive)
    1  A    between atoms: C_13  and  C_29
    2  A    between atoms: C_15  and  C_26
    3  A    between atoms: C_16  and  C_27
                            x       y       z     vdW  Elec       q    Type
                         _______ _______ _______ _____ _____    ______ ____

>  <TORSDO>
F 3

$$$$
=
 OpenBabel11062408263D

 32 37  0  0  1  0  0  0  0  0999 V2000
  160.8590  208.2740  153.5470 C   0  0  1  0  0  3  0  0  0  0  0  0
  161.0580  210.7620  152.8630 C   0  0  2  0  0  3  0  0  0  0  0  0
  160.9390  207.3800  154.7860 C   0  0  0  0  0  2  0  0  0  0  0  0
  160.9230  209.7410  154.0100 C   0  0  1  0  0  3  0  0  0  0  0  0
  159.9210  211.7730  152.7420 C   0  0  2  0  0  3  0  0  0  0  0  0
  161.8130  211.7710  148.0540 C   0  0  0  0  0  2  0  0  0  0  0  0
  161.2740  210.1200  151.5020 C   0  0  2  0  0  3  0  0  0  0  0  0
  160.6440  213.3900  149.5720 C   0  0  0  0  0  2  0  0  0  0  0  0
  160.4150  212.2730  150.5850 C   0  0  2  0  0  3  0  0  0  0  0  0
  159.8030  210.0350  154.9840 C   0  0  0  0  0  0  0  0  0  0  0  0
  160.3380  212.8150  151.8860 O   0  0  0  0  0  0  0  0  0  0  0  0
  159.2100  211.1930  155.0170 N   0  0  0  0  0  0  0  0  0  0  0  0
  159.3440  208.9560  155.8750 C   0  0  0  0  0  3  0  0  0  0  0  0
  162.3970  209.0980  151.6280 C   0  0  0  0  0  2  0  0  0  0  0  0
  161.9470  207.9080  152.4980 C   0  0  2  0  0  3  0  0  0  0  0  0
  161.5490  211.2220  150.4810 C   0  0  2  0  0  3  0  0  0  0  0  0
  159.5850  212.3010  154.1370 C   0  0  2  0  0  3  0  0  0  0  0  0
  159.8490  207.7210  155.7720 C   0  0  0  0  0  3  0  0  0  0  0  0
  160.7000  212.8120  148.1600 C   0  0  0  0  0  2  0  0  0  0  0  0
  161.5870  210.6490  149.0650 C   0  0  0  0  0  2  0  0  0  0  0  0
  161.0170  205.9910  149.2020 C   0  0  2  0  0  3  0  0  0  0  0  0
  159.9050  206.6300  148.6530 O   0  0  0  0  0  1  0  0  0  0  0  0
  161.5140  206.7730  151.5610 C   0  0  2  0  0  3  0  0  0  0  0  0
  160.5630  204.7250  149.9430 C   0  0  0  0  0  2  0  0  0  0  0  0
  161.7740  205.3450  152.0740 C   0  0  0  0  0  2  0  0  0  0  0  0
  161.8100  206.9840  150.0690 C   0  0  1  0  0  3  0  0  0  0  0  0
  163.2890  206.8420  149.7510 C   0  0  0  0  0  1  0  0  0  0  0  0
  161.5980  204.2870  150.9770 C   0  0  1  0  0  3  0  0  0  0  0  0
  160.8440  202.0550  150.8710 O   0  0  0  0  0  0  0  0  0  0  0  0
  161.1890  202.9850  151.5810 C   0  0  0  0  0  3  0  0  0  0  0  0
  158.4770  213.3540  154.1070 C   0  0  0  0  0  2  0  0  0  0  0  0
  157.0940  212.7370  154.2440 C   0  0  0  0  0  1  0  0  0  0  0  0
  1  4  1  0  0  0  0
  1  3  1  1  0  0  0
  2  4  1  0  0  0  0
  3 18  1  0  0  0  0
  4 10  1  0  0  0  0
  5  2  1  0  0  0  0
  5 17  1  0  0  0  0
  6 19  1  0  0  0  0
  6 20  1  0  0  0  0
  7 14  1  0  0  0  0
  7  2  1  0  0  0  0
  8  9  1  0  0  0  0
  9 11  1  0  0  0  0
 10 12  2  0  0  0  0
 10 13  1  0  0  0  0
 11  5  1  0  0  0  0
 14 15  1  0  0  0  0
 15  1  1  0  0  0  0
 16  9  1  0  0  0  0
 16  7  1  0  0  0  0
 17 12  1  0  0  0  0
 18 13  2  0  0  0  0
 19  8  1  0  0  0  0
 20 16  1  0  0  0  0
 21 24  1  0  0  0  0
 21 26  1  0  0  0  0
 22 21  1  0  0  0  0
 23 25  1  0  0  0  0
 23 15  1  0  0  0  0
 24 28  1  0  0  0  0
 26 23  1  0  0  0  0
 27 26  1  0  0  0  0
 28 30  1  0  0  0  0
 28 25  1  0  0  0  0
 29 30  2  0  0  0  0
 31 17  1  0  0  0  0
 31 32  1  0  0  0  0
M  END
>  <MODEL>
3

>  <REMARK>
 VINA RESULT:      -6.6      2.468      7.506
  Name = 
  3 active torsions:
  status: ('A' for Active; 'I' for Inactive)
    1  A    between atoms: C_13  and  C_29
    2  A    between atoms: C_15  and  C_26
    3  A    between atoms: C_16  and  C_27
                            x       y       z     vdW  Elec       q    Type
                         _______ _______ _______ _____ _____    ______ ____

>  <TORSDO>
F 3

$$$$
=
 OpenBabel11062408263D

 32 37  0  0  1  0  0  0  0  0999 V2000
  160.3340  212.1370  151.0330 C   0  0  1  0  0  3  0  0  0  0  0  0
  161.7710  210.0060  151.3400 C   0  0  2  0  0  3  0  0  0  0  0  0
  160.3620  213.4860  150.3130 C   0  0  0  0  0  2  0  0  0  0  0  0
  161.5440  211.3140  150.5550 C   0  0  1  0  0  3  0  0  0  0  0  0
  161.6920  208.7210  150.5190 C   0  0  2  0  0  3  0  0  0  0  0  0
  160.6920  207.0400  155.1800 C   0  0  0  0  0  2  0  0  0  0  0  0
  160.8600  209.8590  152.5480 C   0  0  2  0  0  3  0  0  0  0  0  0
  161.7400  206.1500  153.0830 C   0  0  0  0  0  2  0  0  0  0  0  0
  161.3320  207.4200  152.3420 C   0  0  2  0  0  3  0  0  0  0  0  0
  161.5070  211.1450  149.0520 C   0  0  0  0  0  0  0  0  0  0  0  0
  162.2350  207.6680  151.2840 O   0  0  0  0  0  0  0  0  0  0  0  0
  161.9220  210.0560  148.4740 N   0  0  0  0  0  0  0  0  0  0  0  0
  160.9300  212.2280  148.2370 C   0  0  0  0  0  3  0  0  0  0  0  0
  160.9250  211.1480  153.3560 C   0  0  0  0  0  2  0  0  0  0  0  0
  160.2720  212.3060  152.5770 C   0  0  2  0  0  3  0  0  0  0  0  0
  161.2810  208.6140  153.3270 C   0  0  2  0  0  3  0  0  0  0  0  0
  162.4720  208.9220  149.2190 C   0  0  2  0  0  3  0  0  0  0  0  0
  160.3780  213.3010  148.8150 C   0  0  0  0  0  3  0  0  0  0  0  0
  160.7510  205.8620  154.2100 C   0  0  0  0  0  2  0  0  0  0  0  0
  160.2830  208.3130  154.4440 C   0  0  0  0  0  2  0  0  0  0  0  0
  157.1900  212.2220  155.0070 C   0  0  2  0  0  3  0  0  0  0  0  0
  156.9550  210.8850  155.3270 O   0  0  0  0  0  1  0  0  0  0  0  0
  158.8400  212.4810  153.1000 C   0  0  2  0  0  3  0  0  0  0  0  0
  156.1950  212.6710  153.9260 C   0  0  0  0  0  2  0  0  0  0  0  0
  158.0040  213.5720  152.4080 C   0  0  0  0  0  2  0  0  0  0  0  0
  158.6680  212.4110  154.6250 C   0  0  1  0  0  3  0  0  0  0  0  0
  159.2010  213.6510  155.3210 C   0  0  0  0  0  1  0  0  0  0  0  0
  156.7100  213.8920  153.1700 C   0  0  1  0  0  3  0  0  0  0  0  0
  155.8340  214.2970  151.0190 O   0  0  0  0  0  0  0  0  0  0  0  0
  155.6650  214.3800  152.2240 C   0  0  0  0  0  3  0  0  0  0  0  0
  162.4800  207.6670  148.3480 C   0  0  0  0  0  2  0  0  0  0  0  0
  161.1170  206.9940  148.2980 C   0  0  0  0  0  1  0  0  0  0  0  0
  1  3  1  6  0  0  0
  1 15  1  0  0  0  0
  2  7  1  0  0  0  0
  4  1  1  0  0  0  0
  4  2  1  0  0  0  0
  5 11  1  0  0  0  0
  5  2  1  0  0  0  0
  7 16  1  0  0  0  0
  7 14  1  0  0  0  0
  8 19  1  0  0  0  0
  9  8  1  0  0  0  0
  9 16  1  0  0  0  0
 10  4  1  0  0  0  0
 11  9  1  0  0  0  0
 12 10  2  0  0  0  0
 12 17  1  0  0  0  0
 13 18  2  0  0  0  0
 13 10  1  0  0  0  0
 15 23  1  0  0  0  0
 15 14  1  0  0  0  0
 16 20  1  0  0  0  0
 17  5  1  0  0  0  0
 18  3  1  0  0  0  0
 19  6  1  0  0  0  0
 20  6  1  0  0  0  0
 21 22  1  0  0  0  0
 23 26  1  0  0  0  0
 24 21  1  0  0  0  0
 25 23  1  0  0  0  0
 25 28  1  0  0  0  0
 26 21  1  0  0  0  0
 26 27  1  0  0  0  0
 28 24  1  0  0  0  0
 29 30  2  0  0  0  0
 30 28  1  0  0  0  0
 31 17  1  0  0  0  0
 32 31  1  0  0  0  0
M  END
>  <MODEL>
4

>  <REMARK>
 VINA RESULT:      -6.3      2.323      3.973
  Name = 
  3 active torsions:
  status: ('A' for Active; 'I' for Inactive)
    1  A    between atoms: C_13  and  C_29
    2  A    between atoms: C_15  and  C_26
    3  A    between atoms: C_16  and  C_27
                            x       y       z     vdW  Elec       q    Type
                         _______ _______ _______ _____ _____    ______ ____

>  <TORSDO>
F 3

$$$$
=
 OpenBabel11062408263D

 32 37  0  0  1  0  0  0  0  0999 V2000
  161.7350  209.1860  149.0970 C   0  0  1  0  0  3  0  0  0  0  0  0
  161.9380  208.7500  151.6400 C   0  0  2  0  0  3  0  0  0  0  0  0
  162.3310  208.7190  147.7670 C   0  0  0  0  0  2  0  0  0  0  0  0
  162.2870  208.2800  150.2130 C   0  0  1  0  0  3  0  0  0  0  0  0
  161.1100  207.7730  152.4710 C   0  0  2  0  0  3  0  0  0  0  0  0
  160.0810  212.1840  154.7160 C   0  0  0  0  0  2  0  0  0  0  0  0
  161.2600  210.1090  151.6810 C   0  0  2  0  0  3  0  0  0  0  0  0
  160.2300  209.7690  155.3750 C   0  0  0  0  0  2  0  0  0  0  0  0
  160.4120  209.3820  153.9100 C   0  0  2  0  0  3  0  0  0  0  0  0
  161.9550  206.8310  149.9290 C   0  0  0  0  0  0  0  0  0  0  0  0
  161.1550  208.1850  153.8200 O   0  0  0  0  0  0  0  0  0  0  0  0
  161.6820  205.9920  150.8850 N   0  0  0  0  0  0  0  0  0  0  0  0
  161.8880  206.3870  148.5270 C   0  0  0  0  0  3  0  0  0  0  0  0
  162.0770  211.0780  150.8360 C   0  0  0  0  0  2  0  0  0  0  0  0
  161.9880  210.6990  149.3450 C   0  0  2  0  0  3  0  0  0  0  0  0
  161.1070  210.5330  153.1410 C   0  0  2  0  0  3  0  0  0  0  0  0
  161.6900  206.3690  152.3000 C   0  0  2  0  0  3  0  0  0  0  0  0
  162.0380  207.2590  147.5230 C   0  0  0  0  0  3  0  0  0  0  0  0
  159.4030  211.0480  155.4790 C   0  0  0  0  0  2  0  0  0  0  0  0
  160.2650  211.8030  153.2490 C   0  0  0  0  0  2  0  0  0  0  0  0
  159.4820  213.6730  148.8160 C   0  0  2  0  0  3  0  0  0  0  0  0
  158.5350  213.6010  149.8370 O   0  0  0  0  0  1  0  0  0  0  0  0
  160.9270  211.5950  148.6910 C   0  0  2  0  0  3  0  0  0  0  0  0
  158.8890  213.0810  147.5280 C   0  0  0  0  0  2  0  0  0  0  0  0
  160.8440  211.5220  147.1560 C   0  0  0  0  0  2  0  0  0  0  0  0
  160.7910  213.0100  149.2740 C   0  0  1  0  0  3  0  0  0  0  0  0
  161.9570  213.9050  148.8910 C   0  0  0  0  0  1  0  0  0  0  0  0
  159.9870  212.6480  146.5600 C   0  0  1  0  0  3  0  0  0  0  0  0
  160.0430  212.1950  144.2470 O   0  0  0  0  0  0  0  0  0  0  0  0
  159.3810  212.2040  145.2720 C   0  0  0  0  0  3  0  0  0  0  0  0
  160.9430  205.3280  153.1320 C   0  0  0  0  0  2  0  0  0  0  0  0
  160.8310  203.9920  152.4140 C   0  0  0  0  0  1  0  0  0  0  0  0
  1  3  1  6  0  0  0
  1 15  1  0  0  0  0
  1  4  1  0  0  0  0
  2  7  1  0  0  0  0
  2  5  1  0  0  0  0
  4  2  1  0  0  0  0
  5 11  1  0  0  0  0
  6 19  1  0  0  0  0
  7 16  1  0  0  0  0
  8 19  1  0  0  0  0
  9  8  1  0  0  0  0
 10  4  1  0  0  0  0
 10 12  2  0  0  0  0
 11  9  1  0  0  0  0
 12 17  1  0  0  0  0
 13 10  1  0  0  0  0
 14  7  1  0  0  0  0
 15 14  1  0  0  0  0
 16 20  1  0  0  0  0
 16  9  1  0  0  0  0
 17  5  1  0  0  0  0
 17 31  1  0  0  0  0
 18  3  1  0  0  0  0
 18 13  2  0  0  0  0
 20  6  1  0  0  0  0
 21 26  1  0  0  0  0
 21 22  1  0  0  0  0
 23 26  1  0  0  0  0
 23 15  1  0  0  0  0
 24 21  1  0  0  0  0
 25 23  1  0  0  0  0
 27 26  1  0  0  0  0
 28 25  1  0  0  0  0
 28 24  1  0  0  0  0
 29 30  2  0  0  0  0
 30 28  1  0  0  0  0
 32 31  1  0  0  0  0
M  END
>  <MODEL>
5

>  <REMARK>
 VINA RESULT:      -5.8      2.591      6.581
  Name = 
  3 active torsions:
  status: ('A' for Active; 'I' for Inactive)
    1  A    between atoms: C_13  and  C_29
    2  A    between atoms: C_15  and  C_26
    3  A    between atoms: C_16  and  C_27
                            x       y       z     vdW  Elec       q    Type
                         _______ _______ _______ _____ _____    ______ ____

>  <TORSDO>
F 3

$$$$
=
 OpenBabel11062408263D

 32 37  0  0  1  0  0  0  0  0999 V2000
  161.7130  207.0260  152.1710 C   0  0  1  0  0  3  0  0  0  0  0  0
  161.7260  209.6140  152.1730 C   0  0  2  0  0  3  0  0  0  0  0  0
  161.9560  205.8430  153.1110 C   0  0  0  0  0  2  0  0  0  0  0  0
  161.7520  208.3180  153.0080 C   0  0  1  0  0  3  0  0  0  0  0  0
  160.5360  210.5370  152.4240 C   0  0  2  0  0  3  0  0  0  0  0  0
  161.9540  211.9130  147.7710 C   0  0  0  0  0  2  0  0  0  0  0  0
  161.8370  209.3730  150.6760 C   0  0  2  0  0  3  0  0  0  0  0  0
  160.8660  212.9830  149.7610 C   0  0  0  0  0  2  0  0  0  0  0  0
  160.7900  211.6240  150.4490 C   0  0  2  0  0  3  0  0  0  0  0  0
  160.7220  208.2620  154.1140 C   0  0  0  0  0  0  0  0  0  0  0  0
  160.8170  211.7950  151.8510 O   0  0  0  0  0  0  0  0  0  0  0  0
  160.0810  209.3240  154.5070 N   0  0  0  0  0  0  0  0  0  0  0  0
  160.4040  206.9560  154.7140 C   0  0  0  0  0  3  0  0  0  0  0  0
  163.0130  208.4380  150.4280 C   0  0  0  0  0  2  0  0  0  0  0  0
  162.7080  207.0310  150.9770 C   0  0  2  0  0  3  0  0  0  0  0  0
  161.9570  210.7230  149.9720 C   0  0  2  0  0  3  0  0  0  0  0  0
  160.3140  210.6500  153.9320 C   0  0  2  0  0  3  0  0  0  0  0  0
  160.9540  205.8310  154.2390 C   0  0  0  0  0  3  0  0  0  0  0  0
  160.8090  212.8060  148.2460 C   0  0  0  0  0  2  0  0  0  0  0  0
  161.8820  210.5500  148.4560 C   0  0  0  0  0  2  0  0  0  0  0  0
  160.7970  204.2380  148.9880 C   0  0  2  0  0  3  0  0  0  0  0  0
  161.1980  203.0100  149.5140 O   0  0  0  0  0  1  0  0  0  0  0  0
  162.2380  206.1560  149.8070 C   0  0  2  0  0  3  0  0  0  0  0  0
  161.5560  204.5050  147.6800 C   0  0  0  0  0  2  0  0  0  0  0  0
  162.3320  206.7970  148.4110 C   0  0  0  0  0  2  0  0  0  0  0  0
  160.9620  205.3360  150.0520 C   0  0  1  0  0  3  0  0  0  0  0  0
  159.7150  206.2030  150.0620 C   0  0  0  0  0  1  0  0  0  0  0  0
  161.5760  205.9940  147.3450 C   0  0  1  0  0  3  0  0  0  0  0  0
  161.9910  205.4180  145.0960 O   0  0  0  0  0  0  0  0  0  0  0  0
  162.2010  206.2030  146.0060 C   0  0  0  0  0  3  0  0  0  0  0  0
  159.1610  211.5910  154.2800 C   0  0  0  0  0  2  0  0  0  0  0  0
  158.2500  211.0110  155.3500 C   0  0  0  0  0  1  0  0  0  0  0  0
  1  4  1  0  0  0  0
  1  3  1  1  0  0  0
  2  5  1  0  0  0  0
  2  4  1  0  0  0  0
  3 18  1  0  0  0  0
  4 10  1  0  0  0  0
  5 17  1  0  0  0  0
  6 19  1  0  0  0  0
  6 20  1  0  0  0  0
  7  2  1  0  0  0  0
  8  9  1  0  0  0  0
  9 11  1  0  0  0  0
 10 12  2  0  0  0  0
 10 13  1  0  0  0  0
 11  5  1  0  0  0  0
 14  7  1  0  0  0  0
 14 15  1  0  0  0  0
 15  1  1  0  0  0  0
 16  9  1  0  0  0  0
 16  7  1  0  0  0  0
 17 31  1  0  0  0  0
 17 12  1  0  0  0  0
 18 13  2  0  0  0  0
 19  8  1  0  0  0  0
 20 16  1  0  0  0  0
 21 22  1  0  0  0  0
 21 26  1  0  0  0  0
 23 26  1  0  0  0  0
 23 15  1  0  0  0  0
 24 21  1  0  0  0  0
 25 23  1  0  0  0  0
 26 27  1  0  0  0  0
 28 24  1  0  0  0  0
 28 25  1  0  0  0  0
 29 30  2  0  0  0  0
 30 28  1  0  0  0  0
 31 32  1  0  0  0  0
M  END
>  <MODEL>
6

>  <REMARK>
 VINA RESULT:      -5.8      2.281      7.480
  Name = 
  3 active torsions:
  status: ('A' for Active; 'I' for Inactive)
    1  A    between atoms: C_13  and  C_29
    2  A    between atoms: C_15  and  C_26
    3  A    between atoms: C_16  and  C_27
                            x       y       z     vdW  Elec       q    Type
                         _______ _______ _______ _____ _____    ______ ____

>  <TORSDO>
F 3

$$$$
=
 OpenBabel11062408263D

 32 37  0  0  1  0  0  0  0  0999 V2000
  161.9590  209.0750  150.9010 C   0  0  1  0  0  3  0  0  0  0  0  0
  162.0640  206.7740  149.7190 C   0  0  2  0  0  3  0  0  0  0  0  0
  162.4700  210.5080  150.7420 C   0  0  0  0  0  2  0  0  0  0  0  0
  162.3310  208.2910  149.6290 C   0  0  1  0  0  3  0  0  0  0  0  0
  161.0670  206.2190  148.7040 C   0  0  2  0  0  3  0  0  0  0  0  0
  160.8370  202.7630  152.3860 C   0  0  0  0  0  2  0  0  0  0  0  0
  161.6410  206.3150  151.1050 C   0  0  2  0  0  3  0  0  0  0  0  0
  160.5440  202.8290  149.8960 C   0  0  0  0  0  2  0  0  0  0  0  0
  160.6620  204.3500  149.9240 C   0  0  2  0  0  3  0  0  0  0  0  0
  161.7450  208.9610  148.4050 C   0  0  0  0  0  0  0  0  0  0  0  0
  161.1780  204.8120  148.6930 O   0  0  0  0  0  0  0  0  0  0  0  0
  161.3190  208.2730  147.3870 N   0  0  0  0  0  0  0  0  0  0  0  0
  161.6080  210.4260  148.4040 C   0  0  0  0  0  3  0  0  0  0  0  0
  162.6250  206.8850  152.1180 C   0  0  0  0  0  2  0  0  0  0  0  0
  162.4790  208.4160  152.2090 C   0  0  2  0  0  3  0  0  0  0  0  0
  161.5590  204.7900  151.1080 C   0  0  2  0  0  3  0  0  0  0  0  0
  161.3860  206.8110  147.3310 C   0  0  2  0  0  3  0  0  0  0  0  0
  161.9200  211.1450  149.4890 C   0  0  0  0  0  3  0  0  0  0  0  0
  159.9600  202.3260  151.2140 C   0  0  0  0  0  2  0  0  0  0  0  0
  160.9580  204.2850  152.4190 C   0  0  0  0  0  2  0  0  0  0  0  0
  160.2750  210.4530  154.7380 C   0  0  2  0  0  3  0  0  0  0  0  0
  161.0850  211.4510  155.2800 O   0  0  0  0  0  1  0  0  0  0  0  0
  161.6020  208.7380  153.4270 C   0  0  2  0  0  3  0  0  0  0  0  0
  160.1610  209.2910  155.7360 C   0  0  0  0  0  2  0  0  0  0  0  0
  160.8310  207.5500  154.0290 C   0  0  0  0  0  2  0  0  0  0  0  0
  160.8060  210.0500  153.3530 C   0  0  1  0  0  3  0  0  0  0  0  0
  159.6380  209.9590  152.3860 C   0  0  0  0  0  1  0  0  0  0  0  0
  159.7610  207.9960  155.0350 C   0  0  1  0  0  3  0  0  0  0  0  0
  160.1110  206.9490  157.1180 O   0  0  0  0  0  0  0  0  0  0  0  0
  159.5290  206.9230  156.0460 C   0  0  0  0  0  3  0  0  0  0  0  0
  160.4580  206.2770  146.2400 C   0  0  0  0  0  2  0  0  0  0  0  0
  161.2120  205.4850  145.1830 C   0  0  0  0  0  1  0  0  0  0  0  0
  1  3  1  6  0  0  0
  1 15  1  0  0  0  0
  2  7  1  0  0  0  0
  4  2  1  0  0  0  0
  4  1  1  0  0  0  0
  5  2  1  0  0  0  0
  6 20  1  0  0  0  0
  7 16  1  0  0  0  0
  7 14  1  0  0  0  0
  8  9  1  0  0  0  0
  8 19  1  0  0  0  0
  9 16  1  0  0  0  0
 10  4  1  0  0  0  0
 11  5  1  0  0  0  0
 11  9  1  0  0  0  0
 12 10  2  0  0  0  0
 13 10  1  0  0  0  0
 13 18  2  0  0  0  0
 14 15  1  0  0  0  0
 15 23  1  0  0  0  0
 16 20  1  0  0  0  0
 17 12  1  0  0  0  0
 17  5  1  0  0  0  0
 18  3  1  0  0  0  0
 19  6  1  0  0  0  0
 21 22  1  0  0  0  0
 21 24  1  0  0  0  0
 23 25  1  0  0  0  0
 25 28  1  0  0  0  0
 26 23  1  0  0  0  0
 26 21  1  0  0  0  0
 27 26  1  0  0  0  0
 28 24  1  0  0  0  0
 28 30  1  0  0  0  0
 30 29  2  0  0  0  0
 31 17  1  0  0  0  0
 32 31  1  0  0  0  0
M  END
>  <MODEL>
7

>  <REMARK>
 VINA RESULT:      -5.5      1.046      2.098
  Name = 
  3 active torsions:
  status: ('A' for Active; 'I' for Inactive)
    1  A    between atoms: C_13  and  C_29
    2  A    between atoms: C_15  and  C_26
    3  A    between atoms: C_16  and  C_27
                            x       y       z     vdW  Elec       q    Type
                         _______ _______ _______ _____ _____    ______ ____

>  <TORSDO>
F 3

$$$$
=
 OpenBabel11062408263D

 32 37  0  0  1  0  0  0  0  0999 V2000
  161.1740  207.9430  153.3500 C   0  0  1  0  0  3  0  0  0  0  0  0
  161.2820  210.4580  152.7510 C   0  0  2  0  0  3  0  0  0  0  0  0
  161.2930  207.0100  154.5570 C   0  0  0  0  0  2  0  0  0  0  0  0
  161.1890  209.3940  153.8630 C   0  0  1  0  0  3  0  0  0  0  0  0
  160.1090  211.4330  152.6710 C   0  0  2  0  0  3  0  0  0  0  0  0
  161.9680  211.6560  147.9750 C   0  0  0  0  0  2  0  0  0  0  0  0
  161.5110  209.8710  151.3670 C   0  0  2  0  0  3  0  0  0  0  0  0
  160.7540  213.1800  149.5540 C   0  0  0  0  0  2  0  0  0  0  0  0
  160.5710  212.0220  150.5290 C   0  0  2  0  0  3  0  0  0  0  0  0
  160.0670  209.6160  154.8530 C   0  0  0  0  0  0  0  0  0  0  0  0
  160.4840  212.5170  151.8490 O   0  0  0  0  0  0  0  0  0  0  0  0
  159.4340  210.7510  154.9280 N   0  0  0  0  0  0  0  0  0  0  0  0
  159.6510  208.4920  155.7080 C   0  0  0  0  0  3  0  0  0  0  0  0
  162.6690  208.8850  151.4520 C   0  0  0  0  0  2  0  0  0  0  0  0
  162.2660  207.6510  152.2830 C   0  0  2  0  0  3  0  0  0  0  0  0
  161.7390  211.0160  150.3830 C   0  0  2  0  0  3  0  0  0  0  0  0
  159.7640  211.9010  154.0850 C   0  0  2  0  0  3  0  0  0  0  0  0
  160.1980  207.2790  155.5600 C   0  0  0  0  0  3  0  0  0  0  0  0
  160.8200  212.6530  148.1220 C   0  0  0  0  0  2  0  0  0  0  0  0
  161.7880  210.4930  148.9480 C   0  0  0  0  0  2  0  0  0  0  0  0
  161.3010  204.0900  150.9450 C   0  0  2  0  0  3  0  0  0  0  0  0
  162.3890  203.2520  151.1820 O   0  0  0  0  0  1  0  0  0  0  0  0
  161.8660  206.5340  151.3100 C   0  0  2  0  0  3  0  0  0  0  0  0
  161.3050  204.5290  149.4720 C   0  0  0  0  0  2  0  0  0  0  0  0
  161.1290  206.9870  150.0370 C   0  0  0  0  0  2  0  0  0  0  0  0
  161.3120  205.2520  151.9520 C   0  0  1  0  0  3  0  0  0  0  0  0
  159.9080  205.4440  152.4980 C   0  0  0  0  0  1  0  0  0  0  0  0
  160.5030  205.8120  149.2730 C   0  0  1  0  0  3  0  0  0  0  0  0
  161.1460  206.9800  147.3290 O   0  0  0  0  0  0  0  0  0  0  0  0
  160.4160  206.1340  147.8190 C   0  0  0  0  0  3  0  0  0  0  0  0
  158.6210  212.9150  154.0970 C   0  0  0  0  0  2  0  0  0  0  0  0
  157.2580  212.2430  154.1630 C   0  0  0  0  0  1  0  0  0  0  0  0
  1  4  1  0  0  0  0
  1  3  1  1  0  0  0
  2  4  1  0  0  0  0
  3 18  1  0  0  0  0
  4 10  1  0  0  0  0
  5  2  1  0  0  0  0
  5 17  1  0  0  0  0
  6 19  1  0  0  0  0
  6 20  1  0  0  0  0
  7 14  1  0  0  0  0
  7  2  1  0  0  0  0
  8  9  1  0  0  0  0
  9 11  1  0  0  0  0
 10 12  2  0  0  0  0
 10 13  1  0  0  0  0
 11  5  1  0  0  0  0
 14 15  1  0  0  0  0
 15  1  1  0  0  0  0
 16  9  1  0  0  0  0
 16  7  1  0  0  0  0
 17 31  1  0  0  0  0
 17 12  1  0  0  0  0
 18 13  2  0  0  0  0
 19  8  1  0  0  0  0
 20 16  1  0  0  0  0
 21 22  1  0  0  0  0
 21 26  1  0  0  0  0
 23 26  1  0  0  0  0
 23 15  1  0  0  0  0
 24 21  1  0  0  0  0
 25 23  1  0  0  0  0
 26 27  1  0  0  0  0
 28 24  1  0  0  0  0
 28 25  1  0  0  0  0
 29 30  2  0  0  0  0
 30 28  1  0  0  0  0
 31 32  1  0  0  0  0
M  END
>  <MODEL>
8

>  <REMARK>
 VINA RESULT:      -4.7      2.364      7.180
  Name = 
  3 active torsions:
  status: ('A' for Active; 'I' for Inactive)
    1  A    between atoms: C_13  and  C_29
    2  A    between atoms: C_15  and  C_26
    3  A    between atoms: C_16  and  C_27
                            x       y       z     vdW  Elec       q    Type
                         _______ _______ _______ _____ _____    ______ ____

>  <TORSDO>
F 3

$$$$
=
 OpenBabel11062408263D

 32 37  0  0  1  0  0  0  0  0999 V2000
  161.8740  208.9760  149.8160 C   0  0  1  0  0  3  0  0  0  0  0  0
  162.0240  207.5880  151.9960 C   0  0  2  0  0  3  0  0  0  0  0  0
  162.3390  208.9390  148.3590 C   0  0  0  0  0  2  0  0  0  0  0  0
  162.2440  207.6320  150.4700 C   0  0  1  0  0  3  0  0  0  0  0  0
  161.0240  206.5450  152.4890 C   0  0  2  0  0  3  0  0  0  0  0  0
  160.9720  209.9010  156.2690 C   0  0  0  0  0  2  0  0  0  0  0  0
  161.6440  208.9340  152.5920 C   0  0  2  0  0  3  0  0  0  0  0  0
  160.6260  207.4330  155.9870 C   0  0  0  0  0  2  0  0  0  0  0  0
  160.7000  207.5970  154.4720 C   0  0  2  0  0  3  0  0  0  0  0  0
  161.6140  206.4850  149.7110 C   0  0  0  0  0  0  0  0  0  0  0  0
  161.1760  206.4040  153.8840 O   0  0  0  0  0  0  0  0  0  0  0  0
  161.1870  205.4150  150.3170 N   0  0  0  0  0  0  0  0  0  0  0  0
  161.4330  206.6190  148.2560 C   0  0  0  0  0  3  0  0  0  0  0  0
  162.6310  209.9780  152.0850 C   0  0  0  0  0  2  0  0  0  0  0  0
  162.4400  210.2100  150.5740 C   0  0  2  0  0  3  0  0  0  0  0  0
  161.6070  208.8000  154.1130 C   0  0  2  0  0  3  0  0  0  0  0  0
  161.2970  205.2260  151.7650 C   0  0  2  0  0  3  0  0  0  0  0  0
  161.7450  207.7600  147.6290 C   0  0  0  0  0  3  0  0  0  0  0  0
  160.0850  208.7100  156.6250 C   0  0  0  0  0  2  0  0  0  0  0  0
  161.0490  210.0700  154.7530 C   0  0  0  0  0  2  0  0  0  0  0  0
  161.0290  213.5260  149.0190 C   0  0  2  0  0  3  0  0  0  0  0  0
  162.0710  214.4530  149.0110 O   0  0  0  0  0  1  0  0  0  0  0  0
  161.5790  211.4670  150.3910 C   0  0  2  0  0  3  0  0  0  0  0  0
  160.1010  213.8110  150.2090 C   0  0  0  0  0  2  0  0  0  0  0  0
  160.1920  211.4310  151.0560 C   0  0  0  0  0  2  0  0  0  0  0  0
  161.6040  212.1000  148.9910 C   0  0  1  0  0  3  0  0  0  0  0  0
  160.8310  211.2770  147.9750 C   0  0  0  0  0  1  0  0  0  0  0  0
  159.2860  212.5770  150.5850 C   0  0  1  0  0  3  0  0  0  0  0  0
  158.2460  212.2680  152.6790 O   0  0  0  0  0  0  0  0  0  0  0  0
  158.3030  212.9250  151.6520 C   0  0  0  0  0  3  0  0  0  0  0  0
  160.3640  204.1080  152.2270 C   0  0  0  0  0  2  0  0  0  0  0  0
  160.8670  202.7330  151.8160 C   0  0  0  0  0  1  0  0  0  0  0  0
  1  3  1  6  0  0  0
  1  4  1  0  0  0  0
  1 15  1  0  0  0  0
  2  5  1  0  0  0  0
  2  7  1  0  0  0  0
  4  2  1  0  0  0  0
  5 11  1  0  0  0  0
  6 19  1  0  0  0  0
  7 16  1  0  0  0  0
  8 19  1  0  0  0  0
  9  8  1  0  0  0  0
 10 12  2  0  0  0  0
 10  4  1  0  0  0  0
 11  9  1  0  0  0  0
 12 17  1  0  0  0  0
 13 10  1  0  0  0  0
 14  7  1  0  0  0  0
 15 14  1  0  0  0  0
 16  9  1  0  0  0  0
 16 20  1  0  0  0  0
 17 31  1  0  0  0  0
 17  5  1  0  0  0  0
 18 13  2  0  0  0  0
 18  3  1  0  0  0  0
 20  6  1  0  0  0  0
 21 24  1  0  0  0  0
 22 21  1  0  0  0  0
 23 15  1  0  0  0  0
 23 25  1  0  0  0  0
 24 28  1  0  0  0  0
 26 21  1  0  0  0  0
 26 23  1  0  0  0  0
 27 26  1  0  0  0  0
 28 25  1  0  0  0  0
 28 30  1  0  0  0  0
 30 29  2  0  0  0  0
 32 31  1  0  0  0  0
M  END
>  <MODEL>
9

>  <REMARK>
 VINA RESULT:      -4.4      1.977      5.450
  Name = 
  3 active torsions:
  status: ('A' for Active; 'I' for Inactive)
    1  A    between atoms: C_13  and  C_29
    2  A    between atoms: C_15  and  C_26
    3  A    between atoms: C_16  and  C_27
                            x       y       z     vdW  Elec       q    Type
                         _______ _______ _______ _____ _____    ______ ____

>  <TORSDO>
F 3

$$$$
