=
 OpenBabel11052422483D

 28 31  0  0  1  0  0  0  0  0999 V2000
  161.3370  210.1320  150.5180 C   0  0  2  0  0  3  0  0  0  0  0  0
  161.6890  208.5190  152.1920 C   0  0  2  0  0  3  0  0  0  0  0  0
  162.3380  209.8060  152.5130 C   0  0  0  0  0  0  0  0  0  0  0  0
  162.9980  210.0440  153.5580 O   0  0  0  0  0  0  0  0  0  0  0  0
  162.1710  210.7100  151.5020 O   0  0  0  0  0  0  0  0  0  0  0  0
  161.2360  208.6720  150.8020 N   0  0  0  0  0  0  0  0  0  0  0  0
  160.7970  207.2000  154.1110 C   0  0  0  0  0  1  0  0  0  0  0  0
  160.4860  208.2790  153.0920 C   0  0  0  0  0  2  0  0  0  0  0  0
  161.7860  210.5210  149.1060 C   0  0  0  0  0  2  0  0  0  0  0  0
  161.9930  212.0260  148.9880 C   0  0  2  0  0  3  0  0  0  0  0  0
  161.8660  212.8660  146.7660 C   0  0  0  0  0  0  0  0  0  0  0  0
  160.6370  212.7220  148.9630 C   0  0  0  0  0  2  0  0  0  0  0  0
  164.0650  212.2380  147.5240 N   0  0  0  0  0  1  0  0  0  0  0  0
  162.6570  212.3700  147.7010 C   0  0  0  0  0  0  0  0  0  0  0  0
  162.3620  213.3710  145.4550 C   0  0  0  0  0  1  0  0  0  0  0  0
  160.1510  212.9860  147.2230 S   0  0  0  0  0  0  0  0  0  0  0  0
  162.1560  207.8860  149.9710 C   0  0  0  0  0  2  0  0  0  0  0  0
  160.7130  205.2870  150.5170 C   0  0  0  0  0  3  0  0  0  0  0  0
  161.4920  204.5950  148.3270 C   0  0  0  0  0  0  0  0  0  0  0  0
  161.4120  207.0850  148.8940 C   0  0  2  0  0  3  0  0  0  0  0  0
  160.7990  202.9370  149.9540 C   0  0  0  0  0  0  0  0  0  0  0  0
  161.2370  205.6230  149.2620 C   0  0  0  0  0  0  0  0  0  0  0  0
  161.5870  206.2860  146.5050 C   0  0  0  0  0  2  0  0  0  0  0  0
  161.2890  203.2590  148.6860 C   0  0  0  0  0  3  0  0  0  0  0  0
  162.0240  204.9010  146.9590 C   0  0  0  0  0  2  0  0  0  0  0  0
  160.5450  201.2620  150.3930 Cl  0  0  0  0  0  0  0  0  0  0  0  0
  160.5010  203.9510  150.8650 C   0  0  0  0  0  3  0  0  0  0  0  0
  162.0600  207.3120  147.5230 C   0  0  0  0  0  2  0  0  0  0  0  0
  1  9  1  6  0  0  0
  1  6  1  0  0  0  0
  1  5  1  0  0  0  0
  2  3  1  0  0  0  0
  2  8  1  1  0  0  0
  3  4  2  0  0  0  0
  5  3  1  0  0  0  0
  6  2  1  0  0  0  0
  8  7  1  0  0  0  0
 10  9  1  6  0  0  0
 11 16  1  0  0  0  0
 11 14  2  0  0  0  0
 12 10  1  0  0  0  0
 13 14  1  0  0  0  0
 14 10  1  0  0  0  0
 15 11  1  0  0  0  0
 16 12  1  0  0  0  0
 17  6  1  0  0  0  0
 18 27  1  0  0  0  0
 19 24  2  0  0  0  0
 19 22  1  0  0  0  0
 20 22  1  0  0  0  0
 20 17  1  1  0  0  0
 21 26  1  0  0  0  0
 21 27  2  0  0  0  0
 22 18  2  0  0  0  0
 23 25  1  0  0  0  0
 23 28  1  0  0  0  0
 24 21  1  0  0  0  0
 25 19  1  0  0  0  0
 28 20  1  0  0  0  0
M  END
>  <MODEL>
1

>  <REMARK>
 VINA RESULT:      -7.3      0.000      0.000
  Name = 
  5 active torsions:
  status: ('A' for Active; 'I' for Inactive)
    1  A    between atoms: C_1  and  C_2
    2  A    between atoms: C_2  and  C_3
    3  A    between atoms: C_10  and  C_17
    4  A    between atoms: C_16  and  C_20
    5  A    between atoms: C_17  and  N_27
                            x       y       z     vdW  Elec       q    Type
                         _______ _______ _______ _____ _____    ______ ____

>  <TORSDO>
F 5

$$$$
=
 OpenBabel11052422483D

 28 31  0  0  1  0  0  0  0  0999 V2000
  159.8660  210.3610  154.3880 C   0  0  2  0  0  3  0  0  0  0  0  0
  161.7410  209.0170  154.8460 C   0  0  2  0  0  3  0  0  0  0  0  0
  161.9610  210.4280  155.2210 C   0  0  0  0  0  0  0  0  0  0  0  0
  163.0130  210.8850  155.7390 O   0  0  0  0  0  0  0  0  0  0  0  0
  160.8830  211.2020  154.8930 O   0  0  0  0  0  0  0  0  0  0  0  0
  160.4710  209.0280  154.1040 N   0  0  0  0  0  0  0  0  0  0  0  0
  160.1340  207.8380  156.3440 C   0  0  0  0  0  1  0  0  0  0  0  0
  161.5970  208.1430  156.0820 C   0  0  0  0  0  2  0  0  0  0  0  0
  159.1150  211.0270  153.2310 C   0  0  0  0  0  2  0  0  0  0  0  0
  159.3310  212.5340  153.2270 C   0  0  2  0  0  3  0  0  0  0  0  0
  157.9310  213.7270  151.7190 C   0  0  0  0  0  0  0  0  0  0  0  0
  158.3160  213.1940  154.1520 C   0  0  0  0  0  2  0  0  0  0  0  0
  160.0640  213.0330  150.8400 N   0  0  0  0  0  1  0  0  0  0  0  0
  159.0850  213.1020  151.8730 C   0  0  0  0  0  0  0  0  0  0  0  0
  157.5510  214.4530  150.4740 C   0  0  0  0  0  1  0  0  0  0  0  0
  156.8830  213.7300  153.1570 S   0  0  0  0  0  0  0  0  0  0  0  0
  160.8130  208.8700  152.6850 C   0  0  0  0  0  2  0  0  0  0  0  0
  162.0690  208.1400  150.0350 C   0  0  0  0  0  3  0  0  0  0  0  0
  161.2040  205.9100  150.4360 C   0  0  0  0  0  0  0  0  0  0  0  0
  161.4780  207.5160  152.4050 C   0  0  2  0  0  3  0  0  0  0  0  0
  161.8010  206.6000  148.1900 C   0  0  0  0  0  0  0  0  0  0  0  0
  161.5500  207.1900  150.9240 C   0  0  0  0  0  0  0  0  0  0  0  0
  161.2030  205.0310  152.7630 C   0  0  0  0  0  2  0  0  0  0  0  0
  161.3150  205.6300  149.0710 C   0  0  0  0  0  3  0  0  0  0  0  0
  160.6740  204.8460  151.3490 C   0  0  0  0  0  2  0  0  0  0  0  0
  161.9380  206.2400  146.4830 Cl  0  0  0  0  0  0  0  0  0  0  0  0
  162.1880  207.8510  148.6740 C   0  0  0  0  0  3  0  0  0  0  0  0
  160.8250  206.4190  153.2560 C   0  0  0  0  0  2  0  0  0  0  0  0
  1  9  1  6  0  0  0
  1  5  1  0  0  0  0
  2  3  1  0  0  0  0
  2  8  1  1  0  0  0
  3  4  2  0  0  0  0
  5  3  1  0  0  0  0
  6  1  1  0  0  0  0
  6  2  1  0  0  0  0
  8  7  1  0  0  0  0
 10  9  1  6  0  0  0
 10 12  1  0  0  0  0
 11 14  2  0  0  0  0
 11 16  1  0  0  0  0
 13 14  1  0  0  0  0
 14 10  1  0  0  0  0
 15 11  1  0  0  0  0
 16 12  1  0  0  0  0
 17  6  1  0  0  0  0
 18 22  1  0  0  0  0
 19 22  2  0  0  0  0
 19 25  1  0  0  0  0
 20 17  1  6  0  0  0
 20 28  1  0  0  0  0
 21 27  1  0  0  0  0
 21 24  2  0  0  0  0
 22 20  1  0  0  0  0
 23 28  1  0  0  0  0
 24 19  1  0  0  0  0
 25 23  1  0  0  0  0
 26 21  1  0  0  0  0
 27 18  2  0  0  0  0
M  END
>  <MODEL>
2

>  <REMARK>
 VINA RESULT:      -7.3      3.311      4.575
  Name = 
  5 active torsions:
  status: ('A' for Active; 'I' for Inactive)
    1  A    between atoms: C_1  and  C_2
    2  A    between atoms: C_2  and  C_3
    3  A    between atoms: C_10  and  C_17
    4  A    between atoms: C_16  and  C_20
    5  A    between atoms: C_17  and  N_27
                            x       y       z     vdW  Elec       q    Type
                         _______ _______ _______ _____ _____    ______ ____

>  <TORSDO>
F 5

$$$$
=
 OpenBabel11052422483D

 28 31  0  0  1  0  0  0  0  0999 V2000
  161.3000  207.8990  153.7550 C   0  0  2  0  0  3  0  0  0  0  0  0
  160.6120  208.9680  155.7330 C   0  0  2  0  0  3  0  0  0  0  0  0
  160.4750  207.5000  155.8160 C   0  0  0  0  0  0  0  0  0  0  0  0
  160.0540  206.8670  156.8190 O   0  0  0  0  0  0  0  0  0  0  0  0
  160.8240  206.9030  154.6370 O   0  0  0  0  0  0  0  0  0  0  0  0
  160.9330  209.2280  154.3220 N   0  0  0  0  0  0  0  0  0  0  0  0
  162.4800  210.6070  155.9380 C   0  0  0  0  0  1  0  0  0  0  0  0
  161.7550  209.4560  156.6100 C   0  0  0  0  0  2  0  0  0  0  0  0
  160.8550  207.6280  152.3150 C   0  0  0  0  0  2  0  0  0  0  0  0
  161.9650  206.9660  151.5090 C   0  0  2  0  0  3  0  0  0  0  0  0
  161.2020  205.4970  149.8010 C   0  0  0  0  0  0  0  0  0  0  0  0
  162.2110  207.7660  150.2350 C   0  0  0  0  0  2  0  0  0  0  0  0
  161.6280  204.4800  151.9440 N   0  0  0  0  0  1  0  0  0  0  0  0
  161.5610  205.6030  151.0680 C   0  0  0  0  0  0  0  0  0  0  0  0
  160.8720  204.1980  149.1480 C   0  0  0  0  0  1  0  0  0  0  0  0
  161.2380  207.0200  148.8820 S   0  0  0  0  0  0  0  0  0  0  0  0
  159.7150  209.7710  153.7080 C   0  0  0  0  0  2  0  0  0  0  0  0
  158.1350  211.5920  155.5310 C   0  0  0  0  0  3  0  0  0  0  0  0
  157.8530  213.0100  153.5840 C   0  0  0  0  0  0  0  0  0  0  0  0
  159.7540  211.3030  153.6190 C   0  0  2  0  0  3  0  0  0  0  0  0
  156.3450  213.2160  155.4700 C   0  0  0  0  0  0  0  0  0  0  0  0
  158.5330  211.9590  154.2390 C   0  0  0  0  0  0  0  0  0  0  0  0
  159.7400  213.2210  151.9770 C   0  0  0  0  0  2  0  0  0  0  0  0
  156.7520  213.6170  154.1960 C   0  0  0  0  0  3  0  0  0  0  0  0
  158.2570  213.4640  152.2130 C   0  0  0  0  0  2  0  0  0  0  0  0
  154.9680  213.9840  156.2300 Cl  0  0  0  0  0  0  0  0  0  0  0  0
  157.0430  212.2100  156.1420 C   0  0  0  0  0  3  0  0  0  0  0  0
  160.0370  211.7430  152.1770 C   0  0  0  0  0  2  0  0  0  0  0  0
  1  9  1  6  0  0  0
  1  6  1  0  0  0  0
  1  5  1  0  0  0  0
  2  3  1  0  0  0  0
  2  8  1  1  0  0  0
  3  4  2  0  0  0  0
  5  3  1  0  0  0  0
  6  2  1  0  0  0  0
  7  8  1  0  0  0  0
 10  9  1  6  0  0  0
 11 14  2  0  0  0  0
 12 10  1  0  0  0  0
 14 10  1  0  0  0  0
 14 13  1  0  0  0  0
 15 11  1  0  0  0  0
 16 11  1  0  0  0  0
 16 12  1  0  0  0  0
 17  6  1  0  0  0  0
 18 27  1  0  0  0  0
 19 24  2  0  0  0  0
 19 22  1  0  0  0  0
 20 17  1  6  0  0  0
 20 22  1  0  0  0  0
 21 27  2  0  0  0  0
 21 26  1  0  0  0  0
 22 18  2  0  0  0  0
 23 28  1  0  0  0  0
 23 25  1  0  0  0  0
 24 21  1  0  0  0  0
 25 19  1  0  0  0  0
 28 20  1  0  0  0  0
M  END
>  <MODEL>
3

>  <REMARK>
 VINA RESULT:      -6.8      4.741      7.998
  Name = 
  5 active torsions:
  status: ('A' for Active; 'I' for Inactive)
    1  A    between atoms: C_1  and  C_2
    2  A    between atoms: C_2  and  C_3
    3  A    between atoms: C_10  and  C_17
    4  A    between atoms: C_16  and  C_20
    5  A    between atoms: C_17  and  N_27
                            x       y       z     vdW  Elec       q    Type
                         _______ _______ _______ _____ _____    ______ ____

>  <TORSDO>
F 5

$$$$
=
 OpenBabel11052422483D

 28 31  0  0  1  0  0  0  0  0999 V2000
  160.4130  209.3930  153.5460 C   0  0  2  0  0  3  0  0  0  0  0  0
  161.2470  207.4030  154.4830 C   0  0  2  0  0  3  0  0  0  0  0  0
  161.6350  208.5940  155.2650 C   0  0  0  0  0  0  0  0  0  0  0  0
  162.3210  208.5760  156.3200 O   0  0  0  0  0  0  0  0  0  0  0  0
  161.1910  209.7430  154.6720 O   0  0  0  0  0  0  0  0  0  0  0  0
  160.6490  207.9500  153.2560 N   0  0  0  0  0  0  0  0  0  0  0  0
  159.7130  207.3360  156.4480 C   0  0  0  0  0  1  0  0  0  0  0  0
  160.2070  206.5810  155.2290 C   0  0  0  0  0  2  0  0  0  0  0  0
  160.6420  210.3660  152.3850 C   0  0  0  0  0  2  0  0  0  0  0  0
  160.4500  211.8100  152.8290 C   0  0  2  0  0  3  0  0  0  0  0  0
  158.4630  212.8360  152.0160 C   0  0  0  0  0  0  0  0  0  0  0  0
  159.5540  211.8450  154.0620 C   0  0  0  0  0  2  0  0  0  0  0  0
  160.4240  213.1170  150.6440 N   0  0  0  0  0  1  0  0  0  0  0  0
  159.7420  212.5980  151.7830 C   0  0  0  0  0  0  0  0  0  0  0  0
  157.6160  213.6960  151.1430 C   0  0  0  0  0  1  0  0  0  0  0  0
  157.8330  212.1300  153.5230 S   0  0  0  0  0  0  0  0  0  0  0  0
  161.6360  207.7580  152.1860 C   0  0  0  0  0  2  0  0  0  0  0  0
  160.5060  205.0010  151.6720 C   0  0  0  0  0  3  0  0  0  0  0  0
  161.3320  205.2750  149.4080 C   0  0  0  0  0  0  0  0  0  0  0  0
  160.9750  207.3440  150.8650 C   0  0  2  0  0  3  0  0  0  0  0  0
  160.8540  203.0620  150.2720 C   0  0  0  0  0  0  0  0  0  0  0  0
  160.9730  205.8410  150.6520 C   0  0  0  0  0  0  0  0  0  0  0  0
  161.2100  207.5260  148.3570 C   0  0  0  0  0  2  0  0  0  0  0  0
  161.2870  203.8890  149.2330 C   0  0  0  0  0  3  0  0  0  0  0  0
  161.8080  206.1300  148.2720 C   0  0  0  0  0  2  0  0  0  0  0  0
  160.7980  201.3270  150.0430 Cl  0  0  0  0  0  0  0  0  0  0  0  0
  160.4530  203.6190  151.4870 C   0  0  0  0  0  3  0  0  0  0  0  0
  161.5760  208.1400  149.6990 C   0  0  0  0  0  2  0  0  0  0  0  0
  1  9  1  6  0  0  0
  1  5  1  0  0  0  0
  2  8  1  1  0  0  0
  2  3  1  0  0  0  0
  3  4  2  0  0  0  0
  5  3  1  0  0  0  0
  6  1  1  0  0  0  0
  6  2  1  0  0  0  0
  8  7  1  0  0  0  0
 10  9  1  6  0  0  0
 10 12  1  0  0  0  0
 11 16  1  0  0  0  0
 13 14  1  0  0  0  0
 14 11  2  0  0  0  0
 14 10  1  0  0  0  0
 15 11  1  0  0  0  0
 16 12  1  0  0  0  0
 17  6  1  0  0  0  0
 19 22  1  0  0  0  0
 20 17  1  1  0  0  0
 21 27  2  0  0  0  0
 22 20  1  0  0  0  0
 22 18  2  0  0  0  0
 23 28  1  0  0  0  0
 24 19  2  0  0  0  0
 24 21  1  0  0  0  0
 25 23  1  0  0  0  0
 25 19  1  0  0  0  0
 26 21  1  0  0  0  0
 27 18  1  0  0  0  0
 28 20  1  0  0  0  0
M  END
>  <MODEL>
4

>  <REMARK>
 VINA RESULT:      -6.7      2.926      3.516
  Name = 
  5 active torsions:
  status: ('A' for Active; 'I' for Inactive)
    1  A    between atoms: C_1  and  C_2
    2  A    between atoms: C_2  and  C_3
    3  A    between atoms: C_10  and  C_17
    4  A    between atoms: C_16  and  C_20
    5  A    between atoms: C_17  and  N_27
                            x       y       z     vdW  Elec       q    Type
                         _______ _______ _______ _____ _____    ______ ____

>  <TORSDO>
F 5

$$$$
=
 OpenBabel11052422483D

 28 31  0  0  1  0  0  0  0  0999 V2000
  161.5330  209.3010  153.5350 C   0  0  2  0  0  3  0  0  0  0  0  0
  161.2070  209.9020  151.2850 C   0  0  2  0  0  3  0  0  0  0  0  0
  160.5200  210.8220  152.2140 C   0  0  0  0  0  0  0  0  0  0  0  0
  159.8430  211.8260  151.8700 O   0  0  0  0  0  0  0  0  0  0  0  0
  160.6720  210.4220  153.5120 O   0  0  0  0  0  0  0  0  0  0  0  0
  161.6710  208.7980  152.1390 N   0  0  0  0  0  0  0  0  0  0  0  0
  162.0960  210.9450  149.2020 C   0  0  0  0  0  1  0  0  0  0  0  0
  162.4070  210.5800  150.6400 C   0  0  0  0  0  2  0  0  0  0  0  0
  161.0880  208.2780  154.5850 C   0  0  0  0  0  2  0  0  0  0  0  0
  161.5810  208.6630  155.9740 C   0  0  2  0  0  3  0  0  0  0  0  0
  160.9550  210.8490  156.6720 C   0  0  0  0  0  0  0  0  0  0  0  0
  160.4810  208.3940  156.9940 C   0  0  0  0  0  2  0  0  0  0  0  0
  163.0790  210.6770  155.5480 N   0  0  0  0  0  1  0  0  0  0  0  0
  161.8660  210.1220  156.0510 C   0  0  0  0  0  0  0  0  0  0  0  0
  161.1130  212.3050  156.9450 C   0  0  0  0  0  1  0  0  0  0  0  0
  159.5440  209.9380  157.2600 S   0  0  0  0  0  0  0  0  0  0  0  0
  160.7810  207.6610  151.8730 C   0  0  0  0  0  2  0  0  0  0  0  0
  161.7170  207.1860  149.0380 C   0  0  0  0  0  3  0  0  0  0  0  0
  161.2060  204.8500  149.4450 C   0  0  0  0  0  0  0  0  0  0  0  0
  161.5620  206.4150  151.4340 C   0  0  2  0  0  3  0  0  0  0  0  0
  161.3750  205.6830  147.1750 C   0  0  0  0  0  0  0  0  0  0  0  0
  161.4560  206.1480  149.9430 C   0  0  0  0  0  0  0  0  0  0  0  0
  161.6560  203.9060  151.7020 C   0  0  0  0  0  2  0  0  0  0  0  0
  161.1480  204.6310  148.0660 C   0  0  0  0  0  3  0  0  0  0  0  0
  160.9520  203.6970  150.3690 C   0  0  0  0  0  2  0  0  0  0  0  0
  161.3040  205.3990  145.4500 Cl  0  0  0  0  0  0  0  0  0  0  0  0
  161.6690  206.9580  147.6610 C   0  0  0  0  0  3  0  0  0  0  0  0
  161.1830  205.2150  152.3120 C   0  0  0  0  0  2  0  0  0  0  0  0
  1  9  1  1  0  0  0
  2  8  1  1  0  0  0
  2  6  1  0  0  0  0
  2  3  1  0  0  0  0
  3  5  1  0  0  0  0
  4  3  2  0  0  0  0
  5  1  1  0  0  0  0
  6  1  1  0  0  0  0
  7  8  1  0  0  0  0
 10  9  1  6  0  0  0
 10 14  1  0  0  0  0
 10 12  1  0  0  0  0
 11 15  1  0  0  0  0
 11 16  1  0  0  0  0
 12 16  1  0  0  0  0
 13 14  1  0  0  0  0
 14 11  2  0  0  0  0
 17  6  1  0  0  0  0
 18 22  1  0  0  0  0
 19 22  2  0  0  0  0
 19 25  1  0  0  0  0
 20 17  1  1  0  0  0
 20 28  1  0  0  0  0
 21 27  1  0  0  0  0
 21 24  2  0  0  0  0
 22 20  1  0  0  0  0
 23 28  1  0  0  0  0
 24 19  1  0  0  0  0
 25 23  1  0  0  0  0
 26 21  1  0  0  0  0
 27 18  2  0  0  0  0
M  END
>  <MODEL>
5

>  <REMARK>
 VINA RESULT:      -6.7      3.251      5.806
  Name = 
  5 active torsions:
  status: ('A' for Active; 'I' for Inactive)
    1  A    between atoms: C_1  and  C_2
    2  A    between atoms: C_2  and  C_3
    3  A    between atoms: C_10  and  C_17
    4  A    between atoms: C_16  and  C_20
    5  A    between atoms: C_17  and  N_27
                            x       y       z     vdW  Elec       q    Type
                         _______ _______ _______ _____ _____    ______ ____

>  <TORSDO>
F 5

$$$$
=
 OpenBabel11052422483D

 28 31  0  0  1  0  0  0  0  0999 V2000
  161.2410  207.6740  150.6330 C   0  0  2  0  0  3  0  0  0  0  0  0
  161.6000  205.3860  151.0410 C   0  0  2  0  0  3  0  0  0  0  0  0
  162.4010  206.2440  151.9370 C   0  0  0  0  0  0  0  0  0  0  0  0
  163.1820  205.8280  152.8310 O   0  0  0  0  0  0  0  0  0  0  0  0
  162.2230  207.5680  151.6450 O   0  0  0  0  0  0  0  0  0  0  0  0
  161.0270  206.3160  150.0570 N   0  0  0  0  0  0  0  0  0  0  0  0
  160.8310  203.2560  152.0860 C   0  0  0  0  0  1  0  0  0  0  0  0
  160.4760  204.7040  151.8060 C   0  0  0  0  0  2  0  0  0  0  0  0
  161.5830  208.7880  149.6400 C   0  0  0  0  0  2  0  0  0  0  0  0
  162.2410  209.9700  150.3400 C   0  0  2  0  0  3  0  0  0  0  0  0
  161.0360  212.0140  150.1670 C   0  0  0  0  0  0  0  0  0  0  0  0
  161.6400  210.1320  151.7310 C   0  0  0  0  0  2  0  0  0  0  0  0
  162.6830  211.6210  148.4520 N   0  0  0  0  0  1  0  0  0  0  0  0
  161.9560  211.2400  149.6180 C   0  0  0  0  0  0  0  0  0  0  0  0
  160.6930  213.3700  149.6530 C   0  0  0  0  0  1  0  0  0  0  0  0
  160.2920  211.3600  151.6440 S   0  0  0  0  0  0  0  0  0  0  0  0
  161.7780  206.1230  148.8100 C   0  0  0  0  0  2  0  0  0  0  0  0
  160.9150  203.2550  148.3970 C   0  0  0  0  0  3  0  0  0  0  0  0
  161.1160  203.7190  146.0250 C   0  0  0  0  0  0  0  0  0  0  0  0
  160.8700  205.6660  147.6610 C   0  0  2  0  0  3  0  0  0  0  0  0
  161.1490  201.4320  146.8270 C   0  0  0  0  0  0  0  0  0  0  0  0
  161.0060  204.1860  147.3540 C   0  0  0  0  0  0  0  0  0  0  0  0
  160.4560  205.9660  145.1880 C   0  0  0  0  0  2  0  0  0  0  0  0
  161.2060  202.3470  145.7730 C   0  0  0  0  0  3  0  0  0  0  0  0
  161.1860  204.6700  144.8690 C   0  0  0  0  0  2  0  0  0  0  0  0
  161.2590  199.7150  146.5020 Cl  0  0  0  0  0  0  0  0  0  0  0  0
  160.9930  201.8860  148.1380 C   0  0  0  0  0  3  0  0  0  0  0  0
  161.0600  206.5780  146.4420 C   0  0  0  0  0  2  0  0  0  0  0  0
  1  9  1  6  0  0  0
  1  5  1  0  0  0  0
  2  8  1  1  0  0  0
  2  3  1  0  0  0  0
  3  4  2  0  0  0  0
  5  3  1  0  0  0  0
  6  1  1  0  0  0  0
  6  2  1  0  0  0  0
  8  7  1  0  0  0  0
 10  9  1  6  0  0  0
 10 12  1  0  0  0  0
 11 16  1  0  0  0  0
 13 14  1  0  0  0  0
 14 11  2  0  0  0  0
 14 10  1  0  0  0  0
 15 11  1  0  0  0  0
 16 12  1  0  0  0  0
 17  6  1  0  0  0  0
 19 22  1  0  0  0  0
 20 17  1  1  0  0  0
 21 27  2  0  0  0  0
 22 20  1  0  0  0  0
 22 18  2  0  0  0  0
 23 28  1  0  0  0  0
 24 19  2  0  0  0  0
 24 21  1  0  0  0  0
 25 23  1  0  0  0  0
 25 19  1  0  0  0  0
 26 21  1  0  0  0  0
 27 18  1  0  0  0  0
 28 20  1  0  0  0  0
M  END
>  <MODEL>
6

>  <REMARK>
 VINA RESULT:      -6.5      2.257      3.158
  Name = 
  5 active torsions:
  status: ('A' for Active; 'I' for Inactive)
    1  A    between atoms: C_1  and  C_2
    2  A    between atoms: C_2  and  C_3
    3  A    between atoms: C_10  and  C_17
    4  A    between atoms: C_16  and  C_20
    5  A    between atoms: C_17  and  N_27
                            x       y       z     vdW  Elec       q    Type
                         _______ _______ _______ _____ _____    ______ ____

>  <TORSDO>
F 5

$$$$
=
 OpenBabel11052422483D

 28 31  0  0  1  0  0  0  0  0999 V2000
  160.2910  210.1920  154.4050 C   0  0  2  0  0  3  0  0  0  0  0  0
  161.5800  208.5030  155.4140 C   0  0  2  0  0  3  0  0  0  0  0  0
  161.7590  209.8120  156.0750 C   0  0  0  0  0  0  0  0  0  0  0  0
  162.4980  210.0250  157.0710 O   0  0  0  0  0  0  0  0  0  0  0  0
  161.0480  210.7900  155.4380 O   0  0  0  0  0  0  0  0  0  0  0  0
  160.8050  208.8080  154.2020 N   0  0  0  0  0  0  0  0  0  0  0  0
  159.3780  207.3840  155.7550 C   0  0  0  0  0  1  0  0  0  0  0  0
  160.7840  207.5540  156.2970 C   0  0  0  0  0  2  0  0  0  0  0  0
  160.2380  211.0870  153.1630 C   0  0  0  0  0  2  0  0  0  0  0  0
  158.8020  211.4410  152.7990 C   0  0  2  0  0  3  0  0  0  0  0  0
  157.8930  213.2610  154.0320 C   0  0  0  0  0  0  0  0  0  0  0  0
  158.8030  212.5770  151.7830 C   0  0  0  0  0  2  0  0  0  0  0  0
  157.5200  211.0720  154.9680 N   0  0  0  0  0  1  0  0  0  0  0  0
  158.0640  211.9520  153.9870 C   0  0  0  0  0  0  0  0  0  0  0  0
  157.0880  213.9470  155.0820 C   0  0  0  0  0  1  0  0  0  0  0  0
  158.6160  214.1580  152.6770 S   0  0  0  0  0  0  0  0  0  0  0  0
  161.7420  208.7290  153.0740 C   0  0  0  0  0  2  0  0  0  0  0  0
  160.8330  205.8540  152.8620 C   0  0  0  0  0  3  0  0  0  0  0  0
  161.5690  205.9730  150.5540 C   0  0  0  0  0  0  0  0  0  0  0  0
  161.0810  208.1370  151.8220 C   0  0  2  0  0  3  0  0  0  0  0  0
  161.3020  203.8220  151.6380 C   0  0  0  0  0  0  0  0  0  0  0  0
  161.1990  206.6250  151.7510 C   0  0  0  0  0  0  0  0  0  0  0  0
  161.2300  208.0950  149.3010 C   0  0  0  0  0  2  0  0  0  0  0  0
  161.6350  204.5770  150.5120 C   0  0  0  0  0  3  0  0  0  0  0  0
  161.9400  206.7500  149.3270 C   0  0  0  0  0  2  0  0  0  0  0  0
  161.3850  202.0750  151.5760 Cl  0  0  0  0  0  0  0  0  0  0  0  0
  160.8900  204.4600  152.8100 C   0  0  0  0  0  3  0  0  0  0  0  0
  161.5800  208.8630  150.5660 C   0  0  0  0  0  2  0  0  0  0  0  0
  1  9  1  6  0  0  0
  1  5  1  0  0  0  0
  2  3  1  0  0  0  0
  2  8  1  1  0  0  0
  3  4  2  0  0  0  0
  5  3  1  0  0  0  0
  6  1  1  0  0  0  0
  6  2  1  0  0  0  0
  7  8  1  0  0  0  0
 10  9  1  1  0  0  0
 10 14  1  0  0  0  0
 11 15  1  0  0  0  0
 12 16  1  0  0  0  0
 12 10  1  0  0  0  0
 14 11  2  0  0  0  0
 14 13  1  0  0  0  0
 16 11  1  0  0  0  0
 17  6  1  0  0  0  0
 19 22  1  0  0  0  0
 20 17  1  1  0  0  0
 21 27  2  0  0  0  0
 22 20  1  0  0  0  0
 22 18  2  0  0  0  0
 23 25  1  0  0  0  0
 23 28  1  0  0  0  0
 24 19  2  0  0  0  0
 24 21  1  0  0  0  0
 25 19  1  0  0  0  0
 26 21  1  0  0  0  0
 27 18  1  0  0  0  0
 28 20  1  0  0  0  0
M  END
>  <MODEL>
7

>  <REMARK>
 VINA RESULT:      -6.4      3.348      4.720
  Name = 
  5 active torsions:
  status: ('A' for Active; 'I' for Inactive)
    1  A    between atoms: C_1  and  C_2
    2  A    between atoms: C_2  and  C_3
    3  A    between atoms: C_10  and  C_17
    4  A    between atoms: C_16  and  C_20
    5  A    between atoms: C_17  and  N_27
                            x       y       z     vdW  Elec       q    Type
                         _______ _______ _______ _____ _____    ______ ____

>  <TORSDO>
F 5

$$$$
=
 OpenBabel11052422483D

 28 31  0  0  1  0  0  0  0  0999 V2000
  161.5900  203.5560  148.6550 C   0  0  2  0  0  3  0  0  0  0  0  0
  160.5050  202.9050  150.6380 C   0  0  2  0  0  3  0  0  0  0  0  0
  160.0000  202.1720  149.4590 C   0  0  0  0  0  0  0  0  0  0  0  0
  159.1040  201.2900  149.4840 O   0  0  0  0  0  0  0  0  0  0  0  0
  160.6020  202.6060  148.3110 O   0  0  0  0  0  0  0  0  0  0  0  0
  161.3710  203.9520  150.0750 N   0  0  0  0  0  0  0  0  0  0  0  0
  162.6220  202.6770  151.9360 C   0  0  0  0  0  1  0  0  0  0  0  0
  161.3310  201.9920  151.5310 C   0  0  0  0  0  2  0  0  0  0  0  0
  161.6510  204.6950  147.6330 C   0  0  0  0  0  2  0  0  0  0  0  0
  162.1380  204.1960  146.2790 C   0  0  2  0  0  3  0  0  0  0  0  0
  160.4450  204.0560  144.6130 C   0  0  0  0  0  0  0  0  0  0  0  0
  162.4430  205.3880  145.3800 C   0  0  0  0  0  2  0  0  0  0  0  0
  160.8060  202.0570  145.9080 N   0  0  0  0  0  1  0  0  0  0  0  0
  161.0740  203.4190  145.5850 C   0  0  0  0  0  0  0  0  0  0  0  0
  159.4290  203.4120  143.7330 C   0  0  0  0  0  1  0  0  0  0  0  0
  160.9740  205.7340  144.3530 S   0  0  0  0  0  0  0  0  0  0  0  0
  160.6300  205.2150  150.1860 C   0  0  0  0  0  2  0  0  0  0  0  0
  161.1350  205.7920  153.1100 C   0  0  0  0  0  3  0  0  0  0  0  0
  161.1000  208.1320  152.4750 C   0  0  0  0  0  0  0  0  0  0  0  0
  161.5220  206.3600  150.6840 C   0  0  2  0  0  3  0  0  0  0  0  0
  160.7380  207.4900  154.7840 C   0  0  0  0  0  0  0  0  0  0  0  0
  161.2100  206.7720  152.1110 C   0  0  0  0  0  0  0  0  0  0  0  0
  162.0800  208.7900  150.2860 C   0  0  0  0  0  2  0  0  0  0  0  0
  160.8460  208.4810  153.8050 C   0  0  0  0  0  3  0  0  0  0  0  0
  161.2040  209.2230  151.4520 C   0  0  0  0  0  2  0  0  0  0  0  0
  160.4230  207.9350  156.4470 Cl  0  0  0  0  0  0  0  0  0  0  0  0
  160.8930  206.1470  154.4380 C   0  0  0  0  0  3  0  0  0  0  0  0
  161.5050  207.5200  149.6800 C   0  0  0  0  0  2  0  0  0  0  0  0
  1  9  1  6  0  0  0
  1  6  1  0  0  0  0
  2  8  1  1  0  0  0
  3  4  2  0  0  0  0
  3  2  1  0  0  0  0
  5  1  1  0  0  0  0
  5  3  1  0  0  0  0
  6 17  1  0  0  0  0
  6  2  1  0  0  0  0
  8  7  1  0  0  0  0
 10  9  1  1  0  0  0
 11 14  2  0  0  0  0
 12 10  1  0  0  0  0
 14 13  1  0  0  0  0
 14 10  1  0  0  0  0
 15 11  1  0  0  0  0
 16 11  1  0  0  0  0
 16 12  1  0  0  0  0
 18 27  1  0  0  0  0
 19 24  2  0  0  0  0
 20 17  1  6  0  0  0
 20 22  1  0  0  0  0
 21 26  1  0  0  0  0
 22 19  1  0  0  0  0
 22 18  2  0  0  0  0
 23 25  1  0  0  0  0
 24 21  1  0  0  0  0
 25 19  1  0  0  0  0
 27 21  2  0  0  0  0
 28 23  1  0  0  0  0
 28 20  1  0  0  0  0
M  END
>  <MODEL>
8

>  <REMARK>
 VINA RESULT:      -6.3      4.486      7.053
  Name = 
  5 active torsions:
  status: ('A' for Active; 'I' for Inactive)
    1  A    between atoms: C_1  and  C_2
    2  A    between atoms: C_2  and  C_3
    3  A    between atoms: C_10  and  C_17
    4  A    between atoms: C_16  and  C_20
    5  A    between atoms: C_17  and  N_27
                            x       y       z     vdW  Elec       q    Type
                         _______ _______ _______ _____ _____    ______ ____

>  <TORSDO>
F 5

$$$$
=
 OpenBabel11052422483D

 28 31  0  0  1  0  0  0  0  0999 V2000
  161.6490  210.4010  152.6330 C   0  0  2  0  0  3  0  0  0  0  0  0
  161.4110  210.5760  150.3000 C   0  0  2  0  0  3  0  0  0  0  0  0
  160.7460  211.6850  151.0130 C   0  0  0  0  0  0  0  0  0  0  0  0
  160.1280  212.6320  150.4630 O   0  0  0  0  0  0  0  0  0  0  0  0
  160.8460  211.5330  152.3680 O   0  0  0  0  0  0  0  0  0  0  0  0
  161.7980  209.6360  151.3620 N   0  0  0  0  0  0  0  0  0  0  0  0
  162.3420  211.3760  148.1290 C   0  0  0  0  0  1  0  0  0  0  0  0
  162.6590  211.0660  149.5800 C   0  0  0  0  0  2  0  0  0  0  0  0
  161.1280  209.6170  153.8410 C   0  0  0  0  0  2  0  0  0  0  0  0
  161.4690  210.3250  155.1460 C   0  0  2  0  0  3  0  0  0  0  0  0
  159.6130  210.6700  156.5940 C   0  0  0  0  0  0  0  0  0  0  0  0
  161.6920  209.2880  156.2410 C   0  0  0  0  0  2  0  0  0  0  0  0
  160.0870  212.4620  155.0540 N   0  0  0  0  0  1  0  0  0  0  0  0
  160.3320  211.1700  155.6050 C   0  0  0  0  0  0  0  0  0  0  0  0
  158.5060  211.4120  157.2600 C   0  0  0  0  0  1  0  0  0  0  0  0
  160.1280  209.0630  157.1570 S   0  0  0  0  0  0  0  0  0  0  0  0
  160.8610  208.5080  151.2860 C   0  0  0  0  0  2  0  0  0  0  0  0
  161.7710  207.2520  148.6910 C   0  0  0  0  0  3  0  0  0  0  0  0
  161.1720  205.1330  149.7080 C   0  0  0  0  0  0  0  0  0  0  0  0
  161.5930  207.1610  151.2050 C   0  0  2  0  0  3  0  0  0  0  0  0
  161.3670  205.3170  147.3000 C   0  0  0  0  0  0  0  0  0  0  0  0
  161.4730  206.5070  149.8400 C   0  0  0  0  0  0  0  0  0  0  0  0
  161.5920  204.8160  152.1400 C   0  0  0  0  0  2  0  0  0  0  0  0
  161.1030  204.5520  148.4390 C   0  0  0  0  0  3  0  0  0  0  0  0
  160.8770  204.2830  150.9070 C   0  0  0  0  0  2  0  0  0  0  0  0
  161.2810  204.5810  145.7140 Cl  0  0  0  0  0  0  0  0  0  0  0  0
  161.7110  206.6640  147.4270 C   0  0  0  0  0  3  0  0  0  0  0  0
  161.1710  206.2580  152.3710 C   0  0  0  0  0  2  0  0  0  0  0  0
  1  9  1  1  0  0  0
  2  8  1  1  0  0  0
  2  3  1  0  0  0  0
  2  6  1  0  0  0  0
  3  5  1  0  0  0  0
  4  3  2  0  0  0  0
  5  1  1  0  0  0  0
  6  1  1  0  0  0  0
  7  8  1  0  0  0  0
 10  9  1  6  0  0  0
 10 14  1  0  0  0  0
 10 12  1  0  0  0  0
 11 16  1  0  0  0  0
 11 15  1  0  0  0  0
 12 16  1  0  0  0  0
 13 14  1  0  0  0  0
 14 11  2  0  0  0  0
 17  6  1  0  0  0  0
 18 22  1  0  0  0  0
 19 22  2  0  0  0  0
 19 25  1  0  0  0  0
 20 17  1  6  0  0  0
 20 28  1  0  0  0  0
 21 27  1  0  0  0  0
 21 24  2  0  0  0  0
 22 20  1  0  0  0  0
 23 28  1  0  0  0  0
 24 19  1  0  0  0  0
 25 23  1  0  0  0  0
 26 21  1  0  0  0  0
 27 18  2  0  0  0  0
M  END
>  <MODEL>
9

>  <REMARK>
 VINA RESULT:      -6.2      3.282      5.819
  Name = 
  5 active torsions:
  status: ('A' for Active; 'I' for Inactive)
    1  A    between atoms: C_1  and  C_2
    2  A    between atoms: C_2  and  C_3
    3  A    between atoms: C_10  and  C_17
    4  A    between atoms: C_16  and  C_20
    5  A    between atoms: C_17  and  N_27
                            x       y       z     vdW  Elec       q    Type
                         _______ _______ _______ _____ _____    ______ ____

>  <TORSDO>
F 5

$$$$
