=
 OpenBabel11052421503D

 30 31  0  0  1  0  0  0  0  0999 V2000
  161.3490  205.0990  150.8750 C   0  0  2  0  0  3  0  0  0  0  0  0
  161.8100  202.3290  151.8660 C   0  0  0  0  0  1  0  0  0  0  0  0
  160.6370  203.1550  152.2860 C   0  0  0  0  0  3  0  0  0  0  0  0
  160.4320  204.4010  151.8450 C   0  0  0  0  0  3  0  0  0  0  0  0
  163.1000  206.5370  151.9410 C   0  0  0  0  0  1  0  0  0  0  0  0
  161.7120  206.5440  151.3080 C   0  0  2  0  0  3  0  0  0  0  0  0
  160.9460  206.7810  153.7420 C   0  0  0  0  0  2  0  0  0  0  0  0
  161.4830  208.3930  155.9290 S   0  0  0  0  0  0  0  0  0  0  0  0
  161.1270  207.9260  154.3610 C   0  0  0  0  0  0  0  0  0  0  0  0
  160.6780  207.1490  152.2870 C   0  0  1  0  0  3  0  0  0  0  0  0
  161.4970  210.0320  155.4410 C   0  0  0  0  0  0  0  0  0  0  0  0
  161.2390  210.2020  154.1170 N   0  0  0  0  0  0  0  0  0  0  0  0
  160.7830  208.6670  152.3090 C   0  0  0  0  0  2  0  0  0  0  0  0
  161.0380  208.9880  153.5570 C   0  0  0  0  0  0  0  0  0  0  0  0
  161.7710  211.1660  156.3620 C   0  0  0  0  0  1  0  0  0  0  0  0
  160.7470  204.9930  149.4600 C   0  0  1  0  0  3  0  0  0  0  0  0
  160.8860  206.1150  147.2590 C   0  0  0  0  0  0  0  0  0  0  0  0
  160.7630  206.0840  145.9610 C   0  0  0  0  0  3  0  0  0  0  0  0
  160.9930  206.1740  148.5610 C   0  0  0  0  0  3  0  0  0  0  0  0
  161.5000  205.0890  145.1240 C   0  0  1  0  0  3  0  0  0  0  0  0
  162.7700  204.6750  145.8410 C   0  0  0  0  0  1  0  0  0  0  0  0
  160.6720  203.8770  144.8350 C   0  0  0  0  0  0  0  0  0  0  0  0
  159.6030  204.0090  144.1840 O   0  0  0  0  0  0  0  0  0  0  0  0
  161.1100  202.6110  145.2410 O   0  0  0  0  0  0  0  0  0  0  0  0
  159.8980  201.1050  143.9930 F   0  0  0  0  0  0  0  0  0  0  0  0
  160.2580  201.4700  145.2780 C   0  0  0  0  0  0  0  0  0  0  0  0
  160.9300  200.4210  145.8740 F   0  0  0  0  0  0  0  0  0  0  0  0
  159.1210  201.7540  146.0140 F   0  0  0  0  0  0  0  0  0  0  0  0
  160.9860  203.6960  148.8090 C   0  0  0  0  0  0  0  0  0  0  0  0
  161.1820  202.6310  148.2790 C   0  0  0  0  0  3  0  0  0  0  0  0
  1  6  1  0  0  0  0
  1  4  1  1  0  0  0
  2  3  1  0  0  0  0
  4  3  2  0  0  0  0
  6  5  1  1  0  0  0
  7  9  1  0  0  0  0
  9  8  1  0  0  0  0
 10  6  1  6  0  0  0
 10 13  1  0  0  0  0
 10  7  1  0  0  0  0
 11  8  1  0  0  0  0
 11 15  1  0  0  0  0
 12 11  2  0  0  0  0
 13 14  1  0  0  0  0
 14 12  1  0  0  0  0
 14  9  2  0  0  0  0
 16 19  1  6  0  0  0
 16  1  1  0  0  0  0
 17 19  2  0  0  0  0
 18 17  2  0  0  0  0
 20 21  1  1  0  0  0
 20 18  1  0  0  0  0
 22 20  1  0  0  0  0
 22 24  1  0  0  0  0
 23 22  2  0  0  0  0
 24 26  1  0  0  0  0
 25 26  1  0  0  0  0
 26 27  1  0  0  0  0
 26 28  1  0  0  0  0
 29 16  1  0  0  0  0
 30 29  3  0  0  0  0
M  END
>  <MODEL>
1

>  <REMARK>
 VINA RESULT:      -8.0      0.000      0.000
  Name = 
  10 active torsions:
  status: ('A' for Active; 'I' for Inactive)
    1  A    between atoms: C_2  and  C_22
    2  A    between atoms: C_4  and  C_27
    3  A    between atoms: C_5  and  C_22
    4  A    between atoms: C_8  and  O_12
    5  A    between atoms: C_8  and  C_27
    6  A    between atoms: C_9  and  O_12
    7  A    between atoms: C_11  and  C_29
    8  A    between atoms: C_19  and  C_22
    9  A    between atoms: C_19  and  C_28
   10  A    between atoms: C_19  and  C_29
                            x       y       z     vdW  Elec       q    Type
                         _______ _______ _______ _____ _____    ______ ____

>  <TORSDO>
F 10

$$$$
=
 OpenBabel11052421503D

 30 31  0  0  1  0  0  0  0  0999 V2000
  161.6170  206.2360  149.0800 C   0  0  2  0  0  3  0  0  0  0  0  0
  161.5850  204.2660  151.3130 C   0  0  0  0  0  1  0  0  0  0  0  0
  160.4200  204.4750  150.4020 C   0  0  0  0  0  3  0  0  0  0  0  0
  160.4320  205.3640  149.4020 C   0  0  0  0  0  3  0  0  0  0  0  0
  161.9020  208.6380  148.4340 C   0  0  0  0  0  1  0  0  0  0  0  0
  161.4410  207.7040  149.5490 C   0  0  2  0  0  3  0  0  0  0  0  0
  162.1950  209.4860  151.2280 C   0  0  0  0  0  2  0  0  0  0  0  0
  161.1970  210.7600  153.4750 S   0  0  0  0  0  0  0  0  0  0  0  0
  161.6140  209.5420  152.4050 C   0  0  0  0  0  0  0  0  0  0  0  0
  162.2090  208.0080  150.8570 C   0  0  1  0  0  3  0  0  0  0  0  0
  160.5100  209.6030  154.5300 C   0  0  0  0  0  0  0  0  0  0  0  0
  160.6010  208.3280  154.0650 N   0  0  0  0  0  0  0  0  0  0  0  0
  161.5160  207.3640  152.0480 C   0  0  0  0  0  2  0  0  0  0  0  0
  161.2300  208.3500  152.8680 C   0  0  0  0  0  0  0  0  0  0  0  0
  159.8660  209.9440  155.8260 C   0  0  0  0  0  1  0  0  0  0  0  0
  161.9540  206.0830  147.5840 C   0  0  1  0  0  3  0  0  0  0  0  0
  162.3500  203.8910  146.5070 C   0  0  0  0  0  0  0  0  0  0  0  0
  161.9350  202.8970  145.7710 C   0  0  0  0  0  3  0  0  0  0  0  0
  162.7950  204.8880  147.2280 C   0  0  0  0  0  3  0  0  0  0  0  0
  160.7000  202.1280  146.1140 C   0  0  1  0  0  3  0  0  0  0  0  0
  159.7640  202.1270  144.9210 C   0  0  0  0  0  1  0  0  0  0  0  0
  161.0100  200.7170  146.5060 C   0  0  0  0  0  0  0  0  0  0  0  0
  160.9730  199.8170  145.6260 O   0  0  0  0  0  0  0  0  0  0  0  0
  161.3840  200.4170  147.8200 O   0  0  0  0  0  0  0  0  0  0  0  0
  159.6370  201.5410  148.8080 F   0  0  0  0  0  0  0  0  0  0  0  0
  160.9680  201.1900  148.9420 C   0  0  0  0  0  0  0  0  0  0  0  0
  161.1230  200.4410  150.0920 F   0  0  0  0  0  0  0  0  0  0  0  0
  161.7410  202.3330  149.0400 F   0  0  0  0  0  0  0  0  0  0  0  0
  160.8000  206.2790  146.6930 C   0  0  0  0  0  0  0  0  0  0  0  0
  159.8530  206.4380  145.9640 C   0  0  0  0  0  3  0  0  0  0  0  0
  1  4  1  6  0  0  0
  1  6  1  0  0  0  0
  3  2  1  0  0  0  0
  4  3  2  0  0  0  0
  6  5  1  6  0  0  0
  7  9  1  0  0  0  0
  8 11  1  0  0  0  0
  9 14  2  0  0  0  0
  9  8  1  0  0  0  0
 10  6  1  6  0  0  0
 10  7  1  0  0  0  0
 10 13  1  0  0  0  0
 11 15  1  0  0  0  0
 12 11  2  0  0  0  0
 13 14  1  0  0  0  0
 14 12  1  0  0  0  0
 16 29  1  6  0  0  0
 16  1  1  0  0  0  0
 17 19  2  0  0  0  0
 18 20  1  0  0  0  0
 18 17  2  0  0  0  0
 19 16  1  0  0  0  0
 20 21  1  6  0  0  0
 20 22  1  0  0  0  0
 22 24  1  0  0  0  0
 23 22  2  0  0  0  0
 24 26  1  0  0  0  0
 25 26  1  0  0  0  0
 26 28  1  0  0  0  0
 26 27  1  0  0  0  0
 30 29  3  0  0  0  0
M  END
>  <MODEL>
2

>  <REMARK>
 VINA RESULT:      -7.8      2.123      3.194
  Name = 
  10 active torsions:
  status: ('A' for Active; 'I' for Inactive)
    1  A    between atoms: C_2  and  C_22
    2  A    between atoms: C_4  and  C_27
    3  A    between atoms: C_5  and  C_22
    4  A    between atoms: C_8  and  O_12
    5  A    between atoms: C_8  and  C_27
    6  A    between atoms: C_9  and  O_12
    7  A    between atoms: C_11  and  C_29
    8  A    between atoms: C_19  and  C_22
    9  A    between atoms: C_19  and  C_28
   10  A    between atoms: C_19  and  C_29
                            x       y       z     vdW  Elec       q    Type
                         _______ _______ _______ _____ _____    ______ ____

>  <TORSDO>
F 10

$$$$
=
 OpenBabel11052421503D

 30 31  0  0  1  0  0  0  0  0999 V2000
  161.6710  204.6140  150.8150 C   0  0  2  0  0  3  0  0  0  0  0  0
  161.9930  201.8750  151.9370 C   0  0  0  0  0  1  0  0  0  0  0  0
  160.7770  202.7100  152.1760 C   0  0  0  0  0  3  0  0  0  0  0  0
  160.6330  203.9420  151.6760 C   0  0  0  0  0  3  0  0  0  0  0  0
  163.2690  206.2070  151.9000 C   0  0  0  0  0  1  0  0  0  0  0  0
  161.9180  206.0960  151.2000 C   0  0  2  0  0  3  0  0  0  0  0  0
  161.0710  206.4890  153.5860 C   0  0  0  0  0  2  0  0  0  0  0  0
  161.3660  208.3650  155.6000 S   0  0  0  0  0  0  0  0  0  0  0  0
  161.1050  207.7030  154.0850 C   0  0  0  0  0  0  0  0  0  0  0  0
  160.7990  206.6740  152.0970 C   0  0  1  0  0  3  0  0  0  0  0  0
  161.2050  209.9360  154.9450 C   0  0  0  0  0  0  0  0  0  0  0  0
  160.9620  209.9410  153.6080 N   0  0  0  0  0  0  0  0  0  0  0  0
  160.7290  208.1870  151.9630 C   0  0  0  0  0  2  0  0  0  0  0  0
  160.9150  208.6600  153.1740 C   0  0  0  0  0  0  0  0  0  0  0  0
  161.3240  211.1830  155.7470 C   0  0  0  0  0  1  0  0  0  0  0  0
  161.3020  204.3960  149.3340 C   0  0  1  0  0  3  0  0  0  0  0  0
  160.6930  202.3660  148.0570 C   0  0  0  0  0  0  0  0  0  0  0  0
  160.9250  201.5240  147.0870 C   0  0  0  0  0  3  0  0  0  0  0  0
  160.4570  203.1850  149.0490 C   0  0  0  0  0  3  0  0  0  0  0  0
  161.0440  201.9740  145.6670 C   0  0  1  0  0  3  0  0  0  0  0  0
  159.6920  201.8600  144.9910 C   0  0  0  0  0  1  0  0  0  0  0  0
  161.5360  203.3830  145.5660 C   0  0  0  0  0  0  0  0  0  0  0  0
  162.7550  203.6200  145.7720 O   0  0  0  0  0  0  0  0  0  0  0  0
  160.6600  204.4110  145.1960 O   0  0  0  0  0  0  0  0  0  0  0  0
  162.2330  206.0800  145.3760 F   0  0  0  0  0  0  0  0  0  0  0  0
  161.1060  205.6660  144.6900 C   0  0  0  0  0  0  0  0  0  0  0  0
  161.4170  205.5300  143.3510 F   0  0  0  0  0  0  0  0  0  0  0  0
  160.1060  206.6120  144.8270 F   0  0  0  0  0  0  0  0  0  0  0  0
  160.8370  205.6140  148.6520 C   0  0  0  0  0  0  0  0  0  0  0  0
  160.4590  206.6130  148.0950 C   0  0  0  0  0  3  0  0  0  0  0  0
  1  6  1  0  0  0  0
  1  4  1  1  0  0  0
  2  3  1  0  0  0  0
  4  3  2  0  0  0  0
  6  5  1  1  0  0  0
  7  9  1  0  0  0  0
  9  8  1  0  0  0  0
 10  6  1  6  0  0  0
 10  7  1  0  0  0  0
 11  8  1  0  0  0  0
 11 15  1  0  0  0  0
 12 11  2  0  0  0  0
 13 10  1  0  0  0  0
 13 14  1  0  0  0  0
 14 12  1  0  0  0  0
 14  9  2  0  0  0  0
 16 29  1  1  0  0  0
 16  1  1  0  0  0  0
 17 19  2  0  0  0  0
 18 17  2  0  0  0  0
 19 16  1  0  0  0  0
 20 21  1  1  0  0  0
 20 18  1  0  0  0  0
 22 20  1  0  0  0  0
 22 23  2  0  0  0  0
 24 22  1  0  0  0  0
 26 28  1  0  0  0  0
 26 24  1  0  0  0  0
 26 25  1  0  0  0  0
 27 26  1  0  0  0  0
 30 29  3  0  0  0  0
M  END
>  <MODEL>
3

>  <REMARK>
 VINA RESULT:      -7.6      1.843      2.748
  Name = 
  10 active torsions:
  status: ('A' for Active; 'I' for Inactive)
    1  A    between atoms: C_2  and  C_22
    2  A    between atoms: C_4  and  C_27
    3  A    between atoms: C_5  and  C_22
    4  A    between atoms: C_8  and  O_12
    5  A    between atoms: C_8  and  C_27
    6  A    between atoms: C_9  and  O_12
    7  A    between atoms: C_11  and  C_29
    8  A    between atoms: C_19  and  C_22
    9  A    between atoms: C_19  and  C_28
   10  A    between atoms: C_19  and  C_29
                            x       y       z     vdW  Elec       q    Type
                         _______ _______ _______ _____ _____    ______ ____

>  <TORSDO>
F 10

$$$$
=
 OpenBabel11052421503D

 30 31  0  0  1  0  0  0  0  0999 V2000
  161.4040  207.2440  151.9800 C   0  0  2  0  0  3  0  0  0  0  0  0
  160.5100  204.4150  151.7280 C   0  0  0  0  0  1  0  0  0  0  0  0
  161.7160  204.8160  152.5130 C   0  0  0  0  0  3  0  0  0  0  0  0
  162.1210  206.0860  152.6230 C   0  0  0  0  0  3  0  0  0  0  0  0
  162.5060  209.2880  151.0440 C   0  0  0  0  0  1  0  0  0  0  0  0
  162.1600  207.8300  150.7590 C   0  0  2  0  0  3  0  0  0  0  0  0
  162.2300  207.6950  148.2010 C   0  0  0  0  0  2  0  0  0  0  0  0
  162.5150  205.7590  146.2420 S   0  0  0  0  0  0  0  0  0  0  0  0
  161.9700  206.5480  147.6140 C   0  0  0  0  0  0  0  0  0  0  0  0
  161.3500  207.7160  149.4460 C   0  0  1  0  0  3  0  0  0  0  0  0
  161.5020  204.4290  146.6020 C   0  0  0  0  0  0  0  0  0  0  0  0
  160.7760  204.5950  147.7400 N   0  0  0  0  0  0  0  0  0  0  0  0
  160.6390  206.3740  149.3680 C   0  0  0  0  0  2  0  0  0  0  0  0
  161.0770  205.8030  148.2690 C   0  0  0  0  0  0  0  0  0  0  0  0
  161.4180  203.2030  145.7650 C   0  0  0  0  0  1  0  0  0  0  0  0
  161.0570  208.2790  153.0690 C   0  0  1  0  0  3  0  0  0  0  0  0
  160.0090  210.5030  153.3370 C   0  0  0  0  0  0  0  0  0  0  0  0
  159.8310  211.5980  154.0240 C   0  0  0  0  0  3  0  0  0  0  0  0
  160.1910  209.4240  152.6220 C   0  0  0  0  0  3  0  0  0  0  0  0
  159.3420  211.5700  155.4360 C   0  0  1  0  0  3  0  0  0  0  0  0
  158.0740  210.7420  155.5100 C   0  0  0  0  0  1  0  0  0  0  0  0
  160.3630  211.0030  156.3710 C   0  0  0  0  0  0  0  0  0  0  0  0
  160.0290  210.0710  157.1480 O   0  0  0  0  0  0  0  0  0  0  0  0
  161.6820  211.4710  156.3420 O   0  0  0  0  0  0  0  0  0  0  0  0
  163.9460  211.1300  156.5660 F   0  0  0  0  0  0  0  0  0  0  0  0
  162.7890  210.6500  155.9800 C   0  0  0  0  0  0  0  0  0  0  0  0
  162.5610  209.3610  156.4210 F   0  0  0  0  0  0  0  0  0  0  0  0
  162.9370  210.6370  154.6040 F   0  0  0  0  0  0  0  0  0  0  0  0
  160.6330  207.6800  154.3430 C   0  0  0  0  0  0  0  0  0  0  0  0
  160.2870  207.1870  155.3870 C   0  0  0  0  0  3  0  0  0  0  0  0
  1  4  1  1  0  0  0
  1 16  1  0  0  0  0
  2  3  1  0  0  0  0
  3  4  2  0  0  0  0
  6  5  1  1  0  0  0
  6  1  1  0  0  0  0
  7 10  1  0  0  0  0
  8 11  1  0  0  0  0
  8  9  1  0  0  0  0
  9  7  1  0  0  0  0
  9 14  2  0  0  0  0
 10  6  1  1  0  0  0
 11 12  2  0  0  0  0
 12 14  1  0  0  0  0
 13 10  1  0  0  0  0
 14 13  1  0  0  0  0
 15 11  1  0  0  0  0
 16 19  1  6  0  0  0
 16 29  1  0  0  0  0
 17 18  2  0  0  0  0
 18 20  1  0  0  0  0
 19 17  2  0  0  0  0
 20 21  1  6  0  0  0
 20 22  1  0  0  0  0
 22 23  2  0  0  0  0
 24 22  1  0  0  0  0
 26 24  1  0  0  0  0
 26 27  1  0  0  0  0
 26 25  1  0  0  0  0
 28 26  1  0  0  0  0
 29 30  3  0  0  0  0
M  END
>  <MODEL>
4

>  <REMARK>
 VINA RESULT:      -7.6      6.340      9.480
  Name = 
  10 active torsions:
  status: ('A' for Active; 'I' for Inactive)
    1  A    between atoms: C_2  and  C_22
    2  A    between atoms: C_4  and  C_27
    3  A    between atoms: C_5  and  C_22
    4  A    between atoms: C_8  and  O_12
    5  A    between atoms: C_8  and  C_27
    6  A    between atoms: C_9  and  O_12
    7  A    between atoms: C_11  and  C_29
    8  A    between atoms: C_19  and  C_22
    9  A    between atoms: C_19  and  C_28
   10  A    between atoms: C_19  and  C_29
                            x       y       z     vdW  Elec       q    Type
                         _______ _______ _______ _____ _____    ______ ____

>  <TORSDO>
F 10

$$$$
=
 OpenBabel11052421503D

 30 31  0  0  1  0  0  0  0  0999 V2000
  161.7410  207.8970  151.3340 C   0  0  2  0  0  3  0  0  0  0  0  0
  162.8280  205.4190  152.5750 C   0  0  0  0  0  1  0  0  0  0  0  0
  161.3760  205.7680  152.6040 C   0  0  0  0  0  3  0  0  0  0  0  0
  160.8870  206.8840  152.0510 C   0  0  0  0  0  3  0  0  0  0  0  0
  162.6740  210.1030  152.0620 C   0  0  0  0  0  1  0  0  0  0  0  0
  161.3900  209.3630  151.7010 C   0  0  2  0  0  3  0  0  0  0  0  0
  161.0310  209.5680  154.2300 C   0  0  0  0  0  2  0  0  0  0  0  0
  160.8750  211.5680  156.1390 S   0  0  0  0  0  0  0  0  0  0  0  0
  160.6110  210.7100  154.7260 C   0  0  0  0  0  0  0  0  0  0  0  0
  160.3700  209.4580  152.8610 C   0  0  1  0  0  3  0  0  0  0  0  0
  159.8580  212.8200  155.5720 C   0  0  0  0  0  0  0  0  0  0  0  0
  159.3400  212.5780  154.3380 N   0  0  0  0  0  0  0  0  0  0  0  0
  159.5770  210.7530  152.7740 C   0  0  0  0  0  2  0  0  0  0  0  0
  159.7950  211.3790  153.9080 C   0  0  0  0  0  0  0  0  0  0  0  0
  159.5650  214.0600  156.3400 C   0  0  0  0  0  1  0  0  0  0  0  0
  161.7030  207.5960  149.8220 C   0  0  1  0  0  3  0  0  0  0  0  0
  160.6520  205.4710  149.1160 C   0  0  0  0  0  0  0  0  0  0  0  0
  160.7280  204.1880  148.8900 C   0  0  0  0  0  3  0  0  0  0  0  0
  160.5480  206.7510  149.3580 C   0  0  0  0  0  3  0  0  0  0  0  0
  161.7350  203.6140  147.9460 C   0  0  1  0  0  3  0  0  0  0  0  0
  161.2540  202.2590  147.4630 C   0  0  0  0  0  1  0  0  0  0  0  0
  161.9720  204.5070  146.7690 C   0  0  0  0  0  0  0  0  0  0  0  0
  163.0690  205.1170  146.6780 O   0  0  0  0  0  0  0  0  0  0  0  0
  161.0060  204.6190  145.7630 O   0  0  0  0  0  0  0  0  0  0  0  0
  160.8930  206.8830  146.1530 F   0  0  0  0  0  0  0  0  0  0  0  0
  160.5240  205.8720  145.2850 C   0  0  0  0  0  0  0  0  0  0  0  0
  161.0690  206.1220  144.0410 F   0  0  0  0  0  0  0  0  0  0  0  0
  159.1450  205.8360  145.1750 F   0  0  0  0  0  0  0  0  0  0  0  0
  161.9500  208.7730  148.9760 C   0  0  0  0  0  0  0  0  0  0  0  0
  162.1550  209.7360  148.2810 C   0  0  0  0  0  3  0  0  0  0  0  0
  1  6  1  0  0  0  0
  1  4  1  1  0  0  0
  2  3  1  0  0  0  0
  4  3  2  0  0  0  0
  6  5  1  1  0  0  0
  7  9  1  0  0  0  0
  9  8  1  0  0  0  0
 10  6  1  6  0  0  0
 10  7  1  0  0  0  0
 11  8  1  0  0  0  0
 11 15  1  0  0  0  0
 12 11  2  0  0  0  0
 13 10  1  0  0  0  0
 13 14  1  0  0  0  0
 14 12  1  0  0  0  0
 14  9  2  0  0  0  0
 16 29  1  6  0  0  0
 16  1  1  0  0  0  0
 17 19  2  0  0  0  0
 18 17  2  0  0  0  0
 19 16  1  0  0  0  0
 20 21  1  6  0  0  0
 20 18  1  0  0  0  0
 22 20  1  0  0  0  0
 23 22  2  0  0  0  0
 24 22  1  0  0  0  0
 26 24  1  0  0  0  0
 26 25  1  0  0  0  0
 27 26  1  0  0  0  0
 28 26  1  0  0  0  0
 30 29  3  0  0  0  0
M  END
>  <MODEL>
5

>  <REMARK>
 VINA RESULT:      -7.5      2.522      3.645
  Name = 
  10 active torsions:
  status: ('A' for Active; 'I' for Inactive)
    1  A    between atoms: C_2  and  C_22
    2  A    between atoms: C_4  and  C_27
    3  A    between atoms: C_5  and  C_22
    4  A    between atoms: C_8  and  O_12
    5  A    between atoms: C_8  and  C_27
    6  A    between atoms: C_9  and  O_12
    7  A    between atoms: C_11  and  C_29
    8  A    between atoms: C_19  and  C_22
    9  A    between atoms: C_19  and  C_28
   10  A    between atoms: C_19  and  C_29
                            x       y       z     vdW  Elec       q    Type
                         _______ _______ _______ _____ _____    ______ ____

>  <TORSDO>
F 10

$$$$
=
 OpenBabel11052421503D

 30 31  0  0  1  0  0  0  0  0999 V2000
  161.0970  204.4120  150.3620 C   0  0  2  0  0  3  0  0  0  0  0  0
  162.6430  202.2780  151.7480 C   0  0  0  0  0  1  0  0  0  0  0  0
  161.2330  202.6190  152.1070 C   0  0  0  0  0  3  0  0  0  0  0  0
  160.5390  203.5800  151.4880 C   0  0  0  0  0  3  0  0  0  0  0  0
  160.4490  206.4050  148.9920 C   0  0  0  0  0  1  0  0  0  0  0  0
  160.6460  205.8950  150.4160 C   0  0  2  0  0  3  0  0  0  0  0  0
  161.5200  208.2710  150.8170 C   0  0  0  0  0  2  0  0  0  0  0  0
  160.9120  210.4540  152.4070 S   0  0  0  0  0  0  0  0  0  0  0  0
  161.2300  208.8760  151.9460 C   0  0  0  0  0  0  0  0  0  0  0  0
  161.6500  206.7950  151.1760 C   0  0  1  0  0  3  0  0  0  0  0  0
  160.6570  209.9350  154.0170 C   0  0  0  0  0  0  0  0  0  0  0  0
  160.8120  208.5940  154.1820 N   0  0  0  0  0  0  0  0  0  0  0  0
  161.3520  206.7920  152.6670 C   0  0  0  0  0  2  0  0  0  0  0  0
  161.1330  208.0470  152.9880 C   0  0  0  0  0  0  0  0  0  0  0  0
  160.2950  210.8490  155.1330 C   0  0  0  0  0  1  0  0  0  0  0  0
  160.7930  203.7050  149.0260 C   0  0  1  0  0  3  0  0  0  0  0  0
  161.9410  204.4080  146.9510 C   0  0  0  0  0  0  0  0  0  0  0  0
  161.9890  205.1440  145.8750 C   0  0  0  0  0  3  0  0  0  0  0  0
  161.9240  203.6780  148.0350 C   0  0  0  0  0  3  0  0  0  0  0  0
  160.8900  205.1290  144.8620 C   0  0  1  0  0  3  0  0  0  0  0  0
  161.4180  205.6550  143.5420 C   0  0  0  0  0  1  0  0  0  0  0  0
  160.3300  203.7560  144.6640 C   0  0  0  0  0  0  0  0  0  0  0  0
  159.2480  203.6230  144.0350 O   0  0  0  0  0  0  0  0  0  0  0  0
  161.0280  202.6360  145.1300 O   0  0  0  0  0  0  0  0  0  0  0  0
  161.1690  200.7420  146.4300 F   0  0  0  0  0  0  0  0  0  0  0  0
  160.3840  201.4260  145.5180 C   0  0  0  0  0  0  0  0  0  0  0  0
  159.1700  201.7270  146.1040 F   0  0  0  0  0  0  0  0  0  0  0  0
  160.1650  200.6310  144.4070 F   0  0  0  0  0  0  0  0  0  0  0  0
  160.1140  202.4090  149.1810 C   0  0  0  0  0  0  0  0  0  0  0  0
  159.5560  201.3490  149.3110 C   0  0  0  0  0  3  0  0  0  0  0  0
  1  6  1  0  0  0  0
  1  4  1  1  0  0  0
  2  3  1  0  0  0  0
  4  3  2  0  0  0  0
  6  5  1  6  0  0  0
  7 10  1  0  0  0  0
  7  9  1  0  0  0  0
  8 11  1  0  0  0  0
  9  8  1  0  0  0  0
  9 14  2  0  0  0  0
 10  6  1  6  0  0  0
 10 13  1  0  0  0  0
 11 12  2  0  0  0  0
 11 15  1  0  0  0  0
 13 14  1  0  0  0  0
 14 12  1  0  0  0  0
 16 19  1  1  0  0  0
 16 29  1  0  0  0  0
 16  1  1  0  0  0  0
 17 19  2  0  0  0  0
 18 17  2  0  0  0  0
 20 21  1  6  0  0  0
 20 18  1  0  0  0  0
 22 20  1  0  0  0  0
 22 24  1  0  0  0  0
 23 22  2  0  0  0  0
 24 26  1  0  0  0  0
 26 27  1  0  0  0  0
 26 25  1  0  0  0  0
 28 26  1  0  0  0  0
 29 30  3  0  0  0  0
M  END
>  <MODEL>
6

>  <REMARK>
 VINA RESULT:      -7.2      1.284      2.024
  Name = 
  10 active torsions:
  status: ('A' for Active; 'I' for Inactive)
    1  A    between atoms: C_2  and  C_22
    2  A    between atoms: C_4  and  C_27
    3  A    between atoms: C_5  and  C_22
    4  A    between atoms: C_8  and  O_12
    5  A    between atoms: C_8  and  C_27
    6  A    between atoms: C_9  and  O_12
    7  A    between atoms: C_11  and  C_29
    8  A    between atoms: C_19  and  C_22
    9  A    between atoms: C_19  and  C_28
   10  A    between atoms: C_19  and  C_29
                            x       y       z     vdW  Elec       q    Type
                         _______ _______ _______ _____ _____    ______ ____

>  <TORSDO>
F 10

$$$$
=
 OpenBabel11052421503D

 30 31  0  0  1  0  0  0  0  0999 V2000
  161.1080  208.6760  154.3280 C   0  0  2  0  0  3  0  0  0  0  0  0
  161.5810  207.8110  157.1380 C   0  0  0  0  0  1  0  0  0  0  0  0
  160.2200  207.8530  156.5230 C   0  0  0  0  0  3  0  0  0  0  0  0
  160.0060  208.2450  155.2620 C   0  0  0  0  0  3  0  0  0  0  0  0
  162.0980  210.8320  155.1260 C   0  0  0  0  0  1  0  0  0  0  0  0
  161.1540  210.2090  154.1020 C   0  0  2  0  0  3  0  0  0  0  0  0
  159.8170  212.3830  154.3320 C   0  0  0  0  0  2  0  0  0  0  0  0
  158.8190  214.3770  152.6900 S   0  0  0  0  0  0  0  0  0  0  0  0
  159.1770  212.8540  153.2850 C   0  0  0  0  0  0  0  0  0  0  0  0
  159.7570  210.8670  154.1900 C   0  0  1  0  0  3  0  0  0  0  0  0
  158.0440  213.6700  151.3390 C   0  0  0  0  0  0  0  0  0  0  0  0
  158.0680  212.3110  151.3540 N   0  0  0  0  0  0  0  0  0  0  0  0
  158.9960  210.6890  152.8850 C   0  0  0  0  0  2  0  0  0  0  0  0
  158.7160  211.9030  152.4690 C   0  0  0  0  0  0  0  0  0  0  0  0
  157.4090  214.4530  150.2460 C   0  0  0  0  0  1  0  0  0  0  0  0
  161.0110  207.8460  153.0330 C   0  0  1  0  0  3  0  0  0  0  0  0
  161.6300  207.9420  150.6390 C   0  0  0  0  0  0  0  0  0  0  0  0
  161.4740  207.5320  149.4100 C   0  0  0  0  0  3  0  0  0  0  0  0
  161.7850  208.3830  151.8600 C   0  0  0  0  0  3  0  0  0  0  0  0
  161.6030  206.0900  149.0400 C   0  0  1  0  0  3  0  0  0  0  0  0
  160.6000  205.2770  149.8340 C   0  0  0  0  0  1  0  0  0  0  0  0
  161.3810  205.8660  147.5770 C   0  0  0  0  0  0  0  0  0  0  0  0
  161.3370  206.8600  146.8070 O   0  0  0  0  0  0  0  0  0  0  0  0
  161.2740  204.5650  147.0720 O   0  0  0  0  0  0  0  0  0  0  0  0
  163.0110  204.4620  145.5670 F   0  0  0  0  0  0  0  0  0  0  0  0
  161.6630  204.2120  145.7470 C   0  0  0  0  0  0  0  0  0  0  0  0
  161.4220  202.8680  145.5470 F   0  0  0  0  0  0  0  0  0  0  0  0
  160.9290  204.9440  144.8300 F   0  0  0  0  0  0  0  0  0  0  0  0
  161.1820  206.3990  153.2400 C   0  0  0  0  0  0  0  0  0  0  0  0
  161.3210  205.2140  153.4130 C   0  0  0  0  0  3  0  0  0  0  0  0
  1  4  1  1  0  0  0
  3  2  1  0  0  0  0
  4  3  2  0  0  0  0
  6  1  1  0  0  0  0
  6  5  1  1  0  0  0
  8  9  1  0  0  0  0
  9  7  1  0  0  0  0
 10  6  1  6  0  0  0
 10  7  1  0  0  0  0
 11 12  2  0  0  0  0
 11  8  1  0  0  0  0
 12 14  1  0  0  0  0
 13 10  1  0  0  0  0
 14 13  1  0  0  0  0
 14  9  2  0  0  0  0
 15 11  1  0  0  0  0
 16 19  1  6  0  0  0
 16 29  1  0  0  0  0
 16  1  1  0  0  0  0
 17 19  2  0  0  0  0
 18 17  2  0  0  0  0
 20 18  1  0  0  0  0
 20 21  1  1  0  0  0
 22 20  1  0  0  0  0
 23 22  2  0  0  0  0
 24 22  1  0  0  0  0
 25 26  1  0  0  0  0
 26 24  1  0  0  0  0
 27 26  1  0  0  0  0
 28 26  1  0  0  0  0
 29 30  3  0  0  0  0
M  END
>  <MODEL>
7

>  <REMARK>
 VINA RESULT:      -7.2      3.227      4.982
  Name = 
  10 active torsions:
  status: ('A' for Active; 'I' for Inactive)
    1  A    between atoms: C_2  and  C_22
    2  A    between atoms: C_4  and  C_27
    3  A    between atoms: C_5  and  C_22
    4  A    between atoms: C_8  and  O_12
    5  A    between atoms: C_8  and  C_27
    6  A    between atoms: C_9  and  O_12
    7  A    between atoms: C_11  and  C_29
    8  A    between atoms: C_19  and  C_22
    9  A    between atoms: C_19  and  C_28
   10  A    between atoms: C_19  and  C_29
                            x       y       z     vdW  Elec       q    Type
                         _______ _______ _______ _____ _____    ______ ____

>  <TORSDO>
F 10

$$$$
=
 OpenBabel11052421503D

 30 31  0  0  1  0  0  0  0  0999 V2000
  160.7590  208.7020  154.0330 C   0  0  2  0  0  3  0  0  0  0  0  0
  161.9860  208.4600  156.7350 C   0  0  0  0  0  1  0  0  0  0  0  0
  160.7500  207.7210  156.3380 C   0  0  0  0  0  3  0  0  0  0  0  0
  160.1950  207.8330  155.1260 C   0  0  0  0  0  3  0  0  0  0  0  0
  160.8540  211.0030  153.0490 C   0  0  0  0  0  1  0  0  0  0  0  0
  159.9900  210.0380  153.8550 C   0  0  2  0  0  3  0  0  0  0  0  0
  159.8120  212.1830  155.2450 C   0  0  0  0  0  2  0  0  0  0  0  0
  158.0160  214.2560  155.6240 S   0  0  0  0  0  0  0  0  0  0  0  0
  158.6280  212.7050  155.4670 C   0  0  0  0  0  0  0  0  0  0  0  0
  159.5870  210.6770  155.2050 C   0  0  1  0  0  3  0  0  0  0  0  0
  156.4420  213.6170  155.8260 C   0  0  0  0  0  0  0  0  0  0  0  0
  156.4000  212.2590  155.7700 N   0  0  0  0  0  0  0  0  0  0  0  0
  158.0860  210.5640  155.4250 C   0  0  0  0  0  2  0  0  0  0  0  0
  157.6540  211.7970  155.5670 C   0  0  0  0  0  0  0  0  0  0  0  0
  155.2310  214.4530  156.0360 C   0  0  0  0  0  1  0  0  0  0  0  0
  160.8800  207.8630  152.7450 C   0  0  1  0  0  3  0  0  0  0  0  0
  161.7370  208.0780  150.4340 C   0  0  0  0  0  0  0  0  0  0  0  0
  161.6740  207.7700  149.1680 C   0  0  0  0  0  3  0  0  0  0  0  0
  161.8040  208.4180  151.6950 C   0  0  0  0  0  3  0  0  0  0  0  0
  161.7330  206.3520  148.6990 C   0  0  1  0  0  3  0  0  0  0  0  0
  160.7810  205.5110  149.5280 C   0  0  0  0  0  1  0  0  0  0  0  0
  161.3780  206.2260  147.2510 C   0  0  0  0  0  0  0  0  0  0  0  0
  160.1920  206.4430  146.8920 O   0  0  0  0  0  0  0  0  0  0  0  0
  162.3660  205.9210  146.3080 O   0  0  0  0  0  0  0  0  0  0  0  0
  162.6210  204.1360  144.8790 F   0  0  0  0  0  0  0  0  0  0  0  0
  162.9070  204.6130  146.1450 C   0  0  0  0  0  0  0  0  0  0  0  0
  164.2770  204.6670  146.3080 F   0  0  0  0  0  0  0  0  0  0  0  0
  162.3720  203.7610  147.0940 F   0  0  0  0  0  0  0  0  0  0  0  0
  161.0610  206.4240  152.9890 C   0  0  0  0  0  0  0  0  0  0  0  0
  161.2090  205.2440  153.1860 C   0  0  0  0  0  3  0  0  0  0  0  0
  1  4  1  1  0  0  0
  3  2  1  0  0  0  0
  4  3  2  0  0  0  0
  6  5  1  1  0  0  0
  6  1  1  0  0  0  0
  7  9  1  0  0  0  0
  8 11  1  0  0  0  0
  9 14  2  0  0  0  0
  9  8  1  0  0  0  0
 10  6  1  6  0  0  0
 10  7  1  0  0  0  0
 10 13  1  0  0  0  0
 11 15  1  0  0  0  0
 12 11  2  0  0  0  0
 13 14  1  0  0  0  0
 14 12  1  0  0  0  0
 16 19  1  1  0  0  0
 16 29  1  0  0  0  0
 16  1  1  0  0  0  0
 17 19  2  0  0  0  0
 18 17  2  0  0  0  0
 20 18  1  0  0  0  0
 20 21  1  1  0  0  0
 22 20  1  0  0  0  0
 23 22  2  0  0  0  0
 24 22  1  0  0  0  0
 25 26  1  0  0  0  0
 26 27  1  0  0  0  0
 26 24  1  0  0  0  0
 26 28  1  0  0  0  0
 29 30  3  0  0  0  0
M  END
>  <MODEL>
8

>  <REMARK>
 VINA RESULT:      -7.2      3.354      5.039
  Name = 
  10 active torsions:
  status: ('A' for Active; 'I' for Inactive)
    1  A    between atoms: C_2  and  C_22
    2  A    between atoms: C_4  and  C_27
    3  A    between atoms: C_5  and  C_22
    4  A    between atoms: C_8  and  O_12
    5  A    between atoms: C_8  and  C_27
    6  A    between atoms: C_9  and  O_12
    7  A    between atoms: C_11  and  C_29
    8  A    between atoms: C_19  and  C_22
    9  A    between atoms: C_19  and  C_28
   10  A    between atoms: C_19  and  C_29
                            x       y       z     vdW  Elec       q    Type
                         _______ _______ _______ _____ _____    ______ ____

>  <TORSDO>
F 10

$$$$
=
 OpenBabel11052421503D

 30 31  0  0  1  0  0  0  0  0999 V2000
  161.5470  206.4980  149.8820 C   0  0  2  0  0  3  0  0  0  0  0  0
  161.3740  203.5280  149.7760 C   0  0  0  0  0  1  0  0  0  0  0  0
  160.1810  204.4010  149.9910 C   0  0  0  0  0  3  0  0  0  0  0  0
  160.2590  205.7350  150.0430 C   0  0  0  0  0  3  0  0  0  0  0  0
  162.8070  206.0840  152.0060 C   0  0  0  0  0  1  0  0  0  0  0  0
  162.0500  207.1370  151.2030 C   0  0  2  0  0  3  0  0  0  0  0  0
  160.8980  207.2380  153.4900 C   0  0  0  0  0  2  0  0  0  0  0  0
  161.1480  208.6340  155.8680 S   0  0  0  0  0  0  0  0  0  0  0  0
  161.0360  208.3160  154.2280 C   0  0  0  0  0  0  0  0  0  0  0  0
  160.9010  207.7360  152.0490 C   0  0  1  0  0  3  0  0  0  0  0  0
  161.3350  210.3010  155.5350 C   0  0  0  0  0  0  0  0  0  0  0  0
  161.3140  210.5910  154.2070 N   0  0  0  0  0  0  0  0  0  0  0  0
  161.0850  209.2360  152.2210 C   0  0  0  0  0  2  0  0  0  0  0  0
  161.1430  209.4410  153.5170 C   0  0  0  0  0  0  0  0  0  0  0  0
  161.5120  211.3390  156.5840 C   0  0  0  0  0  1  0  0  0  0  0  0
  161.3910  207.4930  148.7150 C   0  0  1  0  0  3  0  0  0  0  0  0
  162.3130  209.7890  148.7280 C   0  0  0  0  0  0  0  0  0  0  0  0
  162.1580  211.0730  148.9000 C   0  0  0  0  0  3  0  0  0  0  0  0
  162.4960  208.5040  148.5720 C   0  0  0  0  0  3  0  0  0  0  0  0
  161.1320  211.8500  148.1400 C   0  0  1  0  0  3  0  0  0  0  0  0
  160.3740  212.7490  149.0970 C   0  0  0  0  0  1  0  0  0  0  0  0
  161.7470  212.6800  147.0580 C   0  0  0  0  0  0  0  0  0  0  0  0
  163.0010  212.7180  146.9560 O   0  0  0  0  0  0  0  0  0  0  0  0
  160.9350  213.3600  146.1430 O   0  0  0  0  0  0  0  0  0  0  0  0
  159.8610  213.7570  144.1480 F   0  0  0  0  0  0  0  0  0  0  0  0
  160.5810  212.8240  144.8710 C   0  0  0  0  0  0  0  0  0  0  0  0
  161.7310  212.5050  144.1780 F   0  0  0  0  0  0  0  0  0  0  0  0
  159.8210  211.6800  145.0370 F   0  0  0  0  0  0  0  0  0  0  0  0
  161.0020  206.8620  147.4440 C   0  0  0  0  0  0  0  0  0  0  0  0
  160.6820  206.3460  146.4030 C   0  0  0  0  0  3  0  0  0  0  0  0
  1  4  1  1  0  0  0
  1  6  1  0  0  0  0
  2  3  1  0  0  0  0
  3  4  2  0  0  0  0
  6  5  1  1  0  0  0
  7  9  1  0  0  0  0
  9  8  1  0  0  0  0
 10  6  1  6  0  0  0
 10 13  1  0  0  0  0
 10  7  1  0  0  0  0
 11  8  1  0  0  0  0
 11 15  1  0  0  0  0
 12 11  2  0  0  0  0
 13 14  1  0  0  0  0
 14 12  1  0  0  0  0
 14  9  2  0  0  0  0
 16 29  1  6  0  0  0
 16  1  1  0  0  0  0
 17 18  2  0  0  0  0
 19 16  1  0  0  0  0
 19 17  2  0  0  0  0
 20 18  1  0  0  0  0
 20 21  1  1  0  0  0
 22 20  1  0  0  0  0
 23 22  2  0  0  0  0
 24 22  1  0  0  0  0
 25 26  1  0  0  0  0
 26 28  1  0  0  0  0
 26 24  1  0  0  0  0
 27 26  1  0  0  0  0
 30 29  3  0  0  0  0
M  END
>  <MODEL>
9

>  <REMARK>
 VINA RESULT:      -7.1      5.034      6.033
  Name = 
  10 active torsions:
  status: ('A' for Active; 'I' for Inactive)
    1  A    between atoms: C_2  and  C_22
    2  A    between atoms: C_4  and  C_27
    3  A    between atoms: C_5  and  C_22
    4  A    between atoms: C_8  and  O_12
    5  A    between atoms: C_8  and  C_27
    6  A    between atoms: C_9  and  O_12
    7  A    between atoms: C_11  and  C_29
    8  A    between atoms: C_19  and  C_22
    9  A    between atoms: C_19  and  C_28
   10  A    between atoms: C_19  and  C_29
                            x       y       z     vdW  Elec       q    Type
                         _______ _______ _______ _____ _____    ______ ____

>  <TORSDO>
F 10

$$$$
