=
 OpenBabel11052421593D

 30 36  0  0  1  0  0  0  0  0999 V2000
  160.8210  206.7650  149.1450 C   0  0  2  0  0  3  0  0  0  0  0  0
  162.1630  208.8950  149.7840 C   0  0  2  0  0  3  0  0  0  0  0  0
  161.3550  206.4250  153.2300 N   0  0  0  0  0  2  0  0  0  0  0  0
  162.0310  205.8040  149.2280 C   0  0  2  0  0  3  0  0  0  0  0  0
  160.6090  207.1060  147.7420 N   0  0  0  0  0  0  0  0  0  0  0  0
  161.9430  204.1710  145.6800 S   0  0  0  0  0  0  0  0  0  0  0  0
  160.7320  202.1480  148.6920 C   0  0  0  0  0  0  0  0  0  0  0  0
  161.0070  204.7610  147.1250 C   0  0  2  0  0  3  0  0  0  0  0  0
  160.7530  206.5260  145.4510 N   0  0  0  0  0  2  0  0  0  0  0  0
  161.2290  203.4860  150.7860 C   0  0  0  0  0  0  0  0  0  0  0  0
  161.3250  205.0610  152.7740 C   0  0  0  0  0  0  0  0  0  0  0  0
  160.6970  206.1940  146.8240 C   0  0  0  0  0  0  0  0  0  0  0  0
  161.7130  204.4890  148.4740 C   0  0  2  0  0  3  0  0  0  0  0  0
  162.5240  209.8200  150.9540 C   0  0  0  0  0  2  0  0  0  0  0  0
  161.2300  202.3340  151.4770 C   0  0  0  0  0  3  0  0  0  0  0  0
  161.2620  200.9560  149.4240 C   0  0  0  0  0  2  0  0  0  0  0  0
  161.4240  205.6780  143.2850 C   0  0  0  0  0  1  0  0  0  0  0  0
  162.0320  209.7250  148.5220 C   0  0  0  0  0  1  0  0  0  0  0  0
  161.6680  207.5260  152.3390 C   0  0  2  0  0  3  0  0  0  0  0  0
  161.3660  210.0420  151.9310 C   0  0  0  0  0  2  0  0  0  0  0  0
  161.3010  205.5820  144.7630 C   0  0  1  0  0  3  0  0  0  0  0  0
  160.8880  208.0450  149.9980 C   0  0  2  0  0  3  0  0  0  0  0  0
  162.5860  205.5260  150.6250 C   0  0  0  0  0  2  0  0  0  0  0  0
  160.9470  204.1720  153.5820 O   0  0  0  0  0  0  0  0  0  0  0  0
  161.6700  204.7030  151.4090 N   0  0  0  0  0  0  0  0  0  0  0  0
  160.7950  201.0370  150.8690 C   0  0  0  0  0  2  0  0  0  0  0  0
  160.1880  201.9920  147.6120 O   0  0  0  0  0  0  0  0  0  0  0  0
  160.7770  208.7490  152.5250 C   0  0  1  0  0  3  0  0  0  0  0  0
  160.4600  207.7250  151.4420 C   0  0  2  0  0  3  0  0  0  0  0  0
  160.8300  203.5290  149.3140 C   0  0  1  0  0  3  0  0  0  0  0  0
  1  5  1  6  0  0  0
  1  4  1  0  0  0  0
  1 22  1  0  0  0  0
  2 18  1  6  0  0  0
  2 22  1  0  0  0  0
  2 14  1  0  0  0  0
  4 23  1  1  0  0  0
  7 30  1  0  0  0  0
  7 16  1  0  0  0  0
  8  6  1  6  0  0  0
  8 13  1  0  0  0  0
  9 12  1  0  0  0  0
 10 25  1  0  0  0  0
 10 15  2  0  0  0  0
 11  3  1  0  0  0  0
 11 24  2  0  0  0  0
 12  8  1  0  0  0  0
 12  5  2  0  0  0  0
 13  4  1  0  0  0  0
 13 30  1  0  0  0  0
 14 20  1  0  0  0  0
 16 26  1  0  0  0  0
 17 21  1  0  0  0  0
 19 28  1  0  0  0  0
 19  3  1  0  0  0  0
 20 28  1  0  0  0  0
 21  9  1  0  0  0  0
 21  6  1  0  0  0  0
 22 29  1  0  0  0  0
 23 25  1  0  0  0  0
 25 11  1  0  0  0  0
 26 15  1  0  0  0  0
 27  7  2  0  0  0  0
 29 19  1  0  0  0  0
 29 28  1  0  0  0  0
 30 10  1  0  0  0  0
M  END
>  <MODEL>
1

>  <REMARK>
 VINA RESULT:      -7.9      0.000      0.000
  Name = 
  0 active torsions:
  status: ('A' for Active; 'I' for Inactive)
                            x       y       z     vdW  Elec       q    Type
                         _______ _______ _______ _____ _____    ______ ____

>  <TORSDO>
F 0

$$$$
=
 OpenBabel11052421593D

 30 36  0  0  1  0  0  0  0  0999 V2000
  162.0210  206.5260  148.4680 C   0  0  2  0  0  3  0  0  0  0  0  0
  160.7820  205.6400  146.3640 C   0  0  2  0  0  3  0  0  0  0  0  0
  160.9100  202.6810  149.5030 N   0  0  0  0  0  2  0  0  0  0  0  0
  160.7360  206.7780  149.2940 C   0  0  2  0  0  3  0  0  0  0  0  0
  162.4490  207.7990  147.8970 N   0  0  0  0  0  0  0  0  0  0  0  0
  161.1730  210.5430  150.2380 S   0  0  0  0  0  0  0  0  0  0  0  0
  161.7930  207.8700  152.9030 C   0  0  0  0  0  0  0  0  0  0  0  0
  161.9480  208.9100  150.0300 C   0  0  2  0  0  3  0  0  0  0  0  0
  162.5700  210.1600  148.0220 N   0  0  0  0  0  2  0  0  0  0  0  0
  161.1270  205.6270  151.9330 C   0  0  0  0  0  0  0  0  0  0  0  0
  160.8900  203.3910  150.7540 C   0  0  0  0  0  0  0  0  0  0  0  0
  162.4120  208.8830  148.6080 C   0  0  0  0  0  0  0  0  0  0  0  0
  161.0450  207.7340  150.4720 C   0  0  2  0  0  3  0  0  0  0  0  0
  160.3410  204.3610  145.6400 C   0  0  0  0  0  2  0  0  0  0  0  0
  160.9390  205.1820  153.1860 C   0  0  0  0  0  3  0  0  0  0  0  0
  161.0740  207.4560  154.1480 C   0  0  0  0  0  2  0  0  0  0  0  0
  162.1340  212.5150  148.3770 C   0  0  0  0  0  1  0  0  0  0  0  0
  161.1510  206.6890  145.3320 C   0  0  0  0  0  1  0  0  0  0  0  0
  160.8120  203.3660  148.2280 C   0  0  2  0  0  3  0  0  0  0  0  0
  161.3700  203.2300  145.7270 C   0  0  0  0  0  2  0  0  0  0  0  0
  162.0460  211.0810  148.7580 C   0  0  1  0  0  3  0  0  0  0  0  0
  161.9420  205.4500  147.3700 C   0  0  2  0  0  3  0  0  0  0  0  0
  159.9750  205.5380  149.7660 C   0  0  0  0  0  2  0  0  0  0  0  0
  161.0820  202.7370  151.8120 O   0  0  0  0  0  0  0  0  0  0  0  0
  160.7060  204.8310  150.8130 N   0  0  0  0  0  0  0  0  0  0  0  0
  161.3450  205.9790  154.3870 C   0  0  0  0  0  2  0  0  0  0  0  0
  162.4650  208.8880  152.9130 O   0  0  0  0  0  0  0  0  0  0  0  0
  161.7660  202.8380  147.1630 C   0  0  1  0  0  3  0  0  0  0  0  0
  162.1420  204.0580  147.9960 C   0  0  2  0  0  3  0  0  0  0  0  0
  161.7250  207.0040  151.6590 C   0  0  1  0  0  3  0  0  0  0  0  0
  1  5  1  6  0  0  0
  1  4  1  0  0  0  0
  2 18  1  6  0  0  0
  2 22  1  0  0  0  0
  3 11  1  0  0  0  0
  4 23  1  1  0  0  0
  4 13  1  0  0  0  0
  5 12  2  0  0  0  0
  7 27  2  0  0  0  0
  7 16  1  0  0  0  0
  8 12  1  6  0  0  0
  8  6  1  0  0  0  0
  8 13  1  0  0  0  0
  9 12  1  0  0  0  0
  9 21  1  0  0  0  0
 10 15  2  0  0  0  0
 11 25  1  0  0  0  0
 11 24  2  0  0  0  0
 13 30  1  0  0  0  0
 14 20  1  0  0  0  0
 14  2  1  0  0  0  0
 15 26  1  0  0  0  0
 16 26  1  0  0  0  0
 17 21  1  0  0  0  0
 19  3  1  0  0  0  0
 20 28  1  0  0  0  0
 21  6  1  0  0  0  0
 22 29  1  0  0  0  0
 22  1  1  0  0  0  0
 23 25  1  0  0  0  0
 25 10  1  0  0  0  0
 28 29  1  0  0  0  0
 28 19  1  0  0  0  0
 29 19  1  0  0  0  0
 30 10  1  0  0  0  0
 30  7  1  0  0  0  0
M  END
>  <MODEL>
2

>  <REMARK>
 VINA RESULT:      -5.8      2.309      5.543
  Name = 
  0 active torsions:
  status: ('A' for Active; 'I' for Inactive)
                            x       y       z     vdW  Elec       q    Type
                         _______ _______ _______ _____ _____    ______ ____

>  <TORSDO>
F 0

$$$$
=
 OpenBabel11052421593D

 30 36  0  0  1  0  0  0  0  0999 V2000
  159.4620  211.4070  153.3460 C   0  0  2  0  0  3  0  0  0  0  0  0
  159.5830  213.1770  155.2430 C   0  0  2  0  0  3  0  0  0  0  0  0
  159.5140  209.1580  156.8150 N   0  0  0  0  0  2  0  0  0  0  0  0
  160.9530  210.9980  153.4370 C   0  0  2  0  0  3  0  0  0  0  0  0
  159.3170  212.3460  152.2390 N   0  0  0  0  0  0  0  0  0  0  0  0
  162.1140  211.5570  149.7500 S   0  0  0  0  0  0  0  0  0  0  0  0
  161.5490  207.9880  151.0040 C   0  0  0  0  0  0  0  0  0  0  0  0
  160.8210  210.9570  150.8800 C   0  0  2  0  0  3  0  0  0  0  0  0
  160.0290  213.1450  150.1260 N   0  0  0  0  0  2  0  0  0  0  0  0
  161.0840  208.0960  153.4930 C   0  0  0  0  0  0  0  0  0  0  0  0
  160.1730  208.3170  155.8510 C   0  0  0  0  0  0  0  0  0  0  0  0
  159.9380  212.1410  151.1190 C   0  0  0  0  0  0  0  0  0  0  0  0
  161.3770  210.2590  152.1440 C   0  0  2  0  0  3  0  0  0  0  0  0
  159.3160  213.4040  156.7370 C   0  0  0  0  0  2  0  0  0  0  0  0
  161.5120  206.8270  153.5910 C   0  0  0  0  0  3  0  0  0  0  0  0
  162.4550  206.8360  151.3050 C   0  0  0  0  0  2  0  0  0  0  0  0
  161.3080  213.8360  148.1910 C   0  0  0  0  0  1  0  0  0  0  0  0
  159.2670  214.4530  154.4870 C   0  0  0  0  0  1  0  0  0  0  0  0
  159.4130  210.5940  156.6390 C   0  0  2  0  0  3  0  0  0  0  0  0
  158.0600  212.6890  157.2430 C   0  0  0  0  0  2  0  0  0  0  0  0
  161.0360  212.9420  149.3470 C   0  0  1  0  0  3  0  0  0  0  0  0
  158.8190  211.9840  154.6200 C   0  0  2  0  0  3  0  0  0  0  0  0
  161.3710  210.2220  154.6870 C   0  0  0  0  0  2  0  0  0  0  0  0
  160.1310  207.0700  156.0240 O   0  0  0  0  0  0  0  0  0  0  0  0
  160.8300  208.8660  154.6780 N   0  0  0  0  0  0  0  0  0  0  0  0
  161.8050  205.9870  152.3860 C   0  0  0  0  0  2  0  0  0  0  0  0
  161.2920  208.2590  149.8430 O   0  0  0  0  0  0  0  0  0  0  0  0
  158.0470  211.1700  156.9940 C   0  0  1  0  0  3  0  0  0  0  0  0
  158.3870  210.8340  155.5470 C   0  0  2  0  0  3  0  0  0  0  0  0
  160.9200  208.7770  152.1370 C   0  0  1  0  0  3  0  0  0  0  0  0
  1  5  1  6  0  0  0
  1  4  1  0  0  0  0
  1 22  1  0  0  0  0
  2 18  1  6  0  0  0
  2 14  1  0  0  0  0
  4 23  1  1  0  0  0
  7 16  1  0  0  0  0
  7 30  1  0  0  0  0
  8  6  1  6  0  0  0
  8 12  1  0  0  0  0
  8 13  1  0  0  0  0
  9 12  1  0  0  0  0
 10 15  2  0  0  0  0
 10 25  1  0  0  0  0
 11 24  2  0  0  0  0
 11  3  1  0  0  0  0
 12  5  2  0  0  0  0
 13  4  1  0  0  0  0
 14 20  1  0  0  0  0
 16 26  1  0  0  0  0
 17 21  1  0  0  0  0
 19  3  1  0  0  0  0
 19 28  1  0  0  0  0
 21  6  1  0  0  0  0
 21  9  1  0  0  0  0
 22  2  1  0  0  0  0
 22 29  1  0  0  0  0
 25 23  1  0  0  0  0
 25 11  1  0  0  0  0
 26 15  1  0  0  0  0
 27  7  2  0  0  0  0
 28 20  1  0  0  0  0
 29 19  1  0  0  0  0
 29 28  1  0  0  0  0
 30 13  1  0  0  0  0
 30 10  1  0  0  0  0
M  END
>  <MODEL>
3

>  <REMARK>
 VINA RESULT:      -5.6      4.517      6.647
  Name = 
  0 active torsions:
  status: ('A' for Active; 'I' for Inactive)
                            x       y       z     vdW  Elec       q    Type
                         _______ _______ _______ _____ _____    ______ ____

>  <TORSDO>
F 0

$$$$
=
 OpenBabel11052421593D

 30 36  0  0  1  0  0  0  0  0999 V2000
  160.8820  208.7230  152.1390 C   0  0  2  0  0  3  0  0  0  0  0  0
  161.8790  209.2470  154.4800 C   0  0  2  0  0  3  0  0  0  0  0  0
  160.8310  205.0780  154.0900 N   0  0  0  0  0  2  0  0  0  0  0  0
  162.1620  208.0500  151.5870 C   0  0  2  0  0  3  0  0  0  0  0  0
  160.8480  210.0980  151.6520 N   0  0  0  0  0  0  0  0  0  0  0  0
  162.7800  210.1460  148.3490 S   0  0  0  0  0  0  0  0  0  0  0  0
  161.3540  206.6100  148.0350 C   0  0  0  0  0  0  0  0  0  0  0  0
  161.5810  209.3190  149.4400 C   0  0  2  0  0  3  0  0  0  0  0  0
  161.3950  211.6950  149.9910 N   0  0  0  0  0  2  0  0  0  0  0  0
  161.3860  205.5450  150.3340 C   0  0  0  0  0  0  0  0  0  0  0  0
  161.0150  204.7250  152.7070 C   0  0  0  0  0  0  0  0  0  0  0  0
  161.1690  210.3680  150.4240 C   0  0  0  0  0  0  0  0  0  0  0  0
  162.1010  207.9910  150.0400 C   0  0  2  0  0  3  0  0  0  0  0  0
  161.9610  208.7420  155.9260 C   0  0  0  0  0  2  0  0  0  0  0  0
  161.4050  204.3430  149.7360 C   0  0  0  0  0  3  0  0  0  0  0  0
  161.8910  205.3150  147.5150 C   0  0  0  0  0  2  0  0  0  0  0  0
  162.4690  213.0040  148.2610 C   0  0  0  0  0  1  0  0  0  0  0  0
  161.8520  210.7630  154.4880 C   0  0  0  0  0  1  0  0  0  0  0  0
  161.1550  206.3990  154.5940 C   0  0  2  0  0  3  0  0  0  0  0  0
  160.6520  208.1230  156.4270 C   0  0  0  0  0  2  0  0  0  0  0  0
  162.1370  211.7220  148.9360 C   0  0  1  0  0  3  0  0  0  0  0  0
  160.6850  208.6960  153.6660 C   0  0  2  0  0  3  0  0  0  0  0  0
  162.5270  206.6900  152.1830 C   0  0  0  0  0  2  0  0  0  0  0  0
  160.6160  203.5930  152.3250 O   0  0  0  0  0  0  0  0  0  0  0  0
  161.5960  205.6510  151.7510 N   0  0  0  0  0  0  0  0  0  0  0  0
  161.2060  204.1800  148.2610 C   0  0  0  0  0  2  0  0  0  0  0  0
  160.9970  207.4690  147.2460 O   0  0  0  0  0  0  0  0  0  0  0  0
  160.1220  206.9670  155.5600 C   0  0  1  0  0  3  0  0  0  0  0  0
  160.0820  207.3430  154.0840 C   0  0  2  0  0  3  0  0  0  0  0  0
  161.2100  206.8300  149.5300 C   0  0  1  0  0  3  0  0  0  0  0  0
  1  5  1  1  0  0  0
  1 22  1  0  0  0  0
  2 18  1  1  0  0  0
  2 14  1  0  0  0  0
  3 19  1  0  0  0  0
  4  1  1  0  0  0  0
  4 23  1  1  0  0  0
  6 21  1  0  0  0  0
  7 30  1  0  0  0  0
  8  6  1  1  0  0  0
  8 13  1  0  0  0  0
  8 12  1  0  0  0  0
  9 12  1  0  0  0  0
 10 25  1  0  0  0  0
 11  3  1  0  0  0  0
 12  5  2  0  0  0  0
 13  4  1  0  0  0  0
 14 20  1  0  0  0  0
 15 10  2  0  0  0  0
 16  7  1  0  0  0  0
 16 26  1  0  0  0  0
 17 21  1  0  0  0  0
 19 28  1  0  0  0  0
 21  9  1  0  0  0  0
 22 29  1  0  0  0  0
 22  2  1  0  0  0  0
 24 11  2  0  0  0  0
 25 23  1  0  0  0  0
 25 11  1  0  0  0  0
 26 15  1  0  0  0  0
 27  7  2  0  0  0  0
 28 20  1  0  0  0  0
 29 19  1  0  0  0  0
 29 28  1  0  0  0  0
 30 13  1  0  0  0  0
 30 10  1  0  0  0  0
M  END
>  <MODEL>
4

>  <REMARK>
 VINA RESULT:      -5.3      2.695      4.548
  Name = 
  0 active torsions:
  status: ('A' for Active; 'I' for Inactive)
                            x       y       z     vdW  Elec       q    Type
                         _______ _______ _______ _____ _____    ______ ____

>  <TORSDO>
F 0

$$$$
=
 OpenBabel11052421593D

 30 36  0  0  1  0  0  0  0  0999 V2000
  160.0330  209.3310  152.9000 C   0  0  2  0  0  3  0  0  0  0  0  0
  161.4880  207.4400  153.9280 C   0  0  2  0  0  3  0  0  0  0  0  0
  162.3630  208.0300  149.7430 N   0  0  0  0  0  2  0  0  0  0  0  0
  161.1650  210.3880  152.8840 C   0  0  2  0  0  3  0  0  0  0  0  0
  159.2050  209.5740  154.0770 N   0  0  0  0  0  0  0  0  0  0  0  0
  159.5050  213.3010  154.8890 S   0  0  0  0  0  0  0  0  0  0  0  0
  159.8190  213.5970  151.0880 C   0  0  0  0  0  0  0  0  0  0  0  0
  159.3160  211.9890  153.6420 C   0  0  2  0  0  3  0  0  0  0  0  0
  158.3060  211.0740  155.6730 N   0  0  0  0  0  2  0  0  0  0  0  0
  161.1890  211.6340  150.2590 C   0  0  0  0  0  0  0  0  0  0  0  0
  162.1500  209.4250  149.4600 C   0  0  0  0  0  0  0  0  0  0  0  0
  158.8820  210.7840  154.4140 C   0  0  0  0  0  0  0  0  0  0  0  0
  160.5600  211.8060  152.7400 C   0  0  2  0  0  3  0  0  0  0  0  0
  162.3260  206.2030  153.5810 C   0  0  0  0  0  2  0  0  0  0  0  0
  161.5200  212.3660  149.1830 C   0  0  0  0  0  3  0  0  0  0  0  0
  160.6400  214.4530  150.1760 C   0  0  0  0  0  2  0  0  0  0  0  0
  157.9360  212.8640  157.2600 C   0  0  0  0  0  1  0  0  0  0  0  0
  160.7880  207.2060  155.2520 C   0  0  0  0  0  1  0  0  0  0  0  0
  162.2230  207.4880  151.0810 C   0  0  2  0  0  3  0  0  0  0  0  0
  161.7310  205.3680  152.4410 C   0  0  0  0  0  2  0  0  0  0  0  0
  158.4970  212.3070  156.0010 C   0  0  1  0  0  3  0  0  0  0  0  0
  160.4600  207.8530  152.8470 C   0  0  2  0  0  3  0  0  0  0  0  0
  162.2960  210.1590  151.8810 C   0  0  0  0  0  2  0  0  0  0  0  0
  162.1920  209.8010  148.2590 O   0  0  0  0  0  0  0  0  0  0  0  0
  161.8460  210.3810  150.5100 N   0  0  0  0  0  0  0  0  0  0  0  0
  160.8760  213.6850  148.8850 C   0  0  0  0  0  2  0  0  0  0  0  0
  158.8460  214.0800  151.6450 O   0  0  0  0  0  0  0  0  0  0  0  0
  161.4940  206.1500  151.1360 C   0  0  1  0  0  3  0  0  0  0  0  0
  160.7370  207.4490  151.3880 C   0  0  2  0  0  3  0  0  0  0  0  0
  160.1670  212.1320  151.2770 C   0  0  1  0  0  3  0  0  0  0  0  0
  1  5  1  1  0  0  0
  2 18  1  1  0  0  0
  3 19  1  0  0  0  0
  4 23  1  6  0  0  0
  4  1  1  0  0  0  0
  5 12  2  0  0  0  0
  6 21  1  0  0  0  0
  7 30  1  0  0  0  0
  7 27  2  0  0  0  0
  8 12  1  1  0  0  0
  8  6  1  0  0  0  0
  9 21  1  0  0  0  0
 10 25  1  0  0  0  0
 10 30  1  0  0  0  0
 11  3  1  0  0  0  0
 11 25  1  0  0  0  0
 12  9  1  0  0  0  0
 13  4  1  0  0  0  0
 13  8  1  0  0  0  0
 14  2  1  0  0  0  0
 15 10  2  0  0  0  0
 16  7  1  0  0  0  0
 19 28  1  0  0  0  0
 19 29  1  0  0  0  0
 20 14  1  0  0  0  0
 21 17  1  0  0  0  0
 22  1  1  0  0  0  0
 22  2  1  0  0  0  0
 24 11  2  0  0  0  0
 25 23  1  0  0  0  0
 26 15  1  0  0  0  0
 26 16  1  0  0  0  0
 28 29  1  0  0  0  0
 28 20  1  0  0  0  0
 29 22  1  0  0  0  0
 30 13  1  0  0  0  0
M  END
>  <MODEL>
5

>  <REMARK>
 VINA RESULT:      -5.0      4.563      8.756
  Name = 
  0 active torsions:
  status: ('A' for Active; 'I' for Inactive)
                            x       y       z     vdW  Elec       q    Type
                         _______ _______ _______ _____ _____    ______ ____

>  <TORSDO>
F 0

$$$$
