=
 OpenBabel11052422513D

 28 31  0  0  0  0  0  0  0  0999 V2000
  161.2770  210.0690  152.6390 C   0  0  0  0  0  0  0  0  0  0  0  0
  161.4030  207.9270  156.3740 C   0  0  0  0  0  1  0  0  0  0  0  0
  160.9540  206.6530  151.3290 C   0  0  0  0  0  0  0  0  0  0  0  0
  161.1990  207.9460  153.8520 C   0  0  0  0  0  0  0  0  0  0  0  0
  160.9670  207.9510  151.3980 N   0  0  0  0  0  0  0  0  0  0  0  0
  161.4880  210.0290  155.0600 C   0  0  0  0  0  3  0  0  0  0  0  0
  160.9620  206.4590  153.8550 C   0  0  0  0  0  2  0  0  0  0  0  0
  161.3660  208.6400  155.0640 C   0  0  0  0  0  0  0  0  0  0  0  0
  161.1180  205.8800  152.5250 N   0  0  0  0  0  2  0  0  0  0  0  0
  161.4430  210.7360  153.8600 C   0  0  0  0  0  3  0  0  0  0  0  0
  161.1520  208.6600  152.6350 C   0  0  0  0  0  0  0  0  0  0  0  0
  160.7690  206.7340  148.9210 C   0  0  0  0  0  3  0  0  0  0  0  0
  161.1540  203.7010  149.0260 C   0  0  0  0  0  3  0  0  0  0  0  0
  161.6740  205.2750  147.1670 C   0  0  0  0  0  0  0  0  0  0  0  0
  160.7880  205.9730  150.0230 C   0  0  0  0  0  0  0  0  0  0  0  0
  159.9930  203.8770  151.0000 F   0  0  0  0  0  0  0  0  0  0  0  0
  161.8810  204.1290  147.8150 C   0  0  0  0  0  3  0  0  0  0  0  0
  160.6250  204.4920  149.9710 C   0  0  0  0  0  0  0  0  0  0  0  0
  162.4940  205.5840  145.9670 C   0  0  0  0  0  1  0  0  0  0  0  0
  160.5660  206.2010  147.5430 C   0  0  0  0  0  2  0  0  0  0  0  0
  161.2590  210.8620  151.3880 C   0  0  0  0  0  0  0  0  0  0  0  0
  162.0980  210.5020  150.3230 C   0  0  0  0  0  3  0  0  0  0  0  0
  160.4590  212.7500  150.0730 C   0  0  0  0  0  0  0  0  0  0  0  0
  162.1150  211.2510  149.1450 C   0  0  0  0  0  3  0  0  0  0  0  0
  159.6050  212.3740  152.2620 F   0  0  0  0  0  0  0  0  0  0  0  0
  160.4390  212.0020  151.2580 C   0  0  0  0  0  0  0  0  0  0  0  0
  159.6650  213.8400  149.9420 F   0  0  0  0  0  0  0  0  0  0  0  0
  161.2950  212.3730  149.0200 C   0  0  0  0  0  3  0  0  0  0  0  0
  1 10  1  0  0  0  0
  3  5  2  0  0  0  0
  3  9  1  0  0  0  0
  4  7  1  0  0  0  0
  4  8  2  0  0  0  0
  5 11  1  0  0  0  0
  6  8  1  0  0  0  0
  8  2  1  0  0  0  0
  9  7  1  0  0  0  0
 10  6  2  0  0  0  0
 11  1  2  0  0  0  0
 11  4  1  0  0  0  0
 12 15  2  0  0  0  0
 13 18  2  0  0  0  0
 14 20  1  0  0  0  0
 14 17  2  0  0  0  0
 15  3  1  0  0  0  0
 17 13  1  0  0  0  0
 18 15  1  0  0  0  0
 18 16  1  0  0  0  0
 19 14  1  0  0  0  0
 20 12  1  0  0  0  0
 21  1  1  0  0  0  0
 22 21  2  0  0  0  0
 23 26  2  0  0  0  0
 24 22  1  0  0  0  0
 26 21  1  0  0  0  0
 26 25  1  0  0  0  0
 27 23  1  0  0  0  0
 28 24  2  0  0  0  0
 28 23  1  0  0  0  0
M  END
>  <MODEL>
1

>  <REMARK>
 VINA RESULT:      -9.2      0.000      0.000
  Name = 
  2 active torsions:
  status: ('A' for Active; 'I' for Inactive)
    1  A    between atoms: C_1  and  C_2
    2  A    between atoms: C_10  and  C_13
                            x       y       z     vdW  Elec       q    Type
                         _______ _______ _______ _____ _____    ______ ____

>  <TORSDO>
F 2

$$$$
=
 OpenBabel11052422513D

 28 31  0  0  0  0  0  0  0  0999 V2000
  161.2200  209.9910  152.9280 C   0  0  0  0  0  0  0  0  0  0  0  0
  161.4600  207.7440  156.5940 C   0  0  0  0  0  1  0  0  0  0  0  0
  160.9440  206.6100  151.5230 C   0  0  0  0  0  0  0  0  0  0  0  0
  161.2080  207.8330  154.0780 C   0  0  0  0  0  0  0  0  0  0  0  0
  160.9310  207.9050  151.6310 N   0  0  0  0  0  0  0  0  0  0  0  0
  161.4770  209.8850  155.3420 C   0  0  0  0  0  3  0  0  0  0  0  0
  161.0020  206.3420  154.0410 C   0  0  0  0  0  2  0  0  0  0  0  0
  161.3840  208.4940  155.3070 C   0  0  0  0  0  0  0  0  0  0  0  0
  161.1460  205.8060  152.6920 N   0  0  0  0  0  2  0  0  0  0  0  0
  161.3950  210.6260  154.1650 C   0  0  0  0  0  3  0  0  0  0  0  0
  161.1250  208.5810  152.8840 C   0  0  0  0  0  0  0  0  0  0  0  0
  160.7540  206.7540  149.1180 C   0  0  0  0  0  3  0  0  0  0  0  0
  161.1040  203.7150  149.1450 C   0  0  0  0  0  3  0  0  0  0  0  0
  161.6390  205.3290  147.3250 C   0  0  0  0  0  0  0  0  0  0  0  0
  160.7670  205.9650  150.2000 C   0  0  0  0  0  0  0  0  0  0  0  0
  159.9490  203.8540  151.1260 F   0  0  0  0  0  0  0  0  0  0  0  0
  161.8340  204.1650  147.9440 C   0  0  0  0  0  3  0  0  0  0  0  0
  160.5870  204.4880  150.1110 C   0  0  0  0  0  0  0  0  0  0  0  0
  162.4610  205.6600  146.1320 C   0  0  0  0  0  1  0  0  0  0  0  0
  160.5430  206.2580  147.7280 C   0  0  0  0  0  2  0  0  0  0  0  0
  161.1630  210.8210  151.7010 C   0  0  0  0  0  0  0  0  0  0  0  0
  160.2740  211.9030  151.6330 C   0  0  0  0  0  3  0  0  0  0  0  0
  161.8730  211.3060  149.4230 C   0  0  0  0  0  0  0  0  0  0  0  0
  160.1880  212.6820  150.4780 C   0  0  0  0  0  3  0  0  0  0  0  0
  162.8450  209.4880  150.6120 F   0  0  0  0  0  0  0  0  0  0  0  0
  161.9630  210.5200  150.5790 C   0  0  0  0  0  0  0  0  0  0  0  0
  162.6480  211.0260  148.3460 F   0  0  0  0  0  0  0  0  0  0  0  0
  160.9870  212.3850  149.3740 C   0  0  0  0  0  3  0  0  0  0  0  0
  1 10  1  0  0  0  0
  3  5  2  0  0  0  0
  3  9  1  0  0  0  0
  4  8  2  0  0  0  0
  5 11  1  0  0  0  0
  7  4  1  0  0  0  0
  8  6  1  0  0  0  0
  8  2  1  0  0  0  0
  9  7  1  0  0  0  0
 10  6  2  0  0  0  0
 11  1  2  0  0  0  0
 11  4  1  0  0  0  0
 12 15  2  0  0  0  0
 13 18  2  0  0  0  0
 14 20  1  0  0  0  0
 14 17  2  0  0  0  0
 15  3  1  0  0  0  0
 17 13  1  0  0  0  0
 18 15  1  0  0  0  0
 18 16  1  0  0  0  0
 19 14  1  0  0  0  0
 20 12  1  0  0  0  0
 21  1  1  0  0  0  0
 22 21  1  0  0  0  0
 23 26  1  0  0  0  0
 24 22  2  0  0  0  0
 26 25  1  0  0  0  0
 26 21  2  0  0  0  0
 27 23  1  0  0  0  0
 28 23  2  0  0  0  0
 28 24  1  0  0  0  0
M  END
>  <MODEL>
2

>  <REMARK>
 VINA RESULT:      -9.1      1.238      1.539
  Name = 
  2 active torsions:
  status: ('A' for Active; 'I' for Inactive)
    1  A    between atoms: C_1  and  C_2
    2  A    between atoms: C_10  and  C_13
                            x       y       z     vdW  Elec       q    Type
                         _______ _______ _______ _____ _____    ______ ____

>  <TORSDO>
F 2

$$$$
=
 OpenBabel11052422513D

 28 31  0  0  0  0  0  0  0  0999 V2000
  161.3250  204.4720  148.7820 C   0  0  0  0  0  0  0  0  0  0  0  0
  160.5220  203.2430  152.8310 C   0  0  0  0  0  1  0  0  0  0  0  0
  161.6040  207.7470  150.4200 C   0  0  0  0  0  0  0  0  0  0  0  0
  161.0860  205.0450  151.1480 C   0  0  0  0  0  0  0  0  0  0  0  0
  161.6680  206.8060  149.5250 N   0  0  0  0  0  0  0  0  0  0  0  0
  160.7660  202.7570  150.4120 C   0  0  0  0  0  3  0  0  0  0  0  0
  161.2220  206.0500  152.2610 C   0  0  0  0  0  2  0  0  0  0  0  0
  160.7930  203.7000  151.4380 C   0  0  0  0  0  0  0  0  0  0  0  0
  161.2190  207.4210  151.7620 N   0  0  0  0  0  2  0  0  0  0  0  0
  161.0300  203.1390  149.0970 C   0  0  0  0  0  3  0  0  0  0  0  0
  161.3540  205.4350  149.8180 C   0  0  0  0  0  0  0  0  0  0  0  0
  162.1180  209.4300  148.7630 C   0  0  0  0  0  3  0  0  0  0  0  0
  161.5680  211.4530  150.9910 C   0  0  0  0  0  3  0  0  0  0  0  0
  161.3850  211.7610  148.5270 C   0  0  0  0  0  0  0  0  0  0  0  0
  161.9100  209.1510  150.0570 C   0  0  0  0  0  0  0  0  0  0  0  0
  162.4580  209.8230  152.3430 F   0  0  0  0  0  0  0  0  0  0  0  0
  161.0330  212.0860  149.7700 C   0  0  0  0  0  3  0  0  0  0  0  0
  162.0030  210.1910  151.1210 C   0  0  0  0  0  0  0  0  0  0  0  0
  160.7510  212.4730  147.3870 C   0  0  0  0  0  1  0  0  0  0  0  0
  162.4780  210.7830  148.2500 C   0  0  0  0  0  2  0  0  0  0  0  0
  161.5740  204.8330  147.3670 C   0  0  0  0  0  0  0  0  0  0  0  0
  162.6980  204.3190  146.7050 C   0  0  0  0  0  3  0  0  0  0  0  0
  160.9910  206.0630  145.3480 C   0  0  0  0  0  0  0  0  0  0  0  0
  162.9650  204.6660  145.3790 C   0  0  0  0  0  3  0  0  0  0  0  0
  159.6140  206.2270  147.2820 F   0  0  0  0  0  0  0  0  0  0  0  0
  160.7190  205.7190  146.6780 C   0  0  0  0  0  0  0  0  0  0  0  0
  160.1650  206.9060  144.6800 F   0  0  0  0  0  0  0  0  0  0  0  0
  162.1110  205.5370  144.7010 C   0  0  0  0  0  3  0  0  0  0  0  0
  1 10  2  0  0  0  0
  1 11  1  0  0  0  0
  3  9  1  0  0  0  0
  4  8  1  0  0  0  0
  4  7  1  0  0  0  0
  5 11  1  0  0  0  0
  5  3  2  0  0  0  0
  6  8  2  0  0  0  0
  8  2  1  0  0  0  0
  9  7  1  0  0  0  0
 10  6  1  0  0  0  0
 11  4  2  0  0  0  0
 12 15  2  0  0  0  0
 13 18  2  0  0  0  0
 14 17  2  0  0  0  0
 15  3  1  0  0  0  0
 15 18  1  0  0  0  0
 17 13  1  0  0  0  0
 18 16  1  0  0  0  0
 19 14  1  0  0  0  0
 20 14  1  0  0  0  0
 20 12  1  0  0  0  0
 21  1  1  0  0  0  0
 22 21  1  0  0  0  0
 23 26  1  0  0  0  0
 24 22  2  0  0  0  0
 26 25  1  0  0  0  0
 26 21  2  0  0  0  0
 27 23  1  0  0  0  0
 28 23  2  0  0  0  0
 28 24  1  0  0  0  0
M  END
>  <MODEL>
3

>  <REMARK>
 VINA RESULT:      -8.7      2.383      6.466
  Name = 
  2 active torsions:
  status: ('A' for Active; 'I' for Inactive)
    1  A    between atoms: C_1  and  C_2
    2  A    between atoms: C_10  and  C_13
                            x       y       z     vdW  Elec       q    Type
                         _______ _______ _______ _____ _____    ______ ____

>  <TORSDO>
F 2

$$$$
=
 OpenBabel11052422513D

 28 31  0  0  0  0  0  0  0  0999 V2000
  161.0830  207.6050  152.3060 C   0  0  0  0  0  0  0  0  0  0  0  0
  160.4960  207.2830  156.5610 C   0  0  0  0  0  1  0  0  0  0  0  0
  159.7450  210.9650  152.9350 C   0  0  0  0  0  0  0  0  0  0  0  0
  160.3840  208.6220  154.4170 C   0  0  0  0  0  0  0  0  0  0  0  0
  160.3000  209.9500  152.3430 N   0  0  0  0  0  0  0  0  0  0  0  0
  161.1670  206.3280  154.3730 C   0  0  0  0  0  3  0  0  0  0  0  0
  159.9570  209.8400  155.1940 C   0  0  0  0  0  2  0  0  0  0  0  0
  160.6780  207.4210  155.0870 C   0  0  0  0  0  0  0  0  0  0  0  0
  159.4080  210.8750  154.3250 N   0  0  0  0  0  2  0  0  0  0  0  0
  161.3680  206.4190  152.9970 C   0  0  0  0  0  3  0  0  0  0  0  0
  160.5880  208.7180  153.0240 C   0  0  0  0  0  0  0  0  0  0  0  0
  160.2440  212.5170  151.1500 C   0  0  0  0  0  3  0  0  0  0  0  0
  157.4870  213.7080  151.7320 C   0  0  0  0  0  3  0  0  0  0  0  0
  158.7860  213.7500  149.6080 C   0  0  0  0  0  0  0  0  0  0  0  0
  159.4440  212.2040  152.1780 C   0  0  0  0  0  0  0  0  0  0  0  0
  157.9750  213.1280  153.9010 F   0  0  0  0  0  0  0  0  0  0  0  0
  157.6280  213.7890  150.2650 C   0  0  0  0  0  3  0  0  0  0  0  0
  158.2980  213.0660  152.5860 C   0  0  0  0  0  0  0  0  0  0  0  0
  158.7770  213.8260  148.1240 C   0  0  0  0  0  1  0  0  0  0  0  0
  160.0960  213.7490  150.3230 C   0  0  0  0  0  2  0  0  0  0  0  0
  161.2900  207.6440  150.8400 C   0  0  0  0  0  0  0  0  0  0  0  0
  161.9470  208.7380  150.2590 C   0  0  0  0  0  3  0  0  0  0  0  0
  160.9930  206.6890  148.6190 C   0  0  0  0  0  0  0  0  0  0  0  0
  162.1310  208.8070  148.8760 C   0  0  0  0  0  3  0  0  0  0  0  0
  160.1750  205.5350  150.5330 F   0  0  0  0  0  0  0  0  0  0  0  0
  160.8050  206.6160  150.0060 C   0  0  0  0  0  0  0  0  0  0  0  0
  160.5360  205.6970  147.8170 F   0  0  0  0  0  0  0  0  0  0  0  0
  161.6550  207.7820  148.0570 C   0  0  0  0  0  3  0  0  0  0  0  0
  1 10  2  0  0  0  0
  1 11  1  0  0  0  0
  3  9  1  0  0  0  0
  4  8  1  0  0  0  0
  4  7  1  0  0  0  0
  5  3  2  0  0  0  0
  5 11  1  0  0  0  0
  6  8  2  0  0  0  0
  8  2  1  0  0  0  0
  9  7  1  0  0  0  0
 10  6  1  0  0  0  0
 11  4  2  0  0  0  0
 12 15  2  0  0  0  0
 13 18  2  0  0  0  0
 14 17  2  0  0  0  0
 14 20  1  0  0  0  0
 15 18  1  0  0  0  0
 15  3  1  0  0  0  0
 17 13  1  0  0  0  0
 18 16  1  0  0  0  0
 19 14  1  0  0  0  0
 20 12  1  0  0  0  0
 21  1  1  0  0  0  0
 22 21  1  0  0  0  0
 23 26  1  0  0  0  0
 24 22  2  0  0  0  0
 26 25  1  0  0  0  0
 26 21  2  0  0  0  0
 27 23  1  0  0  0  0
 28 23  2  0  0  0  0
 28 24  1  0  0  0  0
M  END
>  <MODEL>
4

>  <REMARK>
 VINA RESULT:      -8.4      2.098      6.255
  Name = 
  2 active torsions:
  status: ('A' for Active; 'I' for Inactive)
    1  A    between atoms: C_1  and  C_2
    2  A    between atoms: C_10  and  C_13
                            x       y       z     vdW  Elec       q    Type
                         _______ _______ _______ _____ _____    ______ ____

>  <TORSDO>
F 2

$$$$
=
 OpenBabel11052422513D

 28 31  0  0  0  0  0  0  0  0999 V2000
  161.3930  206.9720  151.5870 C   0  0  0  0  0  0  0  0  0  0  0  0
  160.8310  207.7370  155.7890 C   0  0  0  0  0  1  0  0  0  0  0  0
  161.0900  210.6290  151.4480 C   0  0  0  0  0  0  0  0  0  0  0  0
  161.0620  208.5690  153.4100 C   0  0  0  0  0  0  0  0  0  0  0  0
  161.3170  209.3960  151.1030 N   0  0  0  0  0  0  0  0  0  0  0  0
  161.1520  206.1910  153.8770 C   0  0  0  0  0  3  0  0  0  0  0  0
  161.0190  209.9930  153.8980 C   0  0  0  0  0  2  0  0  0  0  0  0
  161.0140  207.5030  154.3270 C   0  0  0  0  0  0  0  0  0  0  0  0
  160.7720  210.9340  152.8120 N   0  0  0  0  0  2  0  0  0  0  0  0
  161.3410  205.9280  152.5210 C   0  0  0  0  0  3  0  0  0  0  0  0
  161.2540  208.3060  152.0370 C   0  0  0  0  0  0  0  0  0  0  0  0
  161.9560  211.5490  149.3880 C   0  0  0  0  0  3  0  0  0  0  0  0
  159.7020  213.6030  149.6330 C   0  0  0  0  0  3  0  0  0  0  0  0
  160.8700  212.8090  147.5820 C   0  0  0  0  0  0  0  0  0  0  0  0
  161.1410  211.7120  150.4380 C   0  0  0  0  0  0  0  0  0  0  0  0
  160.0810  213.3730  151.8870 F   0  0  0  0  0  0  0  0  0  0  0  0
  159.8020  213.3280  148.1870 C   0  0  0  0  0  3  0  0  0  0  0  0
  160.3190  212.9420  150.6240 C   0  0  0  0  0  0  0  0  0  0  0  0
  160.8260  212.5700  146.1160 C   0  0  0  0  0  1  0  0  0  0  0  0
  162.1480  212.5670  148.3150 C   0  0  0  0  0  2  0  0  0  0  0  0
  161.5710  206.6410  150.1540 C   0  0  0  0  0  0  0  0  0  0  0  0
  162.1760  207.5680  149.2950 C   0  0  0  0  0  3  0  0  0  0  0  0
  161.2660  205.1390  148.2610 C   0  0  0  0  0  0  0  0  0  0  0  0
  162.3310  207.2860  147.9360 C   0  0  0  0  0  3  0  0  0  0  0  0
  160.5280  204.4900  150.4280 F   0  0  0  0  0  0  0  0  0  0  0  0
  161.1080  205.4180  149.6250 C   0  0  0  0  0  0  0  0  0  0  0  0
  160.8310  203.9610  147.7520 F   0  0  0  0  0  0  0  0  0  0  0  0
  161.8780  206.0720  147.4200 C   0  0  0  0  0  3  0  0  0  0  0  0
  1 11  2  0  0  0  0
  1 10  1  0  0  0  0
  3  9  1  0  0  0  0
  4  7  1  0  0  0  0
  4  8  2  0  0  0  0
  5  3  2  0  0  0  0
  5 11  1  0  0  0  0
  6  8  1  0  0  0  0
  8  2  1  0  0  0  0
  9  7  1  0  0  0  0
 10  6  2  0  0  0  0
 11  4  1  0  0  0  0
 12 15  2  0  0  0  0
 13 18  2  0  0  0  0
 14 17  2  0  0  0  0
 14 20  1  0  0  0  0
 15 18  1  0  0  0  0
 15  3  1  0  0  0  0
 17 13  1  0  0  0  0
 18 16  1  0  0  0  0
 19 14  1  0  0  0  0
 20 12  1  0  0  0  0
 21  1  1  0  0  0  0
 22 21  2  0  0  0  0
 23 26  2  0  0  0  0
 24 22  1  0  0  0  0
 26 21  1  0  0  0  0
 26 25  1  0  0  0  0
 27 23  1  0  0  0  0
 28 24  2  0  0  0  0
 28 23  1  0  0  0  0
M  END
>  <MODEL>
5

>  <REMARK>
 VINA RESULT:      -8.2      1.491      6.103
  Name = 
  2 active torsions:
  status: ('A' for Active; 'I' for Inactive)
    1  A    between atoms: C_1  and  C_2
    2  A    between atoms: C_10  and  C_13
                            x       y       z     vdW  Elec       q    Type
                         _______ _______ _______ _____ _____    ______ ____

>  <TORSDO>
F 2

$$$$
=
 OpenBabel11052422513D

 28 31  0  0  0  0  0  0  0  0999 V2000
  158.9020  213.1970  152.0800 C   0  0  0  0  0  0  0  0  0  0  0  0
  158.1610  213.1350  156.3220 C   0  0  0  0  0  1  0  0  0  0  0  0
  160.4640  209.9680  152.8670 C   0  0  0  0  0  0  0  0  0  0  0  0
  159.0880  212.0510  154.2320 C   0  0  0  0  0  0  0  0  0  0  0  0
  159.9670  210.9680  152.2010 N   0  0  0  0  0  0  0  0  0  0  0  0
  158.0330  214.2300  154.1010 C   0  0  0  0  0  3  0  0  0  0  0  0
  159.4380  210.8170  155.0210 C   0  0  0  0  0  2  0  0  0  0  0  0
  158.4410  213.1330  154.8570 C   0  0  0  0  0  0  0  0  0  0  0  0
  160.3600  209.9500  154.2960 N   0  0  0  0  0  2  0  0  0  0  0  0
  158.2600  214.2620  152.7260 C   0  0  0  0  0  3  0  0  0  0  0  0
  159.3190  212.0800  152.8400 C   0  0  0  0  0  0  0  0  0  0  0  0
  161.0660  207.6340  152.6900 C   0  0  0  0  0  3  0  0  0  0  0  0
  161.9560  208.3230  149.8450 C   0  0  0  0  0  3  0  0  0  0  0  0
  161.2060  206.1300  150.7550 C   0  0  0  0  0  0  0  0  0  0  0  0
  161.1480  208.8610  152.1580 C   0  0  0  0  0  0  0  0  0  0  0  0
  162.5300  210.3390  150.7850 F   0  0  0  0  0  0  0  0  0  0  0  0
  161.3680  206.9740  149.7370 C   0  0  0  0  0  3  0  0  0  0  0  0
  161.9150  209.1380  150.9100 C   0  0  0  0  0  0  0  0  0  0  0  0
  160.5830  204.8050  150.5030 C   0  0  0  0  0  1  0  0  0  0  0  0
  161.7360  206.4310  152.1180 C   0  0  0  0  0  2  0  0  0  0  0  0
  159.1430  213.2880  150.6210 C   0  0  0  0  0  0  0  0  0  0  0  0
  160.4560  213.3750  150.1360 C   0  0  0  0  0  3  0  0  0  0  0  0
  158.3250  213.4390  148.3320 C   0  0  0  0  0  0  0  0  0  0  0  0
  160.7040  213.4860  148.7660 C   0  0  0  0  0  3  0  0  0  0  0  0
  156.7870  213.2340  150.1360 F   0  0  0  0  0  0  0  0  0  0  0  0
  158.0720  213.3280  149.7050 C   0  0  0  0  0  0  0  0  0  0  0  0
  157.2970  213.4670  147.4490 F   0  0  0  0  0  0  0  0  0  0  0  0
  159.6390  213.5170  147.8650 C   0  0  0  0  0  3  0  0  0  0  0  0
  1 10  2  0  0  0  0
  1 11  1  0  0  0  0
  3  9  1  0  0  0  0
  4  8  1  0  0  0  0
  4  7  1  0  0  0  0
  5 11  1  0  0  0  0
  5  3  2  0  0  0  0
  6  8  2  0  0  0  0
  8  2  1  0  0  0  0
  9  7  1  0  0  0  0
 10  6  1  0  0  0  0
 11  4  2  0  0  0  0
 13 18  2  0  0  0  0
 14 20  1  0  0  0  0
 15 12  2  0  0  0  0
 15  3  1  0  0  0  0
 16 18  1  0  0  0  0
 17 13  1  0  0  0  0
 17 14  2  0  0  0  0
 18 15  1  0  0  0  0
 19 14  1  0  0  0  0
 20 12  1  0  0  0  0
 21  1  1  0  0  0  0
 22 21  1  0  0  0  0
 23 26  1  0  0  0  0
 24 22  2  0  0  0  0
 26 25  1  0  0  0  0
 26 21  2  0  0  0  0
 27 23  1  0  0  0  0
 28 23  2  0  0  0  0
 28 24  1  0  0  0  0
M  END
>  <MODEL>
6

>  <REMARK>
 VINA RESULT:      -8.1      2.682      4.285
  Name = 
  2 active torsions:
  status: ('A' for Active; 'I' for Inactive)
    1  A    between atoms: C_1  and  C_2
    2  A    between atoms: C_10  and  C_13
                            x       y       z     vdW  Elec       q    Type
                         _______ _______ _______ _____ _____    ______ ____

>  <TORSDO>
F 2

$$$$
=
 OpenBabel11052422513D

 28 31  0  0  0  0  0  0  0  0999 V2000
  161.1600  204.9910  148.9680 C   0  0  0  0  0  0  0  0  0  0  0  0
  160.8310  203.9530  153.1360 C   0  0  0  0  0  1  0  0  0  0  0  0
  161.6330  208.3350  150.4100 C   0  0  0  0  0  0  0  0  0  0  0  0
  161.1990  205.6730  151.3170 C   0  0  0  0  0  0  0  0  0  0  0  0
  161.5910  207.3540  149.5580 N   0  0  0  0  0  0  0  0  0  0  0  0
  160.7920  203.3560  150.7290 C   0  0  0  0  0  3  0  0  0  0  0  0
  161.4640  206.7270  152.3590 C   0  0  0  0  0  2  0  0  0  0  0  0
  160.9390  204.3450  151.7010 C   0  0  0  0  0  0  0  0  0  0  0  0
  161.4060  208.0730  151.8010 N   0  0  0  0  0  2  0  0  0  0  0  0
  160.9020  203.6760  149.3770 C   0  0  0  0  0  3  0  0  0  0  0  0
  161.3110  206.0000  149.9480 C   0  0  0  0  0  0  0  0  0  0  0  0
  162.3310  209.8870  148.6930 C   0  0  0  0  0  3  0  0  0  0  0  0
  161.2060  212.0590  150.5300 C   0  0  0  0  0  3  0  0  0  0  0  0
  161.4840  212.1000  148.0550 C   0  0  0  0  0  0  0  0  0  0  0  0
  161.8970  209.7190  149.9490 C   0  0  0  0  0  0  0  0  0  0  0  0
  161.9360  210.6660  152.2040 F   0  0  0  0  0  0  0  0  0  0  0  0
  160.8730  212.5130  149.1660 C   0  0  0  0  0  3  0  0  0  0  0  0
  161.7020  210.8640  150.8840 C   0  0  0  0  0  0  0  0  0  0  0  0
  161.0330  212.6310  146.7430 C   0  0  0  0  0  1  0  0  0  0  0  0
  162.6810  211.2100  148.1020 C   0  0  0  0  0  2  0  0  0  0  0  0
  161.2440  205.2860  147.5190 C   0  0  0  0  0  0  0  0  0  0  0  0
  160.3480  206.1950  146.9400 C   0  0  0  0  0  3  0  0  0  0  0  0
  162.2310  204.9150  145.3230 C   0  0  0  0  0  0  0  0  0  0  0  0
  160.3940  206.4680  145.5710 C   0  0  0  0  0  3  0  0  0  0  0  0
  163.0810  203.7600  147.2220 F   0  0  0  0  0  0  0  0  0  0  0  0
  162.1880  204.6370  146.6960 C   0  0  0  0  0  0  0  0  0  0  0  0
  163.1450  204.3010  144.5320 F   0  0  0  0  0  0  0  0  0  0  0  0
  161.3360  205.8300  144.7640 C   0  0  0  0  0  3  0  0  0  0  0  0
  1 10  2  0  0  0  0
  1 11  1  0  0  0  0
  3  9  1  0  0  0  0
  4  8  1  0  0  0  0
  4  7  1  0  0  0  0
  5 11  1  0  0  0  0
  5  3  2  0  0  0  0
  6  8  2  0  0  0  0
  8  2  1  0  0  0  0
  9  7  1  0  0  0  0
 10  6  1  0  0  0  0
 11  4  2  0  0  0  0
 12 15  2  0  0  0  0
 13 18  2  0  0  0  0
 14 20  1  0  0  0  0
 14 17  2  0  0  0  0
 15  3  1  0  0  0  0
 15 18  1  0  0  0  0
 17 13  1  0  0  0  0
 18 16  1  0  0  0  0
 19 14  1  0  0  0  0
 20 12  1  0  0  0  0
 21  1  1  0  0  0  0
 22 21  1  0  0  0  0
 23 26  1  0  0  0  0
 24 22  2  0  0  0  0
 26 25  1  0  0  0  0
 26 21  2  0  0  0  0
 27 23  1  0  0  0  0
 28 23  2  0  0  0  0
 28 24  1  0  0  0  0
M  END
>  <MODEL>
7

>  <REMARK>
 VINA RESULT:      -8.1      2.242      6.699
  Name = 
  2 active torsions:
  status: ('A' for Active; 'I' for Inactive)
    1  A    between atoms: C_1  and  C_2
    2  A    between atoms: C_10  and  C_13
                            x       y       z     vdW  Elec       q    Type
                         _______ _______ _______ _____ _____    ______ ____

>  <TORSDO>
F 2

$$$$
=
 OpenBabel11052422513D

 28 31  0  0  0  0  0  0  0  0999 V2000
  161.4240  208.7080  152.0190 C   0  0  0  0  0  0  0  0  0  0  0  0
  162.3360  210.6050  148.2610 C   0  0  0  0  0  1  0  0  0  0  0  0
  161.0760  205.7850  149.8250 C   0  0  0  0  0  0  0  0  0  0  0  0
  161.7330  208.5440  149.5980 C   0  0  0  0  0  0  0  0  0  0  0  0
  161.1760  206.5210  150.8920 N   0  0  0  0  0  0  0  0  0  0  0  0
  161.9870  210.6810  150.7150 C   0  0  0  0  0  3  0  0  0  0  0  0
  161.8540  207.6970  148.3590 C   0  0  0  0  0  2  0  0  0  0  0  0
  162.0060  209.9220  149.5450 C   0  0  0  0  0  0  0  0  0  0  0  0
  161.2440  206.3840  148.5350 N   0  0  0  0  0  2  0  0  0  0  0  0
  161.7000  210.0800  151.9400 C   0  0  0  0  0  3  0  0  0  0  0  0
  161.4420  207.9320  150.8370 C   0  0  0  0  0  0  0  0  0  0  0  0
  160.4530  203.6770  148.8180 C   0  0  0  0  0  3  0  0  0  0  0  0
  161.2580  202.4310  151.4930 C   0  0  0  0  0  3  0  0  0  0  0  0
  161.2190  201.3830  149.2340 C   0  0  0  0  0  0  0  0  0  0  0  0
  160.7720  204.3380  149.9380 C   0  0  0  0  0  0  0  0  0  0  0  0
  160.4560  204.4000  152.3630 F   0  0  0  0  0  0  0  0  0  0  0  0
  161.6930  201.4520  150.4780 C   0  0  0  0  0  3  0  0  0  0  0  0
  160.8050  203.6730  151.2730 C   0  0  0  0  0  0  0  0  0  0  0  0
  161.7620  200.3530  148.3110 C   0  0  0  0  0  1  0  0  0  0  0  0
  160.0810  202.2340  148.7790 C   0  0  0  0  0  2  0  0  0  0  0  0
  161.1010  208.1210  153.3400 C   0  0  0  0  0  0  0  0  0  0  0  0
  161.4430  206.7890  153.6120 C   0  0  0  0  0  3  0  0  0  0  0  0
  160.1020  208.2790  155.5550 C   0  0  0  0  0  0  0  0  0  0  0  0
  161.1250  206.2080  154.8420 C   0  0  0  0  0  3  0  0  0  0  0  0
  160.0810  210.1630  154.1010 F   0  0  0  0  0  0  0  0  0  0  0  0
  160.4180  208.8660  154.3230 C   0  0  0  0  0  0  0  0  0  0  0  0
  159.4540  208.9970  156.5060 F   0  0  0  0  0  0  0  0  0  0  0  0
  160.4560  206.9530  155.8130 C   0  0  0  0  0  3  0  0  0  0  0  0
  1 21  1  0  0  0  0
  2  8  1  0  0  0  0
  3 15  1  0  0  0  0
  3  5  2  0  0  0  0
  4 11  1  0  0  0  0
  6 10  2  0  0  0  0
  7  9  1  0  0  0  0
  7  4  1  0  0  0  0
  8  4  2  0  0  0  0
  8  6  1  0  0  0  0
  9  3  1  0  0  0  0
 10  1  1  0  0  0  0
 11  5  1  0  0  0  0
 11  1  2  0  0  0  0
 12 15  2  0  0  0  0
 14 17  2  0  0  0  0
 15 18  1  0  0  0  0
 17 13  1  0  0  0  0
 18 13  2  0  0  0  0
 18 16  1  0  0  0  0
 19 14  1  0  0  0  0
 20 12  1  0  0  0  0
 20 14  1  0  0  0  0
 21 22  2  0  0  0  0
 21 26  1  0  0  0  0
 22 24  1  0  0  0  0
 23 28  1  0  0  0  0
 23 27  1  0  0  0  0
 24 28  2  0  0  0  0
 25 26  1  0  0  0  0
 26 23  2  0  0  0  0
M  END
>  <MODEL>
8

>  <REMARK>
 VINA RESULT:      -8.0      1.998      4.760
  Name = 
  2 active torsions:
  status: ('A' for Active; 'I' for Inactive)
    1  A    between atoms: C_1  and  C_2
    2  A    between atoms: C_10  and  C_13
                            x       y       z     vdW  Elec       q    Type
                         _______ _______ _______ _____ _____    ______ ____

>  <TORSDO>
F 2

$$$$
=
 OpenBabel11052422513D

 28 31  0  0  0  0  0  0  0  0999 V2000
  161.3970  203.1420  147.8810 C   0  0  0  0  0  0  0  0  0  0  0  0
  160.7400  200.3680  151.1100 C   0  0  0  0  0  1  0  0  0  0  0  0
  160.9430  205.5620  150.6060 C   0  0  0  0  0  0  0  0  0  0  0  0
  160.9720  202.7380  150.2550 C   0  0  0  0  0  0  0  0  0  0  0  0
  161.2270  205.0510  149.4440 N   0  0  0  0  0  0  0  0  0  0  0  0
  161.1550  200.8730  148.7170 C   0  0  0  0  0  3  0  0  0  0  0  0
  160.8630  203.2620  151.6630 C   0  0  0  0  0  2  0  0  0  0  0  0
  160.9550  201.3530  150.0110 C   0  0  0  0  0  0  0  0  0  0  0  0
  160.5930  204.6950  151.6920 N   0  0  0  0  0  2  0  0  0  0  0  0
  161.3740  201.7580  147.6630 C   0  0  0  0  0  3  0  0  0  0  0  0
  161.1950  203.6370  149.1900 C   0  0  0  0  0  0  0  0  0  0  0  0
  160.6320  207.5010  152.0140 C   0  0  0  0  0  3  0  0  0  0  0  0
  162.0490  209.0510  149.7890 C   0  0  0  0  0  3  0  0  0  0  0  0
  161.9070  209.5890  152.2160 C   0  0  0  0  0  0  0  0  0  0  0  0
  160.9640  207.0300  150.8050 C   0  0  0  0  0  0  0  0  0  0  0  0
  160.9900  207.5460  148.4140 F   0  0  0  0  0  0  0  0  0  0  0  0
  162.5280  209.6700  151.0400 C   0  0  0  0  0  3  0  0  0  0  0  0
  161.3230  207.9300  149.6710 C   0  0  0  0  0  0  0  0  0  0  0  0
  162.5140  210.2500  153.4000 C   0  0  0  0  0  1  0  0  0  0  0  0
  160.5650  208.9510  152.3540 C   0  0  0  0  0  2  0  0  0  0  0  0
  161.6100  204.0440  146.7240 C   0  0  0  0  0  0  0  0  0  0  0  0
  162.4850  205.1320  146.8430 C   0  0  0  0  0  3  0  0  0  0  0  0
  161.1190  204.7310  144.4410 C   0  0  0  0  0  0  0  0  0  0  0  0
  162.6820  206.0080  145.7730 C   0  0  0  0  0  3  0  0  0  0  0  0
  160.0720  202.8000  145.3550 F   0  0  0  0  0  0  0  0  0  0  0  0
  160.9180  203.8500  145.5110 C   0  0  0  0  0  0  0  0  0  0  0  0
  160.4630  204.5410  143.2700 F   0  0  0  0  0  0  0  0  0  0  0  0
  162.0000  205.8070  144.5720 C   0  0  0  0  0  3  0  0  0  0  0  0
  1 11  1  0  0  0  0
  3 15  1  0  0  0  0
  3  9  1  0  0  0  0
  4  7  1  0  0  0  0
  5  3  2  0  0  0  0
  6  8  2  0  0  0  0
  7  9  1  0  0  0  0
  8  4  1  0  0  0  0
  8  2  1  0  0  0  0
 10  1  2  0  0  0  0
 10  6  1  0  0  0  0
 11  5  1  0  0  0  0
 11  4  2  0  0  0  0
 12 20  1  0  0  0  0
 13 17  1  0  0  0  0
 14 20  1  0  0  0  0
 14 19  1  0  0  0  0
 15 12  2  0  0  0  0
 16 18  1  0  0  0  0
 17 14  2  0  0  0  0
 18 13  2  0  0  0  0
 18 15  1  0  0  0  0
 21 22  1  0  0  0  0
 21  1  1  0  0  0  0
 23 28  2  0  0  0  0
 23 26  1  0  0  0  0
 24 22  2  0  0  0  0
 25 26  1  0  0  0  0
 26 21  2  0  0  0  0
 27 23  1  0  0  0  0
 28 24  1  0  0  0  0
M  END
>  <MODEL>
9

>  <REMARK>
 VINA RESULT:      -7.9      2.758      7.404
  Name = 
  2 active torsions:
  status: ('A' for Active; 'I' for Inactive)
    1  A    between atoms: C_1  and  C_2
    2  A    between atoms: C_10  and  C_13
                            x       y       z     vdW  Elec       q    Type
                         _______ _______ _______ _____ _____    ______ ____

>  <TORSDO>
F 2

$$$$
