=
 OpenBabel11052421533D

 30 33  0  0  1  0  0  0  0  0999 V2000
  160.4550  209.3620  151.5080 C   0  0  0  0  0  2  0  0  0  0  0  0
  161.0270  207.0630  150.4970 C   0  0  2  0  0  3  0  0  0  0  0  0
  161.6140  208.1120  155.4020 N   0  0  0  0  0  0  0  0  0  0  0  0
  160.1740  210.1100  152.8340 C   0  0  1  0  0  3  0  0  0  0  0  0
  161.4550  209.2640  155.9640 C   0  0  0  0  0  0  0  0  0  0  0  0
  160.9600  205.5550  150.7860 C   0  0  0  0  0  2  0  0  0  0  0  0
  162.4140  207.4350  149.9920 C   0  0  0  0  0  1  0  0  0  0  0  0
  161.0660  208.3240  154.0730 C   0  0  1  0  0  3  0  0  0  0  0  0
  161.3780  205.1580  152.1900 C   0  0  0  0  0  3  0  0  0  0  0  0
  160.6420  207.8490  151.7500 C   0  0  1  0  0  3  0  0  0  0  0  0
  161.2190  209.7410  153.7910 N   0  0  2  0  0  0  0  0  0  0  0  0
  161.7650  209.4990  157.2610 F   0  0  0  0  0  0  0  0  0  0  0  0
  161.0370  210.2850  155.0660 N   0  0  0  0  0  2  0  0  0  0  0  0
  161.6210  206.0480  153.1690 C   0  0  0  0  0  3  0  0  0  0  0  0
  161.6050  207.5280  152.9090 C   0  0  2  0  0  3  0  0  0  0  0  0
  159.1900  213.6450  152.9560 O   0  0  0  0  0  0  0  0  0  0  0  0
  159.2290  212.4220  153.2640 C   0  0  0  0  0  0  0  0  0  0  0  0
  160.1650  211.5550  152.5880 N   0  0  0  0  0  0  0  0  0  0  0  0
  158.3890  212.0780  155.6560 C   0  0  0  0  0  3  0  0  0  0  0  0
  157.1690  211.3190  153.9820 O   0  0  0  0  0  0  0  0  0  0  0  0
  158.2780  211.9450  154.2870 C   0  0  0  0  0  0  0  0  0  0  0  0
  157.2570  211.4680  156.1660 C   0  0  0  0  0  3  0  0  0  0  0  0
  156.5330  211.0080  155.0820 C   0  0  0  0  0  3  0  0  0  0  0  0
  160.9470  212.0920  151.4760 C   0  0  0  0  0  2  0  0  0  0  0  0
  160.0220  212.7280  150.4500 C   0  0  0  0  0  2  0  0  0  0  0  0
  160.8180  213.4850  149.4060 C   0  0  0  0  0  2  0  0  0  0  0  0
  160.9140  212.6790  148.1220 C   0  0  0  0  0  2  0  0  0  0  0  0
  163.3740  212.4260  147.8550 O   0  0  0  0  0  0  0  0  0  0  0  0
  162.1490  211.8500  148.1530 C   0  0  0  0  0  0  0  0  0  0  0  0
  162.0830  210.6300  148.4550 O   0  0  0  0  0  1  0  0  0  0  0  0
  1  4  1  0  0  0  0
  2  7  1  1  0  0  0
  2  6  1  0  0  0  0
  2 10  1  0  0  0  0
  3  5  2  0  0  0  0
  4 18  1  6  0  0  0
  4 11  1  0  0  0  0
  5 12  1  0  0  0  0
  6  9  1  0  0  0  0
  8  3  1  1  0  0  0
  9 14  2  0  0  0  0
 10  1  1  6  0  0  0
 10 15  1  0  0  0  0
 11  8  1  0  0  0  0
 11 13  1  1  0  0  0
 13  5  1  0  0  0  0
 15 14  1  1  0  0  0
 15  8  1  0  0  0  0
 16 17  2  0  0  0  0
 17 21  1  0  0  0  0
 18 17  1  0  0  0  0
 19 22  1  0  0  0  0
 20 21  1  0  0  0  0
 20 23  1  0  0  0  0
 21 19  2  0  0  0  0
 23 22  2  0  0  0  0
 24 18  1  0  0  0  0
 25 24  1  0  0  0  0
 26 25  1  0  0  0  0
 27 29  1  0  0  0  0
 27 26  1  0  0  0  0
 28 29  2  0  0  0  0
 29 30  1  0  0  0  0
M  END
>  <MODEL>
1

>  <REMARK>
 VINA RESULT:      -5.6      0.000      0.000
  Name = 
  7 active torsions:
  status: ('A' for Active; 'I' for Inactive)
    1  A    between atoms: C_4  and  N_13
    2  A    between atoms: C_7  and  C_15
    3  A    between atoms: C_7  and  C_16
    4  A    between atoms: C_8  and  C_12
    5  A    between atoms: N_13  and  C_27
    6  A    between atoms: C_16  and  C_30
    7  A    between atoms: C_27  and  C_30
                            x       y       z     vdW  Elec       q    Type
                         _______ _______ _______ _____ _____    ______ ____

>  <TORSDO>
F 7

$$$$
=
 OpenBabel11052421533D

 30 33  0  0  1  0  0  0  0  0999 V2000
  161.6500  210.4380  150.6390 C   0  0  0  0  0  2  0  0  0  0  0  0
  162.1650  212.0270  148.6770 C   0  0  2  0  0  3  0  0  0  0  0  0
  158.8840  213.1820  152.3400 N   0  0  0  0  0  0  0  0  0  0  0  0
  161.0350  210.3620  152.0580 C   0  0  1  0  0  3  0  0  0  0  0  0
  158.4920  212.4010  153.2920 C   0  0  0  0  0  0  0  0  0  0  0  0
  162.3640  213.5110  148.3330 C   0  0  0  0  0  2  0  0  0  0  0  0
  161.2110  211.3840  147.6800 C   0  0  0  0  0  1  0  0  0  0  0  0
  159.9970  212.4480  151.7610 C   0  0  1  0  0  3  0  0  0  0  0  0
  161.3560  214.4520  148.9680 C   0  0  0  0  0  3  0  0  0  0  0  0
  161.6660  211.8910  150.1160 C   0  0  1  0  0  3  0  0  0  0  0  0
  159.7400  211.0420  152.0270 N   0  0  2  0  0  0  0  0  0  0  0  0
  157.5050  212.7350  154.1570 F   0  0  0  0  0  0  0  0  0  0  0  0
  159.1100  211.1200  153.2720 N   0  0  0  0  0  2  0  0  0  0  0  0
  160.4630  214.0630  149.8950 C   0  0  0  0  0  3  0  0  0  0  0  0
  160.3230  212.6220  150.2970 C   0  0  2  0  0  3  0  0  0  0  0  0
  161.0040  207.3180  154.1100 O   0  0  0  0  0  0  0  0  0  0  0  0
  161.0460  208.5460  153.8270 C   0  0  0  0  0  0  0  0  0  0  0  0
  160.8880  208.9570  152.4520 N   0  0  0  0  0  0  0  0  0  0  0  0
  160.5130  209.6850  156.0560 C   0  0  0  0  0  3  0  0  0  0  0  0
  162.3300  210.2900  154.9610 O   0  0  0  0  0  0  0  0  0  0  0  0
  161.2910  209.4950  154.9310 C   0  0  0  0  0  0  0  0  0  0  0  0
  161.1590  210.6750  156.7720 C   0  0  0  0  0  3  0  0  0  0  0  0
  162.2830  211.0210  156.0460 C   0  0  0  0  0  3  0  0  0  0  0  0
  160.8160  207.9310  151.4130 C   0  0  0  0  0  2  0  0  0  0  0  0
  162.1240  207.1570  151.3570 C   0  0  0  0  0  2  0  0  0  0  0  0
  161.8610  205.6700  151.2290 C   0  0  0  0  0  2  0  0  0  0  0  0
  160.6380  205.4180  150.3650 C   0  0  0  0  0  2  0  0  0  0  0  0
  161.1640  203.6100  148.7380 O   0  0  0  0  0  1  0  0  0  0  0  0
  161.0740  204.9660  149.0160 C   0  0  0  0  0  0  0  0  0  0  0  0
  161.3540  205.8110  148.1270 O   0  0  0  0  0  0  0  0  0  0  0  0
  1  4  1  0  0  0  0
  2  7  1  6  0  0  0
  2 10  1  0  0  0  0
  3  5  2  0  0  0  0
  4 18  1  6  0  0  0
  5 12  1  0  0  0  0
  6  2  1  0  0  0  0
  6  9  1  0  0  0  0
  8 11  1  0  0  0  0
  8  3  1  6  0  0  0
  9 14  2  0  0  0  0
 10 15  1  0  0  0  0
 10  1  1  6  0  0  0
 11  4  1  0  0  0  0
 11 13  1  1  0  0  0
 13  5  1  0  0  0  0
 15 14  1  1  0  0  0
 15  8  1  0  0  0  0
 17 16  2  0  0  0  0
 17 21  1  0  0  0  0
 18 17  1  0  0  0  0
 19 22  1  0  0  0  0
 20 23  1  0  0  0  0
 21 20  1  0  0  0  0
 21 19  2  0  0  0  0
 23 22  2  0  0  0  0
 24 18  1  0  0  0  0
 25 24  1  0  0  0  0
 26 25  1  0  0  0  0
 27 26  1  0  0  0  0
 28 29  1  0  0  0  0
 29 27  1  0  0  0  0
 30 29  2  0  0  0  0
M  END
>  <MODEL>
2

>  <REMARK>
 VINA RESULT:      -5.4      2.780      5.798
  Name = 
  7 active torsions:
  status: ('A' for Active; 'I' for Inactive)
    1  A    between atoms: C_4  and  N_13
    2  A    between atoms: C_7  and  C_15
    3  A    between atoms: C_7  and  C_16
    4  A    between atoms: C_8  and  C_12
    5  A    between atoms: N_13  and  C_27
    6  A    between atoms: C_16  and  C_30
    7  A    between atoms: C_27  and  C_30
                            x       y       z     vdW  Elec       q    Type
                         _______ _______ _______ _____ _____    ______ ____

>  <TORSDO>
F 7

$$$$
=
 OpenBabel11052421533D

 30 33  0  0  1  0  0  0  0  0999 V2000
  159.9490  209.8120  153.1680 C   0  0  0  0  0  2  0  0  0  0  0  0
  158.4470  211.7710  153.9070 C   0  0  2  0  0  3  0  0  0  0  0  0
  161.3880  211.9800  149.8060 N   0  0  0  0  0  0  0  0  0  0  0  0
  160.7550  209.2350  151.9790 C   0  0  1  0  0  3  0  0  0  0  0  0
  162.2450  211.0890  149.4320 C   0  0  0  0  0  0  0  0  0  0  0  0
  157.5360  212.8810  153.3590 C   0  0  0  0  0  2  0  0  0  0  0  0
  159.4090  212.3480  154.9360 C   0  0  0  0  0  1  0  0  0  0  0  0
  160.6570  211.2980  150.8610 C   0  0  1  0  0  3  0  0  0  0  0  0
  158.0900  213.6220  152.1560 C   0  0  0  0  0  3  0  0  0  0  0  0
  159.1820  211.0880  152.7540 C   0  0  1  0  0  3  0  0  0  0  0  0
  161.5690  210.3140  151.4180 N   0  0  2  0  0  0  0  0  0  0  0  0
  163.0970  211.2780  148.3960 F   0  0  0  0  0  0  0  0  0  0  0  0
  162.2890  209.9460  150.2780 N   0  0  0  0  0  2  0  0  0  0  0  0
  159.2010  213.2420  151.5010 C   0  0  0  0  0  3  0  0  0  0  0  0
  160.0510  212.1020  151.9870 C   0  0  2  0  0  3  0  0  0  0  0  0
  162.5530  206.0350  152.0580 O   0  0  0  0  0  0  0  0  0  0  0  0
  161.9080  207.0110  151.5880 C   0  0  0  0  0  0  0  0  0  0  0  0
  161.5920  208.1270  152.4490 N   0  0  0  0  0  0  0  0  0  0  0  0
  160.3580  206.3130  149.6760 C   0  0  0  0  0  3  0  0  0  0  0  0
  162.1670  207.4840  149.2040 O   0  0  0  0  0  0  0  0  0  0  0  0
  161.4840  206.9350  150.1760 C   0  0  0  0  0  0  0  0  0  0  0  0
  160.4150  206.5200  148.3090 C   0  0  0  0  0  3  0  0  0  0  0  0
  161.5630  207.2500  148.0660 C   0  0  0  0  0  3  0  0  0  0  0  0
  161.9130  208.0320  153.8720 C   0  0  0  0  0  2  0  0  0  0  0  0
  161.0220  206.9950  154.5370 C   0  0  0  0  0  2  0  0  0  0  0  0
  160.5200  207.5000  155.8750 C   0  0  0  0  0  2  0  0  0  0  0  0
  161.6260  208.2300  156.6170 C   0  0  0  0  0  2  0  0  0  0  0  0
  162.0270  210.6170  157.1940 O   0  0  0  0  0  0  0  0  0  0  0  0
  161.1330  209.5680  157.0410 C   0  0  0  0  0  0  0  0  0  0  0  0
  159.9060  209.7510  157.2530 O   0  0  0  0  0  1  0  0  0  0  0  0
  2  7  1  1  0  0  0
  4 18  1  1  0  0  0
  4  1  1  0  0  0  0
  5  3  2  0  0  0  0
  5 13  1  0  0  0  0
  6  2  1  0  0  0  0
  8  3  1  6  0  0  0
  8 11  1  0  0  0  0
  8 15  1  0  0  0  0
  9  6  1  0  0  0  0
 10  1  1  1  0  0  0
 10  2  1  0  0  0  0
 11 13  1  6  0  0  0
 11  4  1  0  0  0  0
 12  5  1  0  0  0  0
 14  9  2  0  0  0  0
 15 14  1  6  0  0  0
 15 10  1  0  0  0  0
 17 16  2  0  0  0  0
 17 18  1  0  0  0  0
 18 24  1  0  0  0  0
 19 21  2  0  0  0  0
 20 21  1  0  0  0  0
 21 17  1  0  0  0  0
 22 19  1  0  0  0  0
 23 22  2  0  0  0  0
 23 20  1  0  0  0  0
 24 25  1  0  0  0  0
 25 26  1  0  0  0  0
 26 27  1  0  0  0  0
 27 29  1  0  0  0  0
 29 28  2  0  0  0  0
 29 30  1  0  0  0  0
M  END
>  <MODEL>
3

>  <REMARK>
 VINA RESULT:      -5.1      2.927      7.262
  Name = 
  7 active torsions:
  status: ('A' for Active; 'I' for Inactive)
    1  A    between atoms: C_4  and  N_13
    2  A    between atoms: C_7  and  C_15
    3  A    between atoms: C_7  and  C_16
    4  A    between atoms: C_8  and  C_12
    5  A    between atoms: N_13  and  C_27
    6  A    between atoms: C_16  and  C_30
    7  A    between atoms: C_27  and  C_30
                            x       y       z     vdW  Elec       q    Type
                         _______ _______ _______ _____ _____    ______ ____

>  <TORSDO>
F 7

$$$$
=
 OpenBabel11052421533D

 30 33  0  0  1  0  0  0  0  0999 V2000
  160.8650  208.6720  151.2590 C   0  0  0  0  0  2  0  0  0  0  0  0
  161.1080  206.2010  150.5720 C   0  0  2  0  0  3  0  0  0  0  0  0
  161.4780  207.7530  155.3640 N   0  0  0  0  0  0  0  0  0  0  0  0
  160.6130  209.6170  152.4600 C   0  0  1  0  0  3  0  0  0  0  0  0
  161.4770  208.9770  155.7750 C   0  0  0  0  0  0  0  0  0  0  0  0
  160.7590  204.7730  151.0190 C   0  0  0  0  0  2  0  0  0  0  0  0
  162.5740  206.2770  150.1690 C   0  0  0  0  0  1  0  0  0  0  0  0
  161.0820  207.8810  153.9720 C   0  0  1  0  0  3  0  0  0  0  0  0
  160.9900  204.4950  152.4930 C   0  0  0  0  0  3  0  0  0  0  0  0
  160.7670  207.1920  151.6860 C   0  0  1  0  0  3  0  0  0  0  0  0
  161.4990  209.2080  153.5500 N   0  0  2  0  0  0  0  0  0  0  0  0
  161.7200  209.3200  157.0630 F   0  0  0  0  0  0  0  0  0  0  0  0
  161.3140  209.9310  154.7320 N   0  0  0  0  0  2  0  0  0  0  0  0
  161.3050  205.4490  153.3860 C   0  0  0  0  0  3  0  0  0  0  0  0
  161.5650  206.8680  152.9620 C   0  0  2  0  0  3  0  0  0  0  0  0
  160.2480  213.2510  152.0880 O   0  0  0  0  0  0  0  0  0  0  0  0
  160.0500  212.0880  152.5320 C   0  0  0  0  0  0  0  0  0  0  0  0
  160.8730  211.0020  152.0550 N   0  0  0  0  0  0  0  0  0  0  0  0
  157.6680  211.4700  153.2370 C   0  0  0  0  0  3  0  0  0  0  0  0
  159.0940  212.1370  154.7820 O   0  0  0  0  0  0  0  0  0  0  0  0
  158.9520  211.9030  153.5020 C   0  0  0  0  0  0  0  0  0  0  0  0
  157.0320  211.4710  154.4650 C   0  0  0  0  0  3  0  0  0  0  0  0
  157.9620  211.8990  155.3930 C   0  0  0  0  0  3  0  0  0  0  0  0
  161.8220  211.2600  150.9730 C   0  0  0  0  0  2  0  0  0  0  0  0
  161.0860  211.7830  149.7500 C   0  0  0  0  0  2  0  0  0  0  0  0
  161.7760  211.3350  148.4780 C   0  0  0  0  0  2  0  0  0  0  0  0
  162.9540  212.2400  148.1640 C   0  0  0  0  0  2  0  0  0  0  0  0
  162.4710  213.0770  145.8710 O   0  0  0  0  0  0  0  0  0  0  0  0
  162.5130  213.3170  147.2360 C   0  0  0  0  0  0  0  0  0  0  0  0
  162.1730  214.4400  147.6890 O   0  0  0  0  0  1  0  0  0  0  0  0
  1  4  1  0  0  0  0
  2  7  1  1  0  0  0
  2  6  1  0  0  0  0
  2 10  1  0  0  0  0
  3  5  2  0  0  0  0
  4 18  1  6  0  0  0
  4 11  1  0  0  0  0
  5 12  1  0  0  0  0
  6  9  1  0  0  0  0
  8  3  1  1  0  0  0
  9 14  2  0  0  0  0
 10  1  1  6  0  0  0
 10 15  1  0  0  0  0
 11  8  1  0  0  0  0
 11 13  1  1  0  0  0
 13  5  1  0  0  0  0
 15 14  1  1  0  0  0
 15  8  1  0  0  0  0
 16 17  2  0  0  0  0
 17 21  1  0  0  0  0
 18 17  1  0  0  0  0
 19 21  2  0  0  0  0
 19 22  1  0  0  0  0
 20 23  1  0  0  0  0
 21 20  1  0  0  0  0
 22 23  2  0  0  0  0
 24 18  1  0  0  0  0
 25 24  1  0  0  0  0
 26 25  1  0  0  0  0
 27 26  1  0  0  0  0
 28 29  2  0  0  0  0
 29 30  1  0  0  0  0
 29 27  1  0  0  0  0
M  END
>  <MODEL>
4

>  <REMARK>
 VINA RESULT:      -5.1      1.262      1.517
  Name = 
  7 active torsions:
  status: ('A' for Active; 'I' for Inactive)
    1  A    between atoms: C_4  and  N_13
    2  A    between atoms: C_7  and  C_15
    3  A    between atoms: C_7  and  C_16
    4  A    between atoms: C_8  and  C_12
    5  A    between atoms: N_13  and  C_27
    6  A    between atoms: C_16  and  C_30
    7  A    between atoms: C_27  and  C_30
                            x       y       z     vdW  Elec       q    Type
                         _______ _______ _______ _____ _____    ______ ____

>  <TORSDO>
F 7

$$$$
=
 OpenBabel11052421533D

 30 33  0  0  1  0  0  0  0  0999 V2000
  161.2100  204.9850  148.6330 C   0  0  0  0  0  2  0  0  0  0  0  0
  160.8590  202.5330  147.9230 C   0  0  2  0  0  3  0  0  0  0  0  0
  160.9290  203.9940  152.7580 N   0  0  0  0  0  0  0  0  0  0  0  0
  161.0540  205.9800  149.8090 C   0  0  1  0  0  3  0  0  0  0  0  0
  161.2060  205.1760  153.1970 C   0  0  0  0  0  0  0  0  0  0  0  0
  160.0660  201.2650  148.2770 C   0  0  0  0  0  2  0  0  0  0  0  0
  162.3320  202.1930  147.7420 C   0  0  0  0  0  1  0  0  0  0  0  0
  160.7950  204.2060  151.3260 C   0  0  1  0  0  3  0  0  0  0  0  0
  159.9890  200.9560  149.7610 C   0  0  0  0  0  3  0  0  0  0  0  0
  160.6440  203.5960  149.0010 C   0  0  1  0  0  3  0  0  0  0  0  0
  161.6200  205.3580  151.0060 N   0  0  2  0  0  0  0  0  0  0  0  0
  161.3400  205.4590  154.5140 F   0  0  0  0  0  0  0  0  0  0  0  0
  161.4700  206.1220  152.1670 N   0  0  0  0  0  2  0  0  0  0  0  0
  160.4200  201.7990  150.7150 C   0  0  0  0  0  3  0  0  0  0  0  0
  161.1230  203.0820  150.3720 C   0  0  2  0  0  3  0  0  0  0  0  0
  162.7350  208.6180  147.8860 O   0  0  0  0  0  0  0  0  0  0  0  0
  162.0590  207.5790  148.1170 C   0  0  0  0  0  0  0  0  0  0  0  0
  161.7440  207.2320  149.4830 N   0  0  0  0  0  0  0  0  0  0  0  0
  162.4230  205.8290  146.2850 C   0  0  0  0  0  3  0  0  0  0  0  0
  160.4570  206.8180  146.4350 O   0  0  0  0  0  0  0  0  0  0  0  0
  161.6540  206.7550  146.9610 C   0  0  0  0  0  0  0  0  0  0  0  0
  161.5970  205.3380  145.2910 C   0  0  0  0  0  3  0  0  0  0  0  0
  160.3850  205.9890  145.4240 C   0  0  0  0  0  3  0  0  0  0  0  0
  162.3320  208.0220  150.5640 C   0  0  0  0  0  2  0  0  0  0  0  0
  161.6050  209.3510  150.6890 C   0  0  0  0  0  2  0  0  0  0  0  0
  161.7240  209.8960  152.0990 C   0  0  0  0  0  2  0  0  0  0  0  0
  160.5210  209.4850  152.9310 C   0  0  0  0  0  2  0  0  0  0  0  0
  160.6340  208.4630  155.1960 O   0  0  0  0  0  1  0  0  0  0  0  0
  160.8770  209.5520  154.3740 C   0  0  0  0  0  0  0  0  0  0  0  0
  161.4020  210.5930  154.8470 O   0  0  0  0  0  0  0  0  0  0  0  0
  1  4  1  0  0  0  0
  2  7  1  1  0  0  0
  2  6  1  0  0  0  0
  2 10  1  0  0  0  0
  3  5  2  0  0  0  0
  4 18  1  6  0  0  0
  4 11  1  0  0  0  0
  5 12  1  0  0  0  0
  6  9  1  0  0  0  0
  8  3  1  1  0  0  0
  9 14  2  0  0  0  0
 10  1  1  6  0  0  0
 10 15  1  0  0  0  0
 11  8  1  0  0  0  0
 11 13  1  1  0  0  0
 13  5  1  0  0  0  0
 15 14  1  1  0  0  0
 15  8  1  0  0  0  0
 16 17  2  0  0  0  0
 17 18  1  0  0  0  0
 18 24  1  0  0  0  0
 19 21  2  0  0  0  0
 20 21  1  0  0  0  0
 21 17  1  0  0  0  0
 22 23  2  0  0  0  0
 22 19  1  0  0  0  0
 23 20  1  0  0  0  0
 24 25  1  0  0  0  0
 25 26  1  0  0  0  0
 26 27  1  0  0  0  0
 27 29  1  0  0  0  0
 29 30  2  0  0  0  0
 29 28  1  0  0  0  0
M  END
>  <MODEL>
5

>  <REMARK>
 VINA RESULT:      -4.9      3.639      6.902
  Name = 
  7 active torsions:
  status: ('A' for Active; 'I' for Inactive)
    1  A    between atoms: C_4  and  N_13
    2  A    between atoms: C_7  and  C_15
    3  A    between atoms: C_7  and  C_16
    4  A    between atoms: C_8  and  C_12
    5  A    between atoms: N_13  and  C_27
    6  A    between atoms: C_16  and  C_30
    7  A    between atoms: C_27  and  C_30
                            x       y       z     vdW  Elec       q    Type
                         _______ _______ _______ _____ _____    ______ ____

>  <TORSDO>
F 7

$$$$
=
 OpenBabel11052421533D

 30 33  0  0  1  0  0  0  0  0999 V2000
  161.2780  204.0200  148.9510 C   0  0  0  0  0  2  0  0  0  0  0  0
  160.8820  201.4740  148.8970 C   0  0  2  0  0  3  0  0  0  0  0  0
  161.1830  204.2810  144.7090 N   0  0  0  0  0  0  0  0  0  0  0  0
  161.7090  205.2360  148.0960 C   0  0  1  0  0  3  0  0  0  0  0  0
  161.2690  205.5690  144.6540 C   0  0  0  0  0  0  0  0  0  0  0  0
  161.2480  200.2020  148.1180 C   0  0  0  0  0  2  0  0  0  0  0  0
  159.3780  201.5280  149.1290 C   0  0  0  0  0  1  0  0  0  0  0  0
  161.3970  204.0050  146.1200 C   0  0  1  0  0  3  0  0  0  0  0  0
  161.2060  200.3460  146.6080 C   0  0  0  0  0  3  0  0  0  0  0  0
  161.3910  202.7060  148.1480 C   0  0  1  0  0  3  0  0  0  0  0  0
  160.9630  205.1910  146.8380 N   0  0  2  0  0  0  0  0  0  0  0  0
  161.2070  206.2610  143.4920 F   0  0  0  0  0  0  0  0  0  0  0  0
  161.3200  206.1940  145.9310 N   0  0  0  0  0  2  0  0  0  0  0  0
  161.0350  201.5230  145.9820 C   0  0  0  0  0  3  0  0  0  0  0  0
  160.7590  202.7880  146.7460 C   0  0  2  0  0  3  0  0  0  0  0  0
  160.8310  207.5260  150.8280 O   0  0  0  0  0  0  0  0  0  0  0  0
  161.1540  206.4530  150.2490 C   0  0  0  0  0  0  0  0  0  0  0  0
  161.4350  206.4730  148.8330 N   0  0  0  0  0  0  0  0  0  0  0  0
  162.3040  204.6350  151.6350 C   0  0  0  0  0  3  0  0  0  0  0  0
  160.1190  204.5290  151.3470 O   0  0  0  0  0  0  0  0  0  0  0  0
  161.1930  205.2220  151.0630 C   0  0  0  0  0  0  0  0  0  0  0  0
  161.8190  203.5140  152.2840 C   0  0  0  0  0  3  0  0  0  0  0  0
  160.4540  203.4910  152.0700 C   0  0  0  0  0  3  0  0  0  0  0  0
  161.2070  207.7100  148.0870 C   0  0  0  0  0  2  0  0  0  0  0  0
  162.3890  208.6490  148.2660 C   0  0  0  0  0  2  0  0  0  0  0  0
  161.9560  209.9320  148.9460 C   0  0  0  0  0  2  0  0  0  0  0  0
  162.5910  211.1340  148.2690 C   0  0  0  0  0  2  0  0  0  0  0  0
  160.5670  212.0020  147.1120 O   0  0  0  0  0  0  0  0  0  0  0  0
  161.5580  212.1850  148.0640 C   0  0  0  0  0  0  0  0  0  0  0  0
  161.5790  213.2350  148.7570 O   0  0  0  0  0  1  0  0  0  0  0  0
  2  7  1  6  0  0  0
  4 18  1  1  0  0  0
  4  1  1  0  0  0  0
  5  3  2  0  0  0  0
  5 13  1  0  0  0  0
  6  2  1  0  0  0  0
  8  3  1  6  0  0  0
  8 15  1  0  0  0  0
  8 11  1  0  0  0  0
  9  6  1  0  0  0  0
 10  2  1  0  0  0  0
 10  1  1  1  0  0  0
 11 13  1  6  0  0  0
 11  4  1  0  0  0  0
 12  5  1  0  0  0  0
 14  9  2  0  0  0  0
 15 14  1  6  0  0  0
 15 10  1  0  0  0  0
 17 16  2  0  0  0  0
 17 21  1  0  0  0  0
 18 17  1  0  0  0  0
 19 22  1  0  0  0  0
 20 23  1  0  0  0  0
 21 20  1  0  0  0  0
 21 19  2  0  0  0  0
 23 22  2  0  0  0  0
 24 25  1  0  0  0  0
 24 18  1  0  0  0  0
 25 26  1  0  0  0  0
 27 26  1  0  0  0  0
 28 29  2  0  0  0  0
 29 27  1  0  0  0  0
 29 30  1  0  0  0  0
M  END
>  <MODEL>
6

>  <REMARK>
 VINA RESULT:      -4.9      5.368      7.681
  Name = 
  7 active torsions:
  status: ('A' for Active; 'I' for Inactive)
    1  A    between atoms: C_4  and  N_13
    2  A    between atoms: C_7  and  C_15
    3  A    between atoms: C_7  and  C_16
    4  A    between atoms: C_8  and  C_12
    5  A    between atoms: N_13  and  C_27
    6  A    between atoms: C_16  and  C_30
    7  A    between atoms: C_27  and  C_30
                            x       y       z     vdW  Elec       q    Type
                         _______ _______ _______ _____ _____    ______ ____

>  <TORSDO>
F 7

$$$$
=
 OpenBabel11052421533D

 30 33  0  0  1  0  0  0  0  0999 V2000
  159.3700  210.6510  152.9520 C   0  0  0  0  0  2  0  0  0  0  0  0
  157.7010  212.5160  153.5640 C   0  0  2  0  0  3  0  0  0  0  0  0
  161.7660  211.4590  156.3690 N   0  0  0  0  0  0  0  0  0  0  0  0
  160.7950  210.1100  153.2230 C   0  0  1  0  0  3  0  0  0  0  0  0
  162.5850  210.4760  156.1910 C   0  0  0  0  0  0  0  0  0  0  0  0
  157.6220  213.9370  154.1430 C   0  0  0  0  0  2  0  0  0  0  0  0
  156.6820  211.6170  154.2500 C   0  0  0  0  0  1  0  0  0  0  0  0
  160.9730  211.4400  155.1510 C   0  0  1  0  0  3  0  0  0  0  0  0
  158.4990  214.1790  155.3580 C   0  0  0  0  0  3  0  0  0  0  0  0
  159.1250  211.9780  153.7030 C   0  0  1  0  0  3  0  0  0  0  0  0
  160.9950  210.0690  154.6720 N   0  0  2  0  0  0  0  0  0  0  0  0
  163.5740  210.1760  157.0660 F   0  0  0  0  0  0  0  0  0  0  0  0
  162.2800  209.6750  155.0560 N   0  0  0  0  0  2  0  0  0  0  0  0
  159.4070  213.2930  155.8020 C   0  0  0  0  0  3  0  0  0  0  0  0
  159.5450  211.9300  155.1840 C   0  0  2  0  0  3  0  0  0  0  0  0
  161.3140  207.4520  150.7450 O   0  0  0  0  0  0  0  0  0  0  0  0
  161.2970  208.6110  151.2410 C   0  0  0  0  0  0  0  0  0  0  0  0
  160.9330  208.7780  152.6290 N   0  0  0  0  0  0  0  0  0  0  0  0
  161.9560  209.6810  149.0120 C   0  0  0  0  0  3  0  0  0  0  0  0
  161.6240  210.9860  150.7600 O   0  0  0  0  0  0  0  0  0  0  0  0
  161.6230  209.7420  150.3500 C   0  0  0  0  0  0  0  0  0  0  0  0
  162.1720  210.9960  148.6390 C   0  0  0  0  0  3  0  0  0  0  0  0
  161.9560  211.7680  149.7650 C   0  0  0  0  0  3  0  0  0  0  0  0
  160.4680  207.6130  153.3790 C   0  0  0  0  0  2  0  0  0  0  0  0
  161.5800  206.5810  153.4790 C   0  0  0  0  0  2  0  0  0  0  0  0
  161.0720  205.2060  153.0910 C   0  0  0  0  0  2  0  0  0  0  0  0
  161.9560  204.5960  152.0170 C   0  0  0  0  0  2  0  0  0  0  0  0
  161.0730  202.3910  151.2770 O   0  0  0  0  0  1  0  0  0  0  0  0
  161.1210  203.7660  151.1070 C   0  0  0  0  0  0  0  0  0  0  0  0
  160.4550  204.3110  150.1890 O   0  0  0  0  0  0  0  0  0  0  0  0
  1  4  1  0  0  0  0
  2 10  1  0  0  0  0
  2  6  1  0  0  0  0
  2  7  1  1  0  0  0
  4 18  1  1  0  0  0
  4 11  1  0  0  0  0
  5  3  2  0  0  0  0
  5 12  1  0  0  0  0
  6  9  1  0  0  0  0
  8 15  1  0  0  0  0
  8  3  1  1  0  0  0
  9 14  2  0  0  0  0
 10  1  1  1  0  0  0
 10 15  1  0  0  0  0
 11 13  1  6  0  0  0
 11  8  1  0  0  0  0
 13  5  1  0  0  0  0
 15 14  1  6  0  0  0
 16 17  2  0  0  0  0
 17 18  1  0  0  0  0
 18 24  1  0  0  0  0
 19 21  2  0  0  0  0
 21 20  1  0  0  0  0
 21 17  1  0  0  0  0
 22 19  1  0  0  0  0
 22 23  2  0  0  0  0
 23 20  1  0  0  0  0
 24 25  1  0  0  0  0
 26 25  1  0  0  0  0
 27 26  1  0  0  0  0
 29 28  1  0  0  0  0
 29 27  1  0  0  0  0
 30 29  2  0  0  0  0
M  END
>  <MODEL>
7

>  <REMARK>
 VINA RESULT:      -4.8      2.590      6.541
  Name = 
  7 active torsions:
  status: ('A' for Active; 'I' for Inactive)
    1  A    between atoms: C_4  and  N_13
    2  A    between atoms: C_7  and  C_15
    3  A    between atoms: C_7  and  C_16
    4  A    between atoms: C_8  and  C_12
    5  A    between atoms: N_13  and  C_27
    6  A    between atoms: C_16  and  C_30
    7  A    between atoms: C_27  and  C_30
                            x       y       z     vdW  Elec       q    Type
                         _______ _______ _______ _____ _____    ______ ____

>  <TORSDO>
F 7

$$$$
=
 OpenBabel11052421533D

 30 33  0  0  1  0  0  0  0  0999 V2000
  161.0470  206.2230  151.0370 C   0  0  0  0  0  2  0  0  0  0  0  0
  160.9230  206.6810  153.5690 C   0  0  2  0  0  3  0  0  0  0  0  0
  162.0180  210.2750  150.1940 N   0  0  0  0  0  0  0  0  0  0  0  0
  161.0460  206.8970  149.6430 C   0  0  1  0  0  3  0  0  0  0  0  0
  162.2060  210.1050  148.9270 C   0  0  0  0  0  0  0  0  0  0  0  0
  160.4650  207.7290  154.5960 C   0  0  0  0  0  2  0  0  0  0  0  0
  162.3310  206.2090  153.9000 C   0  0  0  0  0  1  0  0  0  0  0  0
  161.4820  208.9910  150.6140 C   0  0  1  0  0  3  0  0  0  0  0  0
  160.8300  209.1610  154.2480 C   0  0  0  0  0  3  0  0  0  0  0  0
  160.8290  207.2620  152.1580 C   0  0  1  0  0  3  0  0  0  0  0  0
  161.9980  208.0080  149.6770 N   0  0  2  0  0  0  0  0  0  0  0  0
  162.6330  211.0950  148.1080 F   0  0  0  0  0  0  0  0  0  0  0  0
  162.0350  208.7590  148.4990 N   0  0  0  0  0  2  0  0  0  0  0  0
  161.3540  209.5250  153.0650 C   0  0  0  0  0  3  0  0  0  0  0  0
  161.7260  208.5070  152.0230 C   0  0  2  0  0  3  0  0  0  0  0  0
  161.9130  203.7010  148.0600 O   0  0  0  0  0  0  0  0  0  0  0  0
  161.5010  204.5050  148.9390 C   0  0  0  0  0  0  0  0  0  0  0  0
  161.4160  205.9120  148.6230 N   0  0  0  0  0  0  0  0  0  0  0  0
  162.0180  203.7200  151.3190 C   0  0  0  0  0  3  0  0  0  0  0  0
  159.9370  203.6170  150.5950 O   0  0  0  0  0  0  0  0  0  0  0  0
  161.1590  203.9530  150.2650 C   0  0  0  0  0  0  0  0  0  0  0  0
  161.2190  203.2000  152.3210 C   0  0  0  0  0  3  0  0  0  0  0  0
  159.9330  203.1520  151.8180 C   0  0  0  0  0  3  0  0  0  0  0  0
  161.9340  206.3770  147.3380 C   0  0  0  0  0  2  0  0  0  0  0  0
  160.8560  206.2660  146.2720 C   0  0  0  0  0  2  0  0  0  0  0  0
  161.4540  205.8280  144.9500 C   0  0  0  0  0  2  0  0  0  0  0  0
  161.9510  204.3960  145.0390 C   0  0  0  0  0  2  0  0  0  0  0  0
  159.6970  203.8520  144.1360 O   0  0  0  0  0  0  0  0  0  0  0  0
  160.8000  203.4660  144.8810 C   0  0  0  0  0  0  0  0  0  0  0  0
  160.8300  202.3280  145.4180 O   0  0  0  0  0  1  0  0  0  0  0  0
  2  7  1  1  0  0  0
  2  6  1  0  0  0  0
  4 18  1  6  0  0  0
  4 11  1  0  0  0  0
  4  1  1  0  0  0  0
  5  3  2  0  0  0  0
  8  3  1  1  0  0  0
  8 15  1  0  0  0  0
  9  6  1  0  0  0  0
 10  1  1  6  0  0  0
 10  2  1  0  0  0  0
 11 13  1  6  0  0  0
 11  8  1  0  0  0  0
 12  5  1  0  0  0  0
 13  5  1  0  0  0  0
 14  9  2  0  0  0  0
 15 10  1  0  0  0  0
 15 14  1  1  0  0  0
 16 17  2  0  0  0  0
 17 21  1  0  0  0  0
 18 17  1  0  0  0  0
 19 22  1  0  0  0  0
 20 23  1  0  0  0  0
 21 20  1  0  0  0  0
 21 19  2  0  0  0  0
 23 22  2  0  0  0  0
 24 18  1  0  0  0  0
 25 24  1  0  0  0  0
 26 27  1  0  0  0  0
 26 25  1  0  0  0  0
 28 29  2  0  0  0  0
 29 27  1  0  0  0  0
 29 30  1  0  0  0  0
M  END
>  <MODEL>
8

>  <REMARK>
 VINA RESULT:      -4.7      4.598      7.329
  Name = 
  7 active torsions:
  status: ('A' for Active; 'I' for Inactive)
    1  A    between atoms: C_4  and  N_13
    2  A    between atoms: C_7  and  C_15
    3  A    between atoms: C_7  and  C_16
    4  A    between atoms: C_8  and  C_12
    5  A    between atoms: N_13  and  C_27
    6  A    between atoms: C_16  and  C_30
    7  A    between atoms: C_27  and  C_30
                            x       y       z     vdW  Elec       q    Type
                         _______ _______ _______ _____ _____    ______ ____

>  <TORSDO>
F 7

$$$$
=
 OpenBabel11052421533D

 30 33  0  0  1  0  0  0  0  0999 V2000
  161.5810  209.1570  153.4480 C   0  0  0  0  0  2  0  0  0  0  0  0
  161.5180  209.1000  156.0230 C   0  0  2  0  0  3  0  0  0  0  0  0
  158.5890  212.1730  153.2860 N   0  0  0  0  0  0  0  0  0  0  0  0
  160.8060  209.6160  152.1880 C   0  0  1  0  0  3  0  0  0  0  0  0
  158.6380  212.3390  152.0060 C   0  0  0  0  0  0  0  0  0  0  0  0
  160.5580  209.1850  157.2190 C   0  0  0  0  0  2  0  0  0  0  0  0
  162.7100  210.0200  156.2450 C   0  0  0  0  0  1  0  0  0  0  0  0
  159.4390  211.0120  153.4920 C   0  0  1  0  0  3  0  0  0  0  0  0
  159.5050  210.2720  157.1130 C   0  0  0  0  0  3  0  0  0  0  0  0
  160.7690  209.4330  154.7320 C   0  0  1  0  0  3  0  0  0  0  0  0
  160.3910  211.0040  152.3940 N   0  0  2  0  0  0  0  0  0  0  0  0
  157.9140  213.2830  151.3600 F   0  0  0  0  0  0  0  0  0  0  0  0
  159.6040  211.5200  151.3600 N   0  0  0  0  0  2  0  0  0  0  0  0
  159.2990  210.9970  156.0000 C   0  0  0  0  0  3  0  0  0  0  0  0
  160.1870  210.8570  154.7950 C   0  0  2  0  0  3  0  0  0  0  0  0
  162.8870  208.1280  149.5550 O   0  0  0  0  0  0  0  0  0  0  0  0
  162.0700  208.1930  150.5130 C   0  0  0  0  0  0  0  0  0  0  0  0
  161.6690  209.4890  151.0100 N   0  0  0  0  0  0  0  0  0  0  0  0
  160.6660  206.0540  150.5520 C   0  0  0  0  0  3  0  0  0  0  0  0
  162.0290  206.4620  152.2380 O   0  0  0  0  0  0  0  0  0  0  0  0
  161.5930  206.9230  151.0930 C   0  0  0  0  0  0  0  0  0  0  0  0
  160.5630  205.0260  151.4710 C   0  0  0  0  0  3  0  0  0  0  0  0
  161.4290  205.3300  152.5050 C   0  0  0  0  0  3  0  0  0  0  0  0
  162.3250  210.6810  150.4770 C   0  0  0  0  0  2  0  0  0  0  0  0
  161.9590  210.8640  149.0130 C   0  0  0  0  0  2  0  0  0  0  0  0
  162.4370  212.2100  148.5050 C   0  0  0  0  0  2  0  0  0  0  0  0
  161.2680  213.1680  148.3550 C   0  0  0  0  0  2  0  0  0  0  0  0
  159.1810  212.5930  147.1290 O   0  0  0  0  0  1  0  0  0  0  0  0
  160.5410  212.8610  147.0940 C   0  0  0  0  0  0  0  0  0  0  0  0
  161.1560  212.8500  145.9960 O   0  0  0  0  0  0  0  0  0  0  0  0
  2  7  1  1  0  0  0
  2  6  1  0  0  0  0
  4 18  1  6  0  0  0
  4 11  1  0  0  0  0
  4  1  1  0  0  0  0
  5  3  2  0  0  0  0
  8  3  1  1  0  0  0
  8 15  1  0  0  0  0
  9  6  1  0  0  0  0
 10  1  1  6  0  0  0
 10 15  1  0  0  0  0
 10  2  1  0  0  0  0
 11 13  1  6  0  0  0
 11  8  1  0  0  0  0
 12  5  1  0  0  0  0
 13  5  1  0  0  0  0
 14  9  2  0  0  0  0
 15 14  1  1  0  0  0
 16 17  2  0  0  0  0
 17 18  1  0  0  0  0
 17 21  1  0  0  0  0
 19 21  2  0  0  0  0
 19 22  1  0  0  0  0
 20 23  1  0  0  0  0
 21 20  1  0  0  0  0
 22 23  2  0  0  0  0
 24 18  1  0  0  0  0
 25 24  1  0  0  0  0
 26 25  1  0  0  0  0
 27 26  1  0  0  0  0
 29 28  1  0  0  0  0
 29 27  1  0  0  0  0
 30 29  2  0  0  0  0
M  END
>  <MODEL>
9

>  <REMARK>
 VINA RESULT:      -4.7      2.830      5.399
  Name = 
  7 active torsions:
  status: ('A' for Active; 'I' for Inactive)
    1  A    between atoms: C_4  and  N_13
    2  A    between atoms: C_7  and  C_15
    3  A    between atoms: C_7  and  C_16
    4  A    between atoms: C_8  and  C_12
    5  A    between atoms: N_13  and  C_27
    6  A    between atoms: C_16  and  C_30
    7  A    between atoms: C_27  and  C_30
                            x       y       z     vdW  Elec       q    Type
                         _______ _______ _______ _____ _____    ______ ____

>  <TORSDO>
F 7

$$$$
