=
 OpenBabel11062408453D

 55 62  0  0  1  0  0  0  0  0999 V2000
  161.9100  209.7820  148.8050 O   0  0  0  0  0  0  0  0  0  0  0  0
  161.1490  212.0660  152.6460 C   0  0  0  0  0  2  0  0  0  0  0  0
  162.7110  210.3670  152.0580 O   0  0  0  0  0  0  0  0  0  0  0  0
  160.7080  208.0600  153.8860 C   0  0  0  0  0  2  0  0  0  0  0  0
  160.4530  206.9650  154.9160 C   0  0  0  0  0  2  0  0  0  0  0  0
  161.3490  206.2600  152.2730 C   0  0  0  0  0  0  0  0  0  0  0  0
  161.7140  205.4260  153.4280 C   0  0  0  0  0  3  0  0  0  0  0  0
  160.4680  209.8300  151.6530 N   0  0  0  0  0  2  0  0  0  0  0  0
  161.3320  205.7700  154.6620 C   0  0  0  0  0  3  0  0  0  0  0  0
  162.9980  211.9730  148.3040 C   0  0  0  0  0  2  0  0  0  0  0  0
  160.4890  207.4870  152.4780 C   0  0  2  0  0  3  0  0  0  0  0  0
  160.4750  212.9890  147.4160 C   0  0  1  0  0  3  0  0  0  0  0  0
  160.7960  208.9080  148.9350 C   0  0  0  0  0  2  0  0  0  0  0  0
  160.6220  211.5500  147.8470 C   0  0  0  0  0  3  0  0  0  0  0  0
  161.5330  206.7580  149.9280 C   0  0  0  0  0  0  0  0  0  0  0  0
  159.1000  212.8920  151.4930 C   0  0  0  0  0  2  0  0  0  0  0  0
  161.7750  205.9450  151.0870 N   0  0  0  0  0  0  0  0  0  0  0  0
  160.6080  213.0160  151.5870 C   0  0  0  0  0  2  0  0  0  0  0  0
  161.5000  210.7300  152.0770 C   0  0  0  0  0  0  0  0  0  0  0  0
  163.0420  212.7600  146.9920 C   0  0  0  0  0  2  0  0  0  0  0  0
  158.5300  213.9380  150.5400 C   0  0  1  0  0  3  0  0  0  0  0  0
  161.7950  211.0770  148.2990 C   0  0  0  0  0  0  0  0  0  0  0  0
  160.7440  208.4730  151.4230 N   0  0  0  0  0  0  0  0  0  0  0  0
  161.0200  207.9970  150.0900 C   0  0  0  0  0  0  0  0  0  0  0  0
  158.6920  213.5140  149.0850 C   0  0  0  0  0  2  0  0  0  0  0  0
  160.1230  213.8270  148.6260 C   0  0  0  0  0  2  0  0  0  0  0  0
  161.7480  213.5620  146.7570 C   0  0  0  0  0  2  0  0  0  0  0  0
  161.2140  206.8410  147.4420 C   0  0  0  0  0  3  0  0  0  0  0  0
  161.2280  204.6840  146.1570 C   0  0  1  0  0  3  0  0  0  0  0  0
  161.9800  204.6760  148.5480 C   0  0  0  0  0  2  0  0  0  0  0  0
  162.3200  204.2150  147.1350 C   0  0  0  0  0  2  0  0  0  0  0  0
  160.9270  206.1600  146.3220 C   0  0  0  0  0  3  0  0  0  0  0  0
  161.9570  206.2070  148.5960 C   0  0  2  0  0  3  0  0  0  0  0  0
  161.5970  204.3640  144.7020 C   0  0  1  0  0  3  0  0  0  0  0  0
  161.4030  205.5810  143.8110 C   0  0  0  0  0  1  0  0  0  0  0  0
  162.9840  203.9380  144.6140 N   0  0  0  0  0  1  0  0  0  0  0  0
  157.0600  214.1480  150.8520 C   0  0  0  0  0  2  0  0  0  0  0  0
  156.8880  214.3740  152.2860 N   0  0  0  0  0  2  0  0  0  0  0  0
  154.7260  213.4570  152.2600 O   0  0  0  0  0  1  0  0  0  0  0  0
  155.9780  213.3820  152.8780 C   0  0  1  0  0  0  0  0  0  0  0  0
  156.4990  212.1100  152.6860 F   0  0  0  0  0  0  0  0  0  0  0  0
  155.8240  212.9460  156.9240 C   0  0  0  0  0  2  0  0  0  0  0  0
  155.8080  213.7220  154.3860 C   0  0  1  0  0  0  0  0  0  0  0  0
  158.1840  214.3680  154.3290 O   0  0  0  0  0  0  0  0  0  0  0  0
  156.9750  214.4530  155.0610 C   0  0  2  0  0  3  0  0  0  0  0  0
  158.9630  213.2930  154.8390 C   0  0  0  0  0  2  0  0  0  0  0  0
  157.0280  213.4130  156.1400 C   0  0  1  0  0  0  0  0  0  0  0  0
  154.6260  214.4530  154.5780 O   0  0  0  0  0  1  0  0  0  0  0  0
  158.3600  212.7380  156.1230 C   0  0  2  0  0  3  0  0  0  0  0  0
  155.8940  212.5980  155.4370 C   0  0  1  0  0  0  0  0  0  0  0  0
  156.3430  211.2420  155.0220 N   0  0  0  0  0  0  0  0  0  0  0  0
  155.2400  210.5400  154.6730 O   0  0  0  0  0  1  0  0  0  0  0  0
  156.9240  210.5040  156.1460 C   0  0  0  0  0  1  0  0  0  0  0  0
  159.1380  213.2070  157.2600 N   0  0  0  0  0  2  0  0  0  0  0  0
  160.4870  212.9620  156.9580 N   0  0  0  0  0  1  0  0  0  0  0  0
  1 13  1  0  0  0  0
  3 19  2  0  0  0  0
  4  5  1  0  0  0  0
  6 11  1  0  0  0  0
  6  7  1  0  0  0  0
  7  9  2  0  0  0  0
  8 19  1  0  0  0  0
  9  5  1  0  0  0  0
 11  4  1  1  0  0  0
 12 27  1  1  0  0  0
 12 14  1  0  0  0  0
 12 26  1  0  0  0  0
 13 24  1  0  0  0  0
 14 22  2  0  0  0  0
 15 24  2  0  0  0  0
 15 17  1  0  0  0  0
 16 18  1  0  0  0  0
 17  6  2  0  0  0  0
 18  2  1  0  0  0  0
 19  2  1  0  0  0  0
 20 10  1  0  0  0  0
 21 37  1  1  0  0  0
 21 16  1  0  0  0  0
 22 10  1  0  0  0  0
 22  1  1  0  0  0  0
 23  8  1  0  0  0  0
 23 11  1  0  0  0  0
 24 23  1  0  0  0  0
 25 21  1  0  0  0  0
 26 25  1  0  0  0  0
 27 20  1  0  0  0  0
 28 33  1  0  0  0  0
 29 34  1  6  0  0  0
 29 32  1  0  0  0  0
 29 31  1  0  0  0  0
 30 33  1  0  0  0  0
 31 30  1  0  0  0  0
 32 28  2  0  0  0  0
 33 15  1  1  0  0  0
 34 35  1  6  0  0  0
 36 34  1  0  0  0  0
 37 38  1  0  0  0  0
 38 40  1  0  0  0  0
 40 39  1  6  0  0  0
 40 43  1  0  0  0  0
 41 40  1  0  0  0  0
 43 48  1  1  0  0  0
 43 45  1  0  0  0  0
 43 50  1  0  0  0  0
 44 46  1  0  0  0  0
 45 44  1  6  0  0  0
 45 47  1  0  0  0  0
 46 49  1  0  0  0  0
 47 42  1  1  0  0  0
 49 47  1  0  0  0  0
 49 54  1  1  0  0  0
 50 51  1  6  0  0  0
 50 47  1  0  0  0  0
 50 42  1  0  0  0  0
 51 53  1  0  0  0  0
 52 51  1  0  0  0  0
 55 54  1  0  0  0  0
M  END
>  <MODEL>
1

>  <REMARK>
 VINA RESULT:      -0.2      0.000      0.000
  Name = 
  8 active torsions:
  status: ('A' for Active; 'I' for Inactive)
    1  A    between atoms: N_1  and  C_53
    2  A    between atoms: C_6  and  C_20
    3  A    between atoms: C_8  and  N_22
    4  A    between atoms: C_8  and  C_43
    5  A    between atoms: C_10  and  C_32
    6  A    between atoms: N_11  and  C_50
    7  A    between atoms: C_20  and  N_22
    8  A    between atoms: C_33  and  C_52
                            x       y       z     vdW  Elec       q    Type
                         _______ _______ _______ _____ _____    ______ ____

>  <TORSDO>
F 8

$$$$
=
 OpenBabel11062408453D

 55 62  0  0  1  0  0  0  0  0999 V2000
  160.3720  210.5740  153.9420 O   0  0  0  0  0  0  0  0  0  0  0  0
  163.3520  208.5230  151.2120 C   0  0  0  0  0  2  0  0  0  0  0  0
  163.1830  210.7500  152.0370 O   0  0  0  0  0  0  0  0  0  0  0  0
  162.0060  211.7230  148.8200 C   0  0  0  0  0  2  0  0  0  0  0  0
  161.9860  212.5730  147.5550 C   0  0  0  0  0  2  0  0  0  0  0  0
  160.5690  213.4630  149.8970 C   0  0  0  0  0  0  0  0  0  0  0  0
  161.1370  214.4410  148.9570 C   0  0  0  0  0  3  0  0  0  0  0  0
  161.2720  209.9530  150.9430 N   0  0  0  0  0  2  0  0  0  0  0  0
  161.8290  214.0330  147.8880 C   0  0  0  0  0  3  0  0  0  0  0  0
  161.7520  209.2960  155.5850 C   0  0  0  0  0  2  0  0  0  0  0  0
  160.7220  211.9840  149.6210 C   0  0  2  0  0  3  0  0  0  0  0  0
  160.0770  207.0130  155.1690 C   0  0  1  0  0  3  0  0  0  0  0  0
  159.3500  210.7090  152.9630 C   0  0  0  0  0  2  0  0  0  0  0  0
  159.7770  208.3280  154.4910 C   0  0  0  0  0  3  0  0  0  0  0  0
  159.4440  212.9790  151.9670 C   0  0  0  0  0  0  0  0  0  0  0  0
  161.7230  206.6370  151.2110 C   0  0  0  0  0  2  0  0  0  0  0  0
  159.9480  213.8740  150.9610 N   0  0  0  0  0  0  0  0  0  0  0  0
  162.7870  207.3580  152.0140 C   0  0  0  0  0  2  0  0  0  0  0  0
  162.6000  209.7900  151.4540 C   0  0  0  0  0  0  0  0  0  0  0  0
  161.3200  208.5680  156.8600 C   0  0  0  0  0  2  0  0  0  0  0  0
  161.2500  205.3840  151.9410 C   0  0  1  0  0  3  0  0  0  0  0  0
  160.5790  209.3920  154.6540 C   0  0  0  0  0  0  0  0  0  0  0  0
  160.6760  211.2220  150.8740 N   0  0  0  0  0  0  0  0  0  0  0  0
  159.7950  211.6760  151.9220 C   0  0  0  0  0  0  0  0  0  0  0  0
  160.2450  205.7250  153.0360 C   0  0  0  0  0  2  0  0  0  0  0  0
  161.0000  206.2070  154.2820 C   0  0  0  0  0  2  0  0  0  0  0  0
  160.7290  207.1780  156.5590 C   0  0  0  0  0  2  0  0  0  0  0  0
  158.9340  212.9670  154.4220 C   0  0  0  0  0  3  0  0  0  0  0  0
  156.5420  213.1870  155.1530 C   0  0  1  0  0  3  0  0  0  0  0  0
  157.1250  213.6390  152.7580 C   0  0  0  0  0  2  0  0  0  0  0  0
  156.3680  214.1610  153.9730 C   0  0  0  0  0  2  0  0  0  0  0  0
  157.9990  212.8350  155.3750 C   0  0  0  0  0  3  0  0  0  0  0  0
  158.6220  213.5770  153.0750 C   0  0  2  0  0  3  0  0  0  0  0  0
  155.9140  213.7390  156.4400 C   0  0  1  0  0  3  0  0  0  0  0  0
  155.2660  212.6270  157.2490 C   0  0  0  0  0  1  0  0  0  0  0  0
  156.9280  214.3840  157.2610 N   0  0  0  0  0  1  0  0  0  0  0  0
  160.6180  204.4330  150.9440 C   0  0  0  0  0  2  0  0  0  0  0  0
  161.0670  204.7660  149.5930 N   0  0  0  0  0  2  0  0  0  0  0  0
  161.4770  202.4610  149.4010 O   0  0  0  0  0  1  0  0  0  0  0  0
  161.0250  203.5910  148.7100 C   0  0  1  0  0  0  0  0  0  0  0  0
  159.7170  203.3730  148.2980 F   0  0  0  0  0  0  0  0  0  0  0  0
  162.4980  203.6670  144.9140 C   0  0  0  0  0  2  0  0  0  0  0  0
  161.9790  203.8520  147.5110 C   0  0  1  0  0  0  0  0  0  0  0  0
  160.9130  206.0690  147.3720 O   0  0  0  0  0  0  0  0  0  0  0  0
  162.0220  205.2860  146.9680 C   0  0  2  0  0  3  0  0  0  0  0  0
  159.9230  206.0380  146.3520 C   0  0  0  0  0  2  0  0  0  0  0  0
  161.7400  204.7910  145.5810 C   0  0  1  0  0  0  0  0  0  0  0  0
  163.2790  203.4390  147.8380 O   0  0  0  0  0  1  0  0  0  0  0  0
  160.4560  205.3740  145.0890 C   0  0  2  0  0  3  0  0  0  0  0  0
  161.6090  203.3250  146.1100 C   0  0  1  0  0  0  0  0  0  0  0  0
  160.2550  202.7560  145.8780 N   0  0  0  0  0  0  0  0  0  0  0  0
  160.3060  201.4440  146.2040 O   0  0  0  0  0  1  0  0  0  0  0  0
  159.9010  202.7820  144.4570 C   0  0  0  0  0  1  0  0  0  0  0  0
  160.7550  206.3990  144.0990 N   0  0  0  0  0  2  0  0  0  0  0  0
  161.5310  205.7880  143.1020 N   0  0  0  0  0  1  0  0  0  0  0  0
  1 22  1  0  0  0  0
  2 19  1  0  0  0  0
  2 18  1  0  0  0  0
  5  9  1  0  0  0  0
  5  4  1  0  0  0  0
  6 17  2  0  0  0  0
  7  6  1  0  0  0  0
  8 19  1  0  0  0  0
  9  7  2  0  0  0  0
 10 20  1  0  0  0  0
 11  4  1  1  0  0  0
 11  6  1  0  0  0  0
 11 23  1  0  0  0  0
 12 26  1  6  0  0  0
 12 27  1  0  0  0  0
 13  1  1  0  0  0  0
 14 22  2  0  0  0  0
 14 12  1  0  0  0  0
 16 21  1  0  0  0  0
 16 18  1  0  0  0  0
 17 15  1  0  0  0  0
 19  3  2  0  0  0  0
 21 37  1  6  0  0  0
 21 25  1  0  0  0  0
 22 10  1  0  0  0  0
 23  8  1  0  0  0  0
 23 24  1  0  0  0  0
 24 15  2  0  0  0  0
 24 13  1  0  0  0  0
 25 26  1  0  0  0  0
 27 20  1  0  0  0  0
 28 32  2  0  0  0  0
 29 32  1  0  0  0  0
 29 34  1  1  0  0  0
 30 33  1  0  0  0  0
 30 31  1  0  0  0  0
 31 29  1  0  0  0  0
 33 15  1  6  0  0  0
 33 28  1  0  0  0  0
 34 35  1  1  0  0  0
 34 36  1  0  0  0  0
 38 37  1  0  0  0  0
 40 41  1  6  0  0  0
 40 39  1  0  0  0  0
 40 38  1  0  0  0  0
 42 50  1  0  0  0  0
 43 48  1  1  0  0  0
 43 40  1  0  0  0  0
 45 44  1  1  0  0  0
 45 43  1  0  0  0  0
 46 44  1  0  0  0  0
 47 42  1  6  0  0  0
 47 50  1  0  0  0  0
 47 45  1  0  0  0  0
 49 54  1  6  0  0  0
 49 47  1  0  0  0  0
 49 46  1  0  0  0  0
 50 51  1  6  0  0  0
 50 43  1  0  0  0  0
 51 52  1  0  0  0  0
 53 51  1  0  0  0  0
 55 54  1  0  0  0  0
M  END
>  <MODEL>
2

>  <REMARK>
 VINA RESULT:      -0.1      2.857     10.871
  Name = 
  8 active torsions:
  status: ('A' for Active; 'I' for Inactive)
    1  A    between atoms: N_1  and  C_53
    2  A    between atoms: C_6  and  C_20
    3  A    between atoms: C_8  and  N_22
    4  A    between atoms: C_8  and  C_43
    5  A    between atoms: C_10  and  C_32
    6  A    between atoms: N_11  and  C_50
    7  A    between atoms: C_20  and  N_22
    8  A    between atoms: C_33  and  C_52
                            x       y       z     vdW  Elec       q    Type
                         _______ _______ _______ _____ _____    ______ ____

>  <TORSDO>
F 8

$$$$
=
 OpenBabel11062408453D

 55 62  0  0  1  0  0  0  0  0999 V2000
  161.9990  209.8680  148.4230 O   0  0  0  0  0  0  0  0  0  0  0  0
  161.6710  211.6050  152.5980 C   0  0  0  0  0  2  0  0  0  0  0  0
  163.0640  209.9200  151.6520 O   0  0  0  0  0  0  0  0  0  0  0  0
  161.0340  207.4950  153.2870 C   0  0  0  0  0  2  0  0  0  0  0  0
  160.7740  206.2790  154.1680 C   0  0  0  0  0  2  0  0  0  0  0  0
  161.4320  205.9160  151.3900 C   0  0  0  0  0  0  0  0  0  0  0  0
  161.8150  204.9010  152.3820 C   0  0  0  0  0  3  0  0  0  0  0  0
  160.7660  209.5850  151.3540 N   0  0  0  0  0  2  0  0  0  0  0  0
  161.5460  205.0830  153.6790 C   0  0  0  0  0  3  0  0  0  0  0  0
  163.2030  212.0400  148.1540 C   0  0  0  0  0  2  0  0  0  0  0  0
  160.6770  207.1490  151.8340 C   0  0  2  0  0  3  0  0  0  0  0  0
  160.7020  213.3250  147.6210 C   0  0  1  0  0  3  0  0  0  0  0  0
  160.8370  209.0540  148.5150 C   0  0  0  0  0  2  0  0  0  0  0  0
  160.7770  211.8330  147.8310 C   0  0  0  0  0  3  0  0  0  0  0  0
  161.4870  206.7410  149.1320 C   0  0  0  0  0  0  0  0  0  0  0  0
  159.6110  212.7140  151.7390 C   0  0  0  0  0  2  0  0  0  0  0  0
  161.7500  205.7530  150.1410 N   0  0  0  0  0  0  0  0  0  0  0  0
  161.1270  212.7320  151.7300 C   0  0  0  0  0  2  0  0  0  0  0  0
  161.8850  210.3490  151.8190 C   0  0  0  0  0  0  0  0  0  0  0  0
  163.2110  213.0070  146.9670 C   0  0  0  0  0  2  0  0  0  0  0  0
  159.0520  213.9220  150.9930 C   0  0  1  0  0  3  0  0  0  0  0  0
  161.9410  211.2290  148.1160 C   0  0  0  0  0  0  0  0  0  0  0  0
  160.9280  208.2620  150.9130 N   0  0  0  0  0  0  0  0  0  0  0  0
  161.0760  207.9720  149.5080 C   0  0  0  0  0  0  0  0  0  0  0  0
  159.0820  213.7060  149.4840 C   0  0  0  0  0  2  0  0  0  0  0  0
  160.4960  213.9960  148.9620 C   0  0  0  0  0  2  0  0  0  0  0  0
  161.9640  213.9110  146.9520 C   0  0  0  0  0  2  0  0  0  0  0  0
  160.6600  206.7560  146.7650 C   0  0  0  0  0  3  0  0  0  0  0  0
  161.0590  204.7270  145.3400 C   0  0  1  0  0  3  0  0  0  0  0  0
  162.2480  204.9190  147.5390 C   0  0  0  0  0  2  0  0  0  0  0  0
  162.4160  204.6060  146.0560 C   0  0  0  0  0  2  0  0  0  0  0  0
  160.3700  206.0350  145.6710 C   0  0  0  0  0  3  0  0  0  0  0  0
  161.7770  206.3670  147.7050 C   0  0  2  0  0  3  0  0  0  0  0  0
  161.2030  204.5580  143.8210 C   0  0  1  0  0  3  0  0  0  0  0  0
  159.8690  204.2020  143.1850 C   0  0  0  0  0  1  0  0  0  0  0  0
  161.6940  205.7880  143.2200 N   0  0  0  0  0  1  0  0  0  0  0  0
  157.6260  214.1710  151.4460 C   0  0  0  0  0  2  0  0  0  0  0  0
  157.5850  214.2870  152.9030 N   0  0  0  0  0  2  0  0  0  0  0  0
  155.2790  214.0670  153.2900 O   0  0  0  0  0  1  0  0  0  0  0  0
  156.5200  213.4490  153.4760 C   0  0  1  0  0  0  0  0  0  0  0  0
  156.5110  212.2180  152.8350 F   0  0  0  0  0  0  0  0  0  0  0  0
  156.6670  211.8640  157.2230 C   0  0  0  0  0  2  0  0  0  0  0  0
  156.7820  213.3110  155.0010 C   0  0  1  0  0  0  0  0  0  0  0  0
  159.0480  212.5790  154.3700 O   0  0  0  0  0  0  0  0  0  0  0  0
  158.2310  213.0460  155.4280 C   0  0  2  0  0  3  0  0  0  0  0  0
  159.0980  211.1590  154.4100 C   0  0  0  0  0  2  0  0  0  0  0  0
  157.7990  211.8500  156.2230 C   0  0  1  0  0  0  0  0  0  0  0  0
  156.2990  214.4460  155.6710 O   0  0  0  0  0  1  0  0  0  0  0  0
  158.4570  210.6220  155.6840 C   0  0  2  0  0  3  0  0  0  0  0  0
  156.3220  212.0410  155.7440 C   0  0  1  0  0  0  0  0  0  0  0  0
  155.8240  210.8780  154.9630 N   0  0  0  0  0  0  0  0  0  0  0  0
  154.9750  211.3560  154.0230 O   0  0  0  0  0  1  0  0  0  0  0  0
  155.0110  209.9860  155.7920 C   0  0  0  0  0  1  0  0  0  0  0  0
  159.5020  210.2060  156.6070 N   0  0  0  0  0  2  0  0  0  0  0  0
  159.5570  208.8050  156.5550 N   0  0  0  0  0  1  0  0  0  0  0  0
  1 13  1  0  0  0  0
  3 19  2  0  0  0  0
  4  5  1  0  0  0  0
  6 11  1  0  0  0  0
  6  7  1  0  0  0  0
  7  9  2  0  0  0  0
  8 19  1  0  0  0  0
  9  5  1  0  0  0  0
 11  4  1  1  0  0  0
 12 27  1  1  0  0  0
 12 14  1  0  0  0  0
 12 26  1  0  0  0  0
 13 24  1  0  0  0  0
 14 22  2  0  0  0  0
 15 24  2  0  0  0  0
 15 17  1  0  0  0  0
 17  6  2  0  0  0  0
 18 16  1  0  0  0  0
 18  2  1  0  0  0  0
 19  2  1  0  0  0  0
 20 10  1  0  0  0  0
 21 37  1  1  0  0  0
 21 16  1  0  0  0  0
 22 10  1  0  0  0  0
 22  1  1  0  0  0  0
 23  8  1  0  0  0  0
 23 11  1  0  0  0  0
 24 23  1  0  0  0  0
 25 21  1  0  0  0  0
 26 25  1  0  0  0  0
 27 20  1  0  0  0  0
 28 33  1  0  0  0  0
 29 34  1  6  0  0  0
 29 32  1  0  0  0  0
 29 31  1  0  0  0  0
 30 33  1  0  0  0  0
 31 30  1  0  0  0  0
 32 28  2  0  0  0  0
 33 15  1  1  0  0  0
 34 35  1  6  0  0  0
 36 34  1  0  0  0  0
 37 38  1  0  0  0  0
 38 40  1  0  0  0  0
 39 40  1  0  0  0  0
 40 41  1  6  0  0  0
 40 43  1  0  0  0  0
 43 45  1  0  0  0  0
 43 48  1  1  0  0  0
 43 50  1  0  0  0  0
 44 46  1  0  0  0  0
 45 44  1  6  0  0  0
 45 47  1  0  0  0  0
 46 49  1  0  0  0  0
 47 42  1  1  0  0  0
 49 47  1  0  0  0  0
 49 54  1  1  0  0  0
 50 51  1  6  0  0  0
 50 47  1  0  0  0  0
 50 42  1  0  0  0  0
 51 53  1  0  0  0  0
 52 51  1  0  0  0  0
 55 54  1  0  0  0  0
M  END
>  <MODEL>
3

>  <REMARK>
 VINA RESULT:       0.1      1.252      1.327
  Name = 
  8 active torsions:
  status: ('A' for Active; 'I' for Inactive)
    1  A    between atoms: N_1  and  C_53
    2  A    between atoms: C_6  and  C_20
    3  A    between atoms: C_8  and  N_22
    4  A    between atoms: C_8  and  C_43
    5  A    between atoms: C_10  and  C_32
    6  A    between atoms: N_11  and  C_50
    7  A    between atoms: C_20  and  N_22
    8  A    between atoms: C_33  and  C_52
                            x       y       z     vdW  Elec       q    Type
                         _______ _______ _______ _____ _____    ______ ____

>  <TORSDO>
F 8

$$$$
=
 OpenBabel11062408453D

 55 62  0  0  1  0  0  0  0  0999 V2000
  160.5640  210.6010  153.7640 O   0  0  0  0  0  0  0  0  0  0  0  0
  163.4310  208.5030  150.9480 C   0  0  0  0  0  2  0  0  0  0  0  0
  163.3170  210.7340  151.7720 O   0  0  0  0  0  0  0  0  0  0  0  0
  162.0560  211.7170  148.5910 C   0  0  0  0  0  2  0  0  0  0  0  0
  162.0080  212.5650  147.3250 C   0  0  0  0  0  2  0  0  0  0  0  0
  160.6760  213.4780  149.7080 C   0  0  0  0  0  0  0  0  0  0  0  0
  161.2280  214.4460  148.7490 C   0  0  0  0  0  3  0  0  0  0  0  0
  161.3630  209.9610  150.7400 N   0  0  0  0  0  2  0  0  0  0  0  0
  161.8810  214.0270  147.6600 C   0  0  0  0  0  3  0  0  0  0  0  0
  161.9760  209.3070  155.3660 C   0  0  0  0  0  2  0  0  0  0  0  0
  160.8000  211.9970  149.4310 C   0  0  2  0  0  3  0  0  0  0  0  0
  160.2590  207.0460  155.0080 C   0  0  1  0  0  3  0  0  0  0  0  0
  159.5150  210.7480  152.8160 C   0  0  0  0  0  2  0  0  0  0  0  0
  159.9560  208.3630  154.3360 C   0  0  0  0  0  3  0  0  0  0  0  0
  159.6090  213.0140  151.8120 C   0  0  0  0  0  0  0  0  0  0  0  0
  161.7770  206.6400  151.0020 C   0  0  0  0  0  2  0  0  0  0  0  0
  160.0940  213.9000  150.7900 N   0  0  0  0  0  0  0  0  0  0  0  0
  162.8750  207.3480  151.7700 C   0  0  0  0  0  2  0  0  0  0  0  0
  162.7040  209.7810  151.2100 C   0  0  0  0  0  0  0  0  0  0  0  0
  161.5740  208.5870  156.6560 C   0  0  0  0  0  2  0  0  0  0  0  0
  161.3090  205.3950  151.7490 C   0  0  1  0  0  3  0  0  0  0  0  0
  160.7770  209.4170  154.4720 C   0  0  0  0  0  0  0  0  0  0  0  0
  160.7830  211.2380  150.6860 N   0  0  0  0  0  0  0  0  0  0  0  0
  159.9410  211.7060  151.7600 C   0  0  0  0  0  0  0  0  0  0  0  0
  160.3430  205.7520  152.8730 C   0  0  0  0  0  2  0  0  0  0  0  0
  161.1440  206.2260  154.0940 C   0  0  0  0  0  2  0  0  0  0  0  0
  160.9550  207.2050  156.3760 C   0  0  0  0  0  2  0  0  0  0  0  0
  159.2040  213.0420  154.2870 C   0  0  0  0  0  3  0  0  0  0  0  0
  156.8440  213.2560  155.1150 C   0  0  1  0  0  3  0  0  0  0  0  0
  157.3210  213.6700  152.6890 C   0  0  0  0  0  2  0  0  0  0  0  0
  156.6110  214.2070  153.9270 C   0  0  0  0  0  2  0  0  0  0  0  0
  158.3110  212.9200  155.2810 C   0  0  0  0  0  3  0  0  0  0  0  0
  158.8300  213.6250  152.9430 C   0  0  2  0  0  3  0  0  0  0  0  0
  156.2660  213.8260  156.4180 C   0  0  1  0  0  3  0  0  0  0  0  0
  155.6190  212.7320  157.2510 C   0  0  0  0  0  1  0  0  0  0  0  0
  157.3170  214.4530  157.2050 N   0  0  0  0  0  1  0  0  0  0  0  0
  160.6340  204.4510  150.7740 C   0  0  0  0  0  2  0  0  0  0  0  0
  160.4940  205.1030  149.4730 N   0  0  0  0  0  2  0  0  0  0  0  0
  162.4060  205.5190  148.1730 O   0  0  0  0  0  1  0  0  0  0  0  0
  161.4440  204.5550  148.4940 C   0  0  1  0  0  0  0  0  0  0  0  0
  162.0810  203.4500  149.0420 F   0  0  0  0  0  0  0  0  0  0  0  0
  160.6450  203.3620  144.6830 C   0  0  0  0  0  2  0  0  0  0  0  0
  160.6560  204.1940  147.2040 C   0  0  1  0  0  0  0  0  0  0  0  0
  160.4200  201.9470  148.1860 O   0  0  0  0  0  0  0  0  0  0  0  0
  159.9430  202.8360  147.1930 C   0  0  2  0  0  3  0  0  0  0  0  0
  161.4020  201.0920  147.6150 C   0  0  0  0  0  2  0  0  0  0  0  0
  160.6160  202.4710  145.9030 C   0  0  1  0  0  0  0  0  0  0  0  0
  159.7310  205.2080  146.9120 O   0  0  0  0  0  1  0  0  0  0  0  0
  161.4590  201.2540  146.1010 C   0  0  2  0  0  3  0  0  0  0  0  0
  161.4210  203.8110  145.9220 C   0  0  1  0  0  0  0  0  0  0  0  0
  162.8900  203.5900  145.9860 N   0  0  0  0  0  0  0  0  0  0  0  0
  163.3080  204.0000  147.2060 O   0  0  0  0  0  1  0  0  0  0  0  0
  163.6020  204.4440  145.0330 C   0  0  0  0  0  1  0  0  0  0  0  0
  160.7990  200.1190  145.4730 N   0  0  0  0  0  2  0  0  0  0  0  0
  161.3440  198.9620  146.0500 N   0  0  0  0  0  1  0  0  0  0  0  0
  1 22  1  0  0  0  0
  2 19  1  0  0  0  0
  2 18  1  0  0  0  0
  5  9  1  0  0  0  0
  5  4  1  0  0  0  0
  6 17  2  0  0  0  0
  7  6  1  0  0  0  0
  8 19  1  0  0  0  0
  9  7  2  0  0  0  0
 10 20  1  0  0  0  0
 11  4  1  1  0  0  0
 11  6  1  0  0  0  0
 11 23  1  0  0  0  0
 12 26  1  6  0  0  0
 12 27  1  0  0  0  0
 13  1  1  0  0  0  0
 14 22  2  0  0  0  0
 14 12  1  0  0  0  0
 16 21  1  0  0  0  0
 16 18  1  0  0  0  0
 17 15  1  0  0  0  0
 19  3  2  0  0  0  0
 21 37  1  6  0  0  0
 21 25  1  0  0  0  0
 22 10  1  0  0  0  0
 23  8  1  0  0  0  0
 23 24  1  0  0  0  0
 24 15  2  0  0  0  0
 24 13  1  0  0  0  0
 25 26  1  0  0  0  0
 27 20  1  0  0  0  0
 28 32  2  0  0  0  0
 29 32  1  0  0  0  0
 29 34  1  1  0  0  0
 30 33  1  0  0  0  0
 30 31  1  0  0  0  0
 31 29  1  0  0  0  0
 33 15  1  6  0  0  0
 33 28  1  0  0  0  0
 34 36  1  0  0  0  0
 34 35  1  1  0  0  0
 38 37  1  0  0  0  0
 40 39  1  6  0  0  0
 40 41  1  0  0  0  0
 40 38  1  0  0  0  0
 42 50  1  0  0  0  0
 43 48  1  6  0  0  0
 43 40  1  0  0  0  0
 45 43  1  0  0  0  0
 45 44  1  1  0  0  0
 46 44  1  0  0  0  0
 47 42  1  6  0  0  0
 47 50  1  0  0  0  0
 47 49  1  0  0  0  0
 47 45  1  0  0  0  0
 49 54  1  6  0  0  0
 49 46  1  0  0  0  0
 50 51  1  6  0  0  0
 50 43  1  0  0  0  0
 51 52  1  0  0  0  0
 53 51  1  0  0  0  0
 54 55  1  0  0  0  0
M  END
>  <MODEL>
4

>  <REMARK>
 VINA RESULT:       2.5      2.908     11.075
  Name = 
  8 active torsions:
  status: ('A' for Active; 'I' for Inactive)
    1  A    between atoms: N_1  and  C_53
    2  A    between atoms: C_6  and  C_20
    3  A    between atoms: C_8  and  N_22
    4  A    between atoms: C_8  and  C_43
    5  A    between atoms: C_10  and  C_32
    6  A    between atoms: N_11  and  C_50
    7  A    between atoms: C_20  and  N_22
    8  A    between atoms: C_33  and  C_52
                            x       y       z     vdW  Elec       q    Type
                         _______ _______ _______ _____ _____    ______ ____

>  <TORSDO>
F 8

$$$$
=
 OpenBabel11062408453D

 55 62  0  0  1  0  0  0  0  0999 V2000
  162.1660  209.3310  148.3830 O   0  0  0  0  0  0  0  0  0  0  0  0
  161.8430  209.5190  152.9010 C   0  0  0  0  0  2  0  0  0  0  0  0
  163.1580  208.1870  151.4290 O   0  0  0  0  0  0  0  0  0  0  0  0
  160.9560  205.4740  152.1100 C   0  0  0  0  0  2  0  0  0  0  0  0
  160.6060  204.0450  152.5100 C   0  0  0  0  0  2  0  0  0  0  0  0
  161.3060  204.6350  149.7810 C   0  0  0  0  0  0  0  0  0  0  0  0
  161.6080  203.3160  150.3560 C   0  0  0  0  0  3  0  0  0  0  0  0
  160.8520  208.1200  151.0290 N   0  0  0  0  0  2  0  0  0  0  0  0
  161.3200  203.0500  151.6350 C   0  0  0  0  0  3  0  0  0  0  0  0
  163.4980  211.3810  148.8910 C   0  0  0  0  0  2  0  0  0  0  0  0
  160.6130  205.6790  150.6270 C   0  0  2  0  0  3  0  0  0  0  0  0
  161.0880  212.9230  148.8370 C   0  0  1  0  0  3  0  0  0  0  0  0
  160.9580  208.6090  148.1830 C   0  0  0  0  0  2  0  0  0  0  0  0
  161.0720  211.4490  148.5130 C   0  0  0  0  0  3  0  0  0  0  0  0
  161.4600  206.1900  147.9540 C   0  0  0  0  0  0  0  0  0  0  0  0
  159.8700  210.9830  152.4800 C   0  0  0  0  0  2  0  0  0  0  0  0
  161.6430  204.8980  148.5540 N   0  0  0  0  0  0  0  0  0  0  0  0
  161.3830  210.9090  152.4810 C   0  0  0  0  0  2  0  0  0  0  0  0
  162.0020  208.6030  151.7320 C   0  0  0  0  0  0  0  0  0  0  0  0
  163.5880  212.6990  148.1180 C   0  0  0  0  0  2  0  0  0  0  0  0
  159.3970  212.4070  152.2030 C   0  0  1  0  0  3  0  0  0  0  0  0
  162.1930  210.7130  148.5710 C   0  0  0  0  0  0  0  0  0  0  0  0
  160.9480  207.0260  150.1530 N   0  0  0  0  0  0  0  0  0  0  0  0
  161.1110  207.2350  148.7360 C   0  0  0  0  0  0  0  0  0  0  0  0
  159.4500  212.7290  150.7140 C   0  0  0  0  0  2  0  0  0  0  0  0
  160.8900  213.0950  150.3280 C   0  0  0  0  0  2  0  0  0  0  0  0
  162.3960  213.6270  148.4170 C   0  0  0  0  0  2  0  0  0  0  0  0
  160.5220  206.5810  145.6610 C   0  0  0  0  0  3  0  0  0  0  0  0
  161.4290  205.2340  143.7460 C   0  0  1  0  0  3  0  0  0  0  0  0
  162.6380  205.1880  145.9420 C   0  0  0  0  0  2  0  0  0  0  0  0
  162.8010  205.3510  144.4350 C   0  0  0  0  0  2  0  0  0  0  0  0
  160.3970  206.1260  144.4050 C   0  0  0  0  0  3  0  0  0  0  0  0
  161.7610  206.3200  146.4870 C   0  0  2  0  0  3  0  0  0  0  0  0
  161.5230  205.5300  142.2430 C   0  0  1  0  0  3  0  0  0  0  0  0
  161.4000  207.0210  141.9730 C   0  0  0  0  0  1  0  0  0  0  0  0
  162.7960  205.0630  141.7150 N   0  0  0  0  0  1  0  0  0  0  0  0
  157.9780  212.5700  152.7120 C   0  0  0  0  0  2  0  0  0  0  0  0
  157.8900  212.0850  154.0890 N   0  0  0  0  0  2  0  0  0  0  0  0
  159.6960  212.1400  155.5900 O   0  0  0  0  0  1  0  0  0  0  0  0
  158.6910  212.9150  155.0010 C   0  0  1  0  0  0  0  0  0  0  0  0
  159.2810  213.9470  154.2830 F   0  0  0  0  0  0  0  0  0  0  0  0
  155.3740  214.3400  156.8840 C   0  0  0  0  0  2  0  0  0  0  0  0
  157.7540  213.4460  156.1220 C   0  0  1  0  0  0  0  0  0  0  0  0
  157.2710  211.0770  156.5970 O   0  0  0  0  0  0  0  0  0  0  0  0
  157.1820  212.4020  157.0900 C   0  0  2  0  0  3  0  0  0  0  0  0
  156.0410  210.7270  155.9760 C   0  0  0  0  0  2  0  0  0  0  0  0
  155.7890  212.8880  156.8220 C   0  0  1  0  0  0  0  0  0  0  0  0
  158.4070  214.4500  156.8520 O   0  0  0  0  0  1  0  0  0  0  0  0
  154.9740  211.7840  156.2340 C   0  0  2  0  0  3  0  0  0  0  0  0
  156.3280  213.9110  155.7690 C   0  0  1  0  0  0  0  0  0  0  0  0
  155.7920  213.6560  154.4050 N   0  0  0  0  0  0  0  0  0  0  0  0
  156.4730  214.4520  153.5480 O   0  0  0  0  0  1  0  0  0  0  0  0
  154.3950  214.0800  154.2910 C   0  0  0  0  0  1  0  0  0  0  0  0
  154.0490  211.2940  157.2450 N   0  0  0  0  0  2  0  0  0  0  0  0
  153.8160  209.9400  156.9610 N   0  0  0  0  0  1  0  0  0  0  0  0
  1 22  1  0  0  0  0
  3 19  2  0  0  0  0
  4  5  1  0  0  0  0
  6  7  1  0  0  0  0
  6 11  1  0  0  0  0
  7  9  2  0  0  0  0
  8 19  1  0  0  0  0
  9  5  1  0  0  0  0
 11  4  1  1  0  0  0
 12 27  1  1  0  0  0
 12 26  1  0  0  0  0
 13  1  1  0  0  0  0
 13 24  1  0  0  0  0
 14 22  2  0  0  0  0
 14 12  1  0  0  0  0
 15 17  1  0  0  0  0
 15 24  2  0  0  0  0
 16 18  1  0  0  0  0
 17  6  2  0  0  0  0
 18  2  1  0  0  0  0
 19  2  1  0  0  0  0
 20 27  1  0  0  0  0
 20 10  1  0  0  0  0
 21 16  1  0  0  0  0
 21 37  1  6  0  0  0
 22 10  1  0  0  0  0
 23 11  1  0  0  0  0
 23  8  1  0  0  0  0
 24 23  1  0  0  0  0
 25 21  1  0  0  0  0
 26 25  1  0  0  0  0
 28 33  1  0  0  0  0
 29 34  1  6  0  0  0
 29 32  1  0  0  0  0
 29 31  1  0  0  0  0
 30 33  1  0  0  0  0
 31 30  1  0  0  0  0
 32 28  2  0  0  0  0
 33 15  1  1  0  0  0
 34 35  1  1  0  0  0
 36 34  1  0  0  0  0
 37 38  1  0  0  0  0
 38 40  1  0  0  0  0
 40 41  1  6  0  0  0
 40 39  1  0  0  0  0
 40 43  1  0  0  0  0
 43 48  1  1  0  0  0
 43 45  1  0  0  0  0
 45 44  1  6  0  0  0
 46 49  1  0  0  0  0
 46 44  1  0  0  0  0
 47 42  1  1  0  0  0
 47 45  1  0  0  0  0
 49 47  1  0  0  0  0
 49 54  1  1  0  0  0
 50 51  1  6  0  0  0
 50 43  1  0  0  0  0
 50 47  1  0  0  0  0
 50 42  1  0  0  0  0
 52 51  1  0  0  0  0
 53 51  1  0  0  0  0
 55 54  1  0  0  0  0
M  END
>  <MODEL>
5

>  <REMARK>
 VINA RESULT:       2.7      1.814      3.009
  Name = 
  8 active torsions:
  status: ('A' for Active; 'I' for Inactive)
    1  A    between atoms: N_1  and  C_53
    2  A    between atoms: C_6  and  C_20
    3  A    between atoms: C_8  and  N_22
    4  A    between atoms: C_8  and  C_43
    5  A    between atoms: C_10  and  C_32
    6  A    between atoms: N_11  and  C_50
    7  A    between atoms: C_20  and  N_22
    8  A    between atoms: C_33  and  C_52
                            x       y       z     vdW  Elec       q    Type
                         _______ _______ _______ _____ _____    ______ ____

>  <TORSDO>
F 8

$$$$
