=
 OpenBabel11052421523D

 30 31  0  0  1  0  0  0  0  0999 V2000
  160.5490  211.0870  154.7520 C   0  0  2  0  0  3  0  0  0  0  0  0
  159.5050  212.1870  154.4720 C   0  0  1  0  0  3  0  0  0  0  0  0
  158.3750  211.6390  153.6480 C   0  0  0  0  0  0  0  0  0  0  0  0
  156.9730  211.7150  154.1560 C   0  0  0  0  0  2  0  0  0  0  0  0
  157.7450  214.2090  155.2650 S   0  0  0  0  0  0  0  0  0  0  0  0
  158.5940  211.1570  152.5480 O   0  0  0  0  0  0  0  0  0  0  0  0
  156.5580  213.1680  154.3220 C   0  0  0  0  0  2  0  0  0  0  0  0
  160.1240  213.6520  156.4330 C   0  0  0  0  0  1  0  0  0  0  0  0
  158.9900  212.9410  155.7150 C   0  0  2  0  0  3  0  0  0  0  0  0
  162.9500  210.4670  153.7690 O   0  0  0  0  0  0  0  0  0  0  0  0
  161.4960  210.4750  153.3170 S   0  0  1  0  0  0  0  0  0  0  0  0
  161.0820  208.7320  153.1180 C   0  0  0  0  0  2  0  0  0  0  0  0
  161.7200  209.0930  149.3480 C   0  0  2  0  0  3  0  0  0  0  0  0
  162.3840  207.7400  149.1080 C   0  0  0  0  0  2  0  0  0  0  0  0
  162.4030  210.0790  148.6370 O   0  0  0  0  0  1  0  0  0  0  0  0
  161.6520  206.9790  151.3960 C   0  0  1  0  0  3  0  0  0  0  0  0
  160.3770  206.4650  149.4040 O   0  0  0  0  0  1  0  0  0  0  0  0
  161.7440  209.4300  150.8330 C   0  0  0  0  0  2  0  0  0  0  0  0
  161.6730  206.6430  149.8970 C   0  0  1  0  0  3  0  0  0  0  0  0
  161.0140  208.3590  151.6450 C   0  0  2  0  0  3  0  0  0  0  0  0
  160.9390  205.8650  152.1610 C   0  0  0  0  0  2  0  0  0  0  0  0
  161.5600  204.5120  151.8600 C   0  0  0  0  0  2  0  0  0  0  0  0
  160.8560  203.5120  152.5060 F   0  0  0  0  0  0  0  0  0  0  0  0
  159.9490  209.9400  155.5540 C   0  0  0  0  0  2  0  0  0  0  0  0
  160.7550  209.6740  156.8180 C   0  0  1  0  0  3  0  0  0  0  0  0
  160.2550  206.9840  156.6450 S   0  0  0  0  0  1  0  0  0  0  0  0
  161.4660  208.3360  156.7000 C   0  0  0  0  0  2  0  0  0  0  0  0
  161.7770  210.7850  157.0200 C   0  0  0  0  0  2  0  0  0  0  0  0
  163.1660  210.2090  157.2430 C   0  0  0  0  0  2  0  0  0  0  0  0
  164.1250  211.1540  156.9310 F   0  0  0  0  0  0  0  0  0  0  0  0
  1 24  1  6  0  0  0
  2  1  1  1  0  0  0
  2  9  1  0  0  0  0
  3  4  1  0  0  0  0
  3  2  1  0  0  0  0
  4  7  1  0  0  0  0
  5  9  1  0  0  0  0
  6  3  2  0  0  0  0
  7  5  1  0  0  0  0
  9  8  1  6  0  0  0
 11 10  2  1  0  0  0
 11  1  1  0  0  0  0
 12 11  1  0  0  0  0
 13 15  1  6  0  0  0
 13 18  1  0  0  0  0
 14 13  1  0  0  0  0
 14 19  1  0  0  0  0
 16 20  1  0  0  0  0
 16 21  1  1  0  0  0
 18 20  1  0  0  0  0
 19 17  1  6  0  0  0
 19 16  1  0  0  0  0
 20 12  1  1  0  0  0
 22 21  1  0  0  0  0
 22 23  1  0  0  0  0
 25 24  1  6  0  0  0
 25 28  1  0  0  0  0
 26 27  1  0  0  0  0
 27 25  1  0  0  0  0
 28 29  1  0  0  0  0
 30 29  1  0  0  0  0
M  END
>  <MODEL>
1

>  <REMARK>
 VINA RESULT:      -5.3      0.000      0.000
  Name = 
  11 active torsions:
  status: ('A' for Active; 'I' for Inactive)
    1  A    between atoms: C_3  and  C_11
    2  A    between atoms: C_3  and  C_19
    3  A    between atoms: S_4  and  C_13
    4  A    between atoms: S_4  and  C_23
    5  A    between atoms: C_5  and  C_9
    6  A    between atoms: C_6  and  C_8
    7  A    between atoms: C_6  and  C_9
    8  A    between atoms: C_6  and  C_21
    9  A    between atoms: C_7  and  C_13
   10  A    between atoms: C_8  and  C_13
   11  A    between atoms: C_23  and  C_29
                            x       y       z     vdW  Elec       q    Type
                         _______ _______ _______ _____ _____    ______ ____

>  <TORSDO>
F 11

$$$$
=
 OpenBabel11052421523D

 30 31  0  0  1  0  0  0  0  0999 V2000
  160.3990  209.4180  153.2510 C   0  0  2  0  0  3  0  0  0  0  0  0
  161.2670  209.0980  154.4850 C   0  0  1  0  0  3  0  0  0  0  0  0
  162.1160  210.2830  154.8480 C   0  0  0  0  0  0  0  0  0  0  0  0
  162.0180  210.8840  156.2110 C   0  0  0  0  0  2  0  0  0  0  0  0
  161.6280  208.2230  157.1150 S   0  0  0  0  0  0  0  0  0  0  0  0
  162.9110  210.7390  154.0430 O   0  0  0  0  0  0  0  0  0  0  0  0
  162.4390  209.8680  157.2610 C   0  0  0  0  0  2  0  0  0  0  0  0
  159.8020  207.2440  155.3720 C   0  0  0  0  0  1  0  0  0  0  0  0
  160.5010  208.5490  155.7060 C   0  0  2  0  0  3  0  0  0  0  0  0
  162.3080  209.3240  151.3890 O   0  0  0  0  0  0  0  0  0  0  0  0
  160.9450  208.7030  151.6610 S   0  0  1  0  0  0  0  0  0  0  0  0
  161.3010  206.9630  151.9630 C   0  0  0  0  0  2  0  0  0  0  0  0
  160.8270  205.9920  148.2770 C   0  0  2  0  0  3  0  0  0  0  0  0
  161.4970  204.6220  148.3240 C   0  0  0  0  0  2  0  0  0  0  0  0
  161.2070  206.6560  147.1110 O   0  0  0  0  0  1  0  0  0  0  0  0
  161.4950  204.7110  150.8420 C   0  0  1  0  0  3  0  0  0  0  0  0
  159.7550  203.5790  149.5970 O   0  0  0  0  0  1  0  0  0  0  0  0
  161.2410  206.8160  149.4890 C   0  0  0  0  0  2  0  0  0  0  0  0
  161.1200  203.8810  149.6050 C   0  0  1  0  0  3  0  0  0  0  0  0
  160.8500  206.1090  150.7870 C   0  0  2  0  0  3  0  0  0  0  0  0
  161.1110  203.9460  152.1080 C   0  0  0  0  0  2  0  0  0  0  0  0
  161.2950  202.4500  151.9200 C   0  0  0  0  0  2  0  0  0  0  0  0
  162.6390  202.1270  151.9580 F   0  0  0  0  0  0  0  0  0  0  0  0
  160.1330  210.9120  153.1280 C   0  0  0  0  0  2  0  0  0  0  0  0
  158.6590  211.2260  153.3410 C   0  0  1  0  0  3  0  0  0  0  0  0
  156.5780  211.5150  155.1020 S   0  0  0  0  0  1  0  0  0  0  0  0
  158.3610  211.3040  154.8290 C   0  0  0  0  0  2  0  0  0  0  0  0
  158.3120  212.5500  152.6750 C   0  0  0  0  0  2  0  0  0  0  0  0
  159.1370  212.7560  151.4150 C   0  0  0  0  0  2  0  0  0  0  0  0
  158.4550  213.5700  150.5300 F   0  0  0  0  0  0  0  0  0  0  0  0
  1 24  1  6  0  0  0
  2  1  1  6  0  0  0
  2  3  1  0  0  0  0
  2  9  1  0  0  0  0
  3  4  1  0  0  0  0
  4  7  1  0  0  0  0
  5  7  1  0  0  0  0
  6  3  2  0  0  0  0
  9  8  1  6  0  0  0
  9  5  1  0  0  0  0
 11 10  2  1  0  0  0
 11 12  1  0  0  0  0
 11  1  1  0  0  0  0
 13 15  1  6  0  0  0
 13 14  1  0  0  0  0
 13 18  1  0  0  0  0
 14 19  1  0  0  0  0
 16 21  1  1  0  0  0
 18 20  1  0  0  0  0
 19 17  1  6  0  0  0
 19 16  1  0  0  0  0
 20 16  1  0  0  0  0
 20 12  1  1  0  0  0
 22 23  1  0  0  0  0
 22 21  1  0  0  0  0
 24 25  1  0  0  0  0
 25 28  1  6  0  0  0
 25 27  1  0  0  0  0
 27 26  1  0  0  0  0
 29 28  1  0  0  0  0
 30 29  1  0  0  0  0
M  END
>  <MODEL>
2

>  <REMARK>
 VINA RESULT:      -5.3      2.544      4.543
  Name = 
  11 active torsions:
  status: ('A' for Active; 'I' for Inactive)
    1  A    between atoms: C_3  and  C_11
    2  A    between atoms: C_3  and  C_19
    3  A    between atoms: S_4  and  C_13
    4  A    between atoms: S_4  and  C_23
    5  A    between atoms: C_5  and  C_9
    6  A    between atoms: C_6  and  C_8
    7  A    between atoms: C_6  and  C_9
    8  A    between atoms: C_6  and  C_21
    9  A    between atoms: C_7  and  C_13
   10  A    between atoms: C_8  and  C_13
   11  A    between atoms: C_23  and  C_29
                            x       y       z     vdW  Elec       q    Type
                         _______ _______ _______ _____ _____    ______ ____

>  <TORSDO>
F 11

$$$$
=
 OpenBabel11052421523D

 30 31  0  0  1  0  0  0  0  0999 V2000
  160.7380  210.7850  154.6410 C   0  0  2  0  0  3  0  0  0  0  0  0
  159.6560  211.8840  154.6540 C   0  0  1  0  0  3  0  0  0  0  0  0
  158.4700  211.4600  153.8340 C   0  0  0  0  0  0  0  0  0  0  0  0
  157.1150  211.3970  154.4570 C   0  0  0  0  0  2  0  0  0  0  0  0
  157.9350  213.6680  155.9450 S   0  0  0  0  0  0  0  0  0  0  0  0
  158.6040  211.1960  152.6500 O   0  0  0  0  0  0  0  0  0  0  0  0
  156.6910  212.7800  154.9220 C   0  0  0  0  0  2  0  0  0  0  0  0
  160.4120  212.9820  156.7960 C   0  0  0  0  0  1  0  0  0  0  0  0
  159.2350  212.3800  156.0520 C   0  0  2  0  0  3  0  0  0  0  0  0
  162.9220  210.4220  153.1510 O   0  0  0  0  0  0  0  0  0  0  0  0
  161.4090  210.3180  153.0080 S   0  0  1  0  0  0  0  0  0  0  0  0
  161.1020  208.5540  152.7990 C   0  0  0  0  0  2  0  0  0  0  0  0
  161.7950  208.9130  149.0380 C   0  0  2  0  0  3  0  0  0  0  0  0
  162.4210  207.5420  148.7990 C   0  0  0  0  0  2  0  0  0  0  0  0
  162.5150  209.8810  148.3390 O   0  0  0  0  0  1  0  0  0  0  0  0
  161.6390  206.7930  151.0740 C   0  0  1  0  0  3  0  0  0  0  0  0
  160.3730  206.3260  149.0650 O   0  0  0  0  0  1  0  0  0  0  0  0
  161.8110  209.2420  150.5250 C   0  0  0  0  0  2  0  0  0  0  0  0
  161.6680  206.4630  149.5740 C   0  0  1  0  0  3  0  0  0  0  0  0
  161.0400  208.1900  151.3230 C   0  0  2  0  0  3  0  0  0  0  0  0
  160.8850  205.6970  151.8260 C   0  0  0  0  0  2  0  0  0  0  0  0
  161.5790  204.3540  151.6760 C   0  0  0  0  0  2  0  0  0  0  0  0
  160.8410  203.3650  152.2990 F   0  0  0  0  0  0  0  0  0  0  0  0
  160.3000  209.5610  155.4340 C   0  0  0  0  0  2  0  0  0  0  0  0
  161.4710  208.9490  156.1900 C   0  0  1  0  0  3  0  0  0  0  0  0
  163.4500  210.7770  156.7020 S   0  0  0  0  0  1  0  0  0  0  0  0
  161.9510  209.9160  157.2600 C   0  0  0  0  0  2  0  0  0  0  0  0
  161.0410  207.6390  156.8340 C   0  0  0  0  0  2  0  0  0  0  0  0
  159.7140  207.1650  156.2640 C   0  0  0  0  0  2  0  0  0  0  0  0
  159.9160  206.5530  155.0410 F   0  0  0  0  0  0  0  0  0  0  0  0
  1 24  1  6  0  0  0
  2  1  1  1  0  0  0
  2  9  1  0  0  0  0
  3  4  1  0  0  0  0
  3  2  1  0  0  0  0
  4  7  1  0  0  0  0
  5  9  1  0  0  0  0
  6  3  2  0  0  0  0
  7  5  1  0  0  0  0
  9  8  1  6  0  0  0
 11 10  2  1  0  0  0
 11  1  1  0  0  0  0
 12 11  1  0  0  0  0
 13 15  1  6  0  0  0
 13 18  1  0  0  0  0
 14 13  1  0  0  0  0
 14 19  1  0  0  0  0
 16 20  1  0  0  0  0
 16 21  1  1  0  0  0
 18 20  1  0  0  0  0
 19 17  1  6  0  0  0
 19 16  1  0  0  0  0
 20 12  1  1  0  0  0
 22 21  1  0  0  0  0
 22 23  1  0  0  0  0
 25 24  1  1  0  0  0
 25 28  1  0  0  0  0
 25 27  1  0  0  0  0
 26 27  1  0  0  0  0
 29 28  1  0  0  0  0
 30 29  1  0  0  0  0
M  END
>  <MODEL>
3

>  <REMARK>
 VINA RESULT:      -5.2      1.601      1.911
  Name = 
  11 active torsions:
  status: ('A' for Active; 'I' for Inactive)
    1  A    between atoms: C_3  and  C_11
    2  A    between atoms: C_3  and  C_19
    3  A    between atoms: S_4  and  C_13
    4  A    between atoms: S_4  and  C_23
    5  A    between atoms: C_5  and  C_9
    6  A    between atoms: C_6  and  C_8
    7  A    between atoms: C_6  and  C_9
    8  A    between atoms: C_6  and  C_21
    9  A    between atoms: C_7  and  C_13
   10  A    between atoms: C_8  and  C_13
   11  A    between atoms: C_23  and  C_29
                            x       y       z     vdW  Elec       q    Type
                         _______ _______ _______ _____ _____    ______ ____

>  <TORSDO>
F 11

$$$$
=
 OpenBabel11052421523D

 30 31  0  0  1  0  0  0  0  0999 V2000
  161.6190  205.2310  150.0550 C   0  0  2  0  0  3  0  0  0  0  0  0
  161.6240  203.7020  149.8540 C   0  0  1  0  0  3  0  0  0  0  0  0
  160.8030  203.0320  150.9200 C   0  0  0  0  0  0  0  0  0  0  0  0
  159.6540  202.1590  150.5390 C   0  0  0  0  0  2  0  0  0  0  0  0
  161.2560  201.3900  148.3280 S   0  0  0  0  0  0  0  0  0  0  0  0
  161.0910  203.1730  152.0970 O   0  0  0  0  0  0  0  0  0  0  0  0
  160.1480  200.9680  149.7350 C   0  0  0  0  0  2  0  0  0  0  0  0
  162.1900  203.7540  147.3950 C   0  0  0  0  0  1  0  0  0  0  0  0
  161.2310  203.2190  148.4440 C   0  0  2  0  0  3  0  0  0  0  0  0
  163.1350  206.9890  151.3700 O   0  0  0  0  0  0  0  0  0  0  0  0
  162.1800  205.8450  151.6810 S   0  0  1  0  0  0  0  0  0  0  0  0
  160.7650  206.6450  152.4570 C   0  0  0  0  0  2  0  0  0  0  0  0
  161.0200  210.4750  152.5850 C   0  0  2  0  0  3  0  0  0  0  0  0
  160.3810  210.6920  153.9540 C   0  0  0  0  0  2  0  0  0  0  0  0
  160.5530  211.4430  151.6970 O   0  0  0  0  0  1  0  0  0  0  0  0
  160.5430  208.2200  154.4160 C   0  0  1  0  0  3  0  0  0  0  0  0
  162.2210  209.7820  155.1920 O   0  0  0  0  0  1  0  0  0  0  0  0
  160.6690  209.0900  152.0590 C   0  0  0  0  0  2  0  0  0  0  0  0
  160.8530  209.6290  154.9440 C   0  0  1  0  0  3  0  0  0  0  0  0
  161.1550  208.0040  153.0190 C   0  0  2  0  0  3  0  0  0  0  0  0
  161.0210  207.1770  155.4250 C   0  0  0  0  0  2  0  0  0  0  0  0
  160.0240  207.0170  156.5600 C   0  0  0  0  0  2  0  0  0  0  0  0
  158.7400  206.9360  156.0560 F   0  0  0  0  0  0  0  0  0  0  0  0
  160.2800  205.8410  149.6620 C   0  0  0  0  0  2  0  0  0  0  0  0
  160.4410  206.8180  148.5050 C   0  0  1  0  0  3  0  0  0  0  0  0
  162.1130  208.9830  148.6890 S   0  0  0  0  0  1  0  0  0  0  0  0
  161.9030  207.2080  148.3640 C   0  0  0  0  0  2  0  0  0  0  0  0
  159.9530  206.1740  147.2150 C   0  0  0  0  0  2  0  0  0  0  0  0
  160.8850  206.5020  146.0600 C   0  0  0  0  0  2  0  0  0  0  0  0
  160.4650  205.8520  144.9140 F   0  0  0  0  0  0  0  0  0  0  0  0
  1 24  1  1  0  0  0
  1 11  1  0  0  0  0
  2  1  1  6  0  0  0
  2  3  1  0  0  0  0
  3  6  2  0  0  0  0
  4  3  1  0  0  0  0
  5  9  1  0  0  0  0
  5  7  1  0  0  0  0
  7  4  1  0  0  0  0
  9  8  1  6  0  0  0
  9  2  1  0  0  0  0
 11 10  2  6  0  0  0
 11 12  1  0  0  0  0
 13 15  1  6  0  0  0
 13 14  1  0  0  0  0
 14 19  1  0  0  0  0
 16 19  1  0  0  0  0
 16 21  1  1  0  0  0
 18 13  1  0  0  0  0
 18 20  1  0  0  0  0
 19 17  1  6  0  0  0
 20 12  1  6  0  0  0
 20 16  1  0  0  0  0
 21 22  1  0  0  0  0
 23 22  1  0  0  0  0
 25 28  1  6  0  0  0
 25 24  1  0  0  0  0
 27 25  1  0  0  0  0
 27 26  1  0  0  0  0
 29 28  1  0  0  0  0
 30 29  1  0  0  0  0
M  END
>  <MODEL>
4

>  <REMARK>
 VINA RESULT:      -5.0      3.634      8.510
  Name = 
  11 active torsions:
  status: ('A' for Active; 'I' for Inactive)
    1  A    between atoms: C_3  and  C_11
    2  A    between atoms: C_3  and  C_19
    3  A    between atoms: S_4  and  C_13
    4  A    between atoms: S_4  and  C_23
    5  A    between atoms: C_5  and  C_9
    6  A    between atoms: C_6  and  C_8
    7  A    between atoms: C_6  and  C_9
    8  A    between atoms: C_6  and  C_21
    9  A    between atoms: C_7  and  C_13
   10  A    between atoms: C_8  and  C_13
   11  A    between atoms: C_23  and  C_29
                            x       y       z     vdW  Elec       q    Type
                         _______ _______ _______ _____ _____    ______ ____

>  <TORSDO>
F 11

$$$$
=
 OpenBabel11052421523D

 30 31  0  0  1  0  0  0  0  0999 V2000
  161.4510  205.6570  150.1770 C   0  0  2  0  0  3  0  0  0  0  0  0
  160.7860  204.2890  149.9210 C   0  0  1  0  0  3  0  0  0  0  0  0
  160.9050  203.9130  148.4710 C   0  0  0  0  0  0  0  0  0  0  0  0
  161.5710  202.6350  148.0820 C   0  0  0  0  0  2  0  0  0  0  0  0
  160.4080  201.5680  150.4390 S   0  0  0  0  0  0  0  0  0  0  0  0
  160.4310  204.6350  147.6080 O   0  0  0  0  0  0  0  0  0  0  0  0
  160.7990  201.4530  148.6450 C   0  0  0  0  0  2  0  0  0  0  0  0
  160.9470  203.4600  152.3000 C   0  0  0  0  0  1  0  0  0  0  0  0
  161.2500  203.1450  150.8460 C   0  0  2  0  0  3  0  0  0  0  0  0
  163.0870  207.0380  151.7690 O   0  0  0  0  0  0  0  0  0  0  0  0
  161.9790  206.0000  151.8910 S   0  0  1  0  0  0  0  0  0  0  0  0
  160.6270  206.8850  152.6890 C   0  0  0  0  0  2  0  0  0  0  0  0
  160.9640  210.7110  152.7480 C   0  0  2  0  0  3  0  0  0  0  0  0
  160.4660  210.9530  154.1700 C   0  0  0  0  0  2  0  0  0  0  0  0
  160.4310  211.6790  151.8980 O   0  0  0  0  0  1  0  0  0  0  0  0
  160.6260  208.4830  154.6420 C   0  0  1  0  0  3  0  0  0  0  0  0
  162.4000  210.0200  155.2330 O   0  0  0  0  0  1  0  0  0  0  0  0
  160.5380  209.3280  152.2740 C   0  0  0  0  0  2  0  0  0  0  0  0
  161.0120  209.8900  155.1210 C   0  0  1  0  0  3  0  0  0  0  0  0
  161.0960  208.2420  153.1950 C   0  0  2  0  0  3  0  0  0  0  0  0
  161.1810  207.4400  155.6120 C   0  0  0  0  0  2  0  0  0  0  0  0
  160.1440  207.0560  156.6530 C   0  0  0  0  0  2  0  0  0  0  0  0
  158.9030  206.9160  156.0600 F   0  0  0  0  0  0  0  0  0  0  0  0
  160.6160  206.7970  149.6120 C   0  0  0  0  0  2  0  0  0  0  0  0
  161.4610  207.7150  148.7390 C   0  0  1  0  0  3  0  0  0  0  0  0
  161.9460  210.4070  148.5550 S   0  0  0  0  0  1  0  0  0  0  0  0
  161.9530  208.8950  149.5610 C   0  0  0  0  0  2  0  0  0  0  0  0
  162.6500  206.9440  148.1810 C   0  0  0  0  0  2  0  0  0  0  0  0
  162.4120  206.5550  146.7310 C   0  0  0  0  0  2  0  0  0  0  0  0
  163.1040  205.3960  146.4330 F   0  0  0  0  0  0  0  0  0  0  0  0
  1 24  1  1  0  0  0
  1 11  1  0  0  0  0
  2  1  1  6  0  0  0
  2  9  1  0  0  0  0
  3  2  1  0  0  0  0
  4  3  1  0  0  0  0
  4  7  1  0  0  0  0
  5  9  1  0  0  0  0
  6  3  2  0  0  0  0
  7  5  1  0  0  0  0
  9  8  1  1  0  0  0
 11 10  2  6  0  0  0
 11 12  1  0  0  0  0
 13 15  1  6  0  0  0
 13 14  1  0  0  0  0
 14 19  1  0  0  0  0
 16 19  1  0  0  0  0
 16 21  1  1  0  0  0
 18 13  1  0  0  0  0
 18 20  1  0  0  0  0
 19 17  1  6  0  0  0
 20 12  1  6  0  0  0
 20 16  1  0  0  0  0
 21 22  1  0  0  0  0
 23 22  1  0  0  0  0
 25 28  1  1  0  0  0
 25 27  1  0  0  0  0
 25 24  1  0  0  0  0
 26 27  1  0  0  0  0
 29 28  1  0  0  0  0
 30 29  1  0  0  0  0
M  END
>  <MODEL>
5

>  <REMARK>
 VINA RESULT:      -4.8      3.291      8.102
  Name = 
  11 active torsions:
  status: ('A' for Active; 'I' for Inactive)
    1  A    between atoms: C_3  and  C_11
    2  A    between atoms: C_3  and  C_19
    3  A    between atoms: S_4  and  C_13
    4  A    between atoms: S_4  and  C_23
    5  A    between atoms: C_5  and  C_9
    6  A    between atoms: C_6  and  C_8
    7  A    between atoms: C_6  and  C_9
    8  A    between atoms: C_6  and  C_21
    9  A    between atoms: C_7  and  C_13
   10  A    between atoms: C_8  and  C_13
   11  A    between atoms: C_23  and  C_29
                            x       y       z     vdW  Elec       q    Type
                         _______ _______ _______ _____ _____    ______ ____

>  <TORSDO>
F 11

$$$$
=
 OpenBabel11052421523D

 30 31  0  0  1  0  0  0  0  0999 V2000
  160.9360  209.1340  152.8430 C   0  0  2  0  0  3  0  0  0  0  0  0
  161.5200  208.9020  154.2520 C   0  0  1  0  0  3  0  0  0  0  0  0
  162.1370  210.1680  154.7770 C   0  0  0  0  0  0  0  0  0  0  0  0
  161.6630  210.7520  156.0660 C   0  0  0  0  0  2  0  0  0  0  0  0
  161.3430  208.0640  156.9130 S   0  0  0  0  0  0  0  0  0  0  0  0
  163.0490  210.7050  154.1680 O   0  0  0  0  0  0  0  0  0  0  0  0
  161.9290  209.7830  157.2060 C   0  0  0  0  0  2  0  0  0  0  0  0
  160.0820  206.9060  154.8160 C   0  0  0  0  0  1  0  0  0  0  0  0
  160.5500  208.2750  155.2740 C   0  0  2  0  0  3  0  0  0  0  0  0
  162.7110  207.2950  152.0760 O   0  0  0  0  0  0  0  0  0  0  0  0
  161.8420  208.3780  151.4500 S   0  0  1  0  0  0  0  0  0  0  0  0
  160.6350  207.4670  150.4700 C   0  0  0  0  0  2  0  0  0  0  0  0
  161.3330  203.6910  150.5690 C   0  0  2  0  0  3  0  0  0  0  0  0
  160.8030  203.3350  149.1830 C   0  0  0  0  0  2  0  0  0  0  0  0
  160.9290  202.7210  151.4840 O   0  0  0  0  0  1  0  0  0  0  0  0
  160.7080  205.7820  148.5930 C   0  0  1  0  0  3  0  0  0  0  0  0
  162.5960  204.3910  147.9940 O   0  0  0  0  0  1  0  0  0  0  0  0
  160.7960  205.0500  150.9980 C   0  0  0  0  0  2  0  0  0  0  0  0
  161.2070  204.3960  148.1610 C   0  0  1  0  0  3  0  0  0  0  0  0
  161.2100  206.1370  150.0060 C   0  0  2  0  0  3  0  0  0  0  0  0
  161.1220  206.8230  147.5530 C   0  0  0  0  0  2  0  0  0  0  0  0
  160.9180  206.2980  146.1430 C   0  0  0  0  0  2  0  0  0  0  0  0
  159.5680  206.2050  145.8610 F   0  0  0  0  0  0  0  0  0  0  0  0
  160.6560  210.6090  152.5910 C   0  0  0  0  0  2  0  0  0  0  0  0
  159.1670  210.9090  152.6920 C   0  0  1  0  0  3  0  0  0  0  0  0
  157.6510  212.5300  154.3020 S   0  0  0  0  0  1  0  0  0  0  0  0
  158.7840  211.1190  154.1480 C   0  0  0  0  0  2  0  0  0  0  0  0
  158.8370  212.1580  151.8870 C   0  0  0  0  0  2  0  0  0  0  0  0
  160.0800  212.7090  151.2080 C   0  0  0  0  0  2  0  0  0  0  0  0
  159.8860  214.0360  150.8710 F   0  0  0  0  0  0  0  0  0  0  0  0
  1 24  1  6  0  0  0
  2  1  1  6  0  0  0
  2  3  1  0  0  0  0
  2  9  1  0  0  0  0
  3  4  1  0  0  0  0
  4  7  1  0  0  0  0
  5  7  1  0  0  0  0
  6  3  2  0  0  0  0
  9  8  1  6  0  0  0
  9  5  1  0  0  0  0
 11 10  2  1  0  0  0
 11  1  1  0  0  0  0
 12 11  1  0  0  0  0
 13 18  1  0  0  0  0
 13 15  1  1  0  0  0
 14 13  1  0  0  0  0
 16 21  1  6  0  0  0
 16 20  1  0  0  0  0
 19 17  1  1  0  0  0
 19 16  1  0  0  0  0
 19 14  1  0  0  0  0
 20 12  1  1  0  0  0
 20 18  1  0  0  0  0
 22 21  1  0  0  0  0
 23 22  1  0  0  0  0
 24 25  1  0  0  0  0
 25 28  1  6  0  0  0
 25 27  1  0  0  0  0
 27 26  1  0  0  0  0
 29 28  1  0  0  0  0
 30 29  1  0  0  0  0
M  END
>  <MODEL>
6

>  <REMARK>
 VINA RESULT:      -4.7      2.922      5.251
  Name = 
  11 active torsions:
  status: ('A' for Active; 'I' for Inactive)
    1  A    between atoms: C_3  and  C_11
    2  A    between atoms: C_3  and  C_19
    3  A    between atoms: S_4  and  C_13
    4  A    between atoms: S_4  and  C_23
    5  A    between atoms: C_5  and  C_9
    6  A    between atoms: C_6  and  C_8
    7  A    between atoms: C_6  and  C_9
    8  A    between atoms: C_6  and  C_21
    9  A    between atoms: C_7  and  C_13
   10  A    between atoms: C_8  and  C_13
   11  A    between atoms: C_23  and  C_29
                            x       y       z     vdW  Elec       q    Type
                         _______ _______ _______ _____ _____    ______ ____

>  <TORSDO>
F 11

$$$$
=
 OpenBabel11052421523D

 30 31  0  0  1  0  0  0  0  0999 V2000
  161.7510  209.4680  150.9840 C   0  0  2  0  0  3  0  0  0  0  0  0
  161.5860  210.9870  150.7670 C   0  0  1  0  0  3  0  0  0  0  0  0
  161.9570  211.3570  149.3590 C   0  0  0  0  0  0  0  0  0  0  0  0
  160.9670  212.0500  148.4830 C   0  0  0  0  0  2  0  0  0  0  0  0
  160.1270  213.3690  150.8490 S   0  0  0  0  0  0  0  0  0  0  0  0
  163.0780  211.1220  148.9370 O   0  0  0  0  0  0  0  0  0  0  0  0
  160.6050  213.4030  149.0730 C   0  0  0  0  0  2  0  0  0  0  0  0
  159.9370  211.3500  152.6440 C   0  0  0  0  0  1  0  0  0  0  0  0
  160.2140  211.5660  151.1660 C   0  0  2  0  0  3  0  0  0  0  0  0
  163.1740  207.7500  149.5220 O   0  0  0  0  0  0  0  0  0  0  0  0
  161.8120  208.4300  149.4840 S   0  0  1  0  0  0  0  0  0  0  0  0
  160.6370  207.0860  149.7260 C   0  0  0  0  0  2  0  0  0  0  0  0
  161.3690  203.3160  149.7850 C   0  0  2  0  0  3  0  0  0  0  0  0
  160.8340  202.9680  148.3990 C   0  0  0  0  0  2  0  0  0  0  0  0
  160.9800  202.3330  150.6940 O   0  0  0  0  0  1  0  0  0  0  0  0
  160.7120  205.4200  147.8330 C   0  0  1  0  0  3  0  0  0  0  0  0
  162.6080  204.0510  147.2080 O   0  0  0  0  0  1  0  0  0  0  0  0
  160.8230  204.6660  150.2310 C   0  0  0  0  0  2  0  0  0  0  0  0
  161.2210  204.0420  147.3850 C   0  0  1  0  0  3  0  0  0  0  0  0
  161.2210  205.7660  149.2460 C   0  0  2  0  0  3  0  0  0  0  0  0
  161.1100  206.4740  146.8010 C   0  0  0  0  0  2  0  0  0  0  0  0
  160.4630  206.1930  145.4550 C   0  0  0  0  0  2  0  0  0  0  0  0
  161.3720  205.5860  144.6090 F   0  0  0  0  0  0  0  0  0  0  0  0
  160.7390  208.9360  151.9900 C   0  0  0  0  0  2  0  0  0  0  0  0
  161.4360  208.2820  153.1750 C   0  0  1  0  0  3  0  0  0  0  0  0
  161.2010  208.0850  155.9000 S   0  0  0  0  0  1  0  0  0  0  0  0
  161.2410  209.1350  154.4170 C   0  0  0  0  0  2  0  0  0  0  0  0
  160.8600  206.8920  153.4090 C   0  0  0  0  0  2  0  0  0  0  0  0
  161.9050  205.8210  153.1430 C   0  0  0  0  0  2  0  0  0  0  0  0
  162.8260  206.2780  152.2180 F   0  0  0  0  0  0  0  0  0  0  0  0
  1 24  1  1  0  0  0
  2  1  1  6  0  0  0
  2  9  1  0  0  0  0
  3  2  1  0  0  0  0
  4  7  1  0  0  0  0
  4  3  1  0  0  0  0
  5  9  1  0  0  0  0
  6  3  2  0  0  0  0
  7  5  1  0  0  0  0
  9  8  1  1  0  0  0
 11 10  2  1  0  0  0
 11 12  1  0  0  0  0
 11  1  1  0  0  0  0
 13 18  1  0  0  0  0
 13 15  1  1  0  0  0
 14 13  1  0  0  0  0
 16 21  1  6  0  0  0
 16 20  1  0  0  0  0
 19 17  1  1  0  0  0
 19 16  1  0  0  0  0
 19 14  1  0  0  0  0
 20 12  1  1  0  0  0
 20 18  1  0  0  0  0
 22 21  1  0  0  0  0
 23 22  1  0  0  0  0
 25 24  1  6  0  0  0
 25 28  1  0  0  0  0
 25 27  1  0  0  0  0
 27 26  1  0  0  0  0
 29 28  1  0  0  0  0
 30 29  1  0  0  0  0
M  END
>  <MODEL>
7

>  <REMARK>
 VINA RESULT:      -4.4      3.152      5.241
  Name = 
  11 active torsions:
  status: ('A' for Active; 'I' for Inactive)
    1  A    between atoms: C_3  and  C_11
    2  A    between atoms: C_3  and  C_19
    3  A    between atoms: S_4  and  C_13
    4  A    between atoms: S_4  and  C_23
    5  A    between atoms: C_5  and  C_9
    6  A    between atoms: C_6  and  C_8
    7  A    between atoms: C_6  and  C_9
    8  A    between atoms: C_6  and  C_21
    9  A    between atoms: C_7  and  C_13
   10  A    between atoms: C_8  and  C_13
   11  A    between atoms: C_23  and  C_29
                            x       y       z     vdW  Elec       q    Type
                         _______ _______ _______ _____ _____    ______ ____

>  <TORSDO>
F 11

$$$$
=
 OpenBabel11052421523D

 30 31  0  0  1  0  0  0  0  0999 V2000
  161.5480  205.2370  149.9410 C   0  0  2  0  0  3  0  0  0  0  0  0
  160.8750  203.8510  150.0180 C   0  0  1  0  0  3  0  0  0  0  0  0
  161.1050  203.0860  148.7460 C   0  0  0  0  0  0  0  0  0  0  0  0
  161.7710  201.7510  148.7860 C   0  0  0  0  0  2  0  0  0  0  0  0
  160.3910  201.3830  151.2370 S   0  0  0  0  0  0  0  0  0  0  0  0
  160.7210  203.5390  147.6790 O   0  0  0  0  0  0  0  0  0  0  0  0
  160.9270  200.7720  149.5870 C   0  0  0  0  0  2  0  0  0  0  0  0
  160.8160  203.7190  152.5380 C   0  0  0  0  0  1  0  0  0  0  0  0
  161.2320  203.0120  151.2610 C   0  0  2  0  0  3  0  0  0  0  0  0
  163.0700  206.9940  151.2510 O   0  0  0  0  0  0  0  0  0  0  0  0
  161.8930  206.0670  151.5300 S   0  0  1  0  0  0  0  0  0  0  0  0
  160.5150  207.1830  151.8500 C   0  0  0  0  0  2  0  0  0  0  0  0
  160.8850  210.8860  152.8000 C   0  0  2  0  0  3  0  0  0  0  0  0
  160.3150  210.8070  154.2140 C   0  0  0  0  0  2  0  0  0  0  0  0
  160.4070  212.0330  152.1690 O   0  0  0  0  0  1  0  0  0  0  0  0
  160.4270  208.2920  154.1150 C   0  0  1  0  0  3  0  0  0  0  0  0
  162.1820  209.6150  155.1280 O   0  0  0  0  0  1  0  0  0  0  0  0
  160.4710  209.6570  152.0020 C   0  0  0  0  0  2  0  0  0  0  0  0
  160.8010  209.5450  154.9220 C   0  0  1  0  0  3  0  0  0  0  0  0
  160.9690  208.3780  152.6760 C   0  0  2  0  0  3  0  0  0  0  0  0
  160.9200  207.0440  154.8460 C   0  0  0  0  0  2  0  0  0  0  0  0
  160.3420  206.9680  156.2490 C   0  0  0  0  0  2  0  0  0  0  0  0
  158.9610  206.9340  156.1920 F   0  0  0  0  0  0  0  0  0  0  0  0
  160.8140  206.1610  148.9780 C   0  0  0  0  0  2  0  0  0  0  0  0
  161.6500  206.4310  147.7340 C   0  0  1  0  0  3  0  0  0  0  0  0
  161.4330  205.6410  145.1180 S   0  0  0  0  0  1  0  0  0  0  0  0
  160.7410  206.5610  146.5240 C   0  0  0  0  0  2  0  0  0  0  0  0
  162.4490  207.7150  147.9190 C   0  0  0  0  0  2  0  0  0  0  0  0
  161.6010  208.7890  148.5820 C   0  0  0  0  0  2  0  0  0  0  0  0
  162.3530  209.4730  149.5190 F   0  0  0  0  0  0  0  0  0  0  0  0
  1 24  1  6  0  0  0
  1 11  1  0  0  0  0
  2  1  1  6  0  0  0
  2  9  1  0  0  0  0
  3  4  1  0  0  0  0
  3  2  1  0  0  0  0
  4  7  1  0  0  0  0
  5  9  1  0  0  0  0
  6  3  2  0  0  0  0
  7  5  1  0  0  0  0
  9  8  1  1  0  0  0
 11 10  2  6  0  0  0
 11 12  1  0  0  0  0
 13 15  1  6  0  0  0
 13 14  1  0  0  0  0
 14 19  1  0  0  0  0
 16 21  1  1  0  0  0
 16 19  1  0  0  0  0
 18 20  1  0  0  0  0
 18 13  1  0  0  0  0
 19 17  1  6  0  0  0
 20 12  1  6  0  0  0
 20 16  1  0  0  0  0
 21 22  1  0  0  0  0
 23 22  1  0  0  0  0
 25 27  1  6  0  0  0
 25 28  1  0  0  0  0
 25 24  1  0  0  0  0
 26 27  1  0  0  0  0
 28 29  1  0  0  0  0
 29 30  1  0  0  0  0
M  END
>  <MODEL>
8

>  <REMARK>
 VINA RESULT:      -4.4      3.548      8.209
  Name = 
  11 active torsions:
  status: ('A' for Active; 'I' for Inactive)
    1  A    between atoms: C_3  and  C_11
    2  A    between atoms: C_3  and  C_19
    3  A    between atoms: S_4  and  C_13
    4  A    between atoms: S_4  and  C_23
    5  A    between atoms: C_5  and  C_9
    6  A    between atoms: C_6  and  C_8
    7  A    between atoms: C_6  and  C_9
    8  A    between atoms: C_6  and  C_21
    9  A    between atoms: C_7  and  C_13
   10  A    between atoms: C_8  and  C_13
   11  A    between atoms: C_23  and  C_29
                            x       y       z     vdW  Elec       q    Type
                         _______ _______ _______ _____ _____    ______ ____

>  <TORSDO>
F 11

$$$$
=
 OpenBabel11052421523D

 30 31  0  0  1  0  0  0  0  0999 V2000
  161.4160  209.5390  151.8980 C   0  0  2  0  0  3  0  0  0  0  0  0
  160.7050  210.6530  151.1030 C   0  0  1  0  0  3  0  0  0  0  0  0
  159.8550  211.4880  152.0180 C   0  0  0  0  0  0  0  0  0  0  0  0
  160.0820  212.9600  152.1120 C   0  0  0  0  0  2  0  0  0  0  0  0
  160.6730  212.8220  149.3410 S   0  0  0  0  0  0  0  0  0  0  0  0
  158.9580  210.9720  152.6650 O   0  0  0  0  0  0  0  0  0  0  0  0
  159.8190  213.6150  150.7650 C   0  0  0  0  0  2  0  0  0  0  0  0
  162.3310  210.6880  149.1730 C   0  0  0  0  0  1  0  0  0  0  0  0
  161.6220  211.5250  150.2220 C   0  0  2  0  0  3  0  0  0  0  0  0
  162.6970  207.1990  151.9410 O   0  0  0  0  0  0  0  0  0  0  0  0
  162.2190  208.2230  150.9200 S   0  0  1  0  0  0  0  0  0  0  0  0
  160.9150  207.3710  150.0140 C   0  0  0  0  0  2  0  0  0  0  0  0
  161.3010  203.5550  150.2190 C   0  0  2  0  0  3  0  0  0  0  0  0
  160.7280  203.2030  148.8490 C   0  0  0  0  0  2  0  0  0  0  0  0
  160.8300  202.6480  151.1670 O   0  0  0  0  0  1  0  0  0  0  0  0
  160.8280  205.6320  148.1880 C   0  0  1  0  0  3  0  0  0  0  0  0
  162.5870  204.0730  147.6130 O   0  0  0  0  0  1  0  0  0  0  0  0
  160.8830  204.9660  150.6130 C   0  0  0  0  0  2  0  0  0  0  0  0
  161.2060  204.1970  147.7930 C   0  0  1  0  0  3  0  0  0  0  0  0
  161.3730  205.9850  149.5840 C   0  0  2  0  0  3  0  0  0  0  0  0
  161.3130  206.6050  147.1130 C   0  0  0  0  0  2  0  0  0  0  0  0
  160.8240  206.1890  145.7370 C   0  0  0  0  0  2  0  0  0  0  0  0
  159.4420  206.2050  145.7000 F   0  0  0  0  0  0  0  0  0  0  0  0
  160.5110  208.9580  152.9760 C   0  0  0  0  0  2  0  0  0  0  0  0
  161.2050  208.9560  154.3310 C   0  0  1  0  0  3  0  0  0  0  0  0
  160.9720  211.3360  155.6730 S   0  0  0  0  0  1  0  0  0  0  0  0
  161.9230  210.2790  154.5420 C   0  0  0  0  0  2  0  0  0  0  0  0
  160.1790  208.7450  155.4360 C   0  0  0  0  0  2  0  0  0  0  0  0
  160.2100  207.3110  155.9380 C   0  0  0  0  0  2  0  0  0  0  0  0
  160.4530  206.4460  154.8860 F   0  0  0  0  0  0  0  0  0  0  0  0
  1 24  1  1  0  0  0
  2  1  1  1  0  0  0
  2  3  1  0  0  0  0
  3  4  1  0  0  0  0
  3  6  2  0  0  0  0
  5  9  1  0  0  0  0
  5  7  1  0  0  0  0
  7  4  1  0  0  0  0
  9  8  1  6  0  0  0
  9  2  1  0  0  0  0
 11  1  1  0  0  0  0
 11 10  2  1  0  0  0
 12 11  1  0  0  0  0
 13 18  1  0  0  0  0
 13 15  1  1  0  0  0
 14 13  1  0  0  0  0
 16 21  1  6  0  0  0
 16 20  1  0  0  0  0
 19 17  1  1  0  0  0
 19 16  1  0  0  0  0
 19 14  1  0  0  0  0
 20 12  1  1  0  0  0
 20 18  1  0  0  0  0
 22 21  1  0  0  0  0
 23 22  1  0  0  0  0
 25 24  1  6  0  0  0
 25 27  1  0  0  0  0
 25 28  1  0  0  0  0
 27 26  1  0  0  0  0
 28 29  1  0  0  0  0
 30 29  1  0  0  0  0
M  END
>  <MODEL>
9

>  <REMARK>
 VINA RESULT:      -4.4      2.965      4.760
  Name = 
  11 active torsions:
  status: ('A' for Active; 'I' for Inactive)
    1  A    between atoms: C_3  and  C_11
    2  A    between atoms: C_3  and  C_19
    3  A    between atoms: S_4  and  C_13
    4  A    between atoms: S_4  and  C_23
    5  A    between atoms: C_5  and  C_9
    6  A    between atoms: C_6  and  C_8
    7  A    between atoms: C_6  and  C_9
    8  A    between atoms: C_6  and  C_21
    9  A    between atoms: C_7  and  C_13
   10  A    between atoms: C_8  and  C_13
   11  A    between atoms: C_23  and  C_29
                            x       y       z     vdW  Elec       q    Type
                         _______ _______ _______ _____ _____    ______ ____

>  <TORSDO>
F 11

$$$$
