=
 OpenBabel11062409023D

 37 43  0  0  1  0  0  0  0  0999 V2000
  161.3750  207.2380  150.5780 C   0  0  0  0  0  0  0  0  0  0  0  0
  161.1250  210.9970  151.6990 C   0  0  0  0  0  2  0  0  0  0  0  0
  161.3680  204.7750  150.5400 C   0  0  2  0  0  3  0  0  0  0  0  0
  161.5730  208.5080  151.3280 C   0  0  1  0  0  3  0  0  0  0  0  0
  161.3810  206.1020  151.2420 C   0  0  0  0  0  0  0  0  0  0  0  0
  161.1660  209.8900  150.6690 C   0  0  2  0  0  3  0  0  0  0  0  0
  160.5990  204.9000  149.1920 C   0  0  0  0  0  3  0  0  0  0  0  0
  161.8230  206.3680  152.8850 S   0  0  0  0  0  0  0  0  0  0  0  0
  163.2970  206.1850  153.0800 O   0  0  0  0  0  0  0  0  0  0  0  0
  161.6090  208.1010  148.2520 C   0  0  0  0  0  3  0  0  0  0  0  0
  160.4820  206.1000  148.5810 C   0  0  0  0  0  3  0  0  0  0  0  0
  161.0630  205.5480  153.8710 O   0  0  0  0  0  0  0  0  0  0  0  0
  159.7960  210.8370  152.3910 C   0  0  0  0  0  2  0  0  0  0  0  0
  161.1260  207.2690  149.1220 C   0  0  0  0  0  0  0  0  0  0  0  0
  161.4280  208.1200  152.8370 C   0  0  2  0  0  3  0  0  0  0  0  0
  162.2120  210.2130  149.6240 C   0  0  1  0  0  3  0  0  0  0  0  0
  160.1930  209.8920  153.6200 C   0  0  2  0  0  3  0  0  0  0  0  0
  160.0610  208.4960  153.4070 N   0  0  0  0  0  0  0  0  0  0  0  0
  162.3750  209.2820  148.5570 O   0  0  0  0  0  0  0  0  0  0  0  0
  163.1640  212.2430  148.2900 C   0  0  0  0  0  3  0  0  0  0  0  0
  162.1550  211.6270  149.0640 C   0  0  0  0  0  0  0  0  0  0  0  0
  161.0100  212.3010  149.3780 C   0  0  0  0  0  3  0  0  0  0  0  0
  159.6580  214.3130  149.1350 F   0  0  0  0  0  0  0  0  0  0  0  0
  161.7160  214.2180  148.0480 C   0  0  0  0  0  3  0  0  0  0  0  0
  160.7890  213.5990  148.9050 C   0  0  0  0  0  0  0  0  0  0  0  0
  162.9120  213.5340  147.7730 C   0  0  0  0  0  3  0  0  0  0  0  0
  160.6320  211.7740  155.3040 C   0  0  0  0  0  2  0  0  0  0  0  0
  159.8670  210.5310  154.9680 C   0  0  1  0  0  3  0  0  0  0  0  0
  159.3210  211.7830  154.8300 O   0  0  0  0  0  0  0  0  0  0  0  0
  159.9470  207.9240  154.6720 O   0  0  0  0  0  0  0  0  0  0  0  0
  160.7080  208.5840  155.6420 C   0  0  1  0  0  3  0  0  0  0  0  0
  162.4220  209.0540  157.2610 C   0  0  0  0  0  1  0  0  0  0  0  0
  160.5640  207.8380  157.0070 C   0  0  0  0  0  2  0  0  0  0  0  0
  161.8950  208.0070  156.3530 C   0  0  1  0  0  3  0  0  0  0  0  0
  160.8310  203.6110  151.3690 C   0  0  0  0  0  2  0  0  0  0  0  0
  160.8540  202.3310  150.6670 C   0  0  0  0  0  0  0  0  0  0  0  0
  160.9000  201.2990  150.0630 C   0  0  0  0  0  3  0  0  0  0  0  0
  1  5  2  0  0  0  0
  2 13  1  0  0  0  0
  3  5  1  0  0  0  0
  3 35  1  1  0  0  0
  4  1  1  6  0  0  0
  4 15  1  0  0  0  0
  5  8  1  0  0  0  0
  6  4  1  0  0  0  0
  6  2  1  1  0  0  0
  7  3  1  0  0  0  0
  8  9  2  0  0  0  0
  8 12  2  0  0  0  0
 10 19  1  0  0  0  0
 10 14  2  0  0  0  0
 11 14  1  0  0  0  0
 11  7  2  0  0  0  0
 14  1  1  0  0  0  0
 15  8  1  0  0  0  0
 15 18  1  6  0  0  0
 16 21  1  6  0  0  0
 16  6  1  0  0  0  0
 17 13  1  6  0  0  0
 17 28  1  0  0  0  0
 18 17  1  0  0  0  0
 18 30  1  0  0  0  0
 19 16  1  0  0  0  0
 20 21  1  0  0  0  0
 21 22  2  0  0  0  0
 24 25  2  0  0  0  0
 25 23  1  0  0  0  0
 25 22  1  0  0  0  0
 26 24  1  0  0  0  0
 26 20  2  0  0  0  0
 28 27  1  1  0  0  0
 29 28  1  0  0  0  0
 29 27  1  0  0  0  0
 31 30  1  6  0  0  0
 31 34  1  0  0  0  0
 31 33  1  0  0  0  0
 34 33  1  0  0  0  0
 34 32  1  1  0  0  0
 36 35  1  0  0  0  0
 37 36  3  0  0  0  0
M  END
>  <MODEL>
1

>  <REMARK>
 VINA RESULT:      -7.4      0.000      0.000
  Name = 
  6 active torsions:
  status: ('A' for Active; 'I' for Inactive)
    1  A    between atoms: O_1  and  C_5
    2  A    between atoms: O_1  and  N_36
    3  A    between atoms: C_3  and  C_30
    4  A    between atoms: C_6  and  C_31
    5  A    between atoms: C_9  and  C_30
    6  A    between atoms: C_26  and  C_33
                            x       y       z     vdW  Elec       q    Type
                         _______ _______ _______ _____ _____    ______ ____

>  <TORSDO>
F 6

$$$$
=
 OpenBabel11062409023D

 37 43  0  0  1  0  0  0  0  0999 V2000
  161.0300  209.3770  151.0190 C   0  0  0  0  0  0  0  0  0  0  0  0
  161.0640  206.1610  153.2770 C   0  0  0  0  0  2  0  0  0  0  0  0
  160.9700  211.7070  150.2200 C   0  0  2  0  0  3  0  0  0  0  0  0
  160.6640  208.3640  152.0450 C   0  0  1  0  0  3  0  0  0  0  0  0
  160.7970  210.6480  151.2690 C   0  0  0  0  0  0  0  0  0  0  0  0
  161.2870  206.9090  151.9820 C   0  0  2  0  0  3  0  0  0  0  0  0
  162.0990  211.2890  149.2320 C   0  0  0  0  0  3  0  0  0  0  0  0
  159.9070  210.8180  152.7340 S   0  0  0  0  0  0  0  0  0  0  0  0
  158.4350  210.8740  152.4650 O   0  0  0  0  0  0  0  0  0  0  0  0
  161.5060  207.8570  149.1020 C   0  0  0  0  0  3  0  0  0  0  0  0
  162.4260  209.9870  149.0790 C   0  0  0  0  0  3  0  0  0  0  0  0
  160.3240  211.9720  153.5810 O   0  0  0  0  0  0  0  0  0  0  0  0
  162.1310  206.6700  154.2110 C   0  0  0  0  0  2  0  0  0  0  0  0
  161.6890  208.9560  149.7660 C   0  0  0  0  0  0  0  0  0  0  0  0
  160.3550  209.1860  153.3410 C   0  0  2  0  0  3  0  0  0  0  0  0
  160.5980  206.1760  150.8510 C   0  0  1  0  0  3  0  0  0  0  0  0
  161.3660  207.8760  154.9340 C   0  0  2  0  0  3  0  0  0  0  0  0
  161.5100  209.1560  154.3410 N   0  0  0  0  0  0  0  0  0  0  0  0
  160.7220  206.7320  149.5450 O   0  0  0  0  0  0  0  0  0  0  0  0
  161.1490  203.8550  151.9060 C   0  0  0  0  0  3  0  0  0  0  0  0
  160.8590  204.6770  150.7950 C   0  0  0  0  0  0  0  0  0  0  0  0
  160.7970  204.1510  149.5380 C   0  0  0  0  0  3  0  0  0  0  0  0
  160.8810  202.1770  148.1110 F   0  0  0  0  0  0  0  0  0  0  0  0
  161.1650  201.9040  150.4070 C   0  0  0  0  0  3  0  0  0  0  0  0
  160.9750  202.7800  149.3230 C   0  0  0  0  0  0  0  0  0  0  0  0
  161.2760  202.4640  151.6900 C   0  0  0  0  0  3  0  0  0  0  0  0
  159.9580  207.8580  157.0760 C   0  0  0  0  0  2  0  0  0  0  0  0
  161.3090  207.6980  156.4490 C   0  0  1  0  0  3  0  0  0  0  0  0
  160.5430  206.6190  156.8160 O   0  0  0  0  0  0  0  0  0  0  0  0
  161.2350  210.0790  155.3470 O   0  0  0  0  0  0  0  0  0  0  0  0
  162.3790  210.7240  155.8270 C   0  0  1  0  0  3  0  0  0  0  0  0
  164.2410  211.3170  157.2270 C   0  0  0  0  0  1  0  0  0  0  0  0
  162.0180  211.5220  157.1210 C   0  0  0  0  0  2  0  0  0  0  0  0
  163.0480  210.4410  157.1380 C   0  0  1  0  0  3  0  0  0  0  0  0
  161.2080  213.1160  150.7570 C   0  0  0  0  0  2  0  0  0  0  0  0
  159.9790  213.8680  150.9910 C   0  0  0  0  0  0  0  0  0  0  0  0
  158.9570  214.4530  151.2050 C   0  0  0  0  0  3  0  0  0  0  0  0
  1  5  2  0  0  0  0
  2 13  1  0  0  0  0
  3 35  1  1  0  0  0
  3  5  1  0  0  0  0
  4  1  1  6  0  0  0
  4 15  1  0  0  0  0
  5  8  1  0  0  0  0
  6  4  1  0  0  0  0
  6  2  1  1  0  0  0
  7  3  1  0  0  0  0
  8 15  1  0  0  0  0
  8 12  2  0  0  0  0
  9  8  2  0  0  0  0
 10 19  1  0  0  0  0
 10 14  2  0  0  0  0
 11  7  2  0  0  0  0
 11 14  1  0  0  0  0
 14  1  1  0  0  0  0
 15 18  1  1  0  0  0
 16 21  1  6  0  0  0
 16  6  1  0  0  0  0
 17 13  1  1  0  0  0
 17 28  1  0  0  0  0
 18 17  1  0  0  0  0
 18 30  1  0  0  0  0
 19 16  1  0  0  0  0
 21 20  2  0  0  0  0
 22 21  1  0  0  0  0
 23 25  1  0  0  0  0
 24 26  2  0  0  0  0
 25 22  2  0  0  0  0
 25 24  1  0  0  0  0
 26 20  1  0  0  0  0
 28 29  1  0  0  0  0
 28 27  1  1  0  0  0
 29 27  1  0  0  0  0
 31 30  1  1  0  0  0
 31 33  1  0  0  0  0
 31 34  1  0  0  0  0
 33 34  1  0  0  0  0
 34 32  1  6  0  0  0
 35 36  1  0  0  0  0
 36 37  3  0  0  0  0
M  END
>  <MODEL>
2

>  <REMARK>
 VINA RESULT:      -7.3      2.757      6.667
  Name = 
  6 active torsions:
  status: ('A' for Active; 'I' for Inactive)
    1  A    between atoms: O_1  and  C_5
    2  A    between atoms: O_1  and  N_36
    3  A    between atoms: C_3  and  C_30
    4  A    between atoms: C_6  and  C_31
    5  A    between atoms: C_9  and  C_30
    6  A    between atoms: C_26  and  C_33
                            x       y       z     vdW  Elec       q    Type
                         _______ _______ _______ _____ _____    ______ ____

>  <TORSDO>
F 6

$$$$
=
 OpenBabel11062409023D

 37 43  0  0  1  0  0  0  0  0999 V2000
  160.9710  209.8210  152.1290 C   0  0  0  0  0  0  0  0  0  0  0  0
  159.8000  213.2050  150.5100 C   0  0  0  0  0  2  0  0  0  0  0  0
  161.2980  207.9190  153.6610 C   0  0  2  0  0  3  0  0  0  0  0  0
  160.6780  211.2650  151.9240 C   0  0  1  0  0  3  0  0  0  0  0  0
  160.8500  209.3150  153.3380 C   0  0  0  0  0  0  0  0  0  0  0  0
  160.4030  211.8190  150.4650 C   0  0  2  0  0  3  0  0  0  0  0  0
  161.1420  207.0130  152.4040 C   0  0  0  0  0  3  0  0  0  0  0  0
  160.5400  210.5630  154.4840 S   0  0  0  0  0  0  0  0  0  0  0  0
  161.8130  211.0520  155.1030 O   0  0  0  0  0  0  0  0  0  0  0  0
  162.0270  209.3050  149.9320 C   0  0  0  0  0  3  0  0  0  0  0  0
  161.1320  207.5570  151.1670 C   0  0  0  0  0  3  0  0  0  0  0  0
  159.5540  210.2000  155.5420 O   0  0  0  0  0  0  0  0  0  0  0  0
  158.3370  212.9850  150.7960 C   0  0  0  0  0  2  0  0  0  0  0  0
  161.3410  208.9690  150.9810 C   0  0  0  0  0  0  0  0  0  0  0  0
  159.9770  211.7330  153.2420 C   0  0  2  0  0  3  0  0  0  0  0  0
  161.7350  211.8720  149.7480 C   0  0  1  0  0  3  0  0  0  0  0  0
  158.3120  213.0700  152.3940 C   0  0  2  0  0  3  0  0  0  0  0  0
  158.4600  211.8430  153.0900 N   0  0  0  0  0  0  0  0  0  0  0  0
  162.4400  210.6430  149.5940 O   0  0  0  0  0  0  0  0  0  0  0  0
  162.4770  213.7960  148.1500 C   0  0  0  0  0  3  0  0  0  0  0  0
  161.7310  212.6280  148.4270 C   0  0  0  0  0  0  0  0  0  0  0  0
  160.9160  212.0820  147.4790 C   0  0  0  0  0  3  0  0  0  0  0  0
  160.0810  212.1250  145.1900 F   0  0  0  0  0  0  0  0  0  0  0  0
  161.6290  213.7400  145.8400 C   0  0  0  0  0  3  0  0  0  0  0  0
  160.8310  212.6380  146.1980 C   0  0  0  0  0  0  0  0  0  0  0  0
  162.4270  214.3220  146.8390 C   0  0  0  0  0  3  0  0  0  0  0  0
  156.1810  214.4520  152.0480 C   0  0  0  0  0  2  0  0  0  0  0  0
  157.3810  214.1700  152.8990 C   0  0  1  0  0  3  0  0  0  0  0  0
  156.1350  213.6910  153.2150 O   0  0  0  0  0  0  0  0  0  0  0  0
  157.9120  212.0500  154.3530 O   0  0  0  0  0  0  0  0  0  0  0  0
  157.0240  211.0410  154.7370 C   0  0  1  0  0  3  0  0  0  0  0  0
  154.9870  209.8850  155.2810 C   0  0  0  0  0  1  0  0  0  0  0  0
  156.3950  211.4050  156.1200 C   0  0  0  0  0  2  0  0  0  0  0  0
  155.5440  211.2080  154.9090 C   0  0  1  0  0  3  0  0  0  0  0  0
  160.6220  207.2880  154.8760 C   0  0  0  0  0  2  0  0  0  0  0  0
  161.2240  207.6790  156.1480 C   0  0  0  0  0  0  0  0  0  0  0  0
  161.7130  208.0390  157.1790 C   0  0  0  0  0  3  0  0  0  0  0  0
  1  5  2  0  0  0  0
  2 13  1  0  0  0  0
  3 35  1  1  0  0  0
  4  1  1  6  0  0  0
  4 15  1  0  0  0  0
  5  3  1  0  0  0  0
  5  8  1  0  0  0  0
  6  2  1  1  0  0  0
  6  4  1  0  0  0  0
  7  3  1  0  0  0  0
  8  9  2  0  0  0  0
  8 12  2  0  0  0  0
 10 14  2  0  0  0  0
 11  7  2  0  0  0  0
 14 11  1  0  0  0  0
 14  1  1  0  0  0  0
 15 18  1  6  0  0  0
 15  8  1  0  0  0  0
 16 21  1  6  0  0  0
 16  6  1  0  0  0  0
 17 13  1  6  0  0  0
 17 28  1  0  0  0  0
 17 18  1  0  0  0  0
 18 30  1  0  0  0  0
 19 16  1  0  0  0  0
 19 10  1  0  0  0  0
 20 21  1  0  0  0  0
 22 21  2  0  0  0  0
 23 25  1  0  0  0  0
 24 25  2  0  0  0  0
 24 26  1  0  0  0  0
 25 22  1  0  0  0  0
 26 20  2  0  0  0  0
 27 29  1  0  0  0  0
 28 27  1  6  0  0  0
 28 29  1  0  0  0  0
 31 30  1  6  0  0  0
 31 34  1  0  0  0  0
 31 33  1  0  0  0  0
 34 32  1  1  0  0  0
 34 33  1  0  0  0  0
 35 36  1  0  0  0  0
 36 37  3  0  0  0  0
M  END
>  <MODEL>
3

>  <REMARK>
 VINA RESULT:      -7.2      2.683      4.430
  Name = 
  6 active torsions:
  status: ('A' for Active; 'I' for Inactive)
    1  A    between atoms: O_1  and  C_5
    2  A    between atoms: O_1  and  N_36
    3  A    between atoms: C_3  and  C_30
    4  A    between atoms: C_6  and  C_31
    5  A    between atoms: C_9  and  C_30
    6  A    between atoms: C_26  and  C_33
                            x       y       z     vdW  Elec       q    Type
                         _______ _______ _______ _____ _____    ______ ____

>  <TORSDO>
F 6

$$$$
=
 OpenBabel11062409023D

 37 43  0  0  1  0  0  0  0  0999 V2000
  161.3550  208.9780  151.0540 C   0  0  0  0  0  0  0  0  0  0  0  0
  160.3210  212.7260  150.4820 C   0  0  0  0  0  2  0  0  0  0  0  0
  161.6910  206.7370  152.0210 C   0  0  2  0  0  3  0  0  0  0  0  0
  161.1810  210.4430  151.2450 C   0  0  1  0  0  3  0  0  0  0  0  0
  161.3430  208.1950  152.1120 C   0  0  0  0  0  0  0  0  0  0  0  0
  160.7740  211.3600  150.0180 C   0  0  2  0  0  3  0  0  0  0  0  0
  161.2850  206.1850  150.6230 C   0  0  0  0  0  3  0  0  0  0  0  0
  161.3080  209.1340  153.5550 S   0  0  0  0  0  0  0  0  0  0  0  0
  162.6930  209.3720  154.0740 O   0  0  0  0  0  0  0  0  0  0  0  0
  162.0610  208.9620  148.6640 C   0  0  0  0  0  3  0  0  0  0  0  0
  161.1680  207.0200  149.5670 C   0  0  0  0  0  3  0  0  0  0  0  0
  160.4370  208.5820  154.6310 O   0  0  0  0  0  0  0  0  0  0  0  0
  158.8930  212.5340  150.9230 C   0  0  0  0  0  2  0  0  0  0  0  0
  161.4880  208.4190  149.6930 C   0  0  0  0  0  0  0  0  0  0  0  0
  160.7060  210.6110  152.7260 C   0  0  2  0  0  3  0  0  0  0  0  0
  162.0010  211.5060  149.1430 C   0  0  1  0  0  3  0  0  0  0  0  0
  159.0840  212.2190  152.4800 C   0  0  2  0  0  3  0  0  0  0  0  0
  159.2000  210.8500  152.8340 N   0  0  0  0  0  0  0  0  0  0  0  0
  162.5560  210.3130  148.5970 O   0  0  0  0  0  0  0  0  0  0  0  0
  162.8370  213.5990  147.8300 C   0  0  0  0  0  3  0  0  0  0  0  0
  161.8990  212.5670  148.0560 C   0  0  0  0  0  0  0  0  0  0  0  0
  160.7850  212.4560  147.2760 C   0  0  0  0  0  3  0  0  0  0  0  0
  159.5070  213.2560  145.3620 F   0  0  0  0  0  0  0  0  0  0  0  0
  161.5180  214.3130  145.8780 C   0  0  0  0  0  3  0  0  0  0  0  0
  160.5650  213.3330  146.2080 C   0  0  0  0  0  0  0  0  0  0  0  0
  162.6360  214.4490  146.7180 C   0  0  0  0  0  3  0  0  0  0  0  0
  159.0870  213.7100  154.5660 C   0  0  0  0  0  2  0  0  0  0  0  0
  158.3390  213.2140  153.3660 C   0  0  1  0  0  3  0  0  0  0  0  0
  158.9470  214.4450  153.3890 O   0  0  0  0  0  0  0  0  0  0  0  0
  158.8440  210.7690  154.1770 O   0  0  0  0  0  0  0  0  0  0  0  0
  157.5130  210.3870  154.3690 C   0  0  1  0  0  3  0  0  0  0  0  0
  155.2750  210.2880  155.2410 C   0  0  0  0  0  1  0  0  0  0  0  0
  157.3670  209.7050  155.7670 C   0  0  0  0  0  2  0  0  0  0  0  0
  156.5960  210.9360  155.4210 C   0  0  1  0  0  3  0  0  0  0  0  0
  161.1200  205.8670  153.1390 C   0  0  0  0  0  2  0  0  0  0  0  0
  160.9350  204.4700  152.7560 C   0  0  0  0  0  0  0  0  0  0  0  0
  160.7970  203.3350  152.4050 C   0  0  0  0  0  3  0  0  0  0  0  0
  1  5  2  0  0  0  0
  2 13  1  0  0  0  0
  3  5  1  0  0  0  0
  3 35  1  1  0  0  0
  4  1  1  6  0  0  0
  4 15  1  0  0  0  0
  5  8  1  0  0  0  0
  6  2  1  1  0  0  0
  6  4  1  0  0  0  0
  7  3  1  0  0  0  0
  8  9  2  0  0  0  0
  8 12  2  0  0  0  0
 10 14  2  0  0  0  0
 11 14  1  0  0  0  0
 11  7  2  0  0  0  0
 14  1  1  0  0  0  0
 15 18  1  6  0  0  0
 15  8  1  0  0  0  0
 16 21  1  6  0  0  0
 16  6  1  0  0  0  0
 17 13  1  6  0  0  0
 17 18  1  0  0  0  0
 17 28  1  0  0  0  0
 18 30  1  0  0  0  0
 19 10  1  0  0  0  0
 19 16  1  0  0  0  0
 20 21  1  0  0  0  0
 22 21  2  0  0  0  0
 23 25  1  0  0  0  0
 24 25  2  0  0  0  0
 24 26  1  0  0  0  0
 25 22  1  0  0  0  0
 26 20  2  0  0  0  0
 28 29  1  0  0  0  0
 28 27  1  1  0  0  0
 29 27  1  0  0  0  0
 31 30  1  1  0  0  0
 31 34  1  0  0  0  0
 31 33  1  0  0  0  0
 34 32  1  6  0  0  0
 34 33  1  0  0  0  0
 36 35  1  0  0  0  0
 37 36  3  0  0  0  0
M  END
>  <MODEL>
4

>  <REMARK>
 VINA RESULT:      -5.9      2.191      2.955
  Name = 
  6 active torsions:
  status: ('A' for Active; 'I' for Inactive)
    1  A    between atoms: O_1  and  C_5
    2  A    between atoms: O_1  and  N_36
    3  A    between atoms: C_3  and  C_30
    4  A    between atoms: C_6  and  C_31
    5  A    between atoms: C_9  and  C_30
    6  A    between atoms: C_26  and  C_33
                            x       y       z     vdW  Elec       q    Type
                         _______ _______ _______ _____ _____    ______ ____

>  <TORSDO>
F 6

$$$$
=
 OpenBabel11062409023D

 37 43  0  0  1  0  0  0  0  0999 V2000
  161.1360  209.4930  150.8550 C   0  0  0  0  0  0  0  0  0  0  0  0
  160.9650  206.4450  153.3300 C   0  0  0  0  0  2  0  0  0  0  0  0
  161.1760  211.7610  149.8930 C   0  0  2  0  0  3  0  0  0  0  0  0
  160.6880  208.5630  151.9250 C   0  0  1  0  0  3  0  0  0  0  0  0
  160.9180  210.7830  151.0020 C   0  0  0  0  0  0  0  0  0  0  0  0
  161.2810  207.0960  152.0010 C   0  0  2  0  0  3  0  0  0  0  0  0
  162.3520  211.2540  149.0070 C   0  0  0  0  0  3  0  0  0  0  0  0
  159.9470  211.0720  152.3950 S   0  0  0  0  0  0  0  0  0  0  0  0
  158.4950  211.1360  152.0340 O   0  0  0  0  0  0  0  0  0  0  0  0
  161.6900  207.8330  149.0810 C   0  0  0  0  0  3  0  0  0  0  0  0
  162.6570  209.9380  148.9650 C   0  0  0  0  0  3  0  0  0  0  0  0
  160.3400  212.2760  153.1830 O   0  0  0  0  0  0  0  0  0  0  0  0
  161.9860  207.0000  154.2890 C   0  0  0  0  0  2  0  0  0  0  0  0
  161.8590  208.9730  149.6760 C   0  0  0  0  0  0  0  0  0  0  0  0
  160.3220  209.4800  153.1400 C   0  0  2  0  0  3  0  0  0  0  0  0
  160.6430  206.2970  150.8850 C   0  0  1  0  0  3  0  0  0  0  0  0
  161.2070  208.2680  154.8780 C   0  0  2  0  0  3  0  0  0  0  0  0
  161.4150  209.5000  154.2070 N   0  0  0  0  0  0  0  0  0  0  0  0
  160.8560  206.7570  149.5530 O   0  0  0  0  0  0  0  0  0  0  0  0
  161.5370  204.1110  151.9920 C   0  0  0  0  0  3  0  0  0  0  0  0
  160.8730  204.7940  150.9490 C   0  0  0  0  0  0  0  0  0  0  0  0
  160.3750  204.1100  149.8780 C   0  0  0  0  0  3  0  0  0  0  0  0
  159.9600  201.9660  148.7980 F   0  0  0  0  0  0  0  0  0  0  0  0
  161.0330  201.9820  150.8660 C   0  0  0  0  0  3  0  0  0  0  0  0
  160.4710  202.7170  149.8060 C   0  0  0  0  0  0  0  0  0  0  0  0
  161.5860  202.7000  151.9400 C   0  0  0  0  0  3  0  0  0  0  0  0
  160.3300  207.0000  156.9270 C   0  0  0  0  0  2  0  0  0  0  0  0
  161.0570  208.1980  156.3960 C   0  0  1  0  0  3  0  0  0  0  0  0
  161.7190  207.1230  156.9340 O   0  0  0  0  0  0  0  0  0  0  0  0
  161.1020  210.4960  155.1280 O   0  0  0  0  0  0  0  0  0  0  0  0
  159.7500  210.5070  155.4860 C   0  0  1  0  0  3  0  0  0  0  0  0
  157.5760  211.2880  156.1500 C   0  0  0  0  0  1  0  0  0  0  0  0
  159.6160  210.9220  156.9860 C   0  0  0  0  0  2  0  0  0  0  0  0
  158.9730  211.7190  155.9010 C   0  0  1  0  0  3  0  0  0  0  0  0
  161.4130  213.2000  150.3450 C   0  0  0  0  0  2  0  0  0  0  0  0
  160.1900  213.9090  150.7100 C   0  0  0  0  0  0  0  0  0  0  0  0
  159.1700  214.4530  151.0180 C   0  0  0  0  0  3  0  0  0  0  0  0
  1  5  2  0  0  0  0
  2 13  1  0  0  0  0
  3 35  1  1  0  0  0
  3  5  1  0  0  0  0
  4  1  1  6  0  0  0
  4  6  1  0  0  0  0
  4 15  1  0  0  0  0
  5  8  1  0  0  0  0
  6  2  1  1  0  0  0
  7  3  1  0  0  0  0
  8 15  1  0  0  0  0
  8 12  2  0  0  0  0
  9  8  2  0  0  0  0
 10 19  1  0  0  0  0
 10 14  2  0  0  0  0
 11  7  2  0  0  0  0
 11 14  1  0  0  0  0
 14  1  1  0  0  0  0
 15 18  1  1  0  0  0
 16 21  1  6  0  0  0
 16  6  1  0  0  0  0
 17 13  1  1  0  0  0
 17 28  1  0  0  0  0
 18 17  1  0  0  0  0
 18 30  1  0  0  0  0
 19 16  1  0  0  0  0
 21 20  2  0  0  0  0
 22 21  1  0  0  0  0
 23 25  1  0  0  0  0
 24 26  2  0  0  0  0
 25 22  2  0  0  0  0
 25 24  1  0  0  0  0
 26 20  1  0  0  0  0
 27 29  1  0  0  0  0
 28 27  1  6  0  0  0
 28 29  1  0  0  0  0
 31 30  1  6  0  0  0
 31 34  1  0  0  0  0
 31 33  1  0  0  0  0
 34 32  1  1  0  0  0
 34 33  1  0  0  0  0
 35 36  1  0  0  0  0
 36 37  3  0  0  0  0
M  END
>  <MODEL>
5

>  <REMARK>
 VINA RESULT:      -4.8      2.758      6.735
  Name = 
  6 active torsions:
  status: ('A' for Active; 'I' for Inactive)
    1  A    between atoms: O_1  and  C_5
    2  A    between atoms: O_1  and  N_36
    3  A    between atoms: C_3  and  C_30
    4  A    between atoms: C_6  and  C_31
    5  A    between atoms: C_9  and  C_30
    6  A    between atoms: C_26  and  C_33
                            x       y       z     vdW  Elec       q    Type
                         _______ _______ _______ _____ _____    ______ ____

>  <TORSDO>
F 6

$$$$
