=
 OpenBabel11062408253D

 32 37  0  0  0  0  0  0  0  0999 V2000
  161.2570  204.5070  150.1010 C   0  0  0  0  0  0  0  0  0  0  0  0
  161.6530  206.6720  150.9240 N   0  0  0  0  0  0  0  0  0  0  0  0
  160.9110  203.1910  150.4710 C   0  0  0  0  0  3  0  0  0  0  0  0
  161.4270  205.3990  151.1300 C   0  0  0  0  0  0  0  0  0  0  0  0
  161.6420  207.3040  152.0900 C   0  0  0  0  0  0  0  0  0  0  0  0
  162.0890  210.7270  148.5020 C   0  0  0  0  0  3  0  0  0  0  0  0
  161.7230  207.2300  149.7100 C   0  0  0  0  0  0  0  0  0  0  0  0
  162.0020  210.7210  150.9290 C   0  0  0  0  0  3  0  0  0  0  0  0
  161.8770  209.3300  150.9310 C   0  0  0  0  0  0  0  0  0  0  0  0
  161.2550  205.1410  152.4570 C   0  0  0  0  0  0  0  0  0  0  0  0
  161.7490  208.6570  152.1260 N   0  0  0  0  0  0  0  0  0  0  0  0
  160.9050  203.8510  152.8640 C   0  0  0  0  0  3  0  0  0  0  0  0
  161.5970  206.4070  148.6200 N   0  0  0  0  0  0  0  0  0  0  0  0
  161.3870  205.0460  148.7850 C   0  0  0  0  0  0  0  0  0  0  0  0
  161.8600  208.6260  149.6760 C   0  0  0  0  0  0  0  0  0  0  0  0
  161.4080  206.3760  153.1200 C   0  0  0  0  0  0  0  0  0  0  0  0
  160.7460  202.8680  151.8490 C   0  0  0  0  0  3  0  0  0  0  0  0
  162.1090  211.4150  149.7200 C   0  0  0  0  0  3  0  0  0  0  0  0
  161.9620  209.3350  148.4760 C   0  0  0  0  0  3  0  0  0  0  0  0
  160.8940  203.8900  145.1980 C   0  0  0  0  0  0  0  0  0  0  0  0
  160.7190  204.3950  143.9510 F   0  0  0  0  0  0  0  0  0  0  0  0
  161.2220  204.2000  147.5890 C   0  0  0  0  0  0  0  0  0  0  0  0
  160.9190  202.5050  145.3760 C   0  0  0  0  0  3  0  0  0  0  0  0
  161.2300  202.8090  147.7530 C   0  0  0  0  0  3  0  0  0  0  0  0
  161.0370  204.7470  146.3000 C   0  0  0  0  0  0  0  0  0  0  0  0
  160.9090  206.4860  146.0460 Cl  0  0  0  0  0  0  0  0  0  0  0  0
  161.0750  201.9640  146.6530 C   0  0  0  0  0  0  0  0  0  0  0  0
  161.5120  200.1860  148.1400 O   0  0  0  0  0  1  0  0  0  0  0  0
  161.1160  200.4880  146.8370 C   0  0  0  0  0  2  0  0  0  0  0  0
  161.1850  206.6640  154.5650 C   0  0  0  0  0  2  0  0  0  0  0  0
  160.5090  208.0120  154.7250 C   0  0  0  0  0  2  0  0  0  0  0  0
  161.2860  208.8260  155.5460 O   0  0  0  0  0  1  0  0  0  0  0  0
  1  3  2  0  0  0  0
  1  4  1  0  0  0  0
  2  4  1  0  0  0  0
  2  5  1  0  0  0  0
  3 17  1  0  0  0  0
  4 10  2  0  0  0  0
  5 11  1  0  0  0  0
  5 16  2  0  0  0  0
  6 18  1  0  0  0  0
  7  2  1  0  0  0  0
  8  9  1  0  0  0  0
  9 11  2  0  0  0  0
 10 12  1  0  0  0  0
 10 16  1  0  0  0  0
 13 14  2  0  0  0  0
 13  7  1  0  0  0  0
 14  1  1  0  0  0  0
 15  7  2  0  0  0  0
 15  9  1  0  0  0  0
 16 30  1  0  0  0  0
 17 12  2  0  0  0  0
 18  8  2  0  0  0  0
 19  6  2  0  0  0  0
 19 15  1  0  0  0  0
 20 23  2  0  0  0  0
 20 25  1  0  0  0  0
 21 20  1  0  0  0  0
 22 24  1  0  0  0  0
 22 14  1  0  0  0  0
 23 27  1  0  0  0  0
 25 22  2  0  0  0  0
 26 25  1  0  0  0  0
 27 29  1  0  0  0  0
 27 24  2  0  0  0  0
 29 28  1  0  0  0  0
 30 31  1  0  0  0  0
 31 32  1  0  0  0  0
M  END
>  <MODEL>
1

>  <REMARK>
 VINA RESULT:     -10.7      0.000      0.000
  Name = 
  4 active torsions:
  status: ('A' for Active; 'I' for Inactive)
    1  A    between atoms: C_13  and  C_18
    2  A    between atoms: C_15  and  C_26
    3  A    between atoms: C_16  and  C_27
    4  A    between atoms: C_18  and  C_29
                            x       y       z     vdW  Elec       q    Type
                         _______ _______ _______ _____ _____    ______ ____

>  <TORSDO>
F 4

$$$$
=
 OpenBabel11062408253D

 32 37  0  0  0  0  0  0  0  0999 V2000
  161.0220  205.3060  150.9230 C   0  0  0  0  0  0  0  0  0  0  0  0
  160.8450  204.2740  148.8190 N   0  0  0  0  0  0  0  0  0  0  0  0
  161.1530  205.0630  152.3060 C   0  0  0  0  0  3  0  0  0  0  0  0
  160.8780  204.1980  150.1260 C   0  0  0  0  0  0  0  0  0  0  0  0
  160.8320  203.0460  148.3180 C   0  0  0  0  0  0  0  0  0  0  0  0
  161.1870  206.2430  144.5170 C   0  0  0  0  0  3  0  0  0  0  0  0
  160.9650  205.4180  148.1360 C   0  0  0  0  0  0  0  0  0  0  0  0
  161.0440  203.8330  144.7840 C   0  0  0  0  0  3  0  0  0  0  0  0
  160.9800  203.9800  146.1720 C   0  0  0  0  0  0  0  0  0  0  0  0
  160.8890  202.9000  150.5410 C   0  0  0  0  0  0  0  0  0  0  0  0
  160.9040  202.8640  146.9740 N   0  0  0  0  0  0  0  0  0  0  0  0
  161.0230  202.6170  151.9020 C   0  0  0  0  0  3  0  0  0  0  0  0
  161.0820  206.5820  148.8530 N   0  0  0  0  0  0  0  0  0  0  0  0
  161.0900  206.5580  150.2390 C   0  0  0  0  0  0  0  0  0  0  0  0
  161.0200  205.3020  146.7390 C   0  0  0  0  0  0  0  0  0  0  0  0
  160.8420  202.1140  149.3710 C   0  0  0  0  0  0  0  0  0  0  0  0
  161.1430  203.7220  152.7890 C   0  0  0  0  0  3  0  0  0  0  0  0
  161.1450  204.9590  143.9610 C   0  0  0  0  0  3  0  0  0  0  0  0
  161.1270  206.4170  145.9030 C   0  0  0  0  0  3  0  0  0  0  0  0
  161.8570  210.1790  151.1010 C   0  0  0  0  0  0  0  0  0  0  0  0
  162.3130  211.3170  150.5210 F   0  0  0  0  0  0  0  0  0  0  0  0
  161.2520  207.8260  150.9730 C   0  0  0  0  0  0  0  0  0  0  0  0
  161.5210  210.1900  152.4560 C   0  0  0  0  0  3  0  0  0  0  0  0
  160.9340  207.8490  152.3360 C   0  0  0  0  0  3  0  0  0  0  0  0
  161.7330  208.9990  150.3510 C   0  0  0  0  0  0  0  0  0  0  0  0
  162.2520  209.0030  148.6670 Cl  0  0  0  0  0  0  0  0  0  0  0  0
  161.0720  209.0240  153.0770 C   0  0  0  0  0  0  0  0  0  0  0  0
  160.4310  207.7450  154.9530 O   0  0  0  0  0  1  0  0  0  0  0  0
  160.7000  209.0430  154.5190 C   0  0  0  0  0  2  0  0  0  0  0  0
  160.9650  200.6330  149.2670 C   0  0  0  0  0  2  0  0  0  0  0  0
  161.9970  200.2720  148.2160 C   0  0  0  0  0  2  0  0  0  0  0  0
  161.3560  199.7350  147.1020 O   0  0  0  0  0  1  0  0  0  0  0  0
  1  3  2  0  0  0  0
  2  4  1  0  0  0  0
  3 17  1  0  0  0  0
  4 10  2  0  0  0  0
  4  1  1  0  0  0  0
  5  2  1  0  0  0  0
  5 16  2  0  0  0  0
  6 19  2  0  0  0  0
  7  2  1  0  0  0  0
  7 13  1  0  0  0  0
  8  9  1  0  0  0  0
  9 15  1  0  0  0  0
  9 11  2  0  0  0  0
 10 12  1  0  0  0  0
 11  5  1  0  0  0  0
 12 17  2  0  0  0  0
 13 14  2  0  0  0  0
 14  1  1  0  0  0  0
 14 22  1  0  0  0  0
 15  7  2  0  0  0  0
 16 10  1  0  0  0  0
 18  6  1  0  0  0  0
 18  8  2  0  0  0  0
 19 15  1  0  0  0  0
 20 23  1  0  0  0  0
 21 20  1  0  0  0  0
 22 24  2  0  0  0  0
 23 27  2  0  0  0  0
 24 27  1  0  0  0  0
 25 22  1  0  0  0  0
 25 20  2  0  0  0  0
 26 25  1  0  0  0  0
 27 29  1  0  0  0  0
 29 28  1  0  0  0  0
 30 16  1  0  0  0  0
 31 30  1  0  0  0  0
 32 31  1  0  0  0  0
M  END
>  <MODEL>
2

>  <REMARK>
 VINA RESULT:      -9.6      2.323      6.870
  Name = 
  4 active torsions:
  status: ('A' for Active; 'I' for Inactive)
    1  A    between atoms: C_13  and  C_18
    2  A    between atoms: C_15  and  C_26
    3  A    between atoms: C_16  and  C_27
    4  A    between atoms: C_18  and  C_29
                            x       y       z     vdW  Elec       q    Type
                         _______ _______ _______ _____ _____    ______ ____

>  <TORSDO>
F 4

$$$$
=
 OpenBabel11062408253D

 32 37  0  0  0  0  0  0  0  0999 V2000
  161.6210  207.5580  150.2370 C   0  0  0  0  0  0  0  0  0  0  0  0
  161.6580  205.4940  149.1140 N   0  0  0  0  0  0  0  0  0  0  0  0
  161.7170  208.9540  150.0630 C   0  0  0  0  0  3  0  0  0  0  0  0
  161.8140  206.7940  149.1130 C   0  0  0  0  0  0  0  0  0  0  0  0
  161.7810  205.0470  147.8710 C   0  0  0  0  0  0  0  0  0  0  0  0
  160.4530  201.2090  150.7530 C   0  0  0  0  0  3  0  0  0  0  0  0
  161.2820  204.7890  150.1870 C   0  0  0  0  0  0  0  0  0  0  0  0
  160.9780  201.5500  148.4060 C   0  0  0  0  0  3  0  0  0  0  0  0
  161.2080  202.9070  148.6450 C   0  0  0  0  0  0  0  0  0  0  0  0
  162.0480  207.2590  147.8540 C   0  0  0  0  0  0  0  0  0  0  0  0
  161.5530  203.7360  147.6000 N   0  0  0  0  0  0  0  0  0  0  0  0
  162.1430  208.6350  147.6380 C   0  0  0  0  0  3  0  0  0  0  0  0
  161.0970  205.4670  151.3650 N   0  0  0  0  0  0  0  0  0  0  0  0
  161.2810  206.8400  151.4240 C   0  0  0  0  0  0  0  0  0  0  0  0
  161.0550  203.4200  149.9810 C   0  0  0  0  0  0  0  0  0  0  0  0
  162.0490  206.1270  147.0120 C   0  0  0  0  0  0  0  0  0  0  0  0
  161.9850  209.4840  148.7680 C   0  0  0  0  0  3  0  0  0  0  0  0
  160.6050  200.7050  149.4560 C   0  0  0  0  0  3  0  0  0  0  0  0
  160.6750  202.5640  151.0180 C   0  0  0  0  0  3  0  0  0  0  0  0
  160.7180  207.5670  155.1120 C   0  0  0  0  0  0  0  0  0  0  0  0
  160.6240  206.9230  156.3020 F   0  0  0  0  0  0  0  0  0  0  0  0
  161.0390  207.5380  152.7000 C   0  0  0  0  0  0  0  0  0  0  0  0
  160.5790  208.9570  155.0740 C   0  0  0  0  0  3  0  0  0  0  0  0
  160.8820  208.9290  152.6770 C   0  0  0  0  0  3  0  0  0  0  0  0
  160.9400  206.8470  153.9280 C   0  0  0  0  0  0  0  0  0  0  0  0
  161.0200  205.0880  154.0050 Cl  0  0  0  0  0  0  0  0  0  0  0  0
  160.6490  209.6360  153.8570 C   0  0  0  0  0  0  0  0  0  0  0  0
  160.1920  211.5330  152.5320 O   0  0  0  0  0  1  0  0  0  0  0  0
  160.5160  211.1180  153.8240 C   0  0  0  0  0  2  0  0  0  0  0  0
  162.1280  206.1020  145.5240 C   0  0  0  0  0  2  0  0  0  0  0  0
  160.7430  205.9180  144.9360 C   0  0  0  0  0  2  0  0  0  0  0  0
  160.5990  204.6060  144.4890 O   0  0  0  0  0  1  0  0  0  0  0  0
  1 14  1  0  0  0  0
  2  7  1  0  0  0  0
  3  1  1  0  0  0  0
  4  2  1  0  0  0  0
  4  1  2  0  0  0  0
  5  2  1  0  0  0  0
  6 19  2  0  0  0  0
  7 13  1  0  0  0  0
  8  9  1  0  0  0  0
  8 18  2  0  0  0  0
  9 15  1  0  0  0  0
 10  4  1  0  0  0  0
 11  5  1  0  0  0  0
 11  9  2  0  0  0  0
 12 10  2  0  0  0  0
 12 17  1  0  0  0  0
 13 14  2  0  0  0  0
 14 22  1  0  0  0  0
 15  7  2  0  0  0  0
 15 19  1  0  0  0  0
 16 10  1  0  0  0  0
 16  5  2  0  0  0  0
 17  3  2  0  0  0  0
 18  6  1  0  0  0  0
 20 21  1  0  0  0  0
 22 25  1  0  0  0  0
 23 20  1  0  0  0  0
 24 22  2  0  0  0  0
 24 27  1  0  0  0  0
 25 26  1  0  0  0  0
 25 20  2  0  0  0  0
 27 23  2  0  0  0  0
 28 29  1  0  0  0  0
 29 27  1  0  0  0  0
 30 16  1  0  0  0  0
 31 30  1  0  0  0  0
 32 31  1  0  0  0  0
M  END
>  <MODEL>
3

>  <REMARK>
 VINA RESULT:      -9.6      3.275      8.166
  Name = 
  4 active torsions:
  status: ('A' for Active; 'I' for Inactive)
    1  A    between atoms: C_13  and  C_18
    2  A    between atoms: C_15  and  C_26
    3  A    between atoms: C_16  and  C_27
    4  A    between atoms: C_18  and  C_29
                            x       y       z     vdW  Elec       q    Type
                         _______ _______ _______ _____ _____    ______ ____

>  <TORSDO>
F 4

$$$$
=
 OpenBabel11062408253D

 32 37  0  0  0  0  0  0  0  0999 V2000
  161.4290  206.1930  149.2300 C   0  0  0  0  0  0  0  0  0  0  0  0
  161.2820  207.7230  151.0070 N   0  0  0  0  0  0  0  0  0  0  0  0
  161.7840  206.0500  147.8730 C   0  0  0  0  0  3  0  0  0  0  0  0
  161.4900  207.4650  149.7410 C   0  0  0  0  0  0  0  0  0  0  0  0
  161.5350  209.0060  151.2310 C   0  0  0  0  0  0  0  0  0  0  0  0
  160.5690  206.8510  155.6150 C   0  0  0  0  0  3  0  0  0  0  0  0
  161.0100  206.7870  151.9230 C   0  0  0  0  0  0  0  0  0  0  0  0
  161.1050  209.0860  154.8310 C   0  0  0  0  0  3  0  0  0  0  0  0
  161.1710  208.6200  153.5160 C   0  0  0  0  0  0  0  0  0  0  0  0
  161.8950  208.5820  149.0730 C   0  0  0  0  0  0  0  0  0  0  0  0
  161.4920  209.4910  152.4980 N   0  0  0  0  0  0  0  0  0  0  0  0
  162.2610  208.4830  147.7290 C   0  0  0  0  0  3  0  0  0  0  0  0
  160.8980  205.4880  151.4970 N   0  0  0  0  0  0  0  0  0  0  0  0
  161.0790  205.1670  150.1600 C   0  0  0  0  0  0  0  0  0  0  0  0
  160.9260  207.2270  153.2530 C   0  0  0  0  0  0  0  0  0  0  0  0
  161.9180  209.6210  150.0270 C   0  0  0  0  0  0  0  0  0  0  0  0
  162.1890  207.1960  147.1280 C   0  0  0  0  0  3  0  0  0  0  0  0
  160.8040  208.2060  155.8750 C   0  0  0  0  0  3  0  0  0  0  0  0
  160.6320  206.3590  154.3080 C   0  0  0  0  0  3  0  0  0  0  0  0
  160.7870  201.3780  150.2280 C   0  0  0  0  0  0  0  0  0  0  0  0
  160.6850  200.3530  151.1100 F   0  0  0  0  0  0  0  0  0  0  0  0
  160.9840  203.7550  149.7470 C   0  0  0  0  0  0  0  0  0  0  0  0
  160.8080  201.1020  148.8590 C   0  0  0  0  0  3  0  0  0  0  0  0
  161.0190  203.4610  148.3780 C   0  0  0  0  0  3  0  0  0  0  0  0
  160.8830  202.7020  150.6830 C   0  0  0  0  0  0  0  0  0  0  0  0
  160.9460  203.0030  152.4180 Cl  0  0  0  0  0  0  0  0  0  0  0  0
  160.9350  202.1400  147.9350 C   0  0  0  0  0  0  0  0  0  0  0  0
  161.3190  202.9810  145.7650 O   0  0  0  0  0  1  0  0  0  0  0  0
  160.9410  201.8420  146.4770 C   0  0  0  0  0  2  0  0  0  0  0  0
  162.4180  211.0130  149.8400 C   0  0  0  0  0  2  0  0  0  0  0  0
  161.8440  211.6020  148.5670 C   0  0  0  0  0  2  0  0  0  0  0  0
  162.8550  212.2480  147.8580 O   0  0  0  0  0  1  0  0  0  0  0  0
  1  4  2  0  0  0  0
  1 14  1  0  0  0  0
  2  5  1  0  0  0  0
  2  7  1  0  0  0  0
  3  1  1  0  0  0  0
  4  2  1  0  0  0  0
  5 11  1  0  0  0  0
  6 18  1  0  0  0  0
  7 15  2  0  0  0  0
  8 18  2  0  0  0  0
  9  8  1  0  0  0  0
 10  4  1  0  0  0  0
 10 16  1  0  0  0  0
 11  9  2  0  0  0  0
 12 10  2  0  0  0  0
 13  7  1  0  0  0  0
 14 13  2  0  0  0  0
 15  9  1  0  0  0  0
 15 19  1  0  0  0  0
 16  5  2  0  0  0  0
 17 12  1  0  0  0  0
 17  3  2  0  0  0  0
 19  6  2  0  0  0  0
 20 25  1  0  0  0  0
 20 21  1  0  0  0  0
 22 14  1  0  0  0  0
 22 25  2  0  0  0  0
 23 20  2  0  0  0  0
 24 22  1  0  0  0  0
 25 26  1  0  0  0  0
 27 24  2  0  0  0  0
 27 23  1  0  0  0  0
 28 29  1  0  0  0  0
 29 27  1  0  0  0  0
 30 16  1  0  0  0  0
 31 30  1  0  0  0  0
 32 31  1  0  0  0  0
M  END
>  <MODEL>
4

>  <REMARK>
 VINA RESULT:      -9.6      2.821      4.908
  Name = 
  4 active torsions:
  status: ('A' for Active; 'I' for Inactive)
    1  A    between atoms: C_13  and  C_18
    2  A    between atoms: C_15  and  C_26
    3  A    between atoms: C_16  and  C_27
    4  A    between atoms: C_18  and  C_29
                            x       y       z     vdW  Elec       q    Type
                         _______ _______ _______ _____ _____    ______ ____

>  <TORSDO>
F 4

$$$$
=
 OpenBabel11062408253D

 32 37  0  0  0  0  0  0  0  0999 V2000
  161.3330  205.5390  150.8440 C   0  0  0  0  0  0  0  0  0  0  0  0
  161.5500  207.8510  151.2040 N   0  0  0  0  0  0  0  0  0  0  0  0
  161.0480  204.3090  151.4710 C   0  0  0  0  0  3  0  0  0  0  0  0
  161.3910  206.6370  151.6660 C   0  0  0  0  0  0  0  0  0  0  0  0
  161.4360  208.7110  152.2080 C   0  0  0  0  0  0  0  0  0  0  0  0
  161.8700  211.3300  147.9950 C   0  0  0  0  0  3  0  0  0  0  0  0
  161.6520  208.1460  149.9030 C   0  0  0  0  0  0  0  0  0  0  0  0
  161.6500  211.8260  150.3620 C   0  0  0  0  0  3  0  0  0  0  0  0
  161.6110  210.4600  150.6550 C   0  0  0  0  0  0  0  0  0  0  0  0
  161.1620  206.6500  153.0100 C   0  0  0  0  0  0  0  0  0  0  0  0
  161.4590  210.0460  151.9600 N   0  0  0  0  0  0  0  0  0  0  0  0
  160.8700  205.4530  153.6670 C   0  0  0  0  0  3  0  0  0  0  0  0
  161.6360  207.1060  149.0080 N   0  0  0  0  0  0  0  0  0  0  0  0
  161.5010  205.7990  149.4500 C   0  0  0  0  0  0  0  0  0  0  0  0
  161.7060  209.5100  149.5790 C   0  0  0  0  0  0  0  0  0  0  0  0
  161.2030  208.0050  153.4000 C   0  0  0  0  0  0  0  0  0  0  0  0
  160.8270  204.2700  152.8780 C   0  0  0  0  0  3  0  0  0  0  0  0
  161.7810  212.2580  149.0390 C   0  0  0  0  0  3  0  0  0  0  0  0
  161.8300  209.9580  148.2610 C   0  0  0  0  0  3  0  0  0  0  0  0
  161.5810  203.8700  146.1760 C   0  0  0  0  0  0  0  0  0  0  0  0
  161.7500  204.0750  144.8460 F   0  0  0  0  0  0  0  0  0  0  0  0
  161.4540  204.7110  148.4560 C   0  0  0  0  0  0  0  0  0  0  0  0
  161.3480  202.5750  146.6430 C   0  0  0  0  0  3  0  0  0  0  0  0
  161.2060  203.4090  148.9070 C   0  0  0  0  0  3  0  0  0  0  0  0
  161.6280  204.9470  147.0740 C   0  0  0  0  0  0  0  0  0  0  0  0
  161.8330  206.5770  146.4360 Cl  0  0  0  0  0  0  0  0  0  0  0  0
  161.1490  202.3450  148.0050 C   0  0  0  0  0  0  0  0  0  0  0  0
  160.9380  200.9510  149.8960 O   0  0  0  0  0  1  0  0  0  0  0  0
  160.9160  200.9610  148.5010 C   0  0  0  0  0  2  0  0  0  0  0  0
  160.8840  208.5720  154.7410 C   0  0  0  0  0  2  0  0  0  0  0  0
  161.5820  207.7710  155.8220 C   0  0  0  0  0  2  0  0  0  0  0  0
  160.6430  207.3340  156.7550 O   0  0  0  0  0  1  0  0  0  0  0  0
  1  3  2  0  0  0  0
  1  4  1  0  0  0  0
  2  4  1  0  0  0  0
  2  5  1  0  0  0  0
  3 17  1  0  0  0  0
  4 10  2  0  0  0  0
  5 16  2  0  0  0  0
  6 19  2  0  0  0  0
  6 18  1  0  0  0  0
  7  2  1  0  0  0  0
  8  9  1  0  0  0  0
  9 11  2  0  0  0  0
 10 16  1  0  0  0  0
 10 12  1  0  0  0  0
 11  5  1  0  0  0  0
 13 14  2  0  0  0  0
 13  7  1  0  0  0  0
 14  1  1  0  0  0  0
 15  7  2  0  0  0  0
 15  9  1  0  0  0  0
 16 30  1  0  0  0  0
 17 12  2  0  0  0  0
 18  8  2  0  0  0  0
 19 15  1  0  0  0  0
 20 23  2  0  0  0  0
 20 25  1  0  0  0  0
 21 20  1  0  0  0  0
 22 24  1  0  0  0  0
 22 14  1  0  0  0  0
 23 27  1  0  0  0  0
 25 22  2  0  0  0  0
 26 25  1  0  0  0  0
 27 29  1  0  0  0  0
 27 24  2  0  0  0  0
 29 28  1  0  0  0  0
 30 31  1  0  0  0  0
 31 32  1  0  0  0  0
M  END
>  <MODEL>
5

>  <REMARK>
 VINA RESULT:      -9.4      1.119      1.380
  Name = 
  4 active torsions:
  status: ('A' for Active; 'I' for Inactive)
    1  A    between atoms: C_13  and  C_18
    2  A    between atoms: C_15  and  C_26
    3  A    between atoms: C_16  and  C_27
    4  A    between atoms: C_18  and  C_29
                            x       y       z     vdW  Elec       q    Type
                         _______ _______ _______ _____ _____    ______ ____

>  <TORSDO>
F 4

$$$$
=
 OpenBabel11062408253D

 32 37  0  0  0  0  0  0  0  0999 V2000
  161.6600  209.3620  151.3410 C   0  0  0  0  0  0  0  0  0  0  0  0
  161.6660  207.1680  150.5000 N   0  0  0  0  0  0  0  0  0  0  0  0
  161.7250  210.7230  150.9790 C   0  0  0  0  0  3  0  0  0  0  0  0
  161.8030  208.4580  150.3190 C   0  0  0  0  0  0  0  0  0  0  0  0
  161.7280  206.5610  149.3220 C   0  0  0  0  0  0  0  0  0  0  0  0
  160.6180  203.1290  152.7550 C   0  0  0  0  0  3  0  0  0  0  0  0
  161.3600  206.6090  151.6750 C   0  0  0  0  0  0  0  0  0  0  0  0
  161.0080  203.1600  150.3580 C   0  0  0  0  0  3  0  0  0  0  0  0
  161.2310  204.5390  150.4020 C   0  0  0  0  0  0  0  0  0  0  0  0
  161.9600  208.7530  148.9980 C   0  0  0  0  0  0  0  0  0  0  0  0
  161.5060  205.2240  149.2390 N   0  0  0  0  0  0  0  0  0  0  0  0
  162.0230  210.0900  148.5970 C   0  0  0  0  0  3  0  0  0  0  0  0
  161.2300  207.4360  152.7620 N   0  0  0  0  0  0  0  0  0  0  0  0
  161.3960  208.8060  152.6290 C   0  0  0  0  0  0  0  0  0  0  0  0
  161.1430  205.2230  151.6650 C   0  0  0  0  0  0  0  0  0  0  0  0
  161.9330  207.5200  148.3140 C   0  0  0  0  0  0  0  0  0  0  0  0
  161.9150  211.0800  149.6120 C   0  0  0  0  0  3  0  0  0  0  0  0
  160.7060  202.4590  151.5290 C   0  0  0  0  0  3  0  0  0  0  0  0
  160.8330  204.5090  152.8250 C   0  0  0  0  0  3  0  0  0  0  0  0
  159.9900  211.3270  155.1020 C   0  0  0  0  0  0  0  0  0  0  0  0
  158.9390  212.1710  155.2510 F   0  0  0  0  0  0  0  0  0  0  0  0
  161.2140  209.6640  153.8140 C   0  0  0  0  0  0  0  0  0  0  0  0
  160.9570  211.2570  156.1070 C   0  0  0  0  0  3  0  0  0  0  0  0
  162.1830  209.6160  154.8230 C   0  0  0  0  0  3  0  0  0  0  0  0
  160.1140  210.5410  153.9460 C   0  0  0  0  0  0  0  0  0  0  0  0
  158.9220  210.7250  152.6610 Cl  0  0  0  0  0  0  0  0  0  0  0  0
  162.0580  210.4110  155.9640 C   0  0  0  0  0  0  0  0  0  0  0  0
  164.0670  211.2890  156.8340 O   0  0  0  0  0  1  0  0  0  0  0  0
  163.0790  210.3280  157.0440 C   0  0  0  0  0  2  0  0  0  0  0  0
  161.9300  207.2990  146.8410 C   0  0  0  0  0  2  0  0  0  0  0  0
  160.6660  206.5710  146.4290 C   0  0  0  0  0  2  0  0  0  0  0  0
  160.8030  206.1050  145.1220 O   0  0  0  0  0  1  0  0  0  0  0  0
  1 14  1  0  0  0  0
  2  7  1  0  0  0  0
  3  1  1  0  0  0  0
  4  2  1  0  0  0  0
  4  1  2  0  0  0  0
  5  2  1  0  0  0  0
  6 19  2  0  0  0  0
  7 13  1  0  0  0  0
  8  9  1  0  0  0  0
  8 18  2  0  0  0  0
  9 15  1  0  0  0  0
 10  4  1  0  0  0  0
 11  5  1  0  0  0  0
 11  9  2  0  0  0  0
 12 10  2  0  0  0  0
 12 17  1  0  0  0  0
 14 13  2  0  0  0  0
 14 22  1  0  0  0  0
 15  7  2  0  0  0  0
 15 19  1  0  0  0  0
 16 10  1  0  0  0  0
 16  5  2  0  0  0  0
 17  3  2  0  0  0  0
 18  6  1  0  0  0  0
 20 21  1  0  0  0  0
 20 23  1  0  0  0  0
 22 25  1  0  0  0  0
 22 24  2  0  0  0  0
 24 27  1  0  0  0  0
 25 20  2  0  0  0  0
 26 25  1  0  0  0  0
 27 23  2  0  0  0  0
 27 29  1  0  0  0  0
 28 29  1  0  0  0  0
 30 16  1  0  0  0  0
 31 30  1  0  0  0  0
 32 31  1  0  0  0  0
M  END
>  <MODEL>
6

>  <REMARK>
 VINA RESULT:      -8.3      3.632      8.551
  Name = 
  4 active torsions:
  status: ('A' for Active; 'I' for Inactive)
    1  A    between atoms: C_13  and  C_18
    2  A    between atoms: C_15  and  C_26
    3  A    between atoms: C_16  and  C_27
    4  A    between atoms: C_18  and  C_29
                            x       y       z     vdW  Elec       q    Type
                         _______ _______ _______ _____ _____    ______ ____

>  <TORSDO>
F 4

$$$$
