=
 OpenBabel11062408403D

 55 59  0  0  1  0  0  0  0  0999 V2000
  161.3370  209.8480  151.2930 C   0  0  2  0  0  3  0  0  0  0  0  0
  162.4490  209.9730  152.3230 C   0  0  0  0  0  2  0  0  0  0  0  0
  160.9990  210.0870  152.7660 C   0  0  1  0  0  0  0  0  0  0  0  0
  160.1540  212.3270  155.4640 C   0  0  0  0  0  0  0  0  0  0  0  0
  157.0400  213.1150  153.4100 C   0  0  1  0  0  3  0  0  0  0  0  0
  158.2770  213.5480  152.9070 O   0  0  0  0  0  0  0  0  0  0  0  0
  160.4180  211.4430  153.0280 C   0  0  0  0  0  0  0  0  0  0  0  0
  157.6820  212.0870  157.1300 C   0  0  0  0  0  1  0  0  0  0  0  0
  160.3160  211.8840  154.2530 C   0  0  0  0  0  0  0  0  0  0  0  0
  160.0770  212.3450  151.8840 C   0  0  0  0  0  2  0  0  0  0  0  0
  159.6930  214.2670  156.7600 O   0  0  0  0  0  1  0  0  0  0  0  0
  157.7600  213.0440  155.9500 C   0  0  1  0  0  0  0  0  0  0  0  0
  160.7950  211.6960  156.5220 O   0  0  0  0  0  1  0  0  0  0  0  0
  157.1610  212.3250  154.7270 C   0  0  0  0  0  2  0  0  0  0  0  0
  158.5850  212.6860  151.8420 C   0  0  2  0  0  3  0  0  0  0  0  0
  156.9870  214.1630  156.2630 O   0  0  0  0  0  1  0  0  0  0  0  0
  159.2200  213.4770  155.7070 C   0  0  2  0  0  3  0  0  0  0  0  0
  159.3970  213.3650  149.6830 O   0  0  0  0  0  1  0  0  0  0  0  0
  158.2680  213.3660  150.5060 C   0  0  1  0  0  3  0  0  0  0  0  0
  157.2420  212.6990  149.8580 F   0  0  0  0  0  0  0  0  0  0  0  0
  154.7210  213.7490  153.6050 O   0  0  0  0  0  1  0  0  0  0  0  0
  156.0180  214.2500  153.4570 C   0  0  0  0  0  2  0  0  0  0  0  0
  161.1710  208.3900  150.8790 C   0  0  0  0  0  2  0  0  0  0  0  0
  162.1190  209.2220  148.7760 C   0  0  0  0  0  2  0  0  0  0  0  0
  161.5910  208.2070  149.4580 C   0  0  0  0  0  0  0  0  0  0  0  0
  161.5550  206.8450  148.8560 C   0  0  0  0  0  2  0  0  0  0  0  0
  162.4690  206.7640  147.8040 O   0  0  0  0  0  0  0  0  0  0  0  0
  161.9810  205.7430  146.9840 C   0  0  2  0  0  3  0  0  0  0  0  0
  162.4360  204.3800  147.5130 C   0  0  0  0  0  2  0  0  0  0  0  0
  161.3230  203.3260  147.5040 C   0  0  2  0  0  3  0  0  0  0  0  0
  160.0840  204.8120  149.3430 O   0  0  0  0  0  1  0  0  0  0  0  0
  160.2330  203.3230  151.1000 C   0  0  2  0  0  3  0  0  0  0  0  0
  160.2110  201.9560  149.2610 C   0  0  0  0  0  2  0  0  0  0  0  0
  161.2360  202.7250  150.1170 C   0  0  1  0  0  0  0  0  0  0  0  0
  161.0020  204.2640  150.2420 C   0  0  1  0  0  3  0  0  0  0  0  0
  161.5000  202.3060  148.6320 C   0  0  2  0  0  3  0  0  0  0  0  0
  160.8260  203.3000  152.4950 C   0  0  2  0  0  3  0  0  0  0  0  0
  161.1800  204.7090  152.9240 C   0  0  0  0  0  1  0  0  0  0  0  0
  161.9660  202.5210  152.5060 F   0  0  0  0  0  0  0  0  0  0  0  0
  159.8960  202.0430  145.9500 C   0  0  1  0  0  3  0  0  0  0  0  0
  160.9860  201.2530  146.3640 O   0  0  0  0  0  0  0  0  0  0  0  0
  161.2440  202.6200  146.1570 C   0  0  2  0  0  3  0  0  0  0  0  0
  159.6680  201.8310  144.4690 C   0  0  0  0  0  2  0  0  0  0  0  0
  158.1200  203.4000  144.3650 C   0  0  0  0  0  1  0  0  0  0  0  0
  159.3720  203.0540  143.8640 O   0  0  0  0  0  0  0  0  0  0  0  0
  162.3970  205.9690  145.5270 C   0  0  0  0  0  2  0  0  0  0  0  0
  161.2530  205.8630  144.5690 C   0  0  0  0  0  0  0  0  0  0  0  0
  159.9640  206.1850  144.9740 O   0  0  0  0  0  1  0  0  0  0  0  0
  161.4570  205.4470  143.3980 O   0  0  0  0  0  0  0  0  0  0  0  0
  160.4390  208.9830  153.4340 O   0  0  0  0  0  0  0  0  0  0  0  0
  161.2510  208.7300  154.5510 C   0  0  0  0  0  2  0  0  0  0  0  0
  160.4140  208.2290  155.7170 C   0  0  1  0  0  0  0  0  0  0  0  0
  159.3640  209.0980  155.9470 F   0  0  0  0  0  0  0  0  0  0  0  0
  159.9150  206.9580  155.4330 O   0  0  0  0  0  1  0  0  0  0  0  0
  161.2810  208.1610  156.9590 C   0  0  0  0  0  1  0  0  0  0  0  0
  1 23  1  1  0  0  0
  1  2  1  0  0  0  0
  1  3  1  0  0  0  0
  2  3  1  0  0  0  0
  3  7  1  0  0  0  0
  3 50  1  1  0  0  0
  4 17  1  0  0  0  0
  4 13  1  0  0  0  0
  5 22  1  1  0  0  0
  5 14  1  0  0  0  0
  6  5  1  0  0  0  0
  7  9  2  0  0  0  0
  9  4  2  0  0  0  0
 10  7  1  0  0  0  0
 12 16  1  0  0  0  0
 12  8  1  1  0  0  0
 14 12  1  0  0  0  0
 15 19  1  6  0  0  0
 15 10  1  0  0  0  0
 15  6  1  0  0  0  0
 17 12  1  0  0  0  0
 17 11  1  1  0  0  0
 19 18  1  6  0  0  0
 20 19  1  0  0  0  0
 22 21  1  0  0  0  0
 24 25  2  0  0  0  0
 25 23  1  0  0  0  0
 26 25  1  0  0  0  0
 27 26  1  0  0  0  0
 28 46  1  6  0  0  0
 28 29  1  0  0  0  0
 28 27  1  0  0  0  0
 30 29  1  6  0  0  0
 32 37  1  1  0  0  0
 34 33  1  6  0  0  0
 34 35  1  0  0  0  0
 34 32  1  0  0  0  0
 35 31  1  6  0  0  0
 35 32  1  0  0  0  0
 36 30  1  6  0  0  0
 36 33  1  0  0  0  0
 36 34  1  0  0  0  0
 37 39  1  0  0  0  0
 37 38  1  6  0  0  0
 40 43  1  6  0  0  0
 40 42  1  0  0  0  0
 40 41  1  0  0  0  0
 42 41  1  0  0  0  0
 42 30  1  1  0  0  0
 45 44  1  0  0  0  0
 45 43  1  0  0  0  0
 47 48  1  0  0  0  0
 47 46  1  0  0  0  0
 49 47  2  0  0  0  0
 50 51  1  0  0  0  0
 51 52  1  0  0  0  0
 52 53  1  0  0  0  0
 52 55  1  1  0  0  0
 54 52  1  0  0  0  0
M  END
>  <MODEL>
1

>  <REMARK>
 VINA RESULT:      -6.3      0.000      0.000
  Name = 
  20 active torsions:
  status: ('A' for Active; 'I' for Inactive)
    1  A    between atoms: C_2  and  C_24
    2  A    between atoms: C_3  and  C_14
    3  A    between atoms: C_4  and  C_37
    4  A    between atoms: C_8  and  C_43
    5  A    between atoms: C_9  and  C_33
    6  A    between atoms: C_9  and  C_49
    7  A    between atoms: C_10  and  C_32
    8  A    between atoms: C_16  and  C_17
    9  A    between atoms: C_17  and  O_23
   10  A    between atoms: C_19  and  C_40
   11  A    between atoms: C_19  and  O_45
   12  A    between atoms: C_20  and  C_46
   13  A    between atoms: C_24  and  C_49
   14  A    between atoms: C_27  and  C_54
   15  A    between atoms: C_33  and  C_36
   16  A    between atoms: C_33  and  C_52
   17  A    between atoms: C_37  and  C_40
   18  A    between atoms: C_43  and  O_51
   19  A    between atoms: O_45  and  C_49
   20  A    between atoms: O_51  and  C_54
                            x       y       z     vdW  Elec       q    Type
                         _______ _______ _______ _____ _____    ______ ____

>  <TORSDO>
F 20

$$$$
=
 OpenBabel11062408403D

 55 59  0  0  1  0  0  0  0  0999 V2000
  161.7420  209.5920  151.2540 C   0  0  2  0  0  3  0  0  0  0  0  0
  160.3680  209.5930  150.6010 C   0  0  0  0  0  2  0  0  0  0  0  0
  161.0490  210.9150  150.9210 C   0  0  1  0  0  0  0  0  0  0  0  0
  161.4170  210.9600  154.5090 C   0  0  0  0  0  0  0  0  0  0  0  0
  157.7160  211.8750  154.5580 C   0  0  1  0  0  3  0  0  0  0  0  0
  158.6150  212.8290  154.0550 O   0  0  0  0  0  0  0  0  0  0  0  0
  160.6220  211.6820  152.1350 C   0  0  0  0  0  0  0  0  0  0  0  0
  159.8980  209.1810  156.3730 C   0  0  0  0  0  1  0  0  0  0  0  0
  161.0500  211.3240  153.3170 C   0  0  0  0  0  0  0  0  0  0  0  0
  159.8150  212.9320  151.9860 C   0  0  0  0  0  2  0  0  0  0  0  0
  161.5360  211.6480  156.7820 O   0  0  0  0  0  1  0  0  0  0  0  0
  159.4540  210.6090  156.0920 C   0  0  1  0  0  0  0  0  0  0  0  0
  162.4550  210.0510  154.6640 O   0  0  0  0  0  1  0  0  0  0  0  0
  158.3970  210.5570  154.9730 C   0  0  0  0  0  2  0  0  0  0  0  0
  158.4460  212.8210  152.6610 C   0  0  2  0  0  3  0  0  0  0  0  0
  158.8790  211.1090  157.2610 O   0  0  0  0  0  1  0  0  0  0  0  0
  160.6660  211.4800  155.7000 C   0  0  2  0  0  3  0  0  0  0  0  0
  157.3470  213.9640  150.8520 O   0  0  0  0  0  1  0  0  0  0  0  0
  157.5810  214.0100  152.2290 C   0  0  1  0  0  3  0  0  0  0  0  0
  156.3650  213.9860  152.8900 F   0  0  0  0  0  0  0  0  0  0  0  0
  157.3750  213.6080  156.2000 O   0  0  0  0  0  1  0  0  0  0  0  0
  156.8010  212.4680  155.6290 C   0  0  0  0  0  2  0  0  0  0  0  0
  162.8060  209.2100  150.2310 C   0  0  0  0  0  2  0  0  0  0  0  0
  163.0180  206.8560  150.8830 C   0  0  0  0  0  2  0  0  0  0  0  0
  162.7350  207.7480  149.9370 C   0  0  0  0  0  0  0  0  0  0  0  0
  162.2000  207.2940  148.6220 C   0  0  0  0  0  2  0  0  0  0  0  0
  161.1160  206.4370  148.8190 O   0  0  0  0  0  0  0  0  0  0  0  0
  161.2090  205.5000  147.7860 C   0  0  2  0  0  3  0  0  0  0  0  0
  162.0250  204.2890  148.2450 C   0  0  0  0  0  2  0  0  0  0  0  0
  161.3200  203.4590  149.3240 C   0  0  2  0  0  3  0  0  0  0  0  0
  159.4980  204.7430  150.7930 O   0  0  0  0  0  1  0  0  0  0  0  0
  160.6080  204.6560  152.8140 C   0  0  2  0  0  3  0  0  0  0  0  0
  161.3700  202.7910  151.7220 C   0  0  0  0  0  2  0  0  0  0  0  0
  161.7260  204.2860  151.8440 C   0  0  1  0  0  0  0  0  0  0  0  0
  160.5910  205.2900  151.4680 C   0  0  1  0  0  3  0  0  0  0  0  0
  162.1360  203.4020  150.6180 C   0  0  2  0  0  3  0  0  0  0  0  0
  161.1410  205.6400  153.8380 C   0  0  2  0  0  3  0  0  0  0  0  0
  160.5360  207.0080  153.5950 C   0  0  0  0  0  1  0  0  0  0  0  0
  162.5140  205.7260  153.7340 F   0  0  0  0  0  0  0  0  0  0  0  0
  160.5870  202.0840  147.4090 C   0  0  1  0  0  3  0  0  0  0  0  0
  159.6590  201.9730  148.4620 O   0  0  0  0  0  0  0  0  0  0  0  0
  161.0150  202.0530  148.8260 C   0  0  2  0  0  3  0  0  0  0  0  0
  160.8020  200.7170  146.7940 C   0  0  0  0  0  2  0  0  0  0  0  0
  160.1500  202.0650  145.1740 C   0  0  0  0  0  1  0  0  0  0  0  0
  160.7090  200.8110  145.4040 O   0  0  0  0  0  0  0  0  0  0  0  0
  161.7850  206.1420  146.5200 C   0  0  0  0  0  2  0  0  0  0  0  0
  160.9840  205.8390  145.2930 C   0  0  0  0  0  0  0  0  0  0  0  0
  161.6130  205.4150  144.1300 O   0  0  0  0  0  0  0  0  0  0  0  0
  159.7350  206.0040  145.3070 O   0  0  0  0  0  1  0  0  0  0  0  0
  161.6130  211.6280  149.8480 O   0  0  0  0  0  0  0  0  0  0  0  0
  160.6800  211.5890  148.8000 C   0  0  0  0  0  2  0  0  0  0  0  0
  160.6490  212.9190  148.0640 C   0  0  1  0  0  0  0  0  0  0  0  0
  160.8300  212.7090  146.7100 F   0  0  0  0  0  0  0  0  0  0  0  0
  159.4240  213.5520  148.2770 O   0  0  0  0  0  1  0  0  0  0  0  0
  161.7660  213.8020  148.5810 C   0  0  0  0  0  1  0  0  0  0  0  0
  1 23  1  6  0  0  0
  2  3  1  0  0  0  0
  2  1  1  0  0  0  0
  3 50  1  6  0  0  0
  3  1  1  0  0  0  0
  3  7  1  0  0  0  0
  4 13  1  0  0  0  0
  4 17  1  0  0  0  0
  5 14  1  0  0  0  0
  5 22  1  1  0  0  0
  6  5  1  0  0  0  0
  7  9  2  0  0  0  0
  9  4  2  0  0  0  0
 10  7  1  0  0  0  0
 10 15  1  0  0  0  0
 12  8  1  1  0  0  0
 12 16  1  0  0  0  0
 14 12  1  0  0  0  0
 15 19  1  1  0  0  0
 15  6  1  0  0  0  0
 17 12  1  0  0  0  0
 17 11  1  1  0  0  0
 19 18  1  6  0  0  0
 19 20  1  0  0  0  0
 22 21  1  0  0  0  0
 25 23  1  0  0  0  0
 25 24  2  0  0  0  0
 26 27  1  0  0  0  0
 26 25  1  0  0  0  0
 28 46  1  6  0  0  0
 28 29  1  0  0  0  0
 28 27  1  0  0  0  0
 30 29  1  6  0  0  0
 32 37  1  1  0  0  0
 34 33  1  6  0  0  0
 34 32  1  0  0  0  0
 35 31  1  6  0  0  0
 35 34  1  0  0  0  0
 35 32  1  0  0  0  0
 36 30  1  6  0  0  0
 36 33  1  0  0  0  0
 36 34  1  0  0  0  0
 37 38  1  6  0  0  0
 39 37  1  0  0  0  0
 40 43  1  6  0  0  0
 40 41  1  0  0  0  0
 40 42  1  0  0  0  0
 41 42  1  0  0  0  0
 42 30  1  1  0  0  0
 44 45  1  0  0  0  0
 45 43  1  0  0  0  0
 47 49  1  0  0  0  0
 47 46  1  0  0  0  0
 48 47  2  0  0  0  0
 51 50  1  0  0  0  0
 52 54  1  0  0  0  0
 52 55  1  1  0  0  0
 52 51  1  0  0  0  0
 53 52  1  0  0  0  0
M  END
>  <MODEL>
2

>  <REMARK>
 VINA RESULT:      -3.6      1.826      3.594
  Name = 
  20 active torsions:
  status: ('A' for Active; 'I' for Inactive)
    1  A    between atoms: C_2  and  C_24
    2  A    between atoms: C_3  and  C_14
    3  A    between atoms: C_4  and  C_37
    4  A    between atoms: C_8  and  C_43
    5  A    between atoms: C_9  and  C_33
    6  A    between atoms: C_9  and  C_49
    7  A    between atoms: C_10  and  C_32
    8  A    between atoms: C_16  and  C_17
    9  A    between atoms: C_17  and  O_23
   10  A    between atoms: C_19  and  C_40
   11  A    between atoms: C_19  and  O_45
   12  A    between atoms: C_20  and  C_46
   13  A    between atoms: C_24  and  C_49
   14  A    between atoms: C_27  and  C_54
   15  A    between atoms: C_33  and  C_36
   16  A    between atoms: C_33  and  C_52
   17  A    between atoms: C_37  and  C_40
   18  A    between atoms: C_43  and  O_51
   19  A    between atoms: O_45  and  C_49
   20  A    between atoms: O_51  and  C_54
                            x       y       z     vdW  Elec       q    Type
                         _______ _______ _______ _____ _____    ______ ____

>  <TORSDO>
F 20

$$$$
=
 OpenBabel11062408403D

 55 59  0  0  1  0  0  0  0  0999 V2000
  160.9790  209.3830  152.5400 C   0  0  2  0  0  3  0  0  0  0  0  0
  160.1160  209.4570  151.2900 C   0  0  0  0  0  2  0  0  0  0  0  0
  160.9730  210.6500  151.6820 C   0  0  1  0  0  0  0  0  0  0  0  0
  160.4070  212.0610  154.9530 C   0  0  0  0  0  0  0  0  0  0  0  0
  156.9340  212.9200  153.6310 C   0  0  1  0  0  3  0  0  0  0  0  0
  158.0280  213.6110  153.0850 O   0  0  0  0  0  0  0  0  0  0  0  0
  160.3310  211.8210  152.3600 C   0  0  0  0  0  0  0  0  0  0  0  0
  158.2800  211.1250  156.8370 C   0  0  0  0  0  1  0  0  0  0  0  0
  160.3990  211.9420  153.6590 C   0  0  0  0  0  0  0  0  0  0  0  0
  159.7250  212.9200  151.5450 C   0  0  0  0  0  2  0  0  0  0  0  0
  160.0070  213.5630  156.7520 O   0  0  0  0  0  1  0  0  0  0  0  0
  158.0760  212.3370  155.9400 C   0  0  1  0  0  0  0  0  0  0  0  0
  161.2690  211.2810  155.7130 O   0  0  0  0  0  1  0  0  0  0  0  0
  157.3440  211.8600  154.6720 C   0  0  0  0  0  2  0  0  0  0  0  0
  158.2240  213.0720  151.8030 C   0  0  2  0  0  3  0  0  0  0  0  0
  157.2740  213.2430  156.6350 O   0  0  0  0  0  1  0  0  0  0  0  0
  159.4320  212.9950  155.6110 C   0  0  2  0  0  3  0  0  0  0  0  0
  158.4150  213.9890  149.5880 O   0  0  0  0  0  1  0  0  0  0  0  0
  157.6290  214.0050  150.7430 C   0  0  1  0  0  3  0  0  0  0  0  0
  156.3450  213.6050  150.4150 F   0  0  0  0  0  0  0  0  0  0  0  0
  154.7640  213.8870  153.2190 O   0  0  0  0  0  1  0  0  0  0  0  0
  155.8420  213.8740  154.1100 C   0  0  0  0  0  2  0  0  0  0  0  0
  162.1970  208.5030  152.2830 C   0  0  0  0  0  2  0  0  0  0  0  0
  161.0530  206.8040  153.6320 C   0  0  0  0  0  2  0  0  0  0  0  0
  161.8890  207.0840  152.6350 C   0  0  0  0  0  0  0  0  0  0  0  0
  162.4050  205.9890  151.7670 C   0  0  0  0  0  2  0  0  0  0  0  0
  161.4390  205.6320  150.8240 O   0  0  0  0  0  0  0  0  0  0  0  0
  161.8490  204.3840  150.3480 C   0  0  2  0  0  3  0  0  0  0  0  0
  160.8400  203.8540  149.3250 C   0  0  0  0  0  2  0  0  0  0  0  0
  161.5010  203.1780  148.1180 C   0  0  2  0  0  3  0  0  0  0  0  0
  163.2900  204.7070  146.8580 O   0  0  0  0  0  1  0  0  0  0  0  0
  162.1410  204.9600  144.8730 C   0  0  2  0  0  3  0  0  0  0  0  0
  161.4070  202.9300  145.6430 C   0  0  0  0  0  2  0  0  0  0  0  0
  161.0430  204.4210  145.7850 C   0  0  1  0  0  0  0  0  0  0  0  0
  162.1810  205.3530  146.3070 C   0  0  1  0  0  3  0  0  0  0  0  0
  160.6600  203.3370  146.8480 C   0  0  2  0  0  3  0  0  0  0  0  0
  161.5850  206.1010  144.0430 C   0  0  2  0  0  3  0  0  0  0  0  0
  160.2710  206.5690  144.6340 C   0  0  0  0  0  1  0  0  0  0  0  0
  161.3750  205.6770  142.7460 F   0  0  0  0  0  0  0  0  0  0  0  0
  160.9590  200.8490  147.5010 C   0  0  1  0  0  3  0  0  0  0  0  0
  160.5910  201.0890  148.8390 O   0  0  0  0  0  0  0  0  0  0  0  0
  161.7740  201.7050  148.3930 C   0  0  2  0  0  3  0  0  0  0  0  0
  161.5990  199.4810  147.4030 C   0  0  0  0  0  2  0  0  0  0  0  0
  160.5320  199.7020  145.4840 C   0  0  0  0  0  1  0  0  0  0  0  0
  161.6310  199.0770  146.0670 O   0  0  0  0  0  0  0  0  0  0  0  0
  162.0710  203.4050  151.5050 C   0  0  0  0  0  2  0  0  0  0  0  0
  160.7950  202.8540  152.0590 C   0  0  0  0  0  0  0  0  0  0  0  0
  160.2850  201.6520  151.5860 O   0  0  0  0  0  0  0  0  0  0  0  0
  160.1640  203.5030  152.9340 O   0  0  0  0  0  1  0  0  0  0  0  0
  162.1490  210.8720  150.9420 O   0  0  0  0  0  0  0  0  0  0  0  0
  161.8400  210.6010  149.6000 C   0  0  0  0  0  2  0  0  0  0  0  0
  161.9680  211.8610  148.7570 C   0  0  1  0  0  0  0  0  0  0  0  0
  161.7630  212.9750  149.5480 F   0  0  0  0  0  0  0  0  0  0  0  0
  163.2390  211.9230  148.1850 O   0  0  0  0  0  1  0  0  0  0  0  0
  160.9250  211.8340  147.6590 C   0  0  0  0  0  1  0  0  0  0  0  0
  1 23  1  6  0  0  0
  2  3  1  0  0  0  0
  2  1  1  0  0  0  0
  3 50  1  6  0  0  0
  3  7  1  0  0  0  0
  3  1  1  0  0  0  0
  4 17  1  0  0  0  0
  4 13  1  0  0  0  0
  5 22  1  1  0  0  0
  5 14  1  0  0  0  0
  6  5  1  0  0  0  0
  7  9  2  0  0  0  0
  9  4  2  0  0  0  0
 10 15  1  0  0  0  0
 10  7  1  0  0  0  0
 12 16  1  0  0  0  0
 12  8  1  1  0  0  0
 14 12  1  0  0  0  0
 15 19  1  6  0  0  0
 15  6  1  0  0  0  0
 17 12  1  0  0  0  0
 17 11  1  1  0  0  0
 19 18  1  6  0  0  0
 20 19  1  0  0  0  0
 21 22  1  0  0  0  0
 23 25  1  0  0  0  0
 25 24  2  0  0  0  0
 26 25  1  0  0  0  0
 27 26  1  0  0  0  0
 28 29  1  6  0  0  0
 28 27  1  0  0  0  0
 28 46  1  0  0  0  0
 30 29  1  1  0  0  0
 32 37  1  6  0  0  0
 32 34  1  0  0  0  0
 32 35  1  0  0  0  0
 33 36  1  0  0  0  0
 34 33  1  1  0  0  0
 34 35  1  0  0  0  0
 34 36  1  0  0  0  0
 35 31  1  1  0  0  0
 36 30  1  1  0  0  0
 37 38  1  1  0  0  0
 39 37  1  0  0  0  0
 40 43  1  1  0  0  0
 40 42  1  0  0  0  0
 40 41  1  0  0  0  0
 42 30  1  6  0  0  0
 42 41  1  0  0  0  0
 44 45  1  0  0  0  0
 45 43  1  0  0  0  0
 46 47  1  0  0  0  0
 47 49  1  0  0  0  0
 48 47  2  0  0  0  0
 51 50  1  0  0  0  0
 52 55  1  6  0  0  0
 52 53  1  0  0  0  0
 52 51  1  0  0  0  0
 54 52  1  0  0  0  0
M  END
>  <MODEL>
3

>  <REMARK>
 VINA RESULT:      -3.4      2.585      4.660
  Name = 
  20 active torsions:
  status: ('A' for Active; 'I' for Inactive)
    1  A    between atoms: C_2  and  C_24
    2  A    between atoms: C_3  and  C_14
    3  A    between atoms: C_4  and  C_37
    4  A    between atoms: C_8  and  C_43
    5  A    between atoms: C_9  and  C_33
    6  A    between atoms: C_9  and  C_49
    7  A    between atoms: C_10  and  C_32
    8  A    between atoms: C_16  and  C_17
    9  A    between atoms: C_17  and  O_23
   10  A    between atoms: C_19  and  C_40
   11  A    between atoms: C_19  and  O_45
   12  A    between atoms: C_20  and  C_46
   13  A    between atoms: C_24  and  C_49
   14  A    between atoms: C_27  and  C_54
   15  A    between atoms: C_33  and  C_36
   16  A    between atoms: C_33  and  C_52
   17  A    between atoms: C_37  and  C_40
   18  A    between atoms: C_43  and  O_51
   19  A    between atoms: O_45  and  C_49
   20  A    between atoms: O_51  and  C_54
                            x       y       z     vdW  Elec       q    Type
                         _______ _______ _______ _____ _____    ______ ____

>  <TORSDO>
F 20

$$$$
