=
 OpenBabel11052421483D

 30 32  0  0  1  0  0  0  0  0999 V2000
  160.2560  212.5730  141.1950 C   0  0  1  0  0  3  0  0  0  0  0  0
  160.6400  211.7940  138.7540 C   0  0  2  0  0  3  0  0  0  0  0  0
  159.9120  213.8000  140.5990 O   0  0  0  0  0  0  0  0  0  0  0  0
  156.7730  212.4520  138.9960 C   0  0  0  0  0  2  0  0  0  0  0  0
  158.2060  212.2910  139.4790 C   0  0  2  0  0  3  0  0  0  0  0  0
  157.3310  214.4530  140.8580 S   0  0  0  0  0  0  0  0  0  0  0  0
  158.6760  213.6990  139.9090 C   0  0  1  0  0  3  0  0  0  0  0  0
  159.1300  211.5870  138.4560 C   0  0  2  0  0  3  0  0  0  0  0  0
  156.2240  213.6240  139.7310 C   0  0  0  0  0  0  0  0  0  0  0  0
  155.1060  214.0540  139.5020 O   0  0  0  0  0  0  0  0  0  0  0  0
  161.0710  211.6890  140.2340 C   0  0  2  0  0  3  0  0  0  0  0  0
  162.2710  213.3630  142.5600 C   0  0  0  0  0  0  0  0  0  0  0  0
  162.8830  213.5430  143.8050 C   0  0  0  0  0  3  0  0  0  0  0  0
  163.1590  213.8520  141.1230 Cl  0  0  0  0  0  0  0  0  0  0  0  0
  160.3230  212.4350  143.6730 C   0  0  0  0  0  3  0  0  0  0  0  0
  160.3000  212.2600  146.0480 F   0  0  0  0  0  0  0  0  0  0  0  0
  160.9760  212.8020  142.4910 C   0  0  0  0  0  0  0  0  0  0  0  0
  162.2210  213.1720  144.9770 C   0  0  0  0  0  3  0  0  0  0  0  0
  160.9420  212.6190  144.9110 C   0  0  0  0  0  0  0  0  0  0  0  0
  163.2650  212.2040  137.6830 O   0  0  0  0  0  0  0  0  0  0  0  0
  162.4500  213.1620  137.6290 C   0  0  0  0  0  0  0  0  0  0  0  0
  162.8670  214.4480  137.0110 C   0  0  0  0  0  1  0  0  0  0  0  0
  161.1320  213.0300  138.1600 N   0  0  0  0  0  2  0  0  0  0  0  0
  159.8630  209.3270  137.5230 C   0  0  0  0  0  1  0  0  0  0  0  0
  158.8060  210.0790  138.3230 C   0  0  2  0  0  3  0  0  0  0  0  0
  157.4410  209.8150  137.6950 C   0  0  0  0  0  2  0  0  0  0  0  0
  156.8850  208.6340  138.1930 O   0  0  0  0  0  1  0  0  0  0  0  0
  161.0650  210.2410  140.7110 C   0  0  0  0  0  2  0  0  0  0  0  0
  161.9590  208.0700  140.2790 O   0  0  0  0  0  1  0  0  0  0  0  0
  162.1050  209.4210  139.9670 C   0  0  0  0  0  2  0  0  0  0  0  0
  1 17  1  1  0  0  0
  2 23  1  1  0  0  0
  2 11  1  0  0  0  0
  3  1  1  0  0  0  0
  4  9  1  0  0  0  0
  5  4  1  6  0  0  0
  5  7  1  0  0  0  0
  7  3  1  1  0  0  0
  7  6  1  0  0  0  0
  8 25  1  1  0  0  0
  8  2  1  0  0  0  0
  8  5  1  0  0  0  0
  9  6  1  0  0  0  0
 10  9  2  0  0  0  0
 11 28  1  1  0  0  0
 11  1  1  0  0  0  0
 12 13  1  0  0  0  0
 13 18  2  0  0  0  0
 14 12  1  0  0  0  0
 15 19  2  0  0  0  0
 17 12  2  0  0  0  0
 17 15  1  0  0  0  0
 19 18  1  0  0  0  0
 19 16  1  0  0  0  0
 21 20  2  0  0  0  0
 21 23  1  0  0  0  0
 22 21  1  0  0  0  0
 25 24  1  6  0  0  0
 26 27  1  0  0  0  0
 26 25  1  0  0  0  0
 30 29  1  0  0  0  0
 30 28  1  0  0  0  0
M  END
>  <MODEL>
1

>  <REMARK>
 VINA RESULT:      -3.8      0.000      0.000
  Name = 
  6 active torsions:
  status: ('A' for Active; 'I' for Inactive)
    1  A    between atoms: C_1  and  C_22
    2  A    between atoms: C_4  and  N_25
    3  A    between atoms: C_7  and  C_30
    4  A    between atoms: C_10  and  C_23
    5  A    between atoms: C_10  and  C_26
    6  A    between atoms: C_13  and  C_30
                            x       y       z     vdW  Elec       q    Type
                         _______ _______ _______ _____ _____    ______ ____

>  <TORSDO>
F 6

$$$$
=
 OpenBabel11052421483D

 30 32  0  0  1  0  0  0  0  0999 V2000
  160.0680  210.9030  153.0620 C   0  0  1  0  0  3  0  0  0  0  0  0
  161.2350  209.3740  154.7980 C   0  0  2  0  0  3  0  0  0  0  0  0
  161.3770  211.1440  152.6050 O   0  0  0  0  0  0  0  0  0  0  0  0
  161.8700  207.6230  151.3370 C   0  0  0  0  0  2  0  0  0  0  0  0
  161.2830  208.6220  152.3220 C   0  0  2  0  0  3  0  0  0  0  0  0
  161.8790  210.1580  150.1700 S   0  0  0  0  0  0  0  0  0  0  0  0
  161.9110  209.9910  151.9730 C   0  0  1  0  0  3  0  0  0  0  0  0
  161.4410  208.2000  153.8020 C   0  0  2  0  0  3  0  0  0  0  0  0
  162.2090  208.4040  150.1160 C   0  0  0  0  0  0  0  0  0  0  0  0
  162.7710  207.8890  149.1650 O   0  0  0  0  0  0  0  0  0  0  0  0
  160.0660  210.3380  154.4940 C   0  0  2  0  0  3  0  0  0  0  0  0
  159.1860  213.1290  153.9660 C   0  0  0  0  0  0  0  0  0  0  0  0
  158.3840  214.2620  153.7940 C   0  0  0  0  0  3  0  0  0  0  0  0
  160.1030  212.9820  155.4590 Cl  0  0  0  0  0  0  0  0  0  0  0  0
  158.4830  212.3250  151.7850 C   0  0  0  0  0  3  0  0  0  0  0  0
  156.9600  213.6210  150.4900 F   0  0  0  0  0  0  0  0  0  0  0  0
  159.2370  212.1470  152.9510 C   0  0  0  0  0  0  0  0  0  0  0  0
  157.6360  214.4280  152.6260 C   0  0  0  0  0  3  0  0  0  0  0  0
  157.6860  213.4600  151.6230 C   0  0  0  0  0  0  0  0  0  0  0  0
  162.0630  210.5820  157.2590 O   0  0  0  0  0  0  0  0  0  0  0  0
  162.8330  210.6780  156.2670 C   0  0  0  0  0  0  0  0  0  0  0  0
  164.1280  211.3920  156.4080 C   0  0  0  0  0  1  0  0  0  0  0  0
  162.4730  210.1140  155.0060 N   0  0  0  0  0  2  0  0  0  0  0  0
  160.0730  207.0510  155.6260 C   0  0  0  0  0  1  0  0  0  0  0  0
  160.5180  207.0130  154.1680 C   0  0  2  0  0  3  0  0  0  0  0  0
  161.1550  205.6530  153.8900 C   0  0  0  0  0  2  0  0  0  0  0  0
  160.6600  205.1050  152.7050 O   0  0  0  0  0  1  0  0  0  0  0  0
  158.7210  209.6940  154.8080 C   0  0  0  0  0  2  0  0  0  0  0  0
  156.8120  210.9660  155.4690 O   0  0  0  0  0  1  0  0  0  0  0  0
  158.0150  210.4340  155.9320 C   0  0  0  0  0  2  0  0  0  0  0  0
  1 17  1  1  0  0  0
  1 11  1  0  0  0  0
  2 23  1  6  0  0  0
  3  1  1  0  0  0  0
  5  4  1  6  0  0  0
  5  8  1  0  0  0  0
  7  6  1  6  0  0  0
  7  5  1  0  0  0  0
  7  3  1  0  0  0  0
  8 25  1  1  0  0  0
  8  2  1  0  0  0  0
  9  6  1  0  0  0  0
  9  4  1  0  0  0  0
 10  9  2  0  0  0  0
 11  2  1  0  0  0  0
 11 28  1  6  0  0  0
 12 14  1  0  0  0  0
 13 12  1  0  0  0  0
 15 17  1  0  0  0  0
 16 19  1  0  0  0  0
 17 12  2  0  0  0  0
 18 13  2  0  0  0  0
 19 15  2  0  0  0  0
 19 18  1  0  0  0  0
 21 22  1  0  0  0  0
 21 20  2  0  0  0  0
 23 21  1  0  0  0  0
 25 24  1  1  0  0  0
 26 25  1  0  0  0  0
 27 26  1  0  0  0  0
 28 30  1  0  0  0  0
 29 30  1  0  0  0  0
M  END
>  <MODEL>
2

>  <REMARK>
 VINA RESULT:      -3.6     11.436     14.359
  Name = 
  6 active torsions:
  status: ('A' for Active; 'I' for Inactive)
    1  A    between atoms: C_1  and  C_22
    2  A    between atoms: C_4  and  N_25
    3  A    between atoms: C_7  and  C_30
    4  A    between atoms: C_10  and  C_23
    5  A    between atoms: C_10  and  C_26
    6  A    between atoms: C_13  and  C_30
                            x       y       z     vdW  Elec       q    Type
                         _______ _______ _______ _____ _____    ______ ____

>  <TORSDO>
F 6

$$$$
=
 OpenBabel11052421483D

 30 32  0  0  1  0  0  0  0  0999 V2000
  160.3960  209.7650  153.4360 C   0  0  1  0  0  3  0  0  0  0  0  0
  159.1510  210.7100  155.5010 C   0  0  2  0  0  3  0  0  0  0  0  0
  159.1640  209.9520  152.7840 O   0  0  0  0  0  0  0  0  0  0  0  0
  159.3260  213.7170  152.9770 C   0  0  0  0  0  2  0  0  0  0  0  0
  159.6120  212.3330  153.5390 C   0  0  2  0  0  3  0  0  0  0  0  0
  159.2030  211.8540  150.9040 S   0  0  0  0  0  0  0  0  0  0  0  0
  158.8880  211.3330  152.6100 C   0  0  1  0  0  3  0  0  0  0  0  0
  159.2600  212.1890  155.0390 C   0  0  2  0  0  3  0  0  0  0  0  0
  159.1040  213.5270  151.5180 C   0  0  0  0  0  0  0  0  0  0  0  0
  158.7770  214.4530  150.7960 O   0  0  0  0  0  0  0  0  0  0  0  0
  160.2260  209.7390  154.9650 C   0  0  2  0  0  3  0  0  0  0  0  0
  161.9390  208.5300  151.8100 C   0  0  0  0  0  0  0  0  0  0  0  0
  162.5340  207.3350  151.3910 C   0  0  0  0  0  3  0  0  0  0  0  0
  162.3030  209.9960  150.9110 Cl  0  0  0  0  0  0  0  0  0  0  0  0
  160.8280  207.3250  153.6020 C   0  0  0  0  0  3  0  0  0  0  0  0
  161.1800  204.9810  153.8360 F   0  0  0  0  0  0  0  0  0  0  0  0
  161.0750  208.5270  152.9280 C   0  0  0  0  0  0  0  0  0  0  0  0
  162.2790  206.1420  152.0720 C   0  0  0  0  0  3  0  0  0  0  0  0
  161.4270  206.1380  153.1770 C   0  0  0  0  0  0  0  0  0  0  0  0
  156.6950  211.9600  156.2860 O   0  0  0  0  0  0  0  0  0  0  0  0
  156.6280  210.8640  155.6680 C   0  0  0  0  0  0  0  0  0  0  0  0
  155.2990  210.2730  155.3640 C   0  0  0  0  0  1  0  0  0  0  0  0
  157.8140  210.1800  155.2650 N   0  0  0  0  0  2  0  0  0  0  0  0
  160.5170  212.2460  157.2610 C   0  0  0  0  0  1  0  0  0  0  0  0
  160.2470  212.9660  155.9440 C   0  0  2  0  0  3  0  0  0  0  0  0
  159.7810  214.3860  156.2540 C   0  0  0  0  0  2  0  0  0  0  0  0
  158.3890  214.4410  156.3610 O   0  0  0  0  0  1  0  0  0  0  0  0
  161.5690  209.9670  155.6520 C   0  0  0  0  0  2  0  0  0  0  0  0
  160.6970  208.1470  156.9290 O   0  0  0  0  0  1  0  0  0  0  0  0
  161.8660  208.8530  156.6420 C   0  0  0  0  0  2  0  0  0  0  0  0
  1 17  1  6  0  0  0
  1 11  1  0  0  0  0
  2 23  1  6  0  0  0
  3  1  1  0  0  0  0
  5  4  1  6  0  0  0
  5  8  1  0  0  0  0
  6  9  1  0  0  0  0
  7  6  1  6  0  0  0
  7  3  1  0  0  0  0
  7  5  1  0  0  0  0
  8  2  1  0  0  0  0
  8 25  1  1  0  0  0
  9  4  1  0  0  0  0
 10  9  2  0  0  0  0
 11  2  1  0  0  0  0
 11 28  1  1  0  0  0
 12 17  1  0  0  0  0
 13 12  2  0  0  0  0
 13 18  1  0  0  0  0
 14 12  1  0  0  0  0
 17 15  2  0  0  0  0
 18 19  2  0  0  0  0
 19 15  1  0  0  0  0
 19 16  1  0  0  0  0
 21 20  2  0  0  0  0
 22 21  1  0  0  0  0
 23 21  1  0  0  0  0
 25 26  1  0  0  0  0
 25 24  1  1  0  0  0
 26 27  1  0  0  0  0
 28 30  1  0  0  0  0
 30 29  1  0  0  0  0
M  END
>  <MODEL>
3

>  <REMARK>
 VINA RESULT:      -3.4     12.014     14.922
  Name = 
  6 active torsions:
  status: ('A' for Active; 'I' for Inactive)
    1  A    between atoms: C_1  and  C_22
    2  A    between atoms: C_4  and  N_25
    3  A    between atoms: C_7  and  C_30
    4  A    between atoms: C_10  and  C_23
    5  A    between atoms: C_10  and  C_26
    6  A    between atoms: C_13  and  C_30
                            x       y       z     vdW  Elec       q    Type
                         _______ _______ _______ _____ _____    ______ ____

>  <TORSDO>
F 6

$$$$
=
 OpenBabel11052421483D

 30 32  0  0  1  0  0  0  0  0999 V2000
  160.3930  210.8010  152.6160 C   0  0  1  0  0  3  0  0  0  0  0  0
  161.1530  210.4230  155.0630 C   0  0  2  0  0  3  0  0  0  0  0  0
  161.6890  210.3590  152.2940 O   0  0  0  0  0  0  0  0  0  0  0  0
  161.0700  206.8280  153.4760 C   0  0  0  0  0  2  0  0  0  0  0  0
  160.8510  208.3310  153.5700 C   0  0  2  0  0  3  0  0  0  0  0  0
  161.7550  207.9990  151.0370 S   0  0  0  0  0  0  0  0  0  0  0  0
  161.8310  208.9730  152.5620 C   0  0  1  0  0  3  0  0  0  0  0  0
  160.9570  208.8830  155.0120 C   0  0  2  0  0  3  0  0  0  0  0  0
  161.5570  206.5730  152.0930 C   0  0  0  0  0  0  0  0  0  0  0  0
  161.8950  205.4590  151.7310 O   0  0  0  0  0  0  0  0  0  0  0  0
  160.3010  211.2590  154.0820 C   0  0  2  0  0  3  0  0  0  0  0  0
  160.6240  212.1460  150.4510 C   0  0  0  0  0  0  0  0  0  0  0  0
  160.1600  213.1690  149.6160 C   0  0  0  0  0  3  0  0  0  0  0  0
  162.0360  211.2340  149.9360 Cl  0  0  0  0  0  0  0  0  0  0  0  0
  158.8350  212.6390  152.0170 C   0  0  0  0  0  3  0  0  0  0  0  0
  157.2950  214.3900  151.5280 F   0  0  0  0  0  0  0  0  0  0  0  0
  159.9550  211.8770  151.6660 C   0  0  0  0  0  0  0  0  0  0  0  0
  159.0410  213.9230  149.9780 C   0  0  0  0  0  3  0  0  0  0  0  0
  158.3800  213.6580  151.1780 C   0  0  0  0  0  0  0  0  0  0  0  0
  162.9090  210.9660  157.2610 O   0  0  0  0  0  0  0  0  0  0  0  0
  163.3870  211.0220  156.0960 C   0  0  0  0  0  0  0  0  0  0  0  0
  164.8230  211.3510  155.9060 C   0  0  0  0  0  1  0  0  0  0  0  0
  162.5620  210.7800  154.9570 N   0  0  0  0  0  2  0  0  0  0  0  0
  159.7240  209.1830  157.2280 C   0  0  0  0  0  1  0  0  0  0  0  0
  159.7480  208.4630  155.8840 C   0  0  2  0  0  3  0  0  0  0  0  0
  159.6890  206.9590  156.1370 C   0  0  0  0  0  2  0  0  0  0  0  0
  160.4480  206.6130  157.2570 O   0  0  0  0  0  1  0  0  0  0  0  0
  158.8450  211.3220  154.5280 C   0  0  0  0  0  2  0  0  0  0  0  0
  157.3820  212.9350  155.5070 O   0  0  0  0  0  1  0  0  0  0  0  0
  158.6550  212.3740  155.6080 C   0  0  0  0  0  2  0  0  0  0  0  0
  1 17  1  6  0  0  0
  1 11  1  0  0  0  0
  2 23  1  6  0  0  0
  3  7  1  0  0  0  0
  3  1  1  0  0  0  0
  5  4  1  1  0  0  0
  5  8  1  0  0  0  0
  6  9  1  0  0  0  0
  7  6  1  6  0  0  0
  7  5  1  0  0  0  0
  8  2  1  0  0  0  0
  8 25  1  1  0  0  0
  9  4  1  0  0  0  0
 10  9  2  0  0  0  0
 11 28  1  1  0  0  0
 11  2  1  0  0  0  0
 12 17  1  0  0  0  0
 13 18  1  0  0  0  0
 13 12  2  0  0  0  0
 14 12  1  0  0  0  0
 17 15  2  0  0  0  0
 18 19  2  0  0  0  0
 19 16  1  0  0  0  0
 19 15  1  0  0  0  0
 21 20  2  0  0  0  0
 22 21  1  0  0  0  0
 23 21  1  0  0  0  0
 25 26  1  0  0  0  0
 25 24  1  1  0  0  0
 26 27  1  0  0  0  0
 28 30  1  0  0  0  0
 29 30  1  0  0  0  0
M  END
>  <MODEL>
4

>  <REMARK>
 VINA RESULT:      -3.2     10.951     14.618
  Name = 
  6 active torsions:
  status: ('A' for Active; 'I' for Inactive)
    1  A    between atoms: C_1  and  C_22
    2  A    between atoms: C_4  and  N_25
    3  A    between atoms: C_7  and  C_30
    4  A    between atoms: C_10  and  C_23
    5  A    between atoms: C_10  and  C_26
    6  A    between atoms: C_13  and  C_30
                            x       y       z     vdW  Elec       q    Type
                         _______ _______ _______ _____ _____    ______ ____

>  <TORSDO>
F 6

$$$$
=
 OpenBabel11052421483D

 30 32  0  0  1  0  0  0  0  0999 V2000
  159.1860  210.7310  154.5550 C   0  0  1  0  0  3  0  0  0  0  0  0
  161.4590  209.4920  154.6370 C   0  0  2  0  0  3  0  0  0  0  0  0
  159.9760  211.8740  154.3360 O   0  0  0  0  0  0  0  0  0  0  0  0
  161.1390  210.7470  150.9270 C   0  0  0  0  0  2  0  0  0  0  0  0
  160.7100  210.4620  152.3580 C   0  0  2  0  0  3  0  0  0  0  0  0
  159.7060  212.9360  151.8960 S   0  0  0  0  0  0  0  0  0  0  0  0
  160.5710  211.8380  153.0480 C   0  0  1  0  0  3  0  0  0  0  0  0
  161.6340  209.4630  153.0940 C   0  0  2  0  0  3  0  0  0  0  0  0
  160.6020  212.0970  150.6020 C   0  0  0  0  0  0  0  0  0  0  0  0
  160.8460  212.6410  149.5380 O   0  0  0  0  0  0  0  0  0  0  0  0
  160.0100  209.5830  155.1650 C   0  0  2  0  0  3  0  0  0  0  0  0
  158.0640  211.9410  156.5120 C   0  0  0  0  0  0  0  0  0  0  0  0
  156.9110  212.2100  157.2560 C   0  0  0  0  0  3  0  0  0  0  0  0
  159.5660  212.7110  157.0050 Cl  0  0  0  0  0  0  0  0  0  0  0  0
  156.7660  210.4930  155.0580 C   0  0  0  0  0  3  0  0  0  0  0  0
  154.4370  210.2010  155.4670 F   0  0  0  0  0  0  0  0  0  0  0  0
  157.9930  211.0730  155.4000 C   0  0  0  0  0  0  0  0  0  0  0  0
  155.6920  211.6250  156.9050 C   0  0  0  0  0  3  0  0  0  0  0  0
  155.6200  210.7680  155.8070 C   0  0  0  0  0  0  0  0  0  0  0  0
  162.6860  209.3370  157.2210 O   0  0  0  0  0  0  0  0  0  0  0  0
  162.8900  210.3720  156.5330 C   0  0  0  0  0  0  0  0  0  0  0  0
  163.7550  211.4530  157.0710 C   0  0  0  0  0  1  0  0  0  0  0  0
  162.2940  210.5210  155.2440 N   0  0  0  0  0  2  0  0  0  0  0  0
  161.9460  206.9720  153.5610 C   0  0  0  0  0  1  0  0  0  0  0  0
  161.4720  208.0200  152.5590 C   0  0  2  0  0  3  0  0  0  0  0  0
  162.1960  207.7880  151.2350 C   0  0  0  0  0  2  0  0  0  0  0  0
  161.3430  207.1990  150.2990 O   0  0  0  0  0  1  0  0  0  0  0  0
  159.2760  208.2570  154.9990 C   0  0  0  0  0  2  0  0  0  0  0  0
  160.4350  206.5860  156.2500 O   0  0  0  0  0  1  0  0  0  0  0  0
  159.3340  207.4430  156.2800 C   0  0  0  0  0  2  0  0  0  0  0  0
  1 11  1  0  0  0  0
  1 17  1  1  0  0  0
  2 11  1  0  0  0  0
  2 23  1  6  0  0  0
  3  1  1  0  0  0  0
  5  4  1  6  0  0  0
  5  7  1  0  0  0  0
  5  8  1  0  0  0  0
  7  6  1  6  0  0  0
  7  3  1  0  0  0  0
  8 25  1  6  0  0  0
  8  2  1  0  0  0  0
  9  4  1  0  0  0  0
  9  6  1  0  0  0  0
 10  9  2  0  0  0  0
 11 28  1  6  0  0  0
 12 14  1  0  0  0  0
 12 13  1  0  0  0  0
 15 17  1  0  0  0  0
 15 19  2  0  0  0  0
 16 19  1  0  0  0  0
 17 12  2  0  0  0  0
 18 13  2  0  0  0  0
 19 18  1  0  0  0  0
 21 22  1  0  0  0  0
 21 20  2  0  0  0  0
 23 21  1  0  0  0  0
 25 24  1  1  0  0  0
 26 25  1  0  0  0  0
 27 26  1  0  0  0  0
 28 30  1  0  0  0  0
 29 30  1  0  0  0  0
M  END
>  <MODEL>
5

>  <REMARK>
 VINA RESULT:      -3.1     11.624     14.806
  Name = 
  6 active torsions:
  status: ('A' for Active; 'I' for Inactive)
    1  A    between atoms: C_1  and  C_22
    2  A    between atoms: C_4  and  N_25
    3  A    between atoms: C_7  and  C_30
    4  A    between atoms: C_10  and  C_23
    5  A    between atoms: C_10  and  C_26
    6  A    between atoms: C_13  and  C_30
                            x       y       z     vdW  Elec       q    Type
                         _______ _______ _______ _____ _____    ______ ____

>  <TORSDO>
F 6

$$$$
=
 OpenBabel11052421483D

 30 32  0  0  1  0  0  0  0  0999 V2000
  160.9310  209.4370  152.8540 C   0  0  1  0  0  3  0  0  0  0  0  0
  160.9390  211.4100  154.5330 C   0  0  2  0  0  3  0  0  0  0  0  0
  161.8550  208.8610  153.7450 O   0  0  0  0  0  0  0  0  0  0  0  0
  159.3260  208.4220  156.5110 C   0  0  0  0  0  2  0  0  0  0  0  0
  159.8890  209.1790  155.3180 C   0  0  2  0  0  3  0  0  0  0  0  0
  160.9370  206.6980  155.0210 S   0  0  0  0  0  0  0  0  0  0  0  0
  161.2220  208.4850  154.9580 C   0  0  1  0  0  3  0  0  0  0  0  0
  159.9990  210.7050  155.5490 C   0  0  2  0  0  3  0  0  0  0  0  0
  159.8550  207.0350  156.4000 C   0  0  0  0  0  0  0  0  0  0  0  0
  159.6380  206.1990  157.2610 O   0  0  0  0  0  0  0  0  0  0  0  0
  160.8240  210.9590  153.0600 C   0  0  2  0  0  3  0  0  0  0  0  0
  161.2680  207.7620  150.9490 C   0  0  0  0  0  0  0  0  0  0  0  0
  161.6100  207.5120  149.6160 C   0  0  0  0  0  3  0  0  0  0  0  0
  160.8330  206.3940  151.9630 Cl  0  0  0  0  0  0  0  0  0  0  0  0
  161.6350  210.1340  150.5780 C   0  0  0  0  0  3  0  0  0  0  0  0
  162.3160  210.8940  148.4250 F   0  0  0  0  0  0  0  0  0  0  0  0
  161.2810  209.0880  151.4370 C   0  0  0  0  0  0  0  0  0  0  0  0
  161.9620  208.5640  148.7670 C   0  0  0  0  0  3  0  0  0  0  0  0
  161.9740  209.8740  149.2480 C   0  0  0  0  0  0  0  0  0  0  0  0
  161.8240  211.5540  157.2540 O   0  0  0  0  0  0  0  0  0  0  0  0
  162.6980  211.4280  156.3550 C   0  0  0  0  0  0  0  0  0  0  0  0
  164.1330  211.3490  156.7310 C   0  0  0  0  0  1  0  0  0  0  0  0
  162.3250  211.3690  154.9780 N   0  0  0  0  0  2  0  0  0  0  0  0
  158.2360  211.9030  156.9540 C   0  0  0  0  0  1  0  0  0  0  0  0
  158.6120  211.3910  155.5680 C   0  0  2  0  0  3  0  0  0  0  0  0
  157.4910  210.4850  155.0650 C   0  0  0  0  0  2  0  0  0  0  0  0
  156.2480  211.1070  155.2050 O   0  0  0  0  0  1  0  0  0  0  0  0
  159.5490  211.4920  152.4150 C   0  0  0  0  0  2  0  0  0  0  0  0
  159.7480  213.1070  150.6680 O   0  0  0  0  0  1  0  0  0  0  0  0
  159.6990  212.9610  152.0550 C   0  0  0  0  0  2  0  0  0  0  0  0
  1 17  1  6  0  0  0
  1 11  1  0  0  0  0
  1  3  1  0  0  0  0
  2 23  1  1  0  0  0
  2  8  1  0  0  0  0
  5  8  1  0  0  0  0
  5  4  1  1  0  0  0
  6  9  1  0  0  0  0
  7  3  1  6  0  0  0
  7  6  1  0  0  0  0
  7  5  1  0  0  0  0
  8 25  1  6  0  0  0
  9  4  1  0  0  0  0
  9 10  2  0  0  0  0
 11 28  1  1  0  0  0
 11  2  1  0  0  0  0
 12 17  1  0  0  0  0
 12 14  1  0  0  0  0
 13 12  2  0  0  0  0
 15 17  2  0  0  0  0
 16 19  1  0  0  0  0
 18 19  2  0  0  0  0
 18 13  1  0  0  0  0
 19 15  1  0  0  0  0
 21 22  1  0  0  0  0
 21 20  2  0  0  0  0
 23 21  1  0  0  0  0
 25 24  1  1  0  0  0
 26 27  1  0  0  0  0
 26 25  1  0  0  0  0
 29 30  1  0  0  0  0
 30 28  1  0  0  0  0
M  END
>  <MODEL>
6

>  <REMARK>
 VINA RESULT:      -2.3     11.270     14.882
  Name = 
  6 active torsions:
  status: ('A' for Active; 'I' for Inactive)
    1  A    between atoms: C_1  and  C_22
    2  A    between atoms: C_4  and  N_25
    3  A    between atoms: C_7  and  C_30
    4  A    between atoms: C_10  and  C_23
    5  A    between atoms: C_10  and  C_26
    6  A    between atoms: C_13  and  C_30
                            x       y       z     vdW  Elec       q    Type
                         _______ _______ _______ _____ _____    ______ ____

>  <TORSDO>
F 6

$$$$
=
 OpenBabel11052421483D

 30 32  0  0  1  0  0  0  0  0999 V2000
  159.7730  212.6580  140.5080 C   0  0  1  0  0  3  0  0  0  0  0  0
  160.8490  211.8130  138.3080 C   0  0  2  0  0  3  0  0  0  0  0  0
  159.5830  213.8530  139.7910 O   0  0  0  0  0  0  0  0  0  0  0  0
  157.0570  212.3470  137.4250 C   0  0  0  0  0  2  0  0  0  0  0  0
  158.2980  212.2510  138.2980 C   0  0  2  0  0  3  0  0  0  0  0  0
  157.0200  214.4260  139.2860 S   0  0  0  0  0  0  0  0  0  0  0  0
  158.5950  213.6870  138.7850 C   0  0  1  0  0  3  0  0  0  0  0  0
  159.4890  211.5460  137.6060 C   0  0  2  0  0  3  0  0  0  0  0  0
  156.2950  213.5230  137.9280 C   0  0  0  0  0  0  0  0  0  0  0  0
  155.2780  213.9070  137.3770 O   0  0  0  0  0  0  0  0  0  0  0  0
  160.8470  211.7720  139.8530 C   0  0  2  0  0  3  0  0  0  0  0  0
  159.1960  213.6220  142.8080 C   0  0  0  0  0  0  0  0  0  0  0  0
  159.5650  213.8680  144.1340 C   0  0  0  0  0  3  0  0  0  0  0  0
  157.6110  214.1650  142.2750 Cl  0  0  0  0  0  0  0  0  0  0  0  0
  161.3400  212.5460  142.4310 C   0  0  0  0  0  3  0  0  0  0  0  0
  162.9090  212.3960  144.2170 F   0  0  0  0  0  0  0  0  0  0  0  0
  160.0930  212.9540  141.9440 C   0  0  0  0  0  0  0  0  0  0  0  0
  160.8130  213.4560  144.6080 C   0  0  0  0  0  3  0  0  0  0  0  0
  161.6990  212.7950  143.7570 C   0  0  0  0  0  0  0  0  0  0  0  0
  163.6260  212.1770  137.7040 O   0  0  0  0  0  0  0  0  0  0  0  0
  162.8510  213.1540  137.5280 C   0  0  0  0  0  0  0  0  0  0  0  0
  163.3930  214.4370  137.0110 C   0  0  0  0  0  1  0  0  0  0  0  0
  161.4590  213.0460  137.8260 N   0  0  0  0  0  2  0  0  0  0  0  0
  158.2030  209.4970  138.4220 C   0  0  0  0  0  1  0  0  0  0  0  0
  159.2520  210.0250  137.4500 C   0  0  2  0  0  3  0  0  0  0  0  0
  160.5260  209.2010  137.6160 C   0  0  0  0  0  2  0  0  0  0  0  0
  160.3920  207.9490  137.0120 O   0  0  0  0  0  1  0  0  0  0  0  0
  160.7400  210.3400  140.3680 C   0  0  0  0  0  2  0  0  0  0  0  0
  163.1130  210.5960  140.3060 O   0  0  0  0  0  1  0  0  0  0  0  0
  162.0910  209.6470  140.3230 C   0  0  0  0  0  2  0  0  0  0  0  0
  1 17  1  1  0  0  0
  2 23  1  1  0  0  0
  2 11  1  0  0  0  0
  3  1  1  0  0  0  0
  4  9  1  0  0  0  0
  5  4  1  6  0  0  0
  5  7  1  0  0  0  0
  7  6  1  1  0  0  0
  7  3  1  0  0  0  0
  8 25  1  1  0  0  0
  8  5  1  0  0  0  0
  8  2  1  0  0  0  0
  9  6  1  0  0  0  0
 10  9  2  0  0  0  0
 11 28  1  6  0  0  0
 11  1  1  0  0  0  0
 12 13  1  0  0  0  0
 13 18  2  0  0  0  0
 14 12  1  0  0  0  0
 15 19  2  0  0  0  0
 17 15  1  0  0  0  0
 17 12  2  0  0  0  0
 19 16  1  0  0  0  0
 19 18  1  0  0  0  0
 21 20  2  0  0  0  0
 21 23  1  0  0  0  0
 22 21  1  0  0  0  0
 25 26  1  0  0  0  0
 25 24  1  1  0  0  0
 27 26  1  0  0  0  0
 29 30  1  0  0  0  0
 30 28  1  0  0  0  0
M  END
>  <MODEL>
7

>  <REMARK>
 VINA RESULT:      -1.8      1.777      2.057
  Name = 
  6 active torsions:
  status: ('A' for Active; 'I' for Inactive)
    1  A    between atoms: C_1  and  C_22
    2  A    between atoms: C_4  and  N_25
    3  A    between atoms: C_7  and  C_30
    4  A    between atoms: C_10  and  C_23
    5  A    between atoms: C_10  and  C_26
    6  A    between atoms: C_13  and  C_30
                            x       y       z     vdW  Elec       q    Type
                         _______ _______ _______ _____ _____    ______ ____

>  <TORSDO>
F 6

$$$$
=
 OpenBabel11052421483D

 30 32  0  0  1  0  0  0  0  0999 V2000
  160.0890  209.2100  153.7380 C   0  0  1  0  0  3  0  0  0  0  0  0
  160.9220  211.6170  154.2070 C   0  0  2  0  0  3  0  0  0  0  0  0
  159.7730  209.2030  155.1090 O   0  0  0  0  0  0  0  0  0  0  0  0
  157.0350  211.7780  154.7660 C   0  0  0  0  0  2  0  0  0  0  0  0
  158.3750  211.1850  154.3580 C   0  0  2  0  0  3  0  0  0  0  0  0
  157.1490  209.1250  155.6230 S   0  0  0  0  0  0  0  0  0  0  0  0
  158.6780  210.0650  155.3800 C   0  0  1  0  0  3  0  0  0  0  0  0
  159.4980  212.2380  154.2050 C   0  0  2  0  0  3  0  0  0  0  0  0
  156.2990  210.6860  155.4590 C   0  0  0  0  0  0  0  0  0  0  0  0
  155.2100  210.8760  155.9730 O   0  0  0  0  0  0  0  0  0  0  0  0
  161.1060  210.3130  153.3990 C   0  0  2  0  0  3  0  0  0  0  0  0
  160.7710  206.7880  154.2070 C   0  0  0  0  0  0  0  0  0  0  0  0
  161.2240  205.5530  153.7300 C   0  0  0  0  0  3  0  0  0  0  0  0
  160.4710  206.9500  155.9320 Cl  0  0  0  0  0  0  0  0  0  0  0  0
  160.8240  207.6610  151.9420 C   0  0  0  0  0  3  0  0  0  0  0  0
  161.5200  206.2480  150.1550 F   0  0  0  0  0  0  0  0  0  0  0  0
  160.5680  207.8560  153.3040 C   0  0  0  0  0  0  0  0  0  0  0  0
  161.4760  205.3720  152.3680 C   0  0  0  0  0  3  0  0  0  0  0  0
  161.2750  206.4250  151.4750 C   0  0  0  0  0  0  0  0  0  0  0  0
  163.5350  210.6840  154.9180 O   0  0  0  0  0  0  0  0  0  0  0  0
  162.7490  211.0030  155.8500 C   0  0  0  0  0  0  0  0  0  0  0  0
  163.2010  210.8960  157.2610 C   0  0  0  0  0  1  0  0  0  0  0  0
  161.4270  211.4590  155.5650 N   0  0  0  0  0  2  0  0  0  0  0  0
  158.6230  214.4510  153.2790 C   0  0  0  0  0  1  0  0  0  0  0  0
  159.2960  213.1230  152.9510 C   0  0  2  0  0  3  0  0  0  0  0  0
  158.4930  212.4300  151.8540 C   0  0  0  0  0  2  0  0  0  0  0  0
  158.1120  213.3400  150.8650 O   0  0  0  0  0  1  0  0  0  0  0  0
  161.1110  210.5880  151.8990 C   0  0  0  0  0  2  0  0  0  0  0  0
  162.3320  209.8330  149.9910 O   0  0  0  0  0  1  0  0  0  0  0  0
  162.4760  210.2940  151.3000 C   0  0  0  0  0  2  0  0  0  0  0  0
  1 17  1  1  0  0  0
  1  3  1  0  0  0  0
  2 23  1  1  0  0  0
  4  9  1  0  0  0  0
  5  4  1  1  0  0  0
  5  7  1  0  0  0  0
  7  3  1  6  0  0  0
  7  6  1  0  0  0  0
  8 25  1  6  0  0  0
  8  2  1  0  0  0  0
  8  5  1  0  0  0  0
  9  6  1  0  0  0  0
  9 10  2  0  0  0  0
 11 28  1  6  0  0  0
 11  1  1  0  0  0  0
 11  2  1  0  0  0  0
 12 14  1  0  0  0  0
 13 12  1  0  0  0  0
 15 17  1  0  0  0  0
 16 19  1  0  0  0  0
 17 12  2  0  0  0  0
 18 13  2  0  0  0  0
 19 15  2  0  0  0  0
 19 18  1  0  0  0  0
 20 21  2  0  0  0  0
 21 22  1  0  0  0  0
 23 21  1  0  0  0  0
 25 24  1  1  0  0  0
 26 25  1  0  0  0  0
 27 26  1  0  0  0  0
 29 30  1  0  0  0  0
 30 28  1  0  0  0  0
M  END
>  <MODEL>
8

>  <REMARK>
 VINA RESULT:      -1.4     12.116     14.475
  Name = 
  6 active torsions:
  status: ('A' for Active; 'I' for Inactive)
    1  A    between atoms: C_1  and  C_22
    2  A    between atoms: C_4  and  N_25
    3  A    between atoms: C_7  and  C_30
    4  A    between atoms: C_10  and  C_23
    5  A    between atoms: C_10  and  C_26
    6  A    between atoms: C_13  and  C_30
                            x       y       z     vdW  Elec       q    Type
                         _______ _______ _______ _____ _____    ______ ____

>  <TORSDO>
F 6

$$$$
=
 OpenBabel11052421483D

 30 32  0  0  1  0  0  0  0  0999 V2000
  160.8490  209.0680  152.5990 C   0  0  1  0  0  3  0  0  0  0  0  0
  160.9680  211.1530  154.1330 C   0  0  2  0  0  3  0  0  0  0  0  0
  161.7800  208.5250  153.5040 O   0  0  0  0  0  0  0  0  0  0  0  0
  159.3180  208.3660  156.3600 C   0  0  0  0  0  2  0  0  0  0  0  0
  159.8700  209.0190  155.1020 C   0  0  2  0  0  3  0  0  0  0  0  0
  160.8300  206.4890  154.9550 S   0  0  0  0  0  0  0  0  0  0  0  0
  161.1700  208.2560  154.7570 C   0  0  1  0  0  3  0  0  0  0  0  0
  160.0360  210.5530  155.2210 C   0  0  2  0  0  3  0  0  0  0  0  0
  159.7990  206.9590  156.3340 C   0  0  0  0  0  0  0  0  0  0  0  0
  159.5810  206.1920  157.2570 O   0  0  0  0  0  0  0  0  0  0  0  0
  160.7960  210.6030  152.6990 C   0  0  2  0  0  3  0  0  0  0  0  0
  161.8720  209.3910  150.2760 C   0  0  0  0  0  0  0  0  0  0  0  0
  162.1070  208.8980  148.9880 C   0  0  0  0  0  3  0  0  0  0  0  0
  162.5020  210.9810  150.6820 Cl  0  0  0  0  0  0  0  0  0  0  0  0
  160.6720  207.3490  150.8160 C   0  0  0  0  0  3  0  0  0  0  0  0
  160.4490  205.6460  149.1660 F   0  0  0  0  0  0  0  0  0  0  0  0
  161.1460  208.6090  151.2020 C   0  0  0  0  0  0  0  0  0  0  0  0
  161.6290  207.6400  148.6140 C   0  0  0  0  0  3  0  0  0  0  0  0
  160.9130  206.8670  149.5280 C   0  0  0  0  0  0  0  0  0  0  0  0
  161.9280  211.3640  156.8230 O   0  0  0  0  0  0  0  0  0  0  0  0
  162.7750  211.1910  155.9070 C   0  0  0  0  0  0  0  0  0  0  0  0
  164.2170  211.0930  156.2490 C   0  0  0  0  0  1  0  0  0  0  0  0
  162.3650  211.0950  154.5430 N   0  0  0  0  0  2  0  0  0  0  0  0
  158.7870  212.7220  155.7220 C   0  0  0  0  0  1  0  0  0  0  0  0
  158.6720  211.2850  155.2280 C   0  0  2  0  0  3  0  0  0  0  0  0
  157.6130  210.5670  156.0610 C   0  0  0  0  0  2  0  0  0  0  0  0
  156.7840  211.4850  156.7100 O   0  0  0  0  0  1  0  0  0  0  0  0
  159.5210  211.1320  152.0520 C   0  0  0  0  0  2  0  0  0  0  0  0
  158.5690  213.0110  150.9270 O   0  0  0  0  0  1  0  0  0  0  0  0
  159.6790  212.5920  151.6600 C   0  0  0  0  0  2  0  0  0  0  0  0
  1 17  1  6  0  0  0
  1 11  1  0  0  0  0
  1  3  1  0  0  0  0
  2 23  1  1  0  0  0
  2  8  1  0  0  0  0
  5  8  1  0  0  0  0
  5  4  1  1  0  0  0
  6  9  1  0  0  0  0
  7  3  1  6  0  0  0
  7  6  1  0  0  0  0
  7  5  1  0  0  0  0
  8 25  1  6  0  0  0
  9  4  1  0  0  0  0
  9 10  2  0  0  0  0
 11 28  1  1  0  0  0
 11  2  1  0  0  0  0
 12 14  1  0  0  0  0
 12 17  1  0  0  0  0
 13 12  2  0  0  0  0
 15 17  2  0  0  0  0
 16 19  1  0  0  0  0
 18 13  1  0  0  0  0
 18 19  2  0  0  0  0
 19 15  1  0  0  0  0
 21 22  1  0  0  0  0
 21 20  2  0  0  0  0
 23 21  1  0  0  0  0
 25 24  1  1  0  0  0
 25 26  1  0  0  0  0
 26 27  1  0  0  0  0
 29 30  1  0  0  0  0
 30 28  1  0  0  0  0
M  END
>  <MODEL>
9

>  <REMARK>
 VINA RESULT:      -1.2     11.159     14.748
  Name = 
  6 active torsions:
  status: ('A' for Active; 'I' for Inactive)
    1  A    between atoms: C_1  and  C_22
    2  A    between atoms: C_4  and  N_25
    3  A    between atoms: C_7  and  C_30
    4  A    between atoms: C_10  and  C_23
    5  A    between atoms: C_10  and  C_26
    6  A    between atoms: C_13  and  C_30
                            x       y       z     vdW  Elec       q    Type
                         _______ _______ _______ _____ _____    ______ ____

>  <TORSDO>
F 6

$$$$
