=
 OpenBabel11062409283D

 34 40  0  0  1  0  0  0  0  0999 V2000
  161.4680  205.4020  149.6350 C   0  0  0  0  0  0  0  0  0  0  0  0
  161.5020  204.3690  146.0590 C   0  0  0  0  0  3  0  0  0  0  0  0
  161.7860  206.4410  147.0310 C   0  0  0  0  0  3  0  0  0  0  0  0
  161.4160  206.1370  152.0750 C   0  0  0  0  0  0  0  0  0  0  0  0
  161.3090  204.9760  151.0850 C   0  0  0  0  0  2  0  0  0  0  0  0
  161.7890  207.6660  150.2920 C   0  0  0  0  0  0  0  0  0  0  0  0
  162.0310  208.9980  149.6430 C   0  0  0  0  0  3  0  0  0  0  0  0
  161.6310  207.3670  151.6820 N   0  0  0  0  0  0  0  0  0  0  0  0
  161.8570  207.2560  148.1520 C   0  0  0  0  0  0  0  0  0  0  0  0
  161.7020  206.7380  149.3840 C   0  0  0  0  0  0  0  0  0  0  0  0
  162.0690  208.6620  148.2090 N   0  0  0  0  0  0  0  0  0  0  0  0
  161.2830  202.9480  145.7810 C   0  0  0  0  0  3  0  0  0  0  0  0
  161.0740  201.9360  146.6160 C   0  0  0  0  0  0  0  0  0  0  0  0
  161.0160  202.0370  148.0740 C   0  0  0  0  0  3  0  0  0  0  0  0
  161.5520  205.0570  147.2010 C   0  0  0  0  0  0  0  0  0  0  0  0
  161.1470  203.1010  148.8560 C   0  0  0  0  0  3  0  0  0  0  0  0
  161.3900  204.5170  148.5260 C   0  0  0  0  0  0  0  0  0  0  0  0
  160.8870  200.6450  146.0490 N   0  0  0  0  0  0  0  0  0  0  0  0
  160.2480  199.7020  145.0860 C   0  0  0  0  0  2  0  0  0  0  0  0
  161.1820  199.1850  145.9590 C   0  0  0  0  0  2  0  0  0  0  0  0
  161.2150  205.8630  153.5270 C   0  0  0  0  0  2  0  0  0  0  0  0
  159.7610  208.1840  156.1340 N   0  0  0  0  0  0  0  0  0  0  0  0
  160.9230  208.4170  153.5690 C   0  0  0  0  0  3  0  0  0  0  0  0
  159.6270  211.8530  155.4570 N   0  0  0  0  0  0  0  0  0  0  0  0
  159.1740  213.0460  156.1100 C   0  0  0  0  0  0  0  0  0  0  0  0
  159.4820  210.5760  156.1090 C   0  0  0  0  0  3  0  0  0  0  0  0
  159.3010  214.2800  155.4830 O   0  0  0  0  0  0  0  0  0  0  0  0
  159.8990  209.4620  155.5060 C   0  0  0  0  0  0  0  0  0  0  0  0
  158.6590  212.9900  157.2600 O   0  0  0  0  0  1  0  0  0  0  0  0
  160.6530  210.8460  153.5150 C   0  0  0  0  0  3  0  0  0  0  0  0
  160.5110  209.5380  154.1670 C   0  0  2  0  0  3  0  0  0  0  0  0
  160.2230  211.9410  154.1480 C   0  0  0  0  0  3  0  0  0  0  0  0
  160.7740  207.1010  154.2330 C   0  0  0  0  0  0  0  0  0  0  0  0
  160.2170  207.0090  155.4480 C   0  0  0  0  0  3  0  0  0  0  0  0
  1  5  1  0  0  0  0
  2 15  1  0  0  0  0
  3 15  2  0  0  0  0
  3  9  1  0  0  0  0
  4 21  1  0  0  0  0
  5  4  1  0  0  0  0
  6  8  1  0  0  0  0
  7  6  2  0  0  0  0
  8  4  2  0  0  0  0
  9 11  2  0  0  0  0
  9 10  1  0  0  0  0
 10  1  2  0  0  0  0
 10  6  1  0  0  0  0
 11  7  1  0  0  0  0
 12  2  2  0  0  0  0
 12 13  1  0  0  0  0
 13 14  2  0  0  0  0
 14 16  1  0  0  0  0
 15 17  1  0  0  0  0
 17 16  2  0  0  0  0
 17  1  1  0  0  0  0
 18 13  1  0  0  0  0
 19 20  1  0  0  0  0
 19 18  1  0  0  0  0
 20 18  1  0  0  0  0
 21 33  1  0  0  0  0
 23 31  1  0  0  0  0
 23 33  2  0  0  0  0
 24 26  1  0  0  0  0
 24 25  1  0  0  0  0
 25 29  1  0  0  0  0
 27 25  2  0  0  0  0
 28 26  2  0  0  0  0
 28 22  1  0  0  0  0
 30 32  2  0  0  0  0
 31 30  1  6  0  0  0
 31 28  1  0  0  0  0
 32 24  1  0  0  0  0
 33 34  1  0  0  0  0
 34 22  2  0  0  0  0
M  END
>  <MODEL>
1

>  <REMARK>
 VINA RESULT:     -11.0      0.000      0.000
  Name = 
  3 active torsions:
  status: ('A' for Active; 'I' for Inactive)
    1  A    between atoms: N_3  and  C_25
    2  A    between atoms: C_8  and  C_18
    3  A    between atoms: C_18  and  C_30
                            x       y       z     vdW  Elec       q    Type
                         _______ _______ _______ _____ _____    ______ ____

>  <TORSDO>
F 3

$$$$
=
 OpenBabel11062409283D

 34 40  0  0  1  0  0  0  0  0999 V2000
  160.8910  209.4540  152.5560 C   0  0  0  0  0  0  0  0  0  0  0  0
  160.4440  212.8560  151.1140 C   0  0  0  0  0  3  0  0  0  0  0  0
  159.9110  212.0220  153.1970 C   0  0  0  0  0  3  0  0  0  0  0  0
  161.1570  207.1230  153.5530 C   0  0  0  0  0  0  0  0  0  0  0  0
  161.3740  208.0300  152.3400 C   0  0  0  0  0  3  0  0  0  0  0  0
  160.2060  208.9290  154.7730 C   0  0  0  0  0  0  0  0  0  0  0  0
  159.5590  209.6180  155.9390 C   0  0  0  0  0  2  0  0  0  0  0  0
  160.6100  207.5610  154.6580 N   0  0  0  0  0  0  0  0  0  0  0  0
  159.8730  210.9800  154.1130 C   0  0  0  0  0  0  0  0  0  0  0  0
  160.3460  209.7640  153.7850 C   0  0  0  0  0  0  0  0  0  0  0  0
  159.3610  210.9900  155.4410 N   0  0  0  0  0  0  0  0  0  0  0  0
  160.8960  213.0520  149.7350 C   0  0  0  0  0  3  0  0  0  0  0  0
  161.4610  212.1960  148.8910 C   0  0  0  0  0  0  0  0  0  0  0  0
  161.7670  210.7960  149.1800 C   0  0  0  0  0  3  0  0  0  0  0  0
  160.4570  211.7880  151.9130 C   0  0  0  0  0  0  0  0  0  0  0  0
  161.5600  210.0950  150.2880 C   0  0  0  0  0  3  0  0  0  0  0  0
  160.9610  210.4820  151.5780 C   0  0  0  0  0  0  0  0  0  0  0  0
  161.7950  212.6770  147.5950 N   0  0  0  0  0  0  0  0  0  0  0  0
  161.4750  212.9690  146.1670 C   0  0  0  0  0  2  0  0  0  0  0  0
  162.7420  213.2810  146.6120 C   0  0  0  0  0  2  0  0  0  0  0  0
  161.5310  205.6830  153.4490 C   0  0  0  0  0  2  0  0  0  0  0  0
  161.0440  203.4550  150.4330 N   0  0  0  0  0  0  0  0  0  0  0  0
  161.6420  206.1720  150.9270 C   0  0  0  0  0  3  0  0  0  0  0  0
  161.4170  204.8910  147.0080 N   0  0  0  0  0  0  0  0  0  0  0  0
  161.3430  204.4470  145.6470 C   0  0  0  0  0  0  0  0  0  0  0  0
  161.1920  203.9590  148.0840 C   0  0  0  0  0  3  0  0  0  0  0  0
  161.5700  205.3380  144.6050 O   0  0  0  0  0  0  0  0  0  0  0  0
  161.2610  204.3640  149.3520 C   0  0  0  0  0  0  0  0  0  0  0  0
  161.0690  203.2450  145.3810 O   0  0  0  0  0  1  0  0  0  0  0  0
  161.7980  206.7130  148.5490 C   0  0  0  0  0  3  0  0  0  0  0  0
  161.5700  205.7740  149.6550 C   0  0  2  0  0  3  0  0  0  0  0  0
  161.7200  206.2710  147.2900 C   0  0  0  0  0  3  0  0  0  0  0  0
  161.4130  205.2170  152.0370 C   0  0  0  0  0  0  0  0  0  0  0  0
  161.1350  203.9300  151.7840 C   0  0  0  0  0  3  0  0  0  0  0  0
  1 10  1  0  0  0  0
  2 15  1  0  0  0  0
  3  9  1  0  0  0  0
  4  8  2  0  0  0  0
  5  1  2  0  0  0  0
  5  4  1  0  0  0  0
  6  7  1  0  0  0  0
  8  6  1  0  0  0  0
  9 11  2  0  0  0  0
 10  9  1  0  0  0  0
 10  6  2  0  0  0  0
 11  7  1  0  0  0  0
 12  2  2  0  0  0  0
 13 14  2  0  0  0  0
 13 12  1  0  0  0  0
 14 16  1  0  0  0  0
 15  3  2  0  0  0  0
 16 17  2  0  0  0  0
 17 15  1  0  0  0  0
 17  1  1  0  0  0  0
 18 13  1  0  0  0  0
 19 20  1  0  0  0  0
 19 18  1  0  0  0  0
 20 18  1  0  0  0  0
 21  4  1  0  0  0  0
 22 34  2  0  0  0  0
 23 33  2  0  0  0  0
 24 32  1  0  0  0  0
 24 26  1  0  0  0  0
 25 24  1  0  0  0  0
 26 28  2  0  0  0  0
 27 25  2  0  0  0  0
 28 31  1  0  0  0  0
 28 22  1  0  0  0  0
 29 25  1  0  0  0  0
 31 30  1  1  0  0  0
 31 23  1  0  0  0  0
 32 30  2  0  0  0  0
 33 21  1  0  0  0  0
 34 33  1  0  0  0  0
M  END
>  <MODEL>
2

>  <REMARK>
 VINA RESULT:     -10.3      4.223      8.804
  Name = 
  3 active torsions:
  status: ('A' for Active; 'I' for Inactive)
    1  A    between atoms: N_3  and  C_25
    2  A    between atoms: C_8  and  C_18
    3  A    between atoms: C_18  and  C_30
                            x       y       z     vdW  Elec       q    Type
                         _______ _______ _______ _____ _____    ______ ____

>  <TORSDO>
F 3

$$$$
=
 OpenBabel11062409283D

 34 40  0  0  1  0  0  0  0  0999 V2000
  161.6830  207.2370  150.6870 C   0  0  0  0  0  0  0  0  0  0  0  0
  161.7140  205.8620  147.2280 C   0  0  0  0  0  3  0  0  0  0  0  0
  161.9910  208.0210  147.9930 C   0  0  0  0  0  3  0  0  0  0  0  0
  161.6320  208.2050  153.0450 C   0  0  0  0  0  0  0  0  0  0  0  0
  161.5280  206.9530  152.1720 C   0  0  0  0  0  2  0  0  0  0  0  0
  161.9950  209.5550  151.1210 C   0  0  0  0  0  0  0  0  0  0  0  0
  162.2290  210.8190  150.3450 C   0  0  0  0  0  3  0  0  0  0  0  0
  161.8400  209.3920  152.5330 N   0  0  0  0  0  0  0  0  0  0  0  0
  162.0590  208.9400  149.0300 C   0  0  0  0  0  0  0  0  0  0  0  0
  161.9100  208.5440  150.3070 C   0  0  0  0  0  0  0  0  0  0  0  0
  162.2650  210.3460  148.9510 N   0  0  0  0  0  0  0  0  0  0  0  0
  161.5010  204.4200  147.0900 C   0  0  0  0  0  3  0  0  0  0  0  0
  161.2980  203.4930  148.0190 C   0  0  0  0  0  0  0  0  0  0  0  0
  161.2430  203.7340  149.4610 C   0  0  0  0  0  3  0  0  0  0  0  0
  161.7630  206.6580  148.2980 C   0  0  0  0  0  0  0  0  0  0  0  0
  161.3710  204.8700  150.1350 C   0  0  0  0  0  3  0  0  0  0  0  0
  161.6070  206.2490  149.6690 C   0  0  0  0  0  0  0  0  0  0  0  0
  161.1170  202.1530  147.5800 N   0  0  0  0  0  0  0  0  0  0  0  0
  160.6150  201.1320  146.6140 C   0  0  0  0  0  2  0  0  0  0  0  0
  161.2820  200.6770  147.7330 C   0  0  0  0  0  2  0  0  0  0  0  0
  161.4350  208.0720  154.5170 C   0  0  0  0  0  2  0  0  0  0  0  0
  159.4700  210.3360  156.8200 N   0  0  0  0  0  0  0  0  0  0  0  0
  159.6160  209.8260  154.0450 C   0  0  0  0  0  3  0  0  0  0  0  0
  156.9040  212.6370  155.3860 N   0  0  0  0  0  0  0  0  0  0  0  0
  155.9600  213.6100  155.8510 C   0  0  0  0  0  0  0  0  0  0  0  0
  157.7480  211.9450  156.3280 C   0  0  0  0  0  3  0  0  0  0  0  0
  155.1360  214.2740  154.9500 O   0  0  0  0  0  0  0  0  0  0  0  0
  158.6270  211.0370  155.9030 C   0  0  0  0  0  0  0  0  0  0  0  0
  155.8690  213.8760  157.0800 O   0  0  0  0  0  1  0  0  0  0  0  0
  157.8700  211.4530  153.5140 C   0  0  0  0  0  3  0  0  0  0  0  0
  158.7360  210.7400  154.4630 C   0  0  2  0  0  3  0  0  0  0  0  0
  157.0010  212.3570  153.9760 C   0  0  0  0  0  3  0  0  0  0  0  0
  160.4840  209.1090  155.0090 C   0  0  0  0  0  0  0  0  0  0  0  0
  160.3980  209.3610  156.3230 C   0  0  0  0  0  3  0  0  0  0  0  0
  1  5  1  0  0  0  0
  2 15  1  0  0  0  0
  3 15  2  0  0  0  0
  3  9  1  0  0  0  0
  4 21  1  0  0  0  0
  5  4  1  0  0  0  0
  6  8  1  0  0  0  0
  7  6  2  0  0  0  0
  8  4  2  0  0  0  0
  9 10  1  0  0  0  0
 10  1  2  0  0  0  0
 10  6  1  0  0  0  0
 11  9  2  0  0  0  0
 11  7  1  0  0  0  0
 12  2  2  0  0  0  0
 12 13  1  0  0  0  0
 13 14  2  0  0  0  0
 14 16  1  0  0  0  0
 15 17  1  0  0  0  0
 17 16  2  0  0  0  0
 17  1  1  0  0  0  0
 18 20  1  0  0  0  0
 18 13  1  0  0  0  0
 19 18  1  0  0  0  0
 19 20  1  0  0  0  0
 21 33  1  0  0  0  0
 23 31  1  0  0  0  0
 23 33  2  0  0  0  0
 24 25  1  0  0  0  0
 24 26  1  0  0  0  0
 25 29  1  0  0  0  0
 27 25  2  0  0  0  0
 28 26  2  0  0  0  0
 28 22  1  0  0  0  0
 30 32  2  0  0  0  0
 31 30  1  1  0  0  0
 31 28  1  0  0  0  0
 32 24  1  0  0  0  0
 33 34  1  0  0  0  0
 34 22  2  0  0  0  0
M  END
>  <MODEL>
3

>  <REMARK>
 VINA RESULT:     -10.1      1.765      2.368
  Name = 
  3 active torsions:
  status: ('A' for Active; 'I' for Inactive)
    1  A    between atoms: N_3  and  C_25
    2  A    between atoms: C_8  and  C_18
    3  A    between atoms: C_18  and  C_30
                            x       y       z     vdW  Elec       q    Type
                         _______ _______ _______ _____ _____    ______ ____

>  <TORSDO>
F 3

$$$$
=
 OpenBabel11062409283D

 34 40  0  0  0  0  0  0  0  0999 V2000
  161.2100  207.3010  151.1500 C   0  0  0  0  0  0  0  0  0  0  0  0
  161.2250  203.9100  149.6170 C   0  0  0  0  0  3  0  0  0  0  0  0
  161.2190  204.5620  151.8290 C   0  0  0  0  0  3  0  0  0  0  0  0
  161.2330  209.6140  152.2220 C   0  0  0  0  0  0  0  0  0  0  0  0
  161.2120  208.8040  150.9240 C   0  0  0  0  0  3  0  0  0  0  0  0
  161.2160  207.6140  153.5090 C   0  0  0  0  0  0  0  0  0  0  0  0
  161.2300  206.7720  154.7510 C   0  0  0  0  0  2  0  0  0  0  0  0
  161.2420  209.0400  153.3990 N   0  0  0  0  0  0  0  0  0  0  0  0
  161.2130  205.5520  152.8020 C   0  0  0  0  0  0  0  0  0  0  0  0
  161.2080  206.8510  152.4540 C   0  0  0  0  0  0  0  0  0  0  0  0
  161.2250  205.3990  154.2170 N   0  0  0  0  0  0  0  0  0  0  0  0
  161.2310  203.8480  148.1540 C   0  0  0  0  0  3  0  0  0  0  0  0
  161.2250  204.8270  147.2570 C   0  0  0  0  0  0  0  0  0  0  0  0
  161.2110  206.2570  147.5620 C   0  0  0  0  0  3  0  0  0  0  0  0
  161.2180  204.9390  150.4660 C   0  0  0  0  0  0  0  0  0  0  0  0
  161.2050  206.8730  148.7380 C   0  0  0  0  0  3  0  0  0  0  0  0
  161.2120  206.3340  150.1100 C   0  0  0  0  0  0  0  0  0  0  0  0
  161.2370  204.4590  145.8830 N   0  0  0  0  0  0  0  0  0  0  0  0
  160.9830  203.5030  144.7660 C   0  0  0  0  0  2  0  0  0  0  0  0
  161.5150  204.7330  144.4430 C   0  0  0  0  0  2  0  0  0  0  0  0
  161.3000  211.1010  152.1380 C   0  0  0  0  0  2  0  0  0  0  0  0
  158.3820  213.4380  152.7030 N   0  0  0  0  0  2  0  0  0  0  0  0
  159.4280  211.1020  153.9000 C   0  0  0  0  0  3  0  0  0  0  0  0
  156.0560  212.8170  155.5560 N   0  0  0  0  0  0  0  0  0  0  0  0
  154.8880  213.4140  156.1340 C   0  0  0  0  0  0  0  0  0  0  0  0
  156.6690  213.4110  154.3940 C   0  0  0  0  0  3  0  0  0  0  0  0
  154.2980  212.8530  157.2610 O   0  0  0  0  0  1  0  0  0  0  0  0
  157.7570  212.8630  153.8530 C   0  0  0  0  0  0  0  0  0  0  0  0
  154.3820  214.4510  155.6260 O   0  0  0  0  0  0  0  0  0  0  0  0
  157.7010  211.0490  155.6300 C   0  0  0  0  0  3  0  0  0  0  0  0
  158.3360  211.6430  154.4460 C   0  0  0  0  0  0  0  0  0  0  0  0
  156.6120  211.6250  156.1450 C   0  0  0  0  0  3  0  0  0  0  0  0
  160.0640  211.7100  152.7070 C   0  0  0  0  0  0  0  0  0  0  0  0
  159.5560  212.8210  152.1550 C   0  0  0  0  0  3  0  0  0  0  0  0
  1 10  1  0  0  0  0
  2 15  1  0  0  0  0
  3  9  1  0  0  0  0
  4  8  2  0  0  0  0
  5  1  2  0  0  0  0
  5  4  1  0  0  0  0
  6  7  1  0  0  0  0
  8  6  1  0  0  0  0
  9 11  2  0  0  0  0
 10  9  1  0  0  0  0
 10  6  2  0  0  0  0
 11  7  1  0  0  0  0
 12  2  2  0  0  0  0
 13 14  2  0  0  0  0
 13 12  1  0  0  0  0
 14 16  1  0  0  0  0
 15  3  2  0  0  0  0
 16 17  2  0  0  0  0
 17 15  1  0  0  0  0
 17  1  1  0  0  0  0
 18 13  1  0  0  0  0
 19 18  1  0  0  0  0
 20 19  1  0  0  0  0
 20 18  1  0  0  0  0
 21  4  1  0  0  0  0
 21 33  1  0  0  0  0
 22 28  1  0  0  0  0
 23 31  2  0  0  0  0
 24 25  1  0  0  0  0
 24 32  1  0  0  0  0
 25 27  1  0  0  0  0
 26 24  1  0  0  0  0
 28 26  2  0  0  0  0
 28 31  1  0  0  0  0
 29 25  2  0  0  0  0
 30 32  2  0  0  0  0
 31 30  1  0  0  0  0
 33 23  1  0  0  0  0
 34 22  1  0  0  0  0
 34 33  2  0  0  0  0
M  END
>  <MODEL>
4

>  <REMARK>
 VINA RESULT:     -10.0      2.375      4.347
  Name = 
  3 active torsions:
  status: ('A' for Active; 'I' for Inactive)
    1  A    between atoms: N_3  and  C_25
    2  A    between atoms: C_8  and  C_18
    3  A    between atoms: C_18  and  C_30
                            x       y       z     vdW  Elec       q    Type
                         _______ _______ _______ _____ _____    ______ ____

>  <TORSDO>
F 3

$$$$
=
 OpenBabel11062409283D

 34 40  0  0  0  0  0  0  0  0999 V2000
  160.9200  209.3020  152.5740 C   0  0  0  0  0  0  0  0  0  0  0  0
  160.5040  212.7350  151.1980 C   0  0  0  0  0  3  0  0  0  0  0  0
  159.9530  211.8630  153.2610 C   0  0  0  0  0  3  0  0  0  0  0  0
  161.1650  206.9500  153.5260 C   0  0  0  0  0  0  0  0  0  0  0  0
  161.3950  207.8790  152.3330 C   0  0  0  0  0  3  0  0  0  0  0  0
  160.2180  208.7380  154.7770 C   0  0  0  0  0  0  0  0  0  0  0  0
  159.5690  209.4080  155.9520 C   0  0  0  0  0  2  0  0  0  0  0  0
  160.6140  207.3700  154.6370 N   0  0  0  0  0  0  0  0  0  0  0  0
  159.9020  210.8030  154.1550 C   0  0  0  0  0  0  0  0  0  0  0  0
  160.3690  209.5910  153.8060 C   0  0  0  0  0  0  0  0  0  0  0  0
  159.3820  210.7910  155.4800 N   0  0  0  0  0  0  0  0  0  0  0  0
  160.9660  212.9560  149.8260 C   0  0  0  0  0  3  0  0  0  0  0  0
  161.5300  212.1130  148.9690 C   0  0  0  0  0  0  0  0  0  0  0  0
  161.8260  210.7060  149.2320 C   0  0  0  0  0  3  0  0  0  0  0  0
  160.5050  211.6520  151.9760 C   0  0  0  0  0  0  0  0  0  0  0  0
  161.6070  209.9840  150.3240 C   0  0  0  0  0  3  0  0  0  0  0  0
  161.0030  210.3490  151.6180 C   0  0  0  0  0  0  0  0  0  0  0  0
  161.8760  212.6180  147.6840 N   0  0  0  0  0  0  0  0  0  0  0  0
  161.5460  213.0100  146.2830 C   0  0  0  0  0  2  0  0  0  0  0  0
  162.8520  213.1640  146.6970 C   0  0  0  0  0  2  0  0  0  0  0  0
  161.5300  205.5100  153.3960 C   0  0  0  0  0  2  0  0  0  0  0  0
  161.5970  205.6270  149.6170 N   0  0  0  0  0  2  0  0  0  0  0  0
  161.2100  203.6760  151.6230 C   0  0  0  0  0  3  0  0  0  0  0  0
  160.9870  202.5010  147.6710 N   0  0  0  0  0  0  0  0  0  0  0  0
  160.9050  202.0930  146.2990 C   0  0  0  0  0  0  0  0  0  0  0  0
  161.2580  203.8780  147.9980 C   0  0  0  0  0  3  0  0  0  0  0  0
  160.6340  200.7680  145.9760 O   0  0  0  0  0  1  0  0  0  0  0  0
  161.3330  204.2660  149.2720 C   0  0  0  0  0  0  0  0  0  0  0  0
  161.0820  202.9280  145.3720 O   0  0  0  0  0  0  0  0  0  0  0  0
  160.8610  201.8790  150.0030 C   0  0  0  0  0  3  0  0  0  0  0  0
  161.1370  203.2800  150.3500 C   0  0  0  0  0  0  0  0  0  0  0  0
  160.7930  201.5270  148.7150 C   0  0  0  0  0  3  0  0  0  0  0  0
  161.4860  205.0910  151.9650 C   0  0  0  0  0  0  0  0  0  0  0  0
  161.6620  206.0040  151.0000 C   0  0  0  0  0  3  0  0  0  0  0  0
  1 10  1  0  0  0  0
  2 15  1  0  0  0  0
  3  9  1  0  0  0  0
  4  8  2  0  0  0  0
  5  1  2  0  0  0  0
  5  4  1  0  0  0  0
  6  7  1  0  0  0  0
  8  6  1  0  0  0  0
  9 11  2  0  0  0  0
 10  9  1  0  0  0  0
 10  6  2  0  0  0  0
 11  7  1  0  0  0  0
 12  2  2  0  0  0  0
 13 14  2  0  0  0  0
 13 12  1  0  0  0  0
 14 16  1  0  0  0  0
 15  3  2  0  0  0  0
 16 17  2  0  0  0  0
 17 15  1  0  0  0  0
 17  1  1  0  0  0  0
 18 13  1  0  0  0  0
 19 20  1  0  0  0  0
 19 18  1  0  0  0  0
 20 18  1  0  0  0  0
 21  4  1  0  0  0  0
 22 34  1  0  0  0  0
 23 33  1  0  0  0  0
 24 26  1  0  0  0  0
 24 32  1  0  0  0  0
 25 24  1  0  0  0  0
 26 28  2  0  0  0  0
 27 25  1  0  0  0  0
 28 22  1  0  0  0  0
 28 31  1  0  0  0  0
 29 25  2  0  0  0  0
 30 31  1  0  0  0  0
 31 23  2  0  0  0  0
 32 30  2  0  0  0  0
 33 21  1  0  0  0  0
 34 33  2  0  0  0  0
M  END
>  <MODEL>
5

>  <REMARK>
 VINA RESULT:      -9.9      4.422      9.224
  Name = 
  3 active torsions:
  status: ('A' for Active; 'I' for Inactive)
    1  A    between atoms: N_3  and  C_25
    2  A    between atoms: C_8  and  C_18
    3  A    between atoms: C_18  and  C_30
                            x       y       z     vdW  Elec       q    Type
                         _______ _______ _______ _____ _____    ______ ____

>  <TORSDO>
F 3

$$$$
=
 OpenBabel11062409283D

 34 40  0  0  1  0  0  0  0  0999 V2000
  160.8750  208.4280  152.3410 C   0  0  0  0  0  0  0  0  0  0  0  0
  161.4160  205.0370  150.9050 C   0  0  0  0  0  3  0  0  0  0  0  0
  161.0940  205.7140  153.0860 C   0  0  0  0  0  3  0  0  0  0  0  0
  160.5360  210.7440  153.3520 C   0  0  0  0  0  0  0  0  0  0  0  0
  160.7450  209.9190  152.0800 C   0  0  0  0  0  3  0  0  0  0  0  0
  160.5840  208.7700  154.6780 C   0  0  0  0  0  0  0  0  0  0  0  0
  160.5470  207.9510  155.9350 C   0  0  0  0  0  2  0  0  0  0  0  0
  160.4720  210.1890  154.5360 N   0  0  0  0  0  0  0  0  0  0  0  0
  160.8750  206.7110  154.0270 C   0  0  0  0  0  0  0  0  0  0  0  0
  160.7740  207.9970  153.6490 C   0  0  0  0  0  0  0  0  0  0  0  0
  160.7450  206.5790  155.4380 N   0  0  0  0  0  0  0  0  0  0  0  0
  161.5920  204.9570  149.4530 C   0  0  0  0  0  3  0  0  0  0  0  0
  161.5850  205.9190  148.5370 C   0  0  0  0  0  0  0  0  0  0  0  0
  161.3870  207.3430  148.8030 C   0  0  0  0  0  3  0  0  0  0  0  0
  161.2060  206.0710  151.7210 C   0  0  0  0  0  0  0  0  0  0  0  0
  161.1850  207.9700  149.9550 C   0  0  0  0  0  3  0  0  0  0  0  0
  161.0940  207.4520  151.3320 C   0  0  0  0  0  0  0  0  0  0  0  0
  161.7880  205.5350  147.1820 N   0  0  0  0  0  0  0  0  0  0  0  0
  161.3150  205.3000  145.7870 C   0  0  0  0  0  2  0  0  0  0  0  0
  162.6450  205.0570  146.0580 C   0  0  0  0  0  2  0  0  0  0  0  0
  160.4560  212.2280  153.2390 C   0  0  0  0  0  2  0  0  0  0  0  0
  157.6350  213.0290  150.8530 N   0  0  0  0  0  0  0  0  0  0  0  0
  160.4550  212.8880  150.7540 C   0  0  0  0  0  3  0  0  0  0  0  0
  158.4160  213.8730  147.3010 N   0  0  0  0  0  0  0  0  0  0  0  0
  157.7080  214.2110  146.1010 C   0  0  0  0  0  0  0  0  0  0  0  0
  157.6870  213.6120  148.5170 C   0  0  0  0  0  3  0  0  0  0  0  0
  158.4040  214.4530  144.9220 O   0  0  0  0  0  0  0  0  0  0  0  0
  158.3380  213.2950  149.6370 C   0  0  0  0  0  0  0  0  0  0  0  0
  156.4510  214.2950  146.1020 O   0  0  0  0  0  1  0  0  0  0  0  0
  160.5400  213.4780  148.3840 C   0  0  0  0  0  3  0  0  0  0  0  0
  159.8100  213.2100  149.6300 C   0  0  2  0  0  3  0  0  0  0  0  0
  159.8540  213.7940  147.2810 C   0  0  0  0  0  3  0  0  0  0  0  0
  159.7110  212.6160  152.0070 C   0  0  0  0  0  0  0  0  0  0  0  0
  158.3730  212.6840  152.0340 C   0  0  0  0  0  3  0  0  0  0  0  0
  1 10  1  0  0  0  0
  2 15  1  0  0  0  0
  3  9  1  0  0  0  0
  4  8  2  0  0  0  0
  5  1  2  0  0  0  0
  5  4  1  0  0  0  0
  6  7  1  0  0  0  0
  8  6  1  0  0  0  0
  9 11  2  0  0  0  0
 10  9  1  0  0  0  0
 10  6  2  0  0  0  0
 11  7  1  0  0  0  0
 12  2  2  0  0  0  0
 13 14  2  0  0  0  0
 13 12  1  0  0  0  0
 14 16  1  0  0  0  0
 15  3  2  0  0  0  0
 16 17  2  0  0  0  0
 17 15  1  0  0  0  0
 17  1  1  0  0  0  0
 18 13  1  0  0  0  0
 19 20  1  0  0  0  0
 19 18  1  0  0  0  0
 20 18  1  0  0  0  0
 21  4  1  0  0  0  0
 22 34  2  0  0  0  0
 23 33  2  0  0  0  0
 24 26  1  0  0  0  0
 25 29  1  0  0  0  0
 25 24  1  0  0  0  0
 26 28  2  0  0  0  0
 27 25  2  0  0  0  0
 28 22  1  0  0  0  0
 31 30  1  6  0  0  0
 31 28  1  0  0  0  0
 31 23  1  0  0  0  0
 32 24  1  0  0  0  0
 32 30  2  0  0  0  0
 33 34  1  0  0  0  0
 33 21  1  0  0  0  0
M  END
>  <MODEL>
6

>  <REMARK>
 VINA RESULT:      -9.8      3.987      6.458
  Name = 
  3 active torsions:
  status: ('A' for Active; 'I' for Inactive)
    1  A    between atoms: N_3  and  C_25
    2  A    between atoms: C_8  and  C_18
    3  A    between atoms: C_18  and  C_30
                            x       y       z     vdW  Elec       q    Type
                         _______ _______ _______ _____ _____    ______ ____

>  <TORSDO>
F 3

$$$$
=
 OpenBabel11062409283D

 34 40  0  0  1  0  0  0  0  0999 V2000
  161.7310  208.8030  149.4760 C   0  0  0  0  0  0  0  0  0  0  0  0
  160.9830  205.1880  149.9580 C   0  0  0  0  0  3  0  0  0  0  0  0
  161.0820  206.9210  151.4770 C   0  0  0  0  0  3  0  0  0  0  0  0
  162.2720  211.2760  149.1750 C   0  0  0  0  0  0  0  0  0  0  0  0
  162.0900  209.9130  148.5030 C   0  0  0  0  0  3  0  0  0  0  0  0
  161.7590  210.3340  151.2970 C   0  0  0  0  0  0  0  0  0  0  0  0
  161.5470  210.3120  152.7830 C   0  0  0  0  0  2  0  0  0  0  0  0
  162.1200  211.4390  150.4650 N   0  0  0  0  0  0  0  0  0  0  0  0
  161.2870  208.2600  151.7780 C   0  0  0  0  0  0  0  0  0  0  0  0
  161.5950  209.1390  150.8070 C   0  0  0  0  0  0  0  0  0  0  0  0
  161.2320  208.8980  153.0490 N   0  0  0  0  0  0  0  0  0  0  0  0
  161.0060  204.3450  148.7600 C   0  0  0  0  0  3  0  0  0  0  0  0
  161.2500  204.6650  147.4950 C   0  0  0  0  0  0  0  0  0  0  0  0
  161.5650  206.0060  147.0030 C   0  0  0  0  0  3  0  0  0  0  0  0
  161.1990  206.4930  150.1340 C   0  0  0  0  0  0  0  0  0  0  0  0
  161.6780  207.1480  147.6700 C   0  0  0  0  0  3  0  0  0  0  0  0
  161.5280  207.4460  149.1060 C   0  0  0  0  0  0  0  0  0  0  0  0
  161.2050  203.6180  146.5330 N   0  0  0  0  0  0  0  0  0  0  0  0
  160.8680  202.2300  146.1010 C   0  0  0  0  0  2  0  0  0  0  0  0
  161.4600  203.0600  145.1730 C   0  0  0  0  0  2  0  0  0  0  0  0
  162.6880  212.4380  148.3390 C   0  0  0  0  0  2  0  0  0  0  0  0
  159.7140  212.2350  146.0130 N   0  0  0  0  0  0  0  0  0  0  0  0
  162.4350  212.9780  145.8380 C   0  0  0  0  0  3  0  0  0  0  0  0
  160.1260  213.1560  142.4200 N   0  0  0  0  0  0  0  0  0  0  0  0
  159.3260  213.2150  141.2310 C   0  0  0  0  0  0  0  0  0  0  0  0
  159.5380  212.7240  143.6630 C   0  0  0  0  0  3  0  0  0  0  0  0
  159.8880  213.6210  140.0260 O   0  0  0  0  0  0  0  0  0  0  0  0
  160.2770  212.6650  144.7710 C   0  0  0  0  0  0  0  0  0  0  0  0
  158.1050  212.9030  141.2660 O   0  0  0  0  0  1  0  0  0  0  0  0
  162.2870  213.4820  143.4510 C   0  0  0  0  0  3  0  0  0  0  0  0
  161.7010  213.0430  144.7250 C   0  0  2  0  0  3  0  0  0  0  0  0
  161.5160  213.5290  142.3600 C   0  0  0  0  0  3  0  0  0  0  0  0
  161.8370  212.5310  147.1190 C   0  0  0  0  0  0  0  0  0  0  0  0
  160.5450  212.1790  147.1820 C   0  0  0  0  0  3  0  0  0  0  0  0
  1 10  1  0  0  0  0
  2 15  1  0  0  0  0
  3  9  1  0  0  0  0
  4  8  2  0  0  0  0
  5  4  1  0  0  0  0
  5  1  2  0  0  0  0
  6  7  1  0  0  0  0
  7 11  1  0  0  0  0
  8  6  1  0  0  0  0
  9 11  2  0  0  0  0
 10  6  2  0  0  0  0
 10  9  1  0  0  0  0
 12  2  2  0  0  0  0
 13 12  1  0  0  0  0
 14 13  2  0  0  0  0
 14 16  1  0  0  0  0
 15  3  2  0  0  0  0
 16 17  2  0  0  0  0
 17  1  1  0  0  0  0
 17 15  1  0  0  0  0
 18 13  1  0  0  0  0
 19 18  1  0  0  0  0
 20 19  1  0  0  0  0
 20 18  1  0  0  0  0
 21  4  1  0  0  0  0
 22 34  2  0  0  0  0
 23 33  2  0  0  0  0
 24 26  1  0  0  0  0
 25 29  1  0  0  0  0
 25 24  1  0  0  0  0
 26 28  2  0  0  0  0
 27 25  2  0  0  0  0
 28 22  1  0  0  0  0
 31 30  1  6  0  0  0
 31 28  1  0  0  0  0
 31 23  1  0  0  0  0
 32 24  1  0  0  0  0
 32 30  2  0  0  0  0
 33 34  1  0  0  0  0
 33 21  1  0  0  0  0
M  END
>  <MODEL>
7

>  <REMARK>
 VINA RESULT:      -9.7      5.449      8.204
  Name = 
  3 active torsions:
  status: ('A' for Active; 'I' for Inactive)
    1  A    between atoms: N_3  and  C_25
    2  A    between atoms: C_8  and  C_18
    3  A    between atoms: C_18  and  C_30
                            x       y       z     vdW  Elec       q    Type
                         _______ _______ _______ _____ _____    ______ ____

>  <TORSDO>
F 3

$$$$
=
 OpenBabel11062409283D

 34 40  0  0  1  0  0  0  0  0999 V2000
  160.7310  209.1660  152.5180 C   0  0  0  0  0  0  0  0  0  0  0  0
  161.3660  205.4990  152.5260 C   0  0  0  0  0  3  0  0  0  0  0  0
  161.1940  207.0010  154.2680 C   0  0  0  0  0  3  0  0  0  0  0  0
  160.3310  211.6840  152.5340 C   0  0  0  0  0  0  0  0  0  0  0  0
  160.4810  210.4160  151.6910 C   0  0  0  0  0  3  0  0  0  0  0  0
  160.6270  210.4280  154.5320 C   0  0  0  0  0  0  0  0  0  0  0  0
  160.7550  210.1940  156.0090 C   0  0  0  0  0  2  0  0  0  0  0  0
  160.4090  211.6620  153.8410 N   0  0  0  0  0  0  0  0  0  0  0  0
  160.9940  208.2900  154.7430 C   0  0  0  0  0  0  0  0  0  0  0  0
  160.7750  209.3060  153.8900 C   0  0  0  0  0  0  0  0  0  0  0  0
  160.9980  208.7440  156.0920 N   0  0  0  0  0  0  0  0  0  0  0  0
  161.4180  204.8360  151.2210 C   0  0  0  0  0  3  0  0  0  0  0  0
  161.2650  205.3380  150.0010 C   0  0  0  0  0  0  0  0  0  0  0  0
  160.9980  206.7410  149.6880 C   0  0  0  0  0  3  0  0  0  0  0  0
  161.1610  206.7710  152.8720 C   0  0  0  0  0  0  0  0  0  0  0  0
  160.8580  207.7790  150.5020 C   0  0  0  0  0  3  0  0  0  0  0  0
  160.9240  207.8690  151.9720 C   0  0  0  0  0  0  0  0  0  0  0  0
  161.3730  204.4380  148.9040 N   0  0  0  0  0  0  0  0  0  0  0  0
  161.2530  203.0870  148.2820 C   0  0  0  0  0  2  0  0  0  0  0  0
  161.6960  204.1200  147.4830 C   0  0  0  0  0  2  0  0  0  0  0  0
  160.1430  212.9900  151.8400 C   0  0  0  0  0  2  0  0  0  0  0  0
  161.6060  212.1280  148.4610 N   0  0  0  0  0  0  0  0  0  0  0  0
  159.2320  213.2950  149.4550 C   0  0  0  0  0  3  0  0  0  0  0  0
  159.6790  212.9300  145.3660 N   0  0  0  0  0  0  0  0  0  0  0  0
  159.8350  212.8070  143.9470 C   0  0  0  0  0  0  0  0  0  0  0  0
  160.7200  212.4660  146.2480 C   0  0  0  0  0  3  0  0  0  0  0  0
  158.8390  213.2620  143.0900 O   0  0  0  0  0  0  0  0  0  0  0  0
  160.5840  212.5790  147.5700 C   0  0  0  0  0  0  0  0  0  0  0  0
  160.8730  212.2830  143.4600 O   0  0  0  0  0  1  0  0  0  0  0  0
  158.3070  213.6500  147.2200 C   0  0  0  0  0  3  0  0  0  0  0  0
  159.3610  213.1820  148.1310 C   0  0  2  0  0  3  0  0  0  0  0  0
  158.4790  213.5200  145.9020 C   0  0  0  0  0  3  0  0  0  0  0  0
  160.3010  212.8220  150.3660 C   0  0  0  0  0  0  0  0  0  0  0  0
  161.4230  212.2750  149.8770 C   0  0  0  0  0  3  0  0  0  0  0  0
  1 10  1  0  0  0  0
  2 15  1  0  0  0  0
  3  9  1  0  0  0  0
  4  8  2  0  0  0  0
  5  1  2  0  0  0  0
  5  4  1  0  0  0  0
  6  7  1  0  0  0  0
  7 11  1  0  0  0  0
  8  6  1  0  0  0  0
  9 11  2  0  0  0  0
 10  6  2  0  0  0  0
 10  9  1  0  0  0  0
 12  2  2  0  0  0  0
 13 12  1  0  0  0  0
 14 13  2  0  0  0  0
 14 16  1  0  0  0  0
 15  3  2  0  0  0  0
 16 17  2  0  0  0  0
 17  1  1  0  0  0  0
 17 15  1  0  0  0  0
 18 13  1  0  0  0  0
 19 18  1  0  0  0  0
 20 19  1  0  0  0  0
 20 18  1  0  0  0  0
 21  4  1  0  0  0  0
 22 34  2  0  0  0  0
 23 33  2  0  0  0  0
 24 32  1  0  0  0  0
 24 26  1  0  0  0  0
 25 24  1  0  0  0  0
 26 28  2  0  0  0  0
 27 25  2  0  0  0  0
 28 31  1  0  0  0  0
 28 22  1  0  0  0  0
 29 25  1  0  0  0  0
 31 30  1  6  0  0  0
 31 23  1  0  0  0  0
 32 30  2  0  0  0  0
 33 21  1  0  0  0  0
 34 33  1  0  0  0  0
M  END
>  <MODEL>
8

>  <REMARK>
 VINA RESULT:      -9.6      4.400      7.455
  Name = 
  3 active torsions:
  status: ('A' for Active; 'I' for Inactive)
    1  A    between atoms: N_3  and  C_25
    2  A    between atoms: C_8  and  C_18
    3  A    between atoms: C_18  and  C_30
                            x       y       z     vdW  Elec       q    Type
                         _______ _______ _______ _____ _____    ______ ____

>  <TORSDO>
F 3

$$$$
=
 OpenBabel11062409283D

 34 40  0  0  1  0  0  0  0  0999 V2000
  160.2470  211.2440  152.4110 C   0  0  0  0  0  0  0  0  0  0  0  0
  159.6210  213.9730  149.9590 C   0  0  0  0  0  3  0  0  0  0  0  0
  158.7670  213.6230  152.0730 C   0  0  0  0  0  3  0  0  0  0  0  0
  160.6340  209.3670  154.0920 C   0  0  0  0  0  0  0  0  0  0  0  0
  160.9780  209.9480  152.7190 C   0  0  0  0  0  3  0  0  0  0  0  0
  159.1690  211.1880  154.5310 C   0  0  0  0  0  0  0  0  0  0  0  0
  158.1800  212.0070  155.3070 C   0  0  0  0  0  2  0  0  0  0  0  0
  159.7920  209.9550  154.9040 N   0  0  0  0  0  0  0  0  0  0  0  0
  158.6840  212.8750  153.2380 C   0  0  0  0  0  0  0  0  0  0  0  0
  159.3980  211.7440  153.3770 C   0  0  0  0  0  0  0  0  0  0  0  0
  157.8910  213.1260  154.3940 N   0  0  0  0  0  0  0  0  0  0  0  0
  160.3360  213.8910  148.6840 C   0  0  0  0  0  3  0  0  0  0  0  0
  161.2000  212.9820  148.2460 C   0  0  0  0  0  0  0  0  0  0  0  0
  161.6440  211.8040  148.9910 C   0  0  0  0  0  3  0  0  0  0  0  0
  159.6170  213.1810  151.0320 C   0  0  0  0  0  0  0  0  0  0  0  0
  161.3030  211.3920  150.2050 C   0  0  0  0  0  3  0  0  0  0  0  0
  160.3770  211.9690  151.1960 C   0  0  0  0  0  0  0  0  0  0  0  0
  161.7400  213.1650  146.9430 N   0  0  0  0  0  0  0  0  0  0  0  0
  161.6070  213.3390  145.4670 C   0  0  0  0  0  2  0  0  0  0  0  0
  162.8810  213.3290  145.9950 C   0  0  0  0  0  2  0  0  0  0  0  0
  161.2380  208.0630  154.4910 C   0  0  0  0  0  2  0  0  0  0  0  0
  161.2040  204.8460  152.5050 N   0  0  0  0  0  0  0  0  0  0  0  0
  161.2070  207.6190  151.9590 C   0  0  0  0  0  3  0  0  0  0  0  0
  161.2120  204.9900  148.7750 N   0  0  0  0  0  0  0  0  0  0  0  0
  161.2170  204.0780  147.6680 C   0  0  0  0  0  0  0  0  0  0  0  0
  161.2080  204.4850  150.1250 C   0  0  0  0  0  3  0  0  0  0  0  0
  161.2320  204.5580  146.3640 O   0  0  0  0  0  0  0  0  0  0  0  0
  161.2050  205.3270  151.1590 C   0  0  0  0  0  0  0  0  0  0  0  0
  161.2060  202.8330  147.8660 O   0  0  0  0  0  1  0  0  0  0  0  0
  161.2100  207.2830  149.5380 C   0  0  0  0  0  3  0  0  0  0  0  0
  161.2060  206.7810  150.9190 C   0  0  2  0  0  3  0  0  0  0  0  0
  161.2130  206.4090  148.5270 C   0  0  0  0  0  3  0  0  0  0  0  0
  161.2050  207.1050  153.3490 C   0  0  0  0  0  0  0  0  0  0  0  0
  161.2080  205.7860  153.5890 C   0  0  0  0  0  3  0  0  0  0  0  0
  1  5  2  0  0  0  0
  1 10  1  0  0  0  0
  2 15  1  0  0  0  0
  3  9  1  0  0  0  0
  4 21  1  0  0  0  0
  4  8  2  0  0  0  0
  5  4  1  0  0  0  0
  6  8  1  0  0  0  0
  6  7  1  0  0  0  0
  9 10  1  0  0  0  0
  9 11  2  0  0  0  0
 10  6  2  0  0  0  0
 11  7  1  0  0  0  0
 12  2  2  0  0  0  0
 13 12  1  0  0  0  0
 13 14  2  0  0  0  0
 14 16  1  0  0  0  0
 15 17  1  0  0  0  0
 15  3  2  0  0  0  0
 16 17  2  0  0  0  0
 17  1  1  0  0  0  0
 18 13  1  0  0  0  0
 19 20  1  0  0  0  0
 19 18  1  0  0  0  0
 20 18  1  0  0  0  0
 22 34  2  0  0  0  0
 23 33  2  0  0  0  0
 24 26  1  0  0  0  0
 25 29  1  0  0  0  0
 25 24  1  0  0  0  0
 26 28  2  0  0  0  0
 27 25  2  0  0  0  0
 28 22  1  0  0  0  0
 31 30  1  6  0  0  0
 31 28  1  0  0  0  0
 31 23  1  0  0  0  0
 32 24  1  0  0  0  0
 32 30  2  0  0  0  0
 33 34  1  0  0  0  0
 33 21  1  0  0  0  0
M  END
>  <MODEL>
9

>  <REMARK>
 VINA RESULT:      -9.4      4.305      8.745
  Name = 
  3 active torsions:
  status: ('A' for Active; 'I' for Inactive)
    1  A    between atoms: N_3  and  C_25
    2  A    between atoms: C_8  and  C_18
    3  A    between atoms: C_18  and  C_30
                            x       y       z     vdW  Elec       q    Type
                         _______ _______ _______ _____ _____    ______ ____

>  <TORSDO>
F 3

$$$$
