=
 OpenBabel11062408193D

 32 34  0  0  1  0  0  0  0  0999 V2000
  158.9930  210.6660  154.8450 N   0  0  0  0  0  0  0  0  0  0  0  0
  161.6130  211.3460  154.1260 C   0  0  0  0  0  2  0  0  0  0  0  0
  159.1070  210.8160  153.3960 C   0  0  2  0  0  3  0  0  0  0  0  0
  162.3890  209.2080  153.2390 C   0  0  0  0  0  2  0  0  0  0  0  0
  160.8960  209.3230  152.9660 C   0  0  1  0  0  0  0  0  0  0  0  0
  159.5030  209.3250  155.2490 C   0  0  1  0  0  3  0  0  0  0  0  0
  160.6050  207.0960  154.3540 C   0  0  0  0  0  1  0  0  0  0  0  0
  160.1060  208.5030  154.0520 C   0  0  2  0  0  3  0  0  0  0  0  0
  160.6360  210.8490  153.0700 C   0  0  2  0  0  0  0  0  0  0  0  0
  162.7840  210.3830  154.1150 C   0  0  0  0  0  2  0  0  0  0  0  0
  159.6860  212.0590  152.8450 C   0  0  1  0  0  3  0  0  0  0  0  0
  160.4840  209.4730  156.4300 C   0  0  2  0  0  3  0  0  0  0  0  0
  160.4460  208.3520  157.2600 O   0  0  0  0  0  1  0  0  0  0  0  0
  160.2020  210.7230  157.2610 C   0  0  0  0  0  2  0  0  0  0  0  0
  161.2660  211.6240  157.1670 O   0  0  0  0  0  1  0  0  0  0  0  0
  158.4010  213.3950  151.3350 C   0  0  0  0  0  1  0  0  0  0  0  0
  159.3890  212.3290  151.4180 N   0  0  0  0  0  0  0  0  0  0  0  0
  160.5280  212.7060  150.5840 C   0  0  0  0  0  2  0  0  0  0  0  0
  160.1190  213.7830  149.5930 C   0  0  0  0  0  2  0  0  0  0  0  0
  160.8590  213.6010  148.2790 C   0  0  0  0  0  2  0  0  0  0  0  0
  162.2010  213.3230  148.5380 O   0  0  0  0  0  1  0  0  0  0  0  0
  157.5710  210.6830  155.1550 C   0  0  0  0  0  2  0  0  0  0  0  0
  157.2110  211.9840  155.8470 C   0  0  0  0  0  2  0  0  0  0  0  0
  156.2580  212.7730  154.9700 C   0  0  0  0  0  1  0  0  0  0  0  0
  160.6340  208.7760  151.5610 C   0  0  0  0  0  2  0  0  0  0  0  0
  161.6480  207.8970  151.1620 O   0  0  0  0  0  0  0  0  0  0  0  0
  161.0790  207.1220  150.1490 C   0  0  1  0  0  3  0  0  0  0  0  0
  162.2670  208.4900  148.5760 O   0  0  0  0  0  0  0  0  0  0  0  0
  161.9830  206.2710  147.9490 N   0  0  0  0  0  1  0  0  0  0  0  0
  161.8060  207.3510  148.8590 C   0  0  0  0  0  0  0  0  0  0  0  0
  161.1300  205.6780  150.5410 C   0  0  0  0  0  3  0  0  0  0  0  0
  162.0090  205.2420  151.4410 C   0  0  0  0  0  2  0  0  0  0  0  0
  1 22  1  0  0  0  0
  1  6  1  0  0  0  0
  3  1  1  1  0  0  0
  4 10  1  0  0  0  0
  5 25  1  6  0  0  0
  5  9  1  0  0  0  0
  5  4  1  0  0  0  0
  5  8  1  0  0  0  0
  6 12  1  1  0  0  0
  8  7  1  1  0  0  0
  8  6  1  0  0  0  0
  9  3  1  0  0  0  0
  9  2  1  1  0  0  0
 10  2  1  0  0  0  0
 11 17  1  6  0  0  0
 11  9  1  0  0  0  0
 11  3  1  0  0  0  0
 12 13  1  1  0  0  0
 12 14  1  0  0  0  0
 15 14  1  0  0  0  0
 16 17  1  0  0  0  0
 18 17  1  0  0  0  0
 19 18  1  0  0  0  0
 20 21  1  0  0  0  0
 20 19  1  0  0  0  0
 22 23  1  0  0  0  0
 24 23  1  0  0  0  0
 26 25  1  0  0  0  0
 27 31  1  1  0  0  0
 27 26  1  0  0  0  0
 28 30  2  0  0  0  0
 29 30  1  0  0  0  0
 30 27  1  0  0  0  0
 31 32  2  0  0  0  0
M  END
>  <MODEL>
1

>  <REMARK>
 VINA RESULT:      -3.1      0.000      0.000
  Name = 
  13 active torsions:
  status: ('A' for Active; 'I' for Inactive)
    1  A    between atoms: C_1  and  C_4
    2  A    between atoms: C_1  and  C_27
    3  A    between atoms: C_2  and  N_5
    4  A    between atoms: C_2  and  C_14
    5  A    between atoms: O_3  and  C_19
    6  A    between atoms: O_3  and  C_22
    7  A    between atoms: C_6  and  C_13
    8  A    between atoms: C_6  and  C_18
    9  A    between atoms: C_12  and  C_22
   10  A    between atoms: C_15  and  C_19
   11  A    between atoms: C_19  and  C_26
   12  A    between atoms: N_24  and  C_27
   13  A    between atoms: N_24  and  C_32
                            x       y       z     vdW  Elec       q    Type
                         _______ _______ _______ _____ _____    ______ ____

>  <TORSDO>
F 13

$$$$
=
 OpenBabel11062408193D

 32 34  0  0  1  0  0  0  0  0999 V2000
  161.8610  206.2360  151.3800 N   0  0  0  0  0  0  0  0  0  0  0  0
  159.6380  205.9430  149.7020 C   0  0  0  0  0  2  0  0  0  0  0  0
  161.9150  204.9580  150.6730 C   0  0  2  0  0  3  0  0  0  0  0  0
  160.6740  206.3620  147.5310 C   0  0  0  0  0  2  0  0  0  0  0  0
  161.7120  205.7150  148.4360 C   0  0  1  0  0  0  0  0  0  0  0  0
  162.3360  207.3240  150.4800 C   0  0  1  0  0  3  0  0  0  0  0  0
  163.2020  207.8600  148.0400 C   0  0  0  0  0  1  0  0  0  0  0  0
  162.6560  206.8300  149.0220 C   0  0  2  0  0  3  0  0  0  0  0  0
  160.8490  205.0350  149.5310 C   0  0  2  0  0  0  0  0  0  0  0  0
  159.4510  206.6620  148.3800 C   0  0  0  0  0  2  0  0  0  0  0  0
  160.7480  204.0540  150.7330 C   0  0  1  0  0  3  0  0  0  0  0  0
  161.3390  208.5000  150.5090 C   0  0  2  0  0  3  0  0  0  0  0  0
  161.9340  209.6770  150.0520 O   0  0  0  0  0  1  0  0  0  0  0  0
  160.7680  208.7370  151.9050 C   0  0  0  0  0  2  0  0  0  0  0  0
  161.5270  209.6890  152.5910 O   0  0  0  0  0  1  0  0  0  0  0  0
  161.5200  201.9420  151.5470 C   0  0  0  0  0  1  0  0  0  0  0  0
  161.0120  202.6390  150.3740 N   0  0  0  0  0  0  0  0  0  0  0  0
  159.8720  201.8830  149.8600 C   0  0  0  0  0  2  0  0  0  0  0  0
  160.1670  201.3770  148.4580 C   0  0  0  0  0  2  0  0  0  0  0  0
  161.4620  200.5830  148.4440 C   0  0  0  0  0  2  0  0  0  0  0  0
  161.5340  199.8370  147.2670 O   0  0  0  0  0  1  0  0  0  0  0  0
  162.8190  206.1490  152.4720 C   0  0  0  0  0  2  0  0  0  0  0  0
  162.1200  206.4160  153.7920 C   0  0  0  0  0  2  0  0  0  0  0  0
  160.7310  205.8070  153.7580 C   0  0  0  0  0  1  0  0  0  0  0  0
  162.5010  204.7070  147.5990 C   0  0  0  0  0  2  0  0  0  0  0  0
  161.6770  203.6650  147.1530 O   0  0  0  0  0  0  0  0  0  0  0  0
  161.9330  203.5590  145.7840 C   0  0  1  0  0  3  0  0  0  0  0  0
  159.9800  204.1040  144.5010 O   0  0  0  0  0  0  0  0  0  0  0  0
  160.2620  201.8470  144.9760 N   0  0  0  0  0  1  0  0  0  0  0  0
  160.6740  203.2070  145.0530 C   0  0  0  0  0  0  0  0  0  0  0  0
  162.5000  204.8510  145.2830 C   0  0  0  0  0  3  0  0  0  0  0  0
  161.9900  205.4530  144.2110 C   0  0  0  0  0  2  0  0  0  0  0  0
  1 22  1  0  0  0  0
  3 11  1  0  0  0  0
  3  1  1  1  0  0  0
  4 10  1  0  0  0  0
  4  5  1  0  0  0  0
  5 25  1  6  0  0  0
  5  8  1  0  0  0  0
  5  9  1  0  0  0  0
  6 12  1  6  0  0  0
  6  1  1  0  0  0  0
  8  7  1  6  0  0  0
  8  6  1  0  0  0  0
  9  2  1  1  0  0  0
  9  3  1  0  0  0  0
  9 11  1  0  0  0  0
 10  2  1  0  0  0  0
 11 17  1  6  0  0  0
 12 13  1  1  0  0  0
 12 14  1  0  0  0  0
 14 15  1  0  0  0  0
 17 16  1  0  0  0  0
 18 17  1  0  0  0  0
 19 18  1  0  0  0  0
 20 19  1  0  0  0  0
 21 20  1  0  0  0  0
 22 23  1  0  0  0  0
 24 23  1  0  0  0  0
 26 25  1  0  0  0  0
 27 31  1  6  0  0  0
 27 26  1  0  0  0  0
 28 30  2  0  0  0  0
 29 30  1  0  0  0  0
 30 27  1  0  0  0  0
 32 31  2  0  0  0  0
M  END
>  <MODEL>
2

>  <REMARK>
 VINA RESULT:      -2.0      4.029      7.908
  Name = 
  13 active torsions:
  status: ('A' for Active; 'I' for Inactive)
    1  A    between atoms: C_1  and  C_4
    2  A    between atoms: C_1  and  C_27
    3  A    between atoms: C_2  and  N_5
    4  A    between atoms: C_2  and  C_14
    5  A    between atoms: O_3  and  C_19
    6  A    between atoms: O_3  and  C_22
    7  A    between atoms: C_6  and  C_13
    8  A    between atoms: C_6  and  C_18
    9  A    between atoms: C_12  and  C_22
   10  A    between atoms: C_15  and  C_19
   11  A    between atoms: C_19  and  C_26
   12  A    between atoms: N_24  and  C_27
   13  A    between atoms: N_24  and  C_32
                            x       y       z     vdW  Elec       q    Type
                         _______ _______ _______ _____ _____    ______ ____

>  <TORSDO>
F 13

$$$$
=
 OpenBabel11062408193D

 32 34  0  0  1  0  0  0  0  0999 V2000
  158.8180  211.5450  154.0450 N   0  0  0  0  0  0  0  0  0  0  0  0
  161.6140  211.4340  154.1750 C   0  0  0  0  0  2  0  0  0  0  0  0
  159.3730  211.0540  152.7850 C   0  0  2  0  0  3  0  0  0  0  0  0
  161.9410  209.0270  154.4210 C   0  0  0  0  0  2  0  0  0  0  0  0
  160.6880  209.2530  153.5880 C   0  0  1  0  0  0  0  0  0  0  0  0
  158.7760  210.4350  155.0380 C   0  0  1  0  0  3  0  0  0  0  0  0
  159.3770  207.8910  155.4310 C   0  0  0  0  0  1  0  0  0  0  0  0
  159.4200  209.1020  154.5080 C   0  0  2  0  0  3  0  0  0  0  0  0
  160.8710  210.7020  153.0650 C   0  0  2  0  0  0  0  0  0  0  0  0
  162.4030  210.3810  154.9290 C   0  0  0  0  0  2  0  0  0  0  0  0
  160.4230  211.8410  152.1070 C   0  0  1  0  0  3  0  0  0  0  0  0
  159.3840  210.9050  156.3740 C   0  0  2  0  0  3  0  0  0  0  0  0
  159.9420  209.8360  157.0780 O   0  0  0  0  0  1  0  0  0  0  0  0
  158.3570  211.6070  157.2600 C   0  0  0  0  0  2  0  0  0  0  0  0
  157.0900  211.5610  156.6730 O   0  0  0  0  0  1  0  0  0  0  0  0
  160.2210  212.6820  149.8770 C   0  0  0  0  0  1  0  0  0  0  0  0
  160.6310  211.5320  150.6710 N   0  0  0  0  0  0  0  0  0  0  0  0
  161.9950  211.1800  150.2810 C   0  0  0  0  0  2  0  0  0  0  0  0
  162.1380  211.2330  148.7700 C   0  0  0  0  0  2  0  0  0  0  0  0
  162.9120  212.4720  148.3540 C   0  0  0  0  0  2  0  0  0  0  0  0
  163.2710  212.3640  147.0100 O   0  0  0  0  0  1  0  0  0  0  0  0
  157.4370  211.9170  153.7750 C   0  0  0  0  0  2  0  0  0  0  0  0
  157.3600  213.3920  153.4290 C   0  0  0  0  0  2  0  0  0  0  0  0
  158.2860  214.1720  154.3420 C   0  0  0  0  0  1  0  0  0  0  0  0
  160.6810  208.2180  152.4610 C   0  0  0  0  0  2  0  0  0  0  0  0
  161.4810  207.1150  152.7830 O   0  0  0  0  0  0  0  0  0  0  0  0
  161.8550  206.5660  151.5540 C   0  0  1  0  0  3  0  0  0  0  0  0
  161.4570  204.5020  150.3960 O   0  0  0  0  0  0  0  0  0  0  0  0
  161.0590  204.4520  152.6850 N   0  0  0  0  0  1  0  0  0  0  0  0
  161.4490  205.1240  151.4920 C   0  0  0  0  0  0  0  0  0  0  0  0
  161.2190  207.3480  150.4470 C   0  0  0  0  0  3  0  0  0  0  0  0
  161.8850  207.6160  149.3260 C   0  0  0  0  0  2  0  0  0  0  0  0
  1  6  1  0  0  0  0
  2 10  1  0  0  0  0
  3  9  1  0  0  0  0
  3  1  1  1  0  0  0
  4 10  1  0  0  0  0
  5 25  1  6  0  0  0
  5  4  1  0  0  0  0
  5  8  1  0  0  0  0
  6 12  1  1  0  0  0
  8  6  1  0  0  0  0
  8  7  1  1  0  0  0
  9  5  1  0  0  0  0
  9  2  1  1  0  0  0
 11 17  1  6  0  0  0
 11  3  1  0  0  0  0
 11  9  1  0  0  0  0
 12 13  1  1  0  0  0
 12 14  1  0  0  0  0
 15 14  1  0  0  0  0
 16 17  1  0  0  0  0
 18 17  1  0  0  0  0
 19 18  1  0  0  0  0
 20 19  1  0  0  0  0
 21 20  1  0  0  0  0
 22  1  1  0  0  0  0
 23 22  1  0  0  0  0
 23 24  1  0  0  0  0
 25 26  1  0  0  0  0
 27 31  1  6  0  0  0
 27 26  1  0  0  0  0
 28 30  2  0  0  0  0
 30 27  1  0  0  0  0
 30 29  1  0  0  0  0
 32 31  2  0  0  0  0
M  END
>  <MODEL>
3

>  <REMARK>
 VINA RESULT:      -1.9      1.939      2.309
  Name = 
  13 active torsions:
  status: ('A' for Active; 'I' for Inactive)
    1  A    between atoms: C_1  and  C_4
    2  A    between atoms: C_1  and  C_27
    3  A    between atoms: C_2  and  N_5
    4  A    between atoms: C_2  and  C_14
    5  A    between atoms: O_3  and  C_19
    6  A    between atoms: O_3  and  C_22
    7  A    between atoms: C_6  and  C_13
    8  A    between atoms: C_6  and  C_18
    9  A    between atoms: C_12  and  C_22
   10  A    between atoms: C_15  and  C_19
   11  A    between atoms: C_19  and  C_26
   12  A    between atoms: N_24  and  C_27
   13  A    between atoms: N_24  and  C_32
                            x       y       z     vdW  Elec       q    Type
                         _______ _______ _______ _____ _____    ______ ____

>  <TORSDO>
F 13

$$$$
=
 OpenBabel11062408193D

 32 34  0  0  1  0  0  0  0  0999 V2000
  159.4860  211.1370  154.0030 N   0  0  0  0  0  0  0  0  0  0  0  0
  162.1210  210.7570  154.8730 C   0  0  0  0  0  2  0  0  0  0  0  0
  160.1850  210.1970  153.1300 C   0  0  2  0  0  3  0  0  0  0  0  0
  161.9270  208.5460  155.8910 C   0  0  0  0  0  2  0  0  0  0  0  0
  160.9400  208.6260  154.7360 C   0  0  1  0  0  0  0  0  0  0  0  0
  159.0290  210.4300  155.2330 C   0  0  1  0  0  3  0  0  0  0  0  0
  159.0400  208.1090  156.4970 C   0  0  0  0  0  1  0  0  0  0  0  0
  159.5030  208.9330  155.3020 C   0  0  2  0  0  3  0  0  0  0  0  0
  161.4980  209.7890  153.8750 C   0  0  2  0  0  0  0  0  0  0  0  0
  162.5220  209.9300  156.0790 C   0  0  0  0  0  2  0  0  0  0  0  0
  161.4830  210.5900  152.5430 C   0  0  1  0  0  3  0  0  0  0  0  0
  159.4250  211.2440  156.4810 C   0  0  2  0  0  3  0  0  0  0  0  0
  158.3070  211.5520  157.2580 O   0  0  0  0  0  1  0  0  0  0  0  0
  160.1560  212.5350  156.1200 C   0  0  0  0  0  2  0  0  0  0  0  0
  160.7850  213.0730  157.2460 O   0  0  0  0  0  1  0  0  0  0  0  0
  160.7490  209.2270  150.7200 C   0  0  0  0  0  1  0  0  0  0  0  0
  161.9210  209.8010  151.3660 N   0  0  0  0  0  0  0  0  0  0  0  0
  162.6810  210.5290  150.3520 C   0  0  0  0  0  2  0  0  0  0  0  0
  161.7600  211.4460  149.5640 C   0  0  0  0  0  2  0  0  0  0  0  0
  162.4750  211.9860  148.3370 C   0  0  0  0  0  2  0  0  0  0  0  0
  161.5430  212.2220  147.3260 O   0  0  0  0  0  1  0  0  0  0  0  0
  158.2870  211.5540  153.2900 C   0  0  0  0  0  2  0  0  0  0  0  0
  157.6140  212.6890  154.0380 C   0  0  0  0  0  2  0  0  0  0  0  0
  156.1960  212.2860  154.3960 C   0  0  0  0  0  1  0  0  0  0  0  0
  160.9690  207.2840  154.0010 C   0  0  0  0  0  2  0  0  0  0  0  0
  161.6880  207.3790  152.8040 O   0  0  0  0  0  0  0  0  0  0  0  0
  161.1620  206.3780  151.9830 C   0  0  1  0  0  3  0  0  0  0  0  0
  163.0160  206.8310  150.5290 O   0  0  0  0  0  0  0  0  0  0  0  0
  161.1340  205.9430  149.4950 N   0  0  0  0  0  1  0  0  0  0  0  0
  161.8350  206.4060  150.6440 C   0  0  0  0  0  0  0  0  0  0  0  0
  161.3440  205.0480  152.6450 C   0  0  0  0  0  3  0  0  0  0  0  0
  160.8290  203.9410  152.1140 C   0  0  0  0  0  2  0  0  0  0  0  0
  1  6  1  0  0  0  0
  2 10  1  0  0  0  0
  3  9  1  0  0  0  0
  3  1  1  1  0  0  0
  4 10  1  0  0  0  0
  5 25  1  6  0  0  0
  5  8  1  0  0  0  0
  5  4  1  0  0  0  0
  6  8  1  0  0  0  0
  6 12  1  1  0  0  0
  8  7  1  1  0  0  0
  9  5  1  0  0  0  0
  9  2  1  1  0  0  0
 11 17  1  6  0  0  0
 11  3  1  0  0  0  0
 11  9  1  0  0  0  0
 12 13  1  6  0  0  0
 14 12  1  0  0  0  0
 14 15  1  0  0  0  0
 16 17  1  0  0  0  0
 18 17  1  0  0  0  0
 19 18  1  0  0  0  0
 20 19  1  0  0  0  0
 21 20  1  0  0  0  0
 22  1  1  0  0  0  0
 22 23  1  0  0  0  0
 23 24  1  0  0  0  0
 26 25  1  0  0  0  0
 27 31  1  1  0  0  0
 27 26  1  0  0  0  0
 28 30  2  0  0  0  0
 29 30  1  0  0  0  0
 30 27  1  0  0  0  0
 32 31  2  0  0  0  0
M  END
>  <MODEL>
4

>  <REMARK>
 VINA RESULT:      -1.7      1.750      2.334
  Name = 
  13 active torsions:
  status: ('A' for Active; 'I' for Inactive)
    1  A    between atoms: C_1  and  C_4
    2  A    between atoms: C_1  and  C_27
    3  A    between atoms: C_2  and  N_5
    4  A    between atoms: C_2  and  C_14
    5  A    between atoms: O_3  and  C_19
    6  A    between atoms: O_3  and  C_22
    7  A    between atoms: C_6  and  C_13
    8  A    between atoms: C_6  and  C_18
    9  A    between atoms: C_12  and  C_22
   10  A    between atoms: C_15  and  C_19
   11  A    between atoms: C_19  and  C_26
   12  A    between atoms: N_24  and  C_27
   13  A    between atoms: N_24  and  C_32
                            x       y       z     vdW  Elec       q    Type
                         _______ _______ _______ _____ _____    ______ ____

>  <TORSDO>
F 13

$$$$
=
 OpenBabel11062408193D

 32 34  0  0  1  0  0  0  0  0999 V2000
  161.1770  207.3880  153.6810 N   0  0  0  0  0  0  0  0  0  0  0  0
  159.2610  209.2020  152.7410 C   0  0  0  0  0  2  0  0  0  0  0  0
  161.4920  207.8090  152.3180 C   0  0  2  0  0  3  0  0  0  0  0  0
  160.5210  211.2870  152.9040 C   0  0  0  0  0  2  0  0  0  0  0  0
  161.5000  210.1620  152.6040 C   0  0  1  0  0  0  0  0  0  0  0  0
  161.6250  208.4340  154.6430 C   0  0  1  0  0  3  0  0  0  0  0  0
  162.7390  210.8230  154.8410 C   0  0  0  0  0  1  0  0  0  0  0  0
  162.2030  209.7170  153.9410 C   0  0  2  0  0  3  0  0  0  0  0  0
  160.5910  209.0510  152.0150 C   0  0  2  0  0  0  0  0  0  0  0  0
  159.1650  210.6550  153.1650 C   0  0  0  0  0  2  0  0  0  0  0  0
  160.4550  207.6930  151.2720 C   0  0  1  0  0  3  0  0  0  0  0  0
  160.4900  208.7530  155.6360 C   0  0  2  0  0  3  0  0  0  0  0  0
  160.9810  209.3960  156.7730 O   0  0  0  0  0  1  0  0  0  0  0  0
  159.7240  207.5020  156.0580 C   0  0  0  0  0  2  0  0  0  0  0  0
  160.2770  206.9580  157.2210 O   0  0  0  0  0  1  0  0  0  0  0  0
  162.4020  207.6630  149.8830 C   0  0  0  0  0  1  0  0  0  0  0  0
  160.9470  207.7250  149.8730 N   0  0  0  0  0  0  0  0  0  0  0  0
  160.4580  206.6640  148.9950 C   0  0  0  0  0  2  0  0  0  0  0  0
  161.6270  205.9290  148.3610 C   0  0  0  0  0  2  0  0  0  0  0  0
  161.2050  204.5330  147.9360 C   0  0  0  0  0  2  0  0  0  0  0  0
  161.0240  203.7390  149.0690 O   0  0  0  0  0  1  0  0  0  0  0  0
  161.9800  206.2040  153.9470 C   0  0  0  0  0  2  0  0  0  0  0  0
  162.2310  205.4510  152.6540 C   0  0  0  0  0  2  0  0  0  0  0  0
  161.1950  204.3540  152.5010 C   0  0  0  0  0  1  0  0  0  0  0  0
  162.5200  210.6860  151.5910 C   0  0  0  0  0  2  0  0  0  0  0  0
  162.0280  210.5900  150.2840 O   0  0  0  0  0  0  0  0  0  0  0  0
  161.9910  211.9040  149.8110 C   0  0  1  0  0  3  0  0  0  0  0  0
  161.4730  211.4580  147.5110 O   0  0  0  0  0  0  0  0  0  0  0  0
  163.5150  212.5000  147.8880 N   0  0  0  0  0  1  0  0  0  0  0  0
  162.2930  211.9300  148.3440 C   0  0  0  0  0  0  0  0  0  0  0  0
  160.6430  212.4930  150.0900 C   0  0  0  0  0  3  0  0  0  0  0  0
  160.4560  213.8110  150.0850 C   0  0  0  0  0  2  0  0  0  0  0  0
  1 22  1  0  0  0  0
  1  6  1  0  0  0  0
  2 10  1  0  0  0  0
  3  1  1  1  0  0  0
  4 10  1  0  0  0  0
  5 25  1  6  0  0  0
  5  4  1  0  0  0  0
  5  8  1  0  0  0  0
  6 12  1  6  0  0  0
  8  6  1  0  0  0  0
  8  7  1  1  0  0  0
  9  3  1  0  0  0  0
  9  5  1  0  0  0  0
  9  2  1  1  0  0  0
 11 17  1  6  0  0  0
 11  9  1  0  0  0  0
 11  3  1  0  0  0  0
 12 14  1  0  0  0  0
 12 13  1  1  0  0  0
 14 15  1  0  0  0  0
 17 16  1  0  0  0  0
 18 17  1  0  0  0  0
 19 18  1  0  0  0  0
 20 19  1  0  0  0  0
 20 21  1  0  0  0  0
 23 22  1  0  0  0  0
 24 23  1  0  0  0  0
 26 25  1  0  0  0  0
 27 31  1  6  0  0  0
 27 26  1  0  0  0  0
 28 30  2  0  0  0  0
 29 30  1  0  0  0  0
 30 27  1  0  0  0  0
 32 31  2  0  0  0  0
M  END
>  <MODEL>
5

>  <REMARK>
 VINA RESULT:      -1.6      2.185      5.526
  Name = 
  13 active torsions:
  status: ('A' for Active; 'I' for Inactive)
    1  A    between atoms: C_1  and  C_4
    2  A    between atoms: C_1  and  C_27
    3  A    between atoms: C_2  and  N_5
    4  A    between atoms: C_2  and  C_14
    5  A    between atoms: O_3  and  C_19
    6  A    between atoms: O_3  and  C_22
    7  A    between atoms: C_6  and  C_13
    8  A    between atoms: C_6  and  C_18
    9  A    between atoms: C_12  and  C_22
   10  A    between atoms: C_15  and  C_19
   11  A    between atoms: C_19  and  C_26
   12  A    between atoms: N_24  and  C_27
   13  A    between atoms: N_24  and  C_32
                            x       y       z     vdW  Elec       q    Type
                         _______ _______ _______ _____ _____    ______ ____

>  <TORSDO>
F 13

$$$$
=
 OpenBabel11062408193D

 32 34  0  0  1  0  0  0  0  0999 V2000
  160.9270  208.5370  152.3150 N   0  0  0  0  0  0  0  0  0  0  0  0
  163.2590  207.1360  151.6470 C   0  0  0  0  0  2  0  0  0  0  0  0
  160.8550  208.0450  150.9410 C   0  0  2  0  0  3  0  0  0  0  0  0
  162.4290  204.8420  151.7440 C   0  0  0  0  0  2  0  0  0  0  0  0
  161.2850  205.7420  151.3040 C   0  0  1  0  0  0  0  0  0  0  0  0
  160.5920  207.4330  153.2580 C   0  0  1  0  0  3  0  0  0  0  0  0
  159.9620  204.8700  153.4170 C   0  0  0  0  0  1  0  0  0  0  0  0
  160.3630  206.0520  152.5420 C   0  0  2  0  0  3  0  0  0  0  0  0
  162.0140  207.0070  150.7780 C   0  0  2  0  0  0  0  0  0  0  0  0
  163.5940  205.7380  152.1260 C   0  0  0  0  0  2  0  0  0  0  0  0
  161.9580  208.3560  150.0080 C   0  0  1  0  0  3  0  0  0  0  0  0
  161.6500  207.3600  154.3770 C   0  0  2  0  0  3  0  0  0  0  0  0
  161.5910  206.1390  155.0500 O   0  0  0  0  0  1  0  0  0  0  0  0
  161.5020  208.4970  155.3850 C   0  0  0  0  0  2  0  0  0  0  0  0
  161.8820  208.0730  156.6610 O   0  0  0  0  0  1  0  0  0  0  0  0
  161.9530  209.4580  147.8860 C   0  0  0  0  0  1  0  0  0  0  0  0
  161.6410  208.2090  148.5670 N   0  0  0  0  0  0  0  0  0  0  0  0
  162.3320  207.1300  147.8640 C   0  0  0  0  0  2  0  0  0  0  0  0
  161.3770  206.4310  146.9100 C   0  0  0  0  0  2  0  0  0  0  0  0
  162.1420  205.8280  145.7440 C   0  0  0  0  0  2  0  0  0  0  0  0
  163.2170  205.0840  146.2310 O   0  0  0  0  0  1  0  0  0  0  0  0
  159.8790  209.5380  152.4550 C   0  0  0  0  0  2  0  0  0  0  0  0
  160.4990  210.8980  152.7130 C   0  0  0  0  0  2  0  0  0  0  0  0
  159.4520  211.9760  152.5100 C   0  0  0  0  0  1  0  0  0  0  0  0
  160.5090  205.0120  150.2060 C   0  0  0  0  0  2  0  0  0  0  0  0
  161.3150  204.0660  149.5610 O   0  0  0  0  0  0  0  0  0  0  0  0
  160.4650  202.9930  149.2840 C   0  0  1  0  0  3  0  0  0  0  0  0
  161.2060  202.8200  147.0080 O   0  0  0  0  0  0  0  0  0  0  0  0
  161.1990  200.8300  148.2060 N   0  0  0  0  0  1  0  0  0  0  0  0
  160.9730  202.2310  148.0970 C   0  0  0  0  0  0  0  0  0  0  0  0
  160.3740  202.1080  150.4880 C   0  0  0  0  0  3  0  0  0  0  0  0
  161.4000  201.9860  151.3280 C   0  0  0  0  0  2  0  0  0  0  0  0
  1 22  1  0  0  0  0
  1  6  1  0  0  0  0
  2 10  1  0  0  0  0
  3  1  1  1  0  0  0
  4 10  1  0  0  0  0
  5 25  1  6  0  0  0
  5  4  1  0  0  0  0
  5  8  1  0  0  0  0
  6 12  1  1  0  0  0
  8  6  1  0  0  0  0
  8  7  1  1  0  0  0
  9  3  1  0  0  0  0
  9  5  1  0  0  0  0
  9  2  1  1  0  0  0
 11 17  1  6  0  0  0
 11  9  1  0  0  0  0
 11  3  1  0  0  0  0
 12 13  1  1  0  0  0
 12 14  1  0  0  0  0
 14 15  1  0  0  0  0
 16 17  1  0  0  0  0
 18 17  1  0  0  0  0
 19 18  1  0  0  0  0
 20 21  1  0  0  0  0
 20 19  1  0  0  0  0
 22 23  1  0  0  0  0
 24 23  1  0  0  0  0
 26 25  1  0  0  0  0
 27 26  1  0  0  0  0
 27 31  1  1  0  0  0
 28 30  2  0  0  0  0
 30 29  1  0  0  0  0
 30 27  1  0  0  0  0
 31 32  2  0  0  0  0
M  END
>  <MODEL>
6

>  <REMARK>
 VINA RESULT:      -1.3      3.025      4.929
  Name = 
  13 active torsions:
  status: ('A' for Active; 'I' for Inactive)
    1  A    between atoms: C_1  and  C_4
    2  A    between atoms: C_1  and  C_27
    3  A    between atoms: C_2  and  N_5
    4  A    between atoms: C_2  and  C_14
    5  A    between atoms: O_3  and  C_19
    6  A    between atoms: O_3  and  C_22
    7  A    between atoms: C_6  and  C_13
    8  A    between atoms: C_6  and  C_18
    9  A    between atoms: C_12  and  C_22
   10  A    between atoms: C_15  and  C_19
   11  A    between atoms: C_19  and  C_26
   12  A    between atoms: N_24  and  C_27
   13  A    between atoms: N_24  and  C_32
                            x       y       z     vdW  Elec       q    Type
                         _______ _______ _______ _____ _____    ______ ____

>  <TORSDO>
F 13

$$$$
=
 OpenBabel11062408193D

 32 34  0  0  1  0  0  0  0  0999 V2000
  161.0570  208.3550  152.2870 N   0  0  0  0  0  0  0  0  0  0  0  0
  163.3870  206.9310  151.6650 C   0  0  0  0  0  2  0  0  0  0  0  0
  161.1450  208.1170  150.8480 C   0  0  2  0  0  3  0  0  0  0  0  0
  162.4430  204.7200  151.2400 C   0  0  0  0  0  2  0  0  0  0  0  0
  161.4110  205.7620  150.8350 C   0  0  1  0  0  0  0  0  0  0  0  0
  160.5470  207.1300  152.9650 C   0  0  1  0  0  3  0  0  0  0  0  0
  159.7790  204.6310  152.5760 C   0  0  0  0  0  1  0  0  0  0  0  0
  160.3500  205.9150  151.9870 C   0  0  2  0  0  3  0  0  0  0  0  0
  162.2640  207.0440  150.6420 C   0  0  2  0  0  0  0  0  0  0  0  0
  163.5880  205.4500  151.9190 C   0  0  0  0  0  2  0  0  0  0  0  0
  162.3760  208.5070  150.1290 C   0  0  1  0  0  3  0  0  0  0  0  0
  161.4420  206.7890  154.1730 C   0  0  2  0  0  3  0  0  0  0  0  0
  161.2740  205.4610  154.5670 O   0  0  0  0  0  1  0  0  0  0  0  0
  161.1760  207.7040  155.3660 C   0  0  0  0  0  2  0  0  0  0  0  0
  159.8240  207.6680  155.7180 O   0  0  0  0  0  1  0  0  0  0  0  0
  161.2450  207.6910  148.1870 C   0  0  0  0  0  1  0  0  0  0  0  0
  162.2470  208.6370  148.6580 N   0  0  0  0  0  0  0  0  0  0  0  0
  161.8840  209.9610  148.1590 C   0  0  0  0  0  2  0  0  0  0  0  0
  162.3310  211.0320  149.1410 C   0  0  0  0  0  2  0  0  0  0  0  0
  161.9420  212.4100  148.6340 C   0  0  0  0  0  2  0  0  0  0  0  0
  163.0430  213.0040  148.0170 O   0  0  0  0  0  1  0  0  0  0  0  0
  160.0490  209.3880  152.4770 C   0  0  0  0  0  2  0  0  0  0  0  0
  160.7110  210.7540  152.4970 C   0  0  0  0  0  2  0  0  0  0  0  0
  160.1750  211.5550  153.6680 C   0  0  0  0  0  1  0  0  0  0  0  0
  160.7550  205.2920  149.5360 C   0  0  0  0  0  2  0  0  0  0  0  0
  161.6740  204.6270  148.7160 O   0  0  0  0  0  0  0  0  0  0  0  0
  160.9250  203.6670  148.0320 C   0  0  1  0  0  3  0  0  0  0  0  0
  161.2070  202.5580  145.9230 O   0  0  0  0  0  0  0  0  0  0  0  0
  161.9050  204.7730  145.9850 N   0  0  0  0  0  1  0  0  0  0  0  0
  161.3470  203.6150  146.5950 C   0  0  0  0  0  0  0  0  0  0  0  0
  161.1040  202.3350  148.6910 C   0  0  0  0  0  3  0  0  0  0  0  0
  160.0820  201.7160  149.2780 C   0  0  0  0  0  2  0  0  0  0  0  0
  1 22  1  0  0  0  0
  1  6  1  0  0  0  0
  2 10  1  0  0  0  0
  3  1  1  1  0  0  0
  4 10  1  0  0  0  0
  5 25  1  6  0  0  0
  5  4  1  0  0  0  0
  5  8  1  0  0  0  0
  6 12  1  1  0  0  0
  8  7  1  1  0  0  0
  8  6  1  0  0  0  0
  9  5  1  0  0  0  0
  9  3  1  0  0  0  0
  9  2  1  1  0  0  0
 11 17  1  6  0  0  0
 11  9  1  0  0  0  0
 11  3  1  0  0  0  0
 12 13  1  1  0  0  0
 12 14  1  0  0  0  0
 14 15  1  0  0  0  0
 16 17  1  0  0  0  0
 18 17  1  0  0  0  0
 18 19  1  0  0  0  0
 20 19  1  0  0  0  0
 21 20  1  0  0  0  0
 22 23  1  0  0  0  0
 23 24  1  0  0  0  0
 26 25  1  0  0  0  0
 27 31  1  1  0  0  0
 27 26  1  0  0  0  0
 28 30  2  0  0  0  0
 29 30  1  0  0  0  0
 30 27  1  0  0  0  0
 31 32  2  0  0  0  0
M  END
>  <MODEL>
7

>  <REMARK>
 VINA RESULT:      -1.3      2.630      4.342
  Name = 
  13 active torsions:
  status: ('A' for Active; 'I' for Inactive)
    1  A    between atoms: C_1  and  C_4
    2  A    between atoms: C_1  and  C_27
    3  A    between atoms: C_2  and  N_5
    4  A    between atoms: C_2  and  C_14
    5  A    between atoms: O_3  and  C_19
    6  A    between atoms: O_3  and  C_22
    7  A    between atoms: C_6  and  C_13
    8  A    between atoms: C_6  and  C_18
    9  A    between atoms: C_12  and  C_22
   10  A    between atoms: C_15  and  C_19
   11  A    between atoms: C_19  and  C_26
   12  A    between atoms: N_24  and  C_27
   13  A    between atoms: N_24  and  C_32
                            x       y       z     vdW  Elec       q    Type
                         _______ _______ _______ _____ _____    ______ ____

>  <TORSDO>
F 13

$$$$
=
 OpenBabel11062408193D

 32 34  0  0  1  0  0  0  0  0999 V2000
  159.8090  210.7530  153.7350 N   0  0  0  0  0  0  0  0  0  0  0  0
  162.3920  211.0640  152.6980 C   0  0  0  0  0  2  0  0  0  0  0  0
  159.7660  210.8970  152.2810 C   0  0  2  0  0  3  0  0  0  0  0  0
  162.7460  208.8450  151.7420 C   0  0  0  0  0  2  0  0  0  0  0  0
  161.2620  209.1710  151.6510 C   0  0  1  0  0  0  0  0  0  0  0  0
  160.1710  209.3510  154.0860 C   0  0  1  0  0  3  0  0  0  0  0  0
  160.8320  206.9950  153.0850 C   0  0  0  0  0  1  0  0  0  0  0  0
  160.5020  208.4620  152.8330 C   0  0  2  0  0  3  0  0  0  0  0  0
  161.2330  210.7170  151.7720 C   0  0  2  0  0  0  0  0  0  0  0  0
  163.4060  209.9460  152.5530 C   0  0  0  0  0  2  0  0  0  0  0  0
  160.4430  212.0500  151.6530 C   0  0  1  0  0  3  0  0  0  0  0  0
  161.2980  209.3490  155.1380 C   0  0  2  0  0  3  0  0  0  0  0  0
  161.1270  208.3150  156.0600 O   0  0  0  0  0  1  0  0  0  0  0  0
  161.3920  210.6770  155.8860 C   0  0  0  0  0  2  0  0  0  0  0  0
  161.5100  210.4590  157.2600 O   0  0  0  0  0  1  0  0  0  0  0  0
  159.4040  213.6920  150.2600 C   0  0  0  0  0  1  0  0  0  0  0  0
  160.0150  212.3710  150.2700 N   0  0  0  0  0  0  0  0  0  0  0  0
  161.0650  212.3540  149.2530 C   0  0  0  0  0  2  0  0  0  0  0  0
  160.5020  212.7950  147.9120 C   0  0  0  0  0  2  0  0  0  0  0  0
  161.5570  213.5450  147.1170 C   0  0  0  0  0  2  0  0  0  0  0  0
  161.3050  213.3920  145.7540 O   0  0  0  0  0  1  0  0  0  0  0  0
  158.4520  210.9670  154.2150 C   0  0  0  0  0  2  0  0  0  0  0  0
  158.1540  212.4530  154.2710 C   0  0  0  0  0  2  0  0  0  0  0  0
  157.0340  212.7060  155.2620 C   0  0  0  0  0  1  0  0  0  0  0  0
  160.7570  208.6780  150.2940 C   0  0  0  0  0  2  0  0  0  0  0  0
  161.7020  207.8550  149.6700 O   0  0  0  0  0  0  0  0  0  0  0  0
  160.9560  206.8510  149.0470 C   0  0  1  0  0  3  0  0  0  0  0  0
  162.7070  206.5920  147.4280 O   0  0  0  0  0  0  0  0  0  0  0  0
  160.5460  206.4190  146.5930 N   0  0  0  0  0  1  0  0  0  0  0  0
  161.4680  206.6180  147.6590 C   0  0  0  0  0  0  0  0  0  0  0  0
  161.0330  205.5980  149.8630 C   0  0  0  0  0  3  0  0  0  0  0  0
  161.1140  204.4040  149.2790 C   0  0  0  0  0  2  0  0  0  0  0  0
  1  6  1  0  0  0  0
  1 22  1  0  0  0  0
  3  1  1  1  0  0  0
  4 10  1  0  0  0  0
  5 25  1  6  0  0  0
  5  4  1  0  0  0  0
  5  9  1  0  0  0  0
  5  8  1  0  0  0  0
  6 12  1  1  0  0  0
  8  7  1  1  0  0  0
  8  6  1  0  0  0  0
  9  3  1  0  0  0  0
  9  2  1  1  0  0  0
 10  2  1  0  0  0  0
 11 17  1  6  0  0  0
 11  9  1  0  0  0  0
 11  3  1  0  0  0  0
 12 14  1  0  0  0  0
 12 13  1  1  0  0  0
 14 15  1  0  0  0  0
 16 17  1  0  0  0  0
 18 17  1  0  0  0  0
 19 18  1  0  0  0  0
 20 19  1  0  0  0  0
 21 20  1  0  0  0  0
 22 23  1  0  0  0  0
 23 24  1  0  0  0  0
 26 25  1  0  0  0  0
 27 26  1  0  0  0  0
 27 31  1  1  0  0  0
 28 30  2  0  0  0  0
 29 30  1  0  0  0  0
 30 27  1  0  0  0  0
 32 31  2  0  0  0  0
M  END
>  <MODEL>
8

>  <REMARK>
 VINA RESULT:      -1.1      1.449      1.594
  Name = 
  13 active torsions:
  status: ('A' for Active; 'I' for Inactive)
    1  A    between atoms: C_1  and  C_4
    2  A    between atoms: C_1  and  C_27
    3  A    between atoms: C_2  and  N_5
    4  A    between atoms: C_2  and  C_14
    5  A    between atoms: O_3  and  C_19
    6  A    between atoms: O_3  and  C_22
    7  A    between atoms: C_6  and  C_13
    8  A    between atoms: C_6  and  C_18
    9  A    between atoms: C_12  and  C_22
   10  A    between atoms: C_15  and  C_19
   11  A    between atoms: C_19  and  C_26
   12  A    between atoms: N_24  and  C_27
   13  A    between atoms: N_24  and  C_32
                            x       y       z     vdW  Elec       q    Type
                         _______ _______ _______ _____ _____    ______ ____

>  <TORSDO>
F 13

$$$$
=
 OpenBabel11062408193D

 32 34  0  0  1  0  0  0  0  0999 V2000
  161.0070  208.5300  152.4540 N   0  0  0  0  0  0  0  0  0  0  0  0
  163.3770  207.3230  151.5770 C   0  0  0  0  0  2  0  0  0  0  0  0
  161.1540  208.6770  151.0080 C   0  0  2  0  0  3  0  0  0  0  0  0
  162.4800  205.2980  150.5520 C   0  0  0  0  0  2  0  0  0  0  0  0
  161.4510  206.4070  150.3910 C   0  0  1  0  0  0  0  0  0  0  0  0
  160.4870  207.1690  152.7670 C   0  0  1  0  0  3  0  0  0  0  0  0
  159.7670  204.8560  151.7070 C   0  0  0  0  0  1  0  0  0  0  0  0
  160.3440  206.2510  151.4980 C   0  0  2  0  0  3  0  0  0  0  0  0
  162.2940  207.6970  150.5740 C   0  0  2  0  0  0  0  0  0  0  0  0
  163.5880  205.8280  151.4440 C   0  0  0  0  0  2  0  0  0  0  0  0
  162.4070  209.2440  150.4670 C   0  0  1  0  0  3  0  0  0  0  0  0
  161.3390  206.5260  153.8790 C   0  0  2  0  0  3  0  0  0  0  0  0
  161.2080  205.1360  153.8760 O   0  0  0  0  0  1  0  0  0  0  0  0
  160.9790  207.0600  155.2640 C   0  0  0  0  0  2  0  0  0  0  0  0
  159.5930  207.1590  155.4060 O   0  0  0  0  0  1  0  0  0  0  0  0
  161.5780  208.8080  148.2670 C   0  0  0  0  0  1  0  0  0  0  0  0
  162.3330  209.7540  149.0760 N   0  0  0  0  0  0  0  0  0  0  0  0
  161.7280  211.0730  148.9070 C   0  0  0  0  0  2  0  0  0  0  0  0
  162.6770  211.9920  148.1560 C   0  0  0  0  0  2  0  0  0  0  0  0
  161.9160  212.8110  147.1270 C   0  0  0  0  0  2  0  0  0  0  0  0
  160.6110  212.3300  147.0260 O   0  0  0  0  0  1  0  0  0  0  0  0
  159.9790  209.4740  152.8660 C   0  0  0  0  0  2  0  0  0  0  0  0
  160.6270  210.7440  153.3870 C   0  0  0  0  0  2  0  0  0  0  0  0
  161.8740  210.3870  154.1730 C   0  0  0  0  0  1  0  0  0  0  0  0
  160.8520  206.2910  148.9880 C   0  0  0  0  0  2  0  0  0  0  0  0
  161.7800  205.7630  148.0840 O   0  0  0  0  0  0  0  0  0  0  0  0
  161.0540  204.8600  147.3020 C   0  0  1  0  0  3  0  0  0  0  0  0
  160.4580  206.2000  145.4030 O   0  0  0  0  0  0  0  0  0  0  0  0
  162.0200  204.5300  144.9920 N   0  0  0  0  0  1  0  0  0  0  0  0
  161.1450  205.2460  145.8570 C   0  0  0  0  0  0  0  0  0  0  0  0
  161.5820  203.4770  147.5210 C   0  0  0  0  0  3  0  0  0  0  0  0
  160.9830  202.6400  148.3650 C   0  0  0  0  0  2  0  0  0  0  0  0
  1  6  1  0  0  0  0
  1 22  1  0  0  0  0
  3  1  1  1  0  0  0
  4 10  1  0  0  0  0
  5 25  1  6  0  0  0
  5  4  1  0  0  0  0
  5  9  1  0  0  0  0
  5  8  1  0  0  0  0
  6 12  1  1  0  0  0
  8  7  1  1  0  0  0
  8  6  1  0  0  0  0
  9  3  1  0  0  0  0
  9  2  1  1  0  0  0
 10  2  1  0  0  0  0
 11 17  1  6  0  0  0
 11  9  1  0  0  0  0
 11  3  1  0  0  0  0
 12 13  1  1  0  0  0
 12 14  1  0  0  0  0
 14 15  1  0  0  0  0
 16 17  1  0  0  0  0
 18 17  1  0  0  0  0
 19 18  1  0  0  0  0
 20 19  1  0  0  0  0
 21 20  1  0  0  0  0
 22 23  1  0  0  0  0
 23 24  1  0  0  0  0
 26 25  1  0  0  0  0
 27 31  1  6  0  0  0
 27 26  1  0  0  0  0
 28 30  2  0  0  0  0
 29 30  1  0  0  0  0
 30 27  1  0  0  0  0
 31 32  2  0  0  0  0
M  END
>  <MODEL>
9

>  <REMARK>
 VINA RESULT:      -1.0      2.750      4.160
  Name = 
  13 active torsions:
  status: ('A' for Active; 'I' for Inactive)
    1  A    between atoms: C_1  and  C_4
    2  A    between atoms: C_1  and  C_27
    3  A    between atoms: C_2  and  N_5
    4  A    between atoms: C_2  and  C_14
    5  A    between atoms: O_3  and  C_19
    6  A    between atoms: O_3  and  C_22
    7  A    between atoms: C_6  and  C_13
    8  A    between atoms: C_6  and  C_18
    9  A    between atoms: C_12  and  C_22
   10  A    between atoms: C_15  and  C_19
   11  A    between atoms: C_19  and  C_26
   12  A    between atoms: N_24  and  C_27
   13  A    between atoms: N_24  and  C_32
                            x       y       z     vdW  Elec       q    Type
                         _______ _______ _______ _____ _____    ______ ____

>  <TORSDO>
F 13

$$$$
