=
 OpenBabel11052422133D

 25 28  0  0  0  0  0  0  0  0999 V2000
  161.2940  205.1530  149.3340 C   0  0  0  0  0  0  0  0  0  0  0  0
  161.3710  206.1330  150.3280 C   0  0  0  0  0  0  0  0  0  0  0  0
  161.6270  206.7710  147.5630 C   0  0  0  0  0  3  0  0  0  0  0  0
  161.1010  203.7910  149.3740 C   0  0  0  0  0  0  0  0  0  0  0  0
  160.7640  201.1120  148.7660 C   0  0  0  0  0  3  0  0  0  0  0  0
  161.7080  207.7820  148.5390 C   0  0  0  0  0  3  0  0  0  0  0  0
  161.1220  203.3720  148.0590 C   0  0  0  0  0  0  0  0  0  0  0  0
  160.9560  202.0320  147.7190 C   0  0  0  0  0  3  0  0  0  0  0  0
  161.6590  208.4770  150.8970 C   0  0  0  0  0  0  0  0  0  0  0  0
  161.8420  209.6810  150.5760 O   0  0  0  0  0  0  0  0  0  0  0  0
  161.2460  205.8330  151.6850 C   0  0  0  0  0  2  0  0  0  0  0  0
  160.7430  201.5440  150.1110 C   0  0  0  0  0  3  0  0  0  0  0  0
  161.4190  205.4640  147.9940 C   0  0  0  0  0  0  0  0  0  0  0  0
  161.3140  204.3860  147.2410 O   0  0  0  0  0  0  0  0  0  0  0  0
  161.5320  208.1460  152.2120 N   0  0  0  0  0  0  0  0  0  0  0  0
  160.9130  202.9030  150.4310 C   0  0  0  0  0  3  0  0  0  0  0  0
  161.3380  206.8630  152.6220 C   0  0  0  0  0  0  0  0  0  0  0  0
  161.5820  207.4750  149.9150 C   0  0  0  0  0  0  0  0  0  0  0  0
  161.1810  206.5630  154.0690 C   0  0  0  0  0  2  0  0  0  0  0  0
  160.4120  207.6170  154.7070 N   0  0  0  0  0  2  0  0  0  0  0  0
  161.2320  208.1420  155.7850 C   0  0  0  0  0  2  0  0  0  0  0  0
  160.8600  209.5880  156.0670 C   0  0  0  0  0  2  0  0  0  0  0  0
  161.6010  210.5200  155.1620 C   0  0  0  0  0  0  0  0  0  0  0  0
  160.8860  211.1850  154.0370 C   0  0  0  0  0  1  0  0  0  0  0  0
  162.7830  210.7530  155.3520 O   0  0  0  0  0  0  0  0  0  0  0  0
  1  4  1  0  0  0  0
  1  2  2  0  0  0  0
  2 11  1  0  0  0  0
  3 13  2  0  0  0  0
  3  6  1  0  0  0  0
  4 16  1  0  0  0  0
  5 12  1  0  0  0  0
  6 18  2  0  0  0  0
  7  4  2  0  0  0  0
  8  7  1  0  0  0  0
  8  5  2  0  0  0  0
  9 15  1  0  0  0  0
 10  9  2  0  0  0  0
 11 17  1  0  0  0  0
 12 16  2  0  0  0  0
 13  1  1  0  0  0  0
 14 13  1  0  0  0  0
 14  7  1  0  0  0  0
 15 17  2  0  0  0  0
 17 19  1  0  0  0  0
 18  2  1  0  0  0  0
 18  9  1  0  0  0  0
 19 20  1  0  0  0  0
 20 21  1  0  0  0  0
 21 22  1  0  0  0  0
 23 25  2  0  0  0  0
 23 22  1  0  0  0  0
 24 23  1  0  0  0  0
M  END
>  <MODEL>
1

>  <REMARK>
 VINA RESULT:      -9.4      0.000      0.000
  Name = 
  5 active torsions:
  status: ('A' for Active; 'I' for Inactive)
    1  A    between atoms: C_2  and  C_25
    2  A    between atoms: C_6  and  N_15
    3  A    between atoms: C_6  and  C_23
    4  A    between atoms: N_15  and  C_21
    5  A    between atoms: C_21  and  C_25
                            x       y       z     vdW  Elec       q    Type
                         _______ _______ _______ _____ _____    ______ ____

>  <TORSDO>
F 5

$$$$
=
 OpenBabel11052422133D

 25 28  0  0  0  0  0  0  0  0999 V2000
  161.1470  204.4470  149.7860 C   0  0  0  0  0  0  0  0  0  0  0  0
  161.3240  205.7740  150.1870 C   0  0  0  0  0  0  0  0  0  0  0  0
  160.8110  203.6930  152.0630 C   0  0  0  0  0  3  0  0  0  0  0  0
  161.1620  203.8280  148.5560 C   0  0  0  0  0  0  0  0  0  0  0  0
  161.0650  202.0200  146.4640 C   0  0  0  0  0  3  0  0  0  0  0  0
  160.9860  205.0190  152.4990 C   0  0  0  0  0  3  0  0  0  0  0  0
  160.9220  202.4920  148.8080 C   0  0  0  0  0  0  0  0  0  0  0  0
  160.8670  201.5570  147.7770 C   0  0  0  0  0  3  0  0  0  0  0  0
  161.4200  207.3870  152.0000 C   0  0  0  0  0  0  0  0  0  0  0  0
  161.3580  207.6870  153.2220 O   0  0  0  0  0  0  0  0  0  0  0  0
  161.5760  206.8020  149.2770 C   0  0  0  0  0  2  0  0  0  0  0  0
  161.3110  203.3880  146.2100 C   0  0  0  0  0  3  0  0  0  0  0  0
  160.8980  203.4390  150.6970 C   0  0  0  0  0  0  0  0  0  0  0  0
  160.7650  202.2720  150.0960 O   0  0  0  0  0  0  0  0  0  0  0  0
  161.6650  208.3640  151.0840 N   0  0  0  0  0  0  0  0  0  0  0  0
  161.3620  204.3150  147.2670 C   0  0  0  0  0  3  0  0  0  0  0  0
  161.7380  208.1050  149.7500 C   0  0  0  0  0  0  0  0  0  0  0  0
  161.2410  206.0600  151.5750 C   0  0  0  0  0  0  0  0  0  0  0  0
  162.0340  209.2060  148.7960 C   0  0  0  0  0  2  0  0  0  0  0  0
  162.0310  210.4770  149.4980 N   0  0  0  0  0  2  0  0  0  0  0  0
  162.3050  211.5040  148.5090 C   0  0  0  0  0  2  0  0  0  0  0  0
  161.3920  212.6990  148.7310 C   0  0  0  0  0  2  0  0  0  0  0  0
  160.3060  212.7440  147.7040 C   0  0  0  0  0  0  0  0  0  0  0  0
  159.0910  213.5700  147.9470 C   0  0  0  0  0  1  0  0  0  0  0  0
  160.4200  212.1240  146.6600 O   0  0  0  0  0  0  0  0  0  0  0  0
  1  2  2  0  0  0  0
  1 13  1  0  0  0  0
  2 18  1  0  0  0  0
  3  6  1  0  0  0  0
  4  7  1  0  0  0  0
  4  1  1  0  0  0  0
  5  8  1  0  0  0  0
  7 14  1  0  0  0  0
  8  7  2  0  0  0  0
  9 10  2  0  0  0  0
 11 17  1  0  0  0  0
 11  2  1  0  0  0  0
 12  5  2  0  0  0  0
 12 16  1  0  0  0  0
 13  3  2  0  0  0  0
 14 13  1  0  0  0  0
 15  9  1  0  0  0  0
 16  4  2  0  0  0  0
 17 15  2  0  0  0  0
 18  9  1  0  0  0  0
 18  6  2  0  0  0  0
 19 20  1  0  0  0  0
 19 17  1  0  0  0  0
 21 22  1  0  0  0  0
 21 20  1  0  0  0  0
 23 24  1  0  0  0  0
 23 22  1  0  0  0  0
 25 23  2  0  0  0  0
M  END
>  <MODEL>
2

>  <REMARK>
 VINA RESULT:      -9.3      2.723      4.690
  Name = 
  5 active torsions:
  status: ('A' for Active; 'I' for Inactive)
    1  A    between atoms: C_2  and  C_25
    2  A    between atoms: C_6  and  N_15
    3  A    between atoms: C_6  and  C_23
    4  A    between atoms: N_15  and  C_21
    5  A    between atoms: C_21  and  C_25
                            x       y       z     vdW  Elec       q    Type
                         _______ _______ _______ _____ _____    ______ ____

>  <TORSDO>
F 5

$$$$
=
 OpenBabel11052422133D

 25 28  0  0  0  0  0  0  0  0999 V2000
  161.2400  204.2980  149.3340 C   0  0  0  0  0  0  0  0  0  0  0  0
  161.3520  205.2990  150.3030 C   0  0  0  0  0  0  0  0  0  0  0  0
  160.8640  202.5800  151.0000 C   0  0  0  0  0  3  0  0  0  0  0  0
  161.3190  204.3100  147.9600 C   0  0  0  0  0  0  0  0  0  0  0  0
  161.3600  203.6570  145.2710 C   0  0  0  0  0  3  0  0  0  0  0  0
  160.9720  203.5640  151.9990 C   0  0  0  0  0  3  0  0  0  0  0  0
  161.1240  203.0030  147.5630 C   0  0  0  0  0  0  0  0  0  0  0  0
  161.1390  202.6410  146.2190 C   0  0  0  0  0  3  0  0  0  0  0  0
  161.3280  205.9080  152.6550 C   0  0  0  0  0  0  0  0  0  0  0  0
  161.2150  205.6140  153.8750 O   0  0  0  0  0  0  0  0  0  0  0  0
  161.5920  206.6340  149.9750 C   0  0  0  0  0  2  0  0  0  0  0  0
  161.5580  204.9940  145.6810 C   0  0  0  0  0  3  0  0  0  0  0  0
  161.0030  202.9800  149.6730 C   0  0  0  0  0  0  0  0  0  0  0  0
  160.9360  202.2150  148.6020 O   0  0  0  0  0  0  0  0  0  0  0  0
  161.5620  207.2000  152.2960 N   0  0  0  0  0  0  0  0  0  0  0  0
  161.5400  205.3370  147.0450 C   0  0  0  0  0  3  0  0  0  0  0  0
  161.6880  207.5810  150.9960 C   0  0  0  0  0  0  0  0  0  0  0  0
  161.2150  204.9180  151.6640 C   0  0  0  0  0  0  0  0  0  0  0  0
  161.9700  209.0020  150.6630 C   0  0  0  0  0  2  0  0  0  0  0  0
  162.1480  209.7650  151.8860 N   0  0  0  0  0  2  0  0  0  0  0  0
  161.1250  210.7960  151.8900 C   0  0  0  0  0  2  0  0  0  0  0  0
  160.0110  210.4210  152.8530 C   0  0  0  0  0  2  0  0  0  0  0  0
  160.5050  210.3960  154.2640 C   0  0  0  0  0  0  0  0  0  0  0  0
  160.3960  209.1440  155.0640 C   0  0  0  0  0  1  0  0  0  0  0  0
  161.0160  211.3880  154.7550 O   0  0  0  0  0  0  0  0  0  0  0  0
  1 13  1  0  0  0  0
  1  2  2  0  0  0  0
  2 18  1  0  0  0  0
  3  6  1  0  0  0  0
  4  1  1  0  0  0  0
  5 12  2  0  0  0  0
  5  8  1  0  0  0  0
  7  4  1  0  0  0  0
  7 14  1  0  0  0  0
  8  7  2  0  0  0  0
  9 10  2  0  0  0  0
 11  2  1  0  0  0  0
 11 17  1  0  0  0  0
 12 16  1  0  0  0  0
 13  3  2  0  0  0  0
 14 13  1  0  0  0  0
 15  9  1  0  0  0  0
 16  4  2  0  0  0  0
 17 15  2  0  0  0  0
 18  6  2  0  0  0  0
 18  9  1  0  0  0  0
 19 17  1  0  0  0  0
 19 20  1  0  0  0  0
 20 21  1  0  0  0  0
 21 22  1  0  0  0  0
 22 23  1  0  0  0  0
 23 25  2  0  0  0  0
 23 24  1  0  0  0  0
M  END
>  <MODEL>
3

>  <REMARK>
 VINA RESULT:      -9.3      1.777      3.384
  Name = 
  5 active torsions:
  status: ('A' for Active; 'I' for Inactive)
    1  A    between atoms: C_2  and  C_25
    2  A    between atoms: C_6  and  N_15
    3  A    between atoms: C_6  and  C_23
    4  A    between atoms: N_15  and  C_21
    5  A    between atoms: C_21  and  C_25
                            x       y       z     vdW  Elec       q    Type
                         _______ _______ _______ _____ _____    ______ ____

>  <TORSDO>
F 5

$$$$
=
 OpenBabel11052422133D

 25 28  0  0  0  0  0  0  0  0999 V2000
  161.3820  205.0820  149.2170 C   0  0  0  0  0  0  0  0  0  0  0  0
  161.4250  206.0860  150.1890 C   0  0  0  0  0  0  0  0  0  0  0  0
  160.8970  203.3680  150.8590 C   0  0  0  0  0  3  0  0  0  0  0  0
  161.5540  205.0900  147.8520 C   0  0  0  0  0  0  0  0  0  0  0  0
  161.7800  204.4280  145.1740 C   0  0  0  0  0  3  0  0  0  0  0  0
  160.9340  204.3560  151.8610 C   0  0  0  0  0  3  0  0  0  0  0  0
  161.3900  203.7800  147.4470 C   0  0  0  0  0  0  0  0  0  0  0  0
  161.4980  203.4140  146.1080 C   0  0  0  0  0  3  0  0  0  0  0  0
  161.2380  206.7020  152.5310 C   0  0  0  0  0  0  0  0  0  0  0  0
  161.0440  206.4120  153.7410 O   0  0  0  0  0  0  0  0  0  0  0  0
  161.6840  207.4200  149.8730 C   0  0  0  0  0  2  0  0  0  0  0  0
  161.9480  205.7670  145.5920 C   0  0  0  0  0  3  0  0  0  0  0  0
  161.1250  203.7640  149.5440 C   0  0  0  0  0  0  0  0  0  0  0  0
  161.1330  202.9950  148.4730 O   0  0  0  0  0  0  0  0  0  0  0  0
  161.4940  207.9930  152.1850 N   0  0  0  0  0  0  0  0  0  0  0  0
  161.8350  206.1140  146.9510 C   0  0  0  0  0  3  0  0  0  0  0  0
  161.7070  208.3710  150.8950 C   0  0  0  0  0  0  0  0  0  0  0  0
  161.1960  205.7090  151.5380 C   0  0  0  0  0  0  0  0  0  0  0  0
  162.0080  209.7920  150.5770 C   0  0  0  0  0  2  0  0  0  0  0  0
  161.9790  209.9880  149.1390 N   0  0  0  0  0  2  0  0  0  0  0  0
  162.2860  211.3870  148.9010 C   0  0  0  0  0  2  0  0  0  0  0  0
  161.4170  211.9280  147.7770 C   0  0  0  0  0  2  0  0  0  0  0  0
  162.1060  213.0400  147.0530 C   0  0  0  0  0  0  0  0  0  0  0  0
  162.6690  214.1870  147.8190 C   0  0  0  0  0  1  0  0  0  0  0  0
  162.2260  213.0040  145.8390 O   0  0  0  0  0  0  0  0  0  0  0  0
  1 13  1  0  0  0  0
  1  2  2  0  0  0  0
  2 18  1  0  0  0  0
  3  6  1  0  0  0  0
  4  1  1  0  0  0  0
  5 12  2  0  0  0  0
  5  8  1  0  0  0  0
  7  4  1  0  0  0  0
  7 14  1  0  0  0  0
  8  7  2  0  0  0  0
  9 10  2  0  0  0  0
 11  2  1  0  0  0  0
 11 17  1  0  0  0  0
 12 16  1  0  0  0  0
 13  3  2  0  0  0  0
 14 13  1  0  0  0  0
 15  9  1  0  0  0  0
 16  4  2  0  0  0  0
 17 15  2  0  0  0  0
 18  6  2  0  0  0  0
 18  9  1  0  0  0  0
 19 17  1  0  0  0  0
 20 19  1  0  0  0  0
 21 20  1  0  0  0  0
 22 21  1  0  0  0  0
 23 22  1  0  0  0  0
 23 24  1  0  0  0  0
 25 23  2  0  0  0  0
M  END
>  <MODEL>
4

>  <REMARK>
 VINA RESULT:      -9.2      2.824      4.950
  Name = 
  5 active torsions:
  status: ('A' for Active; 'I' for Inactive)
    1  A    between atoms: C_2  and  C_25
    2  A    between atoms: C_6  and  N_15
    3  A    between atoms: C_6  and  C_23
    4  A    between atoms: N_15  and  C_21
    5  A    between atoms: C_21  and  C_25
                            x       y       z     vdW  Elec       q    Type
                         _______ _______ _______ _____ _____    ______ ____

>  <TORSDO>
F 5

$$$$
=
 OpenBabel11052422133D

 25 28  0  0  0  0  0  0  0  0999 V2000
  161.3940  204.9460  148.8480 C   0  0  0  0  0  0  0  0  0  0  0  0
  161.4670  206.1880  149.4860 C   0  0  0  0  0  0  0  0  0  0  0  0
  161.8760  205.9130  146.6800 C   0  0  0  0  0  3  0  0  0  0  0  0
  161.1430  203.6720  149.3020 C   0  0  0  0  0  0  0  0  0  0  0  0
  160.7200  200.9480  149.5490 C   0  0  0  0  0  3  0  0  0  0  0  0
  161.9550  207.1780  147.2920 C   0  0  0  0  0  3  0  0  0  0  0  0
  161.2060  202.8590  148.1880 C   0  0  0  0  0  0  0  0  0  0  0  0
  160.9990  201.4850  148.2790 C   0  0  0  0  0  3  0  0  0  0  0  0
  161.8280  208.5830  149.3060 C   0  0  0  0  0  0  0  0  0  0  0  0
  162.0760  209.6200  148.6340 O   0  0  0  0  0  0  0  0  0  0  0  0
  161.2680  206.3350  150.8590 C   0  0  0  0  0  2  0  0  0  0  0  0
  160.6560  201.7830  150.6860 C   0  0  0  0  0  3  0  0  0  0  0  0
  161.5930  204.8150  147.4870 C   0  0  0  0  0  0  0  0  0  0  0  0
  161.4770  203.5580  147.1060 O   0  0  0  0  0  0  0  0  0  0  0  0
  161.6270  208.6880  150.6480 N   0  0  0  0  0  0  0  0  0  0  0  0
  160.8690  203.1690  150.5720 C   0  0  0  0  0  3  0  0  0  0  0  0
  161.3610  207.6060  151.4290 C   0  0  0  0  0  0  0  0  0  0  0  0
  161.7540  207.3250  148.6850 C   0  0  0  0  0  0  0  0  0  0  0  0
  161.1250  207.7830  152.8860 C   0  0  0  0  0  2  0  0  0  0  0  0
  160.4730  209.0580  153.1250 N   0  0  0  0  0  2  0  0  0  0  0  0
  161.0020  209.5720  154.3760 C   0  0  0  0  0  2  0  0  0  0  0  0
  160.1160  209.1410  155.5330 C   0  0  0  0  0  2  0  0  0  0  0  0
  160.8150  208.1470  156.4050 C   0  0  0  0  0  0  0  0  0  0  0  0
  160.0770  206.9530  156.9050 C   0  0  0  0  0  1  0  0  0  0  0  0
  161.9910  208.2980  156.6910 O   0  0  0  0  0  0  0  0  0  0  0  0
  1  4  1  0  0  0  0
  1  2  1  0  0  0  0
  2 11  1  0  0  0  0
  3  6  2  0  0  0  0
  3 13  1  0  0  0  0
  4 16  1  0  0  0  0
  5 12  1  0  0  0  0
  6 18  1  0  0  0  0
  7  8  1  0  0  0  0
  7  4  2  0  0  0  0
  8  5  2  0  0  0  0
  9 15  1  0  0  0  0
 10  9  2  0  0  0  0
 11 17  1  0  0  0  0
 13  1  2  0  0  0  0
 14 13  1  0  0  0  0
 14  7  1  0  0  0  0
 15 17  2  0  0  0  0
 16 12  2  0  0  0  0
 17 19  1  0  0  0  0
 18  9  1  0  0  0  0
 18  2  2  0  0  0  0
 19 20  1  0  0  0  0
 20 21  1  0  0  0  0
 21 22  1  0  0  0  0
 22 23  1  0  0  0  0
 23 25  2  0  0  0  0
 23 24  1  0  0  0  0
M  END
>  <MODEL>
5

>  <REMARK>
 VINA RESULT:      -9.1      1.229      1.759
  Name = 
  5 active torsions:
  status: ('A' for Active; 'I' for Inactive)
    1  A    between atoms: C_2  and  C_25
    2  A    between atoms: C_6  and  N_15
    3  A    between atoms: C_6  and  C_23
    4  A    between atoms: N_15  and  C_21
    5  A    between atoms: C_21  and  C_25
                            x       y       z     vdW  Elec       q    Type
                         _______ _______ _______ _____ _____    ______ ____

>  <TORSDO>
F 5

$$$$
=
 OpenBabel11052422133D

 25 28  0  0  0  0  0  0  0  0999 V2000
  161.1030  206.7660  152.0060 C   0  0  0  0  0  0  0  0  0  0  0  0
  161.1050  206.0990  150.7780 C   0  0  0  0  0  0  0  0  0  0  0  0
  161.0230  204.6900  153.2530 C   0  0  0  0  0  3  0  0  0  0  0  0
  161.1350  208.0980  152.3500 C   0  0  0  0  0  0  0  0  0  0  0  0
  161.1820  210.5220  153.6840 C   0  0  0  0  0  3  0  0  0  0  0  0
  161.0230  203.9890  152.0330 C   0  0  0  0  0  3  0  0  0  0  0  0
  161.1130  208.1280  153.7300 C   0  0  0  0  0  0  0  0  0  0  0  0
  161.1360  209.3310  154.4310 C   0  0  0  0  0  3  0  0  0  0  0  0
  161.0600  203.9890  149.5740 C   0  0  0  0  0  0  0  0  0  0  0  0
  161.0210  202.7300  149.5450 O   0  0  0  0  0  0  0  0  0  0  0  0
  161.1440  206.7770  149.5590 C   0  0  0  0  0  2  0  0  0  0  0  0
  161.2040  210.4870  152.2730 C   0  0  0  0  0  3  0  0  0  0  0  0
  161.0640  206.0810  153.2060 C   0  0  0  0  0  0  0  0  0  0  0  0
  161.0700  206.9110  154.2310 O   0  0  0  0  0  0  0  0  0  0  0  0
  161.0980  204.6850  148.4050 N   0  0  0  0  0  0  0  0  0  0  0  0
  161.1810  209.2600  151.5840 C   0  0  0  0  0  3  0  0  0  0  0  0
  161.1470  206.0450  148.3710 C   0  0  0  0  0  0  0  0  0  0  0  0
  161.0630  204.6800  150.7980 C   0  0  0  0  0  0  0  0  0  0  0  0
  161.1610  206.7540  147.0650 C   0  0  0  0  0  2  0  0  0  0  0  0
  160.1390  206.2000  146.1960 N   0  0  0  0  0  2  0  0  0  0  0  0
  160.7720  205.9410  144.9150 C   0  0  0  0  0  2  0  0  0  0  0  0
  160.5280  204.5010  144.4940 C   0  0  0  0  0  2  0  0  0  0  0  0
  161.4110  203.5630  145.2520 C   0  0  0  0  0  0  0  0  0  0  0  0
  160.8740  202.2540  145.7180 C   0  0  0  0  0  1  0  0  0  0  0  0
  162.5750  203.8550  145.4730 O   0  0  0  0  0  0  0  0  0  0  0  0
  1  4  1  0  0  0  0
  1 13  2  0  0  0  0
  2 18  2  0  0  0  0
  2  1  1  0  0  0  0
  4  7  1  0  0  0  0
  5  8  1  0  0  0  0
  6  3  2  0  0  0  0
  7 14  1  0  0  0  0
  7  8  2  0  0  0  0
  9 18  1  0  0  0  0
 10  9  2  0  0  0  0
 11  2  1  0  0  0  0
 12  5  2  0  0  0  0
 13  3  1  0  0  0  0
 13 14  1  0  0  0  0
 15  9  1  0  0  0  0
 16 12  1  0  0  0  0
 16  4  2  0  0  0  0
 17 15  2  0  0  0  0
 17 11  1  0  0  0  0
 18  6  1  0  0  0  0
 19 17  1  0  0  0  0
 20 19  1  0  0  0  0
 21 20  1  0  0  0  0
 22 21  1  0  0  0  0
 22 23  1  0  0  0  0
 23 25  2  0  0  0  0
 23 24  1  0  0  0  0
M  END
>  <MODEL>
6

>  <REMARK>
 VINA RESULT:      -9.0      2.558      7.892
  Name = 
  5 active torsions:
  status: ('A' for Active; 'I' for Inactive)
    1  A    between atoms: C_2  and  C_25
    2  A    between atoms: C_6  and  N_15
    3  A    between atoms: C_6  and  C_23
    4  A    between atoms: N_15  and  C_21
    5  A    between atoms: C_21  and  C_25
                            x       y       z     vdW  Elec       q    Type
                         _______ _______ _______ _____ _____    ______ ____

>  <TORSDO>
F 5

$$$$
=
 OpenBabel11052422133D

 25 28  0  0  0  0  0  0  0  0999 V2000
  161.1010  204.5870  151.1080 C   0  0  0  0  0  0  0  0  0  0  0  0
  161.2950  205.9690  151.0180 C   0  0  0  0  0  0  0  0  0  0  0  0
  160.8590  204.6730  153.5170 C   0  0  0  0  0  3  0  0  0  0  0  0
  161.0660  203.5820  150.1700 C   0  0  0  0  0  0  0  0  0  0  0  0
  160.8840  201.1630  148.8380 C   0  0  0  0  0  3  0  0  0  0  0  0
  161.0520  206.0660  153.4600 C   0  0  0  0  0  3  0  0  0  0  0  0
  160.8370  202.4190  150.8770 C   0  0  0  0  0  0  0  0  0  0  0  0
  160.7390  201.1860  150.2370 C   0  0  0  0  0  3  0  0  0  0  0  0
  161.4650  208.1080  152.1540 C   0  0  0  0  0  0  0  0  0  0  0  0
  161.4540  208.8130  153.1990 O   0  0  0  0  0  0  0  0  0  0  0  0
  161.5100  206.6140  149.7990 C   0  0  0  0  0  2  0  0  0  0  0  0
  161.1180  202.3540  148.1170 C   0  0  0  0  0  3  0  0  0  0  0  0
  160.8900  203.9610  152.3210 C   0  0  0  0  0  0  0  0  0  0  0  0
  160.7330  202.6600  152.1670 O   0  0  0  0  0  0  0  0  0  0  0  0
  161.6730  208.7040  150.9480 N   0  0  0  0  0  0  0  0  0  0  0  0
  161.2130  203.5890  148.7850 C   0  0  0  0  0  3  0  0  0  0  0  0
  161.6910  207.9990  149.7840 C   0  0  0  0  0  0  0  0  0  0  0  0
  161.2690  206.7190  152.2230 C   0  0  0  0  0  0  0  0  0  0  0  0
  161.9480  208.6970  148.4970 C   0  0  0  0  0  2  0  0  0  0  0  0
  162.6520  207.8080  147.5900 N   0  0  0  0  0  2  0  0  0  0  0  0
  161.6600  206.9060  147.0330 C   0  0  0  0  0  2  0  0  0  0  0  0
  162.3410  205.8370  146.1940 C   0  0  0  0  0  2  0  0  0  0  0  0
  161.4200  205.3160  145.1370 C   0  0  0  0  0  0  0  0  0  0  0  0
  161.1930  203.8490  145.0100 C   0  0  0  0  0  1  0  0  0  0  0  0
  160.8390  206.0870  144.3910 O   0  0  0  0  0  0  0  0  0  0  0  0
  1 13  1  0  0  0  0
  2  1  2  0  0  0  0
  2 18  1  0  0  0  0
  4  7  1  0  0  0  0
  4  1  1  0  0  0  0
  5  8  1  0  0  0  0
  6  3  1  0  0  0  0
  7 14  1  0  0  0  0
  8  7  2  0  0  0  0
  9 18  1  0  0  0  0
  9 10  2  0  0  0  0
 11  2  1  0  0  0  0
 12 16  1  0  0  0  0
 12  5  2  0  0  0  0
 13  3  2  0  0  0  0
 14 13  1  0  0  0  0
 15  9  1  0  0  0  0
 16  4  2  0  0  0  0
 17 11  1  0  0  0  0
 17 15  2  0  0  0  0
 18  6  2  0  0  0  0
 19 17  1  0  0  0  0
 20 19  1  0  0  0  0
 21 20  1  0  0  0  0
 22 21  1  0  0  0  0
 23 22  1  0  0  0  0
 24 23  1  0  0  0  0
 25 23  2  0  0  0  0
M  END
>  <MODEL>
7

>  <REMARK>
 VINA RESULT:      -8.7      2.154      5.897
  Name = 
  5 active torsions:
  status: ('A' for Active; 'I' for Inactive)
    1  A    between atoms: C_2  and  C_25
    2  A    between atoms: C_6  and  N_15
    3  A    between atoms: C_6  and  C_23
    4  A    between atoms: N_15  and  C_21
    5  A    between atoms: C_21  and  C_25
                            x       y       z     vdW  Elec       q    Type
                         _______ _______ _______ _____ _____    ______ ____

>  <TORSDO>
F 5

$$$$
=
 OpenBabel11052422133D

 25 28  0  0  0  0  0  0  0  0999 V2000
  161.3300  207.6750  151.6310 C   0  0  0  0  0  0  0  0  0  0  0  0
  161.2610  206.6870  150.6450 C   0  0  0  0  0  0  0  0  0  0  0  0
  161.9750  209.3760  150.0310 C   0  0  0  0  0  3  0  0  0  0  0  0
  161.1100  207.6610  152.9900 C   0  0  0  0  0  0  0  0  0  0  0  0
  160.8310  208.3040  155.6670 C   0  0  0  0  0  3  0  0  0  0  0  0
  161.9150  208.4040  149.0160 C   0  0  0  0  0  3  0  0  0  0  0  0
  161.3380  208.9540  153.4180 C   0  0  0  0  0  0  0  0  0  0  0  0
  161.2060  209.3100  154.7580 C   0  0  0  0  0  3  0  0  0  0  0  0
  161.5020  206.0870  148.3040 C   0  0  0  0  0  0  0  0  0  0  0  0
  161.7640  206.3770  147.1060 O   0  0  0  0  0  0  0  0  0  0  0  0
  160.9140  205.3670  150.9340 C   0  0  0  0  0  2  0  0  0  0  0  0
  160.5990  206.9830  155.2250 C   0  0  0  0  0  3  0  0  0  0  0  0
  161.6760  208.9790  151.3320 C   0  0  0  0  0  0  0  0  0  0  0  0
  161.6770  209.7350  152.4130 O   0  0  0  0  0  0  0  0  0  0  0  0
  161.1600  204.8080  148.6230 N   0  0  0  0  0  0  0  0  0  0  0  0
  160.7380  206.6450  153.8670 C   0  0  0  0  0  3  0  0  0  0  0  0
  160.8600  204.4340  149.8970 C   0  0  0  0  0  0  0  0  0  0  0  0
  161.5620  207.0650  149.3100 C   0  0  0  0  0  0  0  0  0  0  0  0
  160.5180  203.0180  150.1920 C   0  0  0  0  0  2  0  0  0  0  0  0
  161.3060  202.1370  149.3480 N   0  0  0  0  0  2  0  0  0  0  0  0
  160.4070  201.6130  148.3340 C   0  0  0  0  0  2  0  0  0  0  0  0
  161.1970  201.1920  147.1060 C   0  0  0  0  0  2  0  0  0  0  0  0
  160.7200  201.9150  145.8870 C   0  0  0  0  0  0  0  0  0  0  0  0
  161.3170  203.2300  145.5240 C   0  0  0  0  0  1  0  0  0  0  0  0
  159.8580  201.4230  145.1770 O   0  0  0  0  0  0  0  0  0  0  0  0
  1  4  1  0  0  0  0
  2 11  1  0  0  0  0
  2  1  1  0  0  0  0
  3 13  1  0  0  0  0
  4  7  2  0  0  0  0
  4 16  1  0  0  0  0
  6 18  1  0  0  0  0
  6  3  2  0  0  0  0
  7  8  1  0  0  0  0
  8  5  2  0  0  0  0
  9 15  1  0  0  0  0
  9 18  1  0  0  0  0
 10  9  2  0  0  0  0
 12  5  1  0  0  0  0
 13  1  2  0  0  0  0
 13 14  1  0  0  0  0
 14  7  1  0  0  0  0
 15 17  2  0  0  0  0
 16 12  2  0  0  0  0
 17 19  1  0  0  0  0
 17 11  1  0  0  0  0
 18  2  2  0  0  0  0
 20 19  1  0  0  0  0
 21 20  1  0  0  0  0
 22 21  1  0  0  0  0
 23 22  1  0  0  0  0
 24 23  1  0  0  0  0
 25 23  2  0  0  0  0
M  END
>  <MODEL>
8

>  <REMARK>
 VINA RESULT:      -8.6      2.191      7.441
  Name = 
  5 active torsions:
  status: ('A' for Active; 'I' for Inactive)
    1  A    between atoms: C_2  and  C_25
    2  A    between atoms: C_6  and  N_15
    3  A    between atoms: C_6  and  C_23
    4  A    between atoms: N_15  and  C_21
    5  A    between atoms: C_21  and  C_25
                            x       y       z     vdW  Elec       q    Type
                         _______ _______ _______ _____ _____    ______ ____

>  <TORSDO>
F 5

$$$$
=
 OpenBabel11052422133D

 25 28  0  0  0  0  0  0  0  0999 V2000
  161.1580  205.6830  150.4280 C   0  0  0  0  0  0  0  0  0  0  0  0
  161.0860  206.6450  151.4400 C   0  0  0  0  0  0  0  0  0  0  0  0
  161.1480  203.8570  152.0190 C   0  0  0  0  0  3  0  0  0  0  0  0
  161.2130  205.7680  149.0560 C   0  0  0  0  0  0  0  0  0  0  0  0
  161.3430  205.2480  146.3410 C   0  0  0  0  0  3  0  0  0  0  0  0
  161.0760  204.8000  153.0600 C   0  0  0  0  0  3  0  0  0  0  0  0
  161.2730  204.4650  148.6030 C   0  0  0  0  0  0  0  0  0  0  0  0
  161.3380  204.1700  147.2440 C   0  0  0  0  0  3  0  0  0  0  0  0
  160.9760  207.1390  153.8160 C   0  0  0  0  0  0  0  0  0  0  0  0
  160.9410  206.7780  155.0220 O   0  0  0  0  0  0  0  0  0  0  0  0
  161.0560  208.0140  151.1680 C   0  0  0  0  0  2  0  0  0  0  0  0
  161.2820  206.5800  146.8070 C   0  0  0  0  0  3  0  0  0  0  0  0
  161.1880  204.3310  150.7110 C   0  0  0  0  0  0  0  0  0  0  0  0
  161.2560  203.6130  149.6070 O   0  0  0  0  0  0  0  0  0  0  0  0
  160.9490  208.4650  153.5130 N   0  0  0  0  0  0  0  0  0  0  0  0
  161.2160  206.8550  148.1850 C   0  0  0  0  0  3  0  0  0  0  0  0
  160.9790  208.9180  152.2300 C   0  0  0  0  0  0  0  0  0  0  0  0
  161.0450  206.1880  152.7830 C   0  0  0  0  0  0  0  0  0  0  0  0
  160.9730  210.3790  151.9580 C   0  0  0  0  0  2  0  0  0  0  0  0
  159.7230  210.9570  152.4160 N   0  0  0  0  0  2  0  0  0  0  0  0
  159.8850  212.4000  152.3690 C   0  0  0  0  0  2  0  0  0  0  0  0
  158.5530  213.0640  152.0610 C   0  0  0  0  0  2  0  0  0  0  0  0
  158.4500  213.4160  150.6110 C   0  0  0  0  0  0  0  0  0  0  0  0
  157.1140  213.6680  150.0040 C   0  0  0  0  0  1  0  0  0  0  0  0
  159.4560  213.5170  149.9290 O   0  0  0  0  0  0  0  0  0  0  0  0
  1 13  1  0  0  0  0
  1  2  2  0  0  0  0
  2 18  1  0  0  0  0
  3  6  1  0  0  0  0
  4  1  1  0  0  0  0
  5 12  2  0  0  0  0
  5  8  1  0  0  0  0
  7  4  1  0  0  0  0
  7 14  1  0  0  0  0
  8  7  2  0  0  0  0
  9 10  2  0  0  0  0
 11  2  1  0  0  0  0
 11 17  1  0  0  0  0
 12 16  1  0  0  0  0
 13  3  2  0  0  0  0
 14 13  1  0  0  0  0
 15  9  1  0  0  0  0
 16  4  2  0  0  0  0
 17 15  2  0  0  0  0
 18  6  2  0  0  0  0
 18  9  1  0  0  0  0
 19 17  1  0  0  0  0
 19 20  1  0  0  0  0
 21 20  1  0  0  0  0
 22 21  1  0  0  0  0
 23 22  1  0  0  0  0
 24 23  1  0  0  0  0
 25 23  2  0  0  0  0
M  END
>  <MODEL>
9

>  <REMARK>
 VINA RESULT:      -8.3      2.551      4.261
  Name = 
  5 active torsions:
  status: ('A' for Active; 'I' for Inactive)
    1  A    between atoms: C_2  and  C_25
    2  A    between atoms: C_6  and  N_15
    3  A    between atoms: C_6  and  C_23
    4  A    between atoms: N_15  and  C_21
    5  A    between atoms: C_21  and  C_25
                            x       y       z     vdW  Elec       q    Type
                         _______ _______ _______ _____ _____    ______ ____

>  <TORSDO>
F 5

$$$$
