=
 OpenBabel11052423203D

 27 31  0  0  0  0  0  0  0  0999 V2000
  161.6020  208.6550  152.3340 N   0  0  0  0  0  0  0  0  0  0  0  0
  161.4140  207.3240  152.4330 C   0  0  0  0  0  0  0  0  0  0  0  0
  161.5690  207.7610  150.2650 C   0  0  0  0  0  0  0  0  0  0  0  0
  160.8350  203.2330  152.1690 N   0  0  0  0  0  0  0  0  0  0  0  0
  160.7740  202.5890  150.9720 C   0  0  0  0  0  3  0  0  0  0  0  0
  161.2680  206.5870  153.6090 C   0  0  0  0  0  3  0  0  0  0  0  0
  161.1160  204.6830  149.8270 C   0  0  0  0  0  3  0  0  0  0  0  0
  162.0550  210.2480  148.9300 N   0  0  0  0  0  0  0  0  0  0  0  0
  161.7720  206.7400  148.1160 O   0  0  0  0  0  0  0  0  0  0  0  0
  162.4150  211.4900  148.2660 C   0  0  0  0  0  1  0  0  0  0  0  0
  161.1830  205.3410  151.0570 C   0  0  0  0  0  0  0  0  0  0  0  0
  160.9120  203.3030  149.7800 C   0  0  0  0  0  3  0  0  0  0  0  0
  161.0310  204.5770  152.2460 C   0  0  0  0  0  0  0  0  0  0  0  0
  161.6960  208.9130  151.0090 C   0  0  0  0  0  0  0  0  0  0  0  0
  161.3820  206.7260  151.1830 C   0  0  0  0  0  0  0  0  0  0  0  0
  161.6310  209.1230  148.0840 C   0  0  0  0  0  2  0  0  0  0  0  0
  161.0780  205.2030  153.5050 C   0  0  0  0  0  3  0  0  0  0  0  0
  162.0900  211.2560  151.0510 O   0  0  0  0  0  0  0  0  0  0  0  0
  161.9490  210.2080  150.3660 C   0  0  0  0  0  0  0  0  0  0  0  0
  161.6720  207.7930  148.7950 C   0  0  0  0  0  0  0  0  0  0  0  0
  161.7570  209.5980  153.4360 C   0  0  0  0  0  2  0  0  0  0  0  0
  157.9660  211.0970  154.6880 C   0  0  0  0  0  3  0  0  0  0  0  0
  160.4240  210.1010  153.8750 C   0  0  0  0  0  0  0  0  0  0  0  0
  159.9980  209.8890  155.1890 C   0  0  0  0  0  3  0  0  0  0  0  0
  158.7580  210.3900  155.5930 C   0  0  0  0  0  3  0  0  0  0  0  0
  158.4290  211.2940  153.3850 C   0  0  0  0  0  3  0  0  0  0  0  0
  159.6390  210.7980  153.0100 N   0  0  0  0  0  0  0  0  0  0  0  0
  1  2  1  0  0  0  0
  1 21  1  0  0  0  0
  2  6  1  0  0  0  0
  3 14  2  0  0  0  0
  3 15  1  0  0  0  0
  4 13  1  0  0  0  0
  5  4  2  0  0  0  0
  7 11  1  0  0  0  0
  8 19  1  0  0  0  0
  9 20  2  0  0  0  0
 10  8  1  0  0  0  0
 11 15  1  0  0  0  0
 11 13  2  0  0  0  0
 12  7  2  0  0  0  0
 12  5  1  0  0  0  0
 13 17  1  0  0  0  0
 14  1  1  0  0  0  0
 15  2  2  0  0  0  0
 16 20  1  0  0  0  0
 16  8  1  0  0  0  0
 17  6  2  0  0  0  0
 19 14  1  0  0  0  0
 19 18  2  0  0  0  0
 20  3  1  0  0  0  0
 21 23  1  0  0  0  0
 22 25  1  0  0  0  0
 23 24  1  0  0  0  0
 24 25  2  0  0  0  0
 26 22  2  0  0  0  0
 27 26  1  0  0  0  0
 27 23  2  0  0  0  0
M  END
>  <MODEL>
1

>  <REMARK>
 VINA RESULT:      -8.3      0.000      0.000
  Name = 
  2 active torsions:
  status: ('A' for Active; 'I' for Inactive)
    1  A    between atoms: N_1  and  C_15
    2  A    between atoms: C_9  and  C_15
                            x       y       z     vdW  Elec       q    Type
                         _______ _______ _______ _____ _____    ______ ____

>  <TORSDO>
F 2

$$$$
=
 OpenBabel11052423203D

 27 31  0  0  0  0  0  0  0  0999 V2000
  161.6670  209.2290  152.0720 N   0  0  0  0  0  0  0  0  0  0  0  0
  161.7220  208.7110  150.8280 C   0  0  0  0  0  0  0  0  0  0  0  0
  161.2300  207.0200  152.1750 C   0  0  0  0  0  0  0  0  0  0  0  0
  161.7930  206.6200  147.2560 N   0  0  0  0  0  0  0  0  0  0  0  0
  161.5670  205.2790  147.2010 C   0  0  0  0  0  3  0  0  0  0  0  0
  161.9960  209.4040  149.6480 C   0  0  0  0  0  3  0  0  0  0  0  0
  161.2560  205.2320  149.5910 C   0  0  0  0  0  3  0  0  0  0  0  0
  160.7870  207.0020  155.0040 N   0  0  0  0  0  0  0  0  0  0  0  0
  160.5330  204.7360  152.2020 O   0  0  0  0  0  0  0  0  0  0  0  0
  160.4520  207.0200  156.4180 C   0  0  0  0  0  1  0  0  0  0  0  0
  161.4840  206.6090  149.6440 C   0  0  0  0  0  0  0  0  0  0  0  0
  161.2960  204.5630  148.3670 C   0  0  0  0  0  3  0  0  0  0  0  0
  161.7620  207.3000  148.4340 C   0  0  0  0  0  0  0  0  0  0  0  0
  161.3660  208.1920  152.8860 C   0  0  0  0  0  0  0  0  0  0  0  0
  161.4640  207.3500  150.8380 C   0  0  0  0  0  0  0  0  0  0  0  0
  160.9260  205.6900  154.3550 C   0  0  0  0  0  2  0  0  0  0  0  0
  162.0120  208.6850  148.4460 C   0  0  0  0  0  3  0  0  0  0  0  0
  161.2450  209.3060  154.9810 O   0  0  0  0  0  0  0  0  0  0  0  0
  161.1440  208.2280  154.3370 C   0  0  0  0  0  0  0  0  0  0  0  0
  160.8680  205.7600  152.8490 C   0  0  0  0  0  0  0  0  0  0  0  0
  161.8170  210.6330  152.4390 C   0  0  0  0  0  2  0  0  0  0  0  0
  158.2160  212.8010  151.7220 C   0  0  0  0  0  3  0  0  0  0  0  0
  160.5490  211.3720  152.1800 C   0  0  0  0  0  0  0  0  0  0  0  0
  159.4030  211.0720  152.9210 C   0  0  0  0  0  3  0  0  0  0  0  0
  158.2300  211.7920  152.6860 C   0  0  0  0  0  3  0  0  0  0  0  0
  159.3830  213.0770  151.0060 C   0  0  0  0  0  3  0  0  0  0  0  0
  160.5160  212.3650  151.2490 N   0  0  0  0  0  0  0  0  0  0  0  0
  1 21  1  0  0  0  0
  1 14  1  0  0  0  0
  2 15  1  0  0  0  0
  2  1  1  0  0  0  0
  3 20  1  0  0  0  0
  3 14  2  0  0  0  0
  4 13  1  0  0  0  0
  5  4  2  0  0  0  0
  5 12  1  0  0  0  0
  6  2  2  0  0  0  0
  7 11  1  0  0  0  0
  8 10  1  0  0  0  0
  9 20  2  0  0  0  0
 11 15  2  0  0  0  0
 12  7  2  0  0  0  0
 13 17  2  0  0  0  0
 13 11  1  0  0  0  0
 14 19  1  0  0  0  0
 15  3  1  0  0  0  0
 16  8  1  0  0  0  0
 17  6  1  0  0  0  0
 19 18  2  0  0  0  0
 19  8  1  0  0  0  0
 20 16  1  0  0  0  0
 22 25  1  0  0  0  0
 23 21  1  0  0  0  0
 23 24  1  0  0  0  0
 25 24  2  0  0  0  0
 26 27  1  0  0  0  0
 26 22  2  0  0  0  0
 27 23  2  0  0  0  0
M  END
>  <MODEL>
2

>  <REMARK>
 VINA RESULT:      -7.3      2.232      4.270
  Name = 
  2 active torsions:
  status: ('A' for Active; 'I' for Inactive)
    1  A    between atoms: N_1  and  C_15
    2  A    between atoms: C_9  and  C_15
                            x       y       z     vdW  Elec       q    Type
                         _______ _______ _______ _____ _____    ______ ____

>  <TORSDO>
F 2

$$$$
=
 OpenBabel11052423203D

 27 31  0  0  0  0  0  0  0  0999 V2000
  162.1160  206.0680  148.8800 N   0  0  0  0  0  0  0  0  0  0  0  0
  161.9860  206.8760  149.9520 C   0  0  0  0  0  0  0  0  0  0  0  0
  161.2470  204.8860  150.5910 C   0  0  0  0  0  0  0  0  0  0  0  0
  161.3550  208.9080  153.5030 N   0  0  0  0  0  0  0  0  0  0  0  0
  160.8140  208.3020  154.5940 C   0  0  0  0  0  3  0  0  0  0  0  0
  162.3310  208.2270  150.0250 C   0  0  0  0  0  3  0  0  0  0  0  0
  160.6590  206.2310  153.3680 C   0  0  0  0  0  3  0  0  0  0  0  0
  161.1470  202.4190  149.1400 N   0  0  0  0  0  0  0  0  0  0  0  0
  160.5630  203.6210  152.4960 O   0  0  0  0  0  0  0  0  0  0  0  0
  161.2060  201.1470  148.4380 C   0  0  0  0  0  1  0  0  0  0  0  0
  161.2190  206.8560  152.2510 C   0  0  0  0  0  0  0  0  0  0  0  0
  160.4560  206.9530  154.5450 C   0  0  0  0  0  3  0  0  0  0  0  0
  161.5640  208.2310  152.3410 C   0  0  0  0  0  0  0  0  0  0  0  0
  161.6640  204.8580  149.2780 C   0  0  0  0  0  0  0  0  0  0  0  0
  161.4510  206.1950  151.0320 C   0  0  0  0  0  0  0  0  0  0  0  0
  160.4180  202.4580  150.4160 C   0  0  0  0  0  2  0  0  0  0  0  0
  162.1160  208.9010  151.2340 C   0  0  0  0  0  3  0  0  0  0  0  0
  162.0380  203.5860  147.3060 O   0  0  0  0  0  0  0  0  0  0  0  0
  161.6330  203.6140  148.4990 C   0  0  0  0  0  0  0  0  0  0  0  0
  160.7460  203.6690  151.2540 C   0  0  0  0  0  0  0  0  0  0  0  0
  162.7040  206.4180  147.5910 C   0  0  0  0  0  2  0  0  0  0  0  0
  160.0480  205.2680  144.4580 C   0  0  0  0  0  3  0  0  0  0  0  0
  161.7840  206.0330  146.4830 C   0  0  0  0  0  0  0  0  0  0  0  0
  162.2980  205.4570  145.3180 C   0  0  0  0  0  3  0  0  0  0  0  0
  161.4210  205.0760  144.3010 C   0  0  0  0  0  3  0  0  0  0  0  0
  159.5710  205.8410  145.6400 C   0  0  0  0  0  3  0  0  0  0  0  0
  160.4410  206.2060  146.6200 N   0  0  0  0  0  0  0  0  0  0  0  0
  1 14  1  0  0  0  0
  1  2  1  0  0  0  0
  2  6  2  0  0  0  0
  2 15  1  0  0  0  0
  3 15  1  0  0  0  0
  3 20  1  0  0  0  0
  4  5  2  0  0  0  0
  6 17  1  0  0  0  0
  7 12  2  0  0  0  0
  8 16  1  0  0  0  0
 10  8  1  0  0  0  0
 11 13  1  0  0  0  0
 11  7  1  0  0  0  0
 12  5  1  0  0  0  0
 13  4  1  0  0  0  0
 14  3  2  0  0  0  0
 15 11  2  0  0  0  0
 16 20  1  0  0  0  0
 17 13  2  0  0  0  0
 18 19  2  0  0  0  0
 19  8  1  0  0  0  0
 19 14  1  0  0  0  0
 20  9  2  0  0  0  0
 21  1  1  0  0  0  0
 22 26  1  0  0  0  0
 23 27  1  0  0  0  0
 23 21  1  0  0  0  0
 24 23  2  0  0  0  0
 25 22  2  0  0  0  0
 25 24  1  0  0  0  0
 26 27  2  0  0  0  0
M  END
>  <MODEL>
3

>  <REMARK>
 VINA RESULT:      -6.7      2.852      7.033
  Name = 
  2 active torsions:
  status: ('A' for Active; 'I' for Inactive)
    1  A    between atoms: N_1  and  C_15
    2  A    between atoms: C_9  and  C_15
                            x       y       z     vdW  Elec       q    Type
                         _______ _______ _______ _____ _____    ______ ____

>  <TORSDO>
F 2

$$$$
=
 OpenBabel11052423203D

 27 31  0  0  0  0  0  0  0  0999 V2000
  162.1210  209.6110  150.5940 N   0  0  0  0  0  0  0  0  0  0  0  0
  161.8210  209.6240  151.9090 C   0  0  0  0  0  0  0  0  0  0  0  0
  161.3680  207.5740  151.1960 C   0  0  0  0  0  0  0  0  0  0  0  0
  160.7260  209.1260  155.8700 N   0  0  0  0  0  0  0  0  0  0  0  0
  160.2360  207.9470  156.3400 C   0  0  0  0  0  3  0  0  0  0  0  0
  161.9510  210.7030  152.7830 C   0  0  0  0  0  3  0  0  0  0  0  0
  160.4560  206.9790  154.1430 C   0  0  0  0  0  3  0  0  0  0  0  0
  161.7120  206.4230  148.5970 N   0  0  0  0  0  0  0  0  0  0  0  0
  160.8000  205.3740  151.9310 O   0  0  0  0  0  0  0  0  0  0  0  0
  161.9970  205.8130  147.3070 C   0  0  0  0  0  1  0  0  0  0  0  0
  160.9630  208.1890  153.6640 C   0  0  0  0  0  0  0  0  0  0  0  0
  160.0910  206.8540  155.4840 C   0  0  0  0  0  3  0  0  0  0  0  0
  161.0890  209.2790  154.5680 C   0  0  0  0  0  0  0  0  0  0  0  0
  161.8430  208.3580  150.1680 C   0  0  0  0  0  0  0  0  0  0  0  0
  161.3480  208.3910  152.3280 C   0  0  0  0  0  0  0  0  0  0  0  0
  160.9290  205.6370  149.5610 C   0  0  0  0  0  2  0  0  0  0  0  0
  161.5810  210.5200  154.1230 C   0  0  0  0  0  3  0  0  0  0  0  0
  162.4960  208.5210  147.8890 O   0  0  0  0  0  0  0  0  0  0  0  0
  162.0380  207.8070  148.8210 C   0  0  0  0  0  0  0  0  0  0  0  0
  161.0290  206.1570  150.9740 C   0  0  0  0  0  0  0  0  0  0  0  0
  162.7060  210.7040  149.8230 C   0  0  0  0  0  2  0  0  0  0  0  0
  159.6750  213.1300  148.0600 C   0  0  0  0  0  3  0  0  0  0  0  0
  161.6310  211.5400  149.2180 C   0  0  0  0  0  0  0  0  0  0  0  0
  160.9200  212.4440  150.0130 C   0  0  0  0  0  3  0  0  0  0  0  0
  159.9350  213.2400  149.4260 C   0  0  0  0  0  3  0  0  0  0  0  0
  160.4110  212.2210  147.2960 C   0  0  0  0  0  3  0  0  0  0  0  0
  161.3660  211.4530  147.8860 N   0  0  0  0  0  0  0  0  0  0  0  0
  1  2  1  0  0  0  0
  2 15  2  0  0  0  0
  2  6  1  0  0  0  0
  3 15  1  0  0  0  0
  4  5  1  0  0  0  0
  6 17  2  0  0  0  0
  7 12  1  0  0  0  0
  8 19  1  0  0  0  0
  8 16  1  0  0  0  0
 10  8  1  0  0  0  0
 11  7  2  0  0  0  0
 11 13  1  0  0  0  0
 12  5  2  0  0  0  0
 13  4  2  0  0  0  0
 14  1  1  0  0  0  0
 14  3  2  0  0  0  0
 15 11  1  0  0  0  0
 16 20  1  0  0  0  0
 17 13  1  0  0  0  0
 18 19  2  0  0  0  0
 19 14  1  0  0  0  0
 20  3  1  0  0  0  0
 20  9  2  0  0  0  0
 21  1  1  0  0  0  0
 22 25  1  0  0  0  0
 23 21  1  0  0  0  0
 23 24  1  0  0  0  0
 25 24  2  0  0  0  0
 26 27  1  0  0  0  0
 26 22  2  0  0  0  0
 27 23  2  0  0  0  0
M  END
>  <MODEL>
4

>  <REMARK>
 VINA RESULT:      -6.4      2.254      4.871
  Name = 
  2 active torsions:
  status: ('A' for Active; 'I' for Inactive)
    1  A    between atoms: N_1  and  C_15
    2  A    between atoms: C_9  and  C_15
                            x       y       z     vdW  Elec       q    Type
                         _______ _______ _______ _____ _____    ______ ____

>  <TORSDO>
F 2

$$$$
=
 OpenBabel11052423203D

 27 31  0  0  0  0  0  0  0  0999 V2000
  161.7940  209.8900  151.4320 N   0  0  0  0  0  0  0  0  0  0  0  0
  161.1310  209.9130  152.6060 C   0  0  0  0  0  0  0  0  0  0  0  0
  160.4560  211.7030  151.4850 C   0  0  0  0  0  0  0  0  0  0  0  0
  158.8740  210.4760  156.0300 N   0  0  0  0  0  0  0  0  0  0  0  0
  158.0490  211.5470  156.1820 C   0  0  0  0  0  3  0  0  0  0  0  0
  161.2290  208.9780  153.6370 C   0  0  0  0  0  3  0  0  0  0  0  0
  158.6770  212.3420  153.9940 C   0  0  0  0  0  3  0  0  0  0  0  0
  161.1560  212.5840  148.8520 N   0  0  0  0  0  0  0  0  0  0  0  0
  158.8470  213.4660  151.4860 O   0  0  0  0  0  0  0  0  0  0  0  0
  161.4260  212.9630  147.4740 C   0  0  0  0  0  1  0  0  0  0  0  0
  159.5190  211.2380  153.8390 C   0  0  0  0  0  0  0  0  0  0  0  0
  157.9380  212.4990  155.1680 C   0  0  0  0  0  3  0  0  0  0  0  0
  159.6080  210.2960  154.8990 C   0  0  0  0  0  0  0  0  0  0  0  0
  161.3770  210.9830  150.7550 C   0  0  0  0  0  0  0  0  0  0  0  0
  160.2950  211.0150  152.6890 C   0  0  0  0  0  0  0  0  0  0  0  0
  160.4140  213.5400  149.6860 C   0  0  0  0  0  2  0  0  0  0  0  0
  160.4560  209.1790  154.7890 C   0  0  0  0  0  3  0  0  0  0  0  0
  162.5850  210.7240  148.7250 O   0  0  0  0  0  0  0  0  0  0  0  0
  161.7610  211.3980  149.4000 C   0  0  0  0  0  0  0  0  0  0  0  0
  159.8340  212.9200  150.9330 C   0  0  0  0  0  0  0  0  0  0  0  0
  162.7050  208.8490  150.9660 C   0  0  0  0  0  2  0  0  0  0  0  0
  160.4560  205.4210  149.7930 C   0  0  0  0  0  3  0  0  0  0  0  0
  161.9380  207.6400  150.5520 C   0  0  0  0  0  0  0  0  0  0  0  0
  161.9390  206.5030  151.3640 C   0  0  0  0  0  3  0  0  0  0  0  0
  161.1940  205.3870  150.9770 C   0  0  0  0  0  3  0  0  0  0  0  0
  160.4740  206.5780  149.0110 C   0  0  0  0  0  3  0  0  0  0  0  0
  161.2070  207.6550  149.4040 N   0  0  0  0  0  0  0  0  0  0  0  0
  1  2  1  0  0  0  0
  2 15  2  0  0  0  0
  2  6  1  0  0  0  0
  3 15  1  0  0  0  0
  4  5  1  0  0  0  0
  6 17  2  0  0  0  0
  7 12  1  0  0  0  0
  8 19  1  0  0  0  0
  8 16  1  0  0  0  0
 10  8  1  0  0  0  0
 11  7  2  0  0  0  0
 11 13  1  0  0  0  0
 12  5  2  0  0  0  0
 13  4  2  0  0  0  0
 14  1  1  0  0  0  0
 14  3  2  0  0  0  0
 15 11  1  0  0  0  0
 16 20  1  0  0  0  0
 17 13  1  0  0  0  0
 18 19  2  0  0  0  0
 19 14  1  0  0  0  0
 20  3  1  0  0  0  0
 20  9  2  0  0  0  0
 21  1  1  0  0  0  0
 22 25  1  0  0  0  0
 23 21  1  0  0  0  0
 23 24  1  0  0  0  0
 25 24  2  0  0  0  0
 26 27  1  0  0  0  0
 26 22  2  0  0  0  0
 27 23  2  0  0  0  0
M  END
>  <MODEL>
5

>  <REMARK>
 VINA RESULT:      -6.3      2.097      5.896
  Name = 
  2 active torsions:
  status: ('A' for Active; 'I' for Inactive)
    1  A    between atoms: N_1  and  C_15
    2  A    between atoms: C_9  and  C_15
                            x       y       z     vdW  Elec       q    Type
                         _______ _______ _______ _____ _____    ______ ____

>  <TORSDO>
F 2

$$$$
=
 OpenBabel11052423203D

 27 31  0  0  0  0  0  0  0  0999 V2000
  161.8040  208.6930  151.8390 N   0  0  0  0  0  0  0  0  0  0  0  0
  161.5530  209.8800  151.2490 C   0  0  0  0  0  0  0  0  0  0  0  0
  160.4880  209.9250  153.1930 C   0  0  0  0  0  0  0  0  0  0  0  0
  160.4560  213.6330  149.8880 N   0  0  0  0  0  0  0  0  0  0  0  0
  159.6470  214.4530  150.6110 C   0  0  0  0  0  3  0  0  0  0  0  0
  162.0230  210.3090  150.0060 C   0  0  0  0  0  3  0  0  0  0  0  0
  159.5120  212.7900  152.3510 C   0  0  0  0  0  3  0  0  0  0  0  0
  160.4080  207.9670  155.2810 N   0  0  0  0  0  0  0  0  0  0  0  0
  159.3050  211.3560  154.6930 O   0  0  0  0  0  0  0  0  0  0  0  0
  160.4650  207.0200  156.3830 C   0  0  0  0  0  1  0  0  0  0  0  0
  160.3470  211.9510  151.6090 C   0  0  0  0  0  0  0  0  0  0  0  0
  159.1600  214.0450  151.8540 C   0  0  0  0  0  3  0  0  0  0  0  0
  160.8160  212.4030  150.3460 C   0  0  0  0  0  0  0  0  0  0  0  0
  161.1520  208.7290  153.0230 C   0  0  0  0  0  0  0  0  0  0  0  0
  160.7420  210.6740  152.0420 C   0  0  0  0  0  0  0  0  0  0  0  0
  159.4490  209.0760  155.3870 C   0  0  0  0  0  2  0  0  0  0  0  0
  161.6470  211.5830  149.5600 C   0  0  0  0  0  3  0  0  0  0  0  0
  161.7680  206.6180  153.9210 O   0  0  0  0  0  0  0  0  0  0  0  0
  161.1400  207.7000  154.0700 C   0  0  0  0  0  0  0  0  0  0  0  0
  159.7350  210.2050  154.4280 C   0  0  0  0  0  0  0  0  0  0  0  0
  162.6710  207.6340  151.3330 C   0  0  0  0  0  2  0  0  0  0  0  0
  160.7990  205.7330  148.0050 C   0  0  0  0  0  3  0  0  0  0  0  0
  162.0270  206.9510  150.1740 C   0  0  0  0  0  0  0  0  0  0  0  0
  161.0700  205.9560  150.3960 C   0  0  0  0  0  3  0  0  0  0  0  0
  160.4560  205.3450  149.3010 C   0  0  0  0  0  3  0  0  0  0  0  0
  161.7540  206.7360  147.8240 C   0  0  0  0  0  3  0  0  0  0  0  0
  162.3420  207.3200  148.9030 N   0  0  0  0  0  0  0  0  0  0  0  0
  1 14  1  0  0  0  0
  2  1  1  0  0  0  0
  2 15  1  0  0  0  0
  3 20  1  0  0  0  0
  4 13  1  0  0  0  0
  4  5  2  0  0  0  0
  5 12  1  0  0  0  0
  6  2  2  0  0  0  0
  8 16  1  0  0  0  0
  8 10  1  0  0  0  0
 11 15  2  0  0  0  0
 11  7  1  0  0  0  0
 12  7  2  0  0  0  0
 13 11  1  0  0  0  0
 14  3  2  0  0  0  0
 14 19  1  0  0  0  0
 15  3  1  0  0  0  0
 17  6  1  0  0  0  0
 17 13  2  0  0  0  0
 18 19  2  0  0  0  0
 19  8  1  0  0  0  0
 20  9  2  0  0  0  0
 20 16  1  0  0  0  0
 21  1  1  0  0  0  0
 22 25  1  0  0  0  0
 23 24  1  0  0  0  0
 23 21  1  0  0  0  0
 25 24  2  0  0  0  0
 26 22  2  0  0  0  0
 26 27  1  0  0  0  0
 27 23  2  0  0  0  0
M  END
>  <MODEL>
6

>  <REMARK>
 VINA RESULT:      -6.1      2.474      7.129
  Name = 
  2 active torsions:
  status: ('A' for Active; 'I' for Inactive)
    1  A    between atoms: N_1  and  C_15
    2  A    between atoms: C_9  and  C_15
                            x       y       z     vdW  Elec       q    Type
                         _______ _______ _______ _____ _____    ______ ____

>  <TORSDO>
F 2

$$$$
=
 OpenBabel11052423203D

 27 31  0  0  0  0  0  0  0  0999 V2000
  160.1210  212.4130  152.2000 N   0  0  0  0  0  0  0  0  0  0  0  0
  160.6970  211.2390  151.8710 C   0  0  0  0  0  0  0  0  0  0  0  0
  159.7080  210.9090  153.8270 C   0  0  0  0  0  0  0  0  0  0  0  0
  162.2760  207.4460  151.3610 N   0  0  0  0  0  0  0  0  0  0  0  0
  162.1090  206.4650  152.2890 C   0  0  0  0  0  3  0  0  0  0  0  0
  161.4300  210.9650  150.7150 C   0  0  0  0  0  3  0  0  0  0  0  0
  160.8310  207.9800  153.6620 C   0  0  0  0  0  3  0  0  0  0  0  0
  158.1260  212.7020  155.4030 N   0  0  0  0  0  0  0  0  0  0  0  0
  159.0900  209.2210  155.3980 O   0  0  0  0  0  0  0  0  0  0  0  0
  157.2300  213.5780  156.1410 C   0  0  0  0  0  1  0  0  0  0  0  0
  161.0000  208.9830  152.7050 C   0  0  0  0  0  0  0  0  0  0  0  0
  161.3850  206.7160  153.4560 C   0  0  0  0  0  3  0  0  0  0  0  0
  161.7490  208.6890  151.5340 C   0  0  0  0  0  0  0  0  0  0  0  0
  159.5200  212.2030  153.3930 C   0  0  0  0  0  0  0  0  0  0  0  0
  160.4740  210.2790  152.8440 C   0  0  0  0  0  0  0  0  0  0  0  0
  158.5380  211.4490  156.0530 C   0  0  0  0  0  2  0  0  0  0  0  0
  161.9540  209.6760  150.5530 C   0  0  0  0  0  3  0  0  0  0  0  0
  158.5240  214.3290  153.7570 O   0  0  0  0  0  0  0  0  0  0  0  0
  158.7130  213.1530  154.1690 C   0  0  0  0  0  0  0  0  0  0  0  0
  159.1130  210.4390  155.0910 C   0  0  0  0  0  0  0  0  0  0  0  0
  160.0880  213.6260  151.3890 C   0  0  0  0  0  2  0  0  0  0  0  0
  157.4210  213.1920  148.0900 C   0  0  0  0  0  3  0  0  0  0  0  0
  159.1520  213.4530  150.2420 C   0  0  0  0  0  0  0  0  0  0  0  0
  157.7800  213.3280  150.4750 C   0  0  0  0  0  3  0  0  0  0  0  0
  156.9120  213.1940  149.3890 C   0  0  0  0  0  3  0  0  0  0  0  0
  158.7980  213.3270  147.8960 C   0  0  0  0  0  3  0  0  0  0  0  0
  159.6270  213.4560  148.9670 N   0  0  0  0  0  0  0  0  0  0  0  0
  1 14  1  0  0  0  0
  2  1  1  0  0  0  0
  2 15  1  0  0  0  0
  3 20  1  0  0  0  0
  4 13  1  0  0  0  0
  4  5  2  0  0  0  0
  5 12  1  0  0  0  0
  6  2  2  0  0  0  0
  8 16  1  0  0  0  0
  8 10  1  0  0  0  0
 11 15  2  0  0  0  0
 11  7  1  0  0  0  0
 12  7  2  0  0  0  0
 13 11  1  0  0  0  0
 14  3  2  0  0  0  0
 14 19  1  0  0  0  0
 15  3  1  0  0  0  0
 17  6  1  0  0  0  0
 17 13  2  0  0  0  0
 18 19  2  0  0  0  0
 19  8  1  0  0  0  0
 20  9  2  0  0  0  0
 20 16  1  0  0  0  0
 21  1  1  0  0  0  0
 22 25  1  0  0  0  0
 23 24  1  0  0  0  0
 23 21  1  0  0  0  0
 25 24  2  0  0  0  0
 26 22  2  0  0  0  0
 26 27  1  0  0  0  0
 27 23  2  0  0  0  0
M  END
>  <MODEL>
7

>  <REMARK>
 VINA RESULT:      -6.1      2.936      5.897
  Name = 
  2 active torsions:
  status: ('A' for Active; 'I' for Inactive)
    1  A    between atoms: N_1  and  C_15
    2  A    between atoms: C_9  and  C_15
                            x       y       z     vdW  Elec       q    Type
                         _______ _______ _______ _____ _____    ______ ____

>  <TORSDO>
F 2

$$$$
=
 OpenBabel11052423203D

 27 31  0  0  0  0  0  0  0  0999 V2000
  162.2470  209.4400  150.8150 N   0  0  0  0  0  0  0  0  0  0  0  0
  162.1280  208.4080  149.9560 C   0  0  0  0  0  0  0  0  0  0  0  0
  161.3970  207.6650  151.9130 C   0  0  0  0  0  0  0  0  0  0  0  0
  161.5810  204.9370  147.7660 N   0  0  0  0  0  0  0  0  0  0  0  0
  161.0970  203.7980  148.3300 C   0  0  0  0  0  3  0  0  0  0  0  0
  162.4610  208.4080  148.6010 C   0  0  0  0  0  3  0  0  0  0  0  0
  160.9240  204.9220  150.4560 C   0  0  0  0  0  3  0  0  0  0  0  0
  161.1260  209.0440  154.4080 N   0  0  0  0  0  0  0  0  0  0  0  0
  160.2720  205.8420  152.9690 O   0  0  0  0  0  0  0  0  0  0  0  0
  160.8840  209.7790  155.6390 C   0  0  0  0  0  1  0  0  0  0  0  0
  161.4180  206.0920  149.8730 C   0  0  0  0  0  0  0  0  0  0  0  0
  160.7610  203.7700  149.6850 C   0  0  0  0  0  3  0  0  0  0  0  0
  161.7530  206.0750  148.4920 C   0  0  0  0  0  0  0  0  0  0  0  0
  161.7990  208.9800  152.0050 C   0  0  0  0  0  0  0  0  0  0  0  0
  161.6110  207.2870  150.5860 C   0  0  0  0  0  0  0  0  0  0  0  0
  160.9690  207.5830  154.4470 C   0  0  0  0  0  2  0  0  0  0  0  0
  162.2670  207.2280  147.8700 C   0  0  0  0  0  3  0  0  0  0  0  0
  162.0200  210.9340  153.3380 O   0  0  0  0  0  0  0  0  0  0  0  0
  161.6740  209.7240  153.2630 C   0  0  0  0  0  0  0  0  0  0  0  0
  160.8370  206.9600  153.0800 C   0  0  0  0  0  0  0  0  0  0  0  0
  162.6880  210.7940  150.4950 C   0  0  0  0  0  2  0  0  0  0  0  0
  159.8050  212.8150  148.0890 C   0  0  0  0  0  3  0  0  0  0  0  0
  161.6650  211.4870  149.6610 C   0  0  0  0  0  0  0  0  0  0  0  0
  160.6700  212.2540  150.2740 C   0  0  0  0  0  3  0  0  0  0  0  0
  159.7350  212.9190  149.4780 C   0  0  0  0  0  3  0  0  0  0  0  0
  160.8180  212.0440  147.5130 C   0  0  0  0  0  3  0  0  0  0  0  0
  161.7200  211.4030  148.3040 N   0  0  0  0  0  0  0  0  0  0  0  0
  1 14  1  0  0  0  0
  2 15  1  0  0  0  0
  2  1  1  0  0  0  0
  3 14  2  0  0  0  0
  3 20  1  0  0  0  0
  4  5  2  0  0  0  0
  4 13  1  0  0  0  0
  5 12  1  0  0  0  0
  6  2  2  0  0  0  0
  8 16  1  0  0  0  0
  8 10  1  0  0  0  0
  9 20  2  0  0  0  0
 11  7  1  0  0  0  0
 11 15  2  0  0  0  0
 12  7  2  0  0  0  0
 13 11  1  0  0  0  0
 14 19  1  0  0  0  0
 15  3  1  0  0  0  0
 17 13  2  0  0  0  0
 17  6  1  0  0  0  0
 19 18  2  0  0  0  0
 19  8  1  0  0  0  0
 20 16  1  0  0  0  0
 21  1  1  0  0  0  0
 22 25  1  0  0  0  0
 23 24  1  0  0  0  0
 23 21  1  0  0  0  0
 25 24  2  0  0  0  0
 26 22  2  0  0  0  0
 26 27  1  0  0  0  0
 27 23  2  0  0  0  0
M  END
>  <MODEL>
8

>  <REMARK>
 VINA RESULT:      -6.0      2.103      4.530
  Name = 
  2 active torsions:
  status: ('A' for Active; 'I' for Inactive)
    1  A    between atoms: N_1  and  C_15
    2  A    between atoms: C_9  and  C_15
                            x       y       z     vdW  Elec       q    Type
                         _______ _______ _______ _____ _____    ______ ____

>  <TORSDO>
F 2

$$$$
=
 OpenBabel11052423203D

 27 31  0  0  0  0  0  0  0  0999 V2000
  162.0710  206.0300  148.5470 N   0  0  0  0  0  0  0  0  0  0  0  0
  161.9890  207.1090  149.3520 C   0  0  0  0  0  0  0  0  0  0  0  0
  161.2900  205.3870  150.5620 C   0  0  0  0  0  0  0  0  0  0  0  0
  161.5200  210.0670  152.2100 N   0  0  0  0  0  0  0  0  0  0  0  0
  161.0350  209.7990  153.4520 C   0  0  0  0  0  3  0  0  0  0  0  0
  162.3310  208.4210  149.0240 C   0  0  0  0  0  3  0  0  0  0  0  0
  160.8310  207.4680  152.8700 C   0  0  0  0  0  3  0  0  0  0  0  0
  161.1310  202.6120  149.8740 N   0  0  0  0  0  0  0  0  0  0  0  0
  160.7040  204.7180  152.7770 O   0  0  0  0  0  0  0  0  0  0  0  0
  161.1610  201.1930  149.5580 C   0  0  0  0  0  1  0  0  0  0  0  0
  161.3330  207.7460  151.5970 C   0  0  0  0  0  0  0  0  0  0  0  0
  160.6810  208.4950  153.8030 C   0  0  0  0  0  3  0  0  0  0  0  0
  161.6760  209.0880  151.2780 C   0  0  0  0  0  0  0  0  0  0  0  0
  161.6440  204.9850  149.2920 C   0  0  0  0  0  0  0  0  0  0  0  0
  161.5090  206.7650  150.6050 C   0  0  0  0  0  0  0  0  0  0  0  0
  160.4640  203.0170  151.1200 C   0  0  0  0  0  2  0  0  0  0  0  0
  162.1720  209.4120  150.0020 C   0  0  0  0  0  3  0  0  0  0  0  0
  161.9280  203.2040  147.7450 O   0  0  0  0  0  0  0  0  0  0  0  0
  161.5810  203.5720  148.8990 C   0  0  0  0  0  0  0  0  0  0  0  0
  160.8260  204.4120  151.5640 C   0  0  0  0  0  0  0  0  0  0  0  0
  162.5950  205.9960  147.1850 C   0  0  0  0  0  2  0  0  0  0  0  0
  159.6000  204.7340  144.4230 C   0  0  0  0  0  3  0  0  0  0  0  0
  161.5350  205.5480  146.2370 C   0  0  0  0  0  0  0  0  0  0  0  0
  160.3200  206.2360  146.1740 C   0  0  0  0  0  3  0  0  0  0  0  0
  159.3480  205.8210  145.2610 C   0  0  0  0  0  3  0  0  0  0  0  0
  160.8290  204.0760  144.5100 C   0  0  0  0  0  3  0  0  0  0  0  0
  161.7640  204.4940  145.4060 N   0  0  0  0  0  0  0  0  0  0  0  0
  1 14  1  0  0  0  0
  1  2  1  0  0  0  0
  2 15  1  0  0  0  0
  3 15  1  0  0  0  0
  3 20  1  0  0  0  0
  4  5  2  0  0  0  0
  5 12  1  0  0  0  0
  6  2  2  0  0  0  0
  6 17  1  0  0  0  0
  7 12  2  0  0  0  0
  8 16  1  0  0  0  0
 10  8  1  0  0  0  0
 11  7  1  0  0  0  0
 13 11  1  0  0  0  0
 13  4  1  0  0  0  0
 14  3  2  0  0  0  0
 15 11  2  0  0  0  0
 16 20  1  0  0  0  0
 17 13  2  0  0  0  0
 18 19  2  0  0  0  0
 19 14  1  0  0  0  0
 19  8  1  0  0  0  0
 20  9  2  0  0  0  0
 21  1  1  0  0  0  0
 22 26  2  0  0  0  0
 22 25  1  0  0  0  0
 23 21  1  0  0  0  0
 24 23  1  0  0  0  0
 25 24  2  0  0  0  0
 26 27  1  0  0  0  0
 27 23  2  0  0  0  0
M  END
>  <MODEL>
9

>  <REMARK>
 VINA RESULT:      -5.9      2.961      7.291
  Name = 
  2 active torsions:
  status: ('A' for Active; 'I' for Inactive)
    1  A    between atoms: N_1  and  C_15
    2  A    between atoms: C_9  and  C_15
                            x       y       z     vdW  Elec       q    Type
                         _______ _______ _______ _____ _____    ______ ____

>  <TORSDO>
F 2

$$$$
