=
 OpenBabel11052422313D

 31 34  0  0  1  0  0  0  0  0999 V2000
  160.9790  207.9450  152.1150 C   0  0  1  0  0  3  0  0  0  0  0  0
  159.1150  211.0410  153.4280 C   0  0  2  0  0  3  0  0  0  0  0  0
  159.5580  211.6770  154.7440 C   0  0  0  0  0  0  0  0  0  0  0  0
  162.1430  210.5420  154.7940 Cl  0  0  0  0  0  0  0  0  0  0  0  0
  160.0550  210.1450  152.6710 C   0  0  0  0  0  0  0  0  0  0  0  0
  162.3330  208.6130  151.8660 C   0  0  0  0  0  2  0  0  0  0  0  0
  160.8050  211.4990  155.4050 C   0  0  0  0  0  0  0  0  0  0  0  0
  159.5250  212.8720  151.6590 C   0  0  2  0  0  3  0  0  0  0  0  0
  161.1810  206.6200  152.8190 C   0  0  0  0  0  1  0  0  0  0  0  0
  157.2840  212.7500  154.6550 C   0  0  0  0  0  2  0  0  0  0  0  0
  161.0330  212.1330  156.6310 C   0  0  0  0  0  3  0  0  0  0  0  0
  160.9000  212.1970  151.5090 C   0  0  0  0  0  2  0  0  0  0  0  0
  158.4820  212.0830  152.4780 C   0  0  2  0  0  3  0  0  0  0  0  0
  160.1100  208.8380  152.9510 C   0  0  0  0  0  3  0  0  0  0  0  0
  160.0590  212.9400  157.2150 C   0  0  0  0  0  3  0  0  0  0  0  0
  160.8110  210.6740  151.4720 C   0  0  1  0  0  3  0  0  0  0  0  0
  162.2140  210.0590  151.3410 C   0  0  0  0  0  2  0  0  0  0  0  0
  157.5240  213.0680  153.1770 C   0  0  0  0  0  2  0  0  0  0  0  0
  158.5920  212.5140  155.3450 C   0  0  0  0  0  0  0  0  0  0  0  0
  158.8400  213.1320  156.5710 C   0  0  0  0  0  3  0  0  0  0  0  0
  161.0420  213.6550  149.2990 O   0  0  0  0  0  0  0  0  0  0  0  0
  159.7850  213.6770  149.2380 C   0  0  0  0  0  0  0  0  0  0  0  0
  158.9900  213.2760  150.3630 N   0  0  0  0  0  2  0  0  0  0  0  0
  160.1690  214.4510  146.9240 C   0  0  0  0  0  1  0  0  0  0  0  0
  159.1260  214.1210  147.9760 C   0  0  1  0  0  3  0  0  0  0  0  0
  158.0050  212.8260  147.3630 S   0  0  0  0  0  0  0  0  0  0  0  0
  158.2010  213.3390  145.6320 C   0  0  0  0  0  2  0  0  0  0  0  0
  159.6350  212.4630  143.7440 C   0  0  0  0  0  0  0  0  0  0  0  0
  160.0090  213.8400  143.3130 C   0  0  0  0  0  1  0  0  0  0  0  0
  160.0930  211.4750  143.1150 O   0  0  0  0  0  0  0  0  0  0  0  0
  158.7680  212.2460  144.8590 N   0  0  0  0  0  2  0  0  0  0  0  0
  1  9  1  1  0  0  0
  1 14  1  0  0  0  0
  2  5  1  6  0  0  0
  2  3  1  0  0  0  0
  3 19  2  0  0  0  0
  3  7  1  0  0  0  0
  4  7  1  0  0  0  0
  5 14  2  0  0  0  0
  6  1  1  0  0  0  0
  7 11  2  0  0  0  0
  8 23  1  6  0  0  0
  8 13  1  0  0  0  0
 10 19  1  0  0  0  0
 11 15  1  0  0  0  0
 12  8  1  0  0  0  0
 13 18  1  1  0  0  0
 13  2  1  0  0  0  0
 16 17  1  1  0  0  0
 16 12  1  0  0  0  0
 16  5  1  0  0  0  0
 17  6  1  0  0  0  0
 18 10  1  0  0  0  0
 19 20  1  0  0  0  0
 20 15  2  0  0  0  0
 22 21  2  0  0  0  0
 22 23  1  0  0  0  0
 25 24  1  6  0  0  0
 25 22  1  0  0  0  0
 26 25  1  0  0  0  0
 27 26  1  0  0  0  0
 28 31  1  0  0  0  0
 29 28  1  0  0  0  0
 30 28  2  0  0  0  0
 31 27  1  0  0  0  0
M  END
>  <MODEL>
1

>  <REMARK>
 VINA RESULT:      -4.7      0.000      0.000
  Name = 
  5 active torsions:
  status: ('A' for Active; 'I' for Inactive)
    1  A    between atoms: S_6  and  C_19
    2  A    between atoms: S_6  and  C_22
    3  A    between atoms: C_9  and  C_22
    4  A    between atoms: C_15  and  N_23
    5  A    between atoms: C_19  and  N_24
                            x       y       z     vdW  Elec       q    Type
                         _______ _______ _______ _____ _____    ______ ____

>  <TORSDO>
F 5

$$$$
=
 OpenBabel11052422313D

 31 34  0  0  1  0  0  0  0  0999 V2000
  162.6810  213.4820  148.0810 C   0  0  1  0  0  3  0  0  0  0  0  0
  159.9520  213.6050  150.7860 C   0  0  2  0  0  3  0  0  0  0  0  0
  158.4840  213.6120  150.3660 C   0  0  0  0  0  0  0  0  0  0  0  0
  158.8890  212.5860  147.7670 Cl  0  0  0  0  0  0  0  0  0  0  0  0
  161.0060  213.1190  149.8310 C   0  0  0  0  0  0  0  0  0  0  0  0
  162.3580  212.0910  147.5280 C   0  0  0  0  0  2  0  0  0  0  0  0
  157.9510  213.2270  149.1040 C   0  0  0  0  0  0  0  0  0  0  0  0
  160.2280  211.4150  152.1180 C   0  0  2  0  0  3  0  0  0  0  0  0
  162.8940  214.4520  146.9390 C   0  0  0  0  0  1  0  0  0  0  0  0
  158.1180  214.4490  152.7100 C   0  0  0  0  0  2  0  0  0  0  0  0
  156.5750  213.3310  148.8750 C   0  0  0  0  0  3  0  0  0  0  0  0
  160.6270  210.8210  150.7560 C   0  0  0  0  0  2  0  0  0  0  0  0
  160.1420  212.9540  152.1760 C   0  0  2  0  0  3  0  0  0  0  0  0
  161.5590  213.9630  148.9540 C   0  0  0  0  0  3  0  0  0  0  0  0
  155.7150  213.8030  149.8650 C   0  0  0  0  0  3  0  0  0  0  0  0
  161.5760  211.7240  149.9720 C   0  0  1  0  0  3  0  0  0  0  0  0
  161.9210  211.0880  148.6160 C   0  0  0  0  0  2  0  0  0  0  0  0
  159.0830  213.3720  153.2140 C   0  0  0  0  0  2  0  0  0  0  0  0
  157.5920  214.0700  151.3600 C   0  0  0  0  0  0  0  0  0  0  0  0
  156.2230  214.1700  151.1070 C   0  0  0  0  0  3  0  0  0  0  0  0
  159.3380  210.2470  154.6350 O   0  0  0  0  0  0  0  0  0  0  0  0
  160.5750  210.3450  154.4230 C   0  0  0  0  0  0  0  0  0  0  0  0
  161.0670  210.8880  153.1900 N   0  0  0  0  0  2  0  0  0  0  0  0
  161.3900  210.7290  156.7230 C   0  0  0  0  0  1  0  0  0  0  0  0
  161.5300  209.8830  155.4710 C   0  0  1  0  0  3  0  0  0  0  0  0
  161.2350  208.1310  155.8630 S   0  0  0  0  0  0  0  0  0  0  0  0
  161.1260  207.6570  154.1130 C   0  0  0  0  0  2  0  0  0  0  0  0
  161.2260  205.5430  152.7320 C   0  0  0  0  0  0  0  0  0  0  0  0
  161.2490  206.3100  151.4540 C   0  0  0  0  0  1  0  0  0  0  0  0
  161.2590  204.2860  152.6960 O   0  0  0  0  0  0  0  0  0  0  0  0
  161.1670  206.2080  153.9950 N   0  0  0  0  0  2  0  0  0  0  0  0
  1  9  1  6  0  0  0
  1 14  1  0  0  0  0
  2  5  1  6  0  0  0
  2 13  1  0  0  0  0
  3  2  1  0  0  0  0
  3 19  1  0  0  0  0
  4  7  1  0  0  0  0
  5 16  1  0  0  0  0
  6  1  1  0  0  0  0
  6 17  1  0  0  0  0
  7  3  2  0  0  0  0
  8 13  1  0  0  0  0
  8 23  1  1  0  0  0
 10 18  1  0  0  0  0
 11  7  1  0  0  0  0
 11 15  2  0  0  0  0
 12  8  1  0  0  0  0
 13 18  1  1  0  0  0
 14  5  2  0  0  0  0
 15 20  1  0  0  0  0
 16 17  1  6  0  0  0
 16 12  1  0  0  0  0
 19 10  1  0  0  0  0
 20 19  2  0  0  0  0
 22 21  2  0  0  0  0
 22 25  1  0  0  0  0
 23 22  1  0  0  0  0
 25 26  1  0  0  0  0
 25 24  1  1  0  0  0
 27 26  1  0  0  0  0
 28 31  1  0  0  0  0
 29 28  1  0  0  0  0
 30 28  2  0  0  0  0
 31 27  1  0  0  0  0
M  END
>  <MODEL>
2

>  <REMARK>
 VINA RESULT:      -4.6      4.314      7.347
  Name = 
  5 active torsions:
  status: ('A' for Active; 'I' for Inactive)
    1  A    between atoms: S_6  and  C_19
    2  A    between atoms: S_6  and  C_22
    3  A    between atoms: C_9  and  C_22
    4  A    between atoms: C_15  and  N_23
    5  A    between atoms: C_19  and  N_24
                            x       y       z     vdW  Elec       q    Type
                         _______ _______ _______ _____ _____    ______ ____

>  <TORSDO>
F 5

$$$$
=
 OpenBabel11052422313D

 31 34  0  0  1  0  0  0  0  0999 V2000
  162.0950  202.6850  151.9550 C   0  0  1  0  0  3  0  0  0  0  0  0
  161.9810  204.1570  148.4040 C   0  0  2  0  0  3  0  0  0  0  0  0
  161.2370  203.4010  147.3060 C   0  0  0  0  0  0  0  0  0  0  0  0
  159.6600  201.8090  149.0250 Cl  0  0  0  0  0  0  0  0  0  0  0  0
  161.6850  203.8700  149.8500 C   0  0  0  0  0  0  0  0  0  0  0  0
  160.5990  202.7860  152.2650 C   0  0  0  0  0  2  0  0  0  0  0  0
  160.2640  202.3770  147.4780 C   0  0  0  0  0  0  0  0  0  0  0  0
  160.6950  206.3790  148.6400 C   0  0  2  0  0  3  0  0  0  0  0  0
  162.6170  201.3280  152.3770 C   0  0  0  0  0  1  0  0  0  0  0  0
  162.5840  204.8770  145.7790 C   0  0  0  0  0  2  0  0  0  0  0  0
  159.7040  201.7610  146.3540 C   0  0  0  0  0  3  0  0  0  0  0  0
  159.8990  205.6220  149.7170 C   0  0  0  0  0  2  0  0  0  0  0  0
  161.9800  205.6810  148.1470 C   0  0  2  0  0  3  0  0  0  0  0  0
  162.3310  202.8870  150.4870 C   0  0  0  0  0  3  0  0  0  0  0  0
  160.0810  202.1360  145.0660 C   0  0  0  0  0  3  0  0  0  0  0  0
  160.7900  204.7980  150.6420 C   0  0  1  0  0  3  0  0  0  0  0  0
  159.9380  204.0520  151.6810 C   0  0  0  0  0  2  0  0  0  0  0  0
  162.2450  206.0680  146.6780 C   0  0  0  0  0  2  0  0  0  0  0  0
  161.5900  203.7770  145.9920 C   0  0  0  0  0  0  0  0  0  0  0  0
  161.0220  203.1460  144.8860 C   0  0  0  0  0  3  0  0  0  0  0  0
  162.7090  207.2930  150.5370 O   0  0  0  0  0  0  0  0  0  0  0  0
  161.9510  208.1480  150.0080 C   0  0  0  0  0  0  0  0  0  0  0  0
  160.9600  207.7550  149.0480 N   0  0  0  0  0  2  0  0  0  0  0  0
  161.9560  210.4700  149.1640 C   0  0  0  0  0  1  0  0  0  0  0  0
  162.0980  209.5830  150.3870 C   0  0  1  0  0  3  0  0  0  0  0  0
  160.8540  210.0330  151.6360 S   0  0  0  0  0  0  0  0  0  0  0  0
  161.9560  209.6270  153.0220 C   0  0  0  0  0  2  0  0  0  0  0  0
  160.7950  207.9980  154.5650 C   0  0  0  0  0  0  0  0  0  0  0  0
  161.2060  206.8300  153.7360 C   0  0  0  0  0  1  0  0  0  0  0  0
  160.1090  207.8050  155.6020 O   0  0  0  0  0  0  0  0  0  0  0  0
  161.1650  209.3300  154.2050 N   0  0  0  0  0  2  0  0  0  0  0  0
  1  6  1  0  0  0  0
  1  9  1  6  0  0  0
  2  3  1  6  0  0  0
  2  5  1  0  0  0  0
  3  7  1  0  0  0  0
  5 14  2  0  0  0  0
  5 16  1  0  0  0  0
  7  4  1  0  0  0  0
  8 23  1  1  0  0  0
  8 12  1  0  0  0  0
 10 19  1  0  0  0  0
 10 18  1  0  0  0  0
 11  7  2  0  0  0  0
 13 18  1  6  0  0  0
 13  2  1  0  0  0  0
 13  8  1  0  0  0  0
 14  1  1  0  0  0  0
 15 11  1  0  0  0  0
 16 12  1  6  0  0  0
 16 17  1  0  0  0  0
 17  6  1  0  0  0  0
 19  3  2  0  0  0  0
 20 15  2  0  0  0  0
 20 19  1  0  0  0  0
 22 25  1  0  0  0  0
 22 21  2  0  0  0  0
 23 22  1  0  0  0  0
 25 24  1  6  0  0  0
 25 26  1  0  0  0  0
 26 27  1  0  0  0  0
 27 31  1  0  0  0  0
 28 30  2  0  0  0  0
 29 28  1  0  0  0  0
 31 28  1  0  0  0  0
M  END
>  <MODEL>
3

>  <REMARK>
 VINA RESULT:      -4.1      5.685      9.751
  Name = 
  5 active torsions:
  status: ('A' for Active; 'I' for Inactive)
    1  A    between atoms: S_6  and  C_19
    2  A    between atoms: S_6  and  C_22
    3  A    between atoms: C_9  and  C_22
    4  A    between atoms: C_15  and  N_23
    5  A    between atoms: C_19  and  N_24
                            x       y       z     vdW  Elec       q    Type
                         _______ _______ _______ _____ _____    ______ ____

>  <TORSDO>
F 5

$$$$
=
 OpenBabel11052422313D

 31 34  0  0  1  0  0  0  0  0999 V2000
  160.9280  205.8000  150.5350 C   0  0  1  0  0  3  0  0  0  0  0  0
  160.1280  208.8320  152.7600 C   0  0  2  0  0  3  0  0  0  0  0  0
  160.4590  208.7730  154.2500 C   0  0  0  0  0  0  0  0  0  0  0  0
  162.3310  206.6660  154.0800 Cl  0  0  0  0  0  0  0  0  0  0  0  0
  160.8060  207.8940  151.8000 C   0  0  0  0  0  0  0  0  0  0  0  0
  162.4530  205.8470  150.6660 C   0  0  0  0  0  2  0  0  0  0  0  0
  161.3530  207.8730  154.8950 C   0  0  0  0  0  0  0  0  0  0  0  0
  161.6040  210.7400  151.8500 C   0  0  2  0  0  3  0  0  0  0  0  0
  160.4420  204.3760  150.7030 C   0  0  0  0  0  1  0  0  0  0  0  0
  158.8520  210.7030  154.3860 C   0  0  0  0  0  2  0  0  0  0  0  0
  161.5110  207.9350  156.2830 C   0  0  0  0  0  3  0  0  0  0  0  0
  162.6130  209.6140  151.5690 C   0  0  0  0  0  2  0  0  0  0  0  0
  160.1790  210.2810  152.2230 C   0  0  2  0  0  3  0  0  0  0  0  0
  160.2940  206.6800  151.5720 C   0  0  0  0  0  3  0  0  0  0  0  0
  160.8100  208.8660  157.0460 C   0  0  0  0  0  3  0  0  0  0  0  0
  161.9640  208.3770  150.9550 C   0  0  1  0  0  3  0  0  0  0  0  0
  163.0170  207.2820  150.7160 C   0  0  0  0  0  2  0  0  0  0  0  0
  159.5330  211.3190  153.1610 C   0  0  0  0  0  2  0  0  0  0  0  0
  159.7720  209.7190  155.0410 C   0  0  0  0  0  0  0  0  0  0  0  0
  159.9420  209.7590  156.4250 C   0  0  0  0  0  3  0  0  0  0  0  0
  161.9560  210.2070  149.0070 O   0  0  0  0  0  0  0  0  0  0  0  0
  161.7850  211.3980  149.3770 C   0  0  0  0  0  0  0  0  0  0  0  0
  161.5810  211.7130  150.7610 N   0  0  0  0  0  2  0  0  0  0  0  0
  163.1430  212.5520  147.6670 C   0  0  0  0  0  1  0  0  0  0  0  0
  161.7920  212.4840  148.3550 C   0  0  1  0  0  3  0  0  0  0  0  0
  160.4780  212.2030  147.1300 S   0  0  0  0  0  0  0  0  0  0  0  0
  161.1910  213.3840  145.9490 C   0  0  0  0  0  2  0  0  0  0  0  0
  162.1900  212.9540  143.6680 C   0  0  0  0  0  0  0  0  0  0  0  0
  163.4570  213.6530  144.0270 C   0  0  0  0  0  1  0  0  0  0  0  0
  162.0660  212.4580  142.5180 O   0  0  0  0  0  0  0  0  0  0  0  0
  161.1180  212.8360  144.6040 N   0  0  0  0  0  2  0  0  0  0  0  0
  1  6  1  0  0  0  0
  1  9  1  1  0  0  0
  1 14  1  0  0  0  0
  2  5  1  6  0  0  0
  2  3  1  0  0  0  0
  3  7  2  0  0  0  0
  3 19  1  0  0  0  0
  4  7  1  0  0  0  0
  6 17  1  0  0  0  0
  7 11  1  0  0  0  0
  8 23  1  6  0  0  0
  8 13  1  0  0  0  0
 10 19  1  0  0  0  0
 11 15  2  0  0  0  0
 12  8  1  0  0  0  0
 13  2  1  0  0  0  0
 13 18  1  1  0  0  0
 14  5  2  0  0  0  0
 16 17  1  1  0  0  0
 16 12  1  0  0  0  0
 16  5  1  0  0  0  0
 18 10  1  0  0  0  0
 19 20  2  0  0  0  0
 20 15  1  0  0  0  0
 21 22  2  0  0  0  0
 22 23  1  0  0  0  0
 25 24  1  6  0  0  0
 25 22  1  0  0  0  0
 26 25  1  0  0  0  0
 27 26  1  0  0  0  0
 28 29  1  0  0  0  0
 28 31  1  0  0  0  0
 30 28  2  0  0  0  0
 31 27  1  0  0  0  0
M  END
>  <MODEL>
4

>  <REMARK>
 VINA RESULT:      -3.9      2.372      3.089
  Name = 
  5 active torsions:
  status: ('A' for Active; 'I' for Inactive)
    1  A    between atoms: S_6  and  C_19
    2  A    between atoms: S_6  and  C_22
    3  A    between atoms: C_9  and  C_22
    4  A    between atoms: C_15  and  N_23
    5  A    between atoms: C_19  and  N_24
                            x       y       z     vdW  Elec       q    Type
                         _______ _______ _______ _____ _____    ______ ____

>  <TORSDO>
F 5

$$$$
=
 OpenBabel11052422313D

 31 34  0  0  1  0  0  0  0  0999 V2000
  160.1200  205.8660  145.4030 C   0  0  1  0  0  3  0  0  0  0  0  0
  160.5420  206.1900  149.2110 C   0  0  2  0  0  3  0  0  0  0  0  0
  160.8820  204.9490  150.0330 C   0  0  0  0  0  0  0  0  0  0  0  0
  161.8650  203.4010  147.8850 Cl  0  0  0  0  0  0  0  0  0  0  0  0
  160.8030  206.2080  147.7310 C   0  0  0  0  0  0  0  0  0  0  0  0
  161.5640  205.4800  145.0700 C   0  0  0  0  0  2  0  0  0  0  0  0
  161.4160  203.7210  149.5510 C   0  0  0  0  0  0  0  0  0  0  0  0
  162.5710  207.7480  149.5310 C   0  0  2  0  0  3  0  0  0  0  0  0
  159.1610  204.9670  144.6520 C   0  0  0  0  0  1  0  0  0  0  0  0
  160.0810  206.3590  151.9560 C   0  0  0  0  0  2  0  0  0  0  0  0
  161.6340  202.6660  150.4430 C   0  0  0  0  0  3  0  0  0  0  0  0
  163.0980  207.0640  148.2590 C   0  0  0  0  0  2  0  0  0  0  0  0
  161.0910  207.4760  149.8710 C   0  0  2  0  0  3  0  0  0  0  0  0
  159.8820  205.7450  146.8800 C   0  0  0  0  0  3  0  0  0  0  0  0
  161.3420  202.7990  151.7990 C   0  0  0  0  0  3  0  0  0  0  0  0
  162.0270  206.9100  147.1830 C   0  0  1  0  0  3  0  0  0  0  0  0
  162.6070  206.2040  145.9460 C   0  0  0  0  0  2  0  0  0  0  0  0
  160.8940  207.5300  151.3980 C   0  0  0  0  0  2  0  0  0  0  0  0
  160.6090  205.0670  151.4130 C   0  0  0  0  0  0  0  0  0  0  0  0
  160.8310  203.9990  152.2840 C   0  0  0  0  0  3  0  0  0  0  0  0
  161.2090  209.8060  147.9830 O   0  0  0  0  0  0  0  0  0  0  0  0
  162.1720  210.1480  148.7180 C   0  0  0  0  0  0  0  0  0  0  0  0
  162.8610  209.1790  149.5210 N   0  0  0  0  0  2  0  0  0  0  0  0
  163.7350  211.8170  147.7830 C   0  0  0  0  0  1  0  0  0  0  0  0
  162.5900  211.5790  148.7500 C   0  0  1  0  0  3  0  0  0  0  0  0
  161.1830  212.6540  148.3340 S   0  0  0  0  0  0  0  0  0  0  0  0
  162.0010  213.3170  146.8540 C   0  0  0  0  0  2  0  0  0  0  0  0
  161.8130  212.9520  144.3600 C   0  0  0  0  0  0  0  0  0  0  0  0
  163.2380  213.3310  144.1390 C   0  0  0  0  0  1  0  0  0  0  0  0
  161.1030  212.6280  143.3740 O   0  0  0  0  0  0  0  0  0  0  0  0
  161.2410  212.9520  145.6690 N   0  0  0  0  0  2  0  0  0  0  0  0
  1  9  1  6  0  0  0
  1 14  1  0  0  0  0
  2  5  1  6  0  0  0
  2 13  1  0  0  0  0
  2  3  1  0  0  0  0
  3 19  1  0  0  0  0
  4  7  1  0  0  0  0
  6  1  1  0  0  0  0
  6 17  1  0  0  0  0
  7  3  2  0  0  0  0
  7 11  1  0  0  0  0
  8 23  1  6  0  0  0
  8 13  1  0  0  0  0
 11 15  2  0  0  0  0
 12  8  1  0  0  0  0
 13 18  1  1  0  0  0
 14  5  2  0  0  0  0
 15 20  1  0  0  0  0
 16 17  1  6  0  0  0
 16  5  1  0  0  0  0
 16 12  1  0  0  0  0
 18 10  1  0  0  0  0
 19 10  1  0  0  0  0
 19 20  2  0  0  0  0
 21 22  2  0  0  0  0
 22 25  1  0  0  0  0
 22 23  1  0  0  0  0
 25 24  1  6  0  0  0
 26 25  1  0  0  0  0
 27 26  1  0  0  0  0
 28 31  1  0  0  0  0
 29 28  1  0  0  0  0
 30 28  2  0  0  0  0
 31 27  1  0  0  0  0
M  END
>  <MODEL>
5

>  <REMARK>
 VINA RESULT:      -3.8      4.776      6.893
  Name = 
  5 active torsions:
  status: ('A' for Active; 'I' for Inactive)
    1  A    between atoms: S_6  and  C_19
    2  A    between atoms: S_6  and  C_22
    3  A    between atoms: C_9  and  C_22
    4  A    between atoms: C_15  and  N_23
    5  A    between atoms: C_19  and  N_24
                            x       y       z     vdW  Elec       q    Type
                         _______ _______ _______ _____ _____    ______ ____

>  <TORSDO>
F 5

$$$$
=
 OpenBabel11052422313D

 31 34  0  0  1  0  0  0  0  0999 V2000
  160.9670  205.6720  150.7830 C   0  0  1  0  0  3  0  0  0  0  0  0
  160.1690  208.9180  152.6840 C   0  0  2  0  0  3  0  0  0  0  0  0
  160.4560  208.9960  154.1820 C   0  0  0  0  0  0  0  0  0  0  0  0
  162.2870  206.8480  154.2700 Cl  0  0  0  0  0  0  0  0  0  0  0  0
  160.8540  207.8800  151.8390 C   0  0  0  0  0  0  0  0  0  0  0  0
  162.4880  205.7040  150.9560 C   0  0  0  0  0  2  0  0  0  0  0  0
  161.3120  208.1460  154.9360 C   0  0  0  0  0  0  0  0  0  0  0  0
  161.7100  210.7030  151.6400 C   0  0  2  0  0  3  0  0  0  0  0  0
  160.4460  204.2800  151.0710 C   0  0  0  0  0  1  0  0  0  0  0  0
  158.8870  210.9600  154.0850 C   0  0  0  0  0  2  0  0  0  0  0  0
  161.4330  208.3380  156.3170 C   0  0  0  0  0  3  0  0  0  0  0  0
  162.7030  209.5360  151.4990 C   0  0  0  0  0  2  0  0  0  0  0  0
  160.2650  210.3080  152.0130 C   0  0  2  0  0  3  0  0  0  0  0  0
  160.3230  206.6590  151.7120 C   0  0  0  0  0  3  0  0  0  0  0  0
  160.7300  209.3500  156.9660 C   0  0  0  0  0  3  0  0  0  0  0  0
  162.0450  208.2580  150.9860 C   0  0  1  0  0  3  0  0  0  0  0  0
  163.0810  207.1260  150.8850 C   0  0  0  0  0  2  0  0  0  0  0  0
  159.6150  211.4430  152.8280 C   0  0  0  0  0  2  0  0  0  0  0  0
  159.7670  210.0270  154.8580 C   0  0  0  0  0  0  0  0  0  0  0  0
  159.8990  210.1960  156.2360 C   0  0  0  0  0  3  0  0  0  0  0  0
  161.9530  209.8760  148.8570 O   0  0  0  0  0  0  0  0  0  0  0  0
  161.8850  211.1060  149.1130 C   0  0  0  0  0  0  0  0  0  0  0  0
  161.7380  211.5670  150.4640 N   0  0  0  0  0  2  0  0  0  0  0  0
  160.8310  211.8370  147.0020 C   0  0  0  0  0  1  0  0  0  0  0  0
  161.9540  212.0870  147.9920 C   0  0  1  0  0  3  0  0  0  0  0  0
  161.8570  213.7850  148.6350 S   0  0  0  0  0  0  0  0  0  0  0  0
  160.0650  213.8930  148.3550 C   0  0  0  0  0  2  0  0  0  0  0  0
  157.9960  213.6200  149.7800 C   0  0  0  0  0  0  0  0  0  0  0  0
  157.1870  213.1570  148.6170 C   0  0  0  0  0  1  0  0  0  0  0  0
  157.4540  213.7060  150.9120 O   0  0  0  0  0  0  0  0  0  0  0  0
  159.3730  213.9680  149.6320 N   0  0  0  0  0  2  0  0  0  0  0  0
  1  6  1  0  0  0  0
  1  9  1  1  0  0  0
  1 14  1  0  0  0  0
  2  5  1  6  0  0  0
  2  3  1  0  0  0  0
  3 19  2  0  0  0  0
  3  7  1  0  0  0  0
  4  7  1  0  0  0  0
  7 11  2  0  0  0  0
  8 23  1  6  0  0  0
  8 13  1  0  0  0  0
 10 19  1  0  0  0  0
 11 15  1  0  0  0  0
 12  8  1  0  0  0  0
 13  2  1  0  0  0  0
 13 18  1  1  0  0  0
 14  5  2  0  0  0  0
 16 17  1  1  0  0  0
 16 12  1  0  0  0  0
 16  5  1  0  0  0  0
 17  6  1  0  0  0  0
 18 10  1  0  0  0  0
 19 20  1  0  0  0  0
 20 15  2  0  0  0  0
 21 22  2  0  0  0  0
 22 23  1  0  0  0  0
 25 24  1  6  0  0  0
 25 26  1  0  0  0  0
 25 22  1  0  0  0  0
 27 26  1  0  0  0  0
 27 31  1  0  0  0  0
 28 30  2  0  0  0  0
 29 28  1  0  0  0  0
 31 28  1  0  0  0  0
M  END
>  <MODEL>
6

>  <REMARK>
 VINA RESULT:      -3.8      2.646      3.773
  Name = 
  5 active torsions:
  status: ('A' for Active; 'I' for Inactive)
    1  A    between atoms: S_6  and  C_19
    2  A    between atoms: S_6  and  C_22
    3  A    between atoms: C_9  and  C_22
    4  A    between atoms: C_15  and  N_23
    5  A    between atoms: C_19  and  N_24
                            x       y       z     vdW  Elec       q    Type
                         _______ _______ _______ _____ _____    ______ ____

>  <TORSDO>
F 5

$$$$
=
 OpenBabel11052422313D

 31 34  0  0  1  0  0  0  0  0999 V2000
  161.1900  205.7460  151.6290 C   0  0  1  0  0  3  0  0  0  0  0  0
  160.0430  209.0870  153.1460 C   0  0  2  0  0  3  0  0  0  0  0  0
  160.4230  209.4230  154.5870 C   0  0  0  0  0  0  0  0  0  0  0  0
  162.5640  207.5920  154.7880 Cl  0  0  0  0  0  0  0  0  0  0  0  0
  160.8160  208.0450  152.3860 C   0  0  0  0  0  0  0  0  0  0  0  0
  162.6970  206.0180  151.6510 C   0  0  0  0  0  2  0  0  0  0  0  0
  161.4530  208.8220  155.3640 C   0  0  0  0  0  0  0  0  0  0  0  0
  161.2110  210.9010  151.7350 C   0  0  2  0  0  3  0  0  0  0  0  0
  160.9120  204.3510  152.1470 C   0  0  0  0  0  1  0  0  0  0  0  0
  158.5680  211.1080  154.3770 C   0  0  0  0  0  2  0  0  0  0  0  0
  161.6430  209.2270  156.6890 C   0  0  0  0  0  3  0  0  0  0  0  0
  162.3580  209.8800  151.6570 C   0  0  0  0  0  2  0  0  0  0  0  0
  159.8760  210.3640  152.2910 C   0  0  2  0  0  3  0  0  0  0  0  0
  160.4710  206.7560  152.4740 C   0  0  0  0  0  3  0  0  0  0  0  0
  160.8420  210.2140  157.2610 C   0  0  0  0  0  3  0  0  0  0  0  0
  161.8700  208.4600  151.3830 C   0  0  1  0  0  3  0  0  0  0  0  0
  163.0570  207.4850  151.3370 C   0  0  0  0  0  2  0  0  0  0  0  0
  159.1200  211.5010  153.0040 C   0  0  0  0  0  2  0  0  0  0  0  0
  159.6350  210.4320  155.1810 C   0  0  0  0  0  0  0  0  0  0  0  0
  159.8400  210.8170  156.5060 C   0  0  0  0  0  3  0  0  0  0  0  0
  160.4050  213.6700  151.3170 O   0  0  0  0  0  0  0  0  0  0  0  0
  160.5980  212.9430  150.3080 C   0  0  0  0  0  0  0  0  0  0  0  0
  161.0200  211.5800  150.4560 N   0  0  0  0  0  2  0  0  0  0  0  0
  160.9980  212.6140  147.8930 C   0  0  0  0  0  1  0  0  0  0  0  0
  160.3860  213.5160  148.9480 C   0  0  1  0  0  3  0  0  0  0  0  0
  158.6090  213.7380  148.6290 S   0  0  0  0  0  0  0  0  0  0  0  0
  158.6550  212.7340  147.1160 C   0  0  0  0  0  2  0  0  0  0  0  0
  158.6850  213.3960  144.6770 C   0  0  0  0  0  0  0  0  0  0  0  0
  159.8030  212.4570  144.3770 C   0  0  0  0  0  1  0  0  0  0  0  0
  158.2050  214.0980  143.7500 O   0  0  0  0  0  0  0  0  0  0  0  0
  158.1500  213.5130  145.9970 N   0  0  0  0  0  2  0  0  0  0  0  0
  1  6  1  0  0  0  0
  1  9  1  1  0  0  0
  1 14  1  0  0  0  0
  2  5  1  6  0  0  0
  2  3  1  0  0  0  0
  3 19  2  0  0  0  0
  3  7  1  0  0  0  0
  4  7  1  0  0  0  0
  5 14  2  0  0  0  0
  7 11  2  0  0  0  0
  8 23  1  6  0  0  0
  8 13  1  0  0  0  0
 10 19  1  0  0  0  0
 11 15  1  0  0  0  0
 12  8  1  0  0  0  0
 13 18  1  1  0  0  0
 13  2  1  0  0  0  0
 16 17  1  1  0  0  0
 16 12  1  0  0  0  0
 16  5  1  0  0  0  0
 17  6  1  0  0  0  0
 18 10  1  0  0  0  0
 19 20  1  0  0  0  0
 20 15  2  0  0  0  0
 22 23  1  0  0  0  0
 22 21  2  0  0  0  0
 25 24  1  6  0  0  0
 25 22  1  0  0  0  0
 26 25  1  0  0  0  0
 27 26  1  0  0  0  0
 28 31  1  0  0  0  0
 29 28  1  0  0  0  0
 30 28  2  0  0  0  0
 31 27  1  0  0  0  0
M  END
>  <MODEL>
7

>  <REMARK>
 VINA RESULT:      -3.2      1.730      2.358
  Name = 
  5 active torsions:
  status: ('A' for Active; 'I' for Inactive)
    1  A    between atoms: S_6  and  C_19
    2  A    between atoms: S_6  and  C_22
    3  A    between atoms: C_9  and  C_22
    4  A    between atoms: C_15  and  N_23
    5  A    between atoms: C_19  and  N_24
                            x       y       z     vdW  Elec       q    Type
                         _______ _______ _______ _____ _____    ______ ____

>  <TORSDO>
F 5

$$$$
=
 OpenBabel11052422313D

 31 34  0  0  1  0  0  0  0  0999 V2000
  160.4120  205.4180  144.8370 C   0  0  1  0  0  3  0  0  0  0  0  0
  160.4810  205.0210  148.6610 C   0  0  2  0  0  3  0  0  0  0  0  0
  160.9460  203.6980  149.2650 C   0  0  0  0  0  0  0  0  0  0  0  0
  162.3210  202.7670  146.9820 Cl  0  0  0  0  0  0  0  0  0  0  0  0
  160.8500  205.3740  147.2470 C   0  0  0  0  0  0  0  0  0  0  0  0
  161.9190  205.3100  144.5930 C   0  0  0  0  0  2  0  0  0  0  0  0
  161.7000  202.6780  148.6200 C   0  0  0  0  0  0  0  0  0  0  0  0
  162.2110  206.7460  149.4830 C   0  0  2  0  0  3  0  0  0  0  0  0
  159.6650  204.5660  143.8320 C   0  0  0  0  0  1  0  0  0  0  0  0
  159.7880  204.5660  151.3230 C   0  0  0  0  0  2  0  0  0  0  0  0
  162.0110  201.5050  149.3160 C   0  0  0  0  0  3  0  0  0  0  0  0
  162.9360  206.4130  148.1680 C   0  0  0  0  0  2  0  0  0  0  0  0
  160.7690  206.2100  149.6050 C   0  0  2  0  0  3  0  0  0  0  0  0
  160.0810  204.9690  146.2300 C   0  0  0  0  0  3  0  0  0  0  0  0
  161.5970  201.3200  150.6340 C   0  0  0  0  0  3  0  0  0  0  0  0
  161.9880  206.3330  146.9740 C   0  0  1  0  0  3  0  0  0  0  0  0
  162.7660  205.9780  145.6960 C   0  0  0  0  0  2  0  0  0  0  0  0
  160.4490  205.9260  151.0860 C   0  0  0  0  0  2  0  0  0  0  0  0
  160.5520  203.4960  150.6060 C   0  0  0  0  0  0  0  0  0  0  0  0
  160.8690  202.3150  151.2790 C   0  0  0  0  0  3  0  0  0  0  0  0
  162.2230  208.0080  152.1090 O   0  0  0  0  0  0  0  0  0  0  0  0
  162.2520  208.7460  151.0900 C   0  0  0  0  0  0  0  0  0  0  0  0
  162.2740  208.1750  149.7730 N   0  0  0  0  0  2  0  0  0  0  0  0
  162.1820  210.9180  149.9160 C   0  0  0  0  0  1  0  0  0  0  0  0
  162.2690  210.2260  151.2640 C   0  0  1  0  0  3  0  0  0  0  0  0
  160.8890  210.7490  152.3270 S   0  0  0  0  0  0  0  0  0  0  0  0
  161.8660  210.5750  153.8480 C   0  0  0  0  0  2  0  0  0  0  0  0
  160.3770  209.6730  155.6800 C   0  0  0  0  0  0  0  0  0  0  0  0
  160.5700  208.2680  155.2250 C   0  0  0  0  0  1  0  0  0  0  0  0
  159.6440  209.9020  156.6770 O   0  0  0  0  0  0  0  0  0  0  0  0
  161.0070  210.7640  155.0070 N   0  0  0  0  0  2  0  0  0  0  0  0
  1  9  1  6  0  0  0
  1 14  1  0  0  0  0
  2  5  1  6  0  0  0
  2  3  1  0  0  0  0
  2 13  1  0  0  0  0
  3 19  1  0  0  0  0
  4  7  1  0  0  0  0
  6  1  1  0  0  0  0
  6 17  1  0  0  0  0
  7  3  2  0  0  0  0
  7 11  1  0  0  0  0
  8 13  1  0  0  0  0
  8 23  1  6  0  0  0
 11 15  2  0  0  0  0
 12  8  1  0  0  0  0
 13 18  1  1  0  0  0
 14  5  2  0  0  0  0
 15 20  1  0  0  0  0
 16 17  1  6  0  0  0
 16  5  1  0  0  0  0
 16 12  1  0  0  0  0
 18 10  1  0  0  0  0
 19 20  2  0  0  0  0
 19 10  1  0  0  0  0
 22 25  1  0  0  0  0
 22 21  2  0  0  0  0
 23 22  1  0  0  0  0
 25 24  1  6  0  0  0
 25 26  1  0  0  0  0
 26 27  1  0  0  0  0
 27 31  1  0  0  0  0
 28 30  2  0  0  0  0
 29 28  1  0  0  0  0
 31 28  1  0  0  0  0
M  END
>  <MODEL>
8

>  <REMARK>
 VINA RESULT:      -3.1      5.417      9.220
  Name = 
  5 active torsions:
  status: ('A' for Active; 'I' for Inactive)
    1  A    between atoms: S_6  and  C_19
    2  A    between atoms: S_6  and  C_22
    3  A    between atoms: C_9  and  C_22
    4  A    between atoms: C_15  and  N_23
    5  A    between atoms: C_19  and  N_24
                            x       y       z     vdW  Elec       q    Type
                         _______ _______ _______ _____ _____    ______ ____

>  <TORSDO>
F 5

$$$$
=
 OpenBabel11052422313D

 31 34  0  0  1  0  0  0  0  0999 V2000
  159.9980  205.8390  145.5250 C   0  0  1  0  0  3  0  0  0  0  0  0
  160.6220  206.3780  149.2800 C   0  0  2  0  0  3  0  0  0  0  0  0
  161.0060  205.1840  150.1520 C   0  0  0  0  0  0  0  0  0  0  0  0
  161.8750  203.5150  148.0460 Cl  0  0  0  0  0  0  0  0  0  0  0  0
  160.8040  206.3110  147.7900 C   0  0  0  0  0  0  0  0  0  0  0  0
  161.4220  205.4320  145.1380 C   0  0  0  0  0  2  0  0  0  0  0  0
  161.5150  203.9300  149.7130 C   0  0  0  0  0  0  0  0  0  0  0  0
  162.6630  207.9470  149.4030 C   0  0  2  0  0  3  0  0  0  0  0  0
  159.0010  204.9010  144.8790 C   0  0  0  0  0  1  0  0  0  0  0  0
  160.3080  206.7020  152.0320 C   0  0  0  0  0  2  0  0  0  0  0  0
  161.7820  202.9270  150.6500 C   0  0  0  0  0  3  0  0  0  0  0  0
  163.1220  207.1910  148.1450 C   0  0  0  0  0  2  0  0  0  0  0  0
  161.2030  207.6980  149.8360 C   0  0  2  0  0  3  0  0  0  0  0  0
  159.8380  205.8020  147.0160 C   0  0  0  0  0  3  0  0  0  0  0  0
  161.5620  203.1370  152.0100 C   0  0  0  0  0  3  0  0  0  0  0  0
  161.9950  206.9780  147.1380 C   0  0  1  0  0  3  0  0  0  0  0  0
  162.5100  206.2020  145.9140 C   0  0  0  0  0  2  0  0  0  0  0  0
  161.0890  207.8380  151.3660 C   0  0  0  0  0  2  0  0  0  0  0  0
  160.8080  205.3800  151.5360 C   0  0  0  0  0  0  0  0  0  0  0  0
  161.0770  204.3640  152.4520 C   0  0  0  0  0  3  0  0  0  0  0  0
  161.1060  209.9510  147.9730 O   0  0  0  0  0  0  0  0  0  0  0  0
  162.1600  210.3150  148.5560 C   0  0  0  0  0  0  0  0  0  0  0  0
  162.9510  209.3740  149.2960 N   0  0  0  0  0  2  0  0  0  0  0  0
  163.9750  211.8510  147.8860 C   0  0  0  0  0  1  0  0  0  0  0  0
  162.5800  211.7440  148.4740 C   0  0  1  0  0  3  0  0  0  0  0  0
  161.4000  212.6890  147.4630 S   0  0  0  0  0  0  0  0  0  0  0  0
  160.5200  213.3330  148.9160 C   0  0  0  0  0  2  0  0  0  0  0  0
  158.1210  213.3360  149.7100 C   0  0  0  0  0  0  0  0  0  0  0  0
  158.5350  213.3250  151.1410 C   0  0  0  0  0  1  0  0  0  0  0  0
  156.8960  213.3410  149.4220 O   0  0  0  0  0  0  0  0  0  0  0  0
  159.0890  213.3390  148.6590 N   0  0  0  0  0  2  0  0  0  0  0  0
  1  9  1  6  0  0  0
  1 14  1  0  0  0  0
  2  5  1  6  0  0  0
  2 13  1  0  0  0  0
  2  3  1  0  0  0  0
  3 19  1  0  0  0  0
  4  7  1  0  0  0  0
  6  1  1  0  0  0  0
  6 17  1  0  0  0  0
  7  3  2  0  0  0  0
  7 11  1  0  0  0  0
  8 23  1  6  0  0  0
  8 13  1  0  0  0  0
 11 15  2  0  0  0  0
 12  8  1  0  0  0  0
 13 18  1  1  0  0  0
 14  5  2  0  0  0  0
 15 20  1  0  0  0  0
 16 17  1  6  0  0  0
 16  5  1  0  0  0  0
 16 12  1  0  0  0  0
 18 10  1  0  0  0  0
 19 10  1  0  0  0  0
 19 20  2  0  0  0  0
 21 22  2  0  0  0  0
 22 23  1  0  0  0  0
 25 24  1  6  0  0  0
 25 22  1  0  0  0  0
 26 25  1  0  0  0  0
 26 27  1  0  0  0  0
 28 29  1  0  0  0  0
 30 28  2  0  0  0  0
 31 27  1  0  0  0  0
 31 28  1  0  0  0  0
M  END
>  <MODEL>
9

>  <REMARK>
 VINA RESULT:      -3.1      4.416      7.093
  Name = 
  5 active torsions:
  status: ('A' for Active; 'I' for Inactive)
    1  A    between atoms: S_6  and  C_19
    2  A    between atoms: S_6  and  C_22
    3  A    between atoms: C_9  and  C_22
    4  A    between atoms: C_15  and  N_23
    5  A    between atoms: C_19  and  N_24
                            x       y       z     vdW  Elec       q    Type
                         _______ _______ _______ _____ _____    ______ ____

>  <TORSDO>
F 5

$$$$
