=
 OpenBabel11062409193D

 37 39  0  0  1  0  0  0  0  0999 V2000
  161.2820  207.8130  150.7940 C   0  0  0  0  0  0  0  0  0  0  0  0
  163.2040  209.9640  151.8650 C   0  0  0  0  0  2  0  0  0  0  0  0
  160.8130  209.1710  151.2270 C   0  0  2  0  0  3  0  0  0  0  0  0
  162.6200  210.3660  155.2210 C   0  0  0  0  0  0  0  0  0  0  0  0
  161.1690  206.9440  151.7890 C   0  0  0  0  0  0  0  0  0  0  0  0
  161.9160  210.2430  151.0870 C   0  0  2  0  0  3  0  0  0  0  0  0
  160.6750  207.6300  152.9830 C   0  0  0  0  0  0  0  0  0  0  0  0
  162.6310  208.4430  148.7800 C   0  0  0  0  0  2  0  0  0  0  0  0
  160.9810  211.0310  153.6790 O   0  0  0  0  0  0  0  0  0  0  0  0
  163.3750  210.9740  152.9990 C   0  0  0  0  0  2  0  0  0  0  0  0
  161.6650  207.4410  149.3940 C   0  0  0  0  0  2  0  0  0  0  0  0
  160.4660  208.9110  152.6690 C   0  0  0  0  0  0  0  0  0  0  0  0
  162.1910  210.7680  149.6690 C   0  0  1  0  0  3  0  0  0  0  0  0
  162.3110  210.7940  154.0290 C   0  0  0  0  0  0  0  0  0  0  0  0
  162.9160  209.9520  156.3480 O   0  0  0  0  0  0  0  0  0  0  0  0
  160.0240  209.9760  153.6350 C   0  0  2  0  0  3  0  0  0  0  0  0
  161.9230  209.7690  148.5450 C   0  0  0  0  0  2  0  0  0  0  0  0
  160.4730  206.9980  154.3090 C   0  0  0  0  0  0  0  0  0  0  0  0
  160.7240  205.7720  154.4600 O   0  0  0  0  0  0  0  0  0  0  0  0
  160.0120  207.7680  155.4250 N   0  0  0  0  0  2  0  0  0  0  0  0
  159.8610  207.2120  156.7620 C   0  0  0  0  0  2  0  0  0  0  0  0
  161.1950  206.6860  157.2600 C   0  0  0  0  0  1  0  0  0  0  0  0
  158.4040  210.6370  153.1370 S   0  0  0  0  0  0  0  0  0  0  0  0
  158.2790  211.6920  154.6120 C   0  0  2  0  0  3  0  0  0  0  0  0
  158.4980  210.8510  155.8580 C   0  0  0  0  0  1  0  0  0  0  0  0
  156.1430  211.2110  154.9130 C   0  0  0  0  0  1  0  0  0  0  0  0
  157.0120  212.2740  154.6610 O   0  0  0  0  0  0  0  0  0  0  0  0
  161.3740  212.0270  149.4200 C   0  0  0  0  0  2  0  0  0  0  0  0
  160.0800  212.6200  147.5070 O   0  0  0  0  0  1  0  0  0  0  0  0
  161.3860  212.3930  147.9450 C   0  0  1  0  0  3  0  0  0  0  0  0
  162.2090  213.6280  147.7440 C   0  0  0  0  0  3  0  0  0  0  0  0
  162.6040  214.0570  146.5390 C   0  0  0  0  0  3  0  0  0  0  0  0
  163.4470  212.8730  144.6770 F   0  0  0  0  0  0  0  0  0  0  0  0
  162.2840  213.3410  145.2630 C   0  0  0  0  0  2  0  0  0  0  0  0
  161.5640  205.5020  151.7110 C   0  0  0  0  0  2  0  0  0  0  0  0
  160.4600  204.7030  151.0470 C   0  0  0  0  0  2  0  0  0  0  0  0
  160.9210  204.1930  149.8360 O   0  0  0  0  0  1  0  0  0  0  0  0
  1  5  2  0  0  0  0
  2 10  1  0  0  0  0
  3  1  1  1  0  0  0
  3 12  1  0  0  0  0
  4 15  2  0  0  0  0
  5  7  1  0  0  0  0
  6  3  1  0  0  0  0
  6  2  1  6  0  0  0
  7 18  1  0  0  0  0
  8 11  1  0  0  0  0
  9 14  1  0  0  0  0
 10 14  1  0  0  0  0
 11  1  1  0  0  0  0
 12  7  2  0  0  0  0
 12 16  1  0  0  0  0
 13 28  1  6  0  0  0
 13  6  1  0  0  0  0
 14  4  2  0  0  0  0
 16 23  1  6  0  0  0
 16  9  1  0  0  0  0
 17  8  1  0  0  0  0
 17 13  1  0  0  0  0
 18 19  2  0  0  0  0
 18 20  1  0  0  0  0
 20 21  1  0  0  0  0
 21 22  1  0  0  0  0
 23 24  1  0  0  0  0
 24 27  1  0  0  0  0
 24 25  1  1  0  0  0
 27 26  1  0  0  0  0
 30 29  1  1  0  0  0
 30 28  1  0  0  0  0
 31 30  1  0  0  0  0
 32 31  2  0  0  0  0
 33 34  1  0  0  0  0
 34 32  1  0  0  0  0
 35  5  1  0  0  0  0
 36 35  1  0  0  0  0
 37 36  1  0  0  0  0
M  END
>  <MODEL>
1

>  <REMARK>
 VINA RESULT:      -2.7      0.000      0.000
  Name = 
  11 active torsions:
  status: ('A' for Active; 'I' for Inactive)
    1  A    between atoms: S_1  and  C_5
    2  A    between atoms: S_1  and  C_36
    3  A    between atoms: C_2  and  C_35
    4  A    between atoms: C_3  and  N_32
    5  A    between atoms: C_5  and  O_23
    6  A    between atoms: C_6  and  C_31
    7  A    between atoms: C_6  and  C_35
    8  A    between atoms: C_9  and  C_13
    9  A    between atoms: C_9  and  C_16
   10  A    between atoms: C_18  and  C_19
   11  A    between atoms: C_20  and  C_21
                            x       y       z     vdW  Elec       q    Type
                         _______ _______ _______ _____ _____    ______ ____

>  <TORSDO>
F 11

$$$$
=
 OpenBabel11062409193D

 37 39  0  0  1  0  0  0  0  0999 V2000
  158.7720  212.3450  152.9680 C   0  0  0  0  0  0  0  0  0  0  0  0
  160.1190  213.3660  155.5390 C   0  0  0  0  0  2  0  0  0  0  0  0
  158.6400  211.6360  154.2850 C   0  0  2  0  0  3  0  0  0  0  0  0
  162.6600  211.2130  156.3610 C   0  0  0  0  0  0  0  0  0  0  0  0
  159.7640  211.8240  152.2590 C   0  0  0  0  0  0  0  0  0  0  0  0
  158.7970  212.5960  155.4840 C   0  0  2  0  0  3  0  0  0  0  0  0
  160.4190  210.7720  153.0350 C   0  0  0  0  0  0  0  0  0  0  0  0
  157.5200  214.4520  153.4840 C   0  0  0  0  0  2  0  0  0  0  0  0
  160.4350  210.4790  156.5080 O   0  0  0  0  0  0  0  0  0  0  0  0
  160.9600  212.9030  156.7280 C   0  0  0  0  0  2  0  0  0  0  0  0
  157.8200  213.3780  152.4480 C   0  0  0  0  0  2  0  0  0  0  0  0
  159.7800  210.6560  154.2010 C   0  0  0  0  0  0  0  0  0  0  0  0
  157.5880  213.4850  155.8190 C   0  0  1  0  0  3  0  0  0  0  0  0
  161.3980  211.4880  156.5440 C   0  0  0  0  0  0  0  0  0  0  0  0
  163.8550  210.9550  156.1810 O   0  0  0  0  0  0  0  0  0  0  0  0
  160.1820  209.7340  155.3190 C   0  0  2  0  0  3  0  0  0  0  0  0
  156.7090  213.8580  154.6260 C   0  0  0  0  0  2  0  0  0  0  0  0
  161.6050  209.9980  152.5930 C   0  0  0  0  0  0  0  0  0  0  0  0
  162.7440  210.2940  153.0420 O   0  0  0  0  0  0  0  0  0  0  0  0
  161.4670  208.9070  151.6760 N   0  0  0  0  0  2  0  0  0  0  0  0
  162.5870  208.0740  151.2620 C   0  0  0  0  0  2  0  0  0  0  0  0
  162.0790  206.8440  150.5340 C   0  0  0  0  0  1  0  0  0  0  0  0
  158.8680  208.5150  155.6260 S   0  0  0  0  0  0  0  0  0  0  0  0
  160.0220  207.1120  155.5350 C   0  0  2  0  0  3  0  0  0  0  0  0
  160.9570  207.1440  156.7310 C   0  0  0  0  0  1  0  0  0  0  0  0
  160.9550  205.8770  153.9580 C   0  0  0  0  0  1  0  0  0  0  0  0
  160.7680  207.2010  154.3590 O   0  0  0  0  0  0  0  0  0  0  0  0
  156.7300  212.8090  156.8770 C   0  0  0  0  0  2  0  0  0  0  0  0
  157.5410  210.5990  157.2590 O   0  0  0  0  0  1  0  0  0  0  0  0
  156.5690  211.3290  156.5730 C   0  0  1  0  0  3  0  0  0  0  0  0
  155.2050  210.8780  156.9960 C   0  0  0  0  0  3  0  0  0  0  0  0
  154.4470  210.0520  156.2650 C   0  0  0  0  0  3  0  0  0  0  0  0
  155.0870  210.5380  154.0440 F   0  0  0  0  0  0  0  0  0  0  0  0
  154.8690  209.5030  154.9370 C   0  0  0  0  0  2  0  0  0  0  0  0
  160.1840  212.3020  150.9040 C   0  0  0  0  0  2  0  0  0  0  0  0
  160.1040  213.8150  150.8460 C   0  0  0  0  0  2  0  0  0  0  0  0
  161.0240  214.2930  149.9170 O   0  0  0  0  0  1  0  0  0  0  0  0
  2 10  1  0  0  0  0
  3  1  1  6  0  0  0
  3  6  1  0  0  0  0
  4 14  2  0  0  0  0
  5  1  2  0  0  0  0
  5  7  1  0  0  0  0
  6  2  1  6  0  0  0
  6 13  1  0  0  0  0
  7 12  2  0  0  0  0
  8 17  1  0  0  0  0
  9 14  1  0  0  0  0
 11  1  1  0  0  0  0
 11  8  1  0  0  0  0
 12  3  1  0  0  0  0
 12 16  1  0  0  0  0
 13 28  1  1  0  0  0
 14 10  1  0  0  0  0
 15  4  2  0  0  0  0
 16 23  1  1  0  0  0
 16  9  1  0  0  0  0
 17 13  1  0  0  0  0
 18  7  1  0  0  0  0
 18 19  2  0  0  0  0
 20 18  1  0  0  0  0
 21 20  1  0  0  0  0
 22 21  1  0  0  0  0
 24 23  1  0  0  0  0
 24 25  1  1  0  0  0
 26 27  1  0  0  0  0
 27 24  1  0  0  0  0
 30 28  1  0  0  0  0
 30 31  1  0  0  0  0
 30 29  1  1  0  0  0
 32 31  2  0  0  0  0
 33 34  1  0  0  0  0
 34 32  1  0  0  0  0
 35  5  1  0  0  0  0
 36 35  1  0  0  0  0
 37 36  1  0  0  0  0
M  END
>  <MODEL>
2

>  <REMARK>
 VINA RESULT:      -1.7      3.345      7.265
  Name = 
  11 active torsions:
  status: ('A' for Active; 'I' for Inactive)
    1  A    between atoms: S_1  and  C_5
    2  A    between atoms: S_1  and  C_36
    3  A    between atoms: C_2  and  C_35
    4  A    between atoms: C_3  and  N_32
    5  A    between atoms: C_5  and  O_23
    6  A    between atoms: C_6  and  C_31
    7  A    between atoms: C_6  and  C_35
    8  A    between atoms: C_9  and  C_13
    9  A    between atoms: C_9  and  C_16
   10  A    between atoms: C_18  and  C_19
   11  A    between atoms: C_20  and  C_21
                            x       y       z     vdW  Elec       q    Type
                         _______ _______ _______ _____ _____    ______ ____

>  <TORSDO>
F 11

$$$$
=
 OpenBabel11062409193D

 37 39  0  0  1  0  0  0  0  0999 V2000
  158.8320  212.1790  152.5610 C   0  0  0  0  0  0  0  0  0  0  0  0
  160.8670  211.8060  154.8380 C   0  0  0  0  0  2  0  0  0  0  0  0
  159.2980  210.8260  153.0130 C   0  0  2  0  0  3  0  0  0  0  0  0
  163.8160  210.6910  153.4850 C   0  0  0  0  0  0  0  0  0  0  0  0
  159.5570  212.6000  151.5340 C   0  0  0  0  0  0  0  0  0  0  0  0
  159.7450  210.8250  154.4910 C   0  0  2  0  0  3  0  0  0  0  0  0
  160.5970  211.6170  151.2350 C   0  0  0  0  0  0  0  0  0  0  0  0
  157.5660  212.9030  154.5980 C   0  0  0  0  0  2  0  0  0  0  0  0
  161.9330  209.2900  153.4590 O   0  0  0  0  0  0  0  0  0  0  0  0
  162.1440  211.0520  155.2050 C   0  0  0  0  0  2  0  0  0  0  0  0
  157.6160  212.8860  153.0770 C   0  0  0  0  0  2  0  0  0  0  0  0
  160.4560  210.5930  152.0800 C   0  0  0  0  0  0  0  0  0  0  0  0
  158.6290  210.8160  155.5490 C   0  0  1  0  0  3  0  0  0  0  0  0
  162.6850  210.3230  154.0190 C   0  0  0  0  0  0  0  0  0  0  0  0
  164.8850  211.0470  152.9760 O   0  0  0  0  0  0  0  0  0  0  0  0
  161.3720  209.4020  152.1530 C   0  0  2  0  0  3  0  0  0  0  0  0
  157.3280  211.4950  155.1230 C   0  0  0  0  0  2  0  0  0  0  0  0
  161.6350  211.7660  150.1870 C   0  0  0  0  0  0  0  0  0  0  0  0
  162.6230  210.9830  150.1710 O   0  0  0  0  0  0  0  0  0  0  0  0
  161.5200  212.7780  149.1800 N   0  0  0  0  0  2  0  0  0  0  0  0
  162.4760  212.9240  148.0910 C   0  0  0  0  0  2  0  0  0  0  0  0
  161.7420  213.0030  146.7640 C   0  0  0  0  0  1  0  0  0  0  0  0
  160.4550  207.8840  151.7470 S   0  0  0  0  0  0  0  0  0  0  0  0
  161.6440  207.4020  150.4580 C   0  0  2  0  0  3  0  0  0  0  0  0
  160.8950  207.0020  149.1990 C   0  0  0  0  0  1  0  0  0  0  0  0
  161.5720  205.2140  150.7600 C   0  0  0  0  0  1  0  0  0  0  0  0
  162.4060  206.3240  150.9090 O   0  0  0  0  0  0  0  0  0  0  0  0
  158.3290  209.3840  155.9660 C   0  0  0  0  0  2  0  0  0  0  0  0
  160.2520  208.8240  157.2600 O   0  0  0  0  0  1  0  0  0  0  0  0
  159.6070  208.5680  156.0480 C   0  0  1  0  0  3  0  0  0  0  0  0
  159.2770  207.1100  155.9490 C   0  0  0  0  0  3  0  0  0  0  0  0
  159.9920  206.2460  155.2200 C   0  0  0  0  0  3  0  0  0  0  0  0
  161.8240  205.5130  153.9210 F   0  0  0  0  0  0  0  0  0  0  0  0
  161.1870  206.6410  154.4080 C   0  0  0  0  0  2  0  0  0  0  0  0
  159.3750  213.9180  150.8470 C   0  0  0  0  0  2  0  0  0  0  0  0
  158.1440  213.8700  149.9620 C   0  0  0  0  0  2  0  0  0  0  0  0
  158.5340  213.7770  148.6290 O   0  0  0  0  0  1  0  0  0  0  0  0
  1  3  1  0  0  0  0
  1 11  1  0  0  0  0
  2 10  1  0  0  0  0
  3 12  1  6  0  0  0
  3  6  1  0  0  0  0
  4 14  2  0  0  0  0
  5  1  2  0  0  0  0
  6  2  1  1  0  0  0
  6 13  1  0  0  0  0
  7  5  1  0  0  0  0
  7 12  2  0  0  0  0
  8 17  1  0  0  0  0
  9 14  1  0  0  0  0
 11  8  1  0  0  0  0
 12 16  1  0  0  0  0
 13 28  1  6  0  0  0
 14 10  1  0  0  0  0
 15  4  2  0  0  0  0
 16 23  1  1  0  0  0
 16  9  1  0  0  0  0
 17 13  1  0  0  0  0
 18  7  1  0  0  0  0
 19 18  2  0  0  0  0
 20 18  1  0  0  0  0
 21 20  1  0  0  0  0
 22 21  1  0  0  0  0
 24 25  1  6  0  0  0
 24 27  1  0  0  0  0
 24 23  1  0  0  0  0
 26 27  1  0  0  0  0
 28 30  1  0  0  0  0
 30 29  1  1  0  0  0
 31 30  1  0  0  0  0
 32 31  2  0  0  0  0
 33 34  1  0  0  0  0
 34 32  1  0  0  0  0
 35  5  1  0  0  0  0
 36 35  1  0  0  0  0
 37 36  1  0  0  0  0
M  END
>  <MODEL>
3

>  <REMARK>
 VINA RESULT:      -0.2      3.087      7.671
  Name = 
  11 active torsions:
  status: ('A' for Active; 'I' for Inactive)
    1  A    between atoms: S_1  and  C_5
    2  A    between atoms: S_1  and  C_36
    3  A    between atoms: C_2  and  C_35
    4  A    between atoms: C_3  and  N_32
    5  A    between atoms: C_5  and  O_23
    6  A    between atoms: C_6  and  C_31
    7  A    between atoms: C_6  and  C_35
    8  A    between atoms: C_9  and  C_13
    9  A    between atoms: C_9  and  C_16
   10  A    between atoms: C_18  and  C_19
   11  A    between atoms: C_20  and  C_21
                            x       y       z     vdW  Elec       q    Type
                         _______ _______ _______ _____ _____    ______ ____

>  <TORSDO>
F 11

$$$$
=
 OpenBabel11062409193D

 37 39  0  0  1  0  0  0  0  0999 V2000
  160.7640  206.5560  153.8460 C   0  0  0  0  0  0  0  0  0  0  0  0
  162.7430  207.2540  151.5960 C   0  0  0  0  0  2  0  0  0  0  0  0
  160.4030  207.4640  152.7060 C   0  0  2  0  0  3  0  0  0  0  0  0
  163.6530  210.5450  151.9340 C   0  0  0  0  0  0  0  0  0  0  0  0
  161.1820  207.2620  154.8870 C   0  0  0  0  0  0  0  0  0  0  0  0
  161.2240  207.1610  151.4340 C   0  0  2  0  0  3  0  0  0  0  0  0
  161.1970  208.6830  154.5390 C   0  0  0  0  0  0  0  0  0  0  0  0
  161.0260  204.3930  152.6090 C   0  0  0  0  0  2  0  0  0  0  0  0
  161.4480  210.0160  151.3290 O   0  0  0  0  0  0  0  0  0  0  0  0
  163.2950  208.4340  150.7960 C   0  0  0  0  0  2  0  0  0  0  0  0
  160.5280  205.0770  153.8740 C   0  0  0  0  0  2  0  0  0  0  0  0
  160.7500  208.8090  153.2870 C   0  0  0  0  0  0  0  0  0  0  0  0
  160.7980  205.9310  150.6150 C   0  0  1  0  0  3  0  0  0  0  0  0
  162.8130  209.7270  151.3640 C   0  0  0  0  0  0  0  0  0  0  0  0
  164.4500  211.3150  152.4820 O   0  0  0  0  0  0  0  0  0  0  0  0
  160.6750  210.1020  152.5230 C   0  0  2  0  0  3  0  0  0  0  0  0
  160.1620  204.8030  151.4250 C   0  0  0  0  0  2  0  0  0  0  0  0
  161.6580  209.7750  155.4300 C   0  0  0  0  0  0  0  0  0  0  0  0
  162.8380  210.2050  155.3290 O   0  0  0  0  0  0  0  0  0  0  0  0
  160.7730  210.3590  156.3920 N   0  0  0  0  0  2  0  0  0  0  0  0
  161.1540  211.4760  157.2440 C   0  0  0  0  0  2  0  0  0  0  0  0
  160.3420  212.7060  156.8820 C   0  0  0  0  0  1  0  0  0  0  0  0
  158.9450  210.4830  152.1090 S   0  0  0  0  0  0  0  0  0  0  0  0
  158.8670  211.8550  153.2990 C   0  0  2  0  0  3  0  0  0  0  0  0
  157.9650  211.4710  154.4590 C   0  0  0  0  0  1  0  0  0  0  0  0
  159.4060  213.4620  151.8810 C   0  0  0  0  0  1  0  0  0  0  0  0
  158.3540  212.9900  152.6680 O   0  0  0  0  0  0  0  0  0  0  0  0
  159.8370  206.3550  149.5140 C   0  0  0  0  0  2  0  0  0  0  0  0
  161.3000  207.4980  148.0170 O   0  0  0  0  0  1  0  0  0  0  0  0
  160.5300  206.3430  148.1620 C   0  0  1  0  0  3  0  0  0  0  0  0
  161.4070  205.1330  148.0610 C   0  0  0  0  0  3  0  0  0  0  0  0
  161.7570  204.5780  146.8950 C   0  0  0  0  0  3  0  0  0  0  0  0
  160.6310  204.0890  144.8770 F   0  0  0  0  0  0  0  0  0  0  0  0
  161.2950  205.0890  145.5660 C   0  0  0  0  0  2  0  0  0  0  0  0
  161.6400  206.6750  156.1850 C   0  0  0  0  0  2  0  0  0  0  0  0
  160.6040  206.9370  157.2610 C   0  0  0  0  0  2  0  0  0  0  0  0
  159.3340  206.9490  156.6890 O   0  0  0  0  0  1  0  0  0  0  0  0
  1 11  1  0  0  0  0
  1  5  2  0  0  0  0
  3 12  1  1  0  0  0
  3  1  1  0  0  0  0
  4 15  2  0  0  0  0
  5 35  1  0  0  0  0
  6  2  1  1  0  0  0
  6  3  1  0  0  0  0
  7  5  1  0  0  0  0
  7 18  1  0  0  0  0
  8 11  1  0  0  0  0
  9 14  1  0  0  0  0
  9 16  1  0  0  0  0
 10 14  1  0  0  0  0
 10  2  1  0  0  0  0
 12  7  2  0  0  0  0
 13 28  1  6  0  0  0
 13 17  1  0  0  0  0
 13  6  1  0  0  0  0
 14  4  2  0  0  0  0
 16 23  1  6  0  0  0
 16 12  1  0  0  0  0
 17  8  1  0  0  0  0
 18 20  1  0  0  0  0
 19 18  2  0  0  0  0
 20 21  1  0  0  0  0
 22 21  1  0  0  0  0
 23 24  1  0  0  0  0
 24 25  1  1  0  0  0
 26 27  1  0  0  0  0
 27 24  1  0  0  0  0
 30 29  1  1  0  0  0
 30 28  1  0  0  0  0
 31 30  1  0  0  0  0
 32 31  2  0  0  0  0
 33 34  1  0  0  0  0
 34 32  1  0  0  0  0
 35 36  1  0  0  0  0
 37 36  1  0  0  0  0
M  END
>  <MODEL>
4

>  <REMARK>
 VINA RESULT:       0.3      3.061      4.954
  Name = 
  11 active torsions:
  status: ('A' for Active; 'I' for Inactive)
    1  A    between atoms: S_1  and  C_5
    2  A    between atoms: S_1  and  C_36
    3  A    between atoms: C_2  and  C_35
    4  A    between atoms: C_3  and  N_32
    5  A    between atoms: C_5  and  O_23
    6  A    between atoms: C_6  and  C_31
    7  A    between atoms: C_6  and  C_35
    8  A    between atoms: C_9  and  C_13
    9  A    between atoms: C_9  and  C_16
   10  A    between atoms: C_18  and  C_19
   11  A    between atoms: C_20  and  C_21
                            x       y       z     vdW  Elec       q    Type
                         _______ _______ _______ _____ _____    ______ ____

>  <TORSDO>
F 11

$$$$
