=
 OpenBabel11052421433D

 30 35  0  0  1  0  0  0  0  0999 V2000
  160.1550  211.0630  151.6360 C   0  0  1  0  0  3  0  0  0  0  0  0
  161.8230  211.0560  149.4580 C   0  0  1  0  0  3  0  0  0  0  0  0
  162.4940  207.1420  151.5900 N   0  0  0  0  0  2  0  0  0  0  0  0
  159.8230  210.2720  152.9700 C   0  0  2  0  0  3  0  0  0  0  0  0
  160.1180  212.5790  151.8080 C   0  0  0  0  0  2  0  0  0  0  0  0
  159.0420  212.8610  155.7580 S   0  0  0  0  0  0  0  0  0  0  0  0
  159.9060  208.8310  155.7180 C   0  0  1  0  0  3  0  0  0  0  0  0
  159.9290  212.3320  154.2790 C   0  0  0  0  0  0  0  0  0  0  0  0
  158.5920  214.4530  153.3230 S   0  0  0  0  0  0  0  0  0  0  0  0
  160.5160  207.6530  154.9460 C   0  0  2  0  0  3  0  0  0  0  0  0
  161.4750  206.8160  152.6510 C   0  0  1  0  0  3  0  0  0  0  0  0
  159.6900  213.0490  153.1690 C   0  0  0  0  0  0  0  0  0  0  0  0
  160.5290  210.9440  154.1690 C   0  0  1  0  0  3  0  0  0  0  0  0
  161.5840  210.1040  148.3340 N   0  0  0  0  0  2  0  0  0  0  0  0
  161.5760  207.0720  155.8530 C   0  0  0  0  0  2  0  0  0  0  0  0
  159.9540  208.3880  157.1490 C   0  0  0  0  0  2  0  0  0  0  0  0
  156.8270  212.6250  154.2520 N   0  0  0  0  0  1  0  0  0  0  0  0
  161.3820  212.4640  149.0970 C   0  0  0  0  0  1  0  0  0  0  0  0
  162.6000  208.3530  150.8170 C   0  0  0  0  0  0  0  0  0  0  0  0
  162.0840  208.7510  148.3620 C   0  0  0  0  0  3  0  0  0  0  0  0
  157.7470  213.6500  154.7360 C   0  0  1  0  0  3  0  0  0  0  0  0
  161.3970  210.5650  150.8470 C   0  0  2  0  0  3  0  0  0  0  0  0
  159.7850  208.7230  152.8680 C   0  0  0  0  0  2  0  0  0  0  0  0
  161.9460  205.7520  153.4240 O   0  0  0  0  0  1  0  0  0  0  0  0
  160.9850  208.0130  153.5310 C   0  0  1  0  0  3  0  0  0  0  0  0
  161.1360  207.4280  157.2610 C   0  0  0  0  0  2  0  0  0  0  0  0
  161.9190  210.3750  156.1970 C   0  0  0  0  0  1  0  0  0  0  0  0
  162.4510  208.3190  149.5270 C   0  0  0  0  0  0  0  0  0  0  0  0
  162.0220  209.5360  151.4180 C   0  0  0  0  0  2  0  0  0  0  0  0
  160.5660  210.2160  155.5400 C   0  0  2  0  0  3  0  0  0  0  0  0
  1  5  1  1  0  0  0
  1  4  1  0  0  0  0
  2 18  1  6  0  0  0
  2 22  1  0  0  0  0
  3 11  1  0  0  0  0
  4 23  1  6  0  0  0
  4 13  1  0  0  0  0
  5 12  1  0  0  0  0
  7 16  1  1  0  0  0
  8  6  1  0  0  0  0
  9 21  1  0  0  0  0
 10  7  1  0  0  0  0
 10 15  1  1  0  0  0
 11 24  1  1  0  0  0
 11 25  1  0  0  0  0
 12  9  1  0  0  0  0
 12  8  2  0  0  0  0
 13  8  1  1  0  0  0
 13 30  1  0  0  0  0
 14 20  1  0  0  0  0
 14  2  1  0  0  0  0
 15 26  1  0  0  0  0
 16 26  1  0  0  0  0
 19 29  1  0  0  0  0
 19  3  1  0  0  0  0
 20 28  2  0  0  0  0
 21 17  1  6  0  0  0
 21  6  1  0  0  0  0
 22 29  1  6  0  0  0
 22  1  1  0  0  0  0
 25 23  1  6  0  0  0
 25 10  1  0  0  0  0
 28 19  2  0  0  0  0
 30  7  1  0  0  0  0
 30 27  1  6  0  0  0
M  END
>  <MODEL>
1

>  <REMARK>
 VINA RESULT:      -4.8      0.000      0.000
  Name = 
  0 active torsions:
  status: ('A' for Active; 'I' for Inactive)
                            x       y       z     vdW  Elec       q    Type
                         _______ _______ _______ _____ _____    ______ ____

>  <TORSDO>
F 0

$$$$
=
 OpenBabel11052421433D

 30 35  0  0  1  0  0  0  0  0999 V2000
  160.7550  209.5040  154.0480 C   0  0  1  0  0  3  0  0  0  0  0  0
  160.7990  206.7810  153.7120 C   0  0  1  0  0  3  0  0  0  0  0  0
  161.8270  208.5760  149.7080 N   0  0  0  0  0  2  0  0  0  0  0  0
  160.8090  210.8720  153.2460 C   0  0  2  0  0  3  0  0  0  0  0  0
  159.7390  209.5120  155.1860 C   0  0  0  0  0  2  0  0  0  0  0  0
  158.3040  213.3450  154.8880 S   0  0  0  0  0  0  0  0  0  0  0  0
  160.3390  213.2470  151.3040 C   0  0  1  0  0  3  0  0  0  0  0  0
  158.8150  211.6860  154.3970 C   0  0  0  0  0  0  0  0  0  0  0  0
  158.7520  211.4160  157.0660 S   0  0  0  0  0  0  0  0  0  0  0  0
  161.0840  212.3920  150.2700 C   0  0  2  0  0  3  0  0  0  0  0  0
  162.1390  210.0500  149.7350 C   0  0  1  0  0  3  0  0  0  0  0  0
  159.0440  210.8260  155.4030 C   0  0  0  0  0  0  0  0  0  0  0  0
  159.3770  211.4050  153.0180 C   0  0  1  0  0  3  0  0  0  0  0  0
  162.0880  206.0810  153.4380 N   0  0  0  0  0  2  0  0  0  0  0  0
  160.3670  212.6160  148.9580 C   0  0  0  0  0  2  0  0  0  0  0  0
  159.8960  214.4490  150.5270 C   0  0  0  0  0  2  0  0  0  0  0  0
  160.5270  213.3470  156.4010 N   0  0  0  0  0  1  0  0  0  0  0  0
  160.3540  206.5820  155.1510 C   0  0  0  0  0  1  0  0  0  0  0  0
  161.3730  207.7530  150.8000 C   0  0  0  0  0  0  0  0  0  0  0  0
  162.6240  205.9670  152.1030 C   0  0  0  0  0  3  0  0  0  0  0  0
  159.0880  213.1340  156.5270 C   0  0  1  0  0  3  0  0  0  0  0  0
  160.6960  208.2160  153.1810 C   0  0  2  0  0  3  0  0  0  0  0  0
  161.8590  210.9670  152.1050 C   0  0  0  0  0  2  0  0  0  0  0  0
  162.1490  210.5370  148.4260 O   0  0  0  0  0  1  0  0  0  0  0  0
  161.2560  210.9250  150.6840 C   0  0  1  0  0  3  0  0  0  0  0  0
  159.7290  213.9870  149.0810 C   0  0  0  0  0  2  0  0  0  0  0  0
  157.9110  212.3730  151.2070 C   0  0  0  0  0  1  0  0  0  0  0  0
  162.1090  206.7720  151.2280 C   0  0  0  0  0  0  0  0  0  0  0  0
  160.6890  208.4490  151.8690 C   0  0  0  0  0  2  0  0  0  0  0  0
  159.1500  212.5930  152.0440 C   0  0  2  0  0  3  0  0  0  0  0  0
  1  5  1  1  0  0  0
  2 18  1  1  0  0  0
  3 11  1  0  0  0  0
  3 19  1  0  0  0  0
  4 23  1  6  0  0  0
  4  1  1  0  0  0  0
  5 12  1  0  0  0  0
  6 21  1  0  0  0  0
  7 16  1  6  0  0  0
  7 30  1  0  0  0  0
  8  6  1  0  0  0  0
  8 12  2  0  0  0  0
 10 15  1  6  0  0  0
 10 25  1  0  0  0  0
 10  7  1  0  0  0  0
 11 24  1  6  0  0  0
 11 25  1  0  0  0  0
 12  9  1  0  0  0  0
 13  4  1  0  0  0  0
 13  8  1  1  0  0  0
 14  2  1  0  0  0  0
 15 26  1  0  0  0  0
 19 28  2  0  0  0  0
 19 29  1  0  0  0  0
 20 14  1  0  0  0  0
 21 17  1  6  0  0  0
 21  9  1  0  0  0  0
 22 29  1  6  0  0  0
 22  2  1  0  0  0  0
 22  1  1  0  0  0  0
 25 23  1  1  0  0  0
 26 16  1  0  0  0  0
 28 20  2  0  0  0  0
 30 27  1  6  0  0  0
 30 13  1  0  0  0  0
M  END
>  <MODEL>
2

>  <REMARK>
 VINA RESULT:      -4.6      2.116      5.202
  Name = 
  0 active torsions:
  status: ('A' for Active; 'I' for Inactive)
                            x       y       z     vdW  Elec       q    Type
                         _______ _______ _______ _____ _____    ______ ____

>  <TORSDO>
F 0

$$$$
=
 OpenBabel11052421433D

 30 35  0  0  1  0  0  0  0  0999 V2000
  159.2990  212.1330  152.3010 C   0  0  1  0  0  3  0  0  0  0  0  0
  160.8110  213.1290  150.2390 C   0  0  1  0  0  3  0  0  0  0  0  0
  162.3910  208.9960  151.0970 N   0  0  0  0  0  2  0  0  0  0  0  0
  159.2120  210.9300  153.3310 C   0  0  2  0  0  3  0  0  0  0  0  0
  158.9600  213.4840  152.9230 C   0  0  0  0  0  2  0  0  0  0  0  0
  158.0680  212.3440  156.7620 S   0  0  0  0  0  0  0  0  0  0  0  0
  159.7420  208.7890  155.5160 C   0  0  1  0  0  3  0  0  0  0  0  0
  158.9620  212.4790  155.2020 C   0  0  0  0  0  0  0  0  0  0  0  0
  157.1660  214.4530  154.9170 S   0  0  0  0  0  0  0  0  0  0  0  0
  160.5380  208.0530  154.4300 C   0  0  2  0  0  3  0  0  0  0  0  0
  161.5210  208.1600  151.9990 C   0  0  1  0  0  3  0  0  0  0  0  0
  158.5200  213.4260  154.3580 C   0  0  0  0  0  0  0  0  0  0  0  0
  159.8290  211.3490  154.6840 C   0  0  1  0  0  3  0  0  0  0  0  0
  160.7120  212.5260  148.8780 N   0  0  0  0  0  2  0  0  0  0  0  0
  161.7440  207.4680  155.1300 C   0  0  0  0  0  2  0  0  0  0  0  0
  159.9590  207.9620  156.7460 C   0  0  0  0  0  2  0  0  0  0  0  0
  155.8700  212.0990  155.2330 N   0  0  0  0  0  1  0  0  0  0  0  0
  160.0700  214.4530  150.3160 C   0  0  0  0  0  1  0  0  0  0  0  0
  162.2020  210.3760  150.7260 C   0  0  0  0  0  0  0  0  0  0  0  0
  161.4810  211.3650  148.5010 C   0  0  0  0  0  3  0  0  0  0  0  0
  156.5840  213.1060  156.0140 C   0  0  1  0  0  3  0  0  0  0  0  0
  160.5720  212.1690  151.4110 C   0  0  2  0  0  3  0  0  0  0  0  0
  159.4890  209.5100  152.7650 C   0  0  0  0  0  2  0  0  0  0  0  0
  162.2440  207.0410  152.4190 O   0  0  0  0  0  1  0  0  0  0  0  0
  160.8440  208.9080  153.1950 C   0  0  1  0  0  3  0  0  0  0  0  0
  161.3180  207.2870  156.5750 C   0  0  0  0  0  2  0  0  0  0  0  0
  161.4160  210.5140  156.4590 C   0  0  0  0  0  1  0  0  0  0  0  0
  161.9920  210.6960  149.4850 C   0  0  0  0  0  0  0  0  0  0  0  0
  161.4260  211.1750  151.6510 C   0  0  0  0  0  2  0  0  0  0  0  0
  160.0910  210.2720  155.7710 C   0  0  2  0  0  3  0  0  0  0  0  0
  1  5  1  1  0  0  0
  1  4  1  0  0  0  0
  2 18  1  6  0  0  0
  2 22  1  0  0  0  0
  3 11  1  0  0  0  0
  4 23  1  6  0  0  0
  4 13  1  0  0  0  0
  5 12  1  0  0  0  0
  7 30  1  0  0  0  0
  7 16  1  1  0  0  0
  8  6  1  0  0  0  0
  9 21  1  0  0  0  0
 10 15  1  1  0  0  0
 10  7  1  0  0  0  0
 11 24  1  1  0  0  0
 11 25  1  0  0  0  0
 12  9  1  0  0  0  0
 12  8  2  0  0  0  0
 13  8  1  1  0  0  0
 13 30  1  0  0  0  0
 14  2  1  0  0  0  0
 15 26  1  0  0  0  0
 19  3  1  0  0  0  0
 19 29  1  0  0  0  0
 20 14  1  0  0  0  0
 20 28  2  0  0  0  0
 21 17  1  6  0  0  0
 21  6  1  0  0  0  0
 22 29  1  6  0  0  0
 22  1  1  0  0  0  0
 25 23  1  6  0  0  0
 25 10  1  0  0  0  0
 26 16  1  0  0  0  0
 28 19  2  0  0  0  0
 30 27  1  6  0  0  0
M  END
>  <MODEL>
3

>  <REMARK>
 VINA RESULT:      -4.0      1.319      1.649
  Name = 
  0 active torsions:
  status: ('A' for Active; 'I' for Inactive)
                            x       y       z     vdW  Elec       q    Type
                         _______ _______ _______ _____ _____    ______ ____

>  <TORSDO>
F 0

$$$$
=
 OpenBabel11052421433D

 30 35  0  0  1  0  0  0  0  0999 V2000
  161.3810  206.9050  152.8430 C   0  0  1  0  0  3  0  0  0  0  0  0
  160.9010  204.7480  151.2160 C   0  0  1  0  0  3  0  0  0  0  0  0
  161.2590  208.3330  148.5080 N   0  0  0  0  0  2  0  0  0  0  0  0
  161.4720  208.4880  152.8400 C   0  0  2  0  0  3  0  0  0  0  0  0
  160.6690  206.3440  154.0710 C   0  0  0  0  0  2  0  0  0  0  0  0
  159.8510  209.8080  156.1130 S   0  0  0  0  0  0  0  0  0  0  0  0
  160.9620  211.5350  152.5390 C   0  0  1  0  0  3  0  0  0  0  0  0
  159.9560  208.6320  154.7490 C   0  0  0  0  0  0  0  0  0  0  0  0
  160.4660  207.0210  156.8340 S   0  0  0  0  0  0  0  0  0  0  0  0
  161.2990  211.3230  151.0570 C   0  0  2  0  0  3  0  0  0  0  0  0
  161.8050  209.5730  149.1670 C   0  0  1  0  0  3  0  0  0  0  0  0
  160.2670  207.3710  155.0910 C   0  0  0  0  0  0  0  0  0  0  0  0
  160.1330  209.0940  153.3160 C   0  0  1  0  0  3  0  0  0  0  0  0
  161.9590  204.2630  150.2830 N   0  0  0  0  0  2  0  0  0  0  0  0
  160.3470  212.2090  150.2870 C   0  0  0  0  0  2  0  0  0  0  0  0
  160.5550  212.9750  152.6130 C   0  0  0  0  0  2  0  0  0  0  0  0
  162.3320  208.9790  156.7350 N   0  0  0  0  0  1  0  0  0  0  0  0
  160.7730  203.8430  152.4290 C   0  0  0  0  0  1  0  0  0  0  0  0
  160.9410  207.0740  149.1320 C   0  0  0  0  0  0  0  0  0  0  0  0
  162.1480  204.8450  148.9760 C   0  0  0  0  0  3  0  0  0  0  0  0
  160.9450  208.7630  157.1390 C   0  0  1  0  0  3  0  0  0  0  0  0
  160.9140  206.2530  151.5120 C   0  0  2  0  0  3  0  0  0  0  0  0
  162.2320  209.1380  151.6500 C   0  0  0  0  0  2  0  0  0  0  0  0
  161.5940  210.6670  148.3250 O   0  0  0  0  0  1  0  0  0  0  0  0
  161.3200  209.8500  150.6280 C   0  0  1  0  0  3  0  0  0  0  0  0
  159.9870  213.3320  151.2420 C   0  0  0  0  0  2  0  0  0  0  0  0
  158.4680  210.8910  152.7120 C   0  0  0  0  0  1  0  0  0  0  0  0
  161.5850  205.9970  148.7950 C   0  0  0  0  0  0  0  0  0  0  0  0
  160.6440  207.1310  150.5470 C   0  0  0  0  0  2  0  0  0  0  0  0
  159.8850  210.6190  153.1620 C   0  0  2  0  0  3  0  0  0  0  0  0
  1  5  1  1  0  0  0
  2 22  1  0  0  0  0
  2 18  1  1  0  0  0
  3 19  1  0  0  0  0
  3 11  1  0  0  0  0
  4 23  1  6  0  0  0
  4  1  1  0  0  0  0
  4 13  1  0  0  0  0
  5 12  1  0  0  0  0
  6 21  1  0  0  0  0
  7 16  1  6  0  0  0
  7 30  1  0  0  0  0
  8 12  2  0  0  0  0
  8  6  1  0  0  0  0
  9 21  1  0  0  0  0
 10 15  1  6  0  0  0
 10  7  1  0  0  0  0
 11 24  1  6  0  0  0
 11 25  1  0  0  0  0
 12  9  1  0  0  0  0
 13  8  1  1  0  0  0
 14  2  1  0  0  0  0
 15 26  1  0  0  0  0
 19 29  1  0  0  0  0
 20 14  1  0  0  0  0
 21 17  1  6  0  0  0
 22 29  1  6  0  0  0
 22  1  1  0  0  0  0
 25 10  1  0  0  0  0
 25 23  1  1  0  0  0
 26 16  1  0  0  0  0
 28 20  2  0  0  0  0
 28 19  2  0  0  0  0
 30 27  1  6  0  0  0
 30 13  1  0  0  0  0
M  END
>  <MODEL>
4

>  <REMARK>
 VINA RESULT:      -3.2      2.614      5.399
  Name = 
  0 active torsions:
  status: ('A' for Active; 'I' for Inactive)
                            x       y       z     vdW  Elec       q    Type
                         _______ _______ _______ _____ _____    ______ ____

>  <TORSDO>
F 0

$$$$
