=
 OpenBabel11052422533D

 28 33  0  0  1  0  0  0  0  0999 V2000
  160.4520  204.1520  149.2950 C   0  0  1  0  0  3  0  0  0  0  0  0
  160.7590  204.8280  147.9380 C   0  0  1  0  0  3  0  0  0  0  0  0
  161.1770  206.8150  149.5150 C   0  0  2  0  0  3  0  0  0  0  0  0
  160.3020  208.4870  152.8760 C   0  0  0  0  0  3  0  0  0  0  0  0
  162.1300  201.0990  151.8620 N   0  0  0  0  0  1  0  0  0  0  0  0
  162.8030  205.1250  146.6010 C   0  0  1  0  0  3  0  0  0  0  0  0
  161.2720  206.2760  148.0800 C   0  0  1  0  0  3  0  0  0  0  0  0
  161.2840  203.2720  146.1740 O   0  0  0  0  0  1  0  0  0  0  0  0
  162.1380  210.1480  151.2460 C   0  0  0  0  0  2  0  0  0  0  0  0
  161.1550  206.3580  151.9000 C   0  0  1  0  0  3  0  0  0  0  0  0
  161.8450  204.0800  147.1680 C   0  0  2  0  0  3  0  0  0  0  0  0
  161.6670  210.3880  153.6820 C   0  0  0  0  0  0  0  0  0  0  0  0
  161.4860  207.8210  152.2370 C   0  0  1  0  0  3  0  0  0  0  0  0
  161.5710  208.2880  149.6700 C   0  0  0  0  0  2  0  0  0  0  0  0
  162.4790  210.5910  152.6390 C   0  0  0  0  0  3  0  0  0  0  0  0
  161.7080  203.4770  151.5060 C   0  0  1  0  0  3  0  0  0  0  0  0
  161.8030  205.9160  150.5860 C   0  0  1  0  0  3  0  0  0  0  0  0
  162.1230  208.6280  151.0650 C   0  0  1  0  0  3  0  0  0  0  0  0
  161.0890  201.7310  149.7570 C   0  0  0  0  0  2  0  0  0  0  0  0
  161.0060  204.0380  152.7380 C   0  0  0  0  0  2  0  0  0  0  0  0
  161.2210  202.0460  151.2420 C   0  0  1  0  0  3  0  0  0  0  0  0
  162.4050  205.5890  145.2050 C   0  0  0  0  0  1  0  0  0  0  0  0
  162.0060  210.9360  154.9120 O   0  0  0  0  0  1  0  0  0  0  0  0
  160.4080  209.6260  153.5660 C   0  0  0  0  0  3  0  0  0  0  0  0
  161.5270  205.4330  153.0470 C   0  0  0  0  0  2  0  0  0  0  0  0
  160.0660  202.6730  149.1350 C   0  0  0  0  0  2  0  0  0  0  0  0
  161.6070  204.4150  150.2800 C   0  0  2  0  0  3  0  0  0  0  0  0
  162.7010  206.2940  147.5560 C   0  0  0  0  0  2  0  0  0  0  0  0
  1 26  1  6  0  0  0
  1 27  1  0  0  0  0
  2  7  1  0  0  0  0
  2  1  1  0  0  0  0
  3 14  1  0  0  0  0
  3 17  1  0  0  0  0
  4 24  2  0  0  0  0
  6 11  1  0  0  0  0
  6 28  1  0  0  0  0
  7  3  1  0  0  0  0
  8 11  1  0  0  0  0
  9 15  1  0  0  0  0
 10 13  1  0  0  0  0
 10 25  1  0  0  0  0
 11  2  1  0  0  0  0
 12 23  1  0  0  0  0
 13  4  1  0  0  0  0
 14 18  1  0  0  0  0
 15 12  2  0  0  0  0
 16 20  1  0  0  0  0
 17 10  1  0  0  0  0
 18  9  1  0  0  0  0
 18 13  1  0  0  0  0
 19 21  1  0  0  0  0
 20 25  1  0  0  0  0
 21 16  1  0  0  0  0
 21  5  1  0  0  0  0
 22  6  1  0  0  0  0
 24 12  1  0  0  0  0
 26 19  1  0  0  0  0
 27 17  1  0  0  0  0
 27 16  1  0  0  0  0
 28  7  1  0  0  0  0
M  END
>  <MODEL>
1

>  <REMARK>
 VINA RESULT:      -9.3      0.000      0.000
  Name = 
  0 active torsions:
  status: ('A' for Active; 'I' for Inactive)
                            x       y       z     vdW  Elec       q    Type
                         _______ _______ _______ _____ _____    ______ ____

>  <TORSDO>
F 0

$$$$
=
 OpenBabel11052422533D

 28 33  0  0  1  0  0  0  0  0999 V2000
  162.1390  204.2210  147.9660 C   0  0  1  0  0  3  0  0  0  0  0  0
  161.8780  203.0520  148.9430 C   0  0  1  0  0  3  0  0  0  0  0  0
  161.5820  205.0340  150.5540 C   0  0  2  0  0  3  0  0  0  0  0  0
  162.5550  208.6700  151.3840 C   0  0  0  0  0  3  0  0  0  0  0  0
  160.2690  206.0710  144.5310 N   0  0  0  0  0  1  0  0  0  0  0  0
  159.8580  201.8390  149.6550 C   0  0  1  0  0  3  0  0  0  0  0  0
  161.4560  203.5170  150.3530 C   0  0  1  0  0  3  0  0  0  0  0  0
  161.2590  200.9940  147.8530 O   0  0  0  0  0  1  0  0  0  0  0  0
  160.8290  207.4710  153.4730 C   0  0  0  0  0  2  0  0  0  0  0  0
  161.5720  207.2580  149.5800 C   0  0  1  0  0  3  0  0  0  0  0  0
  160.7490  202.1490  148.4540 C   0  0  2  0  0  3  0  0  0  0  0  0
  161.3100  209.8930  153.1390 C   0  0  0  0  0  0  0  0  0  0  0  0
  161.3320  207.9140  150.9500 C   0  0  1  0  0  3  0  0  0  0  0  0
  161.2820  205.5150  151.9770 C   0  0  0  0  0  2  0  0  0  0  0  0
  160.5150  208.9310  153.6170 C   0  0  0  0  0  3  0  0  0  0  0  0
  160.8400  206.2440  146.8970 C   0  0  1  0  0  3  0  0  0  0  0  0
  160.9000  205.8880  149.4810 C   0  0  1  0  0  3  0  0  0  0  0  0
  160.7490  206.9580  152.0330 C   0  0  1  0  0  3  0  0  0  0  0  0
  161.3510  204.1450  145.5480 C   0  0  0  0  0  2  0  0  0  0  0  0
  161.5740  207.5610  147.1280 C   0  0  0  0  0  2  0  0  0  0  0  0
  161.2370  205.6640  145.5330 C   0  0  1  0  0  3  0  0  0  0  0  0
  160.2870  200.5750  150.3910 C   0  0  0  0  0  1  0  0  0  0  0  0
  161.0050  211.2180  153.4210 O   0  0  0  0  0  1  0  0  0  0  0  0
  162.5190  209.5960  152.3460 C   0  0  0  0  0  3  0  0  0  0  0  0
  161.1410  208.1770  148.4490 C   0  0  0  0  0  2  0  0  0  0  0  0
  162.4330  203.7340  146.5390 C   0  0  0  0  0  2  0  0  0  0  0  0
  161.0020  205.2540  148.0760 C   0  0  2  0  0  3  0  0  0  0  0  0
  160.0320  203.0270  150.5740 C   0  0  0  0  0  2  0  0  0  0  0  0
  1 26  1  6  0  0  0
  1 27  1  0  0  0  0
  1  2  1  0  0  0  0
  2  7  1  0  0  0  0
  3 14  1  0  0  0  0
  4 24  2  0  0  0  0
  5 21  1  0  0  0  0
  6 22  1  0  0  0  0
  6 28  1  0  0  0  0
  7  3  1  0  0  0  0
  7 28  1  0  0  0  0
  8 11  1  0  0  0  0
  9 15  1  0  0  0  0
 10 13  1  0  0  0  0
 11  2  1  0  0  0  0
 11  6  1  0  0  0  0
 12 23  1  0  0  0  0
 12 15  2  0  0  0  0
 13  4  1  0  0  0  0
 13 18  1  0  0  0  0
 14 18  1  0  0  0  0
 16 20  1  0  0  0  0
 16 27  1  0  0  0  0
 17 10  1  0  0  0  0
 17  3  1  0  0  0  0
 18  9  1  0  0  0  0
 19 26  1  0  0  0  0
 20 25  1  0  0  0  0
 21 19  1  0  0  0  0
 21 16  1  0  0  0  0
 24 12  1  0  0  0  0
 25 10  1  0  0  0  0
 27 17  1  0  0  0  0
M  END
>  <MODEL>
2

>  <REMARK>
 VINA RESULT:      -8.3      2.112      4.204
  Name = 
  0 active torsions:
  status: ('A' for Active; 'I' for Inactive)
                            x       y       z     vdW  Elec       q    Type
                         _______ _______ _______ _____ _____    ______ ____

>  <TORSDO>
F 0

$$$$
=
 OpenBabel11052422533D

 28 33  0  0  1  0  0  0  0  0999 V2000
  160.3350  208.9350  152.3840 C   0  0  1  0  0  3  0  0  0  0  0  0
  160.2760  208.5520  153.8810 C   0  0  1  0  0  3  0  0  0  0  0  0
  160.6310  206.2220  152.8540 C   0  0  2  0  0  3  0  0  0  0  0  0
  160.1050  203.9520  149.7830 C   0  0  0  0  0  3  0  0  0  0  0  0
  162.9330  211.0890  149.6760 N   0  0  0  0  0  1  0  0  0  0  0  0
  161.9690  208.3140  155.6510 C   0  0  1  0  0  3  0  0  0  0  0  0
  160.5560  207.0570  154.1400 C   0  0  1  0  0  3  0  0  0  0  0  0
  160.7300  210.3900  155.3720 O   0  0  0  0  0  1  0  0  0  0  0  0
  161.3150  202.4900  152.0590 C   0  0  0  0  0  2  0  0  0  0  0  0
  161.1130  206.1240  150.4760 C   0  0  1  0  0  3  0  0  0  0  0  0
  161.3160  209.3130  154.7000 C   0  0  2  0  0  3  0  0  0  0  0  0
  161.2540  201.7630  149.6760 C   0  0  0  0  0  0  0  0  0  0  0  0
  161.2500  204.5930  150.5130 C   0  0  1  0  0  3  0  0  0  0  0  0
  160.7930  204.7160  153.0800 C   0  0  0  0  0  2  0  0  0  0  0  0
  161.8200  201.7030  150.8860 C   0  0  0  0  0  3  0  0  0  0  0  0
  162.0610  208.9270  150.3990 C   0  0  1  0  0  3  0  0  0  0  0  0
  161.5800  206.7680  151.7820 C   0  0  1  0  0  3  0  0  0  0  0  0
  161.5220  204.0010  151.9280 C   0  0  1  0  0  3  0  0  0  0  0  0
  161.4410  211.0880  151.5960 C   0  0  0  0  0  2  0  0  0  0  0  0
  161.5070  208.1930  149.1830 C   0  0  0  0  0  2  0  0  0  0  0  0
  161.7820  210.4300  150.2650 C   0  0  1  0  0  3  0  0  0  0  0  0
  161.2550  208.2330  156.9960 C   0  0  0  0  0  1  0  0  0  0  0  0
  161.7110  200.9120  148.6790 O   0  0  0  0  0  1  0  0  0  0  0  0
  160.1400  202.6830  149.3700 C   0  0  0  0  0  3  0  0  0  0  0  0
  161.8340  206.7100  149.2730 C   0  0  0  0  0  2  0  0  0  0  0  0
  160.1790  210.4470  152.1620 C   0  0  0  0  0  2  0  0  0  0  0  0
  161.5870  208.3120  151.7370 C   0  0  2  0  0  3  0  0  0  0  0  0
  161.8440  206.9810  154.9470 C   0  0  0  0  0  2  0  0  0  0  0  0
  1 26  1  1  0  0  0
  1  2  1  0  0  0  0
  2  7  1  0  0  0  0
  2 11  1  0  0  0  0
  3 14  1  0  0  0  0
  3  7  1  0  0  0  0
  4 13  1  0  0  0  0
  5 21  1  0  0  0  0
  6 22  1  0  0  0  0
  7 28  1  0  0  0  0
 10 13  1  0  0  0  0
 10 17  1  0  0  0  0
 11  8  1  0  0  0  0
 11  6  1  0  0  0  0
 12 15  2  0  0  0  0
 13 18  1  0  0  0  0
 15  9  1  0  0  0  0
 16 27  1  0  0  0  0
 17  3  1  0  0  0  0
 18  9  1  0  0  0  0
 18 14  1  0  0  0  0
 19 26  1  0  0  0  0
 20 25  1  0  0  0  0
 20 16  1  0  0  0  0
 21 16  1  0  0  0  0
 21 19  1  0  0  0  0
 23 12  1  0  0  0  0
 24 12  1  0  0  0  0
 24  4  2  0  0  0  0
 25 10  1  0  0  0  0
 27 17  1  0  0  0  0
 27  1  1  0  0  0  0
 28  6  1  0  0  0  0
M  END
>  <MODEL>
3

>  <REMARK>
 VINA RESULT:      -6.4      2.549      7.590
  Name = 
  0 active torsions:
  status: ('A' for Active; 'I' for Inactive)
                            x       y       z     vdW  Elec       q    Type
                         _______ _______ _______ _____ _____    ______ ____

>  <TORSDO>
F 0

$$$$
