=
 OpenBabel11062408293D

 32 37  0  0  1  0  0  0  0  0999 V2000
  160.9670  209.7410  154.8740 C   0  0  1  0  0  0  0  0  0  0  0  0
  159.5730  211.7290  154.4720 C   0  0  1  0  0  3  0  0  0  0  0  0
  161.9620  208.9370  155.6840 C   0  0  0  0  0  2  0  0  0  0  0  0
  160.7770  211.2190  155.2600 C   0  0  1  0  0  3  0  0  0  0  0  0
  159.0830  213.0810  155.0070 C   0  0  1  0  0  3  0  0  0  0  0  0
  156.9500  212.6500  149.4600 C   0  0  0  0  0  1  0  0  0  0  0  0
  159.9590  211.7440  152.9900 C   0  0  1  0  0  3  0  0  0  0  0  0
  157.3850  214.4530  151.4730 S   0  0  0  0  0  0  0  0  0  0  0  0
  158.5650  213.7400  152.6410 C   0  0  1  0  0  3  0  0  0  0  0  0
  160.7250  211.5540  156.7660 C   0  0  0  0  0  2  0  0  0  0  0  0
  158.0510  213.7440  154.0760 C   0  0  0  0  0  2  0  0  0  0  0  0
  159.3020  211.8130  157.2590 C   0  0  0  0  0  2  0  0  0  0  0  0
  160.0320  207.3930  155.3490 C   0  0  0  0  0  1  0  0  0  0  0  0
  160.3570  210.3540  152.5350 C   0  0  0  0  0  3  0  0  0  0  0  0
  160.8720  209.4260  153.3760 C   0  0  0  0  0  0  0  0  0  0  0  0
  158.8090  212.3250  152.1780 C   0  0  1  0  0  3  0  0  0  0  0  0
  158.5870  212.9300  156.4720 C   0  0  2  0  0  3  0  0  0  0  0  0
  160.4660  208.7350  155.9160 C   0  0  2  0  0  3  0  0  0  0  0  0
  158.0710  213.4200  150.1260 C   0  0  1  0  0  3  0  0  0  0  0  0
  159.0950  212.4450  150.6990 C   0  0  0  0  0  2  0  0  0  0  0  0
  162.1880  207.2060  150.4970 N   0  0  0  0  0  0  0  0  0  0  0  0
  162.4190  204.2050  151.7240 O   0  0  0  0  0  0  0  0  0  0  0  0
  163.0710  207.3590  149.4810 O   0  0  0  0  0  1  0  0  0  0  0  0
  161.2160  205.6630  153.1190 C   0  0  0  0  0  2  0  0  0  0  0  0
  161.4300  208.1440  152.8000 C   0  0  1  0  0  3  0  0  0  0  0  0
  161.4170  205.9720  150.5410 C   0  0  0  0  0  2  0  0  0  0  0  0
  160.4620  206.9840  153.0170 C   0  0  0  0  0  2  0  0  0  0  0  0
  161.9420  208.3180  151.3770 C   0  0  0  0  0  0  0  0  0  0  0  0
  162.2850  209.4700  150.9950 O   0  0  0  0  0  0  0  0  0  0  0  0
  161.7260  205.2070  151.7880 C   0  0  0  0  0  0  0  0  0  0  0  0
  157.0690  212.7740  156.6170 C   0  0  0  0  0  2  0  0  0  0  0  0
  156.6100  211.3450  156.3600 C   0  0  0  0  0  1  0  0  0  0  0  0
  1  4  1  0  0  0  0
  1  3  1  1  0  0  0
  1 18  1  0  0  0  0
  2  5  1  0  0  0  0
  2  4  1  0  0  0  0
  3 18  1  0  0  0  0
  4 10  1  0  0  0  0
  5 17  1  0  0  0  0
  6 19  1  0  0  0  0
  7  2  1  0  0  0  0
  8  9  1  0  0  0  0
  9 11  1  0  0  0  0
 10 12  1  0  0  0  0
 11  5  1  0  0  0  0
 13 18  1  0  0  0  0
 14  7  1  0  0  0  0
 14 15  2  0  0  0  0
 15  1  1  0  0  0  0
 16  9  1  0  0  0  0
 16  7  1  0  0  0  0
 17 31  1  0  0  0  0
 17 12  1  0  0  0  0
 19 20  1  0  0  0  0
 19  8  1  0  0  0  0
 20 16  1  0  0  0  0
 21 26  1  0  0  0  0
 21 28  1  0  0  0  0
 22 30  2  0  0  0  0
 23 21  1  0  0  0  0
 25 27  1  0  0  0  0
 25 15  1  0  0  0  0
 26 30  1  0  0  0  0
 27 24  1  0  0  0  0
 28 25  1  0  0  0  0
 29 28  2  0  0  0  0
 30 24  1  0  0  0  0
 32 31  1  0  0  0  0
M  END
>  <MODEL>
1

>  <REMARK>
 VINA RESULT:      -6.1      0.000      0.000
  Name = 
  2 active torsions:
  status: ('A' for Active; 'I' for Inactive)
    1  A    between atoms: C_13  and  C_29
    2  A    between atoms: C_16  and  C_27
                            x       y       z     vdW  Elec       q    Type
                         _______ _______ _______ _____ _____    ______ ____

>  <TORSDO>
F 2

$$$$
=
 OpenBabel11062408293D

 32 37  0  0  1  0  0  0  0  0999 V2000
  159.3280  213.0550  151.8370 C   0  0  1  0  0  0  0  0  0  0  0  0
  160.7330  211.4710  150.5830 C   0  0  1  0  0  3  0  0  0  0  0  0
  158.8910  214.4530  152.2220 C   0  0  0  0  0  2  0  0  0  0  0  0
  160.6440  212.9220  151.0510 C   0  0  1  0  0  3  0  0  0  0  0  0
  161.8260  211.2890  149.5210 C   0  0  1  0  0  3  0  0  0  0  0  0
  160.8250  205.8670  151.7830 C   0  0  0  0  0  1  0  0  0  0  0  0
  160.9120  210.5930  151.8250 C   0  0  1  0  0  3  0  0  0  0  0  0
  162.6210  207.2820  150.2790 S   0  0  0  0  0  0  0  0  0  0  0  0
  162.3240  209.0470  150.5340 C   0  0  1  0  0  3  0  0  0  0  0  0
  160.9070  213.9550  149.9340 C   0  0  0  0  0  2  0  0  0  0  0  0
  162.1200  209.8060  149.2280 C   0  0  0  0  0  2  0  0  0  0  0  0
  160.6550  213.3840  148.5380 C   0  0  0  0  0  2  0  0  0  0  0  0
  156.7920  213.3150  151.5010 C   0  0  0  0  0  1  0  0  0  0  0  0
  159.7510  210.7860  152.7800 C   0  0  0  0  0  3  0  0  0  0  0  0
  159.0340  211.9320  152.8390 C   0  0  0  0  0  0  0  0  0  0  0  0
  161.0880  209.1430  151.3920 C   0  0  1  0  0  3  0  0  0  0  0  0
  161.4820  212.1130  148.2510 C   0  0  2  0  0  3  0  0  0  0  0  0
  158.1880  213.7360  151.0720 C   0  0  2  0  0  3  0  0  0  0  0  0
  161.9140  206.9100  151.9250 C   0  0  1  0  0  3  0  0  0  0  0  0
  161.3310  208.1820  152.5330 C   0  0  0  0  0  2  0  0  0  0  0  0
  157.9890  212.9030  156.4340 N   0  0  0  0  0  0  0  0  0  0  0  0
  154.9280  211.8690  156.7790 O   0  0  0  0  0  0  0  0  0  0  0  0
  158.2200  213.9510  157.2610 O   0  0  0  0  0  1  0  0  0  0  0  0
  155.9620  211.0090  154.8520 C   0  0  0  0  0  2  0  0  0  0  0  0
  158.0320  212.1120  153.9570 C   0  0  1  0  0  3  0  0  0  0  0  0
  157.2670  211.7610  156.9760 C   0  0  0  0  0  2  0  0  0  0  0  0
  157.3680  210.7840  154.3120 C   0  0  0  0  0  2  0  0  0  0  0  0
  158.6000  212.8980  155.1310 C   0  0  0  0  0  0  0  0  0  0  0  0
  159.5710  213.6770  154.9230 O   0  0  0  0  0  0  0  0  0  0  0  0
  155.9790  211.5620  156.2430 C   0  0  0  0  0  0  0  0  0  0  0  0
  160.8160  211.3080  147.1290 C   0  0  0  0  0  2  0  0  0  0  0  0
  160.0740  212.2000  146.1420 C   0  0  0  0  0  1  0  0  0  0  0  0
  1  3  1  1  0  0  0
  1 15  1  0  0  0  0
  2  4  1  0  0  0  0
  2  7  1  0  0  0  0
  4  1  1  0  0  0  0
  5  2  1  0  0  0  0
  6 19  1  0  0  0  0
  7 14  1  0  0  0  0
  8  9  1  0  0  0  0
  8 19  1  0  0  0  0
  9 16  1  0  0  0  0
 10  4  1  0  0  0  0
 11  5  1  0  0  0  0
 11  9  1  0  0  0  0
 12 10  1  0  0  0  0
 14 15  2  0  0  0  0
 15 25  1  0  0  0  0
 16  7  1  0  0  0  0
 16 20  1  0  0  0  0
 17 12  1  0  0  0  0
 17  5  1  0  0  0  0
 18 13  1  0  0  0  0
 18  1  1  0  0  0  0
 18  3  1  0  0  0  0
 19 20  1  0  0  0  0
 21 26  1  0  0  0  0
 21 23  1  0  0  0  0
 24 30  1  0  0  0  0
 25 27  1  0  0  0  0
 25 28  1  0  0  0  0
 27 24  1  0  0  0  0
 28 21  1  0  0  0  0
 29 28  2  0  0  0  0
 30 22  2  0  0  0  0
 30 26  1  0  0  0  0
 31 17  1  0  0  0  0
 32 31  1  0  0  0  0
M  END
>  <MODEL>
2

>  <REMARK>
 VINA RESULT:      -5.7      3.912      7.496
  Name = 
  2 active torsions:
  status: ('A' for Active; 'I' for Inactive)
    1  A    between atoms: C_13  and  C_29
    2  A    between atoms: C_16  and  C_27
                            x       y       z     vdW  Elec       q    Type
                         _______ _______ _______ _____ _____    ______ ____

>  <TORSDO>
F 2

$$$$
=
 OpenBabel11062408293D

 32 37  0  0  1  0  0  0  0  0999 V2000
  161.7600  205.3860  151.2620 C   0  0  1  0  0  0  0  0  0  0  0  0
  161.5880  207.8130  151.6310 C   0  0  1  0  0  3  0  0  0  0  0  0
  162.0790  203.9760  151.7120 C   0  0  0  0  0  2  0  0  0  0  0  0
  162.2320  206.5370  152.1680 C   0  0  1  0  0  3  0  0  0  0  0  0
  161.7160  208.9700  152.6320 C   0  0  1  0  0  3  0  0  0  0  0  0
  160.7060  211.4970  147.3300 C   0  0  0  0  0  1  0  0  0  0  0  0
  162.2010  208.1010  150.2580 C   0  0  1  0  0  3  0  0  0  0  0  0
  161.5690  212.0660  149.8650 S   0  0  0  0  0  0  0  0  0  0  0  0
  162.0250  210.5180  150.6800 C   0  0  1  0  0  3  0  0  0  0  0  0
  162.0690  206.3480  153.6910 C   0  0  0  0  0  2  0  0  0  0  0  0
  161.3190  210.3250  152.0170 C   0  0  0  0  0  2  0  0  0  0  0  0
  160.8790  207.1270  154.2530 C   0  0  0  0  0  2  0  0  0  0  0  0
  159.7460  203.8440  150.8400 C   0  0  0  0  0  1  0  0  0  0  0  0
  161.9630  206.9360  149.3190 C   0  0  0  0  0  3  0  0  0  0  0  0
  161.8050  205.6640  149.7540 C   0  0  0  0  0  0  0  0  0  0  0  0
  161.6430  209.4140  149.7250 C   0  0  1  0  0  3  0  0  0  0  0  0
  160.9460  208.6360  153.9390 C   0  0  2  0  0  3  0  0  0  0  0  0
  160.6550  204.5080  151.8600 C   0  0  2  0  0  3  0  0  0  0  0  0
  161.9130  211.3220  148.2280 C   0  0  1  0  0  3  0  0  0  0  0  0
  162.2200  209.8370  148.3930 C   0  0  0  0  0  2  0  0  0  0  0  0
  161.7700  204.2390  146.1590 N   0  0  0  0  0  0  0  0  0  0  0  0
  161.1380  201.0670  146.4670 O   0  0  0  0  0  0  0  0  0  0  0  0
  162.4700  204.4630  145.0210 O   0  0  0  0  0  1  0  0  0  0  0  0
  160.7670  202.2610  148.4560 C   0  0  0  0  0  2  0  0  0  0  0  0
  161.7780  204.5410  148.7420 C   0  0  1  0  0  3  0  0  0  0  0  0
  160.6350  203.3310  146.0860 C   0  0  0  0  0  2  0  0  0  0  0  0
  160.5160  203.6970  148.9000 C   0  0  0  0  0  2  0  0  0  0  0  0
  162.0760  205.0220  147.3280 C   0  0  0  0  0  0  0  0  0  0  0  0
  162.7310  206.0890  147.1790 O   0  0  0  0  0  0  0  0  0  0  0  0
  160.8590  202.1440  146.9670 C   0  0  0  0  0  0  0  0  0  0  0  0
  159.5410  209.2430  154.0250 C   0  0  0  0  0  2  0  0  0  0  0  0
  159.3350  210.0370  155.3080 C   0  0  0  0  0  1  0  0  0  0  0  0
  1  3  1  1  0  0  0
  1 18  1  0  0  0  0
  1  4  1  0  0  0  0
  2  4  1  0  0  0  0
  2  5  1  0  0  0  0
  3 18  1  0  0  0  0
  4 10  1  0  0  0  0
  5 17  1  0  0  0  0
  6 19  1  0  0  0  0
  7  2  1  0  0  0  0
  8  9  1  0  0  0  0
  9 11  1  0  0  0  0
 10 12  1  0  0  0  0
 11  5  1  0  0  0  0
 13 18  1  0  0  0  0
 14 15  2  0  0  0  0
 14  7  1  0  0  0  0
 15  1  1  0  0  0  0
 16  7  1  0  0  0  0
 16  9  1  0  0  0  0
 17 31  1  0  0  0  0
 17 12  1  0  0  0  0
 19 20  1  0  0  0  0
 19  8  1  0  0  0  0
 20 16  1  0  0  0  0
 21 28  1  0  0  0  0
 22 30  2  0  0  0  0
 23 21  1  0  0  0  0
 24 27  1  0  0  0  0
 25 27  1  0  0  0  0
 25 15  1  0  0  0  0
 26 21  1  0  0  0  0
 26 30  1  0  0  0  0
 28 25  1  0  0  0  0
 29 28  2  0  0  0  0
 30 24  1  0  0  0  0
 31 32  1  0  0  0  0
M  END
>  <MODEL>
3

>  <REMARK>
 VINA RESULT:      -5.2      3.101      5.343
  Name = 
  2 active torsions:
  status: ('A' for Active; 'I' for Inactive)
    1  A    between atoms: C_13  and  C_29
    2  A    between atoms: C_16  and  C_27
                            x       y       z     vdW  Elec       q    Type
                         _______ _______ _______ _____ _____    ______ ____

>  <TORSDO>
F 2

$$$$
=
 OpenBabel11062408293D

 32 37  0  0  1  0  0  0  0  0999 V2000
  161.6760  206.5480  149.9810 C   0  0  1  0  0  0  0  0  0  0  0  0
  161.5500  208.9140  150.6440 C   0  0  1  0  0  3  0  0  0  0  0  0
  162.0630  205.1030  150.2170 C   0  0  0  0  0  2  0  0  0  0  0  0
  162.2700  207.5990  150.9340 C   0  0  1  0  0  3  0  0  0  0  0  0
  161.8170  209.9550  151.7400 C   0  0  1  0  0  3  0  0  0  0  0  0
  160.0380  213.0360  146.9590 C   0  0  0  0  0  1  0  0  0  0  0  0
  161.9560  209.3660  149.2380 C   0  0  1  0  0  3  0  0  0  0  0  0
  161.2580  213.3360  149.3910 S   0  0  0  0  0  0  0  0  0  0  0  0
  161.8330  211.7170  149.9520 C   0  0  1  0  0  3  0  0  0  0  0  0
  162.3310  207.2390  152.4340 C   0  0  0  0  0  2  0  0  0  0  0  0
  161.3300  211.3620  151.3460 C   0  0  0  0  0  2  0  0  0  0  0  0
  161.2320  207.9260  153.2450 C   0  0  0  0  0  2  0  0  0  0  0  0
  159.6280  205.0210  149.6820 C   0  0  0  0  0  1  0  0  0  0  0  0
  161.5880  208.3080  148.2170 C   0  0  0  0  0  3  0  0  0  0  0  0
  161.5000  206.9930  148.5240 C   0  0  0  0  0  0  0  0  0  0  0  0
  161.3210  210.7190  148.9430 C   0  0  1  0  0  3  0  0  0  0  0  0
  161.2470  209.4610  153.0980 C   0  0  2  0  0  3  0  0  0  0  0  0
  160.6740  205.5860  150.6290 C   0  0  2  0  0  3  0  0  0  0  0  0
  161.3630  212.7860  147.6480 C   0  0  1  0  0  3  0  0  0  0  0  0
  161.6960  211.2990  147.5990 C   0  0  0  0  0  2  0  0  0  0  0  0
  162.7890  204.7970  145.6130 N   0  0  0  0  0  0  0  0  0  0  0  0
  160.1390  203.6350  144.1360 O   0  0  0  0  0  0  0  0  0  0  0  0
  163.8320  203.9530  145.4240 O   0  0  0  0  0  1  0  0  0  0  0  0
  159.6460  205.3590  145.6540 C   0  0  0  0  0  2  0  0  0  0  0  0
  161.3310  205.9890  147.4050 C   0  0  1  0  0  3  0  0  0  0  0  0
  161.9470  205.0990  144.4640 C   0  0  0  0  0  2  0  0  0  0  0  0
  160.3600  206.5110  146.3490 C   0  0  0  0  0  2  0  0  0  0  0  0
  162.6620  205.4710  146.8790 C   0  0  0  0  0  0  0  0  0  0  0  0
  163.6700  205.5190  147.6350 O   0  0  0  0  0  0  0  0  0  0  0  0
  160.5480  204.6320  144.7060 C   0  0  0  0  0  0  0  0  0  0  0  0
  159.8670  210.0270  153.4530 C   0  0  0  0  0  2  0  0  0  0  0  0
  159.7360  210.3330  154.9390 C   0  0  0  0  0  1  0  0  0  0  0  0
  1  3  1  6  0  0  0
  1 18  1  0  0  0  0
  1  4  1  0  0  0  0
  2  4  1  0  0  0  0
  2  5  1  0  0  0  0
  3 18  1  0  0  0  0
  4 10  1  0  0  0  0
  5 17  1  0  0  0  0
  6 19  1  0  0  0  0
  7  2  1  0  0  0  0
  8  9  1  0  0  0  0
  9 11  1  0  0  0  0
 10 12  1  0  0  0  0
 11  5  1  0  0  0  0
 13 18  1  0  0  0  0
 14 15  2  0  0  0  0
 14  7  1  0  0  0  0
 15  1  1  0  0  0  0
 16  7  1  0  0  0  0
 16  9  1  0  0  0  0
 17 12  1  0  0  0  0
 17 31  1  0  0  0  0
 19  8  1  0  0  0  0
 20 19  1  0  0  0  0
 20 16  1  0  0  0  0
 21 28  1  0  0  0  0
 22 30  2  0  0  0  0
 23 21  1  0  0  0  0
 24 27  1  0  0  0  0
 25 15  1  0  0  0  0
 26 30  1  0  0  0  0
 26 21  1  0  0  0  0
 27 25  1  0  0  0  0
 28 25  1  0  0  0  0
 28 29  2  0  0  0  0
 30 24  1  0  0  0  0
 31 32  1  0  0  0  0
M  END
>  <MODEL>
4

>  <REMARK>
 VINA RESULT:      -4.8      3.496      5.612
  Name = 
  2 active torsions:
  status: ('A' for Active; 'I' for Inactive)
    1  A    between atoms: C_13  and  C_29
    2  A    between atoms: C_16  and  C_27
                            x       y       z     vdW  Elec       q    Type
                         _______ _______ _______ _____ _____    ______ ____

>  <TORSDO>
F 2

$$$$
=
 OpenBabel11062408293D

 32 37  0  0  1  0  0  0  0  0999 V2000
  161.4210  208.1150  153.5710 C   0  0  1  0  0  0  0  0  0  0  0  0
  160.4140  210.3230  153.9730 C   0  0  1  0  0  3  0  0  0  0  0  0
  162.2950  206.9420  153.9660 C   0  0  0  0  0  2  0  0  0  0  0  0
  161.5470  209.3980  154.4100 C   0  0  1  0  0  3  0  0  0  0  0  0
  160.2320  211.4910  154.9530 C   0  0  1  0  0  3  0  0  0  0  0  0
  157.6880  213.2270  149.8510 C   0  0  0  0  0  1  0  0  0  0  0  0
  160.6950  210.7540  152.5310 C   0  0  1  0  0  3  0  0  0  0  0  0
  158.5970  214.1870  152.2470 S   0  0  0  0  0  0  0  0  0  0  0  0
  159.6930  212.9540  152.9850 C   0  0  1  0  0  3  0  0  0  0  0  0
  161.6620  209.2330  155.9410 C   0  0  0  0  0  2  0  0  0  0  0  0
  159.2870  212.5770  154.4050 C   0  0  0  0  0  2  0  0  0  0  0  0
  160.3520  209.5450  156.6630 C   0  0  0  0  0  2  0  0  0  0  0  0
  160.0840  205.9230  153.4200 C   0  0  0  0  0  1  0  0  0  0  0  0
  160.7860  209.5400  151.6270 C   0  0  0  0  0  3  0  0  0  0  0  0
  161.1670  208.3210  152.0730 C   0  0  0  0  0  0  0  0  0  0  0  0
  159.6270  211.7450  152.0860 C   0  0  1  0  0  3  0  0  0  0  0  0
  159.8150  210.9570  156.3510 C   0  0  2  0  0  3  0  0  0  0  0  0
  160.8070  206.9210  154.3100 C   0  0  2  0  0  3  0  0  0  0  0  0
  158.9790  213.5480  150.5750 C   0  0  1  0  0  3  0  0  0  0  0  0
  159.8310  212.2880  150.6900 C   0  0  0  0  0  2  0  0  0  0  0  0
  161.8370  206.9680  148.5130 N   0  0  0  0  0  0  0  0  0  0  0  0
  161.5600  203.7370  148.7240 O   0  0  0  0  0  0  0  0  0  0  0  0
  162.6650  207.2950  147.4920 O   0  0  0  0  0  1  0  0  0  0  0  0
  160.7560  204.8410  150.6360 C   0  0  0  0  0  2  0  0  0  0  0  0
  161.4270  207.2210  151.0680 C   0  0  1  0  0  3  0  0  0  0  0  0
  160.8450  205.9290  148.2720 C   0  0  0  0  0  2  0  0  0  0  0  0
  160.2690  206.2270  151.0370 C   0  0  0  0  0  2  0  0  0  0  0  0
  161.8690  207.7600  149.7140 C   0  0  0  0  0  0  0  0  0  0  0  0
  162.4040  208.9010  149.6640 O   0  0  0  0  0  0  0  0  0  0  0  0
  161.0810  204.7630  149.1760 C   0  0  0  0  0  0  0  0  0  0  0  0
  158.3090  211.0100  156.6300 C   0  0  0  0  0  2  0  0  0  0  0  0
  157.8860  212.3310  157.2610 C   0  0  0  0  0  1  0  0  0  0  0  0
  1  3  1  6  0  0  0
  1 18  1  0  0  0  0
  1  4  1  0  0  0  0
  2  4  1  0  0  0  0
  2  5  1  0  0  0  0
  3 18  1  0  0  0  0
  4 10  1  0  0  0  0
  5 17  1  0  0  0  0
  6 19  1  0  0  0  0
  7  2  1  0  0  0  0
  8  9  1  0  0  0  0
  9 11  1  0  0  0  0
 10 12  1  0  0  0  0
 11  5  1  0  0  0  0
 13 18  1  0  0  0  0
 14 15  2  0  0  0  0
 14  7  1  0  0  0  0
 15  1  1  0  0  0  0
 16  7  1  0  0  0  0
 16  9  1  0  0  0  0
 17 31  1  0  0  0  0
 17 12  1  0  0  0  0
 19 20  1  0  0  0  0
 19  8  1  0  0  0  0
 20 16  1  0  0  0  0
 21 28  1  0  0  0  0
 22 30  2  0  0  0  0
 23 21  1  0  0  0  0
 24 27  1  0  0  0  0
 25 15  1  0  0  0  0
 26 21  1  0  0  0  0
 26 30  1  0  0  0  0
 27 25  1  0  0  0  0
 28 25  1  0  0  0  0
 29 28  2  0  0  0  0
 30 24  1  0  0  0  0
 31 32  1  0  0  0  0
M  END
>  <MODEL>
5

>  <REMARK>
 VINA RESULT:      -4.8      1.402      2.022
  Name = 
  2 active torsions:
  status: ('A' for Active; 'I' for Inactive)
    1  A    between atoms: C_13  and  C_29
    2  A    between atoms: C_16  and  C_27
                            x       y       z     vdW  Elec       q    Type
                         _______ _______ _______ _____ _____    ______ ____

>  <TORSDO>
F 2

$$$$
=
 OpenBabel11062408293D

 32 37  0  0  1  0  0  0  0  0999 V2000
  161.7630  207.1020  151.6270 C   0  0  1  0  0  0  0  0  0  0  0  0
  161.2560  209.5100  151.6490 C   0  0  1  0  0  3  0  0  0  0  0  0
  162.2680  205.8270  152.2700 C   0  0  0  0  0  2  0  0  0  0  0  0
  162.0630  208.4230  152.3560 C   0  0  1  0  0  3  0  0  0  0  0  0
  161.2120  210.8040  152.4730 C   0  0  1  0  0  3  0  0  0  0  0  0
  159.9270  212.3900  146.8740 C   0  0  0  0  0  1  0  0  0  0  0  0
  161.8400  209.6810  150.2430 C   0  0  1  0  0  3  0  0  0  0  0  0
  160.6750  213.4250  149.2950 S   0  0  0  0  0  0  0  0  0  0  0  0
  161.3290  212.0860  150.3190 C   0  0  1  0  0  3  0  0  0  0  0  0
  161.9090  208.4320  153.8920 C   0  0  0  0  0  2  0  0  0  0  0  0
  160.6410  211.9900  151.6760 C   0  0  0  0  0  2  0  0  0  0  0  0
  160.6170  209.1120  154.3470 C   0  0  0  0  0  2  0  0  0  0  0  0
  159.9850  205.2530  151.4450 C   0  0  0  0  0  1  0  0  0  0  0  0
  161.7740  208.3730  149.4810 C   0  0  0  0  0  3  0  0  0  0  0  0
  161.7870  207.1660  150.0950 C   0  0  0  0  0  0  0  0  0  0  0  0
  161.1130  210.8160  149.5340 C   0  0  1  0  0  3  0  0  0  0  0  0
  160.4800  210.5560  153.8210 C   0  0  2  0  0  3  0  0  0  0  0  0
  160.7830  206.1740  152.3530 C   0  0  2  0  0  3  0  0  0  0  0  0
  161.1370  212.5110  147.7780 C   0  0  1  0  0  3  0  0  0  0  0  0
  161.6420  211.1210  148.1510 C   0  0  0  0  0  2  0  0  0  0  0  0
  162.3650  205.2740  146.7720 N   0  0  0  0  0  0  0  0  0  0  0  0
  161.6590  202.1630  147.3870 O   0  0  0  0  0  0  0  0  0  0  0  0
  163.2540  205.3540  145.7530 O   0  0  0  0  0  1  0  0  0  0  0  0
  160.9590  203.6060  149.1040 C   0  0  0  0  0  2  0  0  0  0  0  0
  161.9260  205.9180  149.2530 C   0  0  1  0  0  3  0  0  0  0  0  0
  161.2510  204.3480  146.6250 C   0  0  0  0  0  2  0  0  0  0  0  0
  160.6480  205.0840  149.3010 C   0  0  0  0  0  2  0  0  0  0  0  0
  162.4700  206.2100  147.8610 C   0  0  0  0  0  0  0  0  0  0  0  0
  163.1510  207.2570  147.6860 O   0  0  0  0  0  0  0  0  0  0  0  0
  161.3080  203.2930  147.6820 C   0  0  0  0  0  0  0  0  0  0  0  0
  159.0050  210.9700  153.8310 C   0  0  0  0  0  2  0  0  0  0  0  0
  158.5480  211.4400  155.2060 C   0  0  0  0  0  1  0  0  0  0  0  0
  1  3  1  1  0  0  0
  1 18  1  0  0  0  0
  1  4  1  0  0  0  0
  2  4  1  0  0  0  0
  2  5  1  0  0  0  0
  3 18  1  0  0  0  0
  4 10  1  0  0  0  0
  5 17  1  0  0  0  0
  6 19  1  0  0  0  0
  7  2  1  0  0  0  0
  8  9  1  0  0  0  0
  9 11  1  0  0  0  0
 10 12  1  0  0  0  0
 11  5  1  0  0  0  0
 13 18  1  0  0  0  0
 14 15  2  0  0  0  0
 14  7  1  0  0  0  0
 15  1  1  0  0  0  0
 16  7  1  0  0  0  0
 16  9  1  0  0  0  0
 17 31  1  0  0  0  0
 17 12  1  0  0  0  0
 19 20  1  0  0  0  0
 19  8  1  0  0  0  0
 20 16  1  0  0  0  0
 21 28  1  0  0  0  0
 22 30  2  0  0  0  0
 23 21  1  0  0  0  0
 24 27  1  0  0  0  0
 25 27  1  0  0  0  0
 25 15  1  0  0  0  0
 26 21  1  0  0  0  0
 26 30  1  0  0  0  0
 28 25  1  0  0  0  0
 29 28  2  0  0  0  0
 30 24  1  0  0  0  0
 31 32  1  0  0  0  0
M  END
>  <MODEL>
6

>  <REMARK>
 VINA RESULT:      -4.1      2.606      4.125
  Name = 
  2 active torsions:
  status: ('A' for Active; 'I' for Inactive)
    1  A    between atoms: C_13  and  C_29
    2  A    between atoms: C_16  and  C_27
                            x       y       z     vdW  Elec       q    Type
                         _______ _______ _______ _____ _____    ______ ____

>  <TORSDO>
F 2

$$$$
=
 OpenBabel11062408293D

 32 37  0  0  1  0  0  0  0  0999 V2000
  159.8570  212.4960  151.7560 C   0  0  1  0  0  0  0  0  0  0  0  0
  161.0580  210.3960  151.3060 C   0  0  1  0  0  3  0  0  0  0  0  0
  159.6380  213.9840  151.5840 C   0  0  0  0  0  2  0  0  0  0  0  0
  161.1850  211.9160  151.2370 C   0  0  1  0  0  3  0  0  0  0  0  0
  162.1790  209.7030  150.5180 C   0  0  1  0  0  3  0  0  0  0  0  0
  160.1050  205.6270  154.3400 C   0  0  0  0  0  1  0  0  0  0  0  0
  160.9950  210.0010  152.7840 C   0  0  1  0  0  3  0  0  0  0  0  0
  162.2220  206.1600  152.6870 S   0  0  0  0  0  0  0  0  0  0  0  0
  162.2120  207.9230  152.2870 C   0  0  1  0  0  3  0  0  0  0  0  0
  161.7000  212.4390  149.8790 C   0  0  0  0  0  2  0  0  0  0  0  0
  162.2360  208.1880  150.7870 C   0  0  0  0  0  2  0  0  0  0  0  0
  161.4570  211.4480  148.7410 C   0  0  0  0  0  2  0  0  0  0  0  0
  157.4340  212.9570  151.0300 C   0  0  0  0  0  1  0  0  0  0  0  0
  159.8170  210.6750  153.4600 C   0  0  0  0  0  3  0  0  0  0  0  0
  159.3040  211.8530  153.0340 C   0  0  0  0  0  0  0  0  0  0  0  0
  160.9510  208.4830  152.8960 C   0  0  1  0  0  3  0  0  0  0  0  0
  162.0730  210.0600  149.0100 C   0  0  2  0  0  3  0  0  0  0  0  0
  158.9080  213.0060  150.6660 C   0  0  2  0  0  3  0  0  0  0  0  0
  161.3430  206.4960  154.2580 C   0  0  1  0  0  3  0  0  0  0  0  0
  160.9440  207.9670  154.3170 C   0  0  0  0  0  2  0  0  0  0  0  0
  158.0400  213.5000  156.2960 N   0  0  0  0  0  0  0  0  0  0  0  0
  154.8460  213.9420  155.8890 O   0  0  0  0  0  0  0  0  0  0  0  0
  158.5250  214.4130  157.1720 O   0  0  0  0  0  1  0  0  0  0  0  0
  155.7840  212.5480  154.2470 C   0  0  0  0  0  2  0  0  0  0  0  0
  158.2680  212.5520  153.8860 C   0  0  1  0  0  3  0  0  0  0  0  0
  156.7850  212.8420  156.6320 C   0  0  0  0  0  2  0  0  0  0  0  0
  157.0230  211.6840  154.0500 C   0  0  0  0  0  2  0  0  0  0  0  0
  158.8540  213.1130  155.1750 C   0  0  0  0  0  0  0  0  0  0  0  0
  160.0890  213.3690  155.2160 O   0  0  0  0  0  0  0  0  0  0  0  0
  155.7400  213.1600  155.6120 C   0  0  0  0  0  0  0  0  0  0  0  0
  161.3630  209.0050  148.1540 C   0  0  0  0  0  2  0  0  0  0  0  0
  162.2490  207.7980  147.8750 C   0  0  0  0  0  1  0  0  0  0  0  0
  1  3  1  1  0  0  0
  1 15  1  0  0  0  0
  2  7  1  0  0  0  0
  4  2  1  0  0  0  0
  4  1  1  0  0  0  0
  5 11  1  0  0  0  0
  5  2  1  0  0  0  0
  7 16  1  0  0  0  0
  7 14  1  0  0  0  0
  8 19  1  0  0  0  0
  9  8  1  0  0  0  0
  9 16  1  0  0  0  0
 10  4  1  0  0  0  0
 11  9  1  0  0  0  0
 12 17  1  0  0  0  0
 12 10  1  0  0  0  0
 15 14  2  0  0  0  0
 15 25  1  0  0  0  0
 16 20  1  0  0  0  0
 17  5  1  0  0  0  0
 18 13  1  0  0  0  0
 18  3  1  0  0  0  0
 18  1  1  0  0  0  0
 19 20  1  0  0  0  0
 19  6  1  0  0  0  0
 21 26  1  0  0  0  0
 21 23  1  0  0  0  0
 24 30  1  0  0  0  0
 25 27  1  0  0  0  0
 25 28  1  0  0  0  0
 27 24  1  0  0  0  0
 28 29  2  0  0  0  0
 28 21  1  0  0  0  0
 30 22  2  0  0  0  0
 30 26  1  0  0  0  0
 31 17  1  0  0  0  0
 32 31  1  0  0  0  0
M  END
>  <MODEL>
7

>  <REMARK>
 VINA RESULT:      -3.4      3.909      7.772
  Name = 
  2 active torsions:
  status: ('A' for Active; 'I' for Inactive)
    1  A    between atoms: C_13  and  C_29
    2  A    between atoms: C_16  and  C_27
                            x       y       z     vdW  Elec       q    Type
                         _______ _______ _______ _____ _____    ______ ____

>  <TORSDO>
F 2

$$$$
