=
 OpenBabel11062409383D

 34 37  0  0  1  0  0  0  0  0999 V2000
  160.8410  207.2710  151.8310 C   0  0  0  0  0  0  0  0  0  0  0  0
  161.4070  204.2820  149.8130 C   0  0  0  0  0  3  0  0  0  0  0  0
  161.4120  204.4910  152.2250 C   0  0  0  0  0  3  0  0  0  0  0  0
  160.6180  209.6080  152.7410 N   0  0  0  0  0  0  0  0  0  0  0  0
  160.7090  208.6990  151.6730 N   0  0  0  0  0  2  0  0  0  0  0  0
  161.5600  208.4660  154.6960 C   0  0  0  0  0  2  0  0  0  0  0  0
  160.2650  206.5950  155.4410 O   0  0  0  0  0  1  0  0  0  0  0  0
  161.8150  209.4500  153.5560 C   0  0  0  0  0  2  0  0  0  0  0  0
  161.2150  205.2640  153.2910 C   0  0  0  0  0  3  0  0  0  0  0  0
  160.8720  206.6570  153.1490 N   0  0  0  0  0  0  0  0  0  0  0  0
  160.4990  207.4270  154.3420 C   0  0  2  0  0  3  0  0  0  0  0  0
  161.2730  204.8100  148.4450 C   0  0  0  0  0  0  0  0  0  0  0  0
  161.0750  206.1220  148.2450 C   0  0  0  0  0  3  0  0  0  0  0  0
  161.2820  205.0660  150.8850 C   0  0  0  0  0  0  0  0  0  0  0  0
  161.0300  207.1340  149.3580 C   0  0  0  0  0  2  0  0  0  0  0  0
  161.0130  206.5120  150.7340 C   0  0  0  0  0  0  0  0  0  0  0  0
  160.6760  210.9420  152.1640 C   0  0  0  0  0  2  0  0  0  0  0  0
  158.8160  212.8520  154.8500 C   0  0  0  0  0  3  0  0  0  0  0  0
  158.7500  212.5350  152.0750 C   0  0  0  0  0  3  0  0  0  0  0  0
  157.8710  213.5570  154.0940 C   0  0  0  0  0  0  0  0  0  0  0  0
  157.8330  213.3960  152.6930 C   0  0  0  0  0  0  0  0  0  0  0  0
  159.6880  211.8320  152.8360 C   0  0  0  0  0  0  0  0  0  0  0  0
  159.7240  211.9960  154.2230 C   0  0  0  0  0  3  0  0  0  0  0  0
  156.8490  214.1250  151.8780 C   0  0  0  0  0  3  0  0  0  0  0  0
  156.7620  213.9380  150.6350 O   0  0  0  0  0  0  0  0  0  0  0  0
  156.9070  214.4500  154.8070 C   0  0  0  0  0  2  0  0  0  0  0  0
  156.8530  214.0900  156.2830 C   0  0  0  0  0  2  0  0  0  0  0  0
  155.6030  213.3320  156.5830 C   0  0  0  0  0  0  0  0  0  0  0  0
  155.5630  211.8560  156.3770 C   0  0  0  0  0  1  0  0  0  0  0  0
  154.6190  213.9130  157.0130 O   0  0  0  0  0  0  0  0  0  0  0  0
  161.3460  203.8940  147.3820 O   0  0  0  0  0  0  0  0  0  0  0  0
  160.8940  204.1120  145.1090 O   0  0  0  0  0  0  0  0  0  0  0  0
  163.1220  204.5710  145.7750 C   0  0  0  0  0  1  0  0  0  0  0  0
  161.7180  204.1770  146.0600 C   0  0  0  0  0  0  0  0  0  0  0  0
  1 10  1  0  0  0  0
  2 14  2  0  0  0  0
  3  9  2  0  0  0  0
  4  8  1  0  0  0  0
  5  1  1  0  0  0  0
  5  4  1  0  0  0  0
  8  6  1  0  0  0  0
 10  9  1  0  0  0  0
 10 11  1  0  0  0  0
 11  6  1  0  0  0  0
 11  7  1  1  0  0  0
 12  2  1  0  0  0  0
 13 12  2  0  0  0  0
 13 15  1  0  0  0  0
 14  3  1  0  0  0  0
 15 16  1  0  0  0  0
 16 14  1  0  0  0  0
 16  1  2  0  0  0  0
 17  4  1  0  0  0  0
 17 22  1  0  0  0  0
 19 21  2  0  0  0  0
 19 22  1  0  0  0  0
 20 26  1  0  0  0  0
 20 18  2  0  0  0  0
 21 20  1  0  0  0  0
 22 23  2  0  0  0  0
 23 18  1  0  0  0  0
 24 21  1  0  0  0  0
 25 24  2  0  0  0  0
 26 27  1  0  0  0  0
 27 28  1  0  0  0  0
 28 30  2  0  0  0  0
 29 28  1  0  0  0  0
 31 12  1  0  0  0  0
 32 34  2  0  0  0  0
 33 34  1  0  0  0  0
 34 31  1  0  0  0  0
M  END
>  <MODEL>
1

>  <REMARK>
 VINA RESULT:      -7.6      0.000      0.000
  Name = 
  8 active torsions:
  status: ('A' for Active; 'I' for Inactive)
    1  A    between atoms: C_7  and  C_11
    2  A    between atoms: C_7  and  C_14
    3  A    between atoms: N_8  and  C_18
    4  A    between atoms: C_14  and  C_16
    5  A    between atoms: C_18  and  C_30
    6  A    between atoms: O_23  and  C_24
    7  A    between atoms: O_23  and  C_25
    8  A    between atoms: C_26  and  C_28
                            x       y       z     vdW  Elec       q    Type
                         _______ _______ _______ _____ _____    ______ ____

>  <TORSDO>
F 8

$$$$
=
 OpenBabel11062409383D

 34 37  0  0  1  0  0  0  0  0999 V2000
  161.5450  205.2010  150.4850 C   0  0  0  0  0  0  0  0  0  0  0  0
  161.1180  202.8030  147.7660 C   0  0  0  0  0  3  0  0  0  0  0  0
  161.3680  205.2070  147.6250 C   0  0  0  0  0  3  0  0  0  0  0  0
  161.5840  206.4420  152.6760 N   0  0  0  0  0  0  0  0  0  0  0  0
  161.4810  205.2580  151.9250 N   0  0  0  0  0  2  0  0  0  0  0  0
  161.0210  208.2750  151.1460 C   0  0  0  0  0  2  0  0  0  0  0  0
  162.6130  208.5880  149.3850 O   0  0  0  0  0  1  0  0  0  0  0  0
  160.5170  207.3330  152.2370 C   0  0  0  0  0  2  0  0  0  0  0  0
  161.5910  206.3570  148.2560 C   0  0  0  0  0  3  0  0  0  0  0  0
  161.7420  206.4040  149.6900 N   0  0  0  0  0  0  0  0  0  0  0  0
  162.1540  207.6610  150.3250 C   0  0  2  0  0  3  0  0  0  0  0  0
  161.0270  201.5280  148.4980 C   0  0  0  0  0  0  0  0  0  0  0  0
  161.0380  201.5190  149.8390 C   0  0  0  0  0  3  0  0  0  0  0  0
  161.2700  203.9670  148.3980 C   0  0  2  0  0  3  0  0  0  0  0  0
  161.0880  202.7680  150.6780 C   0  0  0  0  0  3  0  0  0  0  0  0
  161.3410  204.0210  149.8740 C   0  0  0  0  0  0  0  0  0  0  0  0
  161.2960  206.0900  154.0560 C   0  0  0  0  0  2  0  0  0  0  0  0
  159.5270  208.4670  156.4100 C   0  0  0  0  0  3  0  0  0  0  0  0
  161.7870  208.4370  154.7700 C   0  0  0  0  0  3  0  0  0  0  0  0
  160.3530  209.5960  156.3480 C   0  0  0  0  0  0  0  0  0  0  0  0
  161.4930  209.5850  155.5180 C   0  0  0  0  0  0  0  0  0  0  0  0
  160.9560  207.3150  154.8350 C   0  0  0  0  0  0  0  0  0  0  0  0
  159.8290  207.3300  155.6600 C   0  0  0  0  0  3  0  0  0  0  0  0
  162.3760  210.7600  155.4340 C   0  0  0  0  0  3  0  0  0  0  0  0
  163.4510  210.8180  156.0880 O   0  0  0  0  0  0  0  0  0  0  0  0
  159.9820  210.7990  157.1550 C   0  0  0  0  0  2  0  0  0  0  0  0
  158.6220  211.3210  156.7240 C   0  0  0  0  0  2  0  0  0  0  0  0
  158.7310  212.0160  155.4080 C   0  0  0  0  0  0  0  0  0  0  0  0
  157.8090  211.6470  154.2960 C   0  0  0  0  0  1  0  0  0  0  0  0
  159.5590  212.8980  155.2450 O   0  0  0  0  0  0  0  0  0  0  0  0
  160.9450  200.3460  147.7420 O   0  0  0  0  0  0  0  0  0  0  0  0
  160.5380  201.1960  145.6130 O   0  0  0  0  0  0  0  0  0  0  0  0
  161.4280  199.0010  145.7050 C   0  0  0  0  0  1  0  0  0  0  0  0
  160.9390  200.2500  146.3430 C   0  0  0  0  0  0  0  0  0  0  0  0
  1  5  1  0  0  0  0
  2 14  1  0  0  0  0
  2 12  2  0  0  0  0
  3  9  2  0  0  0  0
  4 17  1  0  0  0  0
  5  4  1  0  0  0  0
  6  8  1  0  0  0  0
  8  4  1  0  0  0  0
  9 10  1  0  0  0  0
 10 11  1  0  0  0  0
 10  1  1  0  0  0  0
 11  7  1  6  0  0  0
 11  6  1  0  0  0  0
 12 13  1  0  0  0  0
 13 15  2  0  0  0  0
 14  3  1  6  0  0  0
 14 16  1  0  0  0  0
 16  1  2  0  0  0  0
 16 15  1  0  0  0  0
 17 22  1  0  0  0  0
 19 22  2  0  0  0  0
 19 21  1  0  0  0  0
 20 18  1  0  0  0  0
 20 26  1  0  0  0  0
 21 20  2  0  0  0  0
 22 23  1  0  0  0  0
 23 18  2  0  0  0  0
 24 21  1  0  0  0  0
 24 25  2  0  0  0  0
 27 26  1  0  0  0  0
 28 27  1  0  0  0  0
 29 28  1  0  0  0  0
 30 28  2  0  0  0  0
 31 12  1  0  0  0  0
 32 34  2  0  0  0  0
 33 34  1  0  0  0  0
 34 31  1  0  0  0  0
M  END
>  <MODEL>
2

>  <REMARK>
 VINA RESULT:      -7.5      2.650      4.696
  Name = 
  8 active torsions:
  status: ('A' for Active; 'I' for Inactive)
    1  A    between atoms: C_7  and  C_11
    2  A    between atoms: C_7  and  C_14
    3  A    between atoms: N_8  and  C_18
    4  A    between atoms: C_14  and  C_16
    5  A    between atoms: C_18  and  C_30
    6  A    between atoms: O_23  and  C_24
    7  A    between atoms: O_23  and  C_25
    8  A    between atoms: C_26  and  C_28
                            x       y       z     vdW  Elec       q    Type
                         _______ _______ _______ _____ _____    ______ ____

>  <TORSDO>
F 8

$$$$
=
 OpenBabel11062409383D

 34 37  0  0  1  0  0  0  0  0999 V2000
  160.9210  207.1350  151.5320 C   0  0  0  0  0  0  0  0  0  0  0  0
  161.4420  204.1430  149.5050 C   0  0  0  0  0  3  0  0  0  0  0  0
  161.4030  204.3370  151.9180 C   0  0  0  0  0  3  0  0  0  0  0  0
  160.7460  209.4710  152.4540 N   0  0  0  0  0  0  0  0  0  0  0  0
  160.8330  208.5660  151.3820 N   0  0  0  0  0  2  0  0  0  0  0  0
  161.6150  208.2890  154.4210 C   0  0  0  0  0  2  0  0  0  0  0  0
  160.2510  206.4520  155.1250 O   0  0  0  0  0  1  0  0  0  0  0  0
  161.9220  209.2720  153.2920 C   0  0  0  0  0  2  0  0  0  0  0  0
  161.2060  205.1070  152.9850 C   0  0  0  0  0  3  0  0  0  0  0  0
  160.9070  206.5110  152.8460 N   0  0  0  0  0  0  0  0  0  0  0  0
  160.5310  207.2840  154.0370 C   0  0  2  0  0  3  0  0  0  0  0  0
  161.3520  204.6850  148.1380 C   0  0  0  0  0  0  0  0  0  0  0  0
  161.1960  206.0030  147.9440 C   0  0  0  0  0  3  0  0  0  0  0  0
  161.3180  204.9230  150.5790 C   0  0  0  0  0  0  0  0  0  0  0  0
  161.1570  207.0080  149.0630 C   0  0  0  0  0  2  0  0  0  0  0  0
  161.0930  206.3780  150.4340 C   0  0  0  0  0  0  0  0  0  0  0  0
  160.8550  210.8060  151.8880 C   0  0  0  0  0  2  0  0  0  0  0  0
  158.2120  213.3850  152.7160 C   0  0  0  0  0  3  0  0  0  0  0  0
  160.1410  211.8600  154.0410 C   0  0  0  0  0  3  0  0  0  0  0  0
  158.3500  213.4970  154.1050 C   0  0  0  0  0  0  0  0  0  0  0  0
  159.3250  212.7310  154.7770 C   0  0  0  0  0  0  0  0  0  0  0  0
  160.0010  211.7560  152.6550 C   0  0  0  0  0  0  0  0  0  0  0  0
  159.0320  212.5150  151.9940 C   0  0  0  0  0  3  0  0  0  0  0  0
  159.4900  212.8320  156.2360 C   0  0  0  0  0  3  0  0  0  0  0  0
  159.1330  211.8970  157.0010 O   0  0  0  0  0  0  0  0  0  0  0  0
  157.4630  214.4530  154.8370 C   0  0  0  0  0  2  0  0  0  0  0  0
  156.0200  213.9790  154.7780 C   0  0  0  0  0  2  0  0  0  0  0  0
  155.8110  212.8440  155.7230 C   0  0  0  0  0  0  0  0  0  0  0  0
  155.7790  213.0990  157.1920 C   0  0  0  0  0  1  0  0  0  0  0  0
  155.6480  211.7110  155.2980 O   0  0  0  0  0  0  0  0  0  0  0  0
  161.4200  203.7730  147.0700 O   0  0  0  0  0  0  0  0  0  0  0  0
  163.0050  204.1160  145.4000 O   0  0  0  0  0  0  0  0  0  0  0  0
  160.7370  204.3010  144.7360 C   0  0  0  0  0  1  0  0  0  0  0  0
  161.7960  204.0610  145.7500 C   0  0  0  0  0  0  0  0  0  0  0  0
  1 10  1  0  0  0  0
  2 14  2  0  0  0  0
  3  9  2  0  0  0  0
  4  8  1  0  0  0  0
  5  1  1  0  0  0  0
  5  4  1  0  0  0  0
  8  6  1  0  0  0  0
 10  9  1  0  0  0  0
 10 11  1  0  0  0  0
 11  6  1  0  0  0  0
 11  7  1  1  0  0  0
 12  2  1  0  0  0  0
 13 12  2  0  0  0  0
 13 15  1  0  0  0  0
 14  3  1  0  0  0  0
 15 16  1  0  0  0  0
 16 14  1  0  0  0  0
 16  1  2  0  0  0  0
 17  4  1  0  0  0  0
 17 22  1  0  0  0  0
 18 20  1  0  0  0  0
 19 21  1  0  0  0  0
 20 21  2  0  0  0  0
 20 26  1  0  0  0  0
 21 24  1  0  0  0  0
 22 19  2  0  0  0  0
 23 22  1  0  0  0  0
 23 18  2  0  0  0  0
 24 25  2  0  0  0  0
 27 26  1  0  0  0  0
 27 28  1  0  0  0  0
 28 29  1  0  0  0  0
 30 28  2  0  0  0  0
 31 12  1  0  0  0  0
 32 34  2  0  0  0  0
 33 34  1  0  0  0  0
 34 31  1  0  0  0  0
M  END
>  <MODEL>
3

>  <REMARK>
 VINA RESULT:      -7.4      1.264      1.967
  Name = 
  8 active torsions:
  status: ('A' for Active; 'I' for Inactive)
    1  A    between atoms: C_7  and  C_11
    2  A    between atoms: C_7  and  C_14
    3  A    between atoms: N_8  and  C_18
    4  A    between atoms: C_14  and  C_16
    5  A    between atoms: C_18  and  C_30
    6  A    between atoms: O_23  and  C_24
    7  A    between atoms: O_23  and  C_25
    8  A    between atoms: C_26  and  C_28
                            x       y       z     vdW  Elec       q    Type
                         _______ _______ _______ _____ _____    ______ ____

>  <TORSDO>
F 8

$$$$
=
 OpenBabel11062409383D

 34 37  0  0  1  0  0  0  0  0999 V2000
  161.4310  207.0710  151.6710 C   0  0  0  0  0  0  0  0  0  0  0  0
  161.0010  204.0710  149.6350 C   0  0  0  0  0  3  0  0  0  0  0  0
  161.1210  206.3770  148.9080 C   0  0  0  0  0  3  0  0  0  0  0  0
  161.5090  208.8060  153.4940 N   0  0  0  0  0  0  0  0  0  0  0  0
  161.4310  207.4720  153.0560 N   0  0  0  0  0  2  0  0  0  0  0  0
  160.7840  210.1910  151.6040 C   0  0  0  0  0  2  0  0  0  0  0  0
  162.2740  210.1290  149.7310 O   0  0  0  0  0  1  0  0  0  0  0  0
  160.3790  209.5230  152.9170 C   0  0  0  0  0  2  0  0  0  0  0  0
  161.3150  207.6530  149.2310 C   0  0  0  0  0  3  0  0  0  0  0  0
  161.5300  208.0520  150.6000 N   0  0  0  0  0  0  0  0  0  0  0  0
  161.9070  209.4410  150.8910 C   0  0  2  0  0  3  0  0  0  0  0  0
  161.0080  203.0090  150.6560 C   0  0  0  0  0  0  0  0  0  0  0  0
  161.0820  203.3260  151.9570 C   0  0  0  0  0  3  0  0  0  0  0  0
  161.1220  205.3590  149.9600 C   0  0  2  0  0  3  0  0  0  0  0  0
  161.1080  204.7420  152.4670 C   0  0  0  0  0  3  0  0  0  0  0  0
  161.2590  205.7710  151.3730 C   0  0  0  0  0  0  0  0  0  0  0  0
  161.3030  208.7880  154.9330 C   0  0  0  0  0  2  0  0  0  0  0  0
  160.2860  212.2870  155.9550 C   0  0  0  0  0  3  0  0  0  0  0  0
  159.0820  209.8210  155.4360 C   0  0  0  0  0  3  0  0  0  0  0  0
  158.8950  212.1610  156.0530 C   0  0  0  0  0  0  0  0  0  0  0  0
  158.2840  210.9170  155.7960 C   0  0  0  0  0  0  0  0  0  0  0  0
  160.4700  209.9530  155.3440 C   0  0  0  0  0  0  0  0  0  0  0  0
  161.0700  211.1890  155.5980 C   0  0  0  0  0  3  0  0  0  0  0  0
  156.8240  210.7580  155.8940 C   0  0  0  0  0  3  0  0  0  0  0  0
  156.0850  210.8580  154.8780 O   0  0  0  0  0  0  0  0  0  0  0  0
  158.0950  213.3590  156.4560 C   0  0  0  0  0  2  0  0  0  0  0  0
  158.2210  214.4500  155.4050 C   0  0  0  0  0  2  0  0  0  0  0  0
  157.2370  214.2230  154.3060 C   0  0  0  0  0  0  0  0  0  0  0  0
  155.7760  214.2630  154.6000 C   0  0  0  0  0  1  0  0  0  0  0  0
  157.6230  214.0220  153.1660 O   0  0  0  0  0  0  0  0  0  0  0  0
  160.9500  201.6770  150.2110 O   0  0  0  0  0  0  0  0  0  0  0  0
  159.3640  201.5030  148.5170 O   0  0  0  0  0  0  0  0  0  0  0  0
  161.4420  200.4390  148.1090 C   0  0  0  0  0  1  0  0  0  0  0  0
  160.5160  201.2360  148.9520 C   0  0  0  0  0  0  0  0  0  0  0  0
  1  5  1  0  0  0  0
  2 14  1  0  0  0  0
  2 12  2  0  0  0  0
  3  9  2  0  0  0  0
  4 17  1  0  0  0  0
  5  4  1  0  0  0  0
  6  8  1  0  0  0  0
  8  4  1  0  0  0  0
  9 10  1  0  0  0  0
 10 11  1  0  0  0  0
 10  1  1  0  0  0  0
 11  7  1  6  0  0  0
 11  6  1  0  0  0  0
 12 13  1  0  0  0  0
 13 15  2  0  0  0  0
 14  3  1  6  0  0  0
 14 16  1  0  0  0  0
 16  1  2  0  0  0  0
 16 15  1  0  0  0  0
 17 22  1  0  0  0  0
 18 20  1  0  0  0  0
 19 21  1  0  0  0  0
 20 26  1  0  0  0  0
 21 24  1  0  0  0  0
 21 20  2  0  0  0  0
 22 19  2  0  0  0  0
 22 23  1  0  0  0  0
 23 18  2  0  0  0  0
 25 24  2  0  0  0  0
 27 26  1  0  0  0  0
 28 29  1  0  0  0  0
 28 27  1  0  0  0  0
 30 28  2  0  0  0  0
 31 12  1  0  0  0  0
 32 34  2  0  0  0  0
 33 34  1  0  0  0  0
 34 31  1  0  0  0  0
M  END
>  <MODEL>
4

>  <REMARK>
 VINA RESULT:      -7.4      2.307      3.587
  Name = 
  8 active torsions:
  status: ('A' for Active; 'I' for Inactive)
    1  A    between atoms: C_7  and  C_11
    2  A    between atoms: C_7  and  C_14
    3  A    between atoms: N_8  and  C_18
    4  A    between atoms: C_14  and  C_16
    5  A    between atoms: C_18  and  C_30
    6  A    between atoms: O_23  and  C_24
    7  A    between atoms: O_23  and  C_25
    8  A    between atoms: C_26  and  C_28
                            x       y       z     vdW  Elec       q    Type
                         _______ _______ _______ _____ _____    ______ ____

>  <TORSDO>
F 8

$$$$
=
 OpenBabel11062409383D

 34 37  0  0  1  0  0  0  0  0999 V2000
  160.9370  208.5770  153.1330 C   0  0  0  0  0  0  0  0  0  0  0  0
  161.9900  206.4100  150.3900 C   0  0  0  0  0  3  0  0  0  0  0  0
  161.5020  205.8040  152.6820 C   0  0  0  0  0  3  0  0  0  0  0  0
  160.4640  210.4840  154.7060 N   0  0  0  0  0  0  0  0  0  0  0  0
  160.7960  209.9800  153.4370 N   0  0  0  0  0  2  0  0  0  0  0  0
  161.0260  208.7200  156.3150 C   0  0  0  0  0  2  0  0  0  0  0  0
  159.6650  206.7600  156.1170 O   0  0  0  0  0  1  0  0  0  0  0  0
  161.4760  210.0160  155.6440 C   0  0  0  0  0  2  0  0  0  0  0  0
  161.0690  206.1840  153.8820 C   0  0  0  0  0  3  0  0  0  0  0  0
  160.7200  207.5580  154.1480 N   0  0  0  0  0  0  0  0  0  0  0  0
  160.0900  207.9010  155.4290 C   0  0  2  0  0  3  0  0  0  0  0  0
  162.1200  207.3690  149.2790 C   0  0  0  0  0  0  0  0  0  0  0  0
  161.9260  208.6790  149.4940 C   0  0  0  0  0  3  0  0  0  0  0  0
  161.6280  206.7970  151.6130 C   0  0  0  0  0  0  0  0  0  0  0  0
  161.6260  209.2630  150.8480 C   0  0  0  0  0  2  0  0  0  0  0  0
  161.3500  208.2200  151.9030 C   0  0  0  0  0  0  0  0  0  0  0  0
  160.5970  211.9300  154.6320 C   0  0  0  0  0  2  0  0  0  0  0  0
  159.2250  213.0160  151.2770 C   0  0  0  0  0  3  0  0  0  0  0  0
  158.3930  212.8900  153.9400 C   0  0  0  0  0  3  0  0  0  0  0  0
  157.9340  213.4380  151.6200 C   0  0  0  0  0  0  0  0  0  0  0  0
  157.5130  213.3790  152.9650 C   0  0  0  0  0  0  0  0  0  0  0  0
  159.6800  212.4740  153.5900 C   0  0  0  0  0  0  0  0  0  0  0  0
  160.0930  212.5320  152.2570 C   0  0  0  0  0  3  0  0  0  0  0  0
  156.1630  213.8180  153.3510 C   0  0  0  0  0  3  0  0  0  0  0  0
  155.4070  213.0810  154.0390 O   0  0  0  0  0  0  0  0  0  0  0  0
  157.0440  213.9640  150.5410 C   0  0  0  0  0  2  0  0  0  0  0  0
  156.9830  212.9800  149.3840 C   0  0  0  0  0  2  0  0  0  0  0  0
  157.3440  213.6640  148.1080 C   0  0  0  0  0  0  0  0  0  0  0  0
  158.7690  213.7220  147.6750 C   0  0  0  0  0  1  0  0  0  0  0  0
  156.4750  214.1590  147.4080 O   0  0  0  0  0  0  0  0  0  0  0  0
  162.4330  206.8560  148.0090 O   0  0  0  0  0  0  0  0  0  0  0  0
  160.6760  206.5000  146.5250 O   0  0  0  0  0  0  0  0  0  0  0  0
  161.8840  204.5710  147.1890 C   0  0  0  0  0  1  0  0  0  0  0  0
  161.6190  206.0330  147.2170 C   0  0  0  0  0  0  0  0  0  0  0  0
  1  5  1  0  0  0  0
  1 10  1  0  0  0  0
  2 14  2  0  0  0  0
  3  9  2  0  0  0  0
  4  8  1  0  0  0  0
  5  4  1  0  0  0  0
  8  6  1  0  0  0  0
  9 10  1  0  0  0  0
 10 11  1  0  0  0  0
 11  7  1  1  0  0  0
 11  6  1  0  0  0  0
 12 13  2  0  0  0  0
 12  2  1  0  0  0  0
 13 15  1  0  0  0  0
 14 16  1  0  0  0  0
 14  3  1  0  0  0  0
 15 16  1  0  0  0  0
 16  1  2  0  0  0  0
 17  4  1  0  0  0  0
 18 20  2  0  0  0  0
 18 23  1  0  0  0  0
 20 21  1  0  0  0  0
 21 24  1  0  0  0  0
 21 19  2  0  0  0  0
 22 19  1  0  0  0  0
 22 17  1  0  0  0  0
 23 22  2  0  0  0  0
 24 25  2  0  0  0  0
 26 20  1  0  0  0  0
 27 26  1  0  0  0  0
 28 27  1  0  0  0  0
 29 28  1  0  0  0  0
 30 28  2  0  0  0  0
 31 12  1  0  0  0  0
 32 34  2  0  0  0  0
 33 34  1  0  0  0  0
 34 31  1  0  0  0  0
M  END
>  <MODEL>
5

>  <REMARK>
 VINA RESULT:      -7.3      1.936      3.723
  Name = 
  8 active torsions:
  status: ('A' for Active; 'I' for Inactive)
    1  A    between atoms: C_7  and  C_11
    2  A    between atoms: C_7  and  C_14
    3  A    between atoms: N_8  and  C_18
    4  A    between atoms: C_14  and  C_16
    5  A    between atoms: C_18  and  C_30
    6  A    between atoms: O_23  and  C_24
    7  A    between atoms: O_23  and  C_25
    8  A    between atoms: C_26  and  C_28
                            x       y       z     vdW  Elec       q    Type
                         _______ _______ _______ _____ _____    ______ ____

>  <TORSDO>
F 8

$$$$
=
 OpenBabel11062409383D

 34 37  0  0  1  0  0  0  0  0999 V2000
  160.8030  208.8640  153.2230 C   0  0  0  0  0  0  0  0  0  0  0  0
  162.1420  206.7750  150.5450 C   0  0  0  0  0  3  0  0  0  0  0  0
  161.5950  206.1400  152.8160 C   0  0  0  0  0  3  0  0  0  0  0  0
  160.1150  210.7340  154.7620 N   0  0  0  0  0  0  0  0  0  0  0  0
  160.5440  210.2520  153.5130 N   0  0  0  0  0  2  0  0  0  0  0  0
  160.7340  209.0210  156.4060 C   0  0  0  0  0  2  0  0  0  0  0  0
  159.5350  206.9630  156.1570 O   0  0  0  0  0  1  0  0  0  0  0  0
  161.1160  210.3460  155.7480 C   0  0  0  0  0  2  0  0  0  0  0  0
  161.0800  206.4900  153.9920 C   0  0  0  0  0  3  0  0  0  0  0  0
  160.6170  207.8340  154.2340 N   0  0  0  0  0  0  0  0  0  0  0  0
  159.9040  208.1310  155.4830 C   0  0  2  0  0  3  0  0  0  0  0  0
  162.2500  207.7390  149.4350 C   0  0  0  0  0  0  0  0  0  0  0  0
  161.9490  209.0300  149.6330 C   0  0  0  0  0  3  0  0  0  0  0  0
  161.6950  207.1370  151.7480 C   0  0  0  0  0  0  0  0  0  0  0  0
  161.5430  209.5940  150.9680 C   0  0  0  0  0  2  0  0  0  0  0  0
  161.2980  208.5360  152.0170 C   0  0  0  0  0  0  0  0  0  0  0  0
  160.1420  212.1850  154.6860 C   0  0  0  0  0  2  0  0  0  0  0  0
  157.3570  213.3050  152.3820 C   0  0  0  0  0  3  0  0  0  0  0  0
  160.1220  212.9160  152.2940 C   0  0  0  0  0  3  0  0  0  0  0  0
  158.0580  213.5740  151.1990 C   0  0  0  0  0  0  0  0  0  0  0  0
  159.4530  213.3750  151.1510 C   0  0  0  0  0  0  0  0  0  0  0  0
  159.4160  212.6460  153.4690 C   0  0  0  0  0  0  0  0  0  0  0  0
  158.0340  212.8460  153.5130 C   0  0  0  0  0  3  0  0  0  0  0  0
  160.2110  213.6490  149.9200 C   0  0  0  0  0  3  0  0  0  0  0  0
  160.9320  212.7650  149.3840 O   0  0  0  0  0  0  0  0  0  0  0  0
  157.2910  214.0470  150.0060 C   0  0  0  0  0  2  0  0  0  0  0  0
  157.0630  212.8970  149.0390 C   0  0  0  0  0  2  0  0  0  0  0  0
  157.4070  213.3180  147.6490 C   0  0  0  0  0  0  0  0  0  0  0  0
  157.1970  212.3730  146.5150 C   0  0  0  0  0  1  0  0  0  0  0  0
  157.8430  214.4380  147.4350 O   0  0  0  0  0  0  0  0  0  0  0  0
  162.6600  207.2480  148.1840 O   0  0  0  0  0  0  0  0  0  0  0  0
  160.7000  206.5180  147.1610 O   0  0  0  0  0  0  0  0  0  0  0  0
  162.6570  205.2730  146.6690 C   0  0  0  0  0  1  0  0  0  0  0  0
  161.9380  206.3800  147.3510 C   0  0  0  0  0  0  0  0  0  0  0  0
  1  5  1  0  0  0  0
  1 10  1  0  0  0  0
  2 14  2  0  0  0  0
  3  9  2  0  0  0  0
  4  8  1  0  0  0  0
  5  4  1  0  0  0  0
  8  6  1  0  0  0  0
  9 10  1  0  0  0  0
 10 11  1  0  0  0  0
 11  7  1  1  0  0  0
 11  6  1  0  0  0  0
 12 13  2  0  0  0  0
 12  2  1  0  0  0  0
 13 15  1  0  0  0  0
 14 16  1  0  0  0  0
 14  3  1  0  0  0  0
 15 16  1  0  0  0  0
 16  1  2  0  0  0  0
 17  4  1  0  0  0  0
 18 23  1  0  0  0  0
 19 22  1  0  0  0  0
 20 18  2  0  0  0  0
 21 20  1  0  0  0  0
 21 19  2  0  0  0  0
 22 23  2  0  0  0  0
 22 17  1  0  0  0  0
 24 21  1  0  0  0  0
 25 24  2  0  0  0  0
 26 20  1  0  0  0  0
 27 26  1  0  0  0  0
 28 27  1  0  0  0  0
 29 28  1  0  0  0  0
 30 28  2  0  0  0  0
 31 12  1  0  0  0  0
 32 34  2  0  0  0  0
 33 34  1  0  0  0  0
 34 31  1  0  0  0  0
M  END
>  <MODEL>
6

>  <REMARK>
 VINA RESULT:      -7.2      2.466      4.035
  Name = 
  8 active torsions:
  status: ('A' for Active; 'I' for Inactive)
    1  A    between atoms: C_7  and  C_11
    2  A    between atoms: C_7  and  C_14
    3  A    between atoms: N_8  and  C_18
    4  A    between atoms: C_14  and  C_16
    5  A    between atoms: C_18  and  C_30
    6  A    between atoms: O_23  and  C_24
    7  A    between atoms: O_23  and  C_25
    8  A    between atoms: C_26  and  C_28
                            x       y       z     vdW  Elec       q    Type
                         _______ _______ _______ _____ _____    ______ ____

>  <TORSDO>
F 8

$$$$
=
 OpenBabel11062409383D

 34 37  0  0  1  0  0  0  0  0999 V2000
  160.4660  212.3400  150.7270 C   0  0  0  0  0  0  0  0  0  0  0  0
  160.3530  213.7280  147.3520 C   0  0  0  0  0  3  0  0  0  0  0  0
  158.7300  213.9700  149.1320 C   0  0  0  0  0  3  0  0  0  0  0  0
  160.8980  210.9950  152.8120 N   0  0  0  0  0  0  0  0  0  0  0  0
  161.2310  211.3990  151.5070 N   0  0  0  0  0  2  0  0  0  0  0  0
  158.5060  211.4690  153.0850 C   0  0  0  0  0  2  0  0  0  0  0  0
  157.9740  213.8030  153.0670 O   0  0  0  0  0  1  0  0  0  0  0  0
  159.5620  210.4130  152.7620 C   0  0  0  0  0  2  0  0  0  0  0  0
  158.4040  213.7360  150.4010 C   0  0  0  0  0  3  0  0  0  0  0  0
  159.2670  212.9670  151.2630 N   0  0  0  0  0  0  0  0  0  0  0  0
  158.9520  212.8760  152.6940 C   0  0  2  0  0  3  0  0  0  0  0  0
  161.6130  213.2240  146.7760 C   0  0  0  0  0  0  0  0  0  0  0  0
  162.3990  212.4040  147.4880 C   0  0  0  0  0  3  0  0  0  0  0  0
  159.9860  213.4360  148.6000 C   0  0  2  0  0  3  0  0  0  0  0  0
  162.0480  211.9030  148.8640 C   0  0  0  0  0  3  0  0  0  0  0  0
  160.8340  212.5780  149.4560 C   0  0  0  0  0  0  0  0  0  0  0  0
  161.8100  209.9210  153.1660 C   0  0  0  0  0  2  0  0  0  0  0  0
  160.8390  206.4270  152.0860 C   0  0  0  0  0  3  0  0  0  0  0  0
  161.7130  208.8130  150.9260 C   0  0  0  0  0  3  0  0  0  0  0  0
  161.0030  206.5040  150.6970 C   0  0  0  0  0  0  0  0  0  0  0  0
  161.4470  207.7050  150.1090 C   0  0  0  0  0  0  0  0  0  0  0  0
  161.5510  208.7280  152.3110 C   0  0  0  0  0  0  0  0  0  0  0  0
  161.1080  207.5360  152.8890 C   0  0  0  0  0  3  0  0  0  0  0  0
  161.6280  207.8100  148.6520 C   0  0  0  0  0  3  0  0  0  0  0  0
  162.7060  208.2340  148.1550 O   0  0  0  0  0  0  0  0  0  0  0  0
  160.7190  205.2870  149.8760 C   0  0  0  0  0  2  0  0  0  0  0  0
  160.8390  204.0360  150.7320 C   0  0  0  0  0  2  0  0  0  0  0  0
  160.8580  202.8200  149.8670 C   0  0  0  0  0  0  0  0  0  0  0  0
  161.1960  202.9440  148.4200 C   0  0  0  0  0  1  0  0  0  0  0  0
  160.6160  201.7230  150.3440 O   0  0  0  0  0  0  0  0  0  0  0  0
  161.9510  213.6470  145.4790 O   0  0  0  0  0  0  0  0  0  0  0  0
  162.6090  212.7640  143.4290 O   0  0  0  0  0  0  0  0  0  0  0  0
  160.3410  212.4230  144.0280 C   0  0  0  0  0  1  0  0  0  0  0  0
  161.7040  212.9540  144.2850 C   0  0  0  0  0  0  0  0  0  0  0  0
  1 10  1  0  0  0  0
  1  5  1  0  0  0  0
  3  9  2  0  0  0  0
  4 17  1  0  0  0  0
  5  4  1  0  0  0  0
  8  4  1  0  0  0  0
  8  6  1  0  0  0  0
  9 10  1  0  0  0  0
 10 11  1  0  0  0  0
 11  7  1  6  0  0  0
 11  6  1  0  0  0  0
 12  2  2  0  0  0  0
 12 13  1  0  0  0  0
 13 15  2  0  0  0  0
 14  2  1  1  0  0  0
 14  3  1  0  0  0  0
 14 16  1  0  0  0  0
 15 16  1  0  0  0  0
 16  1  2  0  0  0  0
 18 23  1  0  0  0  0
 19 22  1  0  0  0  0
 20 18  2  0  0  0  0
 21 20  1  0  0  0  0
 21 19  2  0  0  0  0
 22 23  2  0  0  0  0
 22 17  1  0  0  0  0
 24 21  1  0  0  0  0
 25 24  2  0  0  0  0
 26 20  1  0  0  0  0
 26 27  1  0  0  0  0
 28 30  2  0  0  0  0
 28 27  1  0  0  0  0
 29 28  1  0  0  0  0
 31 12  1  0  0  0  0
 32 34  2  0  0  0  0
 33 34  1  0  0  0  0
 34 31  1  0  0  0  0
M  END
>  <MODEL>
7

>  <REMARK>
 VINA RESULT:      -7.2      3.778      8.280
  Name = 
  8 active torsions:
  status: ('A' for Active; 'I' for Inactive)
    1  A    between atoms: C_7  and  C_11
    2  A    between atoms: C_7  and  C_14
    3  A    between atoms: N_8  and  C_18
    4  A    between atoms: C_14  and  C_16
    5  A    between atoms: C_18  and  C_30
    6  A    between atoms: O_23  and  C_24
    7  A    between atoms: O_23  and  C_25
    8  A    between atoms: C_26  and  C_28
                            x       y       z     vdW  Elec       q    Type
                         _______ _______ _______ _____ _____    ______ ____

>  <TORSDO>
F 8

$$$$
=
 OpenBabel11062409383D

 34 37  0  0  1  0  0  0  0  0999 V2000
  161.0830  206.0050  150.3480 C   0  0  0  0  0  0  0  0  0  0  0  0
  161.2810  203.4790  147.7200 C   0  0  0  0  0  3  0  0  0  0  0  0
  161.3800  203.1640  150.1180 C   0  0  0  0  0  3  0  0  0  0  0  0
  161.1270  208.1020  151.7410 N   0  0  0  0  0  0  0  0  0  0  0  0
  161.0930  207.4390  150.5020 N   0  0  0  0  0  2  0  0  0  0  0  0
  162.0070  206.4840  153.3610 C   0  0  0  0  0  2  0  0  0  0  0  0
  160.5510  204.6250  153.7600 O   0  0  0  0  0  1  0  0  0  0  0  0
  162.3260  207.6610  152.4420 C   0  0  0  0  0  2  0  0  0  0  0  0
  161.2940  203.7040  151.3310 C   0  0  0  0  0  3  0  0  0  0  0  0
  161.0910  205.1210  151.5040 N   0  0  0  0  0  0  0  0  0  0  0  0
  160.8350  205.6490  152.8500 C   0  0  2  0  0  3  0  0  0  0  0  0
  161.1610  204.2990  146.5020 C   0  0  0  0  0  0  0  0  0  0  0  0
  161.0920  205.6350  146.5940 C   0  0  0  0  0  3  0  0  0  0  0  0
  161.2690  204.0220  148.9370 C   0  0  0  0  0  0  0  0  0  0  0  0
  161.1830  206.3850  147.8960 C   0  0  0  0  0  2  0  0  0  0  0  0
  161.1440  205.4860  149.1090 C   0  0  0  0  0  0  0  0  0  0  0  0
  161.3040  209.5170  151.4560 C   0  0  0  0  0  2  0  0  0  0  0  0
  159.0870  212.2210  152.9010 C   0  0  0  0  0  3  0  0  0  0  0  0
  160.4470  209.9410  153.7670 C   0  0  0  0  0  3  0  0  0  0  0  0
  159.0080  211.8360  154.2450 C   0  0  0  0  0  0  0  0  0  0  0  0
  159.6960  210.6870  154.6860 C   0  0  0  0  0  0  0  0  0  0  0  0
  160.5250  210.3340  152.4290 C   0  0  0  0  0  0  0  0  0  0  0  0
  159.8390  211.4720  151.9960 C   0  0  0  0  0  3  0  0  0  0  0  0
  159.6300  210.2620  156.0940 C   0  0  0  0  0  3  0  0  0  0  0  0
  160.3820  209.3550  156.5390 O   0  0  0  0  0  0  0  0  0  0  0  0
  158.2040  212.6780  155.1840 C   0  0  0  0  0  2  0  0  0  0  0  0
  156.7350  212.6400  154.7960 C   0  0  0  0  0  2  0  0  0  0  0  0
  156.0100  211.6310  155.6230 C   0  0  0  0  0  0  0  0  0  0  0  0
  155.5780  210.3430  155.0090 C   0  0  0  0  0  1  0  0  0  0  0  0
  155.7860  211.8480  156.8030 O   0  0  0  0  0  0  0  0  0  0  0  0
  161.1070  203.6290  145.2680 O   0  0  0  0  0  0  0  0  0  0  0  0
  159.1450  203.2010  144.0910 O   0  0  0  0  0  0  0  0  0  0  0  0
  160.1080  201.3510  145.2170 C   0  0  0  0  0  1  0  0  0  0  0  0
  160.0820  202.7820  144.8220 C   0  0  0  0  0  0  0  0  0  0  0  0
  1  5  1  0  0  0  0
  1 10  1  0  0  0  0
  2 14  2  0  0  0  0
  3  9  2  0  0  0  0
  4  8  1  0  0  0  0
  5  4  1  0  0  0  0
  8  6  1  0  0  0  0
  9 10  1  0  0  0  0
 10 11  1  0  0  0  0
 11  6  1  0  0  0  0
 11  7  1  1  0  0  0
 12 13  2  0  0  0  0
 12  2  1  0  0  0  0
 13 15  1  0  0  0  0
 14 16  1  0  0  0  0
 14  3  1  0  0  0  0
 15 16  1  0  0  0  0
 16  1  2  0  0  0  0
 17  4  1  0  0  0  0
 17 22  1  0  0  0  0
 18 20  1  0  0  0  0
 19 21  1  0  0  0  0
 20 21  2  0  0  0  0
 20 26  1  0  0  0  0
 21 24  1  0  0  0  0
 22 19  2  0  0  0  0
 23 22  1  0  0  0  0
 23 18  2  0  0  0  0
 24 25  2  0  0  0  0
 27 26  1  0  0  0  0
 27 28  1  0  0  0  0
 28 30  2  0  0  0  0
 29 28  1  0  0  0  0
 31 12  1  0  0  0  0
 32 34  2  0  0  0  0
 34 33  1  0  0  0  0
 34 31  1  0  0  0  0
M  END
>  <MODEL>
8

>  <REMARK>
 VINA RESULT:      -6.9      1.918      2.917
  Name = 
  8 active torsions:
  status: ('A' for Active; 'I' for Inactive)
    1  A    between atoms: C_7  and  C_11
    2  A    between atoms: C_7  and  C_14
    3  A    between atoms: N_8  and  C_18
    4  A    between atoms: C_14  and  C_16
    5  A    between atoms: C_18  and  C_30
    6  A    between atoms: O_23  and  C_24
    7  A    between atoms: O_23  and  C_25
    8  A    between atoms: C_26  and  C_28
                            x       y       z     vdW  Elec       q    Type
                         _______ _______ _______ _____ _____    ______ ____

>  <TORSDO>
F 8

$$$$
=
 OpenBabel11062409383D

 34 37  0  0  1  0  0  0  0  0999 V2000
  160.8570  212.1780  150.5290 C   0  0  0  0  0  0  0  0  0  0  0  0
  160.5010  214.0070  147.3900 C   0  0  0  0  0  3  0  0  0  0  0  0
  159.0800  214.0910  149.3480 C   0  0  0  0  0  3  0  0  0  0  0  0
  161.4060  210.5480  152.3680 N   0  0  0  0  0  0  0  0  0  0  0  0
  161.6350  211.1050  151.0970 N   0  0  0  0  0  2  0  0  0  0  0  0
  159.0880  211.1000  152.9510 C   0  0  0  0  0  2  0  0  0  0  0  0
  158.7060  213.4390  153.2870 O   0  0  0  0  0  1  0  0  0  0  0  0
  160.0390  210.0450  152.3870 C   0  0  0  0  0  2  0  0  0  0  0  0
  158.8660  213.7060  150.6040 C   0  0  0  0  0  3  0  0  0  0  0  0
  159.7600  212.7870  151.2650 N   0  0  0  0  0  0  0  0  0  0  0  0
  159.5820  212.5220  152.6980 C   0  0  2  0  0  3  0  0  0  0  0  0
  161.6630  213.5230  146.6240 C   0  0  0  0  0  0  0  0  0  0  0  0
  162.4620  212.5760  147.1390 C   0  0  0  0  0  3  0  0  0  0  0  0
  160.2410  213.5700  148.6220 C   0  0  0  0  0  0  0  0  0  0  0  0
  162.2180  211.9150  148.4690 C   0  0  0  0  0  2  0  0  0  0  0  0
  161.1130  212.5650  149.2670 C   0  0  0  0  0  0  0  0  0  0  0  0
  162.2800  209.3920  152.4840 C   0  0  0  0  0  2  0  0  0  0  0  0
  161.6330  207.7050  149.1590 C   0  0  0  0  0  3  0  0  0  0  0  0
  161.5420  207.0800  151.8800 C   0  0  0  0  0  3  0  0  0  0  0  0
  161.2640  206.4150  149.5620 C   0  0  0  0  0  0  0  0  0  0  0  0
  161.2130  206.0980  150.9350 C   0  0  0  0  0  0  0  0  0  0  0  0
  161.9060  208.3650  151.4700 C   0  0  0  0  0  0  0  0  0  0  0  0
  161.9570  208.6750  150.1090 C   0  0  0  0  0  3  0  0  0  0  0  0
  160.8270  204.7510  151.3830 C   0  0  0  0  0  3  0  0  0  0  0  0
  161.6930  203.8700  151.6310 O   0  0  0  0  0  0  0  0  0  0  0  0
  160.9090  205.4130  148.5110 C   0  0  0  0  0  2  0  0  0  0  0  0
  160.8560  206.0790  147.1460 C   0  0  0  0  0  2  0  0  0  0  0  0
  161.6190  205.2720  146.1490 C   0  0  0  0  0  0  0  0  0  0  0  0
  161.5840  203.7830  146.2180 C   0  0  0  0  0  1  0  0  0  0  0  0
  162.2550  205.8250  145.2670 O   0  0  0  0  0  0  0  0  0  0  0  0
  161.8980  214.0970  145.3630 O   0  0  0  0  0  0  0  0  0  0  0  0
  163.4590  213.5030  143.7420 O   0  0  0  0  0  0  0  0  0  0  0  0
  161.2910  212.5780  143.4870 C   0  0  0  0  0  1  0  0  0  0  0  0
  162.2870  213.4200  144.1970 C   0  0  0  0  0  0  0  0  0  0  0  0
  1  5  1  0  0  0  0
  1 10  1  0  0  0  0
  2 14  2  0  0  0  0
  3  9  2  0  0  0  0
  4  8  1  0  0  0  0
  4 17  1  0  0  0  0
  5  4  1  0  0  0  0
  8  6  1  0  0  0  0
  9 10  1  0  0  0  0
 10 11  1  0  0  0  0
 11  6  1  0  0  0  0
 11  7  1  6  0  0  0
 12 13  2  0  0  0  0
 12  2  1  0  0  0  0
 13 15  1  0  0  0  0
 14 16  1  0  0  0  0
 14  3  1  0  0  0  0
 15 16  1  0  0  0  0
 16  1  2  0  0  0  0
 18 20  2  0  0  0  0
 18 23  1  0  0  0  0
 20 21  1  0  0  0  0
 21 24  1  0  0  0  0
 21 19  2  0  0  0  0
 22 19  1  0  0  0  0
 22 17  1  0  0  0  0
 23 22  2  0  0  0  0
 24 25  2  0  0  0  0
 26 20  1  0  0  0  0
 27 26  1  0  0  0  0
 28 29  1  0  0  0  0
 28 27  1  0  0  0  0
 30 28  2  0  0  0  0
 31 12  1  0  0  0  0
 32 34  2  0  0  0  0
 33 34  1  0  0  0  0
 34 31  1  0  0  0  0
M  END
>  <MODEL>
9

>  <REMARK>
 VINA RESULT:      -6.9      3.863      8.788
  Name = 
  8 active torsions:
  status: ('A' for Active; 'I' for Inactive)
    1  A    between atoms: C_7  and  C_11
    2  A    between atoms: C_7  and  C_14
    3  A    between atoms: N_8  and  C_18
    4  A    between atoms: C_14  and  C_16
    5  A    between atoms: C_18  and  C_30
    6  A    between atoms: O_23  and  C_24
    7  A    between atoms: O_23  and  C_25
    8  A    between atoms: C_26  and  C_28
                            x       y       z     vdW  Elec       q    Type
                         _______ _______ _______ _____ _____    ______ ____

>  <TORSDO>
F 8

$$$$
