=
 OpenBabel11052422573D

 28 31  0  0  1  0  0  0  0  0999 V2000
  159.4420  211.6950  155.2170 N   0  0  0  0  0  0  0  0  0  0  0  0
  158.1730  211.2470  155.7370 C   0  0  0  0  0  0  0  0  0  0  0  0
  157.5430  210.3080  155.1820 O   0  0  0  0  0  0  0  0  0  0  0  0
  160.8570  209.9720  154.1940 C   0  0  1  0  0  3  0  0  0  0  0  0
  158.9450  211.0290  152.8650 C   0  0  0  0  0  1  0  0  0  0  0  0
  161.4200  210.8200  156.7930 S   0  0  0  0  0  0  0  0  0  0  0  0
  162.0140  210.3090  155.1400 C   0  0  0  0  0  2  0  0  0  0  0  0
  160.4240  212.2110  156.1590 C   0  0  0  0  0  2  0  0  0  0  0  0
  160.0020  211.2200  153.9480 C   0  0  1  0  0  3  0  0  0  0  0  0
  161.9570  210.3090  151.9450 C   0  0  0  0  0  1  0  0  0  0  0  0
  161.3730  209.4150  152.9420 N   0  0  0  0  0  0  0  0  0  0  0  0
  160.9220  206.0000  148.6650 C   0  0  0  0  0  1  0  0  0  0  0  0
  161.0910  205.2640  152.2020 C   0  0  0  0  0  0  0  0  0  0  0  0
  161.1670  207.5230  151.3560 C   0  0  0  0  0  3  0  0  0  0  0  0
  160.9230  204.1660  150.4020 C   0  0  0  0  0  0  0  0  0  0  0  0
  161.0780  206.1470  151.1630 C   0  0  0  0  0  0  0  0  0  0  0  0
  161.2870  207.0700  153.7560 C   0  0  0  0  0  3  0  0  0  0  0  0
  160.9940  203.9990  151.7490 N   0  0  0  0  0  0  0  0  0  0  0  0
  161.1950  205.6850  153.5230 C   0  0  0  0  0  3  0  0  0  0  0  0
  160.8030  203.0220  149.4530 C   0  0  0  0  0  1  0  0  0  0  0  0
  160.9720  205.4640  150.0170 N   0  0  0  0  0  0  0  0  0  0  0  0
  161.2740  208.0000  152.6830 C   0  0  0  0  0  0  0  0  0  0  0  0
  157.5730  211.8970  156.9420 C   0  0  0  0  0  2  0  0  0  0  0  0
  156.1920  213.4570  155.5170 N   0  0  0  0  0  0  0  0  0  0  0  0
  155.2400  212.2510  157.2590 O   0  0  0  0  0  0  0  0  0  0  0  0
  156.2690  212.5240  156.5900 C   0  0  0  0  0  0  0  0  0  0  0  0
  155.4470  214.4050  154.6400 C   0  0  0  0  0  2  0  0  0  0  0  0
  156.7950  214.2440  154.4030 C   0  0  0  0  0  2  0  0  0  0  0  0
  1  2  1  0  0  0  0
  1  8  1  0  0  0  0
  2 23  1  0  0  0  0
  3  2  2  0  0  0  0
  4 11  1  6  0  0  0
  4  7  1  0  0  0  0
  7  6  1  0  0  0  0
  8  6  1  0  0  0  0
  9  5  1  6  0  0  0
  9  4  1  0  0  0  0
  9  1  1  0  0  0  0
 10 11  1  0  0  0  0
 12 21  1  0  0  0  0
 13 19  1  0  0  0  0
 14 22  2  0  0  0  0
 15 18  2  0  0  0  0
 16 14  1  0  0  0  0
 16 13  2  0  0  0  0
 18 13  1  0  0  0  0
 19 17  2  0  0  0  0
 20 15  1  0  0  0  0
 21 15  1  0  0  0  0
 21 16  1  0  0  0  0
 22 11  1  0  0  0  0
 22 17  1  0  0  0  0
 24 26  1  0  0  0  0
 26 23  1  0  0  0  0
 26 25  2  0  0  0  0
 27 24  1  0  0  0  0
 28 27  1  0  0  0  0
 28 24  1  0  0  0  0
M  END
>  <MODEL>
1

>  <REMARK>
 VINA RESULT:      -7.1      0.000      0.000
  Name = 
  4 active torsions:
  status: ('A' for Active; 'I' for Inactive)
    1  A    between atoms: C_2  and  C_3
    2  A    between atoms: C_3  and  C_11
    3  A    between atoms: C_16  and  N_20
    4  A    between atoms: N_20  and  C_25
                            x       y       z     vdW  Elec       q    Type
                         _______ _______ _______ _____ _____    ______ ____

>  <TORSDO>
F 4

$$$$
=
 OpenBabel11052422573D

 28 31  0  0  1  0  0  0  0  0999 V2000
  160.3840  211.9190  153.9320 N   0  0  0  0  0  0  0  0  0  0  0  0
  160.0240  212.3260  152.5950 C   0  0  0  0  0  0  0  0  0  0  0  0
  160.2570  211.5790  151.6080 O   0  0  0  0  0  0  0  0  0  0  0  0
  160.2360  209.5170  154.4050 C   0  0  1  0  0  3  0  0  0  0  0  0
  162.2800  210.4730  153.2020 C   0  0  0  0  0  1  0  0  0  0  0  0
  158.1850  211.1970  155.2750 S   0  0  0  0  0  0  0  0  0  0  0  0
  159.2870  209.7690  155.5800 C   0  0  0  0  0  2  0  0  0  0  0  0
  159.5530  212.3800  155.0350 C   0  0  0  0  0  2  0  0  0  0  0  0
  161.1710  210.7170  154.2210 C   0  0  1  0  0  3  0  0  0  0  0  0
  161.6940  208.0720  155.8770 C   0  0  0  0  0  1  0  0  0  0  0  0
  160.9850  208.2760  154.6170 N   0  0  0  0  0  0  0  0  0  0  0  0
  161.3160  208.0110  149.1410 C   0  0  0  0  0  1  0  0  0  0  0  0
  161.1740  205.3430  151.5800 C   0  0  0  0  0  0  0  0  0  0  0  0
  161.1280  207.6710  152.2190 C   0  0  0  0  0  3  0  0  0  0  0  0
  161.3030  205.5070  149.4750 C   0  0  0  0  0  0  0  0  0  0  0  0
  161.1890  206.6680  151.2550 C   0  0  0  0  0  0  0  0  0  0  0  0
  161.0330  205.8980  153.9010 C   0  0  0  0  0  3  0  0  0  0  0  0
  161.2450  204.5830  150.4700 N   0  0  0  0  0  0  0  0  0  0  0  0
  161.0970  204.9110  152.8990 C   0  0  0  0  0  3  0  0  0  0  0  0
  161.3930  205.1360  148.0340 C   0  0  0  0  0  1  0  0  0  0  0  0
  161.2710  206.7850  149.9250 N   0  0  0  0  0  0  0  0  0  0  0  0
  161.0470  207.2810  153.5760 C   0  0  0  0  0  0  0  0  0  0  0  0
  159.3750  213.6500  152.3520 C   0  0  0  0  0  2  0  0  0  0  0  0
  157.7490  213.4400  150.4330 N   0  0  0  0  0  0  0  0  0  0  0  0
  157.0320  213.3360  152.6410 O   0  0  0  0  0  0  0  0  0  0  0  0
  157.9910  213.4570  151.8360 C   0  0  0  0  0  0  0  0  0  0  0  0
  156.8510  213.3370  149.2480 C   0  0  0  0  0  2  0  0  0  0  0  0
  158.1970  213.5180  149.0130 C   0  0  0  0  0  2  0  0  0  0  0  0
  1  9  1  0  0  0  0
  1  8  1  0  0  0  0
  2  1  1  0  0  0  0
  3  2  2  0  0  0  0
  4 11  1  1  0  0  0
  4  7  1  0  0  0  0
  6  7  1  0  0  0  0
  8  6  1  0  0  0  0
  9  5  1  6  0  0  0
  9  4  1  0  0  0  0
 11 10  1  0  0  0  0
 12 21  1  0  0  0  0
 13 19  1  0  0  0  0
 14 22  2  0  0  0  0
 15 21  1  0  0  0  0
 15 18  2  0  0  0  0
 16 13  2  0  0  0  0
 16 14  1  0  0  0  0
 18 13  1  0  0  0  0
 19 17  2  0  0  0  0
 20 15  1  0  0  0  0
 21 16  1  0  0  0  0
 22 17  1  0  0  0  0
 22 11  1  0  0  0  0
 23  2  1  0  0  0  0
 24 26  1  0  0  0  0
 26 23  1  0  0  0  0
 26 25  2  0  0  0  0
 27 24  1  0  0  0  0
 28 27  1  0  0  0  0
 28 24  1  0  0  0  0
M  END
>  <MODEL>
2

>  <REMARK>
 VINA RESULT:      -6.8      2.493      3.246
  Name = 
  4 active torsions:
  status: ('A' for Active; 'I' for Inactive)
    1  A    between atoms: C_2  and  C_3
    2  A    between atoms: C_3  and  C_11
    3  A    between atoms: C_16  and  N_20
    4  A    between atoms: N_20  and  C_25
                            x       y       z     vdW  Elec       q    Type
                         _______ _______ _______ _____ _____    ______ ____

>  <TORSDO>
F 4

$$$$
=
 OpenBabel11052422573D

 28 31  0  0  1  0  0  0  0  0999 V2000
  162.2050  209.6040  151.1850 N   0  0  0  0  0  0  0  0  0  0  0  0
  161.9260  210.1250  149.8690 C   0  0  0  0  0  0  0  0  0  0  0  0
  161.6790  209.3510  148.9060 O   0  0  0  0  0  0  0  0  0  0  0  0
  161.0240  207.5440  151.8010 C   0  0  1  0  0  3  0  0  0  0  0  0
  163.1300  207.4410  150.3550 C   0  0  0  0  0  1  0  0  0  0  0  0
  160.0850  209.9860  152.7730 S   0  0  0  0  0  0  0  0  0  0  0  0
  160.4340  208.2120  153.0470 C   0  0  0  0  0  2  0  0  0  0  0  0
  161.8080  210.4010  152.3360 C   0  0  0  0  0  2  0  0  0  0  0  0
  162.3790  208.1750  151.4620 C   0  0  1  0  0  3  0  0  0  0  0  0
  161.3030  205.5780  153.3620 C   0  0  0  0  0  1  0  0  0  0  0  0
  161.1360  206.0980  152.0070 N   0  0  0  0  0  0  0  0  0  0  0  0
  161.2940  206.3260  146.5220 C   0  0  0  0  0  1  0  0  0  0  0  0
  161.0860  203.4540  148.7120 C   0  0  0  0  0  0  0  0  0  0  0  0
  161.1780  205.7120  149.5610 C   0  0  0  0  0  3  0  0  0  0  0  0
  161.1620  203.8050  146.6270 C   0  0  0  0  0  0  0  0  0  0  0  0
  161.1600  204.8010  148.5090 C   0  0  0  0  0  0  0  0  0  0  0  0
  161.0410  203.7970  151.0760 C   0  0  0  0  0  3  0  0  0  0  0  0
  161.0850  202.7970  147.5350 N   0  0  0  0  0  0  0  0  0  0  0  0
  161.0250  202.9060  149.9880 C   0  0  0  0  0  3  0  0  0  0  0  0
  161.1910  203.5650  145.1560 C   0  0  0  0  0  1  0  0  0  0  0  0
  161.2090  205.0360  147.1920 N   0  0  0  0  0  0  0  0  0  0  0  0
  161.1170  205.2020  150.8780 C   0  0  0  0  0  0  0  0  0  0  0  0
  161.9360  211.5990  149.6180 C   0  0  0  0  0  2  0  0  0  0  0  0
  161.1440  212.2440  147.3100 N   0  0  0  0  0  0  0  0  0  0  0  0
  163.3750  211.7460  147.7260 O   0  0  0  0  0  0  0  0  0  0  0  0
  162.2090  211.8720  148.1780 C   0  0  0  0  0  0  0  0  0  0  0  0
  160.5980  212.6200  145.9740 C   0  0  0  0  0  2  0  0  0  0  0  0
  159.7130  212.5540  147.0290 C   0  0  0  0  0  2  0  0  0  0  0  0
  1  9  1  0  0  0  0
  1  8  1  0  0  0  0
  2  1  1  0  0  0  0
  3  2  2  0  0  0  0
  4 11  1  1  0  0  0
  4  7  1  0  0  0  0
  6  7  1  0  0  0  0
  8  6  1  0  0  0  0
  9  5  1  6  0  0  0
  9  4  1  0  0  0  0
 11 10  1  0  0  0  0
 12 21  1  0  0  0  0
 13 19  1  0  0  0  0
 14 22  2  0  0  0  0
 15 21  1  0  0  0  0
 15 18  2  0  0  0  0
 16 13  2  0  0  0  0
 16 14  1  0  0  0  0
 18 13  1  0  0  0  0
 19 17  2  0  0  0  0
 20 15  1  0  0  0  0
 21 16  1  0  0  0  0
 22 17  1  0  0  0  0
 22 11  1  0  0  0  0
 23  2  1  0  0  0  0
 24 26  1  0  0  0  0
 25 26  2  0  0  0  0
 26 23  1  0  0  0  0
 27 28  1  0  0  0  0
 27 24  1  0  0  0  0
 28 24  1  0  0  0  0
M  END
>  <MODEL>
3

>  <REMARK>
 VINA RESULT:      -6.7      4.532      6.087
  Name = 
  4 active torsions:
  status: ('A' for Active; 'I' for Inactive)
    1  A    between atoms: C_2  and  C_3
    2  A    between atoms: C_3  and  C_11
    3  A    between atoms: C_16  and  N_20
    4  A    between atoms: N_20  and  C_25
                            x       y       z     vdW  Elec       q    Type
                         _______ _______ _______ _____ _____    ______ ____

>  <TORSDO>
F 4

$$$$
=
 OpenBabel11052422573D

 28 31  0  0  1  0  0  0  0  0999 V2000
  160.5800  210.1100  154.3320 N   0  0  0  0  0  0  0  0  0  0  0  0
  159.3170  210.7820  154.1480 C   0  0  0  0  0  0  0  0  0  0  0  0
  158.7390  210.7780  153.0290 O   0  0  0  0  0  0  0  0  0  0  0  0
  160.9170  208.0700  153.0110 C   0  0  1  0  0  3  0  0  0  0  0  0
  161.2960  210.3690  151.9560 C   0  0  0  0  0  1  0  0  0  0  0  0
  160.2010  207.8400  155.6980 S   0  0  0  0  0  0  0  0  0  0  0  0
  161.1900  207.2520  154.2760 C   0  0  0  0  0  2  0  0  0  0  0  0
  160.8680  209.5380  155.6390 C   0  0  0  0  0  2  0  0  0  0  0  0
  161.3470  209.5260  153.2270 C   0  0  1  0  0  3  0  0  0  0  0  0
  162.5130  208.2850  151.0650 C   0  0  0  0  0  1  0  0  0  0  0  0
  161.6000  207.4700  151.8620 N   0  0  0  0  0  0  0  0  0  0  0  0
  161.4660  204.3050  147.3760 C   0  0  0  0  0  1  0  0  0  0  0  0
  160.8610  203.4380  150.8350 C   0  0  0  0  0  0  0  0  0  0  0  0
  161.4220  205.6850  150.1540 C   0  0  0  0  0  3  0  0  0  0  0  0
  160.8750  202.4380  148.9710 C   0  0  0  0  0  0  0  0  0  0  0  0
  161.1710  204.3460  149.8660 C   0  0  0  0  0  0  0  0  0  0  0  0
  161.0230  205.1410  152.5050 C   0  0  0  0  0  3  0  0  0  0  0  0
  160.6670  202.2190  150.2960 N   0  0  0  0  0  0  0  0  0  0  0  0
  160.7760  203.7950  152.1770 C   0  0  0  0  0  3  0  0  0  0  0  0
  160.7700  201.3580  147.9490 C   0  0  0  0  0  1  0  0  0  0  0  0
  161.1840  203.7250  148.6810 N   0  0  0  0  0  0  0  0  0  0  0  0
  161.3470  206.0970  151.5050 C   0  0  0  0  0  0  0  0  0  0  0  0
  158.6720  211.5100  155.2840 C   0  0  0  0  0  2  0  0  0  0  0  0
  156.7250  212.8660  154.4240 N   0  0  0  0  0  0  0  0  0  0  0  0
  156.4120  210.7660  155.3670 O   0  0  0  0  0  0  0  0  0  0  0  0
  157.2140  211.6730  155.0260 C   0  0  0  0  0  0  0  0  0  0  0  0
  155.6270  213.7310  153.9060 C   0  0  0  0  0  2  0  0  0  0  0  0
  156.9130  214.2200  153.8280 C   0  0  0  0  0  2  0  0  0  0  0  0
  1  8  1  0  0  0  0
  2  1  1  0  0  0  0
  2 23  1  0  0  0  0
  3  2  2  0  0  0  0
  4 11  1  6  0  0  0
  4  9  1  0  0  0  0
  4  7  1  0  0  0  0
  7  6  1  0  0  0  0
  8  6  1  0  0  0  0
  9  5  1  6  0  0  0
  9  1  1  0  0  0  0
 10 11  1  0  0  0  0
 12 21  1  0  0  0  0
 13 19  1  0  0  0  0
 14 22  2  0  0  0  0
 15 18  2  0  0  0  0
 16 14  1  0  0  0  0
 16 13  2  0  0  0  0
 18 13  1  0  0  0  0
 19 17  2  0  0  0  0
 20 15  1  0  0  0  0
 21 15  1  0  0  0  0
 21 16  1  0  0  0  0
 22 11  1  0  0  0  0
 22 17  1  0  0  0  0
 24 26  1  0  0  0  0
 26 23  1  0  0  0  0
 26 25  2  0  0  0  0
 27 24  1  0  0  0  0
 28 27  1  0  0  0  0
 28 24  1  0  0  0  0
M  END
>  <MODEL>
4

>  <REMARK>
 VINA RESULT:      -6.6      1.563      2.289
  Name = 
  4 active torsions:
  status: ('A' for Active; 'I' for Inactive)
    1  A    between atoms: C_2  and  C_3
    2  A    between atoms: C_3  and  C_11
    3  A    between atoms: C_16  and  N_20
    4  A    between atoms: N_20  and  C_25
                            x       y       z     vdW  Elec       q    Type
                         _______ _______ _______ _____ _____    ______ ____

>  <TORSDO>
F 4

$$$$
=
 OpenBabel11052422573D

 28 31  0  0  1  0  0  0  0  0999 V2000
  160.0110  210.5040  154.5850 N   0  0  0  0  0  0  0  0  0  0  0  0
  158.6290  210.9020  154.4630 C   0  0  0  0  0  0  0  0  0  0  0  0
  158.0870  211.0180  153.3320 O   0  0  0  0  0  0  0  0  0  0  0  0
  160.8330  208.9360  152.8870 C   0  0  1  0  0  3  0  0  0  0  0  0
  160.6870  211.4370  152.3730 C   0  0  0  0  0  1  0  0  0  0  0  0
  160.1440  207.9610  155.4090 S   0  0  0  0  0  0  0  0  0  0  0  0
  161.2660  207.9380  153.9650 C   0  0  0  0  0  2  0  0  0  0  0  0
  160.4000  209.7340  155.7570 C   0  0  0  0  0  2  0  0  0  0  0  0
  160.9100  210.3650  153.4350 C   0  0  1  0  0  3  0  0  0  0  0  0
  162.6460  209.7940  151.3510 C   0  0  0  0  0  1  0  0  0  0  0  0
  161.6570  208.7730  151.6860 N   0  0  0  0  0  0  0  0  0  0  0  0
  160.8930  203.3500  152.0960 C   0  0  0  0  0  1  0  0  0  0  0  0
  161.0940  205.4400  149.1500 C   0  0  0  0  0  0  0  0  0  0  0  0
  161.3010  206.3410  151.3800 C   0  0  0  0  0  3  0  0  0  0  0  0
  160.8120  203.3860  149.5710 C   0  0  0  0  0  0  0  0  0  0  0  0
  161.1170  205.2750  150.5040 C   0  0  0  0  0  0  0  0  0  0  0  0
  161.4400  207.7900  149.4150 C   0  0  0  0  0  3  0  0  0  0  0  0
  160.9020  204.2580  148.5330 N   0  0  0  0  0  0  0  0  0  0  0  0
  161.2520  206.6890  148.5600 C   0  0  0  0  0  3  0  0  0  0  0  0
  160.5930  201.9240  149.3800 C   0  0  0  0  0  1  0  0  0  0  0  0
  160.9390  203.9780  150.7840 N   0  0  0  0  0  0  0  0  0  0  0  0
  161.4670  207.6320  150.8270 C   0  0  0  0  0  0  0  0  0  0  0  0
  157.8140  211.1980  155.6810 C   0  0  0  0  0  2  0  0  0  0  0  0
  156.1510  212.9490  154.9460 N   0  0  0  0  0  0  0  0  0  0  0  0
  155.5100  210.7420  155.2880 O   0  0  0  0  0  0  0  0  0  0  0  0
  156.4330  211.5960  155.2890 C   0  0  0  0  0  0  0  0  0  0  0  0
  155.2280  214.0410  154.5250 C   0  0  0  0  0  2  0  0  0  0  0  0
  156.5500  214.3700  154.7350 C   0  0  0  0  0  2  0  0  0  0  0  0
  1  8  1  0  0  0  0
  2  1  1  0  0  0  0
  2 23  1  0  0  0  0
  3  2  2  0  0  0  0
  4 11  1  6  0  0  0
  4  9  1  0  0  0  0
  4  7  1  0  0  0  0
  6  8  1  0  0  0  0
  7  6  1  0  0  0  0
  9  5  1  6  0  0  0
  9  1  1  0  0  0  0
 10 11  1  0  0  0  0
 13 16  1  0  0  0  0
 15 21  1  0  0  0  0
 16 21  1  0  0  0  0
 16 14  2  0  0  0  0
 17 22  2  0  0  0  0
 18 13  1  0  0  0  0
 18 15  2  0  0  0  0
 19 13  2  0  0  0  0
 19 17  1  0  0  0  0
 20 15  1  0  0  0  0
 21 12  1  0  0  0  0
 22 14  1  0  0  0  0
 22 11  1  0  0  0  0
 24 26  1  0  0  0  0
 25 26  2  0  0  0  0
 26 23  1  0  0  0  0
 27 28  1  0  0  0  0
 27 24  1  0  0  0  0
 28 24  1  0  0  0  0
M  END
>  <MODEL>
5

>  <REMARK>
 VINA RESULT:      -6.5      1.502      2.331
  Name = 
  4 active torsions:
  status: ('A' for Active; 'I' for Inactive)
    1  A    between atoms: C_2  and  C_3
    2  A    between atoms: C_3  and  C_11
    3  A    between atoms: C_16  and  N_20
    4  A    between atoms: N_20  and  C_25
                            x       y       z     vdW  Elec       q    Type
                         _______ _______ _______ _____ _____    ______ ____

>  <TORSDO>
F 4

$$$$
=
 OpenBabel11052422573D

 28 31  0  0  1  0  0  0  0  0999 V2000
  158.2080  212.2560  153.6610 N   0  0  0  0  0  0  0  0  0  0  0  0
  157.9440  213.4160  154.4780 C   0  0  0  0  0  0  0  0  0  0  0  0
  158.5260  213.5730  155.5850 O   0  0  0  0  0  0  0  0  0  0  0  0
  160.4930  211.3700  153.7540 C   0  0  1  0  0  3  0  0  0  0  0  0
  158.8060  210.7850  155.5840 C   0  0  0  0  0  1  0  0  0  0  0  0
  159.7410  212.9520  151.5810 S   0  0  0  0  0  0  0  0  0  0  0  0
  160.6450  211.5030  152.2350 C   0  0  0  0  0  2  0  0  0  0  0  0
  158.1210  212.4030  152.2160 C   0  0  0  0  0  2  0  0  0  0  0  0
  159.0230  211.1250  154.1130 C   0  0  1  0  0  3  0  0  0  0  0  0
  162.3660  210.6100  155.2690 C   0  0  0  0  0  1  0  0  0  0  0  0
  161.3580  210.3010  154.2580 N   0  0  0  0  0  0  0  0  0  0  0  0
  161.4590  207.7130  149.4150 C   0  0  0  0  0  1  0  0  0  0  0  0
  161.0070  206.3710  152.7440 C   0  0  0  0  0  0  0  0  0  0  0  0
  161.3280  208.7300  152.3430 C   0  0  0  0  0  3  0  0  0  0  0  0
  161.0860  205.6140  150.7700 C   0  0  0  0  0  0  0  0  0  0  0  0
  161.2070  207.4180  151.8930 C   0  0  0  0  0  0  0  0  0  0  0  0
  161.0290  207.8640  154.6100 C   0  0  0  0  0  3  0  0  0  0  0  0
  160.9260  205.2140  152.0590 N   0  0  0  0  0  0  0  0  0  0  0  0
  160.9110  206.5510  154.1190 C   0  0  0  0  0  3  0  0  0  0  0  0
  161.0710  204.6620  149.6230 C   0  0  0  0  0  1  0  0  0  0  0  0
  161.2600  206.9520  150.6390 N   0  0  0  0  0  0  0  0  0  0  0  0
  161.2370  208.9630  153.7340 C   0  0  0  0  0  0  0  0  0  0  0  0
  156.9630  214.4520  154.0330 C   0  0  0  0  0  2  0  0  0  0  0  0
  155.2150  214.1480  155.8280 N   0  0  0  0  0  0  0  0  0  0  0  0
  154.7620  213.6510  153.6030 O   0  0  0  0  0  0  0  0  0  0  0  0
  155.5860  214.0700  154.4560 C   0  0  0  0  0  0  0  0  0  0  0  0
  154.2410  213.9850  156.9440 C   0  0  0  0  0  2  0  0  0  0  0  0
  155.4980  214.4530  157.2590 C   0  0  0  0  0  2  0  0  0  0  0  0
  1  9  1  0  0  0  0
  1  2  1  0  0  0  0
  2  3  2  0  0  0  0
  4  9  1  0  0  0  0
  4 11  1  6  0  0  0
  6  8  1  0  0  0  0
  6  7  1  0  0  0  0
  7  4  1  0  0  0  0
  8  1  1  0  0  0  0
  9  5  1  1  0  0  0
 11 10  1  0  0  0  0
 12 21  1  0  0  0  0
 13 19  1  0  0  0  0
 14 22  2  0  0  0  0
 15 18  2  0  0  0  0
 16 14  1  0  0  0  0
 16 13  2  0  0  0  0
 18 13  1  0  0  0  0
 19 17  2  0  0  0  0
 20 15  1  0  0  0  0
 21 15  1  0  0  0  0
 21 16  1  0  0  0  0
 22 11  1  0  0  0  0
 22 17  1  0  0  0  0
 23 26  1  0  0  0  0
 23  2  1  0  0  0  0
 24 27  1  0  0  0  0
 24 28  1  0  0  0  0
 25 26  2  0  0  0  0
 26 24  1  0  0  0  0
 27 28  1  0  0  0  0
M  END
>  <MODEL>
6

>  <REMARK>
 VINA RESULT:      -6.1      1.956      2.637
  Name = 
  4 active torsions:
  status: ('A' for Active; 'I' for Inactive)
    1  A    between atoms: C_2  and  C_3
    2  A    between atoms: C_3  and  C_11
    3  A    between atoms: C_16  and  N_20
    4  A    between atoms: N_20  and  C_25
                            x       y       z     vdW  Elec       q    Type
                         _______ _______ _______ _____ _____    ______ ____

>  <TORSDO>
F 4

$$$$
=
 OpenBabel11052422573D

 28 31  0  0  1  0  0  0  0  0999 V2000
  160.8340  211.9460  152.0760 N   0  0  0  0  0  0  0  0  0  0  0  0
  160.8500  212.0870  150.6400 C   0  0  0  0  0  0  0  0  0  0  0  0
  161.2230  211.1370  149.9020 O   0  0  0  0  0  0  0  0  0  0  0  0
  160.3020  209.7100  152.9330 C   0  0  1  0  0  3  0  0  0  0  0  0
  162.6690  210.2580  152.1360 C   0  0  0  0  0  1  0  0  0  0  0  0
  158.3110  211.6650  152.9230 S   0  0  0  0  0  0  0  0  0  0  0  0
  159.1370  210.2640  153.7590 C   0  0  0  0  0  2  0  0  0  0  0  0
  159.8240  212.6800  152.8240 C   0  0  0  0  0  2  0  0  0  0  0  0
  161.3860  210.7820  152.7750 C   0  0  1  0  0  3  0  0  0  0  0  0
  161.2590  208.5310  154.9520 C   0  0  0  0  0  1  0  0  0  0  0  0
  160.8310  208.4940  153.5560 N   0  0  0  0  0  0  0  0  0  0  0  0
  161.0150  206.9170  148.2990 C   0  0  0  0  0  1  0  0  0  0  0  0
  161.2130  204.9310  151.3160 C   0  0  0  0  0  0  0  0  0  0  0  0
  160.9580  207.3310  151.3730 C   0  0  0  0  0  3  0  0  0  0  0  0
  161.2590  204.5810  149.2300 C   0  0  0  0  0  0  0  0  0  0  0  0
  161.0870  206.1310  150.6790 C   0  0  0  0  0  0  0  0  0  0  0  0
  161.0900  206.0260  153.4370 C   0  0  0  0  0  3  0  0  0  0  0  0
  161.3240  203.9300  150.4210 N   0  0  0  0  0  0  0  0  0  0  0  0
  161.2200  204.8330  152.7030 C   0  0  0  0  0  3  0  0  0  0  0  0
  161.3410  203.8750  147.9200 C   0  0  0  0  0  1  0  0  0  0  0  0
  161.1160  205.9230  149.3570 N   0  0  0  0  0  0  0  0  0  0  0  0
  160.9580  207.2820  152.7860 C   0  0  0  0  0  0  0  0  0  0  0  0
  160.4350  213.3710  149.9980 C   0  0  0  0  0  2  0  0  0  0  0  0
  161.4400  213.1880  147.6900 N   0  0  0  0  0  0  0  0  0  0  0  0
  159.1440  213.0540  148.0220 O   0  0  0  0  0  0  0  0  0  0  0  0
  160.2880  213.1850  148.5270 C   0  0  0  0  0  0  0  0  0  0  0  0
  162.1070  213.1010  146.3600 C   0  0  0  0  0  2  0  0  0  0  0  0
  162.9100  213.2840  147.4640 C   0  0  0  0  0  2  0  0  0  0  0  0
  1  9  1  0  0  0  0
  1  8  1  0  0  0  0
  2  1  1  0  0  0  0
  3  2  2  0  0  0  0
  4 11  1  1  0  0  0
  4  7  1  0  0  0  0
  6  7  1  0  0  0  0
  8  6  1  0  0  0  0
  9  5  1  6  0  0  0
  9  4  1  0  0  0  0
 11 10  1  0  0  0  0
 12 21  1  0  0  0  0
 13 19  1  0  0  0  0
 14 22  2  0  0  0  0
 15 21  1  0  0  0  0
 15 18  2  0  0  0  0
 16 13  2  0  0  0  0
 16 14  1  0  0  0  0
 18 13  1  0  0  0  0
 19 17  2  0  0  0  0
 20 15  1  0  0  0  0
 21 16  1  0  0  0  0
 22 17  1  0  0  0  0
 22 11  1  0  0  0  0
 23  2  1  0  0  0  0
 24 26  1  0  0  0  0
 25 26  2  0  0  0  0
 26 23  1  0  0  0  0
 27 28  1  0  0  0  0
 27 24  1  0  0  0  0
 28 24  1  0  0  0  0
M  END
>  <MODEL>
7

>  <REMARK>
 VINA RESULT:      -6.0      3.384      5.050
  Name = 
  4 active torsions:
  status: ('A' for Active; 'I' for Inactive)
    1  A    between atoms: C_2  and  C_3
    2  A    between atoms: C_3  and  C_11
    3  A    between atoms: C_16  and  N_20
    4  A    between atoms: N_20  and  C_25
                            x       y       z     vdW  Elec       q    Type
                         _______ _______ _______ _____ _____    ______ ____

>  <TORSDO>
F 4

$$$$
=
 OpenBabel11052422573D

 28 31  0  0  1  0  0  0  0  0999 V2000
  161.8340  207.2330  152.6650 N   0  0  0  0  0  0  0  0  0  0  0  0
  160.8770  208.0620  153.3570 C   0  0  0  0  0  0  0  0  0  0  0  0
  160.2160  208.9390  152.7400 O   0  0  0  0  0  0  0  0  0  0  0  0
  161.2850  206.6600  150.3440 C   0  0  1  0  0  3  0  0  0  0  0  0
  162.3320  208.9250  150.9020 C   0  0  0  0  0  1  0  0  0  0  0  0
  160.8300  204.7720  152.3490 S   0  0  0  0  0  0  0  0  0  0  0  0
  161.3870  205.1630  150.6510 C   0  0  0  0  0  2  0  0  0  0  0  0
  162.0420  205.8770  153.1500 C   0  0  0  0  0  2  0  0  0  0  0  0
  162.2200  207.4490  151.2680 C   0  0  1  0  0  3  0  0  0  0  0  0
  161.9380  208.2590  148.5010 C   0  0  0  0  0  1  0  0  0  0  0  0
  161.5830  206.9090  148.9320 N   0  0  0  0  0  0  0  0  0  0  0  0
  160.8340  201.4690  148.8430 C   0  0  0  0  0  1  0  0  0  0  0  0
  161.3180  203.7810  146.1030 C   0  0  0  0  0  0  0  0  0  0  0  0
  161.2850  204.5070  148.4050 C   0  0  0  0  0  3  0  0  0  0  0  0
  161.0140  201.7000  146.3340 C   0  0  0  0  0  0  0  0  0  0  0  0
  161.2030  203.5120  147.4350 C   0  0  0  0  0  0  0  0  0  0  0  0
  161.6130  206.1040  146.5820 C   0  0  0  0  0  3  0  0  0  0  0  0
  161.2030  202.6500  145.3800 N   0  0  0  0  0  0  0  0  0  0  0  0
  161.5250  205.0720  145.6300 C   0  0  0  0  0  3  0  0  0  0  0  0
  160.8310  200.2570  146.0090 C   0  0  0  0  0  1  0  0  0  0  0  0
  161.0090  202.1970  147.5950 N   0  0  0  0  0  0  0  0  0  0  0  0
  161.4950  205.8370  147.9720 C   0  0  0  0  0  0  0  0  0  0  0  0
  160.6580  207.9040  154.8270 C   0  0  0  0  0  2  0  0  0  0  0  0
  159.9490  210.1810  155.6550 N   0  0  0  0  0  0  0  0  0  0  0  0
  162.1090  209.3920  155.9900 O   0  0  0  0  0  0  0  0  0  0  0  0
  160.9570  209.1830  155.5310 C   0  0  0  0  0  0  0  0  0  0  0  0
  159.4600  211.5160  156.1020 C   0  0  0  0  0  2  0  0  0  0  0  0
  158.5700  210.7020  155.4350 C   0  0  0  0  0  2  0  0  0  0  0  0
  1  8  1  0  0  0  0
  1  2  1  0  0  0  0
  2 23  1  0  0  0  0
  3  2  2  0  0  0  0
  4 11  1  6  0  0  0
  4  7  1  0  0  0  0
  4  9  1  0  0  0  0
  6  8  1  0  0  0  0
  7  6  1  0  0  0  0
  9  5  1  6  0  0  0
  9  1  1  0  0  0  0
 10 11  1  0  0  0  0
 13 16  1  0  0  0  0
 15 21  1  0  0  0  0
 16 21  1  0  0  0  0
 16 14  2  0  0  0  0
 17 22  2  0  0  0  0
 18 13  1  0  0  0  0
 18 15  2  0  0  0  0
 19 13  2  0  0  0  0
 19 17  1  0  0  0  0
 20 15  1  0  0  0  0
 21 12  1  0  0  0  0
 22 14  1  0  0  0  0
 22 11  1  0  0  0  0
 23 26  1  0  0  0  0
 24 27  1  0  0  0  0
 26 24  1  0  0  0  0
 26 25  2  0  0  0  0
 28 24  1  0  0  0  0
 28 27  1  0  0  0  0
M  END
>  <MODEL>
8

>  <REMARK>
 VINA RESULT:      -5.9      3.075      5.567
  Name = 
  4 active torsions:
  status: ('A' for Active; 'I' for Inactive)
    1  A    between atoms: C_2  and  C_3
    2  A    between atoms: C_3  and  C_11
    3  A    between atoms: C_16  and  N_20
    4  A    between atoms: N_20  and  C_25
                            x       y       z     vdW  Elec       q    Type
                         _______ _______ _______ _____ _____    ______ ____

>  <TORSDO>
F 4

$$$$
=
 OpenBabel11052422573D

 28 31  0  0  1  0  0  0  0  0999 V2000
  161.3470  209.3110  153.1740 N   0  0  0  0  0  0  0  0  0  0  0  0
  160.1570  210.0310  153.5570 C   0  0  0  0  0  0  0  0  0  0  0  0
  159.4080  210.5510  152.6870 O   0  0  0  0  0  0  0  0  0  0  0  0
  161.2290  208.0820  151.0550 C   0  0  1  0  0  3  0  0  0  0  0  0
  161.6930  210.5960  151.0650 C   0  0  0  0  0  1  0  0  0  0  0  0
  160.9360  206.6810  153.4510 S   0  0  0  0  0  0  0  0  0  0  0  0
  161.6070  206.7710  151.7520 C   0  0  0  0  0  2  0  0  0  0  0  0
  161.7750  208.2010  154.0130 C   0  0  0  0  0  2  0  0  0  0  0  0
  161.8520  209.2680  151.7990 C   0  0  1  0  0  3  0  0  0  0  0  0
  162.0340  209.2870  148.9860 C   0  0  0  0  0  1  0  0  0  0  0  0
  161.6430  208.0460  149.6500 N   0  0  0  0  0  0  0  0  0  0  0  0
  160.5410  202.7370  150.5220 C   0  0  0  0  0  1  0  0  0  0  0  0
  161.6120  204.4100  147.4980 C   0  0  0  0  0  0  0  0  0  0  0  0
  161.2650  205.6000  149.5700 C   0  0  0  0  0  3  0  0  0  0  0  0
  161.1310  202.4350  148.0840 C   0  0  0  0  0  0  0  0  0  0  0  0
  161.2690  204.4280  148.8180 C   0  0  0  0  0  0  0  0  0  0  0  0
  161.9870  206.7690  147.5470 C   0  0  0  0  0  3  0  0  0  0  0  0
  161.5330  203.1580  147.0060 N   0  0  0  0  0  0  0  0  0  0  0  0
  161.9790  205.5660  146.8190 C   0  0  0  0  0  3  0  0  0  0  0  0
  160.9010  200.9630  148.0280 C   0  0  0  0  0  1  0  0  0  0  0  0
  160.9620  203.1830  149.2020 N   0  0  0  0  0  0  0  0  0  0  0  0
  161.6330  206.8020  148.9230 C   0  0  0  0  0  0  0  0  0  0  0  0
  159.7930  210.1850  154.9980 C   0  0  0  0  0  2  0  0  0  0  0  0
  159.5700  212.6430  155.5270 N   0  0  0  0  0  0  0  0  0  0  0  0
  161.5340  211.4850  155.9730 O   0  0  0  0  0  0  0  0  0  0  0  0
  160.3550  211.4560  155.5360 C   0  0  0  0  0  0  0  0  0  0  0  0
  159.3650  214.0950  155.7990 C   0  0  0  0  0  2  0  0  0  0  0  0
  158.3180  213.3990  155.2350 C   0  0  0  0  0  2  0  0  0  0  0  0
  1  2  1  0  0  0  0
  1  8  1  0  0  0  0
  2 23  1  0  0  0  0
  3  2  2  0  0  0  0
  4 11  1  6  0  0  0
  4  7  1  0  0  0  0
  4  9  1  0  0  0  0
  6  8  1  0  0  0  0
  7  6  1  0  0  0  0
  9  5  1  6  0  0  0
  9  1  1  0  0  0  0
 10 11  1  0  0  0  0
 13 16  1  0  0  0  0
 15 21  1  0  0  0  0
 16 21  1  0  0  0  0
 16 14  2  0  0  0  0
 17 22  2  0  0  0  0
 18 13  1  0  0  0  0
 18 15  2  0  0  0  0
 19 13  2  0  0  0  0
 19 17  1  0  0  0  0
 20 15  1  0  0  0  0
 21 12  1  0  0  0  0
 22 14  1  0  0  0  0
 22 11  1  0  0  0  0
 23 26  1  0  0  0  0
 24 26  1  0  0  0  0
 24 27  1  0  0  0  0
 26 25  2  0  0  0  0
 28 24  1  0  0  0  0
 28 27  1  0  0  0  0
M  END
>  <MODEL>
9

>  <REMARK>
 VINA RESULT:      -5.7      2.422      4.096
  Name = 
  4 active torsions:
  status: ('A' for Active; 'I' for Inactive)
    1  A    between atoms: C_2  and  C_3
    2  A    between atoms: C_3  and  C_11
    3  A    between atoms: C_16  and  N_20
    4  A    between atoms: N_20  and  C_25
                            x       y       z     vdW  Elec       q    Type
                         _______ _______ _______ _____ _____    ______ ____

>  <TORSDO>
F 4

$$$$
