=
 OpenBabel11062408573D

 55 59  0  0  1  0  0  0  0  0999 V2000
  160.8070  204.8110  146.2590 C   0  0  0  0  0  2  0  0  0  0  0  0
  161.7300  206.1910  143.8640 C   0  0  2  0  0  3  0  0  0  0  0  0
  162.6890  205.2640  144.6380 C   0  0  0  0  0  2  0  0  0  0  0  0
  159.9680  205.3880  145.1150 C   0  0  0  0  0  2  0  0  0  0  0  0
  162.2950  205.1280  146.1110 C   0  0  1  0  0  3  0  0  0  0  0  0
  160.5650  206.5540  144.5790 O   0  0  0  0  0  0  0  0  0  0  0  0
  161.3840  205.6260  142.4970 C   0  0  0  0  0  2  0  0  0  0  0  0
  162.2000  206.3540  141.4320 C   0  0  0  0  0  2  0  0  0  0  0  0
  161.4380  207.5620  140.9330 C   0  0  0  0  0  2  0  0  0  0  0  0
  162.0580  208.1190  139.6590 C   0  0  1  0  0  3  0  0  0  0  0  0
  162.0930  207.0290  138.6000 C   0  0  0  0  0  1  0  0  0  0  0  0
  161.2750  209.1910  139.2000 O   0  0  0  0  0  0  0  0  0  0  0  0
  163.3380  210.3220  139.8570 C   0  0  0  0  0  1  0  0  0  0  0  0
  162.0350  210.3880  139.0590 C   0  0  1  0  0  0  0  0  0  0  0  0
  162.3950  210.4670  137.7180 O   0  0  0  0  0  1  0  0  0  0  0  0
  158.8030  211.5390  138.8600 C   0  0  0  0  0  0  0  0  0  0  0  0
  158.7350  212.9060  141.0550 O   0  0  0  0  0  0  0  0  0  0  0  0
  161.2160  211.6590  139.4590 C   0  0  1  0  0  0  0  0  0  0  0  0
  160.1860  210.5300  141.3820 F   0  0  0  0  0  0  0  0  0  0  0  0
  160.8490  211.6610  140.9480 C   0  0  2  0  0  3  0  0  0  0  0  0
  158.6310  210.0780  139.2290 C   0  0  0  0  0  1  0  0  0  0  0  0
  158.1150  212.4150  139.9010 C   0  0  0  0  0  0  0  0  0  0  0  0
  158.0460  211.6990  137.5490 C   0  0  0  0  0  1  0  0  0  0  0  0
  160.1310  212.9480  141.3160 C   0  0  2  0  0  3  0  0  0  0  0  0
  162.0630  212.7400  139.3000 F   0  0  0  0  0  0  0  0  0  0  0  0
  156.8670  212.5920  139.8120 O   0  0  0  0  0  0  0  0  0  0  0  0
  160.1430  211.9150  138.5490 O   0  0  0  0  0  0  0  0  0  0  0  0
  160.3930  213.3550  142.7580 C   0  0  0  0  0  2  0  0  0  0  0  0
  161.6890  212.7860  143.2800 C   0  0  0  0  0  1  0  0  0  0  0  0
  162.6350  206.3740  146.9070 C   0  0  0  0  0  2  0  0  0  0  0  0
  161.4470  206.8230  147.7330 C   0  0  0  0  0  2  0  0  0  0  0  0
  161.9220  207.4330  149.0590 C   0  0  2  0  0  3  0  0  0  0  0  0
  162.6510  206.4630  151.5850 C   0  0  0  0  0  2  0  0  0  0  0  0
  161.6950  205.8770  153.9170 C   0  0  0  0  0  2  0  0  0  0  0  0
  160.4230  207.5310  152.5290 C   0  0  2  0  0  3  0  0  0  0  0  0
  161.1350  207.2940  153.8580 C   0  0  0  0  0  2  0  0  0  0  0  0
  162.8450  205.7010  152.9120 C   0  0  0  0  0  2  0  0  0  0  0  0
  161.1830  206.8980  151.3560 C   0  0  2  0  0  0  0  0  0  0  0  0
  160.2890  208.9120  152.3360 O   0  0  0  0  0  1  0  0  0  0  0  0
  160.3300  206.1080  150.4580 C   0  0  1  0  0  3  0  0  0  0  0  0
  160.8110  207.4610  150.0290 N   0  0  0  0  0  0  0  0  0  0  0  0
  161.0150  204.9220  149.7560 C   0  0  0  0  0  2  0  0  0  0  0  0
  161.3790  203.2980  151.4460 F   0  0  0  0  0  0  0  0  0  0  0  0
  160.5910  203.5810  150.3490 C   0  0  2  0  0  3  0  0  0  0  0  0
  160.7570  202.4780  149.3330 C   0  0  0  0  0  2  0  0  0  0  0  0
  159.6240  201.6580  149.3300 O   0  0  0  0  0  1  0  0  0  0  0  0
  162.5670  209.4890  150.1930 C   0  0  0  0  0  2  0  0  0  0  0  0
  161.6230  209.5870  148.1040 C   0  0  0  0  0  2  0  0  0  0  0  0
  161.6450  210.9470  148.7360 C   0  0  1  0  0  3  0  0  0  0  0  0
  161.9870  210.7690  150.0810 O   0  0  0  0  0  0  0  0  0  0  0  0
  162.4950  208.7840  148.9190 N   0  0  0  0  0  0  0  0  0  0  0  0
  162.6840  211.8390  148.0590 C   0  0  0  0  0  2  0  0  0  0  0  0
  162.0640  212.8360  147.1280 C   0  0  0  0  0  0  0  0  0  0  0  0
  160.7520  212.6520  146.6990 O   0  0  0  0  0  0  0  0  0  0  0  0
  162.7100  213.8390  146.7190 O   0  0  0  0  0  1  0  0  0  0  0  0
  2  7  1  6  0  0  0
  2  6  1  0  0  0  0
  2  3  1  0  0  0  0
  3  5  1  0  0  0  0
  4  1  1  0  0  0  0
  5  1  1  0  0  0  0
  5 30  1  1  0  0  0
  6  4  1  0  0  0  0
  8  7  1  0  0  0  0
  9  8  1  0  0  0  0
 10 11  1  6  0  0  0
 10  9  1  0  0  0  0
 12 10  1  0  0  0  0
 14 12  1  0  0  0  0
 14 18  1  0  0  0  0
 14 13  1  1  0  0  0
 15 14  1  0  0  0  0
 16 21  1  0  0  0  0
 16 22  1  0  0  0  0
 17 24  1  0  0  0  0
 18 25  1  6  0  0  0
 18 20  1  0  0  0  0
 20 24  1  0  0  0  0
 20 19  1  6  0  0  0
 22 17  1  0  0  0  0
 23 16  1  0  0  0  0
 24 28  1  1  0  0  0
 26 22  2  0  0  0  0
 27 16  1  0  0  0  0
 27 18  1  0  0  0  0
 28 29  1  0  0  0  0
 30 31  1  0  0  0  0
 32 31  1  6  0  0  0
 32 41  1  0  0  0  0
 33 37  1  0  0  0  0
 35 39  1  6  0  0  0
 35 36  1  0  0  0  0
 36 34  1  0  0  0  0
 37 34  1  0  0  0  0
 38 33  1  1  0  0  0
 38 35  1  0  0  0  0
 40 42  1  6  0  0  0
 40 38  1  0  0  0  0
 41 40  1  0  0  0  0
 41 38  1  0  0  0  0
 42 44  1  0  0  0  0
 44 43  1  1  0  0  0
 45 44  1  0  0  0  0
 46 45  1  0  0  0  0
 48 49  1  0  0  0  0
 48 51  1  0  0  0  0
 49 52  1  6  0  0  0
 49 50  1  0  0  0  0
 50 47  1  0  0  0  0
 51 32  1  0  0  0  0
 51 47  1  0  0  0  0
 53 52  1  0  0  0  0
 54 53  2  0  0  0  0
 55 53  1  0  0  0  0
M  END
>  <MODEL>
1

>  <REMARK>
 VINA RESULT:      -4.3      0.000      0.000
  Name = 
  18 active torsions:
  status: ('A' for Active; 'I' for Inactive)
    1  A    between atoms: C_2  and  C_28
    2  A    between atoms: C_2  and  C_44
    3  A    between atoms: C_4  and  C_40
    4  A    between atoms: C_6  and  C_20
    5  A    between atoms: C_8  and  O_22
    6  A    between atoms: C_8  and  C_35
    7  A    between atoms: C_10  and  C_32
    8  A    between atoms: C_11  and  C_38
    9  A    between atoms: C_19  and  C_40
   10  A    between atoms: C_19  and  C_45
   11  A    between atoms: C_20  and  O_22
   12  A    between atoms: C_27  and  C_54
   13  A    between atoms: C_28  and  C_33
   14  A    between atoms: C_32  and  C_39
   15  A    between atoms: C_33  and  N_49
   16  A    between atoms: C_33  and  N_52
   17  A    between atoms: C_35  and  C_51
   18  A    between atoms: C_51  and  C_54
                            x       y       z     vdW  Elec       q    Type
                         _______ _______ _______ _____ _____    ______ ____

>  <TORSDO>
F 18

$$$$
=
 OpenBabel11062408573D

 55 59  0  0  1  0  0  0  0  0999 V2000
  162.2450  206.9420  152.1550 C   0  0  0  0  0  2  0  0  0  0  0  0
  160.3940  206.5730  154.3750 C   0  0  2  0  0  3  0  0  0  0  0  0
  161.3230  205.4200  153.9460 C   0  0  0  0  0  2  0  0  0  0  0  0
  161.5840  208.0150  153.0260 C   0  0  0  0  0  2  0  0  0  0  0  0
  161.7440  205.5340  152.4790 C   0  0  1  0  0  3  0  0  0  0  0  0
  160.2860  207.6190  153.4280 O   0  0  0  0  0  0  0  0  0  0  0  0
  160.7590  207.1080  155.7480 C   0  0  0  0  0  2  0  0  0  0  0  0
  159.7170  208.1360  156.1800 C   0  0  0  0  0  2  0  0  0  0  0  0
  160.3640  209.1980  157.0420 C   0  0  0  0  0  2  0  0  0  0  0  0
  160.6930  210.4430  156.2300 C   0  0  1  0  0  3  0  0  0  0  0  0
  162.1480  210.3880  155.7930 C   0  0  0  0  0  1  0  0  0  0  0  0
  159.8660  210.4820  155.0950 O   0  0  0  0  0  0  0  0  0  0  0  0
  159.9510  212.8590  155.6520 C   0  0  0  0  0  1  0  0  0  0  0  0
  159.7410  211.8000  154.5690 C   0  0  1  0  0  0  0  0  0  0  0  0
  160.7790  211.9570  153.6550 O   0  0  0  0  0  1  0  0  0  0  0  0
  156.5890  212.9430  155.3260 C   0  0  0  0  0  0  0  0  0  0  0  0
  156.0100  214.0360  153.0540 O   0  0  0  0  0  0  0  0  0  0  0  0
  158.3700  212.0220  153.8490 C   0  0  1  0  0  0  0  0  0  0  0  0
  158.7000  214.4530  153.7260 F   0  0  0  0  0  0  0  0  0  0  0  0
  158.3570  213.3140  153.0240 C   0  0  2  0  0  3  0  0  0  0  0  0
  157.4970  213.9010  156.0730 C   0  0  0  0  0  1  0  0  0  0  0  0
  155.6870  213.7250  154.3790 C   0  0  0  0  0  0  0  0  0  0  0  0
  155.7070  212.3270  156.4020 C   0  0  0  0  0  1  0  0  0  0  0  0
  157.0430  213.4520  152.2740 C   0  0  2  0  0  3  0  0  0  0  0  0
  158.2420  211.0050  152.9210 F   0  0  0  0  0  0  0  0  0  0  0  0
  154.6440  214.2670  154.8470 O   0  0  0  0  0  0  0  0  0  0  0  0
  157.2620  211.8330  154.7350 O   0  0  0  0  0  0  0  0  0  0  0  0
  157.2120  214.2020  150.9610 C   0  0  0  0  0  2  0  0  0  0  0  0
  158.4160  213.7260  150.1880 C   0  0  0  0  0  1  0  0  0  0  0  0
  160.6180  205.1620  151.5340 C   0  0  0  0  0  2  0  0  0  0  0  0
  160.5590  206.1230  150.3640 C   0  0  0  0  0  2  0  0  0  0  0  0
  160.9560  205.4050  149.0670 C   0  0  2  0  0  3  0  0  0  0  0  0
  162.4370  204.8930  146.7440 C   0  0  0  0  0  2  0  0  0  0  0  0
  162.7180  205.6300  144.2800 C   0  0  0  0  0  2  0  0  0  0  0  0
  160.5040  206.0650  145.3710 C   0  0  2  0  0  3  0  0  0  0  0  0
  161.2150  205.3770  144.2090 C   0  0  0  0  0  2  0  0  0  0  0  0
  163.3360  204.9130  145.4920 C   0  0  0  0  0  2  0  0  0  0  0  0
  161.2980  205.9390  146.6780 C   0  0  2  0  0  0  0  0  0  0  0  0
  159.2320  205.4950  145.5150 O   0  0  0  0  0  1  0  0  0  0  0  0
  161.4430  207.2080  147.4050 C   0  0  1  0  0  3  0  0  0  0  0  0
  160.4800  206.1710  147.9000 N   0  0  0  0  0  0  0  0  0  0  0  0
  162.7260  207.3550  148.2440 C   0  0  0  0  0  2  0  0  0  0  0  0
  162.7910  208.5190  150.3090 F   0  0  0  0  0  0  0  0  0  0  0  0
  162.8010  208.7100  148.9420 C   0  0  2  0  0  3  0  0  0  0  0  0
  161.6180  209.5670  148.5620 C   0  0  0  0  0  2  0  0  0  0  0  0
  162.0550  210.8360  148.1720 O   0  0  0  0  0  1  0  0  0  0  0  0
  160.2070  203.4420  150.2980 C   0  0  0  0  0  2  0  0  0  0  0  0
  161.4950  203.1850  148.4160 C   0  0  0  0  0  2  0  0  0  0  0  0
  161.4170  201.8970  149.1810 C   0  0  1  0  0  3  0  0  0  0  0  0
  160.8460  202.1920  150.4240 O   0  0  0  0  0  0  0  0  0  0  0  0
  160.4670  204.0170  148.9840 N   0  0  0  0  0  0  0  0  0  0  0  0
  160.5430  200.8840  148.4450 C   0  0  0  0  0  2  0  0  0  0  0  0
  160.9010  200.7640  146.9950 C   0  0  0  0  0  0  0  0  0  0  0  0
  161.6150  199.6530  146.5530 O   0  0  0  0  0  1  0  0  0  0  0  0
  160.5740  201.6550  146.1640 O   0  0  0  0  0  0  0  0  0  0  0  0
  1  5  1  0  0  0  0
  1  4  1  0  0  0  0
  2  7  1  1  0  0  0
  3  2  1  0  0  0  0
  4  6  1  0  0  0  0
  5 30  1  6  0  0  0
  5  3  1  0  0  0  0
  6  2  1  0  0  0  0
  7  8  1  0  0  0  0
  8  9  1  0  0  0  0
 10 11  1  6  0  0  0
 10  9  1  0  0  0  0
 12 10  1  0  0  0  0
 14 12  1  0  0  0  0
 14 13  1  1  0  0  0
 15 14  1  0  0  0  0
 16 21  1  0  0  0  0
 16 23  1  0  0  0  0
 17 22  1  0  0  0  0
 18 25  1  6  0  0  0
 18 14  1  0  0  0  0
 18 27  1  0  0  0  0
 20 19  1  1  0  0  0
 20 18  1  0  0  0  0
 22 26  2  0  0  0  0
 22 16  1  0  0  0  0
 24 28  1  6  0  0  0
 24 20  1  0  0  0  0
 24 17  1  0  0  0  0
 27 16  1  0  0  0  0
 29 28  1  0  0  0  0
 31 30  1  0  0  0  0
 32 31  1  1  0  0  0
 34 37  1  0  0  0  0
 35 39  1  1  0  0  0
 35 38  1  0  0  0  0
 36 34  1  0  0  0  0
 36 35  1  0  0  0  0
 37 33  1  0  0  0  0
 38 33  1  1  0  0  0
 38 40  1  0  0  0  0
 38 41  1  0  0  0  0
 40 41  1  0  0  0  0
 40 42  1  1  0  0  0
 41 32  1  0  0  0  0
 42 44  1  0  0  0  0
 44 43  1  1  0  0  0
 45 44  1  0  0  0  0
 46 45  1  0  0  0  0
 47 50  1  0  0  0  0
 48 51  1  0  0  0  0
 48 49  1  0  0  0  0
 49 52  1  6  0  0  0
 49 50  1  0  0  0  0
 51 32  1  0  0  0  0
 51 47  1  0  0  0  0
 53 52  1  0  0  0  0
 54 53  1  0  0  0  0
 55 53  2  0  0  0  0
M  END
>  <MODEL>
2

>  <REMARK>
 VINA RESULT:      -3.8      5.210     11.356
  Name = 
  18 active torsions:
  status: ('A' for Active; 'I' for Inactive)
    1  A    between atoms: C_2  and  C_28
    2  A    between atoms: C_2  and  C_44
    3  A    between atoms: C_4  and  C_40
    4  A    between atoms: C_6  and  C_20
    5  A    between atoms: C_8  and  O_22
    6  A    between atoms: C_8  and  C_35
    7  A    between atoms: C_10  and  C_32
    8  A    between atoms: C_11  and  C_38
    9  A    between atoms: C_19  and  C_40
   10  A    between atoms: C_19  and  C_45
   11  A    between atoms: C_20  and  O_22
   12  A    between atoms: C_27  and  C_54
   13  A    between atoms: C_28  and  C_33
   14  A    between atoms: C_32  and  C_39
   15  A    between atoms: C_33  and  N_49
   16  A    between atoms: C_33  and  N_52
   17  A    between atoms: C_35  and  C_51
   18  A    between atoms: C_51  and  C_54
                            x       y       z     vdW  Elec       q    Type
                         _______ _______ _______ _____ _____    ______ ____

>  <TORSDO>
F 18

$$$$
=
 OpenBabel11062408573D

 55 59  0  0  1  0  0  0  0  0999 V2000
  162.4530  205.7340  151.6420 C   0  0  0  0  0  2  0  0  0  0  0  0
  160.5690  206.3370  153.7830 C   0  0  2  0  0  3  0  0  0  0  0  0
  161.1520  204.9150  153.6450 C   0  0  0  0  0  2  0  0  0  0  0  0
  162.1060  207.1000  152.2430 C   0  0  0  0  0  2  0  0  0  0  0  0
  161.5890  204.6080  152.2110 C   0  0  1  0  0  3  0  0  0  0  0  0
  160.7490  207.1540  152.6420 O   0  0  0  0  0  0  0  0  0  0  0  0
  161.0650  207.0280  155.0400 C   0  0  0  0  0  2  0  0  0  0  0  0
  160.3720  208.3810  155.1760 C   0  0  0  0  0  2  0  0  0  0  0  0
  161.3670  209.4970  154.9460 C   0  0  0  0  0  2  0  0  0  0  0  0
  161.2850  210.5460  156.0450 C   0  0  1  0  0  3  0  0  0  0  0  0
  162.6640  210.7420  156.6560 C   0  0  0  0  0  1  0  0  0  0  0  0
  160.8450  211.7590  155.4900 O   0  0  0  0  0  0  0  0  0  0  0  0
  158.7760  211.0870  156.5990 C   0  0  0  0  0  1  0  0  0  0  0  0
  159.6600  212.2380  156.1190 C   0  0  1  0  0  0  0  0  0  0  0  0
  160.0720  212.9230  157.2580 O   0  0  0  0  0  1  0  0  0  0  0  0
  159.0540  212.6860  152.7660 C   0  0  0  0  0  0  0  0  0  0  0  0
  156.6200  213.5470  152.9170 O   0  0  0  0  0  0  0  0  0  0  0  0
  158.8450  213.2000  155.1930 C   0  0  1  0  0  0  0  0  0  0  0  0
  157.0990  211.5200  154.7930 F   0  0  0  0  0  0  0  0  0  0  0  0
  157.3580  212.8300  155.1460 C   0  0  2  0  0  3  0  0  0  0  0  0
  159.0150  211.1790  152.9300 C   0  0  0  0  0  1  0  0  0  0  0  0
  157.7400  213.1720  152.1670 C   0  0  0  0  0  0  0  0  0  0  0  0
  160.1490  212.9350  151.7390 C   0  0  0  0  0  1  0  0  0  0  0  0
  156.5880  213.8340  154.3080 C   0  0  2  0  0  3  0  0  0  0  0  0
  158.8840  214.4470  155.7890 F   0  0  0  0  0  0  0  0  0  0  0  0
  157.5790  213.0910  150.9160 O   0  0  0  0  0  0  0  0  0  0  0  0
  159.4830  213.3950  153.9270 O   0  0  0  0  0  0  0  0  0  0  0  0
  155.1530  213.9960  154.7880 C   0  0  0  0  0  2  0  0  0  0  0  0
  155.0510  213.9580  156.2920 C   0  0  0  0  0  1  0  0  0  0  0  0
  160.4040  204.3600  151.2970 C   0  0  0  0  0  2  0  0  0  0  0  0
  160.3330  205.4160  150.2120 C   0  0  0  0  0  2  0  0  0  0  0  0
  160.8130  204.8350  148.8750 C   0  0  2  0  0  3  0  0  0  0  0  0
  162.4880  204.7730  146.6290 C   0  0  0  0  0  2  0  0  0  0  0  0
  162.8170  205.8050  144.2800 C   0  0  0  0  0  2  0  0  0  0  0  0
  160.5020  205.8330  145.2400 C   0  0  2  0  0  3  0  0  0  0  0  0
  161.3690  205.3730  144.0720 C   0  0  0  0  0  2  0  0  0  0  0  0
  163.4510  205.0440  145.4560 C   0  0  0  0  0  2  0  0  0  0  0  0
  161.2250  205.6670  146.5840 C   0  0  2  0  0  0  0  0  0  0  0  0
  159.3130  205.0940  145.2310 O   0  0  0  0  0  1  0  0  0  0  0  0
  161.1540  206.8560  147.4440 C   0  0  1  0  0  3  0  0  0  0  0  0
  160.3100  205.6580  147.7580 N   0  0  0  0  0  0  0  0  0  0  0  0
  162.3520  207.0730  148.3860 C   0  0  0  0  0  2  0  0  0  0  0  0
  161.2400  208.4820  149.9360 F   0  0  0  0  0  0  0  0  0  0  0  0
  162.3080  208.4390  149.0630 C   0  0  2  0  0  3  0  0  0  0  0  0
  162.1400  209.5330  148.0360 C   0  0  0  0  0  2  0  0  0  0  0  0
  161.9910  210.7670  148.6750 O   0  0  0  0  0  1  0  0  0  0  0  0
  160.5280  202.6410  149.8910 C   0  0  0  0  0  2  0  0  0  0  0  0
  161.3590  202.8110  147.7590 C   0  0  0  0  0  2  0  0  0  0  0  0
  161.5640  201.4250  148.2950 C   0  0  1  0  0  3  0  0  0  0  0  0
  161.2740  201.4670  149.6640 O   0  0  0  0  0  0  0  0  0  0  0  0
  160.4290  203.4270  148.6670 N   0  0  0  0  0  0  0  0  0  0  0  0
  160.6250  200.4360  147.6060 C   0  0  0  0  0  2  0  0  0  0  0  0
  160.7750  200.4480  146.1150 C   0  0  0  0  0  0  0  0  0  0  0  0
  160.6840  201.6540  145.4240 O   0  0  0  0  0  0  0  0  0  0  0  0
  160.9770  199.3830  145.4700 O   0  0  0  0  0  1  0  0  0  0  0  0
  1  5  1  0  0  0  0
  1  4  1  0  0  0  0
  2  7  1  1  0  0  0
  3  2  1  0  0  0  0
  4  6  1  0  0  0  0
  5 30  1  6  0  0  0
  5  3  1  0  0  0  0
  6  2  1  0  0  0  0
  7  8  1  0  0  0  0
  9  8  1  0  0  0  0
  9 10  1  0  0  0  0
 10 11  1  6  0  0  0
 12 10  1  0  0  0  0
 12 14  1  0  0  0  0
 14 13  1  1  0  0  0
 14 15  1  0  0  0  0
 16 21  1  0  0  0  0
 16 27  1  0  0  0  0
 17 24  1  0  0  0  0
 18 25  1  1  0  0  0
 18 14  1  0  0  0  0
 20 19  1  6  0  0  0
 20 18  1  0  0  0  0
 22 16  1  0  0  0  0
 22 17  1  0  0  0  0
 23 16  1  0  0  0  0
 24 28  1  1  0  0  0
 24 20  1  0  0  0  0
 26 22  2  0  0  0  0
 27 18  1  0  0  0  0
 28 29  1  0  0  0  0
 31 30  1  0  0  0  0
 32 31  1  1  0  0  0
 34 37  1  0  0  0  0
 35 39  1  1  0  0  0
 35 38  1  0  0  0  0
 36 34  1  0  0  0  0
 36 35  1  0  0  0  0
 37 33  1  0  0  0  0
 38 33  1  1  0  0  0
 38 40  1  0  0  0  0
 38 41  1  0  0  0  0
 40 41  1  0  0  0  0
 40 42  1  1  0  0  0
 41 32  1  0  0  0  0
 42 44  1  0  0  0  0
 44 43  1  1  0  0  0
 45 46  1  0  0  0  0
 45 44  1  0  0  0  0
 48 49  1  0  0  0  0
 48 51  1  0  0  0  0
 49 52  1  6  0  0  0
 49 50  1  0  0  0  0
 50 47  1  0  0  0  0
 51 32  1  0  0  0  0
 51 47  1  0  0  0  0
 53 52  1  0  0  0  0
 54 53  2  0  0  0  0
 55 53  1  0  0  0  0
M  END
>  <MODEL>
3

>  <REMARK>
 VINA RESULT:      -3.5      5.171     11.453
  Name = 
  18 active torsions:
  status: ('A' for Active; 'I' for Inactive)
    1  A    between atoms: C_2  and  C_28
    2  A    between atoms: C_2  and  C_44
    3  A    between atoms: C_4  and  C_40
    4  A    between atoms: C_6  and  C_20
    5  A    between atoms: C_8  and  O_22
    6  A    between atoms: C_8  and  C_35
    7  A    between atoms: C_10  and  C_32
    8  A    between atoms: C_11  and  C_38
    9  A    between atoms: C_19  and  C_40
   10  A    between atoms: C_19  and  C_45
   11  A    between atoms: C_20  and  O_22
   12  A    between atoms: C_27  and  C_54
   13  A    between atoms: C_28  and  C_33
   14  A    between atoms: C_32  and  C_39
   15  A    between atoms: C_33  and  N_49
   16  A    between atoms: C_33  and  N_52
   17  A    between atoms: C_35  and  C_51
   18  A    between atoms: C_51  and  C_54
                            x       y       z     vdW  Elec       q    Type
                         _______ _______ _______ _____ _____    ______ ____

>  <TORSDO>
F 18

$$$$
=
 OpenBabel11062408573D

 55 59  0  0  1  0  0  0  0  0999 V2000
  161.9090  204.1140  152.0210 C   0  0  0  0  0  2  0  0  0  0  0  0
  161.1890  206.5750  153.4080 C   0  0  2  0  0  3  0  0  0  0  0  0
  160.0920  205.5750  152.9890 C   0  0  0  0  0  2  0  0  0  0  0  0
  162.7950  204.9990  152.9050 C   0  0  0  0  0  2  0  0  0  0  0  0
  160.5200  204.7140  151.7990 C   0  0  1  0  0  3  0  0  0  0  0  0
  162.4400  206.3630  152.7820 O   0  0  0  0  0  0  0  0  0  0  0  0
  161.3340  206.6500  154.9170 C   0  0  0  0  0  2  0  0  0  0  0  0
  161.6970  208.0780  155.3160 C   0  0  0  0  0  2  0  0  0  0  0  0
  160.7390  209.0540  154.6710 C   0  0  0  0  0  2  0  0  0  0  0  0
  159.9930  209.8700  155.7190 C   0  0  1  0  0  3  0  0  0  0  0  0
  160.3230  209.3320  157.1020 C   0  0  0  0  0  1  0  0  0  0  0  0
  160.4000  211.2110  155.6300 O   0  0  0  0  0  0  0  0  0  0  0  0
  158.5350  211.8190  157.0850 C   0  0  0  0  0  1  0  0  0  0  0  0
  159.3110  212.1140  155.8010 C   0  0  1  0  0  0  0  0  0  0  0  0
  159.8720  213.3770  155.9580 O   0  0  0  0  0  1  0  0  0  0  0  0
  156.2010  213.3170  154.9680 C   0  0  0  0  0  0  0  0  0  0  0  0
  156.6280  213.8110  152.4650 O   0  0  0  0  0  0  0  0  0  0  0  0
  158.3460  212.1160  154.5700 C   0  0  1  0  0  0  0  0  0  0  0  0
  158.8680  214.4530  154.0230 F   0  0  0  0  0  0  0  0  0  0  0  0
  158.7450  213.1690  153.5290 C   0  0  2  0  0  3  0  0  0  0  0  0
  156.8140  214.4530  155.7660 C   0  0  0  0  0  1  0  0  0  0  0  0
  155.7940  213.8210  153.5880 C   0  0  0  0  0  0  0  0  0  0  0  0
  154.9300  212.9570  155.7220 C   0  0  0  0  0  1  0  0  0  0  0  0
  157.8390  213.0840  152.3140 C   0  0  2  0  0  3  0  0  0  0  0  0
  158.5160  210.9010  153.9330 F   0  0  0  0  0  0  0  0  0  0  0  0
  154.6940  214.4310  153.4680 O   0  0  0  0  0  0  0  0  0  0  0  0
  156.9710  212.1160  154.9660 O   0  0  0  0  0  0  0  0  0  0  0  0
  158.5560  213.4980  151.0380 C   0  0  0  0  0  2  0  0  0  0  0  0
  157.6420  214.2250  150.0850 C   0  0  0  0  0  1  0  0  0  0  0  0
  160.5010  205.4930  150.4980 C   0  0  0  0  0  2  0  0  0  0  0  0
  161.8390  205.3930  149.7930 C   0  0  0  0  0  2  0  0  0  0  0  0
  161.8410  206.2650  148.5300 C   0  0  2  0  0  3  0  0  0  0  0  0
  160.1410  205.7640  146.3600 C   0  0  0  0  0  2  0  0  0  0  0  0
  160.0290  204.5660  144.0690 C   0  0  0  0  0  2  0  0  0  0  0  0
  162.2940  205.2090  144.9270 C   0  0  2  0  0  3  0  0  0  0  0  0
  161.2980  205.3610  143.7810 C   0  0  0  0  0  2  0  0  0  0  0  0
  159.2500  205.1850  145.2410 C   0  0  0  0  0  2  0  0  0  0  0  0
  161.5970  205.2410  146.2940 C   0  0  2  0  0  0  0  0  0  0  0  0
  163.2380  206.2400  144.8370 O   0  0  0  0  0  1  0  0  0  0  0  0
  162.0140  204.1590  147.1960 C   0  0  1  0  0  3  0  0  0  0  0  0
  162.5120  205.5540  147.4260 N   0  0  0  0  0  0  0  0  0  0  0  0
  160.9510  203.6740  148.1980 C   0  0  0  0  0  2  0  0  0  0  0  0
  160.8000  201.4130  147.4970 F   0  0  0  0  0  0  0  0  0  0  0  0
  161.1420  202.2080  148.5730 C   0  0  2  0  0  3  0  0  0  0  0  0
  160.2630  201.8440  149.7450 C   0  0  0  0  0  2  0  0  0  0  0  0
  159.0290  201.3730  149.2870 O   0  0  0  0  0  1  0  0  0  0  0  0
  162.5440  207.9610  150.1300 C   0  0  0  0  0  2  0  0  0  0  0  0
  161.6360  208.5960  148.1210 C   0  0  0  0  0  2  0  0  0  0  0  0
  161.6990  209.7620  149.0620 C   0  0  1  0  0  3  0  0  0  0  0  0
  162.0140  209.2520  150.3270 O   0  0  0  0  0  0  0  0  0  0  0  0
  162.4650  207.5870  148.7230 N   0  0  0  0  0  0  0  0  0  0  0  0
  162.7800  210.7490  148.6260 C   0  0  0  0  0  2  0  0  0  0  0  0
  162.2230  212.0990  148.2930 C   0  0  0  0  0  0  0  0  0  0  0  0
  162.9390  212.9510  147.4550 O   0  0  0  0  0  0  0  0  0  0  0  0
  161.1170  212.4840  148.7620 O   0  0  0  0  0  1  0  0  0  0  0  0
  1  4  1  0  0  0  0
  2  7  1  1  0  0  0
  3  2  1  0  0  0  0
  5 30  1  6  0  0  0
  5  1  1  0  0  0  0
  5  3  1  0  0  0  0
  6  4  1  0  0  0  0
  6  2  1  0  0  0  0
  7  8  1  0  0  0  0
  9  8  1  0  0  0  0
  9 10  1  0  0  0  0
 10 11  1  1  0  0  0
 12 10  1  0  0  0  0
 12 14  1  0  0  0  0
 14 15  1  0  0  0  0
 14 13  1  1  0  0  0
 16 23  1  0  0  0  0
 16 21  1  0  0  0  0
 17 22  1  0  0  0  0
 18 25  1  6  0  0  0
 18 27  1  0  0  0  0
 18 14  1  0  0  0  0
 20 19  1  1  0  0  0
 20 18  1  0  0  0  0
 22 16  1  0  0  0  0
 24 28  1  6  0  0  0
 24 17  1  0  0  0  0
 24 20  1  0  0  0  0
 26 22  2  0  0  0  0
 27 16  1  0  0  0  0
 29 28  1  0  0  0  0
 31 30  1  0  0  0  0
 32 51  1  0  0  0  0
 32 31  1  1  0  0  0
 34 37  1  0  0  0  0
 35 39  1  1  0  0  0
 35 38  1  0  0  0  0
 36 34  1  0  0  0  0
 36 35  1  0  0  0  0
 37 33  1  0  0  0  0
 38 33  1  1  0  0  0
 38 40  1  0  0  0  0
 38 41  1  0  0  0  0
 40 41  1  0  0  0  0
 40 42  1  1  0  0  0
 41 32  1  0  0  0  0
 42 44  1  0  0  0  0
 44 43  1  6  0  0  0
 44 45  1  0  0  0  0
 46 45  1  0  0  0  0
 47 50  1  0  0  0  0
 48 51  1  0  0  0  0
 48 49  1  0  0  0  0
 49 52  1  6  0  0  0
 49 50  1  0  0  0  0
 51 47  1  0  0  0  0
 53 52  1  0  0  0  0
 53 55  1  0  0  0  0
 54 53  2  0  0  0  0
M  END
>  <MODEL>
4

>  <REMARK>
 VINA RESULT:      -2.0      5.085     10.573
  Name = 
  18 active torsions:
  status: ('A' for Active; 'I' for Inactive)
    1  A    between atoms: C_2  and  C_28
    2  A    between atoms: C_2  and  C_44
    3  A    between atoms: C_4  and  C_40
    4  A    between atoms: C_6  and  C_20
    5  A    between atoms: C_8  and  O_22
    6  A    between atoms: C_8  and  C_35
    7  A    between atoms: C_10  and  C_32
    8  A    between atoms: C_11  and  C_38
    9  A    between atoms: C_19  and  C_40
   10  A    between atoms: C_19  and  C_45
   11  A    between atoms: C_20  and  O_22
   12  A    between atoms: C_27  and  C_54
   13  A    between atoms: C_28  and  C_33
   14  A    between atoms: C_32  and  C_39
   15  A    between atoms: C_33  and  N_49
   16  A    between atoms: C_33  and  N_52
   17  A    between atoms: C_35  and  C_51
   18  A    between atoms: C_51  and  C_54
                            x       y       z     vdW  Elec       q    Type
                         _______ _______ _______ _____ _____    ______ ____

>  <TORSDO>
F 18

$$$$
