=
 OpenBabel11052422393D

 31 34  0  0  1  0  0  0  0  0999 V2000
  160.8330  204.8300  148.9090 C   0  0  0  0  0  0  0  0  0  0  0  0
  161.2430  207.9920  150.8480 C   0  0  0  0  0  0  0  0  0  0  0  0
  160.8550  207.5580  152.2500 C   0  0  1  0  0  3  0  0  0  0  0  0
  161.8900  206.5430  154.4020 C   0  0  0  0  0  2  0  0  0  0  0  0
  161.2290  207.0660  149.7810 C   0  0  0  0  0  0  0  0  0  0  0  0
  161.2250  205.2510  147.6360 C   0  0  0  0  0  3  0  0  0  0  0  0
  161.9500  206.6680  152.8670 C   0  0  0  0  0  2  0  0  0  0  0  0
  162.0050  209.7360  149.3060 C   0  0  0  0  0  0  0  0  0  0  0  0
  160.4520  203.5460  149.1100 F   0  0  0  0  0  0  0  0  0  0  0  0
  160.4340  210.0540  152.6430 C   0  0  0  0  0  2  0  0  0  0  0  0
  160.5710  207.0160  155.0170 C   0  0  0  0  0  2  0  0  0  0  0  0
  162.0040  208.8020  148.2640 C   0  0  0  0  0  3  0  0  0  0  0  0
  161.6150  209.3340  150.5960 C   0  0  0  0  0  0  0  0  0  0  0  0
  160.8340  205.7330  149.9760 C   0  0  0  0  0  3  0  0  0  0  0  0
  159.7990  209.2600  155.2920 O   0  0  0  0  0  0  0  0  0  0  0  0
  161.6190  207.4830  148.4870 C   0  0  0  0  0  0  0  0  0  0  0  0
  161.6170  206.5750  147.4250 C   0  0  0  0  0  3  0  0  0  0  0  0
  161.6050  210.3330  151.7160 C   0  0  0  0  0  2  0  0  0  0  0  0
  160.5320  208.6850  153.1390 N   0  0  0  0  0  0  0  0  0  0  0  0
  160.2720  208.3880  154.5150 C   0  0  0  0  0  0  0  0  0  0  0  0
  160.5900  211.8280  147.7780 O   0  0  0  0  0  0  0  0  0  0  0  0
  161.7110  212.0810  148.2980 C   0  0  0  0  0  0  0  0  0  0  0  0
  162.4040  211.1000  149.0800 N   0  0  0  0  0  2  0  0  0  0  0  0
  161.7710  214.3260  149.0190 O   0  0  0  0  0  1  0  0  0  0  0  0
  162.3330  213.4270  148.1110 C   0  0  2  0  0  3  0  0  0  0  0  0
  160.7290  214.4530  146.4870 C   0  0  0  0  0  1  0  0  0  0  0  0
  162.1450  213.9300  146.6780 C   0  0  2  0  0  3  0  0  0  0  0  0
  162.3760  212.8850  145.7630 O   0  0  0  0  0  0  0  0  0  0  0  0
  162.2210  213.3760  144.4470 C   0  0  1  0  0  3  0  0  0  0  0  0
  163.5530  213.6830  143.7730 C   0  0  0  0  0  1  0  0  0  0  0  0
  161.4420  212.5240  143.6560 O   0  0  0  0  0  1  0  0  0  0  0  0
  1  9  1  0  0  0  0
  1 14  1  0  0  0  0
  2  3  1  0  0  0  0
  3  7  1  1  0  0  0
  3 19  1  0  0  0  0
  4 11  1  0  0  0  0
  5 14  2  0  0  0  0
  5  2  1  0  0  0  0
  6  1  2  0  0  0  0
  7  4  1  0  0  0  0
  8 13  1  0  0  0  0
 10 19  1  0  0  0  0
 12 16  1  0  0  0  0
 12  8  2  0  0  0  0
 13  2  2  0  0  0  0
 13 18  1  0  0  0  0
 16  5  1  0  0  0  0
 17  6  1  0  0  0  0
 17 16  2  0  0  0  0
 18 10  1  0  0  0  0
 19 20  1  0  0  0  0
 20 11  1  0  0  0  0
 20 15  2  0  0  0  0
 21 22  2  0  0  0  0
 22 23  1  0  0  0  0
 23  8  1  0  0  0  0
 25 22  1  0  0  0  0
 25 24  1  1  0  0  0
 27 26  1  1  0  0  0
 27 25  1  0  0  0  0
 28 27  1  0  0  0  0
 29 30  1  6  0  0  0
 29 28  1  0  0  0  0
 31 29  1  0  0  0  0
M  END
>  <MODEL>
1

>  <REMARK>
 VINA RESULT:      -8.1      0.000      0.000
  Name = 
  5 active torsions:
  status: ('A' for Active; 'I' for Inactive)
    1  A    between atoms: C_1  and  O_24
    2  A    between atoms: C_9  and  C_22
    3  A    between atoms: C_15  and  N_23
    4  A    between atoms: C_19  and  C_22
    5  A    between atoms: C_19  and  O_24
                            x       y       z     vdW  Elec       q    Type
                         _______ _______ _______ _____ _____    ______ ____

>  <TORSDO>
F 5

$$$$
=
 OpenBabel11052422393D

 31 34  0  0  1  0  0  0  0  0999 V2000
  161.1380  204.6750  152.2890 C   0  0  0  0  0  0  0  0  0  0  0  0
  161.0050  208.3320  153.0200 C   0  0  0  0  0  0  0  0  0  0  0  0
  160.5930  208.3490  154.4810 C   0  0  1  0  0  3  0  0  0  0  0  0
  161.6180  208.2900  156.8640 C   0  0  0  0  0  2  0  0  0  0  0  0
  161.1800  207.1060  152.3390 C   0  0  0  0  0  0  0  0  0  0  0  0
  161.5490  204.6890  150.9540 C   0  0  0  0  0  3  0  0  0  0  0  0
  161.7560  207.8920  155.3810 C   0  0  0  0  0  2  0  0  0  0  0  0
  161.6230  209.5380  150.9800 C   0  0  0  0  0  0  0  0  0  0  0  0
  160.9190  203.4950  152.9170 F   0  0  0  0  0  0  0  0  0  0  0  0
  159.8220  210.7400  153.9820 C   0  0  0  0  0  2  0  0  0  0  0  0
  160.2130  208.7460  157.2610 C   0  0  0  0  0  2  0  0  0  0  0  0
  161.8110  208.3150  150.3250 C   0  0  0  0  0  3  0  0  0  0  0  0
  161.2110  209.5460  152.3240 C   0  0  0  0  0  0  0  0  0  0  0  0
  160.9540  205.8770  152.9780 C   0  0  0  0  0  3  0  0  0  0  0  0
  159.1350  210.8120  156.7330 O   0  0  0  0  0  0  0  0  0  0  0  0
  161.5900  207.1090  150.9860 C   0  0  0  0  0  0  0  0  0  0  0  0
  161.7740  205.9040  150.3030 C   0  0  0  0  0  3  0  0  0  0  0  0
  160.9990  210.8550  153.0290 C   0  0  0  0  0  2  0  0  0  0  0  0
  160.0690  209.6520  154.9210 N   0  0  0  0  0  0  0  0  0  0  0  0
  159.7660  209.8060  156.3120 C   0  0  0  0  0  0  0  0  0  0  0  0
  161.5670  210.0800  148.0780 O   0  0  0  0  0  0  0  0  0  0  0  0
  161.8550  211.0060  148.8840 C   0  0  0  0  0  0  0  0  0  0  0  0
  161.8510  210.7850  150.3000 N   0  0  0  0  0  2  0  0  0  0  0  0
  161.6470  213.3340  149.2070 O   0  0  0  0  0  1  0  0  0  0  0  0
  162.1980  212.3660  148.3660 C   0  0  2  0  0  3  0  0  0  0  0  0
  162.7180  213.3290  146.1160 C   0  0  0  0  0  1  0  0  0  0  0  0
  161.6960  212.5550  146.9330 C   0  0  2  0  0  3  0  0  0  0  0  0
  160.4790  213.2630  146.9360 O   0  0  0  0  0  0  0  0  0  0  0  0
  159.4440  212.4130  146.4840 C   0  0  1  0  0  3  0  0  0  0  0  0
  158.0750  212.8180  147.0180 C   0  0  0  0  0  1  0  0  0  0  0  0
  159.4270  212.3010  145.0890 O   0  0  0  0  0  1  0  0  0  0  0  0
  1  9  1  0  0  0  0
  1 14  1  0  0  0  0
  2  3  1  0  0  0  0
  3 19  1  0  0  0  0
  3  7  1  1  0  0  0
  4 11  1  0  0  0  0
  5 14  2  0  0  0  0
  5  2  1  0  0  0  0
  6  1  2  0  0  0  0
  7  4  1  0  0  0  0
  8 13  1  0  0  0  0
 10 19  1  0  0  0  0
 12  8  2  0  0  0  0
 12 16  1  0  0  0  0
 13  2  2  0  0  0  0
 13 18  1  0  0  0  0
 16  5  1  0  0  0  0
 17  6  1  0  0  0  0
 17 16  2  0  0  0  0
 18 10  1  0  0  0  0
 19 20  1  0  0  0  0
 20 15  2  0  0  0  0
 20 11  1  0  0  0  0
 21 22  2  0  0  0  0
 22 23  1  0  0  0  0
 23  8  1  0  0  0  0
 25 22  1  0  0  0  0
 25 24  1  1  0  0  0
 27 26  1  6  0  0  0
 27 28  1  0  0  0  0
 27 25  1  0  0  0  0
 29 28  1  0  0  0  0
 29 30  1  6  0  0  0
 31 29  1  0  0  0  0
M  END
>  <MODEL>
2

>  <REMARK>
 VINA RESULT:      -7.6      1.802      2.647
  Name = 
  5 active torsions:
  status: ('A' for Active; 'I' for Inactive)
    1  A    between atoms: C_1  and  O_24
    2  A    between atoms: C_9  and  C_22
    3  A    between atoms: C_15  and  N_23
    4  A    between atoms: C_19  and  C_22
    5  A    between atoms: C_19  and  O_24
                            x       y       z     vdW  Elec       q    Type
                         _______ _______ _______ _____ _____    ______ ____

>  <TORSDO>
F 5

$$$$
=
 OpenBabel11052422393D

 31 34  0  0  1  0  0  0  0  0999 V2000
  161.9240  211.9390  149.3430 C   0  0  0  0  0  0  0  0  0  0  0  0
  161.1780  209.4130  151.9860 C   0  0  0  0  0  0  0  0  0  0  0  0
  160.7450  210.2870  153.1490 C   0  0  1  0  0  3  0  0  0  0  0  0
  158.6260  211.4060  154.1460 C   0  0  0  0  0  2  0  0  0  0  0  0
  161.5510  209.9920  150.7530 C   0  0  0  0  0  0  0  0  0  0  0  0
  162.2890  211.1080  148.2810 C   0  0  0  0  0  3  0  0  0  0  0  0
  159.3510  210.8880  152.8880 C   0  0  0  0  0  2  0  0  0  0  0  0
  161.5920  207.1880  151.0500 C   0  0  0  0  0  0  0  0  0  0  0  0
  161.9240  213.2840  149.1810 F   0  0  0  0  0  0  0  0  0  0  0  0
  161.3490  208.2550  154.5860 C   0  0  0  0  0  2  0  0  0  0  0  0
  159.5330  211.5680  155.3670 C   0  0  0  0  0  2  0  0  0  0  0  0
  161.9400  207.7760  149.8280 C   0  0  0  0  0  3  0  0  0  0  0  0
  161.2210  208.0060  152.1320 C   0  0  0  0  0  0  0  0  0  0  0  0
  161.5580  211.3850  150.5730 C   0  0  0  0  0  3  0  0  0  0  0  0
  160.4510  209.8510  156.7530 O   0  0  0  0  0  0  0  0  0  0  0  0
  161.9270  209.1600  149.6740 C   0  0  0  0  0  0  0  0  0  0  0  0
  162.2910  209.7210  148.4460 C   0  0  0  0  0  3  0  0  0  0  0  0
  160.8550  207.3810  153.4460 C   0  0  0  0  0  2  0  0  0  0  0  0
  160.7820  209.5920  154.4450 N   0  0  0  0  0  0  0  0  0  0  0  0
  160.2760  210.2930  155.5860 C   0  0  0  0  0  0  0  0  0  0  0  0
  159.8510  205.1830  149.7590 O   0  0  0  0  0  0  0  0  0  0  0  0
  160.7160  204.8150  150.6000 C   0  0  0  0  0  0  0  0  0  0  0  0
  161.6030  205.7590  151.2130 N   0  0  0  0  0  2  0  0  0  0  0  0
  162.0650  203.1480  151.5820 O   0  0  0  0  0  1  0  0  0  0  0  0
  160.8340  203.3700  150.9640 C   0  0  2  0  0  3  0  0  0  0  0  0
  160.8040  201.0110  150.1290 C   0  0  0  0  0  1  0  0  0  0  0  0
  160.6880  202.4750  149.7310 C   0  0  2  0  0  3  0  0  0  0  0  0
  161.6920  202.7760  148.7920 O   0  0  0  0  0  0  0  0  0  0  0  0
  161.0930  203.0330  147.5370 C   0  0  1  0  0  3  0  0  0  0  0  0
  161.7410  204.2020  146.8050 C   0  0  0  0  0  1  0  0  0  0  0  0
  161.0560  201.8920  146.7280 O   0  0  0  0  0  1  0  0  0  0  0  0
  1 14  1  0  0  0  0
  2 13  2  0  0  0  0
  2  3  1  0  0  0  0
  3  7  1  6  0  0  0
  3 19  1  0  0  0  0
  4 11  1  0  0  0  0
  5  2  1  0  0  0  0
  6 17  1  0  0  0  0
  6  1  2  0  0  0  0
  7  4  1  0  0  0  0
  8 23  1  0  0  0  0
  8 13  1  0  0  0  0
  9  1  1  0  0  0  0
 11 20  1  0  0  0  0
 12  8  2  0  0  0  0
 13 18  1  0  0  0  0
 14  5  2  0  0  0  0
 16 12  1  0  0  0  0
 16  5  1  0  0  0  0
 17 16  2  0  0  0  0
 18 10  1  0  0  0  0
 19 10  1  0  0  0  0
 19 20  1  0  0  0  0
 20 15  2  0  0  0  0
 21 22  2  0  0  0  0
 22 25  1  0  0  0  0
 22 23  1  0  0  0  0
 25 24  1  6  0  0  0
 27 26  1  1  0  0  0
 27 25  1  0  0  0  0
 28 27  1  0  0  0  0
 29 30  1  6  0  0  0
 29 28  1  0  0  0  0
 31 29  1  0  0  0  0
M  END
>  <MODEL>
3

>  <REMARK>
 VINA RESULT:      -7.6      4.211      7.092
  Name = 
  5 active torsions:
  status: ('A' for Active; 'I' for Inactive)
    1  A    between atoms: C_1  and  O_24
    2  A    between atoms: C_9  and  C_22
    3  A    between atoms: C_15  and  N_23
    4  A    between atoms: C_19  and  C_22
    5  A    between atoms: C_19  and  O_24
                            x       y       z     vdW  Elec       q    Type
                         _______ _______ _______ _____ _____    ______ ____

>  <TORSDO>
F 5

$$$$
=
 OpenBabel11052422393D

 31 34  0  0  1  0  0  0  0  0999 V2000
  161.1070  201.3530  150.3180 C   0  0  0  0  0  0  0  0  0  0  0  0
  161.3960  204.7420  148.7840 C   0  0  0  0  0  0  0  0  0  0  0  0
  161.6800  204.4100  147.3290 C   0  0  1  0  0  3  0  0  0  0  0  0
  160.4480  203.9150  145.1000 C   0  0  0  0  0  2  0  0  0  0  0  0
  161.2080  203.7110  149.7310 C   0  0  0  0  0  0  0  0  0  0  0  0
  160.8170  201.6890  151.6430 C   0  0  0  0  0  3  0  0  0  0  0  0
  160.4170  203.8610  146.6400 C   0  0  0  0  0  2  0  0  0  0  0  0
  161.0340  206.4070  150.5430 C   0  0  0  0  0  0  0  0  0  0  0  0
  161.1980  200.0510  149.9540 F   0  0  0  0  0  0  0  0  0  0  0  0
  162.6350  206.7840  147.2270 C   0  0  0  0  0  2  0  0  0  0  0  0
  161.8380  204.1630  144.5110 C   0  0  0  0  0  2  0  0  0  0  0  0
  160.8310  205.3740  151.4660 C   0  0  0  0  0  3  0  0  0  0  0  0
  161.3270  206.0910  149.2040 C   0  0  0  0  0  0  0  0  0  0  0  0
  161.3020  202.3580  149.3670 C   0  0  0  0  0  3  0  0  0  0  0  0
  163.0810  206.2030  144.4860 O   0  0  0  0  0  0  0  0  0  0  0  0
  160.9190  204.0400  151.0750 C   0  0  0  0  0  0  0  0  0  0  0  0
  160.7230  203.0300  152.0210 C   0  0  0  0  0  3  0  0  0  0  0  0
  161.5540  207.1950  148.2120 C   0  0  0  0  0  2  0  0  0  0  0  0
  162.2400  205.5400  146.5740 N   0  0  0  0  0  0  0  0  0  0  0  0
  162.4290  205.3660  145.1650 C   0  0  0  0  0  0  0  0  0  0  0  0
  160.8850  207.5170  153.2750 O   0  0  0  0  0  0  0  0  0  0  0  0
  160.8310  208.2900  152.2790 C   0  0  0  0  0  0  0  0  0  0  0  0
  160.9420  207.7860  150.9420 N   0  0  0  0  0  2  0  0  0  0  0  0
  161.6680  210.4430  151.8020 O   0  0  0  0  0  1  0  0  0  0  0  0
  160.6610  209.7600  152.4860 C   0  0  2  0  0  3  0  0  0  0  0  0
  159.7570  211.2860  154.2510 C   0  0  0  0  0  1  0  0  0  0  0  0
  160.6910  210.1180  153.9730 C   0  0  2  0  0  3  0  0  0  0  0  0
  161.9970  210.4720  154.3610 O   0  0  0  0  0  0  0  0  0  0  0  0
  162.1200  210.3390  155.7630 C   0  0  1  0  0  3  0  0  0  0  0  0
  161.7420  208.9470  156.2560 C   0  0  0  0  0  1  0  0  0  0  0  0
  163.3920  210.7040  156.2170 O   0  0  0  0  0  1  0  0  0  0  0  0
  1  6  1  0  0  0  0
  2 13  2  0  0  0  0
  2  5  1  0  0  0  0
  3  7  1  6  0  0  0
  3  2  1  0  0  0  0
  4  7  1  0  0  0  0
  5 16  2  0  0  0  0
  6 17  2  0  0  0  0
  8 23  1  0  0  0  0
  8 12  2  0  0  0  0
  9  1  1  0  0  0  0
 10 18  1  0  0  0  0
 11  4  1  0  0  0  0
 11 20  1  0  0  0  0
 13  8  1  0  0  0  0
 14  5  1  0  0  0  0
 14  1  2  0  0  0  0
 15 20  2  0  0  0  0
 16 12  1  0  0  0  0
 16 17  1  0  0  0  0
 18 13  1  0  0  0  0
 19 10  1  0  0  0  0
 19  3  1  0  0  0  0
 20 19  1  0  0  0  0
 22 25  1  0  0  0  0
 22 21  2  0  0  0  0
 23 22  1  0  0  0  0
 25 24  1  6  0  0  0
 25 27  1  0  0  0  0
 27 26  1  6  0  0  0
 27 28  1  0  0  0  0
 28 29  1  0  0  0  0
 29 31  1  0  0  0  0
 29 30  1  6  0  0  0
M  END
>  <MODEL>
4

>  <REMARK>
 VINA RESULT:      -6.3      3.993      7.443
  Name = 
  5 active torsions:
  status: ('A' for Active; 'I' for Inactive)
    1  A    between atoms: C_1  and  O_24
    2  A    between atoms: C_9  and  C_22
    3  A    between atoms: C_15  and  N_23
    4  A    between atoms: C_19  and  C_22
    5  A    between atoms: C_19  and  O_24
                            x       y       z     vdW  Elec       q    Type
                         _______ _______ _______ _____ _____    ______ ____

>  <TORSDO>
F 5

$$$$
=
 OpenBabel11052422393D

 31 34  0  0  1  0  0  0  0  0999 V2000
  161.2290  206.5850  154.0430 C   0  0  0  0  0  0  0  0  0  0  0  0
  161.6760  207.5960  150.4790 C   0  0  0  0  0  0  0  0  0  0  0  0
  161.7610  206.2530  149.7760 C   0  0  1  0  0  3  0  0  0  0  0  0
  160.2440  204.4520  148.6850 C   0  0  0  0  0  2  0  0  0  0  0  0
  161.4950  207.6620  151.8780 C   0  0  0  0  0  0  0  0  0  0  0  0
  161.1240  207.8350  154.6590 C   0  0  0  0  0  3  0  0  0  0  0  0
  160.3810  205.5710  149.7370 C   0  0  0  0  0  2  0  0  0  0  0  0
  161.6780  210.0430  150.3770 C   0  0  0  0  0  0  0  0  0  0  0  0
  161.1510  205.4560  154.7870 F   0  0  0  0  0  0  0  0  0  0  0  0
  162.9270  207.5740  147.9170 C   0  0  0  0  0  2  0  0  0  0  0  0
  161.5760  203.9660  148.1130 C   0  0  0  0  0  2  0  0  0  0  0  0
  161.4800  210.0910  151.7620 C   0  0  0  0  0  3  0  0  0  0  0  0
  161.7870  208.7950  149.7370 C   0  0  0  0  0  0  0  0  0  0  0  0
  161.4150  206.4980  152.6600 C   0  0  0  0  0  3  0  0  0  0  0  0
  163.0030  205.0850  146.5570 O   0  0  0  0  0  0  0  0  0  0  0  0
  161.3930  208.9220  152.5120 C   0  0  0  0  0  0  0  0  0  0  0  0
  161.2060  209.0010  153.8950 C   0  0  0  0  0  3  0  0  0  0  0  0
  162.0090  208.7370  148.2530 C   0  0  0  0  0  2  0  0  0  0  0  0
  162.3410  206.3380  148.4270 N   0  0  0  0  0  0  0  0  0  0  0  0
  162.3530  205.1460  147.6350 C   0  0  0  0  0  0  0  0  0  0  0  0
  160.1040  212.5250  150.6560 O   0  0  0  0  0  0  0  0  0  0  0  0
  160.9600  212.4240  149.7350 C   0  0  0  0  0  0  0  0  0  0  0  0
  161.7680  211.2490  149.5980 N   0  0  0  0  0  2  0  0  0  0  0  0
  160.0950  214.4530  148.8980 O   0  0  0  0  0  1  0  0  0  0  0  0
  161.1500  213.5490  148.7690 C   0  0  2  0  0  3  0  0  0  0  0  0
  162.5690  213.4380  146.7110 C   0  0  0  0  0  1  0  0  0  0  0  0
  161.2390  213.0350  147.3310 C   0  0  2  0  0  3  0  0  0  0  0  0
  160.1920  213.5730  146.5580 O   0  0  0  0  0  0  0  0  0  0  0  0
  159.3290  212.5290  146.1540 C   0  0  1  0  0  3  0  0  0  0  0  0
  157.9750  212.5810  146.8520 C   0  0  0  0  0  1  0  0  0  0  0  0
  159.1760  212.4810  144.7640 O   0  0  0  0  0  1  0  0  0  0  0  0
  1  6  1  0  0  0  0
  1  9  1  0  0  0  0
  2  5  1  0  0  0  0
  3  7  1  6  0  0  0
  3  2  1  0  0  0  0
  4  7  1  0  0  0  0
  5 16  2  0  0  0  0
  5 14  1  0  0  0  0
  8 12  2  0  0  0  0
 10 18  1  0  0  0  0
 10 19  1  0  0  0  0
 11  4  1  0  0  0  0
 12 16  1  0  0  0  0
 13  8  1  0  0  0  0
 13  2  2  0  0  0  0
 14  1  2  0  0  0  0
 15 20  2  0  0  0  0
 16 17  1  0  0  0  0
 17  6  2  0  0  0  0
 18 13  1  0  0  0  0
 19  3  1  0  0  0  0
 20 11  1  0  0  0  0
 20 19  1  0  0  0  0
 22 21  2  0  0  0  0
 23 22  1  0  0  0  0
 23  8  1  0  0  0  0
 25 24  1  6  0  0  0
 25 22  1  0  0  0  0
 27 26  1  6  0  0  0
 27 25  1  0  0  0  0
 28 27  1  0  0  0  0
 29 28  1  0  0  0  0
 29 30  1  1  0  0  0
 31 29  1  0  0  0  0
M  END
>  <MODEL>
5

>  <REMARK>
 VINA RESULT:      -6.3      2.377      4.664
  Name = 
  5 active torsions:
  status: ('A' for Active; 'I' for Inactive)
    1  A    between atoms: C_1  and  O_24
    2  A    between atoms: C_9  and  C_22
    3  A    between atoms: C_15  and  N_23
    4  A    between atoms: C_19  and  C_22
    5  A    between atoms: C_19  and  O_24
                            x       y       z     vdW  Elec       q    Type
                         _______ _______ _______ _____ _____    ______ ____

>  <TORSDO>
F 5

$$$$
=
 OpenBabel11052422393D

 31 34  0  0  1  0  0  0  0  0999 V2000
  161.1800  201.0890  149.7980 C   0  0  0  0  0  0  0  0  0  0  0  0
  161.2570  204.5770  148.4750 C   0  0  0  0  0  0  0  0  0  0  0  0
  161.4740  204.3500  146.9900 C   0  0  1  0  0  3  0  0  0  0  0  0
  160.1440  203.9460  144.7990 C   0  0  0  0  0  2  0  0  0  0  0  0
  161.1590  203.4820  149.3610 C   0  0  0  0  0  0  0  0  0  0  0  0
  160.9480  201.3280  151.1550 C   0  0  0  0  0  3  0  0  0  0  0  0
  160.1980  203.7930  146.3320 C   0  0  0  0  0  2  0  0  0  0  0  0
  160.9260  206.1110  150.3560 C   0  0  0  0  0  0  0  0  0  0  0  0
  161.3010  199.8180  149.3460 F   0  0  0  0  0  0  0  0  0  0  0  0
  162.3310  206.7630  146.9940 C   0  0  0  0  0  2  0  0  0  0  0  0
  161.4900  204.2880  144.1570 C   0  0  0  0  0  2  0  0  0  0  0  0
  160.8130  205.0150  151.2180 C   0  0  0  0  0  3  0  0  0  0  0  0
  161.1580  205.8930  148.9860 C   0  0  0  0  0  0  0  0  0  0  0  0
  161.2850  202.1600  148.9060 C   0  0  0  0  0  3  0  0  0  0  0  0
  162.6510  206.3750  144.2010 O   0  0  0  0  0  0  0  0  0  0  0  0
  160.9310  203.7130  150.7370 C   0  0  0  0  0  0  0  0  0  0  0  0
  160.8240  202.6380  151.6240 C   0  0  0  0  0  3  0  0  0  0  0  0
  161.2900  207.0650  148.0580 C   0  0  0  0  0  2  0  0  0  0  0  0
  161.9500  205.5480  146.2810 N   0  0  0  0  0  0  0  0  0  0  0  0
  162.0690  205.4700  144.8570 C   0  0  0  0  0  0  0  0  0  0  0  0
  163.0730  208.0630  150.9020 O   0  0  0  0  0  0  0  0  0  0  0  0
  161.8710  208.3670  151.1410 C   0  0  0  0  0  0  0  0  0  0  0  0
  160.8040  207.4570  150.8480 N   0  0  0  0  0  2  0  0  0  0  0  0
  162.7160  210.3090  152.1820 O   0  0  0  0  0  1  0  0  0  0  0  0
  161.5430  209.7020  151.7280 C   0  0  2  0  0  3  0  0  0  0  0  0
  159.7090  210.8420  152.9920 C   0  0  0  0  0  1  0  0  0  0  0  0
  160.5350  209.5710  152.8720 C   0  0  2  0  0  3  0  0  0  0  0  0
  161.2080  209.3440  154.0880 O   0  0  0  0  0  0  0  0  0  0  0  0
  160.4950  208.3840  154.8420 C   0  0  1  0  0  3  0  0  0  0  0  0
  160.8310  206.9530  154.4420 C   0  0  0  0  0  1  0  0  0  0  0  0
  160.6560  208.5730  156.2200 O   0  0  0  0  0  1  0  0  0  0  0  0
  1  6  1  0  0  0  0
  2 13  2  0  0  0  0
  2  5  1  0  0  0  0
  3  7  1  6  0  0  0
  3  2  1  0  0  0  0
  4  7  1  0  0  0  0
  5 16  2  0  0  0  0
  6 17  2  0  0  0  0
  8 23  1  0  0  0  0
  8 12  2  0  0  0  0
  9  1  1  0  0  0  0
 10 18  1  0  0  0  0
 11  4  1  0  0  0  0
 11 20  1  0  0  0  0
 13  8  1  0  0  0  0
 14  5  1  0  0  0  0
 14  1  2  0  0  0  0
 15 20  2  0  0  0  0
 16 12  1  0  0  0  0
 16 17  1  0  0  0  0
 18 13  1  0  0  0  0
 19  3  1  0  0  0  0
 19 10  1  0  0  0  0
 20 19  1  0  0  0  0
 21 22  2  0  0  0  0
 22 25  1  0  0  0  0
 23 22  1  0  0  0  0
 25 24  1  1  0  0  0
 25 27  1  0  0  0  0
 27 26  1  1  0  0  0
 27 28  1  0  0  0  0
 28 29  1  0  0  0  0
 29 30  1  6  0  0  0
 29 31  1  0  0  0  0
M  END
>  <MODEL>
6

>  <REMARK>
 VINA RESULT:      -6.2      3.828      7.419
  Name = 
  5 active torsions:
  status: ('A' for Active; 'I' for Inactive)
    1  A    between atoms: C_1  and  O_24
    2  A    between atoms: C_9  and  C_22
    3  A    between atoms: C_15  and  N_23
    4  A    between atoms: C_19  and  C_22
    5  A    between atoms: C_19  and  O_24
                            x       y       z     vdW  Elec       q    Type
                         _______ _______ _______ _____ _____    ______ ____

>  <TORSDO>
F 5

$$$$
=
 OpenBabel11052422393D

 31 34  0  0  1  0  0  0  0  0999 V2000
  160.2240  209.3670  155.5920 C   0  0  0  0  0  0  0  0  0  0  0  0
  161.2080  207.8900  152.3090 C   0  0  0  0  0  0  0  0  0  0  0  0
  161.4300  209.1270  151.4570 C   0  0  1  0  0  3  0  0  0  0  0  0
  163.2820  210.8300  150.8240 C   0  0  0  0  0  2  0  0  0  0  0  0
  160.8190  208.0110  153.6620 C   0  0  0  0  0  0  0  0  0  0  0  0
  160.0570  208.2110  156.3600 C   0  0  0  0  0  3  0  0  0  0  0  0
  162.7230  209.8510  151.8750 C   0  0  0  0  0  2  0  0  0  0  0  0
  161.2070  205.4520  152.5410 C   0  0  0  0  0  0  0  0  0  0  0  0
  160.0190  210.5840  156.1490 F   0  0  0  0  0  0  0  0  0  0  0  0
  161.0740  207.5340  149.4840 C   0  0  0  0  0  2  0  0  0  0  0  0
  162.2930  211.1870  149.7140 C   0  0  0  0  0  2  0  0  0  0  0  0
  160.8410  205.5890  153.8850 C   0  0  0  0  0  3  0  0  0  0  0  0
  161.3810  206.6020  151.7500 C   0  0  0  0  0  0  0  0  0  0  0  0
  160.6020  209.2680  154.2500 C   0  0  0  0  0  3  0  0  0  0  0  0
  161.5810  209.8230  147.8860 O   0  0  0  0  0  0  0  0  0  0  0  0
  160.6430  206.8480  154.4460 C   0  0  0  0  0  0  0  0  0  0  0  0
  160.2660  206.9550  155.7880 C   0  0  0  0  0  3  0  0  0  0  0  0
  161.7650  206.4600  150.3060 C   0  0  0  0  0  2  0  0  0  0  0  0
  161.4290  208.8470  150.0130 N   0  0  0  0  0  0  0  0  0  0  0  0
  161.7510  209.9260  149.1300 C   0  0  0  0  0  0  0  0  0  0  0  0
  159.5680  204.0750  150.5080 O   0  0  0  0  0  0  0  0  0  0  0  0
  160.5750  203.4960  151.0010 C   0  0  0  0  0  0  0  0  0  0  0  0
  161.4140  204.1530  151.9590 N   0  0  0  0  0  2  0  0  0  0  0  0
  162.1600  201.7510  151.1010 O   0  0  0  0  0  1  0  0  0  0  0  0
  160.9160  202.1040  150.5760 C   0  0  2  0  0  3  0  0  0  0  0  0
  161.3620  200.5780  148.6440 C   0  0  0  0  0  1  0  0  0  0  0  0
  160.9260  201.9770  149.0510 C   0  0  2  0  0  3  0  0  0  0  0  0
  161.8150  202.9160  148.4920 O   0  0  0  0  0  0  0  0  0  0  0  0
  161.2140  203.5070  147.3570 C   0  0  1  0  0  3  0  0  0  0  0  0
  161.8380  204.8490  146.9950 C   0  0  0  0  0  1  0  0  0  0  0  0
  161.2060  202.6430  146.2570 O   0  0  0  0  0  1  0  0  0  0  0  0
  1  9  1  0  0  0  0
  1  6  1  0  0  0  0
  2  5  1  0  0  0  0
  3  7  1  1  0  0  0
  3  2  1  0  0  0  0
  4  7  1  0  0  0  0
  5 14  1  0  0  0  0
  5 16  2  0  0  0  0
  8 12  2  0  0  0  0
 10 19  1  0  0  0  0
 10 18  1  0  0  0  0
 11  4  1  0  0  0  0
 12 16  1  0  0  0  0
 13  2  2  0  0  0  0
 13  8  1  0  0  0  0
 14  1  2  0  0  0  0
 15 20  2  0  0  0  0
 16 17  1  0  0  0  0
 17  6  2  0  0  0  0
 18 13  1  0  0  0  0
 19  3  1  0  0  0  0
 20 11  1  0  0  0  0
 20 19  1  0  0  0  0
 21 22  2  0  0  0  0
 22 23  1  0  0  0  0
 23  8  1  0  0  0  0
 25 22  1  0  0  0  0
 25 24  1  6  0  0  0
 27 26  1  1  0  0  0
 27 25  1  0  0  0  0
 28 27  1  0  0  0  0
 29 30  1  6  0  0  0
 29 28  1  0  0  0  0
 31 29  1  0  0  0  0
M  END
>  <MODEL>
7

>  <REMARK>
 VINA RESULT:      -5.8      4.030      8.009
  Name = 
  5 active torsions:
  status: ('A' for Active; 'I' for Inactive)
    1  A    between atoms: C_1  and  O_24
    2  A    between atoms: C_9  and  C_22
    3  A    between atoms: C_15  and  N_23
    4  A    between atoms: C_19  and  C_22
    5  A    between atoms: C_19  and  O_24
                            x       y       z     vdW  Elec       q    Type
                         _______ _______ _______ _____ _____    ______ ____

>  <TORSDO>
F 5

$$$$
=
 OpenBabel11052422393D

 31 34  0  0  1  0  0  0  0  0999 V2000
  161.2550  213.1750  149.6110 C   0  0  0  0  0  0  0  0  0  0  0  0
  161.4370  209.7670  151.1200 C   0  0  0  0  0  0  0  0  0  0  0  0
  161.1120  210.0460  152.5760 C   0  0  1  0  0  3  0  0  0  0  0  0
  159.0850  210.2440  154.1850 C   0  0  0  0  0  2  0  0  0  0  0  0
  161.4680  210.8190  150.1780 C   0  0  0  0  0  0  0  0  0  0  0  0
  161.5270  212.8830  148.2710 C   0  0  0  0  0  3  0  0  0  0  0  0
  159.6190  210.3840  152.7460 C   0  0  0  0  0  2  0  0  0  0  0  0
  161.9920  208.1760  149.3420 C   0  0  0  0  0  0  0  0  0  0  0  0
  161.0190  214.4530  149.9900 F   0  0  0  0  0  0  0  0  0  0  0  0
  162.2890  207.8140  153.0140 C   0  0  0  0  0  2  0  0  0  0  0  0
  160.1790  210.1440  155.2500 C   0  0  0  0  0  2  0  0  0  0  0  0
  162.0000  209.2270  148.4170 C   0  0  0  0  0  3  0  0  0  0  0  0
  161.7210  208.4470  150.6950 C   0  0  0  0  0  0  0  0  0  0  0  0
  161.2260  212.1480  150.5590 C   0  0  0  0  0  3  0  0  0  0  0  0
  161.6020  208.2850  155.7260 O   0  0  0  0  0  0  0  0  0  0  0  0
  161.7460  210.5350  148.8210 C   0  0  0  0  0  0  0  0  0  0  0  0
  161.7720  211.5660  147.8770 C   0  0  0  0  0  3  0  0  0  0  0  0
  161.7200  207.3260  151.6930 C   0  0  0  0  0  2  0  0  0  0  0  0
  161.5080  208.9550  153.4800 N   0  0  0  0  0  0  0  0  0  0  0  0
  161.1350  209.0690  154.8570 C   0  0  0  0  0  0  0  0  0  0  0  0
  160.0810  206.1760  148.3100 O   0  0  0  0  0  0  0  0  0  0  0  0
  161.2930  205.8630  148.4690 C   0  0  0  0  0  0  0  0  0  0  0  0
  162.2530  206.8230  148.9290 N   0  0  0  0  0  2  0  0  0  0  0  0
  161.1550  204.0400  146.9780 O   0  0  0  0  0  1  0  0  0  0  0  0
  161.7500  204.4730  148.1640 C   0  0  2  0  0  3  0  0  0  0  0  0
  160.4210  202.4630  148.8390 C   0  0  0  0  0  1  0  0  0  0  0  0
  161.4130  203.5160  149.3090 C   0  0  2  0  0  3  0  0  0  0  0  0
  160.8500  204.2280  150.3860 O   0  0  0  0  0  0  0  0  0  0  0  0
  161.5400  203.8960  151.5750 C   0  0  1  0  0  3  0  0  0  0  0  0
  160.7770  204.3010  152.8300 C   0  0  0  0  0  1  0  0  0  0  0  0
  161.8950  202.5430  151.6170 O   0  0  0  0  0  1  0  0  0  0  0  0
  1  9  1  0  0  0  0
  1 14  1  0  0  0  0
  2  3  1  0  0  0  0
  3  7  1  6  0  0  0
  3 19  1  0  0  0  0
  4 11  1  0  0  0  0
  5 14  2  0  0  0  0
  5  2  1  0  0  0  0
  6  1  2  0  0  0  0
  7  4  1  0  0  0  0
  8 13  1  0  0  0  0
 10 19  1  0  0  0  0
 12 16  1  0  0  0  0
 12  8  2  0  0  0  0
 13  2  2  0  0  0  0
 13 18  1  0  0  0  0
 16  5  1  0  0  0  0
 17  6  1  0  0  0  0
 17 16  2  0  0  0  0
 18 10  1  0  0  0  0
 19 20  1  0  0  0  0
 20 11  1  0  0  0  0
 20 15  2  0  0  0  0
 21 22  2  0  0  0  0
 22 23  1  0  0  0  0
 23  8  1  0  0  0  0
 25 24  1  6  0  0  0
 25 22  1  0  0  0  0
 25 27  1  0  0  0  0
 27 26  1  6  0  0  0
 27 28  1  0  0  0  0
 28 29  1  0  0  0  0
 29 31  1  0  0  0  0
 29 30  1  1  0  0  0
M  END
>  <MODEL>
8

>  <REMARK>
 VINA RESULT:      -5.7      3.783      7.082
  Name = 
  5 active torsions:
  status: ('A' for Active; 'I' for Inactive)
    1  A    between atoms: C_1  and  O_24
    2  A    between atoms: C_9  and  C_22
    3  A    between atoms: C_15  and  N_23
    4  A    between atoms: C_19  and  C_22
    5  A    between atoms: C_19  and  O_24
                            x       y       z     vdW  Elec       q    Type
                         _______ _______ _______ _____ _____    ______ ____

>  <TORSDO>
F 5

$$$$
=
 OpenBabel11052422393D

 31 34  0  0  1  0  0  0  0  0999 V2000
  161.1140  206.9590  146.9020 C   0  0  0  0  0  0  0  0  0  0  0  0
  161.0170  204.9020  150.0140 C   0  0  0  0  0  0  0  0  0  0  0  0
  160.7330  203.5140  149.4690 C   0  0  1  0  0  3  0  0  0  0  0  0
  161.9630  201.4150  148.5660 C   0  0  0  0  0  2  0  0  0  0  0  0
  161.1410  206.0040  149.1390 C   0  0  0  0  0  0  0  0  0  0  0  0
  161.4060  208.2190  147.4290 C   0  0  0  0  0  3  0  0  0  0  0  0
  161.9740  202.9450  148.7560 C   0  0  0  0  0  2  0  0  0  0  0  0
  161.4440  206.3830  151.9170 C   0  0  0  0  0  0  0  0  0  0  0  0
  160.9600  206.8040  145.5650 F   0  0  0  0  0  0  0  0  0  0  0  0
  159.9030  203.0190  151.8400 C   0  0  0  0  0  2  0  0  0  0  0  0
  160.5950  200.7680  148.7850 C   0  0  0  0  0  2  0  0  0  0  0  0
  161.5830  207.4610  151.0360 C   0  0  0  0  0  3  0  0  0  0  0  0
  161.1510  205.1060  151.4070 C   0  0  0  0  0  0  0  0  0  0  0  0
  160.9820  205.8570  147.7510 C   0  0  0  0  0  3  0  0  0  0  0  0
  159.4590  200.3960  150.8530 O   0  0  0  0  0  0  0  0  0  0  0  0
  161.4310  207.2850  149.6630 C   0  0  0  0  0  0  0  0  0  0  0  0
  161.5640  208.3820  148.8070 C   0  0  0  0  0  3  0  0  0  0  0  0
  160.9920  203.9470  152.3490 C   0  0  0  0  0  2  0  0  0  0  0  0
  160.2400  202.5780  150.4910 N   0  0  0  0  0  0  0  0  0  0  0  0
  160.0590  201.2120  150.1040 C   0  0  0  0  0  0  0  0  0  0  0  0
  160.3590  208.5330  153.6260 O   0  0  0  0  0  0  0  0  0  0  0  0
  161.0940  207.6400  154.1310 C   0  0  0  0  0  0  0  0  0  0  0  0
  161.6020  206.5610  153.3360 N   0  0  0  0  0  2  0  0  0  0  0  0
  160.5210  206.9220  156.3040 O   0  0  0  0  0  1  0  0  0  0  0  0
  161.4370  207.6910  155.5850 C   0  0  2  0  0  3  0  0  0  0  0  0
  162.5220  209.3030  157.1610 C   0  0  0  0  0  1  0  0  0  0  0  0
  161.4460  209.1320  156.1010 C   0  0  2  0  0  3  0  0  0  0  0  0
  160.1940  209.4530  156.6610 O   0  0  0  0  0  0  0  0  0  0  0  0
  159.8120  210.7460  156.2370 C   0  0  1  0  0  3  0  0  0  0  0  0
  158.4170  210.7760  155.6240 C   0  0  0  0  0  1  0  0  0  0  0  0
  159.9320  211.6920  157.2610 O   0  0  0  0  0  1  0  0  0  0  0  0
  1  6  2  0  0  0  0
  1 14  1  0  0  0  0
  2 13  2  0  0  0  0
  3  7  1  1  0  0  0
  3  2  1  0  0  0  0
  3 19  1  0  0  0  0
  4  7  1  0  0  0  0
  4 11  1  0  0  0  0
  5 16  1  0  0  0  0
  5  2  1  0  0  0  0
  6 17  1  0  0  0  0
  8 23  1  0  0  0  0
  9  1  1  0  0  0  0
 10 18  1  0  0  0  0
 11 20  1  0  0  0  0
 12  8  2  0  0  0  0
 13  8  1  0  0  0  0
 13 18  1  0  0  0  0
 14  5  2  0  0  0  0
 16 12  1  0  0  0  0
 17 16  2  0  0  0  0
 19 10  1  0  0  0  0
 20 19  1  0  0  0  0
 20 15  2  0  0  0  0
 21 22  2  0  0  0  0
 22 25  1  0  0  0  0
 23 22  1  0  0  0  0
 25 27  1  0  0  0  0
 25 24  1  1  0  0  0
 27 28  1  0  0  0  0
 27 26  1  1  0  0  0
 29 30  1  1  0  0  0
 29 28  1  0  0  0  0
 29 31  1  0  0  0  0
M  END
>  <MODEL>
9

>  <REMARK>
 VINA RESULT:      -5.2      4.430      7.734
  Name = 
  5 active torsions:
  status: ('A' for Active; 'I' for Inactive)
    1  A    between atoms: C_1  and  O_24
    2  A    between atoms: C_9  and  C_22
    3  A    between atoms: C_15  and  N_23
    4  A    between atoms: C_19  and  C_22
    5  A    between atoms: C_19  and  O_24
                            x       y       z     vdW  Elec       q    Type
                         _______ _______ _______ _____ _____    ______ ____

>  <TORSDO>
F 5

$$$$
