=
 OpenBabel11062408203D

 32 37  0  0  1  0  0  0  0  0999 V2000
  161.2060  206.4650  151.1990 C   0  0  0  0  0  0  0  0  0  0  0  0
  161.1910  204.6570  149.5630 C   0  0  0  0  0  0  0  0  0  0  0  0
  161.2450  206.9430  152.6320 C   0  0  0  0  0  2  0  0  0  0  0  0
  161.1550  205.0840  150.9020 C   0  0  0  0  0  0  0  0  0  0  0  0
  161.1870  203.2860  149.2280 C   0  0  0  0  0  0  0  0  0  0  0  0
  160.7940  205.6710  144.7940 C   0  0  0  0  0  2  0  0  0  0  0  0
  161.2690  205.6160  148.5350 C   0  0  0  0  0  0  0  0  0  0  0  0
  161.3320  203.3660  145.5130 C   0  0  0  0  0  3  0  0  0  0  0  0
  161.2850  203.8200  146.9130 C   0  0  0  0  0  0  0  0  0  0  0  0
  160.9370  204.0620  151.9970 C   0  0  1  0  0  3  0  0  0  0  0  0
  161.2320  202.9110  147.9210 N   0  0  0  0  0  0  0  0  0  0  0  0
  161.6110  202.7380  151.6450 C   0  0  0  0  0  2  0  0  0  0  0  0
  161.4120  204.5620  153.3530 C   0  0  0  0  0  2  0  0  0  0  0  0
  161.3190  206.9370  148.8500 N   0  0  0  0  0  0  0  0  0  0  0  0
  161.3010  207.3910  150.1340 C   0  0  0  0  0  0  0  0  0  0  0  0
  161.3040  205.1980  147.1990 C   0  0  0  0  0  0  0  0  0  0  0  0
  161.1070  202.2220  150.2910 C   0  0  1  0  0  3  0  0  0  0  0  0
  160.7500  205.9010  153.6320 C   0  0  0  0  0  2  0  0  0  0  0  0
  161.1490  204.2350  144.5160 C   0  0  0  0  0  3  0  0  0  0  0  0
  161.4730  206.1820  146.0700 C   0  0  0  0  0  2  0  0  0  0  0  0
  162.0170  211.0150  149.7490 C   0  0  0  0  0  0  0  0  0  0  0  0
  162.4870  211.8310  148.9140 O   0  0  0  0  0  0  0  0  0  0  0  0
  161.3950  208.8070  150.3760 N   0  0  0  0  0  0  0  0  0  0  0  0
  161.6090  211.4470  150.9340 O   0  0  0  0  0  0  0  0  0  0  0  0
  161.0070  209.2940  151.5580 N   0  0  0  0  0  0  0  0  0  0  0  0
  161.9170  209.6550  149.4380 C   0  0  0  0  0  0  0  0  0  0  0  0
  162.2910  209.2300  148.3090 O   0  0  0  0  0  0  0  0  0  0  0  0
  161.1080  210.6170  151.8420 C   0  0  0  0  0  0  0  0  0  0  0  0
  161.3180  210.6830  154.2870 C   0  0  0  0  0  1  0  0  0  0  0  0
  160.6860  211.0890  153.0830 O   0  0  0  0  0  0  0  0  0  0  0  0
  159.6830  201.6970  150.4000 C   0  0  0  0  0  2  0  0  0  0  0  0
  159.2200  201.3080  149.1420 O   0  0  0  0  0  1  0  0  0  0  0  0
  1  3  1  0  0  0  0
  2  4  2  0  0  0  0
  3 18  1  0  0  0  0
  4  1  1  0  0  0  0
  4 10  1  0  0  0  0
  5  2  1  0  0  0  0
  5 17  1  0  0  0  0
  6 20  1  0  0  0  0
  7 14  2  0  0  0  0
  7  2  1  0  0  0  0
  8  9  1  0  0  0  0
  9 16  2  0  0  0  0
  9 11  1  0  0  0  0
 10 12  1  6  0  0  0
 10 13  1  0  0  0  0
 11  5  2  0  0  0  0
 13 18  1  0  0  0  0
 14 15  1  0  0  0  0
 15 23  1  0  0  0  0
 15  1  2  0  0  0  0
 16  7  1  0  0  0  0
 17 31  1  1  0  0  0
 17 12  1  0  0  0  0
 19  6  1  0  0  0  0
 19  8  2  0  0  0  0
 20 16  1  0  0  0  0
 21 24  1  0  0  0  0
 22 21  2  0  0  0  0
 23 25  1  0  0  0  0
 24 28  1  0  0  0  0
 25 28  2  0  0  0  0
 26 21  1  0  0  0  0
 26 23  1  0  0  0  0
 27 26  2  0  0  0  0
 28 30  1  0  0  0  0
 30 29  1  0  0  0  0
 32 31  1  0  0  0  0
M  END
>  <MODEL>
1

>  <REMARK>
 VINA RESULT:      -9.7      0.000      0.000
  Name = 
  3 active torsions:
  status: ('A' for Active; 'I' for Inactive)
    1  A    between atoms: C_13  and  C_29
    2  A    between atoms: O_15  and  C_26
    3  A    between atoms: N_16  and  C_27
                            x       y       z     vdW  Elec       q    Type
                         _______ _______ _______ _____ _____    ______ ____

>  <TORSDO>
F 3

$$$$
=
 OpenBabel11062408203D

 32 37  0  0  1  0  0  0  0  0999 V2000
  161.5200  208.1680  150.9450 C   0  0  0  0  0  0  0  0  0  0  0  0
  161.3340  206.1600  149.5750 C   0  0  0  0  0  0  0  0  0  0  0  0
  161.6500  209.6690  151.0690 C   0  0  0  0  0  2  0  0  0  0  0  0
  161.5270  207.5490  149.6740 C   0  0  0  0  0  0  0  0  0  0  0  0
  161.2900  205.5110  148.3220 C   0  0  0  0  0  0  0  0  0  0  0  0
  161.1860  201.7530  151.6940 C   0  0  0  0  0  2  0  0  0  0  0  0
  161.1440  205.4040  150.7470 C   0  0  0  0  0  0  0  0  0  0  0  0
  160.7180  201.9630  149.2730 C   0  0  0  0  0  3  0  0  0  0  0  0
  160.9290  203.4150  149.3850 C   0  0  0  0  0  0  0  0  0  0  0  0
  161.8630  208.3380  148.4270 C   0  0  1  0  0  3  0  0  0  0  0  0
  161.0920  204.1670  148.2650 N   0  0  0  0  0  0  0  0  0  0  0  0
  161.1450  207.7620  147.2100 C   0  0  0  0  0  2  0  0  0  0  0  0
  161.5510  209.8190  148.5820 C   0  0  0  0  0  2  0  0  0  0  0  0
  161.1390  206.0260  151.9560 N   0  0  0  0  0  0  0  0  0  0  0  0
  161.3090  207.3710  152.0930 C   0  0  0  0  0  0  0  0  0  0  0  0
  160.9520  204.0200  150.6560 C   0  0  0  0  0  0  0  0  0  0  0  0
  161.4850  206.2760  147.0390 C   0  0  1  0  0  3  0  0  0  0  0  0
  162.2500  210.3300  149.8310 C   0  0  0  0  0  2  0  0  0  0  0  0
  160.7910  201.1850  150.3570 C   0  0  0  0  0  3  0  0  0  0  0  0
  160.6610  203.1830  151.8750 C   0  0  0  0  0  2  0  0  0  0  0  0
  160.9630  207.8040  155.7650 C   0  0  0  0  0  0  0  0  0  0  0  0
  160.7780  207.1310  156.8130 O   0  0  0  0  0  0  0  0  0  0  0  0
  161.2530  207.9510  153.4100 N   0  0  0  0  0  0  0  0  0  0  0  0
  161.0840  209.1220  155.8440 O   0  0  0  0  0  0  0  0  0  0  0  0
  161.3590  209.2750  153.5440 N   0  0  0  0  0  0  0  0  0  0  0  0
  161.0460  207.1770  154.5190 C   0  0  0  0  0  0  0  0  0  0  0  0
  160.9440  205.9210  154.4300 O   0  0  0  0  0  0  0  0  0  0  0  0
  161.2800  209.8680  154.7630 C   0  0  0  0  0  0  0  0  0  0  0  0
  160.4600  212.0320  155.5830 C   0  0  0  0  0  1  0  0  0  0  0  0
  161.4020  211.2530  154.8640 O   0  0  0  0  0  0  0  0  0  0  0  0
  162.9090  206.0940  146.5320 C   0  0  0  0  0  2  0  0  0  0  0  0
  162.9780  204.9870  145.6870 O   0  0  0  0  0  1  0  0  0  0  0  0
  1  3  1  0  0  0  0
  1 15  1  0  0  0  0
  2  4  1  0  0  0  0
  2  7  1  0  0  0  0
  4  1  2  0  0  0  0
  5  2  2  0  0  0  0
  6 20  1  0  0  0  0
  7 14  1  0  0  0  0
  8  9  1  0  0  0  0
  8 19  2  0  0  0  0
  9 16  1  0  0  0  0
 10 12  1  6  0  0  0
 10 13  1  0  0  0  0
 10  4  1  0  0  0  0
 11  5  1  0  0  0  0
 11  9  2  0  0  0  0
 13 18  1  0  0  0  0
 14 15  2  0  0  0  0
 15 23  1  0  0  0  0
 16  7  2  0  0  0  0
 16 20  1  0  0  0  0
 17 31  1  1  0  0  0
 17 12  1  0  0  0  0
 17  5  1  0  0  0  0
 18  3  1  0  0  0  0
 19  6  1  0  0  0  0
 21 24  1  0  0  0  0
 21 22  2  0  0  0  0
 23 25  1  0  0  0  0
 23 26  1  0  0  0  0
 25 28  2  0  0  0  0
 26 21  1  0  0  0  0
 27 26  2  0  0  0  0
 28 30  1  0  0  0  0
 28 24  1  0  0  0  0
 30 29  1  0  0  0  0
 32 31  1  0  0  0  0
M  END
>  <MODEL>
2

>  <REMARK>
 VINA RESULT:      -8.8      2.494      4.970
  Name = 
  3 active torsions:
  status: ('A' for Active; 'I' for Inactive)
    1  A    between atoms: C_13  and  C_29
    2  A    between atoms: O_15  and  C_26
    3  A    between atoms: N_16  and  C_27
                            x       y       z     vdW  Elec       q    Type
                         _______ _______ _______ _____ _____    ______ ____

>  <TORSDO>
F 3

$$$$
=
 OpenBabel11062408203D

 32 37  0  0  1  0  0  0  0  0999 V2000
  160.9910  208.8130  152.6090 C   0  0  0  0  0  0  0  0  0  0  0  0
  161.5750  209.3830  150.3110 C   0  0  0  0  0  0  0  0  0  0  0  0
  160.9030  207.8070  153.7330 C   0  0  0  0  0  2  0  0  0  0  0  0
  161.4310  208.4190  151.3240 C   0  0  0  0  0  0  0  0  0  0  0  0
  162.0530  209.0360  149.0290 C   0  0  0  0  0  0  0  0  0  0  0  0
  160.6870  213.8790  148.6010 C   0  0  0  0  0  2  0  0  0  0  0  0
  161.2710  210.7280  150.5900 C   0  0  0  0  0  0  0  0  0  0  0  0
  162.0400  212.3040  147.2560 C   0  0  0  0  0  3  0  0  0  0  0  0
  161.8780  211.2980  148.3180 C   0  0  0  0  0  0  0  0  0  0  0  0
  161.6300  206.9570  150.9860 C   0  0  1  0  0  3  0  0  0  0  0  0
  162.1880  209.9980  148.0760 N   0  0  0  0  0  0  0  0  0  0  0  0
  162.7230  206.7880  149.9340 C   0  0  0  0  0  2  0  0  0  0  0  0
  161.9370  206.1190  152.2170 C   0  0  0  0  0  2  0  0  0  0  0  0
  160.8530  211.0790  151.8350 N   0  0  0  0  0  0  0  0  0  0  0  0
  160.7140  210.1790  152.8470 C   0  0  0  0  0  0  0  0  0  0  0  0
  161.4110  211.6940  149.5850 C   0  0  0  0  0  0  0  0  0  0  0  0
  162.3950  207.6110  148.6820 C   0  0  1  0  0  3  0  0  0  0  0  0
  160.8470  206.3600  153.2490 C   0  0  0  0  0  2  0  0  0  0  0  0
  161.5250  213.5280  147.4000 C   0  0  0  0  0  3  0  0  0  0  0  0
  161.1780  213.1570  149.8610 C   0  0  0  0  0  2  0  0  0  0  0  0
  160.7510  211.4020  156.3540 C   0  0  0  0  0  0  0  0  0  0  0  0
  161.5590  211.7350  157.2610 O   0  0  0  0  0  0  0  0  0  0  0  0
  160.3000  210.6450  154.1460 N   0  0  0  0  0  0  0  0  0  0  0  0
  159.4470  211.4410  156.5880 O   0  0  0  0  0  0  0  0  0  0  0  0
  158.9980  210.6940  154.4360 N   0  0  0  0  0  0  0  0  0  0  0  0
  161.2160  210.9930  155.1010 C   0  0  0  0  0  0  0  0  0  0  0  0
  162.4560  210.9620  154.8590 O   0  0  0  0  0  0  0  0  0  0  0  0
  158.5640  211.0970  155.6580 C   0  0  0  0  0  0  0  0  0  0  0  0
  156.2530  211.4550  154.9090 C   0  0  0  0  0  1  0  0  0  0  0  0
  157.1960  211.1420  155.9220 O   0  0  0  0  0  0  0  0  0  0  0  0
  161.2590  206.9780  147.8910 C   0  0  0  0  0  2  0  0  0  0  0  0
  161.7660  206.3150  146.7730 O   0  0  0  0  0  1  0  0  0  0  0  0
  1 15  1  0  0  0  0
  1  3  1  0  0  0  0
  2  7  1  0  0  0  0
  2  4  1  0  0  0  0
  4  1  2  0  0  0  0
  5  2  2  0  0  0  0
  6 20  1  0  0  0  0
  7 14  1  0  0  0  0
  8 19  2  0  0  0  0
  8  9  1  0  0  0  0
  9 16  1  0  0  0  0
 10 12  1  6  0  0  0
 10  4  1  0  0  0  0
 10 13  1  0  0  0  0
 11  9  2  0  0  0  0
 11  5  1  0  0  0  0
 13 18  1  0  0  0  0
 14 15  2  0  0  0  0
 15 23  1  0  0  0  0
 16 20  1  0  0  0  0
 16  7  2  0  0  0  0
 17 31  1  1  0  0  0
 17  5  1  0  0  0  0
 17 12  1  0  0  0  0
 18  3  1  0  0  0  0
 19  6  1  0  0  0  0
 21 24  1  0  0  0  0
 21 22  2  0  0  0  0
 23 25  1  0  0  0  0
 23 26  1  0  0  0  0
 25 28  2  0  0  0  0
 26 21  1  0  0  0  0
 27 26  2  0  0  0  0
 28 30  1  0  0  0  0
 28 24  1  0  0  0  0
 29 30  1  0  0  0  0
 32 31  1  0  0  0  0
M  END
>  <MODEL>
3

>  <REMARK>
 VINA RESULT:      -8.0      3.303      5.880
  Name = 
  3 active torsions:
  status: ('A' for Active; 'I' for Inactive)
    1  A    between atoms: C_13  and  C_29
    2  A    between atoms: O_15  and  C_26
    3  A    between atoms: N_16  and  C_27
                            x       y       z     vdW  Elec       q    Type
                         _______ _______ _______ _____ _____    ______ ____

>  <TORSDO>
F 3

$$$$
=
 OpenBabel11062408203D

 32 37  0  0  1  0  0  0  0  0999 V2000
  161.0400  209.0350  152.5990 C   0  0  0  0  0  0  0  0  0  0  0  0
  161.5870  209.5830  150.2870 C   0  0  0  0  0  0  0  0  0  0  0  0
  160.9640  208.0390  153.7330 C   0  0  0  0  0  2  0  0  0  0  0  0
  161.4540  208.6280  151.3100 C   0  0  0  0  0  0  0  0  0  0  0  0
  162.0400  209.2220  149.0000 C   0  0  0  0  0  0  0  0  0  0  0  0
  160.7020  214.0720  148.5570 C   0  0  0  0  0  2  0  0  0  0  0  0
  161.2980  210.9330  150.5610 C   0  0  0  0  0  0  0  0  0  0  0  0
  162.0200  212.4760  147.2010 C   0  0  0  0  0  3  0  0  0  0  0  0
  161.8700  211.4800  148.2740 C   0  0  0  0  0  0  0  0  0  0  0  0
  161.6370  207.1620  150.9800 C   0  0  1  0  0  3  0  0  0  0  0  0
  162.1660  210.1750  148.0370 N   0  0  0  0  0  0  0  0  0  0  0  0
  162.7090  206.9760  149.9110 C   0  0  0  0  0  2  0  0  0  0  0  0
  161.9590  206.3310  152.2130 C   0  0  0  0  0  2  0  0  0  0  0  0
  160.9040  211.2960  151.8100 N   0  0  0  0  0  0  0  0  0  0  0  0
  160.7770  210.4050  152.8320 C   0  0  0  0  0  0  0  0  0  0  0  0
  161.4270  211.8890  149.5460 C   0  0  0  0  0  0  0  0  0  0  0  0
  162.3660  207.7920  148.6580 C   0  0  1  0  0  3  0  0  0  0  0  0
  160.8900  206.5880  153.2610 C   0  0  0  0  0  2  0  0  0  0  0  0
  161.5170  213.7050  147.3450 C   0  0  0  0  0  3  0  0  0  0  0  0
  161.2110  213.3560  149.8140 C   0  0  0  0  0  2  0  0  0  0  0  0
  158.7880  211.7150  155.6820 C   0  0  0  0  0  0  0  0  0  0  0  0
  157.6070  212.0320  155.9810 O   0  0  0  0  0  0  0  0  0  0  0  0
  160.3900  210.8840  154.1340 N   0  0  0  0  0  0  0  0  0  0  0  0
  159.7530  211.8510  156.5800 O   0  0  0  0  0  0  0  0  0  0  0  0
  161.3250  211.0480  155.0720 N   0  0  0  0  0  0  0  0  0  0  0  0
  159.0920  211.2190  154.4110 C   0  0  0  0  0  0  0  0  0  0  0  0
  158.1810  211.0740  153.5480 O   0  0  0  0  0  0  0  0  0  0  0  0
  161.0110  211.5280  156.3030 C   0  0  0  0  0  0  0  0  0  0  0  0
  163.3050  211.1200  157.0770 C   0  0  0  0  0  1  0  0  0  0  0  0
  162.0140  211.6790  157.2590 O   0  0  0  0  0  0  0  0  0  0  0  0
  161.2110  207.1610  147.8920 C   0  0  0  0  0  2  0  0  0  0  0  0
  161.7000  206.4240  146.8130 O   0  0  0  0  0  1  0  0  0  0  0  0
  1 15  1  0  0  0  0
  1  3  1  0  0  0  0
  2  7  1  0  0  0  0
  2  4  1  0  0  0  0
  4  1  2  0  0  0  0
  5  2  2  0  0  0  0
  6 20  1  0  0  0  0
  7 14  1  0  0  0  0
  8 19  2  0  0  0  0
  8  9  1  0  0  0  0
  9 16  1  0  0  0  0
 10 12  1  6  0  0  0
 10  4  1  0  0  0  0
 10 13  1  0  0  0  0
 11  9  2  0  0  0  0
 11  5  1  0  0  0  0
 13 18  1  0  0  0  0
 14 15  2  0  0  0  0
 15 23  1  0  0  0  0
 16 20  1  0  0  0  0
 16  7  2  0  0  0  0
 17 31  1  1  0  0  0
 17  5  1  0  0  0  0
 17 12  1  0  0  0  0
 18  3  1  0  0  0  0
 19  6  1  0  0  0  0
 21 22  2  0  0  0  0
 21 24  1  0  0  0  0
 23 26  1  0  0  0  0
 23 25  1  0  0  0  0
 25 28  2  0  0  0  0
 26 21  1  0  0  0  0
 27 26  2  0  0  0  0
 28 24  1  0  0  0  0
 28 30  1  0  0  0  0
 29 30  1  0  0  0  0
 32 31  1  0  0  0  0
M  END
>  <MODEL>
4

>  <REMARK>
 VINA RESULT:      -7.9      3.411      5.960
  Name = 
  3 active torsions:
  status: ('A' for Active; 'I' for Inactive)
    1  A    between atoms: C_13  and  C_29
    2  A    between atoms: O_15  and  C_26
    3  A    between atoms: N_16  and  C_27
                            x       y       z     vdW  Elec       q    Type
                         _______ _______ _______ _____ _____    ______ ____

>  <TORSDO>
F 3

$$$$
=
 OpenBabel11062408203D

 32 37  0  0  1  0  0  0  0  0999 V2000
  161.3290  206.7260  151.2860 C   0  0  0  0  0  0  0  0  0  0  0  0
  161.2320  209.1480  151.5480 C   0  0  0  0  0  0  0  0  0  0  0  0
  161.2140  205.3340  151.8630 C   0  0  0  0  0  2  0  0  0  0  0  0
  161.1920  207.8620  152.1160 C   0  0  0  0  0  0  0  0  0  0  0  0
  161.0550  210.3050  152.3380 C   0  0  0  0  0  0  0  0  0  0  0  0
  162.2890  212.0670  147.7680 C   0  0  0  0  0  2  0  0  0  0  0  0
  161.4160  209.2840  150.1600 C   0  0  0  0  0  0  0  0  0  0  0  0
  161.3200  213.0360  149.8280 C   0  0  0  0  0  3  0  0  0  0  0  0
  161.2890  211.6870  150.4160 C   0  0  0  0  0  0  0  0  0  0  0  0
  161.1290  207.7210  153.6210 C   0  0  1  0  0  3  0  0  0  0  0  0
  161.0900  211.5320  151.7520 N   0  0  0  0  0  0  0  0  0  0  0  0
  160.2960  208.8420  154.2360 C   0  0  0  0  0  2  0  0  0  0  0  0
  160.5970  206.3620  154.0490 C   0  0  0  0  0  2  0  0  0  0  0  0
  161.5420  208.1740  149.3850 N   0  0  0  0  0  0  0  0  0  0  0  0
  161.4950  206.9110  149.8940 C   0  0  0  0  0  0  0  0  0  0  0  0
  161.4570  210.5620  149.5880 C   0  0  0  0  0  0  0  0  0  0  0  0
  160.8520  210.2120  153.8270 C   0  0  1  0  0  3  0  0  0  0  0  0
  161.4290  205.2840  153.3740 C   0  0  0  0  0  2  0  0  0  0  0  0
  161.7430  213.2150  148.5740 C   0  0  0  0  0  3  0  0  0  0  0  0
  161.5670  210.7550  148.0970 C   0  0  0  0  0  2  0  0  0  0  0  0
  162.2020  204.8100  146.9140 C   0  0  0  0  0  0  0  0  0  0  0  0
  162.7140  204.8880  145.7670 O   0  0  0  0  0  0  0  0  0  0  0  0
  161.6010  205.7910  148.9940 N   0  0  0  0  0  0  0  0  0  0  0  0
  161.6940  203.6590  147.3300 O   0  0  0  0  0  0  0  0  0  0  0  0
  161.0970  204.6110  149.3620 N   0  0  0  0  0  0  0  0  0  0  0  0
  162.1640  205.9260  147.7550 C   0  0  0  0  0  0  0  0  0  0  0  0
  162.6530  207.0280  147.3760 O   0  0  0  0  0  0  0  0  0  0  0  0
  161.1450  203.5360  148.5330 C   0  0  0  0  0  0  0  0  0  0  0  0
  161.0180  201.0900  148.3710 C   0  0  0  0  0  1  0  0  0  0  0  0
  160.6140  202.3180  148.9550 O   0  0  0  0  0  0  0  0  0  0  0  0
  162.1560  210.5130  154.5520 C   0  0  0  0  0  2  0  0  0  0  0  0
  161.9880  210.3460  155.9270 O   0  0  0  0  0  1  0  0  0  0  0  0
  1  3  1  0  0  0  0
  1  4  1  0  0  0  0
  2  4  2  0  0  0  0
  2  5  1  0  0  0  0
  3 18  1  0  0  0  0
  4 10  1  0  0  0  0
  5 17  1  0  0  0  0
  6 20  1  0  0  0  0
  6 19  1  0  0  0  0
  7  2  1  0  0  0  0
  8  9  1  0  0  0  0
  9 11  1  0  0  0  0
 10 13  1  6  0  0  0
 10 12  1  0  0  0  0
 11  5  2  0  0  0  0
 14 15  1  0  0  0  0
 14  7  2  0  0  0  0
 15  1  2  0  0  0  0
 16  7  1  0  0  0  0
 16  9  2  0  0  0  0
 17 12  1  0  0  0  0
 17 31  1  1  0  0  0
 18 13  1  0  0  0  0
 19  8  2  0  0  0  0
 20 16  1  0  0  0  0
 21 24  1  0  0  0  0
 21 26  1  0  0  0  0
 22 21  2  0  0  0  0
 23 25  1  0  0  0  0
 23 15  1  0  0  0  0
 24 28  1  0  0  0  0
 26 23  1  0  0  0  0
 27 26  2  0  0  0  0
 28 30  1  0  0  0  0
 28 25  2  0  0  0  0
 29 30  1  0  0  0  0
 31 32  1  0  0  0  0
M  END
>  <MODEL>
5

>  <REMARK>
 VINA RESULT:      -7.9      2.084      6.844
  Name = 
  3 active torsions:
  status: ('A' for Active; 'I' for Inactive)
    1  A    between atoms: C_13  and  C_29
    2  A    between atoms: O_15  and  C_26
    3  A    between atoms: N_16  and  C_27
                            x       y       z     vdW  Elec       q    Type
                         _______ _______ _______ _____ _____    ______ ____

>  <TORSDO>
F 3

$$$$
=
 OpenBabel11062408203D

 32 37  0  0  1  0  0  0  0  0999 V2000
  161.5110  208.5690  149.7700 C   0  0  0  0  0  0  0  0  0  0  0  0
  161.1940  207.3390  151.8510 C   0  0  0  0  0  0  0  0  0  0  0  0
  161.5810  208.6060  148.2610 C   0  0  0  0  0  2  0  0  0  0  0  0
  161.3280  207.3440  150.4520 C   0  0  0  0  0  0  0  0  0  0  0  0
  160.9660  206.1420  152.5640 C   0  0  0  0  0  0  0  0  0  0  0  0
  161.6490  209.6350  156.1470 C   0  0  0  0  0  2  0  0  0  0  0  0
  161.2510  208.5570  152.5540 C   0  0  0  0  0  0  0  0  0  0  0  0
  160.7550  207.3280  156.0810 C   0  0  0  0  0  3  0  0  0  0  0  0
  160.9060  207.3400  154.6170 C   0  0  0  0  0  0  0  0  0  0  0  0
  161.3990  206.0260  149.7120 C   0  0  1  0  0  3  0  0  0  0  0  0
  160.8310  206.1780  153.9170 N   0  0  0  0  0  0  0  0  0  0  0  0
  160.5100  204.9810  150.3810 C   0  0  0  0  0  2  0  0  0  0  0  0
  161.0420  206.1720  148.2410 C   0  0  0  0  0  2  0  0  0  0  0  0
  161.4250  209.7210  151.8730 N   0  0  0  0  0  0  0  0  0  0  0  0
  161.5460  209.7690  150.5170 C   0  0  0  0  0  0  0  0  0  0  0  0
  161.1190  208.5600  153.9490 C   0  0  0  0  0  0  0  0  0  0  0  0
  160.8920  204.8140  151.8570 C   0  0  1  0  0  3  0  0  0  0  0  0
  161.9200  207.2540  147.6370 C   0  0  0  0  0  2  0  0  0  0  0  0
  161.0570  208.4140  156.7990 C   0  0  0  0  0  3  0  0  0  0  0  0
  161.0900  209.8450  154.7350 C   0  0  0  0  0  2  0  0  0  0  0  0
  161.1530  213.3520  149.6200 C   0  0  0  0  0  0  0  0  0  0  0  0
  160.5380  214.3870  149.9900 O   0  0  0  0  0  0  0  0  0  0  0  0
  161.6900  211.0500  149.8740 N   0  0  0  0  0  0  0  0  0  0  0  0
  161.9560  213.4050  148.5670 O   0  0  0  0  0  0  0  0  0  0  0  0
  162.4810  211.1560  148.8030 N   0  0  0  0  0  0  0  0  0  0  0  0
  160.9980  212.1460  150.3110 C   0  0  0  0  0  0  0  0  0  0  0  0
  160.2440  212.0830  151.3220 O   0  0  0  0  0  0  0  0  0  0  0  0
  162.6220  212.3360  148.1460 C   0  0  0  0  0  0  0  0  0  0  0  0
  163.0680  213.0790  145.8490 C   0  0  0  0  0  1  0  0  0  0  0  0
  163.4610  212.4090  147.0360 O   0  0  0  0  0  0  0  0  0  0  0  0
  162.2140  204.0720  152.0010 C   0  0  0  0  0  2  0  0  0  0  0  0
  162.0530  202.7350  151.6360 O   0  0  0  0  0  1  0  0  0  0  0  0
  1  4  2  0  0  0  0
  1 15  1  0  0  0  0
  2  7  2  0  0  0  0
  2  5  1  0  0  0  0
  3  1  1  0  0  0  0
  4  2  1  0  0  0  0
  5 11  2  0  0  0  0
  6 19  1  0  0  0  0
  7 16  1  0  0  0  0
  8 19  2  0  0  0  0
  9  8  1  0  0  0  0
 10 13  1  6  0  0  0
 10 12  1  0  0  0  0
 10  4  1  0  0  0  0
 11  9  1  0  0  0  0
 12 17  1  0  0  0  0
 14  7  1  0  0  0  0
 15 14  2  0  0  0  0
 16  9  2  0  0  0  0
 16 20  1  0  0  0  0
 17 31  1  6  0  0  0
 17  5  1  0  0  0  0
 18 13  1  0  0  0  0
 18  3  1  0  0  0  0
 20  6  1  0  0  0  0
 21 22  2  0  0  0  0
 21 26  1  0  0  0  0
 23 26  1  0  0  0  0
 23 15  1  0  0  0  0
 24 21  1  0  0  0  0
 25 23  1  0  0  0  0
 26 27  2  0  0  0  0
 28 24  1  0  0  0  0
 28 25  2  0  0  0  0
 29 30  1  0  0  0  0
 30 28  1  0  0  0  0
 32 31  1  0  0  0  0
M  END
>  <MODEL>
6

>  <REMARK>
 VINA RESULT:      -7.9      2.540      6.031
  Name = 
  3 active torsions:
  status: ('A' for Active; 'I' for Inactive)
    1  A    between atoms: C_13  and  C_29
    2  A    between atoms: O_15  and  C_26
    3  A    between atoms: N_16  and  C_27
                            x       y       z     vdW  Elec       q    Type
                         _______ _______ _______ _____ _____    ______ ____

>  <TORSDO>
F 3

$$$$
=
 OpenBabel11062408203D

 32 37  0  0  1  0  0  0  0  0999 V2000
  161.1900  204.7810  150.1780 C   0  0  0  0  0  0  0  0  0  0  0  0
  161.2240  206.9920  151.2030 C   0  0  0  0  0  0  0  0  0  0  0  0
  160.9990  203.2850  150.2800 C   0  0  0  0  0  2  0  0  0  0  0  0
  161.1140  205.5960  151.3300 C   0  0  0  0  0  0  0  0  0  0  0  0
  161.1080  207.8430  152.3240 C   0  0  0  0  0  0  0  0  0  0  0  0
  162.4430  210.9100  148.5400 C   0  0  0  0  0  2  0  0  0  0  0  0
  161.4170  207.5570  149.9280 C   0  0  0  0  0  0  0  0  0  0  0  0
  161.5240  211.2170  150.8160 C   0  0  0  0  0  3  0  0  0  0  0  0
  161.4190  209.7540  150.9430 C   0  0  0  0  0  0  0  0  0  0  0  0
  161.0400  204.9830  152.7120 C   0  0  1  0  0  3  0  0  0  0  0  0
  161.2110  209.1900  152.1610 N   0  0  0  0  0  0  0  0  0  0  0  0
  160.2680  205.8900  153.6660 C   0  0  0  0  0  2  0  0  0  0  0  0
  160.4360  203.5880  152.6900 C   0  0  0  0  0  2  0  0  0  0  0  0
  161.4840  206.7480  148.8370 N   0  0  0  0  0  0  0  0  0  0  0  0
  161.3680  205.3930  148.9160 C   0  0  0  0  0  0  0  0  0  0  0  0
  161.5280  208.9460  149.7950 C   0  0  0  0  0  0  0  0  0  0  0  0
  160.8980  207.2880  153.7080 C   0  0  1  0  0  3  0  0  0  0  0  0
  161.2090  202.7430  151.6920 C   0  0  0  0  0  2  0  0  0  0  0  0
  161.9580  211.7660  149.6790 C   0  0  0  0  0  3  0  0  0  0  0  0
  161.6500  209.6010  148.4430 C   0  0  0  0  0  2  0  0  0  0  0  0
  161.5430  204.4100  145.3390 C   0  0  0  0  0  0  0  0  0  0  0  0
  161.6630  204.9190  144.1930 O   0  0  0  0  0  0  0  0  0  0  0  0
  161.4140  204.6170  147.7030 N   0  0  0  0  0  0  0  0  0  0  0  0
  161.4170  203.0970  145.4640 O   0  0  0  0  0  0  0  0  0  0  0  0
  161.2830  203.2900  147.7740 N   0  0  0  0  0  0  0  0  0  0  0  0
  161.5430  205.2160  146.4800 C   0  0  0  0  0  0  0  0  0  0  0  0
  161.6720  206.4690  146.3770 O   0  0  0  0  0  0  0  0  0  0  0  0
  161.2880  202.5220  146.6550 C   0  0  0  0  0  0  0  0  0  0  0  0
  161.4060  200.4660  147.9920 C   0  0  0  0  0  1  0  0  0  0  0  0
  161.1550  201.1390  146.7690 O   0  0  0  0  0  0  0  0  0  0  0  0
  162.2150  207.2730  154.4710 C   0  0  0  0  0  2  0  0  0  0  0  0
  162.0330  207.7990  155.7500 O   0  0  0  0  0  1  0  0  0  0  0  0
  1  3  1  0  0  0  0
  1  4  1  0  0  0  0
  2  4  2  0  0  0  0
  2  5  1  0  0  0  0
  3 18  1  0  0  0  0
  4 10  1  0  0  0  0
  5 17  1  0  0  0  0
  6 19  1  0  0  0  0
  7  2  1  0  0  0  0
  8  9  1  0  0  0  0
  9 11  1  0  0  0  0
 10 13  1  6  0  0  0
 10 12  1  0  0  0  0
 11  5  2  0  0  0  0
 12 17  1  0  0  0  0
 14 15  1  0  0  0  0
 14  7  2  0  0  0  0
 15  1  2  0  0  0  0
 16  7  1  0  0  0  0
 16  9  2  0  0  0  0
 17 31  1  6  0  0  0
 18 13  1  0  0  0  0
 19  8  2  0  0  0  0
 20  6  1  0  0  0  0
 20 16  1  0  0  0  0
 21 24  1  0  0  0  0
 21 26  1  0  0  0  0
 22 21  2  0  0  0  0
 23 25  1  0  0  0  0
 23 15  1  0  0  0  0
 24 28  1  0  0  0  0
 26 23  1  0  0  0  0
 27 26  2  0  0  0  0
 28 30  1  0  0  0  0
 28 25  2  0  0  0  0
 30 29  1  0  0  0  0
 31 32  1  0  0  0  0
M  END
>  <MODEL>
7

>  <REMARK>
 VINA RESULT:      -7.7      2.174      6.571
  Name = 
  3 active torsions:
  status: ('A' for Active; 'I' for Inactive)
    1  A    between atoms: C_13  and  C_29
    2  A    between atoms: O_15  and  C_26
    3  A    between atoms: N_16  and  C_27
                            x       y       z     vdW  Elec       q    Type
                         _______ _______ _______ _____ _____    ______ ____

>  <TORSDO>
F 3

$$$$
=
 OpenBabel11062408203D

 32 37  0  0  1  0  0  0  0  0999 V2000
  161.2670  206.5950  151.1860 C   0  0  0  0  0  0  0  0  0  0  0  0
  161.2070  204.7780  149.5610 C   0  0  0  0  0  0  0  0  0  0  0  0
  161.3570  207.0800  152.6150 C   0  0  0  0  0  2  0  0  0  0  0  0
  161.2190  205.2110  150.8990 C   0  0  0  0  0  0  0  0  0  0  0  0
  161.2050  203.4050  149.2340 C   0  0  0  0  0  0  0  0  0  0  0  0
  160.6120  205.7620  144.8070 C   0  0  0  0  0  2  0  0  0  0  0  0
  161.2350  205.7320  148.5270 C   0  0  0  0  0  0  0  0  0  0  0  0
  161.2030  203.4670  145.5160 C   0  0  0  0  0  3  0  0  0  0  0  0
  161.2070  203.9280  146.9140 C   0  0  0  0  0  0  0  0  0  0  0  0
  161.0550  204.1930  152.0070 C   0  0  1  0  0  3  0  0  0  0  0  0
  161.2030  203.0230  147.9280 N   0  0  0  0  0  0  0  0  0  0  0  0
  161.7290  202.8750  151.6350 C   0  0  0  0  0  2  0  0  0  0  0  0
  161.5780  204.7050  153.3400 C   0  0  0  0  0  2  0  0  0  0  0  0
  161.2830  207.0550  148.8320 N   0  0  0  0  0  0  0  0  0  0  0  0
  161.3100  207.5150  150.1140 C   0  0  0  0  0  0  0  0  0  0  0  0
  161.2220  205.3070  147.1920 C   0  0  0  0  0  0  0  0  0  0  0  0
  161.1790  202.3460  150.3040 C   0  0  1  0  0  3  0  0  0  0  0  0
  160.9130  206.0380  153.6390 C   0  0  0  0  0  2  0  0  0  0  0  0
  160.9720  204.3280  144.5220 C   0  0  0  0  0  3  0  0  0  0  0  0
  161.3360  206.2870  146.0530 C   0  0  0  0  0  2  0  0  0  0  0  0
  160.9190  210.8980  151.5960 C   0  0  0  0  0  0  0  0  0  0  0  0
  160.4150  211.4700  152.5980 O   0  0  0  0  0  0  0  0  0  0  0  0
  161.3980  208.9340  150.3450 N   0  0  0  0  0  0  0  0  0  0  0  0
  161.5400  211.6170  150.6720 O   0  0  0  0  0  0  0  0  0  0  0  0
  162.0060  209.7050  149.4400 N   0  0  0  0  0  0  0  0  0  0  0  0
  160.8310  209.5110  151.4490 C   0  0  0  0  0  0  0  0  0  0  0  0
  160.2510  208.8120  152.3270 O   0  0  0  0  0  0  0  0  0  0  0  0
  162.0850  211.0510  149.6010 C   0  0  0  0  0  0  0  0  0  0  0  0
  162.0610  212.8580  147.9400 C   0  0  0  0  0  1  0  0  0  0  0  0
  162.7330  211.8220  148.6380 O   0  0  0  0  0  0  0  0  0  0  0  0
  159.7650  201.8060  150.4710 C   0  0  0  0  0  2  0  0  0  0  0  0
  159.2950  201.3150  149.2530 O   0  0  0  0  0  1  0  0  0  0  0  0
  1  3  1  0  0  0  0
  2  4  2  0  0  0  0
  3 18  1  0  0  0  0
  4  1  1  0  0  0  0
  4 10  1  0  0  0  0
  5  2  1  0  0  0  0
  5 17  1  0  0  0  0
  6 20  1  0  0  0  0
  7 14  2  0  0  0  0
  7  2  1  0  0  0  0
  8  9  1  0  0  0  0
  9 16  2  0  0  0  0
  9 11  1  0  0  0  0
 10 12  1  6  0  0  0
 10 13  1  0  0  0  0
 11  5  2  0  0  0  0
 13 18  1  0  0  0  0
 14 15  1  0  0  0  0
 15 23  1  0  0  0  0
 15  1  2  0  0  0  0
 16  7  1  0  0  0  0
 17 31  1  1  0  0  0
 17 12  1  0  0  0  0
 19  6  1  0  0  0  0
 19  8  2  0  0  0  0
 20 16  1  0  0  0  0
 21 22  2  0  0  0  0
 23 26  1  0  0  0  0
 24 21  1  0  0  0  0
 25 28  2  0  0  0  0
 25 23  1  0  0  0  0
 26 21  1  0  0  0  0
 26 27  2  0  0  0  0
 28 24  1  0  0  0  0
 29 30  1  0  0  0  0
 30 28  1  0  0  0  0
 32 31  1  0  0  0  0
M  END
>  <MODEL>
8

>  <REMARK>
 VINA RESULT:      -7.7      0.784      2.023
  Name = 
  3 active torsions:
  status: ('A' for Active; 'I' for Inactive)
    1  A    between atoms: C_13  and  C_29
    2  A    between atoms: O_15  and  C_26
    3  A    between atoms: N_16  and  C_27
                            x       y       z     vdW  Elec       q    Type
                         _______ _______ _______ _____ _____    ______ ____

>  <TORSDO>
F 3

$$$$
=
 OpenBabel11062408203D

 32 37  0  0  1  0  0  0  0  0999 V2000
  161.3320  207.0860  150.1140 C   0  0  0  0  0  0  0  0  0  0  0  0
  161.2140  208.5580  152.0540 C   0  0  0  0  0  0  0  0  0  0  0  0
  161.6000  206.8670  148.6430 C   0  0  0  0  0  2  0  0  0  0  0  0
  161.3960  208.3840  150.6710 C   0  0  0  0  0  0  0  0  0  0  0  0
  161.3130  209.8320  152.6540 C   0  0  0  0  0  0  0  0  0  0  0  0
  159.7390  206.8010  156.3750 C   0  0  0  0  0  2  0  0  0  0  0  0
  160.9630  207.4340  152.8640 C   0  0  0  0  0  0  0  0  0  0  0  0
  160.6950  209.0790  156.2430 C   0  0  0  0  0  3  0  0  0  0  0  0
  160.8750  208.8910  154.7940 C   0  0  0  0  0  0  0  0  0  0  0  0
  161.5320  209.6040  149.7850 C   0  0  1  0  0  3  0  0  0  0  0  0
  161.1410  209.9600  153.9980 N   0  0  0  0  0  0  0  0  0  0  0  0
  162.2810  210.7190  150.5100 C   0  0  0  0  0  2  0  0  0  0  0  0
  162.2050  209.2800  148.4600 C   0  0  0  0  0  2  0  0  0  0  0  0
  160.9100  206.1970  152.3020 N   0  0  0  0  0  0  0  0  0  0  0  0
  161.0940  205.9860  150.9690 C   0  0  0  0  0  0  0  0  0  0  0  0
  160.7800  207.6000  154.2430 C   0  0  0  0  0  0  0  0  0  0  0  0
  161.5830  211.0640  151.8320 C   0  0  1  0  0  3  0  0  0  0  0  0
  161.4510  208.1350  147.8040 C   0  0  0  0  0  2  0  0  0  0  0  0
  160.2070  208.0900  156.9960 C   0  0  0  0  0  3  0  0  0  0  0  0
  160.5930  206.4190  155.1600 C   0  0  0  0  0  2  0  0  0  0  0  0
  160.9960  202.2790  150.7600 C   0  0  0  0  0  0  0  0  0  0  0  0
  160.9300  201.2630  151.5010 O   0  0  0  0  0  0  0  0  0  0  0  0
  161.0580  204.6370  150.4640 N   0  0  0  0  0  0  0  0  0  0  0  0
  161.0700  202.1300  149.4450 O   0  0  0  0  0  0  0  0  0  0  0  0
  161.1390  204.4310  149.1480 N   0  0  0  0  0  0  0  0  0  0  0  0
  160.9890  203.5640  151.3100 C   0  0  0  0  0  0  0  0  0  0  0  0
  160.9080  203.7210  152.5610 O   0  0  0  0  0  0  0  0  0  0  0  0
  161.1410  203.1760  148.6300 C   0  0  0  0  0  0  0  0  0  0  0  0
  161.7690  204.0000  146.4040 C   0  0  0  0  0  1  0  0  0  0  0  0
  161.2200  203.0010  147.2490 O   0  0  0  0  0  0  0  0  0  0  0  0
  160.2870  211.8230  151.5860 C   0  0  0  0  0  2  0  0  0  0  0  0
  160.0590  212.7280  152.6230 O   0  0  0  0  0  1  0  0  0  0  0  0
  1  4  2  0  0  0  0
  1 15  1  0  0  0  0
  2  5  2  0  0  0  0
  2  7  1  0  0  0  0
  3  1  1  0  0  0  0
  4  2  1  0  0  0  0
  5 11  1  0  0  0  0
  6 19  1  0  0  0  0
  7 16  2  0  0  0  0
  8 19  2  0  0  0  0
  9  8  1  0  0  0  0
 10 13  1  6  0  0  0
 10 12  1  0  0  0  0
 10  4  1  0  0  0  0
 11  9  2  0  0  0  0
 12 17  1  0  0  0  0
 14  7  1  0  0  0  0
 15 14  2  0  0  0  0
 16  9  1  0  0  0  0
 16 20  1  0  0  0  0
 17 31  1  6  0  0  0
 17  5  1  0  0  0  0
 18 13  1  0  0  0  0
 18  3  1  0  0  0  0
 20  6  1  0  0  0  0
 21 26  1  0  0  0  0
 21 22  2  0  0  0  0
 23 15  1  0  0  0  0
 23 26  1  0  0  0  0
 24 21  1  0  0  0  0
 25 23  1  0  0  0  0
 26 27  2  0  0  0  0
 28 25  2  0  0  0  0
 28 24  1  0  0  0  0
 29 30  1  0  0  0  0
 30 28  1  0  0  0  0
 31 32  1  0  0  0  0
M  END
>  <MODEL>
9

>  <REMARK>
 VINA RESULT:      -7.4      2.102      8.154
  Name = 
  3 active torsions:
  status: ('A' for Active; 'I' for Inactive)
    1  A    between atoms: C_13  and  C_29
    2  A    between atoms: O_15  and  C_26
    3  A    between atoms: N_16  and  C_27
                            x       y       z     vdW  Elec       q    Type
                         _______ _______ _______ _____ _____    ______ ____

>  <TORSDO>
F 3

$$$$
