=
 OpenBabel11052421583D

 30 34  0  0  1  0  0  0  0  0999 V2000
  161.5110  207.4730  150.7200 C   0  0  0  0  0  3  0  0  0  0  0  0
  161.2980  208.4480  152.9400 C   0  0  0  0  0  0  0  0  0  0  0  0
  160.8000  203.6250  152.2750 C   0  0  0  0  0  3  0  0  0  0  0  0
  161.5010  206.3780  149.8520 C   0  0  0  0  0  0  0  0  0  0  0  0
  160.8210  202.5140  151.4320 C   0  0  0  0  0  3  0  0  0  0  0  0
  161.0660  208.2900  154.3080 C   0  0  0  0  0  3  0  0  0  0  0  0
  161.5400  209.7550  152.4240 N   0  0  0  0  0  1  0  0  0  0  0  0
  161.0300  204.9160  151.7700 C   0  0  0  0  0  0  0  0  0  0  0  0
  160.8200  207.0240  154.8400 C   0  0  0  0  0  3  0  0  0  0  0  0
  161.2850  207.3260  152.0910 C   0  0  0  0  0  0  0  0  0  0  0  0
  161.2720  205.0850  150.3790 C   0  0  0  0  0  0  0  0  0  0  0  0
  161.0770  202.6770  150.0710 C   0  0  0  0  0  3  0  0  0  0  0  0
  161.3040  203.9510  149.5510 C   0  0  0  0  0  3  0  0  0  0  0  0
  160.8060  205.9050  154.0050 C   0  0  0  0  0  3  0  0  0  0  0  0
  161.0370  206.0390  152.6250 C   0  0  0  0  0  0  0  0  0  0  0  0
  161.7180  206.6000  148.4380 N   0  0  0  0  0  0  0  0  0  0  0  0
  162.3600  205.4140  145.0690 C   0  0  0  0  0  3  0  0  0  0  0  0
  163.5560  204.8160  147.0130 O   0  0  0  0  0  0  0  0  0  0  0  0
  161.3300  205.6160  147.4270 C   0  0  1  0  0  3  0  0  0  0  0  0
  160.1420  206.0750  146.6930 N   0  0  0  0  0  0  0  0  0  0  0  0
  162.4860  205.2600  146.5220 C   0  0  0  0  0  0  0  0  0  0  0  0
  161.2210  205.8490  144.5390 C   0  0  0  0  0  3  0  0  0  0  0  0
  160.0750  206.1840  145.3980 C   0  0  0  0  0  3  0  0  0  0  0  0
  162.4340  207.7790  147.9670 C   0  0  0  0  0  2  0  0  0  0  0  0
  161.5580  209.0140  148.0920 C   0  0  0  0  0  2  0  0  0  0  0  0
  162.3500  210.1450  148.7180 C   0  0  0  0  0  2  0  0  0  0  0  0
  161.7770  211.4210  148.3220 N   0  0  0  0  0  2  0  0  0  0  0  0
  162.5510  213.0560  146.7220 C   0  0  0  0  0  2  0  0  0  0  0  0
  162.8830  212.2970  147.9900 C   0  0  0  0  0  3  0  0  0  0  0  0
  162.4160  213.7360  148.0650 C   0  0  0  0  0  2  0  0  0  0  0  0
  1 10  1  0  0  0  0
  2  6  1  0  0  0  0
  4 11  1  0  0  0  0
  4  1  2  0  0  0  0
  5  3  2  0  0  0  0
  6  9  2  0  0  0  0
  7  2  1  0  0  0  0
  8  3  1  0  0  0  0
  8 15  1  0  0  0  0
 10 15  1  0  0  0  0
 10  2  2  0  0  0  0
 11  8  2  0  0  0  0
 12  5  1  0  0  0  0
 13 12  2  0  0  0  0
 13 11  1  0  0  0  0
 14  9  1  0  0  0  0
 15 14  2  0  0  0  0
 16  4  1  0  0  0  0
 17 21  1  0  0  0  0
 19 16  1  1  0  0  0
 20 19  1  0  0  0  0
 21 18  2  0  0  0  0
 21 19  1  0  0  0  0
 22 17  2  0  0  0  0
 22 23  1  0  0  0  0
 23 20  2  0  0  0  0
 24 25  1  0  0  0  0
 24 16  1  0  0  0  0
 25 26  1  0  0  0  0
 27 26  1  0  0  0  0
 28 29  1  0  0  0  0
 28 30  1  0  0  0  0
 29 30  1  0  0  0  0
 29 27  1  0  0  0  0
M  END
>  <MODEL>
1

>  <REMARK>
 VINA RESULT:      -8.6      0.000      0.000
  Name = 
  7 active torsions:
  status: ('A' for Active; 'I' for Inactive)
    1  A    between atoms: C_4  and  N_13
    2  A    between atoms: N_7  and  C_15
    3  A    between atoms: N_7  and  C_16
    4  A    between atoms: C_8  and  N_13
    5  A    between atoms: N_13  and  C_27
    6  A    between atoms: C_16  and  C_30
    7  A    between atoms: C_27  and  C_30
                            x       y       z     vdW  Elec       q    Type
                         _______ _______ _______ _____ _____    ______ ____

>  <TORSDO>
F 7

$$$$
=
 OpenBabel11052421583D

 30 34  0  0  1  0  0  0  0  0999 V2000
  161.1130  204.2100  148.4130 C   0  0  0  0  0  3  0  0  0  0  0  0
  160.8540  201.8040  148.6710 C   0  0  0  0  0  0  0  0  0  0  0  0
  161.2150  204.7080  152.5930 C   0  0  0  0  0  3  0  0  0  0  0  0
  161.2640  205.4940  148.9440 C   0  0  0  0  0  0  0  0  0  0  0  0
  161.3290  205.9840  153.1440 C   0  0  0  0  0  3  0  0  0  0  0  0
  160.7480  200.6850  149.5010 C   0  0  0  0  0  3  0  0  0  0  0  0
  160.8170  201.6240  147.2570 N   0  0  0  0  0  1  0  0  0  0  0  0
  161.1850  204.5250  151.2000 C   0  0  0  0  0  0  0  0  0  0  0  0
  160.7890  200.8300  150.8880 C   0  0  0  0  0  3  0  0  0  0  0  0
  161.0020  203.0850  149.2340 C   0  0  0  0  0  0  0  0  0  0  0  0
  161.2880  205.6590  150.3490 C   0  0  0  0  0  0  0  0  0  0  0  0
  161.4100  207.0990  152.3100 C   0  0  0  0  0  3  0  0  0  0  0  0
  161.3850  206.9370  150.9250 C   0  0  0  0  0  3  0  0  0  0  0  0
  160.9350  202.0970  151.4540 C   0  0  0  0  0  3  0  0  0  0  0  0
  161.0430  203.2380  150.6400 C   0  0  0  0  0  0  0  0  0  0  0  0
  161.3980  206.6160  148.0390 N   0  0  0  0  0  0  0  0  0  0  0  0
  161.1450  204.7130  144.9600 C   0  0  0  0  0  3  0  0  0  0  0  0
  159.7980  206.5460  145.5840 O   0  0  0  0  0  0  0  0  0  0  0  0
  161.9310  206.4640  146.6840 C   0  0  1  0  0  3  0  0  0  0  0  0
  163.1600  205.6590  146.7030 N   0  0  0  0  0  0  0  0  0  0  0  0
  160.8870  205.9330  145.7310 C   0  0  0  0  0  0  0  0  0  0  0  0
  162.3070  204.0780  145.0820 C   0  0  0  0  0  3  0  0  0  0  0  0
  163.3470  204.5870  145.9900 C   0  0  0  0  0  3  0  0  0  0  0  0
  161.1040  207.9740  148.4820 C   0  0  0  0  0  2  0  0  0  0  0  0
  162.3050  208.8770  148.2510 C   0  0  0  0  0  2  0  0  0  0  0  0
  162.1570  210.1460  149.0670 C   0  0  0  0  0  2  0  0  0  0  0  0
  161.7200  211.2320  148.2060 N   0  0  0  0  0  2  0  0  0  0  0  0
  162.6960  212.9950  146.8750 C   0  0  0  0  0  2  0  0  0  0  0  0
  162.8010  212.1960  148.1580 C   0  0  0  0  0  3  0  0  0  0  0  0
  162.2200  213.5950  148.1780 C   0  0  0  0  0  2  0  0  0  0  0  0
  1  4  2  0  0  0  0
  1 10  1  0  0  0  0
  2 10  2  0  0  0  0
  2  6  1  0  0  0  0
  3  5  1  0  0  0  0
  4 11  1  0  0  0  0
  6  9  2  0  0  0  0
  7  2  1  0  0  0  0
  8  3  2  0  0  0  0
  9 14  1  0  0  0  0
 10 15  1  0  0  0  0
 11 13  2  0  0  0  0
 11  8  1  0  0  0  0
 12  5  2  0  0  0  0
 13 12  1  0  0  0  0
 15  8  1  0  0  0  0
 15 14  2  0  0  0  0
 16 24  1  0  0  0  0
 16  4  1  0  0  0  0
 17 22  2  0  0  0  0
 17 21  1  0  0  0  0
 18 21  2  0  0  0  0
 19 20  1  0  0  0  0
 19 16  1  1  0  0  0
 21 19  1  0  0  0  0
 22 23  1  0  0  0  0
 23 20  2  0  0  0  0
 25 24  1  0  0  0  0
 25 26  1  0  0  0  0
 27 26  1  0  0  0  0
 28 29  1  0  0  0  0
 28 30  1  0  0  0  0
 29 30  1  0  0  0  0
 29 27  1  0  0  0  0
M  END
>  <MODEL>
2

>  <REMARK>
 VINA RESULT:      -8.4      1.561      3.991
  Name = 
  7 active torsions:
  status: ('A' for Active; 'I' for Inactive)
    1  A    between atoms: C_4  and  N_13
    2  A    between atoms: N_7  and  C_15
    3  A    between atoms: N_7  and  C_16
    4  A    between atoms: C_8  and  N_13
    5  A    between atoms: N_13  and  C_27
    6  A    between atoms: C_16  and  C_30
    7  A    between atoms: C_27  and  C_30
                            x       y       z     vdW  Elec       q    Type
                         _______ _______ _______ _____ _____    ______ ____

>  <TORSDO>
F 7

$$$$
=
 OpenBabel11052421583D

 30 34  0  0  1  0  0  0  0  0999 V2000
  161.3370  205.5710  148.2300 C   0  0  0  0  0  3  0  0  0  0  0  0
  161.1690  204.9490  145.8830 C   0  0  0  0  0  0  0  0  0  0  0  0
  160.9690  201.5390  149.3870 C   0  0  0  0  0  3  0  0  0  0  0  0
  161.3680  205.2460  149.5890 C   0  0  0  0  0  0  0  0  0  0  0  0
  160.9630  201.1960  150.7390 C   0  0  0  0  0  3  0  0  0  0  0  0
  161.0300  203.9610  144.9050 C   0  0  0  0  0  3  0  0  0  0  0  0
  161.2910  206.3110  145.4800 N   0  0  0  0  0  1  0  0  0  0  0  0
  161.0970  202.8800  148.9850 C   0  0  0  0  0  0  0  0  0  0  0  0
  160.9160  202.6200  145.2690 C   0  0  0  0  0  3  0  0  0  0  0  0
  161.1940  204.5910  147.2440 C   0  0  0  0  0  0  0  0  0  0  0  0
  161.2340  203.8910  149.9750 C   0  0  0  0  0  0  0  0  0  0  0  0
  161.0780  202.1900  151.7110 C   0  0  0  0  0  3  0  0  0  0  0  0
  161.2080  203.5250  151.3310 C   0  0  0  0  0  3  0  0  0  0  0  0
  160.9390  202.2570  146.6170 C   0  0  0  0  0  3  0  0  0  0  0  0
  161.0770  203.2320  147.6190 C   0  0  0  0  0  0  0  0  0  0  0  0
  161.5440  206.3040  150.5600 N   0  0  0  0  0  0  0  0  0  0  0  0
  162.3640  209.8370  150.4340 C   0  0  0  0  0  3  0  0  0  0  0  0
  162.5890  208.2870  148.6700 O   0  0  0  0  0  0  0  0  0  0  0  0
  161.0000  207.6480  150.3540 C   0  0  1  0  0  3  0  0  0  0  0  0
  160.4100  208.1590  151.5990 N   0  0  0  0  0  0  0  0  0  0  0  0
  162.0290  208.5800  149.7580 C   0  0  0  0  0  0  0  0  0  0  0  0
  161.7520  210.1720  151.5660 C   0  0  0  0  0  3  0  0  0  0  0  0
  160.7330  209.2900  152.1560 C   0  0  0  0  0  3  0  0  0  0  0  0
  162.3670  206.1030  151.7460 C   0  0  0  0  0  2  0  0  0  0  0  0
  161.4990  205.7170  152.9320 C   0  0  0  0  0  2  0  0  0  0  0  0
  161.8590  206.5710  154.1320 C   0  0  0  0  0  2  0  0  0  0  0  0
  160.6470  206.9700  154.8280 N   0  0  0  0  0  2  0  0  0  0  0  0
  159.8820  208.5890  156.4490 C   0  0  0  0  0  2  0  0  0  0  0  0
  161.0570  207.7590  155.9730 C   0  0  0  0  0  3  0  0  0  0  0  0
  160.2610  207.3260  157.1860 C   0  0  0  0  0  2  0  0  0  0  0  0
  1  4  1  0  0  0  0
  2 10  1  0  0  0  0
  3  5  2  0  0  0  0
  4 11  2  0  0  0  0
  4 16  1  0  0  0  0
  5 12  1  0  0  0  0
  6  9  1  0  0  0  0
  6  2  2  0  0  0  0
  7  2  1  0  0  0  0
  8  3  1  0  0  0  0
  8 11  1  0  0  0  0
  9 14  2  0  0  0  0
 10 15  1  0  0  0  0
 10  1  2  0  0  0  0
 11 13  1  0  0  0  0
 13 12  2  0  0  0  0
 14 15  1  0  0  0  0
 15  8  2  0  0  0  0
 16 24  1  0  0  0  0
 17 22  2  0  0  0  0
 18 21  2  0  0  0  0
 19 16  1  1  0  0  0
 19 20  1  0  0  0  0
 20 23  2  0  0  0  0
 21 19  1  0  0  0  0
 21 17  1  0  0  0  0
 22 23  1  0  0  0  0
 24 25  1  0  0  0  0
 25 26  1  0  0  0  0
 26 27  1  0  0  0  0
 27 29  1  0  0  0  0
 28 30  1  0  0  0  0
 29 28  1  0  0  0  0
 29 30  1  0  0  0  0
M  END
>  <MODEL>
3

>  <REMARK>
 VINA RESULT:      -7.9      2.220      6.505
  Name = 
  7 active torsions:
  status: ('A' for Active; 'I' for Inactive)
    1  A    between atoms: C_4  and  N_13
    2  A    between atoms: N_7  and  C_15
    3  A    between atoms: N_7  and  C_16
    4  A    between atoms: C_8  and  N_13
    5  A    between atoms: N_13  and  C_27
    6  A    between atoms: C_16  and  C_30
    7  A    between atoms: C_27  and  C_30
                            x       y       z     vdW  Elec       q    Type
                         _______ _______ _______ _____ _____    ______ ____

>  <TORSDO>
F 7

$$$$
=
 OpenBabel11052421583D

 30 34  0  0  1  0  0  0  0  0999 V2000
  161.6470  207.7200  149.3380 C   0  0  0  0  0  3  0  0  0  0  0  0
  161.8760  209.9730  150.2290 C   0  0  0  0  0  0  0  0  0  0  0  0
  161.1590  206.1690  153.2220 C   0  0  0  0  0  3  0  0  0  0  0  0
  161.4510  206.3460  149.5040 C   0  0  0  0  0  0  0  0  0  0  0  0
  160.9970  204.7960  153.4120 C   0  0  0  0  0  3  0  0  0  0  0  0
  161.9020  210.8390  151.3250 C   0  0  0  0  0  3  0  0  0  0  0  0
  162.0440  210.5090  148.9180 N   0  0  0  0  0  1  0  0  0  0  0  0
  161.3170  206.7020  151.9310 C   0  0  0  0  0  0  0  0  0  0  0  0
  161.7330  210.3440  152.6190 C   0  0  0  0  0  3  0  0  0  0  0  0
  161.6790  208.5940  150.4280 C   0  0  0  0  0  0  0  0  0  0  0  0
  161.2970  205.8270  150.8110 C   0  0  0  0  0  0  0  0  0  0  0  0
  160.9960  203.9350  152.3150 C   0  0  0  0  0  3  0  0  0  0  0  0
  161.1490  204.4470  151.0270 C   0  0  0  0  0  3  0  0  0  0  0  0
  161.5380  208.9770  152.8240 C   0  0  0  0  0  3  0  0  0  0  0  0
  161.5080  208.0860  151.7370 C   0  0  0  0  0  0  0  0  0  0  0  0
  161.4030  205.4970  148.3320 N   0  0  0  0  0  0  0  0  0  0  0  0
  161.2000  205.0890  144.7320 C   0  0  0  0  0  3  0  0  0  0  0  0
  159.9010  206.5550  146.0480 O   0  0  0  0  0  0  0  0  0  0  0  0
  161.9830  205.9040  147.0520 C   0  0  1  0  0  3  0  0  0  0  0  0
  163.1780  205.1030  146.7520 N   0  0  0  0  0  0  0  0  0  0  0  0
  160.9590  205.8810  145.9430 C   0  0  0  0  0  0  0  0  0  0  0  0
  162.3300  204.4020  144.5970 C   0  0  0  0  0  3  0  0  0  0  0  0
  163.3510  204.4240  145.6550 C   0  0  0  0  0  3  0  0  0  0  0  0
  160.6750  204.2340  148.3530 C   0  0  0  0  0  2  0  0  0  0  0  0
  161.6320  203.0700  148.1560 C   0  0  0  0  0  2  0  0  0  0  0  0
  160.9740  201.7820  148.6100 C   0  0  0  0  0  2  0  0  0  0  0  0
  160.1470  201.2520  147.5390 N   0  0  0  0  0  2  0  0  0  0  0  0
  160.5650  200.2230  145.3940 C   0  0  0  0  0  2  0  0  0  0  0  0
  160.9110  201.3760  146.3130 C   0  0  0  0  0  3  0  0  0  0  0  0
  159.9600  201.5870  145.1540 C   0  0  0  0  0  2  0  0  0  0  0  0
  1  4  2  0  0  0  0
  1 10  1  0  0  0  0
  2 10  2  0  0  0  0
  2  6  1  0  0  0  0
  3  5  1  0  0  0  0
  4 11  1  0  0  0  0
  6  9  2  0  0  0  0
  7  2  1  0  0  0  0
  8  3  2  0  0  0  0
  9 14  1  0  0  0  0
 10 15  1  0  0  0  0
 11 13  2  0  0  0  0
 11  8  1  0  0  0  0
 12  5  2  0  0  0  0
 13 12  1  0  0  0  0
 15  8  1  0  0  0  0
 15 14  2  0  0  0  0
 16 24  1  0  0  0  0
 16  4  1  0  0  0  0
 17 21  1  0  0  0  0
 19 16  1  1  0  0  0
 20 19  1  0  0  0  0
 21 18  2  0  0  0  0
 21 19  1  0  0  0  0
 22 17  2  0  0  0  0
 22 23  1  0  0  0  0
 23 20  2  0  0  0  0
 25 24  1  0  0  0  0
 25 26  1  0  0  0  0
 27 26  1  0  0  0  0
 28 29  1  0  0  0  0
 29 27  1  0  0  0  0
 30 28  1  0  0  0  0
 30 29  1  0  0  0  0
M  END
>  <MODEL>
4

>  <REMARK>
 VINA RESULT:      -7.8      2.246      5.318
  Name = 
  7 active torsions:
  status: ('A' for Active; 'I' for Inactive)
    1  A    between atoms: C_4  and  N_13
    2  A    between atoms: N_7  and  C_15
    3  A    between atoms: N_7  and  C_16
    4  A    between atoms: C_8  and  N_13
    5  A    between atoms: N_13  and  C_27
    6  A    between atoms: C_16  and  C_30
    7  A    between atoms: C_27  and  C_30
                            x       y       z     vdW  Elec       q    Type
                         _______ _______ _______ _____ _____    ______ ____

>  <TORSDO>
F 7

$$$$
=
 OpenBabel11052421583D

 30 34  0  0  1  0  0  0  0  0999 V2000
  161.1780  206.2700  151.2120 C   0  0  0  0  0  3  0  0  0  0  0  0
  161.0910  206.5350  153.6290 C   0  0  0  0  0  0  0  0  0  0  0  0
  161.9380  210.3830  150.7270 C   0  0  0  0  0  3  0  0  0  0  0  0
  161.3460  206.7850  149.9230 C   0  0  0  0  0  0  0  0  0  0  0  0
  162.0740  210.9240  149.4480 C   0  0  0  0  0  3  0  0  0  0  0  0
  161.1820  207.3560  154.7560 C   0  0  0  0  0  3  0  0  0  0  0  0
  160.8320  205.1440  153.8050 N   0  0  0  0  0  1  0  0  0  0  0  0
  161.6900  209.0110  150.9050 C   0  0  0  0  0  0  0  0  0  0  0  0
  161.4410  208.7200  154.6150 C   0  0  0  0  0  3  0  0  0  0  0  0
  161.2620  207.0830  152.3450 C   0  0  0  0  0  0  0  0  0  0  0  0
  161.5920  208.1690  149.7630 C   0  0  0  0  0  0  0  0  0  0  0  0
  161.9580  210.1020  148.3280 C   0  0  0  0  0  3  0  0  0  0  0  0
  161.7150  208.7380  148.4850 C   0  0  0  0  0  3  0  0  0  0  0  0
  161.6120  209.2710  153.3440 C   0  0  0  0  0  3  0  0  0  0  0  0
  161.5250  208.4650  152.1960 C   0  0  0  0  0  0  0  0  0  0  0  0
  161.2720  205.8850  148.7920 N   0  0  0  0  0  0  0  0  0  0  0  0
  161.3300  205.0780  145.2540 C   0  0  0  0  0  3  0  0  0  0  0  0
  159.8540  206.5780  146.3210 O   0  0  0  0  0  0  0  0  0  0  0  0
  161.9060  206.1930  147.5090 C   0  0  1  0  0  3  0  0  0  0  0  0
  163.1680  205.4540  147.3690 N   0  0  0  0  0  0  0  0  0  0  0  0
  160.9590  205.9760  146.3530 C   0  0  0  0  0  0  0  0  0  0  0  0
  162.5100  204.4650  145.2610 C   0  0  0  0  0  3  0  0  0  0  0  0
  163.4570  204.6760  146.3670 C   0  0  0  0  0  3  0  0  0  0  0  0
  160.4660  204.6720  148.8520 C   0  0  0  0  0  2  0  0  0  0  0  0
  161.3290  203.4830  149.2400 C   0  0  0  0  0  2  0  0  0  0  0  0
  160.4560  202.3660  149.7750 C   0  0  0  0  0  2  0  0  0  0  0  0
  160.1130  201.4550  148.6960 N   0  0  0  0  0  2  0  0  0  0  0  0
  161.2070  200.2020  146.9450 C   0  0  0  0  0  2  0  0  0  0  0  0
  161.2120  201.4840  147.7510 C   0  0  0  0  0  3  0  0  0  0  0  0
  160.6570  201.4740  146.3420 C   0  0  0  0  0  2  0  0  0  0  0  0
  1 10  1  0  0  0  0
  2  7  1  0  0  0  0
  2  6  1  0  0  0  0
  3  8  1  0  0  0  0
  4  1  2  0  0  0  0
  5  3  2  0  0  0  0
  8 15  1  0  0  0  0
  9  6  2  0  0  0  0
 10  2  2  0  0  0  0
 11  4  1  0  0  0  0
 11  8  2  0  0  0  0
 12 13  2  0  0  0  0
 12  5  1  0  0  0  0
 13 11  1  0  0  0  0
 14  9  1  0  0  0  0
 15 10  1  0  0  0  0
 15 14  2  0  0  0  0
 16 24  1  0  0  0  0
 16  4  1  0  0  0  0
 17 22  2  0  0  0  0
 17 21  1  0  0  0  0
 18 21  2  0  0  0  0
 19 16  1  1  0  0  0
 20 19  1  0  0  0  0
 21 19  1  0  0  0  0
 22 23  1  0  0  0  0
 23 20  2  0  0  0  0
 24 25  1  0  0  0  0
 25 26  1  0  0  0  0
 27 26  1  0  0  0  0
 28 29  1  0  0  0  0
 29 27  1  0  0  0  0
 30 28  1  0  0  0  0
 30 29  1  0  0  0  0
M  END
>  <MODEL>
5

>  <REMARK>
 VINA RESULT:      -7.6      2.110      5.769
  Name = 
  7 active torsions:
  status: ('A' for Active; 'I' for Inactive)
    1  A    between atoms: C_4  and  N_13
    2  A    between atoms: N_7  and  C_15
    3  A    between atoms: N_7  and  C_16
    4  A    between atoms: C_8  and  N_13
    5  A    between atoms: N_13  and  C_27
    6  A    between atoms: C_16  and  C_30
    7  A    between atoms: C_27  and  C_30
                            x       y       z     vdW  Elec       q    Type
                         _______ _______ _______ _____ _____    ______ ____

>  <TORSDO>
F 7

$$$$
=
 OpenBabel11052421583D

 30 34  0  0  1  0  0  0  0  0999 V2000
  160.8920  206.7090  152.2780 C   0  0  0  0  0  3  0  0  0  0  0  0
  160.8430  204.5480  151.1590 C   0  0  0  0  0  0  0  0  0  0  0  0
  161.9650  208.6150  148.6800 C   0  0  0  0  0  3  0  0  0  0  0  0
  161.0810  208.0940  152.2700 C   0  0  0  0  0  0  0  0  0  0  0  0
  162.1920  209.9920  148.6570 C   0  0  0  0  0  3  0  0  0  0  0  0
  160.9920  203.7900  149.9960 C   0  0  0  0  0  3  0  0  0  0  0  0
  160.4810  203.8920  152.3720 N   0  0  0  0  0  1  0  0  0  0  0  0
  161.6000  207.9660  149.8720 C   0  0  0  0  0  0  0  0  0  0  0  0
  161.3390  204.4060  148.7930 C   0  0  0  0  0  3  0  0  0  0  0  0
  161.0430  205.9410  151.1210 C   0  0  0  0  0  0  0  0  0  0  0  0
  161.4510  208.7300  151.0620 C   0  0  0  0  0  0  0  0  0  0  0  0
  162.0650  210.7390  149.8280 C   0  0  0  0  0  3  0  0  0  0  0  0
  161.7010  210.1120  151.0200 C   0  0  0  0  0  3  0  0  0  0  0  0
  161.5390  205.7860  148.7460 C   0  0  0  0  0  3  0  0  0  0  0  0
  161.3950  206.5700  149.9040 C   0  0  0  0  0  0  0  0  0  0  0  0
  160.8840  208.8370  153.4970 N   0  0  0  0  0  0  0  0  0  0  0  0
  161.2720  208.9410  157.1030 C   0  0  0  0  0  3  0  0  0  0  0  0
  160.7620  207.0360  155.8070 O   0  0  0  0  0  0  0  0  0  0  0  0
  161.8530  208.7990  154.5930 C   0  0  1  0  0  3  0  0  0  0  0  0
  162.4290  210.1320  154.8160 N   0  0  0  0  0  0  0  0  0  0  0  0
  161.2580  208.1930  155.8420 C   0  0  0  0  0  0  0  0  0  0  0  0
  161.8250  210.1490  157.1590 C   0  0  0  0  0  3  0  0  0  0  0  0
  162.4270  210.7520  155.9600 C   0  0  0  0  0  3  0  0  0  0  0  0
  159.6510  209.5770  153.7340 C   0  0  0  0  0  2  0  0  0  0  0  0
  159.8450  211.0470  153.4020 C   0  0  0  0  0  2  0  0  0  0  0  0
  158.4970  211.7340  153.3040 C   0  0  0  0  0  2  0  0  0  0  0  0
  158.3820  212.4020  152.0180 N   0  0  0  0  0  2  0  0  0  0  0  0
  159.7340  213.3890  150.2780 C   0  0  0  0  0  2  0  0  0  0  0  0
  159.6650  213.0190  151.7450 C   0  0  0  0  0  3  0  0  0  0  0  0
  159.4440  214.4530  151.3110 C   0  0  0  0  0  2  0  0  0  0  0  0
  2  7  1  0  0  0  0
  3  8  1  0  0  0  0
  4  1  1  0  0  0  0
  4 16  1  0  0  0  0
  5  3  2  0  0  0  0
  5 12  1  0  0  0  0
  6  2  2  0  0  0  0
  8 15  2  0  0  0  0
  8 11  1  0  0  0  0
  9  6  1  0  0  0  0
 10  2  1  0  0  0  0
 10  1  2  0  0  0  0
 11  4  2  0  0  0  0
 12 13  2  0  0  0  0
 13 11  1  0  0  0  0
 14  9  2  0  0  0  0
 14 15  1  0  0  0  0
 15 10  1  0  0  0  0
 16 24  1  0  0  0  0
 17 22  2  0  0  0  0
 18 21  2  0  0  0  0
 19 16  1  6  0  0  0
 19 20  1  0  0  0  0
 19 21  1  0  0  0  0
 20 23  2  0  0  0  0
 21 17  1  0  0  0  0
 23 22  1  0  0  0  0
 25 24  1  0  0  0  0
 26 25  1  0  0  0  0
 27 26  1  0  0  0  0
 28 30  1  0  0  0  0
 28 29  1  0  0  0  0
 29 27  1  0  0  0  0
 30 29  1  0  0  0  0
M  END
>  <MODEL>
6

>  <REMARK>
 VINA RESULT:      -7.6      3.091      7.019
  Name = 
  7 active torsions:
  status: ('A' for Active; 'I' for Inactive)
    1  A    between atoms: C_4  and  N_13
    2  A    between atoms: N_7  and  C_15
    3  A    between atoms: N_7  and  C_16
    4  A    between atoms: C_8  and  N_13
    5  A    between atoms: N_13  and  C_27
    6  A    between atoms: C_16  and  C_30
    7  A    between atoms: C_27  and  C_30
                            x       y       z     vdW  Elec       q    Type
                         _______ _______ _______ _____ _____    ______ ____

>  <TORSDO>
F 7

$$$$
=
 OpenBabel11052421583D

 30 34  0  0  1  0  0  0  0  0999 V2000
  160.9170  206.7830  152.2930 C   0  0  0  0  0  3  0  0  0  0  0  0
  160.9110  204.6330  151.1530 C   0  0  0  0  0  0  0  0  0  0  0  0
  161.9650  208.7450  148.7180 C   0  0  0  0  0  3  0  0  0  0  0  0
  161.0810  208.1710  152.3000 C   0  0  0  0  0  0  0  0  0  0  0  0
  162.1680  210.1250  148.7110 C   0  0  0  0  0  3  0  0  0  0  0  0
  161.0770  203.8890  149.9820 C   0  0  0  0  0  3  0  0  0  0  0  0
  160.5570  203.9580  152.3590 N   0  0  0  0  0  1  0  0  0  0  0  0
  161.6090  208.0770  149.9030 C   0  0  0  0  0  0  0  0  0  0  0  0
  161.4160  204.5230  148.7870 C   0  0  0  0  0  3  0  0  0  0  0  0
  161.0850  206.0290  151.1290 C   0  0  0  0  0  0  0  0  0  0  0  0
  161.4420  208.8260  151.1000 C   0  0  0  0  0  0  0  0  0  0  0  0
  162.0230  210.8580  149.8880 C   0  0  0  0  0  3  0  0  0  0  0  0
  161.6680  210.2120  151.0720 C   0  0  0  0  0  3  0  0  0  0  0  0
  161.5910  205.9080  148.7550 C   0  0  0  0  0  3  0  0  0  0  0  0
  161.4300  206.6770  149.9200 C   0  0  0  0  0  0  0  0  0  0  0  0
  160.8680  208.8970  153.5340 N   0  0  0  0  0  0  0  0  0  0  0  0
  161.3150  209.0950  157.1300 C   0  0  0  0  0  3  0  0  0  0  0  0
  160.8230  207.1500  155.8880 O   0  0  0  0  0  0  0  0  0  0  0  0
  161.8560  208.9050  154.6140 C   0  0  1  0  0  3  0  0  0  0  0  0
  162.4090  210.2540  154.7950 N   0  0  0  0  0  0  0  0  0  0  0  0
  161.2950  208.3170  155.8870 C   0  0  0  0  0  0  0  0  0  0  0  0
  161.8440  210.3150  157.1470 C   0  0  0  0  0  3  0  0  0  0  0  0
  162.4140  210.9010  155.9240 C   0  0  0  0  0  3  0  0  0  0  0  0
  159.6020  209.5720  153.7960 C   0  0  0  0  0  2  0  0  0  0  0  0
  159.7090  211.0480  153.4510 C   0  0  0  0  0  2  0  0  0  0  0  0
  158.9690  211.8730  154.4850 C   0  0  0  0  0  2  0  0  0  0  0  0
  158.0020  211.0360  155.1760 N   0  0  0  0  0  2  0  0  0  0  0  0
  155.6400  210.5400  155.2480 C   0  0  0  0  0  2  0  0  0  0  0  0
  156.6880  211.5660  154.8690 C   0  0  0  0  0  3  0  0  0  0  0  0
  155.9020  211.7210  156.1550 C   0  0  0  0  0  2  0  0  0  0  0  0
  1  4  1  0  0  0  0
  2  7  1  0  0  0  0
  3  8  1  0  0  0  0
  4 16  1  0  0  0  0
  5  3  2  0  0  0  0
  5 12  1  0  0  0  0
  6  2  2  0  0  0  0
  8 15  2  0  0  0  0
  8 11  1  0  0  0  0
  9  6  1  0  0  0  0
 10  2  1  0  0  0  0
 10  1  2  0  0  0  0
 11  4  2  0  0  0  0
 12 13  2  0  0  0  0
 13 11  1  0  0  0  0
 14  9  2  0  0  0  0
 14 15  1  0  0  0  0
 15 10  1  0  0  0  0
 16 24  1  0  0  0  0
 17 22  2  0  0  0  0
 19 16  1  6  0  0  0
 19 20  1  0  0  0  0
 19 21  1  0  0  0  0
 20 23  2  0  0  0  0
 21 18  2  0  0  0  0
 21 17  1  0  0  0  0
 23 22  1  0  0  0  0
 25 24  1  0  0  0  0
 25 26  1  0  0  0  0
 26 27  1  0  0  0  0
 28 30  1  0  0  0  0
 29 27  1  0  0  0  0
 29 28  1  0  0  0  0
 29 30  1  0  0  0  0
M  END
>  <MODEL>
7

>  <REMARK>
 VINA RESULT:      -7.6      3.357      7.739
  Name = 
  7 active torsions:
  status: ('A' for Active; 'I' for Inactive)
    1  A    between atoms: C_4  and  N_13
    2  A    between atoms: N_7  and  C_15
    3  A    between atoms: N_7  and  C_16
    4  A    between atoms: C_8  and  N_13
    5  A    between atoms: N_13  and  C_27
    6  A    between atoms: C_16  and  C_30
    7  A    between atoms: C_27  and  C_30
                            x       y       z     vdW  Elec       q    Type
                         _______ _______ _______ _____ _____    ______ ____

>  <TORSDO>
F 7

$$$$
=
 OpenBabel11052421583D

 30 34  0  0  1  0  0  0  0  0999 V2000
  161.1850  204.9940  150.2190 C   0  0  0  0  0  3  0  0  0  0  0  0
  160.6690  202.7340  150.9580 C   0  0  0  0  0  0  0  0  0  0  0  0
  161.7640  203.6370  146.2750 C   0  0  0  0  0  3  0  0  0  0  0  0
  161.5300  205.9140  149.2250 C   0  0  0  0  0  0  0  0  0  0  0  0
  162.1430  204.5330  145.2750 C   0  0  0  0  0  3  0  0  0  0  0  0
  160.5030  201.3780  150.6650 C   0  0  0  0  0  3  0  0  0  0  0  0
  160.4720  203.1820  152.2970 N   0  0  0  0  0  1  0  0  0  0  0  0
  161.5610  204.0770  147.5950 C   0  0  0  0  0  0  0  0  0  0  0  0
  160.6820  200.9120  149.3620 C   0  0  0  0  0  3  0  0  0  0  0  0
  161.0200  203.6360  149.9370 C   0  0  0  0  0  0  0  0  0  0  0  0
  161.7330  205.4540  147.9030 C   0  0  0  0  0  0  0  0  0  0  0  0
  162.3310  205.8810  145.5800 C   0  0  0  0  0  3  0  0  0  0  0  0
  162.1310  206.3350  146.8830 C   0  0  0  0  0  3  0  0  0  0  0  0
  161.0300  201.8010  148.3430 C   0  0  0  0  0  3  0  0  0  0  0  0
  161.2040  203.1690  148.6140 C   0  0  0  0  0  0  0  0  0  0  0  0
  161.6610  207.3120  149.5760 N   0  0  0  0  0  0  0  0  0  0  0  0
  161.9570  206.2840  153.0440 C   0  0  0  0  0  3  0  0  0  0  0  0
  163.5330  205.8960  151.3320 O   0  0  0  0  0  0  0  0  0  0  0  0
  162.0560  207.7440  150.9180 C   0  0  1  0  0  3  0  0  0  0  0  0
  160.9590  208.4770  151.5660 N   0  0  0  0  0  0  0  0  0  0  0  0
  162.5680  206.5890  151.7470 C   0  0  0  0  0  0  0  0  0  0  0  0
  160.9600  207.0320  153.5070 C   0  0  0  0  0  3  0  0  0  0  0  0
  160.4560  208.1730  152.7270 C   0  0  0  0  0  3  0  0  0  0  0  0
  161.3000  208.3600  148.6290 C   0  0  0  0  0  2  0  0  0  0  0  0
  162.3460  209.4620  148.6360 C   0  0  0  0  0  2  0  0  0  0  0  0
  161.6680  210.8140  148.7320 C   0  0  0  0  0  2  0  0  0  0  0  0
  162.5910  211.8540  148.3110 N   0  0  0  0  0  2  0  0  0  0  0  0
  162.6820  214.1560  147.5850 C   0  0  0  0  0  2  0  0  0  0  0  0
  161.7890  212.9530  147.8070 C   0  0  0  0  0  3  0  0  0  0  0  0
  162.2540  213.3070  146.4100 C   0  0  0  0  0  2  0  0  0  0  0  0
  2  7  1  0  0  0  0
  3  8  1  0  0  0  0
  4 16  1  0  0  0  0
  4  1  2  0  0  0  0
  5 12  1  0  0  0  0
  5  3  2  0  0  0  0
  6  2  1  0  0  0  0
  8 11  2  0  0  0  0
  8 15  1  0  0  0  0
  9  6  2  0  0  0  0
 10  1  1  0  0  0  0
 10  2  2  0  0  0  0
 11  4  1  0  0  0  0
 12 13  2  0  0  0  0
 13 11  1  0  0  0  0
 14 15  2  0  0  0  0
 14  9  1  0  0  0  0
 15 10  1  0  0  0  0
 17 22  2  0  0  0  0
 18 21  2  0  0  0  0
 19 16  1  6  0  0  0
 19 20  1  0  0  0  0
 19 21  1  0  0  0  0
 20 23  2  0  0  0  0
 21 17  1  0  0  0  0
 23 22  1  0  0  0  0
 24 25  1  0  0  0  0
 24 16  1  0  0  0  0
 25 26  1  0  0  0  0
 27 26  1  0  0  0  0
 28 29  1  0  0  0  0
 29 27  1  0  0  0  0
 30 28  1  0  0  0  0
 30 29  1  0  0  0  0
M  END
>  <MODEL>
8

>  <REMARK>
 VINA RESULT:      -7.5      1.679      5.078
  Name = 
  7 active torsions:
  status: ('A' for Active; 'I' for Inactive)
    1  A    between atoms: C_4  and  N_13
    2  A    between atoms: N_7  and  C_15
    3  A    between atoms: N_7  and  C_16
    4  A    between atoms: C_8  and  N_13
    5  A    between atoms: N_13  and  C_27
    6  A    between atoms: C_16  and  C_30
    7  A    between atoms: C_27  and  C_30
                            x       y       z     vdW  Elec       q    Type
                         _______ _______ _______ _____ _____    ______ ____

>  <TORSDO>
F 7

$$$$
=
 OpenBabel11052421583D

 30 34  0  0  1  0  0  0  0  0999 V2000
  161.5980  209.5120  151.2050 C   0  0  0  0  0  3  0  0  0  0  0  0
  162.0140  209.1060  148.8410 C   0  0  0  0  0  0  0  0  0  0  0  0
  161.3290  205.3730  151.9300 C   0  0  0  0  0  3  0  0  0  0  0  0
  161.3520  209.0620  152.5050 C   0  0  0  0  0  0  0  0  0  0  0  0
  161.0490  204.9030  153.2140 C   0  0  0  0  0  3  0  0  0  0  0  0
  162.1830  208.2090  147.7840 C   0  0  0  0  0  3  0  0  0  0  0  0
  162.1050  210.5060  148.5840 N   0  0  0  0  0  1  0  0  0  0  0  0
  161.4280  206.7510  151.6740 C   0  0  0  0  0  0  0  0  0  0  0  0
  162.1060  206.8340  148.0070 C   0  0  0  0  0  3  0  0  0  0  0  0
  161.7640  208.6230  150.1400 C   0  0  0  0  0  0  0  0  0  0  0  0
  161.2520  207.6710  152.7440 C   0  0  0  0  0  0  0  0  0  0  0  0
  160.8580  205.8060  154.2600 C   0  0  0  0  0  3  0  0  0  0  0  0
  160.9550  207.1770  154.0250 C   0  0  0  0  0  3  0  0  0  0  0  0
  161.8580  206.3470  149.2920 C   0  0  0  0  0  3  0  0  0  0  0  0
  161.6840  207.2300  150.3710 C   0  0  0  0  0  0  0  0  0  0  0  0
  161.2130  210.0330  153.5700 N   0  0  0  0  0  0  0  0  0  0  0  0
  160.6160  210.9560  157.0280 C   0  0  0  0  0  3  0  0  0  0  0  0
  159.2530  209.5630  155.6980 O   0  0  0  0  0  0  0  0  0  0  0  0
  161.5340  209.7130  154.9620 C   0  0  1  0  0  3  0  0  0  0  0  0
  162.8060  210.3360  155.3520 N   0  0  0  0  0  0  0  0  0  0  0  0
  160.3940  210.0580  155.8900 C   0  0  0  0  0  0  0  0  0  0  0  0
  161.8260  211.4570  157.2590 C   0  0  0  0  0  3  0  0  0  0  0  0
  162.9560  211.1190  156.3800 C   0  0  0  0  0  3  0  0  0  0  0  0
  160.6440  211.3500  153.3120 C   0  0  0  0  0  2  0  0  0  0  0  0
  159.2080  211.2190  152.8320 C   0  0  0  0  0  2  0  0  0  0  0  0
  158.7020  212.5660  152.3540 C   0  0  0  0  0  2  0  0  0  0  0  0
  157.7500  213.0990  153.3140 N   0  0  0  0  0  2  0  0  0  0  0  0
  157.1850  212.4540  155.5720 C   0  0  0  0  0  2  0  0  0  0  0  0
  157.3110  211.9880  154.1360 C   0  0  0  0  0  3  0  0  0  0  0  0
  155.9480  212.3070  154.7150 C   0  0  0  0  0  2  0  0  0  0  0  0
  1  4  1  0  0  0  0
  2 10  1  0  0  0  0
  3  5  2  0  0  0  0
  4 11  2  0  0  0  0
  4 16  1  0  0  0  0
  5 12  1  0  0  0  0
  6  9  1  0  0  0  0
  6  2  2  0  0  0  0
  7  2  1  0  0  0  0
  8  3  1  0  0  0  0
  8 11  1  0  0  0  0
  9 14  2  0  0  0  0
 10 15  1  0  0  0  0
 10  1  2  0  0  0  0
 11 13  1  0  0  0  0
 13 12  2  0  0  0  0
 14 15  1  0  0  0  0
 15  8  2  0  0  0  0
 17 22  2  0  0  0  0
 18 21  2  0  0  0  0
 19 16  1  6  0  0  0
 19 20  1  0  0  0  0
 19 21  1  0  0  0  0
 20 23  2  0  0  0  0
 21 17  1  0  0  0  0
 23 22  1  0  0  0  0
 24 16  1  0  0  0  0
 25 24  1  0  0  0  0
 26 25  1  0  0  0  0
 26 27  1  0  0  0  0
 27 29  1  0  0  0  0
 29 30  1  0  0  0  0
 29 28  1  0  0  0  0
 30 28  1  0  0  0  0
M  END
>  <MODEL>
9

>  <REMARK>
 VINA RESULT:      -6.9      3.545      7.421
  Name = 
  7 active torsions:
  status: ('A' for Active; 'I' for Inactive)
    1  A    between atoms: C_4  and  N_13
    2  A    between atoms: N_7  and  C_15
    3  A    between atoms: N_7  and  C_16
    4  A    between atoms: C_8  and  N_13
    5  A    between atoms: N_13  and  C_27
    6  A    between atoms: C_16  and  C_30
    7  A    between atoms: C_27  and  C_30
                            x       y       z     vdW  Elec       q    Type
                         _______ _______ _______ _____ _____    ______ ____

>  <TORSDO>
F 7

$$$$
