=
 OpenBabel11052422153D

 25 28  0  0  0  0  0  0  0  0999 V2000
  161.1690  204.1900  149.7540 C   0  0  0  0  0  0  0  0  0  0  0  0
  161.3680  205.4520  150.3330 C   0  0  0  0  0  0  0  0  0  0  0  0
  160.7900  203.2350  151.9510 C   0  0  0  0  0  3  0  0  0  0  0  0
  161.2160  203.8350  148.3960 C   0  0  0  0  0  0  0  0  0  0  0  0
  161.2260  202.7560  145.8210 C   0  0  0  0  0  3  0  0  0  0  0  0
  160.9860  204.4650  152.5040 N   0  0  0  0  0  0  0  0  0  0  0  0
  160.9670  202.4790  148.1870 C   0  0  0  0  0  0  0  0  0  0  0  0
  160.9660  201.9160  146.9140 C   0  0  0  0  0  3  0  0  0  0  0  0
  161.4650  206.8220  152.3350 C   0  0  0  0  0  0  0  0  0  0  0  0
  161.3740  207.0070  153.8110 C   0  0  0  0  0  1  0  0  0  0  0  0
  161.6500  206.5500  149.5800 N   0  0  0  0  0  0  0  0  0  0  0  0
  161.4800  204.1260  146.0160 C   0  0  0  0  0  3  0  0  0  0  0  0
  160.8830  203.1000  150.5710 C   0  0  0  0  0  0  0  0  0  0  0  0
  160.6860  201.6980  149.6540 S   0  0  0  0  0  0  0  0  0  0  0  0
  161.7520  207.9260  151.5300 C   0  0  0  0  0  3  0  0  0  0  0  0
  161.4760  204.6740  147.3090 C   0  0  0  0  0  3  0  0  0  0  0  0
  161.8430  207.7760  150.1390 C   0  0  0  0  0  0  0  0  0  0  0  0
  161.2690  205.5660  151.7420 C   0  0  0  0  0  0  0  0  0  0  0  0
  162.1290  208.8610  149.3060 O   0  0  0  0  0  0  0  0  0  0  0  0
  161.9980  210.2110  149.7320 C   0  0  0  0  0  2  0  0  0  0  0  0
  162.1760  211.1330  148.5460 C   0  0  0  0  0  2  0  0  0  0  0  0
  161.4890  212.4560  148.8270 C   0  0  0  0  0  2  0  0  0  0  0  0
  161.2440  213.1590  147.5800 N   0  0  0  0  0  0  0  0  0  0  0  0
  162.4540  213.0370  146.7890 C   0  0  0  0  0  1  0  0  0  0  0  0
  160.2110  212.4220  146.8720 C   0  0  0  0  0  1  0  0  0  0  0  0
  1  2  2  0  0  0  0
  1 13  1  0  0  0  0
  2 18  1  0  0  0  0
  3  6  1  0  0  0  0
  4  1  1  0  0  0  0
  5 12  2  0  0  0  0
  5  8  1  0  0  0  0
  7  4  1  0  0  0  0
  7 14  1  0  0  0  0
  8  7  2  0  0  0  0
  9 10  1  0  0  0  0
 11 17  2  0  0  0  0
 11  2  1  0  0  0  0
 12 16  1  0  0  0  0
 13  3  2  0  0  0  0
 14 13  1  0  0  0  0
 15  9  2  0  0  0  0
 16  4  2  0  0  0  0
 17 15  1  0  0  0  0
 18  9  1  0  0  0  0
 18  6  2  0  0  0  0
 19 20  1  0  0  0  0
 19 17  1  0  0  0  0
 21 22  1  0  0  0  0
 21 20  1  0  0  0  0
 23 22  1  0  0  0  0
 24 23  1  0  0  0  0
 25 23  1  0  0  0  0
M  END
>  <MODEL>
1

>  <REMARK>
 VINA RESULT:      -9.1      0.000      0.000
  Name = 
  5 active torsions:
  status: ('A' for Active; 'I' for Inactive)
    1  A    between atoms: N_2  and  C_25
    2  A    between atoms: O_6  and  C_15
    3  A    between atoms: O_6  and  C_23
    4  A    between atoms: C_15  and  C_21
    5  A    between atoms: C_21  and  C_25
                            x       y       z     vdW  Elec       q    Type
                         _______ _______ _______ _____ _____    ______ ____

>  <TORSDO>
F 5

$$$$
=
 OpenBabel11052422153D

 25 28  0  0  0  0  0  0  0  0999 V2000
  161.4030  205.4510  149.2850 C   0  0  0  0  0  0  0  0  0  0  0  0
  161.3820  206.3970  150.3200 C   0  0  0  0  0  0  0  0  0  0  0  0
  162.0110  207.1860  147.7030 C   0  0  0  0  0  3  0  0  0  0  0  0
  161.1410  204.0730  149.3550 C   0  0  0  0  0  0  0  0  0  0  0  0
  160.6930  201.3280  149.1000 C   0  0  0  0  0  3  0  0  0  0  0  0
  161.9870  208.0970  148.7160 N   0  0  0  0  0  0  0  0  0  0  0  0
  161.2570  203.4400  148.1180 C   0  0  0  0  0  0  0  0  0  0  0  0
  161.0390  202.0740  147.9630 C   0  0  0  0  0  3  0  0  0  0  0  0
  161.6660  208.7010  151.0280 C   0  0  0  0  0  0  0  0  0  0  0  0
  161.9750  210.1340  150.7590 C   0  0  0  0  0  1  0  0  0  0  0  0
  161.0800  206.0500  151.6020 N   0  0  0  0  0  0  0  0  0  0  0  0
  160.5720  201.9520  150.3550 C   0  0  0  0  0  3  0  0  0  0  0  0
  161.7170  205.8580  147.9920 C   0  0  0  0  0  0  0  0  0  0  0  0
  161.6800  204.5530  146.9240 S   0  0  0  0  0  0  0  0  0  0  0  0
  161.3530  208.3090  152.3300 C   0  0  0  0  0  3  0  0  0  0  0  0
  160.7960  203.3320  150.4890 C   0  0  0  0  0  3  0  0  0  0  0  0
  161.0580  206.9660  152.6080 C   0  0  0  0  0  0  0  0  0  0  0  0
  161.6830  207.7450  150.0030 C   0  0  0  0  0  0  0  0  0  0  0  0
  160.7410  206.5420  153.9020 O   0  0  0  0  0  0  0  0  0  0  0  0
  161.2020  207.2160  155.0650 C   0  0  0  0  0  2  0  0  0  0  0  0
  160.0310  207.8790  155.7590 C   0  0  0  0  0  2  0  0  0  0  0  0
  160.4760  209.2060  156.3430 C   0  0  0  0  0  2  0  0  0  0  0  0
  161.8290  209.5080  155.9080 N   0  0  0  0  0  0  0  0  0  0  0  0
  161.7630  210.7650  155.1880 C   0  0  0  0  0  1  0  0  0  0  0  0
  162.6140  209.7580  157.1050 C   0  0  0  0  0  1  0  0  0  0  0  0
  1  4  1  0  0  0  0
  1  2  2  0  0  0  0
  2 11  1  0  0  0  0
  3 13  2  0  0  0  0
  3  6  1  0  0  0  0
  4 16  1  0  0  0  0
  5 12  1  0  0  0  0
  6 18  2  0  0  0  0
  7  4  2  0  0  0  0
  8  7  1  0  0  0  0
  8  5  2  0  0  0  0
  9 15  2  0  0  0  0
 10  9  1  0  0  0  0
 11 17  2  0  0  0  0
 12 16  2  0  0  0  0
 13  1  1  0  0  0  0
 14 13  1  0  0  0  0
 14  7  1  0  0  0  0
 15 17  1  0  0  0  0
 17 19  1  0  0  0  0
 18  2  1  0  0  0  0
 18  9  1  0  0  0  0
 19 20  1  0  0  0  0
 20 21  1  0  0  0  0
 21 22  1  0  0  0  0
 23 22  1  0  0  0  0
 23 25  1  0  0  0  0
 24 23  1  0  0  0  0
M  END
>  <MODEL>
2

>  <REMARK>
 VINA RESULT:      -9.1      2.573      5.197
  Name = 
  5 active torsions:
  status: ('A' for Active; 'I' for Inactive)
    1  A    between atoms: N_2  and  C_25
    2  A    between atoms: O_6  and  C_15
    3  A    between atoms: O_6  and  C_23
    4  A    between atoms: C_15  and  C_21
    5  A    between atoms: C_21  and  C_25
                            x       y       z     vdW  Elec       q    Type
                         _______ _______ _______ _____ _____    ______ ____

>  <TORSDO>
F 5

$$$$
=
 OpenBabel11052422153D

 25 28  0  0  0  0  0  0  0  0999 V2000
  161.4350  205.0650  148.6880 C   0  0  0  0  0  0  0  0  0  0  0  0
  161.4480  206.1560  149.5690 C   0  0  0  0  0  0  0  0  0  0  0  0
  161.9880  206.5390  146.8430 C   0  0  0  0  0  3  0  0  0  0  0  0
  161.1760  203.7150  148.9740 C   0  0  0  0  0  0  0  0  0  0  0  0
  160.7210  200.9650  149.1510 C   0  0  0  0  0  3  0  0  0  0  0  0
  161.9980  207.5930  147.7060 N   0  0  0  0  0  0  0  0  0  0  0  0
  161.2500  202.9030  147.8430 C   0  0  0  0  0  0  0  0  0  0  0  0
  161.0280  201.5300  147.9040 C   0  0  0  0  0  3  0  0  0  0  0  0
  161.7550  208.5400  149.9110 C   0  0  0  0  0  0  0  0  0  0  0  0
  162.0540  209.9150  149.4180 C   0  0  0  0  0  1  0  0  0  0  0  0
  161.1900  206.0090  150.8970 N   0  0  0  0  0  0  0  0  0  0  0  0
  160.6420  201.7720  150.3010 C   0  0  0  0  0  3  0  0  0  0  0  0
  161.7050  205.2720  147.3390 C   0  0  0  0  0  0  0  0  0  0  0  0
  161.6330  203.8210  146.4820 S   0  0  0  0  0  0  0  0  0  0  0  0
  161.4860  208.3500  151.2670 C   0  0  0  0  0  3  0  0  0  0  0  0
  160.8700  203.1550  150.2180 C   0  0  0  0  0  3  0  0  0  0  0  0
  161.2020  207.0660  151.7540 C   0  0  0  0  0  0  0  0  0  0  0  0
  161.7380  207.4400  149.0420 C   0  0  0  0  0  0  0  0  0  0  0  0
  160.9290  206.8430  153.1070 O   0  0  0  0  0  0  0  0  0  0  0  0
  160.9810  207.8770  154.0800 C   0  0  0  0  0  2  0  0  0  0  0  0
  160.6860  207.2970  155.4470 C   0  0  0  0  0  2  0  0  0  0  0  0
  159.8030  208.2560  156.2210 C   0  0  0  0  0  2  0  0  0  0  0  0
  160.3020  209.6120  156.0790 N   0  0  0  0  0  0  0  0  0  0  0  0
  159.1480  210.4890  156.1400 C   0  0  0  0  0  1  0  0  0  0  0  0
  161.1000  209.8980  157.2580 C   0  0  0  0  0  1  0  0  0  0  0  0
  1  4  1  0  0  0  0
  1  2  2  0  0  0  0
  2 11  1  0  0  0  0
  3 13  2  0  0  0  0
  3  6  1  0  0  0  0
  4 16  1  0  0  0  0
  5 12  1  0  0  0  0
  6 18  2  0  0  0  0
  7  8  1  0  0  0  0
  7  4  2  0  0  0  0
  8  5  2  0  0  0  0
  9 15  2  0  0  0  0
 10  9  1  0  0  0  0
 11 17  2  0  0  0  0
 13  1  1  0  0  0  0
 14 13  1  0  0  0  0
 14  7  1  0  0  0  0
 15 17  1  0  0  0  0
 16 12  2  0  0  0  0
 17 19  1  0  0  0  0
 18  2  1  0  0  0  0
 18  9  1  0  0  0  0
 19 20  1  0  0  0  0
 20 21  1  0  0  0  0
 21 22  1  0  0  0  0
 23 24  1  0  0  0  0
 23 22  1  0  0  0  0
 23 25  1  0  0  0  0
M  END
>  <MODEL>
3

>  <REMARK>
 VINA RESULT:      -8.5      2.499      5.305
  Name = 
  5 active torsions:
  status: ('A' for Active; 'I' for Inactive)
    1  A    between atoms: N_2  and  C_25
    2  A    between atoms: O_6  and  C_15
    3  A    between atoms: O_6  and  C_23
    4  A    between atoms: C_15  and  C_21
    5  A    between atoms: C_21  and  C_25
                            x       y       z     vdW  Elec       q    Type
                         _______ _______ _______ _____ _____    ______ ____

>  <TORSDO>
F 5

$$$$
=
 OpenBabel11052422153D

 25 28  0  0  0  0  0  0  0  0999 V2000
  161.2670  204.3740  149.1120 C   0  0  0  0  0  0  0  0  0  0  0  0
  161.3550  205.3630  150.1030 C   0  0  0  0  0  0  0  0  0  0  0  0
  160.8620  202.6950  150.8150 C   0  0  0  0  0  3  0  0  0  0  0  0
  161.3950  204.5170  147.7210 C   0  0  0  0  0  0  0  0  0  0  0  0
  161.5870  204.4060  144.9370 C   0  0  0  0  0  3  0  0  0  0  0  0
  160.9490  203.6630  151.7700 N   0  0  0  0  0  0  0  0  0  0  0  0
  161.2470  203.3090  147.0410 C   0  0  0  0  0  0  0  0  0  0  0  0
  161.3380  203.2260  145.6540 C   0  0  0  0  0  3  0  0  0  0  0  0
  161.2740  205.9520  152.4560 C   0  0  0  0  0  0  0  0  0  0  0  0
  161.1090  205.6060  153.8970 C   0  0  0  0  0  1  0  0  0  0  0  0
  161.5930  206.6670  149.7950 N   0  0  0  0  0  0  0  0  0  0  0  0
  161.7380  205.6330  145.6090 C   0  0  0  0  0  3  0  0  0  0  0  0
  161.0210  203.0550  149.4820 C   0  0  0  0  0  0  0  0  0  0  0  0
  160.9580  202.0520  148.1270 S   0  0  0  0  0  0  0  0  0  0  0  0
  161.5200  207.2790  152.1030 C   0  0  0  0  0  3  0  0  0  0  0  0
  161.6430  205.6940  147.0090 C   0  0  0  0  0  3  0  0  0  0  0  0
  161.6790  207.6290  150.7540 C   0  0  0  0  0  0  0  0  0  0  0  0
  161.1890  204.9740  151.4550 C   0  0  0  0  0  0  0  0  0  0  0  0
  161.9250  208.9490  150.3670 O   0  0  0  0  0  0  0  0  0  0  0  0
  162.2980  209.9620  151.2910 C   0  0  0  0  0  2  0  0  0  0  0  0
  161.0760  210.7700  151.6730 C   0  0  0  0  0  2  0  0  0  0  0  0
  160.9290  210.7790  153.1820 C   0  0  0  0  0  2  0  0  0  0  0  0
  160.1000  211.9000  153.5900 N   0  0  0  0  0  0  0  0  0  0  0  0
  158.7330  211.5480  153.2550 C   0  0  0  0  0  1  0  0  0  0  0  0
  160.1640  211.9700  155.0400 C   0  0  0  0  0  1  0  0  0  0  0  0
  1 13  1  0  0  0  0
  1  2  2  0  0  0  0
  2 18  1  0  0  0  0
  3  6  1  0  0  0  0
  4  1  1  0  0  0  0
  5 12  2  0  0  0  0
  5  8  1  0  0  0  0
  7  4  1  0  0  0  0
  7 14  1  0  0  0  0
  8  7  2  0  0  0  0
  9 10  1  0  0  0  0
 11  2  1  0  0  0  0
 11 17  2  0  0  0  0
 12 16  1  0  0  0  0
 13  3  2  0  0  0  0
 14 13  1  0  0  0  0
 15  9  2  0  0  0  0
 16  4  2  0  0  0  0
 17 15  1  0  0  0  0
 18  6  2  0  0  0  0
 18  9  1  0  0  0  0
 19 17  1  0  0  0  0
 19 20  1  0  0  0  0
 20 21  1  0  0  0  0
 21 22  1  0  0  0  0
 22 23  1  0  0  0  0
 23 25  1  0  0  0  0
 24 23  1  0  0  0  0
M  END
>  <MODEL>
4

>  <REMARK>
 VINA RESULT:      -8.4      2.327      3.008
  Name = 
  5 active torsions:
  status: ('A' for Active; 'I' for Inactive)
    1  A    between atoms: N_2  and  C_25
    2  A    between atoms: O_6  and  C_15
    3  A    between atoms: O_6  and  C_23
    4  A    between atoms: C_15  and  C_21
    5  A    between atoms: C_21  and  C_25
                            x       y       z     vdW  Elec       q    Type
                         _______ _______ _______ _____ _____    ______ ____

>  <TORSDO>
F 5

$$$$
=
 OpenBabel11052422153D

 25 28  0  0  0  0  0  0  0  0999 V2000
  161.2150  208.2520  152.5580 C   0  0  0  0  0  0  0  0  0  0  0  0
  161.2070  207.2900  151.5360 C   0  0  0  0  0  0  0  0  0  0  0  0
  161.9680  209.9330  150.9790 C   0  0  0  0  0  3  0  0  0  0  0  0
  160.8780  208.0910  153.9110 C   0  0  0  0  0  0  0  0  0  0  0  0
  160.2940  208.1610  156.6410 C   0  0  0  0  0  3  0  0  0  0  0  0
  161.9580  208.9910  149.9940 N   0  0  0  0  0  0  0  0  0  0  0  0
  161.0030  209.2730  154.6400 C   0  0  0  0  0  0  0  0  0  0  0  0
  160.7180  209.3350  156.0010 C   0  0  0  0  0  3  0  0  0  0  0  0
  161.5890  206.7430  149.2030 C   0  0  0  0  0  0  0  0  0  0  0  0
  161.9830  207.1050  147.8110 C   0  0  0  0  0  1  0  0  0  0  0  0
  160.8440  206.0000  151.7700 N   0  0  0  0  0  0  0  0  0  0  0  0
  160.1630  206.9600  155.9190 C   0  0  0  0  0  3  0  0  0  0  0  0
  161.5940  209.5580  152.2650 C   0  0  0  0  0  0  0  0  0  0  0  0
  161.5250  210.5280  153.6430 S   0  0  0  0  0  0  0  0  0  0  0  0
  161.2110  205.4290  149.4790 C   0  0  0  0  0  3  0  0  0  0  0  0
  160.4550  206.9200  154.5470 C   0  0  0  0  0  3  0  0  0  0  0  0
  160.8370  205.0650  150.7810 C   0  0  0  0  0  0  0  0  0  0  0  0
  161.5920  207.6940  150.2330 C   0  0  0  0  0  0  0  0  0  0  0  0
  160.4520  203.7570  151.0900 O   0  0  0  0  0  0  0  0  0  0  0  0
  161.3860  202.6940  151.2220 C   0  0  0  0  0  2  0  0  0  0  0  0
  160.9400  201.5230  150.3720 C   0  0  0  0  0  2  0  0  0  0  0  0
  160.0460  202.0240  149.2540 C   0  0  0  0  0  2  0  0  0  0  0  0
  160.5470  201.5550  147.9740 N   0  0  0  0  0  0  0  0  0  0  0  0
  161.2050  202.6850  147.3450 C   0  0  0  0  0  1  0  0  0  0  0  0
  161.5840  200.5770  148.2560 C   0  0  0  0  0  1  0  0  0  0  0  0
  1  4  1  0  0  0  0
  2 11  1  0  0  0  0
  2  1  1  0  0  0  0
  3 13  1  0  0  0  0
  4 16  2  0  0  0  0
  4  7  1  0  0  0  0
  6 18  1  0  0  0  0
  6  3  2  0  0  0  0
  7  8  2  0  0  0  0
  8  5  1  0  0  0  0
  9 15  2  0  0  0  0
  9 18  1  0  0  0  0
 10  9  1  0  0  0  0
 12  5  2  0  0  0  0
 13  1  2  0  0  0  0
 13 14  1  0  0  0  0
 14  7  1  0  0  0  0
 15 17  1  0  0  0  0
 16 12  1  0  0  0  0
 17 19  1  0  0  0  0
 17 11  2  0  0  0  0
 18  2  2  0  0  0  0
 19 20  1  0  0  0  0
 21 20  1  0  0  0  0
 22 21  1  0  0  0  0
 23 25  1  0  0  0  0
 23 22  1  0  0  0  0
 24 23  1  0  0  0  0
M  END
>  <MODEL>
5

>  <REMARK>
 VINA RESULT:      -8.2      3.200      7.994
  Name = 
  5 active torsions:
  status: ('A' for Active; 'I' for Inactive)
    1  A    between atoms: N_2  and  C_25
    2  A    between atoms: O_6  and  C_15
    3  A    between atoms: O_6  and  C_23
    4  A    between atoms: C_15  and  C_21
    5  A    between atoms: C_21  and  C_25
                            x       y       z     vdW  Elec       q    Type
                         _______ _______ _______ _____ _____    ______ ____

>  <TORSDO>
F 5

$$$$
=
 OpenBabel11052422153D

 25 28  0  0  0  0  0  0  0  0999 V2000
  161.4530  207.5930  151.0750 C   0  0  0  0  0  0  0  0  0  0  0  0
  161.4260  206.5390  150.1500 C   0  0  0  0  0  0  0  0  0  0  0  0
  161.9540  209.1560  149.2890 C   0  0  0  0  0  3  0  0  0  0  0  0
  161.2430  207.5420  152.4620 C   0  0  0  0  0  0  0  0  0  0  0  0
  160.8870  207.8390  155.2160 C   0  0  0  0  0  3  0  0  0  0  0  0
  161.9260  208.1260  148.3990 N   0  0  0  0  0  0  0  0  0  0  0  0
  161.3470  208.7940  153.0670 C   0  0  0  0  0  0  0  0  0  0  0  0
  161.1740  208.9700  154.4370 C   0  0  0  0  0  3  0  0  0  0  0  0
  161.6480  205.7940  147.8500 C   0  0  0  0  0  0  0  0  0  0  0  0
  161.8980  206.0430  146.4010 C   0  0  0  0  0  1  0  0  0  0  0  0
  161.1740  205.2570  150.5300 N   0  0  0  0  0  0  0  0  0  0  0  0
  160.7790  206.5690  154.6200 C   0  0  0  0  0  3  0  0  0  0  0  0
  161.7160  208.8850  150.6320 C   0  0  0  0  0  0  0  0  0  0  0  0
  161.6960  209.9770  151.9170 S   0  0  0  0  0  0  0  0  0  0  0  0
  161.3860  204.4920  148.2770 C   0  0  0  0  0  3  0  0  0  0  0  0
  160.9570  206.4140  153.2360 C   0  0  0  0  0  3  0  0  0  0  0  0
  161.1480  204.2320  149.6350 C   0  0  0  0  0  0  0  0  0  0  0  0
  161.6720  206.8370  148.7860 C   0  0  0  0  0  0  0  0  0  0  0  0
  160.8820  202.9390  150.0940 O   0  0  0  0  0  0  0  0  0  0  0  0
  160.0960  202.0110  149.3600 C   0  0  0  0  0  2  0  0  0  0  0  0
  161.0030  201.0030  148.6880 C   0  0  0  0  0  2  0  0  0  0  0  0
  161.2070  201.3970  147.2380 C   0  0  0  0  0  2  0  0  0  0  0  0
  160.3950  200.5530  146.3780 N   0  0  0  0  0  0  0  0  0  0  0  0
  160.1070  201.3290  145.1870 C   0  0  0  0  0  1  0  0  0  0  0  0
  161.2330  199.4440  145.9560 C   0  0  0  0  0  1  0  0  0  0  0  0
  1  4  1  0  0  0  0
  2 11  1  0  0  0  0
  2  1  1  0  0  0  0
  3 13  1  0  0  0  0
  4  7  2  0  0  0  0
  4 16  1  0  0  0  0
  6 18  1  0  0  0  0
  6  3  2  0  0  0  0
  7  8  1  0  0  0  0
  8  5  2  0  0  0  0
  9 15  2  0  0  0  0
  9 18  1  0  0  0  0
 10  9  1  0  0  0  0
 12  5  1  0  0  0  0
 13  1  2  0  0  0  0
 13 14  1  0  0  0  0
 14  7  1  0  0  0  0
 15 17  1  0  0  0  0
 16 12  2  0  0  0  0
 17 19  1  0  0  0  0
 17 11  2  0  0  0  0
 18  2  2  0  0  0  0
 20 19  1  0  0  0  0
 21 20  1  0  0  0  0
 22 21  1  0  0  0  0
 23 22  1  0  0  0  0
 24 23  1  0  0  0  0
 25 23  1  0  0  0  0
M  END
>  <MODEL>
6

>  <REMARK>
 VINA RESULT:      -8.0      3.044      7.930
  Name = 
  5 active torsions:
  status: ('A' for Active; 'I' for Inactive)
    1  A    between atoms: N_2  and  C_25
    2  A    between atoms: O_6  and  C_15
    3  A    between atoms: O_6  and  C_23
    4  A    between atoms: C_15  and  C_21
    5  A    between atoms: C_21  and  C_25
                            x       y       z     vdW  Elec       q    Type
                         _______ _______ _______ _____ _____    ______ ____

>  <TORSDO>
F 5

$$$$
=
 OpenBabel11052422153D

 25 28  0  0  0  0  0  0  0  0999 V2000
  161.0670  205.7200  150.7690 C   0  0  0  0  0  0  0  0  0  0  0  0
  160.9880  206.7400  151.7290 C   0  0  0  0  0  0  0  0  0  0  0  0
  161.0190  204.0510  152.5290 C   0  0  0  0  0  3  0  0  0  0  0  0
  161.1370  205.8400  149.3720 C   0  0  0  0  0  0  0  0  0  0  0  0
  161.2890  205.6770  146.5880 C   0  0  0  0  0  3  0  0  0  0  0  0
  160.9430  205.0480  153.4530 N   0  0  0  0  0  0  0  0  0  0  0  0
  161.2050  204.6040  148.7300 C   0  0  0  0  0  0  0  0  0  0  0  0
  161.2820  204.4950  147.3440 C   0  0  0  0  0  3  0  0  0  0  0  0
  160.8470  207.3780  154.0670 C   0  0  0  0  0  0  0  0  0  0  0  0
  160.7790  207.0540  155.5210 C   0  0  0  0  0  1  0  0  0  0  0  0
  160.9700  208.0550  151.3790 N   0  0  0  0  0  0  0  0  0  0  0  0
  161.2220  206.9320  147.2220 C   0  0  0  0  0  3  0  0  0  0  0  0
  161.0810  204.3910  151.1820 C   0  0  0  0  0  0  0  0  0  0  0  0
  161.1800  203.3520  149.8580 S   0  0  0  0  0  0  0  0  0  0  0  0
  160.8310  208.7160  153.6700 C   0  0  0  0  0  3  0  0  0  0  0  0
  161.1450  207.0190  148.6210 C   0  0  0  0  0  3  0  0  0  0  0  0
  160.8940  209.0460  152.3090 C   0  0  0  0  0  0  0  0  0  0  0  0
  160.9260  206.3700  153.0970 C   0  0  0  0  0  0  0  0  0  0  0  0
  160.8800  210.3760  151.8790 O   0  0  0  0  0  0  0  0  0  0  0  0
  160.4410  211.4450  152.7060 C   0  0  0  0  0  2  0  0  0  0  0  0
  158.9650  211.6890  152.4720 C   0  0  0  0  0  2  0  0  0  0  0  0
  158.2110  211.5100  153.7750 C   0  0  0  0  0  2  0  0  0  0  0  0
  157.5620  212.7570  154.1440 N   0  0  0  0  0  0  0  0  0  0  0  0
  157.5510  213.5870  152.9550 C   0  0  0  0  0  1  0  0  0  0  0  0
  156.1750  212.4420  154.4410 C   0  0  0  0  0  1  0  0  0  0  0  0
  1 13  1  0  0  0  0
  1  2  2  0  0  0  0
  2 18  1  0  0  0  0
  3  6  1  0  0  0  0
  4  1  1  0  0  0  0
  5 12  2  0  0  0  0
  5  8  1  0  0  0  0
  7  4  1  0  0  0  0
  7 14  1  0  0  0  0
  8  7  2  0  0  0  0
  9 10  1  0  0  0  0
 11  2  1  0  0  0  0
 11 17  2  0  0  0  0
 12 16  1  0  0  0  0
 13  3  2  0  0  0  0
 14 13  1  0  0  0  0
 15  9  2  0  0  0  0
 16  4  2  0  0  0  0
 17 15  1  0  0  0  0
 18  6  2  0  0  0  0
 18  9  1  0  0  0  0
 19 17  1  0  0  0  0
 19 20  1  0  0  0  0
 21 20  1  0  0  0  0
 21 22  1  0  0  0  0
 22 23  1  0  0  0  0
 23 25  1  0  0  0  0
 24 23  1  0  0  0  0
M  END
>  <MODEL>
7

>  <REMARK>
 VINA RESULT:      -7.6      3.204      3.816
  Name = 
  5 active torsions:
  status: ('A' for Active; 'I' for Inactive)
    1  A    between atoms: N_2  and  C_25
    2  A    between atoms: O_6  and  C_15
    3  A    between atoms: O_6  and  C_23
    4  A    between atoms: C_15  and  C_21
    5  A    between atoms: C_21  and  C_25
                            x       y       z     vdW  Elec       q    Type
                         _______ _______ _______ _____ _____    ______ ____

>  <TORSDO>
F 5

$$$$
=
 OpenBabel11052422153D

 25 28  0  0  0  0  0  0  0  0999 V2000
  161.2540  206.0680  150.9180 C   0  0  0  0  0  0  0  0  0  0  0  0
  161.3370  207.3910  151.3780 C   0  0  0  0  0  0  0  0  0  0  0  0
  160.9740  205.2870  153.1980 C   0  0  0  0  0  3  0  0  0  0  0  0
  161.3290  205.5960  149.5980 C   0  0  0  0  0  0  0  0  0  0  0  0
  161.4300  204.2910  147.1310 C   0  0  0  0  0  3  0  0  0  0  0  0
  161.0560  206.5750  153.6340 N   0  0  0  0  0  0  0  0  0  0  0  0
  161.2060  204.2090  149.5160 C   0  0  0  0  0  0  0  0  0  0  0  0
  161.2530  203.5350  148.2990 C   0  0  0  0  0  3  0  0  0  0  0  0
  161.3140  208.9410  153.2460 C   0  0  0  0  0  0  0  0  0  0  0  0
  161.2120  209.2510  154.7000 C   0  0  0  0  0  1  0  0  0  0  0  0
  161.5130  208.4360  150.5250 N   0  0  0  0  0  0  0  0  0  0  0  0
  161.5560  205.6910  147.1980 C   0  0  0  0  0  3  0  0  0  0  0  0
  161.0740  205.0360  151.8340 C   0  0  0  0  0  0  0  0  0  0  0  0
  161.0040  203.5430  151.0510 S   0  0  0  0  0  0  0  0  0  0  0  0
  161.4950  209.9880  152.3410 C   0  0  0  0  0  3  0  0  0  0  0  0
  161.5060  206.3520  148.4360 C   0  0  0  0  0  3  0  0  0  0  0  0
  161.5950  209.7200  150.9680 C   0  0  0  0  0  0  0  0  0  0  0  0
  161.2340  207.6240  152.7720 C   0  0  0  0  0  0  0  0  0  0  0  0
  161.7750  210.7470  150.0360 O   0  0  0  0  0  0  0  0  0  0  0  0
  161.2070  212.0390  150.1990 C   0  0  0  0  0  2  0  0  0  0  0  0
  161.5790  212.9060  149.0150 C   0  0  0  0  0  2  0  0  0  0  0  0
  162.0400  212.0250  147.8700 C   0  0  0  0  0  2  0  0  0  0  0  0
  161.6120  212.5960  146.6050 N   0  0  0  0  0  0  0  0  0  0  0  0
  160.1610  212.5690  146.6060 C   0  0  0  0  0  1  0  0  0  0  0  0
  161.9990  213.9960  146.6180 C   0  0  0  0  0  1  0  0  0  0  0  0
  1  2  2  0  0  0  0
  1 13  1  0  0  0  0
  2 18  1  0  0  0  0
  3  6  1  0  0  0  0
  4  1  1  0  0  0  0
  5 12  2  0  0  0  0
  5  8  1  0  0  0  0
  7  4  1  0  0  0  0
  7 14  1  0  0  0  0
  8  7  2  0  0  0  0
  9 10  1  0  0  0  0
 11 17  2  0  0  0  0
 11  2  1  0  0  0  0
 12 16  1  0  0  0  0
 13  3  2  0  0  0  0
 14 13  1  0  0  0  0
 15  9  2  0  0  0  0
 16  4  2  0  0  0  0
 17 15  1  0  0  0  0
 18  9  1  0  0  0  0
 18  6  2  0  0  0  0
 19 20  1  0  0  0  0
 19 17  1  0  0  0  0
 21 20  1  0  0  0  0
 22 21  1  0  0  0  0
 23 24  1  0  0  0  0
 23 25  1  0  0  0  0
 23 22  1  0  0  0  0
M  END
>  <MODEL>
8

>  <REMARK>
 VINA RESULT:      -7.3      1.466      2.143
  Name = 
  5 active torsions:
  status: ('A' for Active; 'I' for Inactive)
    1  A    between atoms: N_2  and  C_25
    2  A    between atoms: O_6  and  C_15
    3  A    between atoms: O_6  and  C_23
    4  A    between atoms: C_15  and  C_21
    5  A    between atoms: C_21  and  C_25
                            x       y       z     vdW  Elec       q    Type
                         _______ _______ _______ _____ _____    ______ ____

>  <TORSDO>
F 5

$$$$
=
 OpenBabel11052422153D

 25 28  0  0  0  0  0  0  0  0999 V2000
  161.1030  203.4300  148.2230 C   0  0  0  0  0  0  0  0  0  0  0  0
  161.1710  204.5800  147.4230 C   0  0  0  0  0  0  0  0  0  0  0  0
  161.0360  202.0430  146.2340 C   0  0  0  0  0  3  0  0  0  0  0  0
  161.0910  203.3400  149.6240 C   0  0  0  0  0  0  0  0  0  0  0  0
  161.0450  202.7640  152.3560 C   0  0  0  0  0  3  0  0  0  0  0  0
  161.1020  203.1660  145.4660 N   0  0  0  0  0  0  0  0  0  0  0  0
  161.0150  202.0230  150.0770 C   0  0  0  0  0  0  0  0  0  0  0  0
  160.9910  201.7090  151.4330 C   0  0  0  0  0  3  0  0  0  0  0  0
  161.2370  205.5600  145.2030 C   0  0  0  0  0  0  0  0  0  0  0  0
  161.2380  205.4560  143.7160 C   0  0  0  0  0  1  0  0  0  0  0  0
  161.2380  205.8270  147.9650 N   0  0  0  0  0  0  0  0  0  0  0  0
  161.1210  204.0970  151.9150 C   0  0  0  0  0  3  0  0  0  0  0  0
  161.0370  202.1790  147.6180 C   0  0  0  0  0  0  0  0  0  0  0  0
  160.9620  200.9540  148.7750 S   0  0  0  0  0  0  0  0  0  0  0  0
  161.3040  206.8220  145.7940 C   0  0  0  0  0  3  0  0  0  0  0  0
  161.1450  204.3930  150.5420 C   0  0  0  0  0  3  0  0  0  0  0  0
  161.3040  206.9440  147.1920 C   0  0  0  0  0  0  0  0  0  0  0  0
  161.1690  204.4190  146.0150 C   0  0  0  0  0  0  0  0  0  0  0  0
  161.3710  208.1940  147.8140 O   0  0  0  0  0  0  0  0  0  0  0  0
  162.2860  208.4810  148.8620 C   0  0  0  0  0  2  0  0  0  0  0  0
  161.6370  208.1750  150.1950 C   0  0  0  0  0  2  0  0  0  0  0  0
  161.9950  209.2600  151.1920 C   0  0  0  0  0  2  0  0  0  0  0  0
  161.0600  209.2370  152.3040 N   0  0  0  0  0  0  0  0  0  0  0  0
  161.0170  207.8680  152.7820 C   0  0  0  0  0  1  0  0  0  0  0  0
  161.6490  210.0290  153.3700 C   0  0  0  0  0  1  0  0  0  0  0  0
  1  4  1  0  0  0  0
  2 11  1  0  0  0  0
  2  1  1  0  0  0  0
  3 13  1  0  0  0  0
  4  7  2  0  0  0  0
  4 16  1  0  0  0  0
  6 18  1  0  0  0  0
  6  3  2  0  0  0  0
  7  8  1  0  0  0  0
  8  5  2  0  0  0  0
  9 15  2  0  0  0  0
  9 18  1  0  0  0  0
 10  9  1  0  0  0  0
 12  5  1  0  0  0  0
 13  1  2  0  0  0  0
 13 14  1  0  0  0  0
 14  7  1  0  0  0  0
 15 17  1  0  0  0  0
 16 12  2  0  0  0  0
 17 19  1  0  0  0  0
 17 11  2  0  0  0  0
 18  2  2  0  0  0  0
 19 20  1  0  0  0  0
 20 21  1  0  0  0  0
 21 22  1  0  0  0  0
 22 23  1  0  0  0  0
 23 24  1  0  0  0  0
 23 25  1  0  0  0  0
M  END
>  <MODEL>
9

>  <REMARK>
 VINA RESULT:      -7.3      2.502      5.093
  Name = 
  5 active torsions:
  status: ('A' for Active; 'I' for Inactive)
    1  A    between atoms: N_2  and  C_25
    2  A    between atoms: O_6  and  C_15
    3  A    between atoms: O_6  and  C_23
    4  A    between atoms: C_15  and  C_21
    5  A    between atoms: C_21  and  C_25
                            x       y       z     vdW  Elec       q    Type
                         _______ _______ _______ _____ _____    ______ ____

>  <TORSDO>
F 5

$$$$
