=
 OpenBabel11062410043D

 43 47  0  0  0  0  0  0  0  0999 V2000
  160.8810  204.8850  145.7830 C   0  0  0  0  0  3  0  0  0  0  0  0
  161.3360  206.3480  151.0490 C   0  0  0  0  0  0  0  0  0  0  0  0
  161.7910  209.0900  150.6420 C   0  0  0  0  0  0  0  0  0  0  0  0
  161.3530  204.5590  148.8590 C   0  0  0  0  0  0  0  0  0  0  0  0
  160.9840  206.1430  146.2100 C   0  0  0  0  0  3  0  0  0  0  0  0
  161.7200  203.8130  146.3980 C   0  0  0  0  0  2  0  0  0  0  0  0
  161.5890  205.9470  148.6360 C   0  0  0  0  0  0  0  0  0  0  0  0
  161.2060  203.4920  147.7950 C   0  0  0  0  0  2  0  0  0  0  0  0
  161.9640  206.5020  147.2820 C   0  0  0  0  0  2  0  0  0  0  0  0
  161.7940  208.2120  149.5560 C   0  0  0  0  0  3  0  0  0  0  0  0
  161.5740  206.8360  149.7380 C   0  0  0  0  0  0  0  0  0  0  0  0
  161.1070  204.9840  151.2380 C   0  0  0  0  0  3  0  0  0  0  0  0
  161.3320  207.2400  152.1440 C   0  0  0  0  0  0  0  0  0  0  0  0
  161.5590  208.6030  151.9280 C   0  0  0  0  0  3  0  0  0  0  0  0
  161.1110  204.1090  150.1580 C   0  0  0  0  0  3  0  0  0  0  0  0
  161.1040  206.7680  153.5500 C   0  0  0  0  0  2  0  0  0  0  0  0
  160.0320  207.5710  155.7660 C   0  0  0  0  0  2  0  0  0  0  0  0
  160.7300  207.9220  154.4740 C   0  0  0  0  0  0  0  0  0  0  0  0
  161.4880  208.0300  155.7740 C   0  0  0  0  0  2  0  0  0  0  0  0
  160.2030  210.2310  154.6340 C   0  0  0  0  0  3  0  0  0  0  0  0
  160.3220  209.1810  153.9050 N   0  0  0  0  0  0  0  0  0  0  0  0
  159.8040  211.5320  154.0220 C   0  0  0  0  0  2  0  0  0  0  0  0
  158.8040  211.3080  152.9040 C   0  0  0  0  0  2  0  0  0  0  0  0
  158.5150  212.6270  152.2190 C   0  0  0  0  0  1  0  0  0  0  0  0
  161.9910  210.5550  150.4370 C   0  0  0  0  0  2  0  0  0  0  0  0
  162.3400  210.8350  149.0380 N   0  0  0  0  0  2  0  0  0  0  0  0
  160.9980  212.6830  149.6300 C   0  0  0  0  0  1  0  0  0  0  0  0
  161.6880  211.9950  148.5450 N   0  0  0  0  0  0  0  0  0  0  0  0
  162.6520  212.9080  147.9350 C   0  0  0  0  0  2  0  0  0  0  0  0
  161.9770  213.7240  146.8520 C   0  0  0  0  0  2  0  0  0  0  0  0
  161.2400  212.7980  145.9060 C   0  0  0  0  0  2  0  0  0  0  0  0
  161.1920  213.3800  144.5720 N   0  0  0  0  0  0  0  0  0  0  0  0
  159.9360  213.9480  144.1170 C   0  0  0  0  0  1  0  0  0  0  0  0
  163.4830  213.0670  144.2280 O   0  0  0  0  0  0  0  0  0  0  0  0
  162.3860  213.4970  143.7780 C   0  0  0  0  0  0  0  0  0  0  0  0
  162.3530  214.1780  142.4410 C   0  0  0  0  0  2  0  0  0  0  0  0
  163.3790  213.6450  140.2110 C   0  0  0  0  0  3  0  0  0  0  0  0
  162.6360  213.2290  141.3230 C   0  0  0  0  0  0  0  0  0  0  0  0
  161.9200  209.7650  140.3970 F   0  0  0  0  0  0  0  0  0  0  0  0
  163.1400  211.4470  139.2260 C   0  0  0  0  0  3  0  0  0  0  0  0
  162.3980  211.0300  140.3360 C   0  0  0  0  0  0  0  0  0  0  0  0
  163.6290  212.7550  139.1630 C   0  0  0  0  0  3  0  0  0  0  0  0
  162.1440  211.9220  141.3820 C   0  0  0  0  0  3  0  0  0  0  0  0
  1  5  2  0  0  0  0
  1  6  1  0  0  0  0
  2 12  1  0  0  0  0
  2 13  1  0  0  0  0
  3 14  1  0  0  0  0
  4 15  1  0  0  0  0
  5  9  1  0  0  0  0
  6  8  1  0  0  0  0
  7  4  2  0  0  0  0
  7 11  1  0  0  0  0
  8  4  1  0  0  0  0
  9  7  1  0  0  0  0
 10 11  1  0  0  0  0
 10  3  2  0  0  0  0
 11  2  2  0  0  0  0
 13 16  1  0  0  0  0
 14 13  2  0  0  0  0
 15 12  2  0  0  0  0
 16 18  1  0  0  0  0
 17 19  1  0  0  0  0
 18 17  1  0  0  0  0
 18 19  1  0  0  0  0
 21 18  1  0  0  0  0
 21 20  2  0  0  0  0
 22 20  1  0  0  0  0
 23 22  1  0  0  0  0
 24 23  1  0  0  0  0
 25  3  1  0  0  0  0
 26 25  1  0  0  0  0
 28 26  1  0  0  0  0
 28 27  1  0  0  0  0
 29 28  1  0  0  0  0
 30 29  1  0  0  0  0
 31 30  1  0  0  0  0
 32 31  1  0  0  0  0
 33 32  1  0  0  0  0
 35 34  2  0  0  0  0
 35 32  1  0  0  0  0
 36 35  1  0  0  0  0
 37 38  1  0  0  0  0
 38 43  2  0  0  0  0
 38 36  1  0  0  0  0
 40 41  2  0  0  0  0
 41 39  1  0  0  0  0
 41 43  1  0  0  0  0
 42 40  1  0  0  0  0
 42 37  2  0  0  0  0
M  END
>  <MODEL>
1

>  <REMARK>
 VINA RESULT:      -9.0      0.000      0.000
  Name = 
  14 active torsions:
  status: ('A' for Active; 'I' for Inactive)
    1  A    between atoms: C_1  and  C_34
    2  A    between atoms: C_1  and  C_35
    3  A    between atoms: C_2  and  N_7
    4  A    between atoms: C_2  and  C_13
    5  A    between atoms: C_3  and  C_17
    6  A    between atoms: C_3  and  C_42
    7  A    between atoms: C_4  and  C_14
    8  A    between atoms: C_4  and  C_41
    9  A    between atoms: N_7  and  N_12
   10  A    between atoms: C_9  and  C_37
   11  A    between atoms: N_10  and  C_42
   12  A    between atoms: N_12  and  C_17
   13  A    between atoms: C_19  and  C_37
   14  A    between atoms: N_32  and  C_35
                            x       y       z     vdW  Elec       q    Type
                         _______ _______ _______ _____ _____    ______ ____

>  <TORSDO>
F 14

$$$$
=
 OpenBabel11062410043D

 43 47  0  0  0  0  0  0  0  0999 V2000
  161.0580  204.5800  146.2540 C   0  0  0  0  0  3  0  0  0  0  0  0
  161.2420  207.0990  151.1210 C   0  0  0  0  0  0  0  0  0  0  0  0
  161.9070  209.6660  150.1950 C   0  0  0  0  0  0  0  0  0  0  0  0
  161.2920  204.8880  149.3580 C   0  0  0  0  0  0  0  0  0  0  0  0
  161.2150  205.8930  146.4180 C   0  0  0  0  0  3  0  0  0  0  0  0
  161.7790  203.6210  147.1440 C   0  0  0  0  0  2  0  0  0  0  0  0
  161.6350  206.1850  148.8730 C   0  0  0  0  0  0  0  0  0  0  0  0
  161.1490  203.6300  148.5300 C   0  0  0  0  0  2  0  0  0  0  0  0
  162.1390  206.4210  147.4690 C   0  0  0  0  0  2  0  0  0  0  0  0
  161.9260  208.5790  149.3180 C   0  0  0  0  0  3  0  0  0  0  0  0
  161.6030  207.2860  149.7620 C   0  0  0  0  0  0  0  0  0  0  0  0
  160.9100  205.8200  151.5690 C   0  0  0  0  0  3  0  0  0  0  0  0
  161.2220  208.2010  152.0040 C   0  0  0  0  0  0  0  0  0  0  0  0
  161.5530  209.4740  151.5290 C   0  0  0  0  0  3  0  0  0  0  0  0
  160.9310  204.7370  150.6980 C   0  0  0  0  0  3  0  0  0  0  0  0
  160.8660  208.0490  153.4540 C   0  0  0  0  0  2  0  0  0  0  0  0
  160.7040  209.4260  155.6410 C   0  0  0  0  0  2  0  0  0  0  0  0
  160.6890  209.4040  154.1320 C   0  0  0  0  0  0  0  0  0  0  0  0
  161.8900  209.9710  154.8490 C   0  0  0  0  0  2  0  0  0  0  0  0
  159.0920  211.1560  154.2600 C   0  0  0  0  0  3  0  0  0  0  0  0
  159.8210  210.3880  153.5350 N   0  0  0  0  0  0  0  0  0  0  0  0
  158.2190  212.1860  153.6240 C   0  0  0  0  0  2  0  0  0  0  0  0
  158.5440  212.3200  152.1480 C   0  0  0  0  0  2  0  0  0  0  0  0
  158.8120  213.7740  151.8240 C   0  0  0  0  0  1  0  0  0  0  0  0
  162.2170  211.0420  149.7070 C   0  0  0  0  0  2  0  0  0  0  0  0
  162.1460  211.0970  148.2410 N   0  0  0  0  0  2  0  0  0  0  0  0
  160.9490  213.0290  148.8740 C   0  0  0  0  0  1  0  0  0  0  0  0
  161.5960  212.3200  147.7770 N   0  0  0  0  0  0  0  0  0  0  0  0
  162.6390  213.1700  147.2060 C   0  0  0  0  0  2  0  0  0  0  0  0
  162.0940  213.9230  146.0100 C   0  0  0  0  0  2  0  0  0  0  0  0
  161.3630  212.9610  145.0960 C   0  0  0  0  0  2  0  0  0  0  0  0
  161.9630  212.9780  143.7690 N   0  0  0  0  0  0  0  0  0  0  0  0
  163.2150  213.6930  143.5920 C   0  0  0  0  0  1  0  0  0  0  0  0
  160.3490  211.5310  142.8950 O   0  0  0  0  0  0  0  0  0  0  0  0
  161.3940  212.2080  142.6960 C   0  0  0  0  0  0  0  0  0  0  0  0
  162.0630  212.1550  141.3530 C   0  0  0  0  0  2  0  0  0  0  0  0
  160.2740  211.4340  139.7450 C   0  0  0  0  0  3  0  0  0  0  0  0
  161.4410  211.1340  140.4580 C   0  0  0  0  0  0  0  0  0  0  0  0
  162.0030  207.6760  139.4080 F   0  0  0  0  0  0  0  0  0  0  0  0
  160.2720  209.2030  138.8050 C   0  0  0  0  0  3  0  0  0  0  0  0
  161.4380  208.9030  139.5160 C   0  0  0  0  0  0  0  0  0  0  0  0
  159.6890  210.4680  138.9210 C   0  0  0  0  0  3  0  0  0  0  0  0
  162.0200  209.8660  140.3450 C   0  0  0  0  0  3  0  0  0  0  0  0
  1  5  2  0  0  0  0
  1  6  1  0  0  0  0
  2 12  1  0  0  0  0
  2 13  1  0  0  0  0
  3 14  1  0  0  0  0
  4 15  1  0  0  0  0
  5  9  1  0  0  0  0
  6  8  1  0  0  0  0
  7  4  2  0  0  0  0
  7 11  1  0  0  0  0
  8  4  1  0  0  0  0
  9  7  1  0  0  0  0
 10 11  1  0  0  0  0
 10  3  2  0  0  0  0
 11  2  2  0  0  0  0
 13 16  1  0  0  0  0
 14 13  2  0  0  0  0
 15 12  2  0  0  0  0
 16 18  1  0  0  0  0
 18 19  1  0  0  0  0
 18 17  1  0  0  0  0
 19 17  1  0  0  0  0
 21 18  1  0  0  0  0
 21 20  2  0  0  0  0
 22 20  1  0  0  0  0
 23 22  1  0  0  0  0
 24 23  1  0  0  0  0
 25  3  1  0  0  0  0
 26 25  1  0  0  0  0
 28 26  1  0  0  0  0
 28 27  1  0  0  0  0
 29 28  1  0  0  0  0
 30 29  1  0  0  0  0
 31 30  1  0  0  0  0
 32 31  1  0  0  0  0
 33 32  1  0  0  0  0
 35 34  2  0  0  0  0
 35 32  1  0  0  0  0
 36 35  1  0  0  0  0
 37 38  1  0  0  0  0
 38 36  1  0  0  0  0
 39 41  1  0  0  0  0
 40 42  1  0  0  0  0
 40 41  2  0  0  0  0
 41 43  1  0  0  0  0
 42 37  2  0  0  0  0
 43 38  2  0  0  0  0
M  END
>  <MODEL>
2

>  <REMARK>
 VINA RESULT:      -8.9      1.376      1.825
  Name = 
  14 active torsions:
  status: ('A' for Active; 'I' for Inactive)
    1  A    between atoms: C_1  and  C_34
    2  A    between atoms: C_1  and  C_35
    3  A    between atoms: C_2  and  N_7
    4  A    between atoms: C_2  and  C_13
    5  A    between atoms: C_3  and  C_17
    6  A    between atoms: C_3  and  C_42
    7  A    between atoms: C_4  and  C_14
    8  A    between atoms: C_4  and  C_41
    9  A    between atoms: N_7  and  N_12
   10  A    between atoms: C_9  and  C_37
   11  A    between atoms: N_10  and  C_42
   12  A    between atoms: N_12  and  C_17
   13  A    between atoms: C_19  and  C_37
   14  A    between atoms: N_32  and  C_35
                            x       y       z     vdW  Elec       q    Type
                         _______ _______ _______ _____ _____    ______ ____

>  <TORSDO>
F 14

$$$$
=
 OpenBabel11062410043D

 43 47  0  0  0  0  0  0  0  0999 V2000
  160.4090  203.1820  150.1610 C   0  0  0  0  0  3  0  0  0  0  0  0
  161.5360  208.0860  152.3410 C   0  0  0  0  0  0  0  0  0  0  0  0
  162.0190  209.4650  149.9430 C   0  0  0  0  0  0  0  0  0  0  0  0
  161.2380  205.2740  152.3350 C   0  0  0  0  0  0  0  0  0  0  0  0
  160.5990  204.2950  149.4550 C   0  0  0  0  0  3  0  0  0  0  0  0
  161.2850  202.8780  151.3330 C   0  0  0  0  0  2  0  0  0  0  0  0
  161.4860  205.9590  151.1090 C   0  0  0  0  0  0  0  0  0  0  0  0
  160.9330  203.8000  152.4930 C   0  0  0  0  0  2  0  0  0  0  0  0
  161.7110  205.2340  149.8030 C   0  0  0  0  0  2  0  0  0  0  0  0
  161.8660  208.0770  149.9330 C   0  0  0  0  0  3  0  0  0  0  0  0
  161.6290  207.3670  151.1220 C   0  0  0  0  0  0  0  0  0  0  0  0
  161.2920  207.3900  153.5260 C   0  0  0  0  0  3  0  0  0  0  0  0
  161.6900  209.4900  152.3460 C   0  0  0  0  0  0  0  0  0  0  0  0
  161.9290  210.1640  151.1450 C   0  0  0  0  0  3  0  0  0  0  0  0
  161.1410  206.0090  153.5180 C   0  0  0  0  0  3  0  0  0  0  0  0
  161.6200  210.2900  153.6140 C   0  0  0  0  0  2  0  0  0  0  0  0
  159.1720  210.8040  154.2850 C   0  0  0  0  0  2  0  0  0  0  0  0
  160.4390  211.2560  153.6010 C   0  0  0  0  0  0  0  0  0  0  0  0
  160.0510  211.8780  154.9190 C   0  0  0  0  0  2  0  0  0  0  0  0
  159.2650  212.9490  152.4210 C   0  0  0  0  0  3  0  0  0  0  0  0
  160.2220  212.0940  152.4490 N   0  0  0  0  0  0  0  0  0  0  0  0
  159.0720  213.8260  151.2290 C   0  0  0  0  0  2  0  0  0  0  0  0
  157.6210  213.8090  150.7860 C   0  0  0  0  0  2  0  0  0  0  0  0
  156.7350  214.1660  151.9600 C   0  0  0  0  0  1  0  0  0  0  0  0
  162.2350  210.2160  148.6710 C   0  0  0  0  0  2  0  0  0  0  0  0
  161.8750  211.6300  148.8410 N   0  0  0  0  0  2  0  0  0  0  0  0
  160.3560  213.1410  147.8530 C   0  0  0  0  0  1  0  0  0  0  0  0
  161.4700  212.2300  147.6200 N   0  0  0  0  0  0  0  0  0  0  0  0
  162.5770  212.9720  147.0190 C   0  0  0  0  0  2  0  0  0  0  0  0
  162.0800  213.7640  145.8270 C   0  0  0  0  0  2  0  0  0  0  0  0
  162.7430  213.2480  144.5650 C   0  0  0  0  0  2  0  0  0  0  0  0
  161.7350  212.9250  143.5660 N   0  0  0  0  0  0  0  0  0  0  0  0
  160.4540  212.4170  144.0250 C   0  0  0  0  0  1  0  0  0  0  0  0
  163.0500  213.7330  141.8110 O   0  0  0  0  0  0  0  0  0  0  0  0
  161.9590  213.2160  142.1750 C   0  0  0  0  0  0  0  0  0  0  0  0
  160.8840  212.9670  141.1580 C   0  0  0  0  0  2  0  0  0  0  0  0
  161.5440  212.3020  138.8280 C   0  0  0  0  0  3  0  0  0  0  0  0
  161.2910  211.9370  140.1560 C   0  0  0  0  0  0  0  0  0  0  0  0
  161.8920  208.3340  139.9910 F   0  0  0  0  0  0  0  0  0  0  0  0
  162.0320  209.9940  138.2830 C   0  0  0  0  0  3  0  0  0  0  0  0
  161.7810  209.6290  139.6100 C   0  0  0  0  0  0  0  0  0  0  0  0
  161.9110  211.3310  137.8920 C   0  0  0  0  0  3  0  0  0  0  0  0
  161.4070  210.5990  140.5440 C   0  0  0  0  0  3  0  0  0  0  0  0
  1  6  1  0  0  0  0
  2 13  1  0  0  0  0
  2 12  1  0  0  0  0
  3 14  1  0  0  0  0
  4  8  1  0  0  0  0
  4 15  1  0  0  0  0
  5  9  1  0  0  0  0
  5  1  2  0  0  0  0
  6  8  1  0  0  0  0
  7 11  1  0  0  0  0
  7  4  2  0  0  0  0
  9  7  1  0  0  0  0
 10  3  2  0  0  0  0
 10 11  1  0  0  0  0
 11  2  2  0  0  0  0
 13 16  1  0  0  0  0
 14 13  2  0  0  0  0
 15 12  2  0  0  0  0
 17 19  1  0  0  0  0
 18 16  1  0  0  0  0
 18 17  1  0  0  0  0
 18 19  1  0  0  0  0
 20 21  2  0  0  0  0
 21 18  1  0  0  0  0
 22 20  1  0  0  0  0
 23 22  1  0  0  0  0
 23 24  1  0  0  0  0
 25 26  1  0  0  0  0
 25  3  1  0  0  0  0
 28 27  1  0  0  0  0
 28 26  1  0  0  0  0
 29 28  1  0  0  0  0
 30 29  1  0  0  0  0
 31 30  1  0  0  0  0
 32 33  1  0  0  0  0
 32 31  1  0  0  0  0
 34 35  2  0  0  0  0
 35 32  1  0  0  0  0
 36 35  1  0  0  0  0
 37 38  1  0  0  0  0
 38 43  2  0  0  0  0
 38 36  1  0  0  0  0
 40 41  2  0  0  0  0
 41 39  1  0  0  0  0
 41 43  1  0  0  0  0
 42 40  1  0  0  0  0
 42 37  2  0  0  0  0
M  END
>  <MODEL>
3

>  <REMARK>
 VINA RESULT:      -8.7      1.750      2.763
  Name = 
  14 active torsions:
  status: ('A' for Active; 'I' for Inactive)
    1  A    between atoms: C_1  and  C_34
    2  A    between atoms: C_1  and  C_35
    3  A    between atoms: C_2  and  N_7
    4  A    between atoms: C_2  and  C_13
    5  A    between atoms: C_3  and  C_17
    6  A    between atoms: C_3  and  C_42
    7  A    between atoms: C_4  and  C_14
    8  A    between atoms: C_4  and  C_41
    9  A    between atoms: N_7  and  N_12
   10  A    between atoms: C_9  and  C_37
   11  A    between atoms: N_10  and  C_42
   12  A    between atoms: N_12  and  C_17
   13  A    between atoms: C_19  and  C_37
   14  A    between atoms: N_32  and  C_35
                            x       y       z     vdW  Elec       q    Type
                         _______ _______ _______ _____ _____    ______ ____

>  <TORSDO>
F 14

$$$$
=
 OpenBabel11062410043D

 43 47  0  0  0  0  0  0  0  0999 V2000
  160.6310  211.1510  156.4410 C   0  0  0  0  0  3  0  0  0  0  0  0
  161.4900  207.4730  152.4650 C   0  0  0  0  0  0  0  0  0  0  0  0
  162.0270  209.2820  150.3850 C   0  0  0  0  0  0  0  0  0  0  0  0
  160.5070  208.4040  154.9480 C   0  0  0  0  0  0  0  0  0  0  0  0
  161.0610  211.4510  155.2160 C   0  0  0  0  0  3  0  0  0  0  0  0
  159.5500  210.1370  156.6300 C   0  0  0  0  0  2  0  0  0  0  0  0
  160.7720  209.3360  153.9010 C   0  0  0  0  0  0  0  0  0  0  0  0
  160.0990  208.7420  156.3660 C   0  0  0  0  0  2  0  0  0  0  0  0
  160.4430  210.8060  154.0160 C   0  0  0  0  0  2  0  0  0  0  0  0
  161.5490  209.7490  151.6110 C   0  0  0  0  0  3  0  0  0  0  0  0
  161.2680  208.8600  152.6630 C   0  0  0  0  0  0  0  0  0  0  0  0
  161.2230  206.5840  153.5070 C   0  0  0  0  0  3  0  0  0  0  0  0
  161.9750  207.0060  151.2240 C   0  0  0  0  0  0  0  0  0  0  0  0
  162.2400  207.9180  150.1970 C   0  0  0  0  0  3  0  0  0  0  0  0
  160.7450  207.0470  154.7280 C   0  0  0  0  0  3  0  0  0  0  0  0
  162.2070  205.5470  150.9620 C   0  0  0  0  0  2  0  0  0  0  0  0
  161.1030  203.4670  149.8830 C   0  0  0  0  0  2  0  0  0  0  0  0
  161.1400  204.9680  150.0370 C   0  0  0  0  0  0  0  0  0  0  0  0
  160.0240  204.1890  150.6860 C   0  0  0  0  0  2  0  0  0  0  0  0
  161.2410  205.3810  147.7010 C   0  0  0  0  0  3  0  0  0  0  0  0
  160.7620  205.6930  148.8500 N   0  0  0  0  0  0  0  0  0  0  0  0
  160.8170  206.1280  146.4800 C   0  0  0  0  0  2  0  0  0  0  0  0
  161.1890  205.3550  145.2300 C   0  0  0  0  0  2  0  0  0  0  0  0
  161.4140  203.9010  145.5870 C   0  0  0  0  0  1  0  0  0  0  0  0
  162.3560  210.2350  149.2840 C   0  0  0  0  0  2  0  0  0  0  0  0
  161.4230  211.3700  149.2910 N   0  0  0  0  0  2  0  0  0  0  0  0
  163.1980  212.1900  147.9700 C   0  0  0  0  0  1  0  0  0  0  0  0
  161.8150  212.3910  148.3850 N   0  0  0  0  0  0  0  0  0  0  0  0
  160.9550  212.3880  147.2030 C   0  0  0  0  0  2  0  0  0  0  0  0
  161.6030  213.1870  146.0910 C   0  0  0  0  0  2  0  0  0  0  0  0
  160.8510  212.9550  144.7960 C   0  0  0  0  0  2  0  0  0  0  0  0
  161.7890  212.7970  143.6940 N   0  0  0  0  0  0  0  0  0  0  0  0
  163.1560  213.2480  143.8880 C   0  0  0  0  0  1  0  0  0  0  0  0
  160.2320  211.6500  142.3820 O   0  0  0  0  0  0  0  0  0  0  0  0
  161.4030  212.1030  142.4950 C   0  0  0  0  0  0  0  0  0  0  0  0
  162.3980  211.8620  141.3960 C   0  0  0  0  0  2  0  0  0  0  0  0
  161.3260  211.9500  139.1260 C   0  0  0  0  0  3  0  0  0  0  0  0
  161.7740  211.1930  140.2150 C   0  0  0  0  0  0  0  0  0  0  0  0
  160.8920  207.8230  139.1010 F   0  0  0  0  0  0  0  0  0  0  0  0
  160.5870  209.9280  138.0200 C   0  0  0  0  0  3  0  0  0  0  0  0
  161.0350  209.1700  139.1070 C   0  0  0  0  0  0  0  0  0  0  0  0
  160.7310  211.3180  138.0310 C   0  0  0  0  0  3  0  0  0  0  0  0
  161.6250  209.8030  140.2050 C   0  0  0  0  0  3  0  0  0  0  0  0
  1  6  1  0  0  0  0
  2 11  1  0  0  0  0
  2 12  1  0  0  0  0
  3 10  1  0  0  0  0
  4  8  1  0  0  0  0
  5  1  2  0  0  0  0
  7  9  1  0  0  0  0
  7  4  2  0  0  0  0
  8  6  1  0  0  0  0
  9  5  1  0  0  0  0
 10 11  2  0  0  0  0
 11  7  1  0  0  0  0
 12 15  2  0  0  0  0
 13  2  2  0  0  0  0
 14  3  2  0  0  0  0
 14 13  1  0  0  0  0
 15  4  1  0  0  0  0
 16 13  1  0  0  0  0
 17 18  1  0  0  0  0
 17 19  1  0  0  0  0
 18 19  1  0  0  0  0
 18 16  1  0  0  0  0
 20 21  2  0  0  0  0
 21 18  1  0  0  0  0
 22 20  1  0  0  0  0
 23 24  1  0  0  0  0
 23 22  1  0  0  0  0
 25 26  1  0  0  0  0
 25  3  1  0  0  0  0
 27 28  1  0  0  0  0
 28 26  1  0  0  0  0
 29 28  1  0  0  0  0
 30 29  1  0  0  0  0
 31 30  1  0  0  0  0
 32 33  1  0  0  0  0
 32 31  1  0  0  0  0
 34 35  2  0  0  0  0
 35 32  1  0  0  0  0
 36 35  1  0  0  0  0
 37 38  1  0  0  0  0
 38 36  1  0  0  0  0
 39 41  1  0  0  0  0
 40 42  1  0  0  0  0
 40 41  2  0  0  0  0
 41 43  1  0  0  0  0
 42 37  2  0  0  0  0
 43 38  2  0  0  0  0
M  END
>  <MODEL>
4

>  <REMARK>
 VINA RESULT:      -8.7      1.685      5.726
  Name = 
  14 active torsions:
  status: ('A' for Active; 'I' for Inactive)
    1  A    between atoms: C_1  and  C_34
    2  A    between atoms: C_1  and  C_35
    3  A    between atoms: C_2  and  N_7
    4  A    between atoms: C_2  and  C_13
    5  A    between atoms: C_3  and  C_17
    6  A    between atoms: C_3  and  C_42
    7  A    between atoms: C_4  and  C_14
    8  A    between atoms: C_4  and  C_41
    9  A    between atoms: N_7  and  N_12
   10  A    between atoms: C_9  and  C_37
   11  A    between atoms: N_10  and  C_42
   12  A    between atoms: N_12  and  C_17
   13  A    between atoms: C_19  and  C_37
   14  A    between atoms: N_32  and  C_35
                            x       y       z     vdW  Elec       q    Type
                         _______ _______ _______ _____ _____    ______ ____

>  <TORSDO>
F 14

$$$$
=
 OpenBabel11062410043D

 43 47  0  0  0  0  0  0  0  0999 V2000
  160.4570  201.0750  145.2580 C   0  0  0  0  0  3  0  0  0  0  0  0
  160.8260  204.1280  149.7990 C   0  0  0  0  0  0  0  0  0  0  0  0
  161.1710  206.6210  148.5530 C   0  0  0  0  0  0  0  0  0  0  0  0
  160.9260  201.7460  148.2780 C   0  0  0  0  0  0  0  0  0  0  0  0
  160.5060  202.4070  145.2700 C   0  0  0  0  0  3  0  0  0  0  0  0
  161.3360  200.2840  146.1700 C   0  0  0  0  0  2  0  0  0  0  0  0
  161.1070  203.0040  147.6300 C   0  0  0  0  0  0  0  0  0  0  0  0
  160.8290  200.3950  147.6020 C   0  0  0  0  0  2  0  0  0  0  0  0
  161.4650  203.1220  146.1680 C   0  0  0  0  0  2  0  0  0  0  0  0
  161.2140  205.4490  147.7950 C   0  0  0  0  0  3  0  0  0  0  0  0
  161.0500  204.1910  148.4000 C   0  0  0  0  0  0  0  0  0  0  0  0
  160.6520  202.8840  150.4070 C   0  0  0  0  0  3  0  0  0  0  0  0
  160.7800  205.3160  150.5610 C   0  0  0  0  0  0  0  0  0  0  0  0
  160.9520  206.5510  149.9280 C   0  0  0  0  0  3  0  0  0  0  0  0
  160.6970  201.7150  149.6540 C   0  0  0  0  0  3  0  0  0  0  0  0
  160.5650  205.2980  152.0460 C   0  0  0  0  0  2  0  0  0  0  0  0
  162.7080  205.8280  153.4000 C   0  0  0  0  0  2  0  0  0  0  0  0
  161.4410  206.3290  152.7510 C   0  0  0  0  0  0  0  0  0  0  0  0
  162.7710  206.6460  152.1130 C   0  0  0  0  0  2  0  0  0  0  0  0
  161.1390  207.7240  154.6470 C   0  0  0  0  0  3  0  0  0  0  0  0
  160.8210  207.4330  153.4390 N   0  0  0  0  0  0  0  0  0  0  0  0
  160.5040  208.8880  155.3340 C   0  0  0  0  0  2  0  0  0  0  0  0
  160.0740  208.5050  156.7370 C   0  0  0  0  0  2  0  0  0  0  0  0
  160.0990  206.9990  156.8760 C   0  0  0  0  0  1  0  0  0  0  0  0
  161.3110  207.9550  147.8980 C   0  0  0  0  0  2  0  0  0  0  0  0
  162.3280  208.7620  148.5870 N   0  0  0  0  0  2  0  0  0  0  0  0
  162.0210  209.8880  150.6370 C   0  0  0  0  0  1  0  0  0  0  0  0
  161.7730  209.9140  149.2000 N   0  0  0  0  0  0  0  0  0  0  0  0
  162.3560  211.1300  148.6360 C   0  0  0  0  0  2  0  0  0  0  0  0
  161.3170  211.8690  147.8170 C   0  0  0  0  0  2  0  0  0  0  0  0
  162.0090  212.8280  146.8700 C   0  0  0  0  0  2  0  0  0  0  0  0
  161.2480  212.9470  145.6340 N   0  0  0  0  0  0  0  0  0  0  0  0
  159.8250  212.6610  145.6760 C   0  0  0  0  0  1  0  0  0  0  0  0
  163.0860  213.7670  144.4460 O   0  0  0  0  0  0  0  0  0  0  0  0
  161.8660  213.4490  144.4360 C   0  0  0  0  0  0  0  0  0  0  0  0
  161.0590  213.6560  143.1870 C   0  0  0  0  0  2  0  0  0  0  0  0
  162.5120  213.6260  141.1390 C   0  0  0  0  0  3  0  0  0  0  0  0
  161.6540  212.9490  142.0140 C   0  0  0  0  0  0  0  0  0  0  0  0
  161.5790  209.6390  140.4600 F   0  0  0  0  0  0  0  0  0  0  0  0
  162.7420  211.6170  139.8070 C   0  0  0  0  0  3  0  0  0  0  0  0
  161.8860  210.9400  140.6820 C   0  0  0  0  0  0  0  0  0  0  0  0
  163.0530  212.9610  140.0350 C   0  0  0  0  0  3  0  0  0  0  0  0
  161.3390  211.6060  141.7820 C   0  0  0  0  0  3  0  0  0  0  0  0
  1  5  2  0  0  0  0
  1  6  1  0  0  0  0
  2 12  1  0  0  0  0
  2 13  1  0  0  0  0
  3 14  1  0  0  0  0
  4 15  1  0  0  0  0
  5  9  1  0  0  0  0
  6  8  1  0  0  0  0
  7  4  2  0  0  0  0
  7 11  1  0  0  0  0
  8  4  1  0  0  0  0
  9  7  1  0  0  0  0
 10 11  1  0  0  0  0
 10  3  2  0  0  0  0
 11  2  2  0  0  0  0
 13 16  1  0  0  0  0
 14 13  2  0  0  0  0
 15 12  2  0  0  0  0
 16 18  1  0  0  0  0
 18 17  1  0  0  0  0
 18 21  1  0  0  0  0
 19 18  1  0  0  0  0
 19 17  1  0  0  0  0
 20 22  1  0  0  0  0
 21 20  2  0  0  0  0
 22 23  1  0  0  0  0
 23 24  1  0  0  0  0
 25  3  1  0  0  0  0
 25 26  1  0  0  0  0
 26 28  1  0  0  0  0
 28 27  1  0  0  0  0
 29 28  1  0  0  0  0
 30 29  1  0  0  0  0
 31 30  1  0  0  0  0
 32 33  1  0  0  0  0
 32 31  1  0  0  0  0
 35 34  2  0  0  0  0
 35 32  1  0  0  0  0
 36 35  1  0  0  0  0
 37 38  1  0  0  0  0
 38 36  1  0  0  0  0
 39 41  1  0  0  0  0
 40 42  1  0  0  0  0
 40 41  2  0  0  0  0
 41 43  1  0  0  0  0
 42 37  2  0  0  0  0
 43 38  2  0  0  0  0
M  END
>  <MODEL>
5

>  <REMARK>
 VINA RESULT:      -8.4      1.551      2.852
  Name = 
  14 active torsions:
  status: ('A' for Active; 'I' for Inactive)
    1  A    between atoms: C_1  and  C_34
    2  A    between atoms: C_1  and  C_35
    3  A    between atoms: C_2  and  N_7
    4  A    between atoms: C_2  and  C_13
    5  A    between atoms: C_3  and  C_17
    6  A    between atoms: C_3  and  C_42
    7  A    between atoms: C_4  and  C_14
    8  A    between atoms: C_4  and  C_41
    9  A    between atoms: N_7  and  N_12
   10  A    between atoms: C_9  and  C_37
   11  A    between atoms: N_10  and  C_42
   12  A    between atoms: N_12  and  C_17
   13  A    between atoms: C_19  and  C_37
   14  A    between atoms: N_32  and  C_35
                            x       y       z     vdW  Elec       q    Type
                         _______ _______ _______ _____ _____    ______ ____

>  <TORSDO>
F 14

$$$$
=
 OpenBabel11062410043D

 43 47  0  0  0  0  0  0  0  0999 V2000
  161.0250  209.3510  155.7740 C   0  0  0  0  0  3  0  0  0  0  0  0
  161.8840  207.3910  150.7250 C   0  0  0  0  0  0  0  0  0  0  0  0
  162.0160  209.8520  149.3800 C   0  0  0  0  0  0  0  0  0  0  0  0
  161.0540  207.2830  153.4260 C   0  0  0  0  0  0  0  0  0  0  0  0
  161.2980  210.1030  154.7100 C   0  0  0  0  0  3  0  0  0  0  0  0
  160.0840  208.1970  155.6560 C   0  0  0  0  0  2  0  0  0  0  0  0
  161.1120  208.5410  152.7570 C   0  0  0  0  0  0  0  0  0  0  0  0
  160.7520  207.0610  154.8930 C   0  0  0  0  0  2  0  0  0  0  0  0
  160.6390  209.8260  153.3950 C   0  0  0  0  0  2  0  0  0  0  0  0
  161.6120  209.8060  150.7160 C   0  0  0  0  0  3  0  0  0  0  0  0
  161.5330  208.5840  151.4060 C   0  0  0  0  0  0  0  0  0  0  0  0
  161.8170  206.1730  151.4050 C   0  0  0  0  0  3  0  0  0  0  0  0
  162.2930  207.4420  149.3750 C   0  0  0  0  0  0  0  0  0  0  0  0
  162.3560  208.6750  148.7170 C   0  0  0  0  0  3  0  0  0  0  0  0
  161.4140  206.1260  152.7340 C   0  0  0  0  0  3  0  0  0  0  0  0
  162.6540  206.2040  148.6080 C   0  0  0  0  0  2  0  0  0  0  0  0
  160.4130  206.3460  147.3190 C   0  0  0  0  0  2  0  0  0  0  0  0
  161.4150  205.4990  148.0660 C   0  0  0  0  0  0  0  0  0  0  0  0
  161.3070  205.3620  146.5680 C   0  0  0  0  0  2  0  0  0  0  0  0
  160.8280  203.2180  148.3590 C   0  0  0  0  0  3  0  0  0  0  0  0
  160.8300  204.4170  148.8170 N   0  0  0  0  0  0  0  0  0  0  0  0
  160.2410  202.1060  149.1630 C   0  0  0  0  0  2  0  0  0  0  0  0
  161.2140  200.9460  149.2550 C   0  0  0  0  0  2  0  0  0  0  0  0
  161.5230  200.4400  147.8630 C   0  0  0  0  0  1  0  0  0  0  0  0
  162.1310  211.1580  148.6650 C   0  0  0  0  0  2  0  0  0  0  0  0
  161.2760  212.1700  149.3010 N   0  0  0  0  0  2  0  0  0  0  0  0
  162.1850  214.0910  148.2760 C   0  0  0  0  0  1  0  0  0  0  0  0
  160.9990  213.2580  148.4330 N   0  0  0  0  0  0  0  0  0  0  0  0
  160.5760  212.7750  147.1200 C   0  0  0  0  0  2  0  0  0  0  0  0
  160.8640  213.8240  146.0660 C   0  0  0  0  0  2  0  0  0  0  0  0
  161.4550  213.1600  144.8390 C   0  0  0  0  0  2  0  0  0  0  0  0
  160.7250  213.5700  143.6480 N   0  0  0  0  0  0  0  0  0  0  0  0
  159.5810  214.4490  143.8140 C   0  0  0  0  0  1  0  0  0  0  0  0
  162.2420  212.5150  142.2160 O   0  0  0  0  0  0  0  0  0  0  0  0
  161.1990  213.2140  142.3370 C   0  0  0  0  0  0  0  0  0  0  0  0
  160.4970  213.7120  141.1070 C   0  0  0  0  0  2  0  0  0  0  0  0
  161.1890  212.6400  138.9440 C   0  0  0  0  0  3  0  0  0  0  0  0
  160.3580  212.6450  140.0720 C   0  0  0  0  0  0  0  0  0  0  0  0
  158.2970  209.6990  139.4040 F   0  0  0  0  0  0  0  0  0  0  0  0
  160.0720  210.6540  138.1280 C   0  0  0  0  0  3  0  0  0  0  0  0
  159.2430  210.6580  139.2540 C   0  0  0  0  0  0  0  0  0  0  0  0
  161.0440  211.6460  137.9720 C   0  0  0  0  0  3  0  0  0  0  0  0
  159.3830  211.6550  140.2230 C   0  0  0  0  0  3  0  0  0  0  0  0
  2 12  1  0  0  0  0
  2 11  1  0  0  0  0
  3 10  1  0  0  0  0
  4  8  1  0  0  0  0
  5  1  2  0  0  0  0
  6  1  1  0  0  0  0
  7  9  1  0  0  0  0
  7  4  2  0  0  0  0
  8  6  1  0  0  0  0
  9  5  1  0  0  0  0
 10 11  2  0  0  0  0
 11  7  1  0  0  0  0
 12 15  2  0  0  0  0
 13  2  2  0  0  0  0
 14 13  1  0  0  0  0
 14  3  2  0  0  0  0
 15  4  1  0  0  0  0
 16 13  1  0  0  0  0
 17 18  1  0  0  0  0
 18 16  1  0  0  0  0
 18 21  1  0  0  0  0
 19 17  1  0  0  0  0
 19 18  1  0  0  0  0
 20 21  2  0  0  0  0
 20 22  1  0  0  0  0
 22 23  1  0  0  0  0
 24 23  1  0  0  0  0
 25 26  1  0  0  0  0
 25  3  1  0  0  0  0
 27 28  1  0  0  0  0
 28 26  1  0  0  0  0
 29 28  1  0  0  0  0
 30 29  1  0  0  0  0
 31 30  1  0  0  0  0
 32 33  1  0  0  0  0
 32 31  1  0  0  0  0
 34 35  2  0  0  0  0
 35 32  1  0  0  0  0
 36 35  1  0  0  0  0
 37 38  1  0  0  0  0
 38 43  2  0  0  0  0
 38 36  1  0  0  0  0
 40 41  2  0  0  0  0
 41 39  1  0  0  0  0
 41 43  1  0  0  0  0
 42 40  1  0  0  0  0
 42 37  2  0  0  0  0
M  END
>  <MODEL>
6

>  <REMARK>
 VINA RESULT:      -8.4      2.016      5.763
  Name = 
  14 active torsions:
  status: ('A' for Active; 'I' for Inactive)
    1  A    between atoms: C_1  and  C_34
    2  A    between atoms: C_1  and  C_35
    3  A    between atoms: C_2  and  N_7
    4  A    between atoms: C_2  and  C_13
    5  A    between atoms: C_3  and  C_17
    6  A    between atoms: C_3  and  C_42
    7  A    between atoms: C_4  and  C_14
    8  A    between atoms: C_4  and  C_41
    9  A    between atoms: N_7  and  N_12
   10  A    between atoms: C_9  and  C_37
   11  A    between atoms: N_10  and  C_42
   12  A    between atoms: N_12  and  C_17
   13  A    between atoms: C_19  and  C_37
   14  A    between atoms: N_32  and  C_35
                            x       y       z     vdW  Elec       q    Type
                         _______ _______ _______ _____ _____    ______ ____

>  <TORSDO>
F 14

$$$$
=
 OpenBabel11062410043D

 43 47  0  0  0  0  0  0  0  0999 V2000
  160.4590  203.3770  150.0360 C   0  0  0  0  0  3  0  0  0  0  0  0
  161.4950  208.2200  152.3920 C   0  0  0  0  0  0  0  0  0  0  0  0
  162.0670  209.6650  150.0530 C   0  0  0  0  0  0  0  0  0  0  0  0
  161.2010  205.4090  152.2970 C   0  0  0  0  0  0  0  0  0  0  0  0
  160.6740  204.5100  149.3690 C   0  0  0  0  0  3  0  0  0  0  0  0
  161.2890  203.0410  151.2310 C   0  0  0  0  0  2  0  0  0  0  0  0
  161.4950  206.1270  151.1010 C   0  0  0  0  0  0  0  0  0  0  0  0
  160.8930  203.9310  152.4020 C   0  0  0  0  0  2  0  0  0  0  0  0
  161.7700  205.4390  149.7840 C   0  0  0  0  0  2  0  0  0  0  0  0
  161.9160  208.2780  149.9980 C   0  0  0  0  0  3  0  0  0  0  0  0
  161.6360  207.5350  151.1580 C   0  0  0  0  0  0  0  0  0  0  0  0
  161.2080  207.4920  153.5470 C   0  0  0  0  0  3  0  0  0  0  0  0
  161.6470  209.6230  152.4420 C   0  0  0  0  0  0  0  0  0  0  0  0
  161.9300  210.3310  151.2700 C   0  0  0  0  0  3  0  0  0  0  0  0
  161.0580  206.1110  153.4950 C   0  0  0  0  0  3  0  0  0  0  0  0
  161.5280  210.3880  153.7270 C   0  0  0  0  0  2  0  0  0  0  0  0
  159.8410  212.2450  153.0820 C   0  0  0  0  0  2  0  0  0  0  0  0
  160.1400  211.0030  153.8860 C   0  0  0  0  0  0  0  0  0  0  0  0
  159.2120  210.9070  152.7010 C   0  0  0  0  0  2  0  0  0  0  0  0
  158.5820  211.8120  155.4830 C   0  0  0  0  0  3  0  0  0  0  0  0
  159.4890  210.9590  155.1700 N   0  0  0  0  0  0  0  0  0  0  0  0
  157.9010  211.7350  156.8090 C   0  0  0  0  0  2  0  0  0  0  0  0
  156.3970  211.8330  156.6390 C   0  0  0  0  0  2  0  0  0  0  0  0
  156.0740  212.1160  155.1880 C   0  0  0  0  0  1  0  0  0  0  0  0
  162.3300  210.4510  148.8110 C   0  0  0  0  0  2  0  0  0  0  0  0
  161.4330  211.6120  148.7380 N   0  0  0  0  0  2  0  0  0  0  0  0
  163.4620  212.4660  147.8880 C   0  0  0  0  0  1  0  0  0  0  0  0
  162.1160  212.7920  148.3450 N   0  0  0  0  0  0  0  0  0  0  0  0
  161.3970  213.4690  147.2680 C   0  0  0  0  0  2  0  0  0  0  0  0
  162.1370  213.2890  145.9580 C   0  0  0  0  0  2  0  0  0  0  0  0
  161.3500  213.9390  144.8380 C   0  0  0  0  0  2  0  0  0  0  0  0
  160.7980  212.9190  143.9580 N   0  0  0  0  0  0  0  0  0  0  0  0
  159.4260  212.4950  144.1780 C   0  0  0  0  0  1  0  0  0  0  0  0
  162.7090  212.8800  142.6140 O   0  0  0  0  0  0  0  0  0  0  0  0
  161.5490  212.4370  142.8300 C   0  0  0  0  0  0  0  0  0  0  0  0
  160.9430  211.4530  141.8710 C   0  0  0  0  0  2  0  0  0  0  0  0
  162.5500  210.8920  140.0240 C   0  0  0  0  0  3  0  0  0  0  0  0
  161.4570  211.6380  140.4820 C   0  0  0  0  0  0  0  0  0  0  0  0
  160.7420  213.6670  137.5240 F   0  0  0  0  0  0  0  0  0  0  0  0
  162.4240  212.0140  137.8830 C   0  0  0  0  0  3  0  0  0  0  0  0
  161.3320  212.7590  138.3390 C   0  0  0  0  0  0  0  0  0  0  0  0
  163.0340  211.0810  138.7270 C   0  0  0  0  0  3  0  0  0  0  0  0
  160.8510  212.5740  139.6380 C   0  0  0  0  0  3  0  0  0  0  0  0
  1  6  1  0  0  0  0
  2 13  1  0  0  0  0
  2 12  1  0  0  0  0
  3 14  1  0  0  0  0
  4  8  1  0  0  0  0
  4 15  1  0  0  0  0
  5  9  1  0  0  0  0
  5  1  2  0  0  0  0
  6  8  1  0  0  0  0
  7 11  1  0  0  0  0
  7  4  2  0  0  0  0
  9  7  1  0  0  0  0
 10  3  2  0  0  0  0
 10 11  1  0  0  0  0
 11  2  2  0  0  0  0
 13 16  1  0  0  0  0
 14 13  2  0  0  0  0
 15 12  2  0  0  0  0
 16 18  1  0  0  0  0
 17 18  1  0  0  0  0
 18 21  1  0  0  0  0
 19 17  1  0  0  0  0
 19 18  1  0  0  0  0
 20 22  1  0  0  0  0
 21 20  2  0  0  0  0
 23 22  1  0  0  0  0
 24 23  1  0  0  0  0
 25  3  1  0  0  0  0
 26 25  1  0  0  0  0
 27 28  1  0  0  0  0
 28 26  1  0  0  0  0
 29 28  1  0  0  0  0
 30 29  1  0  0  0  0
 31 30  1  0  0  0  0
 32 33  1  0  0  0  0
 32 31  1  0  0  0  0
 34 35  2  0  0  0  0
 35 32  1  0  0  0  0
 36 35  1  0  0  0  0
 37 38  1  0  0  0  0
 38 36  1  0  0  0  0
 39 41  1  0  0  0  0
 40 41  2  0  0  0  0
 40 42  1  0  0  0  0
 41 43  1  0  0  0  0
 42 37  2  0  0  0  0
 43 38  2  0  0  0  0
M  END
>  <MODEL>
7

>  <REMARK>
 VINA RESULT:      -8.3      1.841      2.970
  Name = 
  14 active torsions:
  status: ('A' for Active; 'I' for Inactive)
    1  A    between atoms: C_1  and  C_34
    2  A    between atoms: C_1  and  C_35
    3  A    between atoms: C_2  and  N_7
    4  A    between atoms: C_2  and  C_13
    5  A    between atoms: C_3  and  C_17
    6  A    between atoms: C_3  and  C_42
    7  A    between atoms: C_4  and  C_14
    8  A    between atoms: C_4  and  C_41
    9  A    between atoms: N_7  and  N_12
   10  A    between atoms: C_9  and  C_37
   11  A    between atoms: N_10  and  C_42
   12  A    between atoms: N_12  and  C_17
   13  A    between atoms: C_19  and  C_37
   14  A    between atoms: N_32  and  C_35
                            x       y       z     vdW  Elec       q    Type
                         _______ _______ _______ _____ _____    ______ ____

>  <TORSDO>
F 14

$$$$
=
 OpenBabel11062410043D

 43 47  0  0  0  0  0  0  0  0999 V2000
  160.4780  204.1130  150.7500 C   0  0  0  0  0  3  0  0  0  0  0  0
  160.9370  208.4590  154.0630 C   0  0  0  0  0  0  0  0  0  0  0  0
  161.1120  210.4350  152.0750 C   0  0  0  0  0  0  0  0  0  0  0  0
  161.0660  205.7210  153.3690 C   0  0  0  0  0  0  0  0  0  0  0  0
  160.4700  205.3800  150.3380 C   0  0  0  0  0  3  0  0  0  0  0  0
  161.4340  203.6750  151.8100 C   0  0  0  0  0  2  0  0  0  0  0  0
  161.1590  206.7120  152.3480 C   0  0  0  0  0  0  0  0  0  0  0  0
  160.9940  204.2230  153.1610 C   0  0  0  0  0  2  0  0  0  0  0  0
  161.4400  206.3690  150.9040 C   0  0  0  0  0  2  0  0  0  0  0  0
  161.1690  209.0840  151.7260 C   0  0  0  0  0  3  0  0  0  0  0  0
  161.0890  208.0800  152.7050 C   0  0  0  0  0  0  0  0  0  0  0  0
  160.8470  207.4680  155.0420 C   0  0  0  0  0  3  0  0  0  0  0  0
  160.8770  209.8260  154.4120 C   0  0  0  0  0  0  0  0  0  0  0  0
  160.9640  210.8000  153.4120 C   0  0  0  0  0  3  0  0  0  0  0  0
  160.9050  206.1230  154.6960 C   0  0  0  0  0  3  0  0  0  0  0  0
  160.7360  210.2750  155.8370 C   0  0  0  0  0  2  0  0  0  0  0  0
  159.6390  212.1420  157.2580 C   0  0  0  0  0  2  0  0  0  0  0  0
  159.6420  211.3280  155.9870 C   0  0  0  0  0  0  0  0  0  0  0  0
  160.0730  212.7730  155.9360 C   0  0  0  0  0  2  0  0  0  0  0  0
  157.3840  211.9260  155.5650 C   0  0  0  0  0  3  0  0  0  0  0  0
  158.3310  211.0680  155.4490 N   0  0  0  0  0  0  0  0  0  0  0  0
  156.0400  211.6490  154.9780 C   0  0  0  0  0  2  0  0  0  0  0  0
  155.5160  212.8720  154.2500 C   0  0  0  0  0  2  0  0  0  0  0  0
  156.4710  214.0270  154.4590 C   0  0  0  0  0  1  0  0  0  0  0  0
  161.1620  211.4950  151.0260 C   0  0  0  0  0  2  0  0  0  0  0  0
  162.1950  211.1840  150.0290 N   0  0  0  0  0  2  0  0  0  0  0  0
  161.5870  211.6540  147.7980 C   0  0  0  0  0  1  0  0  0  0  0  0
  161.6450  210.6370  148.8400 N   0  0  0  0  0  0  0  0  0  0  0  0
  162.4540  209.5140  148.3690 C   0  0  0  0  0  2  0  0  0  0  0  0
  161.5900  208.2780  148.2300 C   0  0  0  0  0  2  0  0  0  0  0  0
  162.4170  207.1440  147.6600 C   0  0  0  0  0  2  0  0  0  0  0  0
  161.5530  206.1780  146.9960 N   0  0  0  0  0  0  0  0  0  0  0  0
  160.1300  206.4600  146.9370 C   0  0  0  0  0  1  0  0  0  0  0  0
  163.3580  204.8600  146.3120 O   0  0  0  0  0  0  0  0  0  0  0  0
  162.1100  205.0410  146.3140 C   0  0  0  0  0  0  0  0  0  0  0  0
  161.2260  204.0950  145.5540 C   0  0  0  0  0  2  0  0  0  0  0  0
  160.8330  201.6160  145.4740 C   0  0  0  0  0  3  0  0  0  0  0  0
  161.1280  202.7630  146.2210 C   0  0  0  0  0  0  0  0  0  0  0  0
  161.4020  201.3310  149.5750 F   0  0  0  0  0  0  0  0  0  0  0  0
  160.9230  200.2770  147.4890 C   0  0  0  0  0  3  0  0  0  0  0  0
  161.2180  201.4220  148.2360 C   0  0  0  0  0  0  0  0  0  0  0  0
  160.7290  200.3750  146.1080 C   0  0  0  0  0  3  0  0  0  0  0  0
  161.3170  202.6640  147.6030 C   0  0  0  0  0  3  0  0  0  0  0  0
  1  6  1  0  0  0  0
  2 13  1  0  0  0  0
  2 12  1  0  0  0  0
  3 14  1  0  0  0  0
  4 15  1  0  0  0  0
  5  1  2  0  0  0  0
  5  9  1  0  0  0  0
  6  8  1  0  0  0  0
  7 11  1  0  0  0  0
  7  4  2  0  0  0  0
  8  4  1  0  0  0  0
  9  7  1  0  0  0  0
 10  3  2  0  0  0  0
 10 11  1  0  0  0  0
 11  2  2  0  0  0  0
 13 16  1  0  0  0  0
 14 13  2  0  0  0  0
 15 12  2  0  0  0  0
 16 18  1  0  0  0  0
 18 17  1  0  0  0  0
 19 18  1  0  0  0  0
 19 17  1  0  0  0  0
 21 20  2  0  0  0  0
 21 18  1  0  0  0  0
 22 20  1  0  0  0  0
 23 24  1  0  0  0  0
 23 22  1  0  0  0  0
 25  3  1  0  0  0  0
 26 25  1  0  0  0  0
 27 28  1  0  0  0  0
 28 26  1  0  0  0  0
 29 28  1  0  0  0  0
 30 29  1  0  0  0  0
 31 30  1  0  0  0  0
 32 31  1  0  0  0  0
 33 32  1  0  0  0  0
 34 35  2  0  0  0  0
 35 32  1  0  0  0  0
 36 38  1  0  0  0  0
 36 35  1  0  0  0  0
 37 42  2  0  0  0  0
 37 38  1  0  0  0  0
 38 43  2  0  0  0  0
 40 41  2  0  0  0  0
 41 39  1  0  0  0  0
 42 40  1  0  0  0  0
 43 41  1  0  0  0  0
M  END
>  <MODEL>
8

>  <REMARK>
 VINA RESULT:      -8.2      4.224      6.867
  Name = 
  14 active torsions:
  status: ('A' for Active; 'I' for Inactive)
    1  A    between atoms: C_1  and  C_34
    2  A    between atoms: C_1  and  C_35
    3  A    between atoms: C_2  and  N_7
    4  A    between atoms: C_2  and  C_13
    5  A    between atoms: C_3  and  C_17
    6  A    between atoms: C_3  and  C_42
    7  A    between atoms: C_4  and  C_14
    8  A    between atoms: C_4  and  C_41
    9  A    between atoms: N_7  and  N_12
   10  A    between atoms: C_9  and  C_37
   11  A    between atoms: N_10  and  C_42
   12  A    between atoms: N_12  and  C_17
   13  A    between atoms: C_19  and  C_37
   14  A    between atoms: N_32  and  C_35
                            x       y       z     vdW  Elec       q    Type
                         _______ _______ _______ _____ _____    ______ ____

>  <TORSDO>
F 14

$$$$
=
 OpenBabel11062410043D

 43 47  0  0  0  0  0  0  0  0999 V2000
  160.6780  204.1760  148.5120 C   0  0  0  0  0  3  0  0  0  0  0  0
  161.6200  208.6900  151.4810 C   0  0  0  0  0  0  0  0  0  0  0  0
  162.0850  210.4560  149.3470 C   0  0  0  0  0  0  0  0  0  0  0  0
  161.4130  205.9090  151.0120 C   0  0  0  0  0  0  0  0  0  0  0  0
  160.8390  205.3950  148.0000 C   0  0  0  0  0  3  0  0  0  0  0  0
  161.5490  203.7110  149.6330 C   0  0  0  0  0  2  0  0  0  0  0  0
  161.6520  206.7920  149.9180 C   0  0  0  0  0  0  0  0  0  0  0  0
  161.1540  204.4200  150.9220 C   0  0  0  0  0  2  0  0  0  0  0  0
  161.9160  206.2970  148.5150 C   0  0  0  0  0  2  0  0  0  0  0  0
  161.9770  209.0840  149.1090 C   0  0  0  0  0  3  0  0  0  0  0  0
  161.7500  208.1830  150.1630 C   0  0  0  0  0  0  0  0  0  0  0  0
  161.3850  207.8030  152.5330 C   0  0  0  0  0  3  0  0  0  0  0  0
  161.7280  210.0770  151.7170 C   0  0  0  0  0  0  0  0  0  0  0  0
  161.9580  210.9460  150.6460 C   0  0  0  0  0  3  0  0  0  0  0  0
  161.2780  206.4370  152.2970 C   0  0  0  0  0  3  0  0  0  0  0  0
  161.6170  210.6580  153.0960 C   0  0  0  0  0  2  0  0  0  0  0  0
  159.5990  212.2550  153.3910 C   0  0  0  0  0  2  0  0  0  0  0  0
  160.1610  210.8580  153.5040 C   0  0  0  0  0  0  0  0  0  0  0  0
  159.1790  211.1710  152.4020 C   0  0  0  0  0  2  0  0  0  0  0  0
  160.3610  209.7050  155.5690 C   0  0  0  0  0  3  0  0  0  0  0  0
  159.6190  210.0900  154.5960 N   0  0  0  0  0  0  0  0  0  0  0  0
  159.7760  208.9320  156.7040 C   0  0  0  0  0  2  0  0  0  0  0  0
  159.7060  207.4560  156.3620 C   0  0  0  0  0  2  0  0  0  0  0  0
  161.0910  206.9570  156.0120 C   0  0  0  0  0  1  0  0  0  0  0  0
  162.2910  211.4110  148.2180 C   0  0  0  0  0  2  0  0  0  0  0  0
  161.0000  211.9010  147.7170 N   0  0  0  0  0  2  0  0  0  0  0  0
  161.1140  214.2030  148.2210 C   0  0  0  0  0  1  0  0  0  0  0  0
  161.1000  213.2020  147.1610 N   0  0  0  0  0  0  0  0  0  0  0  0
  162.3210  213.3300  146.3670 C   0  0  0  0  0  2  0  0  0  0  0  0
  161.9890  213.8780  144.9940 C   0  0  0  0  0  2  0  0  0  0  0  0
  162.5510  212.9540  143.9320 C   0  0  0  0  0  2  0  0  0  0  0  0
  161.5000  212.5590  143.0050 N   0  0  0  0  0  0  0  0  0  0  0  0
  160.2440  212.0810  143.5580 C   0  0  0  0  0  1  0  0  0  0  0  0
  162.7280  213.2420  141.1390 O   0  0  0  0  0  0  0  0  0  0  0  0
  161.6580  212.7510  141.5890 C   0  0  0  0  0  0  0  0  0  0  0  0
  160.5380  212.4260  140.6420 C   0  0  0  0  0  2  0  0  0  0  0  0
  161.8110  210.2820  140.3400 C   0  0  0  0  0  3  0  0  0  0  0  0
  160.6880  211.0660  140.0460 C   0  0  0  0  0  0  0  0  0  0  0  0
  158.8910  208.8400  137.7670 F   0  0  0  0  0  0  0  0  0  0  0  0
  160.9660  208.5270  138.9020 C   0  0  0  0  0  3  0  0  0  0  0  0
  159.8440  209.3090  138.6080 C   0  0  0  0  0  0  0  0  0  0  0  0
  161.9510  209.0150  139.7660 C   0  0  0  0  0  3  0  0  0  0  0  0
  159.7070  210.5780  139.1770 C   0  0  0  0  0  3  0  0  0  0  0  0
  1  6  1  0  0  0  0
  2 13  1  0  0  0  0
  2 12  1  0  0  0  0
  3 14  1  0  0  0  0
  4 15  1  0  0  0  0
  5  1  2  0  0  0  0
  5  9  1  0  0  0  0
  6  8  1  0  0  0  0
  7 11  1  0  0  0  0
  7  4  2  0  0  0  0
  8  4  1  0  0  0  0
  9  7  1  0  0  0  0
 10  3  2  0  0  0  0
 10 11  1  0  0  0  0
 11  2  2  0  0  0  0
 13 16  1  0  0  0  0
 14 13  2  0  0  0  0
 15 12  2  0  0  0  0
 16 18  1  0  0  0  0
 17 18  1  0  0  0  0
 18 21  1  0  0  0  0
 19 17  1  0  0  0  0
 19 18  1  0  0  0  0
 20 22  1  0  0  0  0
 21 20  2  0  0  0  0
 23 22  1  0  0  0  0
 24 23  1  0  0  0  0
 25  3  1  0  0  0  0
 26 25  1  0  0  0  0
 28 26  1  0  0  0  0
 28 27  1  0  0  0  0
 29 28  1  0  0  0  0
 30 29  1  0  0  0  0
 31 30  1  0  0  0  0
 32 33  1  0  0  0  0
 32 31  1  0  0  0  0
 34 35  2  0  0  0  0
 35 32  1  0  0  0  0
 36 35  1  0  0  0  0
 38 37  1  0  0  0  0
 38 36  1  0  0  0  0
 39 41  1  0  0  0  0
 40 42  1  0  0  0  0
 41 40  2  0  0  0  0
 41 43  1  0  0  0  0
 42 37  2  0  0  0  0
 43 38  2  0  0  0  0
M  END
>  <MODEL>
9

>  <REMARK>
 VINA RESULT:      -8.1      1.639      3.155
  Name = 
  14 active torsions:
  status: ('A' for Active; 'I' for Inactive)
    1  A    between atoms: C_1  and  C_34
    2  A    between atoms: C_1  and  C_35
    3  A    between atoms: C_2  and  N_7
    4  A    between atoms: C_2  and  C_13
    5  A    between atoms: C_3  and  C_17
    6  A    between atoms: C_3  and  C_42
    7  A    between atoms: C_4  and  C_14
    8  A    between atoms: C_4  and  C_41
    9  A    between atoms: N_7  and  N_12
   10  A    between atoms: C_9  and  C_37
   11  A    between atoms: N_10  and  C_42
   12  A    between atoms: N_12  and  C_17
   13  A    between atoms: C_19  and  C_37
   14  A    between atoms: N_32  and  C_35
                            x       y       z     vdW  Elec       q    Type
                         _______ _______ _______ _____ _____    ______ ____

>  <TORSDO>
F 14

$$$$
