=
 OpenBabel11052423213D

 27 31  0  0  1  0  0  0  0  0999 V2000
  158.4830  209.7570  137.5620 C   0  0  0  0  0  2  0  0  0  0  0  0
  159.3840  212.0200  138.2710 C   0  0  1  0  0  3  0  0  0  0  0  0
  157.1330  212.4380  137.1380 C   0  0  0  0  0  2  0  0  0  0  0  0
  161.4710  213.0360  138.3610 C   0  0  1  0  0  3  0  0  0  0  0  0
  160.3110  212.6800  139.0970 O   0  0  0  0  0  0  0  0  0  0  0  0
  161.5850  207.7910  138.2470 C   0  0  0  0  0  2  0  0  0  0  0  0
  160.6790  209.9560  138.7480 N   0  0  1  0  0  0  0  0  0  0  0  0
  154.3090  210.5350  138.5550 C   0  0  0  0  0  3  0  0  0  0  0  0
  161.4060  210.0500  137.4770 C   0  0  2  0  0  3  0  0  0  0  0  0
  154.9880  209.3050  138.9800 C   0  0  0  0  0  0  0  0  0  0  0  0
  159.3230  210.5130  138.6040 C   0  0  2  0  0  3  0  0  0  0  0  0
  162.6490  212.0690  138.5610 C   0  0  2  0  0  3  0  0  0  0  0  0
  157.0350  209.9670  137.8380 C   0  0  0  0  0  0  0  0  0  0  0  0
  158.0260  212.7380  138.3520 C   0  0  1  0  0  3  0  0  0  0  0  0
  154.9310  211.4030  137.7580 C   0  0  0  0  0  3  0  0  0  0  0  0
  161.2380  213.3390  137.0110 O   0  0  0  0  0  1  0  0  0  0  0  0
  154.3760  208.4510  139.6710 O   0  0  0  0  0  0  0  0  0  0  0  0
  161.7310  208.6440  137.0170 C   0  0  0  0  0  2  0  0  0  0  0  0
  156.3990  209.1010  138.6320 C   0  0  0  0  0  3  0  0  0  0  0  0
  162.7020  210.8480  137.6300 C   0  0  0  0  0  2  0  0  0  0  0  0
  156.3130  211.1420  137.2060 C   0  0  1  0  0  3  0  0  0  0  0  0
  160.6060  208.5430  139.1150 C   0  0  0  0  0  2  0  0  0  0  0  0
  157.8540  213.6290  140.6710 C   0  0  0  0  0  2  0  0  0  0  0  0
  156.5160  213.8390  139.9960 C   0  0  0  0  0  2  0  0  0  0  0  0
  157.3240  212.5900  139.7020 C   0  0  0  0  0  3  0  0  0  0  0  0
  163.0740  212.7760  140.6660 O   0  0  0  0  0  1  0  0  0  0  0  0
  162.7760  211.6630  139.9530 N   0  0  0  0  0  2  0  0  0  0  0  0
  1 13  1  0  0  0  0
  2 14  1  0  0  0  0
  2 11  1  0  0  0  0
  2  5  1  1  0  0  0
  3 14  1  0  0  0  0
  4 16  1  6  0  0  0
  4 12  1  0  0  0  0
  4  5  1  0  0  0  0
  6 22  1  0  0  0  0
  7 22  1  6  0  0  0
  8 10  1  0  0  0  0
  9 18  1  1  0  0  0
  9 20  1  0  0  0  0
  9  7  1  0  0  0  0
 10 17  2  0  0  0  0
 11  1  1  6  0  0  0
 11  7  1  0  0  0  0
 12 27  1  1  0  0  0
 13 19  2  0  0  0  0
 14 25  1  1  0  0  0
 15  8  2  0  0  0  0
 18  6  1  0  0  0  0
 19 10  1  0  0  0  0
 20 12  1  0  0  0  0
 21  3  1  1  0  0  0
 21 15  1  0  0  0  0
 21 13  1  0  0  0  0
 24 23  1  0  0  0  0
 25 24  1  0  0  0  0
 25 23  1  0  0  0  0
 27 26  1  0  0  0  0
M  END
>  <MODEL>
1

>  <REMARK>
 VINA RESULT:      -4.2      0.000      0.000
  Name = 
  2 active torsions:
  status: ('A' for Active; 'I' for Inactive)
    1  A    between atoms: C_14  and  C_19
    2  A    between atoms: N_16  and  C_17
                            x       y       z     vdW  Elec       q    Type
                         _______ _______ _______ _____ _____    ______ ____

>  <TORSDO>
F 2

$$$$
=
 OpenBabel11052423213D

 27 31  0  0  1  0  0  0  0  0999 V2000
  159.3460  210.1140  153.1560 C   0  0  0  0  0  2  0  0  0  0  0  0
  159.7700  210.6850  155.5910 C   0  0  1  0  0  3  0  0  0  0  0  0
  159.6750  208.1380  155.4300 C   0  0  0  0  0  2  0  0  0  0  0  0
  159.0690  212.3350  157.0680 C   0  0  1  0  0  3  0  0  0  0  0  0
  160.1890  211.6920  156.4790 O   0  0  0  0  0  0  0  0  0  0  0  0
  158.5900  213.5840  151.9940 C   0  0  0  0  0  2  0  0  0  0  0  0
  159.5500  212.4950  153.9050 N   0  0  1  0  0  0  0  0  0  0  0  0
  161.9930  206.6540  152.9740 C   0  0  0  0  0  3  0  0  0  0  0  0
  158.1020  212.5960  154.1190 C   0  0  2  0  0  3  0  0  0  0  0  0
  162.0280  207.7080  151.9530 C   0  0  0  0  0  0  0  0  0  0  0  0
  160.0030  211.1110  154.1250 C   0  0  2  0  0  3  0  0  0  0  0  0
  158.7130  213.6790  156.4110 C   0  0  2  0  0  3  0  0  0  0  0  0
  160.1980  208.9000  153.0320 C   0  0  0  0  0  0  0  0  0  0  0  0
  160.4390  209.3550  155.9750 C   0  0  1  0  0  3  0  0  0  0  0  0
  161.0690  206.6810  153.9340 C   0  0  0  0  0  3  0  0  0  0  0  0
  157.9520  211.5080  157.2590 O   0  0  0  0  0  1  0  0  0  0  0  0
  162.8530  207.6440  151.0060 O   0  0  0  0  0  0  0  0  0  0  0  0
  157.4620  213.0150  152.8130 C   0  0  0  0  0  2  0  0  0  0  0  0
  161.1260  208.8590  152.0710 C   0  0  0  0  0  3  0  0  0  0  0  0
  157.7660  213.6230  155.2030 C   0  0  0  0  0  2  0  0  0  0  0  0
  159.9880  207.7350  153.9820 C   0  0  1  0  0  3  0  0  0  0  0  0
  159.8260  212.9020  152.5290 C   0  0  0  0  0  2  0  0  0  0  0  0
  162.6110  210.4900  156.4140 C   0  0  0  0  0  2  0  0  0  0  0  0
  162.6820  209.1080  157.0250 C   0  0  0  0  0  2  0  0  0  0  0  0
  161.9460  209.3200  155.7160 C   0  0  0  0  0  3  0  0  0  0  0  0
  160.6870  214.4440  157.2050 O   0  0  0  0  0  1  0  0  0  0  0  0
  159.9060  214.4520  156.0980 N   0  0  0  0  0  2  0  0  0  0  0  0
  2 14  1  0  0  0  0
  2  5  1  1  0  0  0
  3 14  1  0  0  0  0
  4 16  1  6  0  0  0
  5  4  1  0  0  0  0
  6 22  1  0  0  0  0
  6 18  1  0  0  0  0
  7 22  1  6  0  0  0
  7  9  1  0  0  0  0
  7 11  1  0  0  0  0
  8 15  2  0  0  0  0
  9 18  1  6  0  0  0
  9 20  1  0  0  0  0
 10 19  1  0  0  0  0
 10  8  1  0  0  0  0
 11  1  1  6  0  0  0
 11  2  1  0  0  0  0
 12 27  1  6  0  0  0
 12  4  1  0  0  0  0
 13  1  1  0  0  0  0
 13 21  1  0  0  0  0
 14 25  1  6  0  0  0
 17 10  2  0  0  0  0
 19 13  2  0  0  0  0
 20 12  1  0  0  0  0
 21 15  1  1  0  0  0
 21  3  1  0  0  0  0
 23 24  1  0  0  0  0
 25 23  1  0  0  0  0
 25 24  1  0  0  0  0
 27 26  1  0  0  0  0
M  END
>  <MODEL>
2

>  <REMARK>
 VINA RESULT:      -3.6     14.790     16.932
  Name = 
  2 active torsions:
  status: ('A' for Active; 'I' for Inactive)
    1  A    between atoms: C_14  and  C_19
    2  A    between atoms: N_16  and  C_17
                            x       y       z     vdW  Elec       q    Type
                         _______ _______ _______ _____ _____    ______ ____

>  <TORSDO>
F 2

$$$$
=
 OpenBabel11052423213D

 27 31  0  0  1  0  0  0  0  0999 V2000
  159.1840  211.4180  155.2910 C   0  0  0  0  0  2  0  0  0  0  0  0
  159.9130  211.6950  152.8770 C   0  0  1  0  0  3  0  0  0  0  0  0
  161.9560  210.8960  154.1850 C   0  0  0  0  0  2  0  0  0  0  0  0
  159.4580  213.1840  151.1530 C   0  0  1  0  0  3  0  0  0  0  0  0
  159.4670  211.8210  151.5500 O   0  0  0  0  0  0  0  0  0  0  0  0
  155.8410  213.0530  154.9530 C   0  0  0  0  0  2  0  0  0  0  0  0
  157.5680  212.1770  153.5350 N   0  0  1  0  0  0  0  0  0  0  0  0
  161.4500  207.7810  156.0950 C   0  0  0  0  0  3  0  0  0  0  0  0
  157.8710  213.5860  153.8030 C   0  0  2  0  0  3  0  0  0  0  0  0
  160.0330  207.9030  156.4550 C   0  0  0  0  0  0  0  0  0  0  0  0
  158.7440  211.3370  153.8200 C   0  0  2  0  0  3  0  0  0  0  0  0
  158.0660  213.8350  151.2150 C   0  0  2  0  0  3  0  0  0  0  0  0
  159.9620  210.2000  155.6490 C   0  0  0  0  0  0  0  0  0  0  0  0
  161.0900  210.7070  152.9290 C   0  0  1  0  0  3  0  0  0  0  0  0
  162.1100  208.8290  155.6020 C   0  0  0  0  0  3  0  0  0  0  0  0
  160.4560  213.9730  151.7450 O   0  0  0  0  0  1  0  0  0  0  0  0
  159.4300  206.9360  156.9880 O   0  0  0  0  0  0  0  0  0  0  0  0
  156.9580  214.0610  154.9130 C   0  0  0  0  0  2  0  0  0  0  0  0
  159.3130  209.1440  156.1470 C   0  0  0  0  0  3  0  0  0  0  0  0
  157.6560  214.4530  152.5600 C   0  0  0  0  0  2  0  0  0  0  0  0
  161.4670  210.1890  155.4560 C   0  0  1  0  0  3  0  0  0  0  0  0
  156.4530  211.7900  154.3970 C   0  0  0  0  0  2  0  0  0  0  0  0
  160.9770  208.9230  151.1950 C   0  0  0  0  0  2  0  0  0  0  0  0
  161.9300  208.4570  152.2740 C   0  0  0  0  0  2  0  0  0  0  0  0
  160.6960  209.2570  152.6480 C   0  0  0  0  0  3  0  0  0  0  0  0
  157.1060  212.9500  149.3700 O   0  0  0  0  0  1  0  0  0  0  0  0
  157.0340  212.9350  150.7230 N   0  0  0  0  0  2  0  0  0  0  0  0
  1 13  1  0  0  0  0
  2  5  1  6  0  0  0
  2 14  1  0  0  0  0
  2 11  1  0  0  0  0
  4 12  1  0  0  0  0
  4  5  1  0  0  0  0
  4 16  1  1  0  0  0
  7  9  1  0  0  0  0
  7 11  1  0  0  0  0
  7 22  1  1  0  0  0
  8 10  1  0  0  0  0
  9 20  1  6  0  0  0
  9 18  1  0  0  0  0
 10 17  2  0  0  0  0
 11  1  1  1  0  0  0
 12 27  1  1  0  0  0
 12 20  1  0  0  0  0
 13 19  2  0  0  0  0
 14 25  1  1  0  0  0
 14  3  1  0  0  0  0
 15  8  2  0  0  0  0
 18  6  1  0  0  0  0
 19 10  1  0  0  0  0
 21  3  1  6  0  0  0
 21 15  1  0  0  0  0
 21 13  1  0  0  0  0
 22  6  1  0  0  0  0
 23 24  1  0  0  0  0
 23 25  1  0  0  0  0
 24 25  1  0  0  0  0
 26 27  1  0  0  0  0
M  END
>  <MODEL>
3

>  <REMARK>
 VINA RESULT:      -3.1     13.875     16.103
  Name = 
  2 active torsions:
  status: ('A' for Active; 'I' for Inactive)
    1  A    between atoms: C_14  and  C_19
    2  A    between atoms: N_16  and  C_17
                            x       y       z     vdW  Elec       q    Type
                         _______ _______ _______ _____ _____    ______ ____

>  <TORSDO>
F 2

$$$$
=
 OpenBabel11052423213D

 27 31  0  0  1  0  0  0  0  0999 V2000
  161.6480  206.2980  153.7680 C   0  0  0  0  0  2  0  0  0  0  0  0
  161.5420  208.0960  151.9820 C   0  0  1  0  0  3  0  0  0  0  0  0
  162.9860  206.2060  151.0500 C   0  0  0  0  0  2  0  0  0  0  0  0
  161.5290  210.4190  151.9450 C   0  0  1  0  0  3  0  0  0  0  0  0
  160.8510  209.2390  151.5420 O   0  0  0  0  0  0  0  0  0  0  0  0
  160.0810  208.2860  156.5160 C   0  0  0  0  0  2  0  0  0  0  0  0
  160.3410  208.4030  154.1330 N   0  0  1  0  0  0  0  0  0  0  0  0
  161.3870  202.8820  151.0710 C   0  0  0  0  0  3  0  0  0  0  0  0
  161.4960  209.0640  154.7500 C   0  0  2  0  0  3  0  0  0  0  0  0
  160.5470  202.9850  152.2710 C   0  0  0  0  0  0  0  0  0  0  0  0
  160.7890  207.4090  153.1420 C   0  0  2  0  0  3  0  0  0  0  0  0
  160.9260  211.0780  153.1960 C   0  0  2  0  0  3  0  0  0  0  0  0
  161.6040  205.0850  152.9050 C   0  0  0  0  0  0  0  0  0  0  0  0
  161.8240  207.1760  150.7820 C   0  0  1  0  0  3  0  0  0  0  0  0
  162.3310  203.7920  150.8330 C   0  0  0  0  0  3  0  0  0  0  0  0
  162.9250  210.2980  152.0110 O   0  0  0  0  0  1  0  0  0  0  0  0
  159.7060  202.0870  152.5330 O   0  0  0  0  0  0  0  0  0  0  0  0
  161.4850  208.7470  156.2300 C   0  0  0  0  0  2  0  0  0  0  0  0
  160.6640  204.1640  153.1360 C   0  0  0  0  0  3  0  0  0  0  0  0
  161.4460  210.5810  154.5540 C   0  0  0  0  0  2  0  0  0  0  0  0
  162.6290  204.9140  151.7990 C   0  0  1  0  0  3  0  0  0  0  0  0
  159.5850  207.7460  155.1970 C   0  0  0  0  0  2  0  0  0  0  0  0
  160.3660  206.9880  148.7720 C   0  0  0  0  0  2  0  0  0  0  0  0
  160.9660  205.6250  149.0350 C   0  0  0  0  0  2  0  0  0  0  0  0
  160.5750  206.5160  150.1980 C   0  0  0  0  0  3  0  0  0  0  0  0
  159.0380  211.5700  154.3390 O   0  0  0  0  0  1  0  0  0  0  0  0
  159.4710  211.0610  153.1610 N   0  0  0  0  0  2  0  0  0  0  0  0
  2  5  1  6  0  0  0
  2 11  1  0  0  0  0
  3 21  1  0  0  0  0
  4 16  1  1  0  0  0
  4 12  1  0  0  0  0
  5  4  1  0  0  0  0
  7  9  1  0  0  0  0
  7 22  1  1  0  0  0
  8 10  1  0  0  0  0
  9 20  1  1  0  0  0
  9 18  1  0  0  0  0
 10 17  2  0  0  0  0
 10 19  1  0  0  0  0
 11  1  1  1  0  0  0
 11  7  1  0  0  0  0
 12 27  1  1  0  0  0
 12 20  1  0  0  0  0
 13 19  2  0  0  0  0
 13  1  1  0  0  0  0
 14 25  1  1  0  0  0
 14  3  1  0  0  0  0
 14  2  1  0  0  0  0
 15  8  2  0  0  0  0
 18  6  1  0  0  0  0
 21 15  1  6  0  0  0
 21 13  1  0  0  0  0
 22  6  1  0  0  0  0
 23 24  1  0  0  0  0
 23 25  1  0  0  0  0
 24 25  1  0  0  0  0
 27 26  1  0  0  0  0
M  END
>  <MODEL>
4

>  <REMARK>
 VINA RESULT:      -2.1     13.668     15.478
  Name = 
  2 active torsions:
  status: ('A' for Active; 'I' for Inactive)
    1  A    between atoms: C_14  and  C_19
    2  A    between atoms: N_16  and  C_17
                            x       y       z     vdW  Elec       q    Type
                         _______ _______ _______ _____ _____    ______ ____

>  <TORSDO>
F 2

$$$$
=
 OpenBabel11052423213D

 27 31  0  0  1  0  0  0  0  0999 V2000
  160.5850  211.9770  152.5110 C   0  0  0  0  0  2  0  0  0  0  0  0
  158.2620  212.9930  152.5750 C   0  0  1  0  0  3  0  0  0  0  0  0
  159.6700  214.4530  151.0220 C   0  0  0  0  0  2  0  0  0  0  0  0
  156.6130  213.2970  154.1840 C   0  0  1  0  0  3  0  0  0  0  0  0
  156.9150  212.7600  152.9040 O   0  0  0  0  0  0  0  0  0  0  0  0
  160.0960  209.5320  155.2940 C   0  0  0  0  0  2  0  0  0  0  0  0
  158.7630  210.9410  153.8800 N   0  0  1  0  0  0  0  0  0  0  0  0
  161.3160  212.6400  148.2640 C   0  0  0  0  0  3  0  0  0  0  0  0
  159.1500  211.7180  155.0630 C   0  0  2  0  0  3  0  0  0  0  0  0
  161.5700  211.3410  148.8980 C   0  0  0  0  0  0  0  0  0  0  0  0
  159.0820  211.6870  152.6510 C   0  0  2  0  0  3  0  0  0  0  0  0
  156.6090  212.2480  155.3070 C   0  0  2  0  0  3  0  0  0  0  0  0
  160.9200  212.2080  151.0790 C   0  0  0  0  0  0  0  0  0  0  0  0
  158.3390  213.7080  151.2160 C   0  0  1  0  0  3  0  0  0  0  0  0
  160.9510  213.6870  149.0030 C   0  0  0  0  0  3  0  0  0  0  0  0
  157.3360  214.4530  154.5190 O   0  0  0  0  0  1  0  0  0  0  0  0
  161.9860  210.3720  148.2110 O   0  0  0  0  0  0  0  0  0  0  0  0
  160.2140  210.9410  155.8090 C   0  0  0  0  0  2  0  0  0  0  0  0
  161.2920  211.1680  150.3280 C   0  0  0  0  0  3  0  0  0  0  0  0
  157.9570  211.9650  155.9880 C   0  0  0  0  0  2  0  0  0  0  0  0
  160.8470  213.6130  150.5090 C   0  0  1  0  0  3  0  0  0  0  0  0
  159.5050  209.6830  153.9120 C   0  0  0  0  0  2  0  0  0  0  0  0
  156.4700  213.0790  149.6960 C   0  0  0  0  0  2  0  0  0  0  0  0
  157.5540  213.7150  148.8540 C   0  0  0  0  0  2  0  0  0  0  0  0
  157.9290  212.8340  150.0300 C   0  0  0  0  0  3  0  0  0  0  0  0
  155.3640  210.4790  155.9640 O   0  0  0  0  0  1  0  0  0  0  0  0
  155.9760  211.0100  154.8780 N   0  0  0  0  0  2  0  0  0  0  0  0
  2 11  1  0  0  0  0
  2  5  1  6  0  0  0
  3 14  1  0  0  0  0
  4 16  1  1  0  0  0
  4 12  1  0  0  0  0
  5  4  1  0  0  0  0
  6 18  1  0  0  0  0
  7 22  1  6  0  0  0
  7  9  1  0  0  0  0
  8 10  1  0  0  0  0
  8 15  2  0  0  0  0
  9 18  1  1  0  0  0
  9 20  1  0  0  0  0
 10 19  1  0  0  0  0
 11  1  1  1  0  0  0
 11  7  1  0  0  0  0
 12 27  1  6  0  0  0
 12 20  1  0  0  0  0
 13  1  1  0  0  0  0
 14 25  1  6  0  0  0
 14  2  1  0  0  0  0
 17 10  2  0  0  0  0
 19 13  2  0  0  0  0
 21 15  1  6  0  0  0
 21  3  1  0  0  0  0
 21 13  1  0  0  0  0
 22  6  1  0  0  0  0
 23 25  1  0  0  0  0
 24 23  1  0  0  0  0
 24 25  1  0  0  0  0
 27 26  1  0  0  0  0
M  END
>  <MODEL>
5

>  <REMARK>
 VINA RESULT:      -1.9     12.515     14.798
  Name = 
  2 active torsions:
  status: ('A' for Active; 'I' for Inactive)
    1  A    between atoms: C_14  and  C_19
    2  A    between atoms: N_16  and  C_17
                            x       y       z     vdW  Elec       q    Type
                         _______ _______ _______ _____ _____    ______ ____

>  <TORSDO>
F 2

$$$$
=
 OpenBabel11052423213D

 27 31  0  0  1  0  0  0  0  0999 V2000
  161.5570  207.7360  153.3550 C   0  0  0  0  0  2  0  0  0  0  0  0
  161.3070  210.2250  153.7670 C   0  0  1  0  0  3  0  0  0  0  0  0
  162.9470  209.9540  151.8280 C   0  0  0  0  0  2  0  0  0  0  0  0
  161.0660  211.5980  155.6260 C   0  0  1  0  0  3  0  0  0  0  0  0
  160.5150  211.2160  154.3750 O   0  0  0  0  0  0  0  0  0  0  0  0
  159.7530  206.5790  156.4160 C   0  0  0  0  0  2  0  0  0  0  0  0
  160.0430  208.5990  155.1530 N   0  0  1  0  0  0  0  0  0  0  0  0
  161.6840  207.9470  149.0020 C   0  0  0  0  0  3  0  0  0  0  0  0
  161.1160  208.5280  156.1500 C   0  0  2  0  0  3  0  0  0  0  0  0
  160.8170  206.9940  149.7040 C   0  0  0  0  0  0  0  0  0  0  0  0
  160.6050  208.8520  153.8150 C   0  0  2  0  0  3  0  0  0  0  0  0
  160.3780  210.9340  156.8300 C   0  0  2  0  0  3  0  0  0  0  0  0
  161.6490  207.7350  151.8690 C   0  0  0  0  0  0  0  0  0  0  0  0
  161.7010  210.6840  152.3530 C   0  0  1  0  0  3  0  0  0  0  0  0
  162.5380  208.7070  149.6870 C   0  0  0  0  0  3  0  0  0  0  0  0
  162.4660  211.5340  155.6930 O   0  0  0  0  0  1  0  0  0  0  0  0
  160.0630  206.2250  149.0520 O   0  0  0  0  0  0  0  0  0  0  0  0
  161.1090  207.1380  156.7500 C   0  0  0  0  0  2  0  0  0  0  0  0
  160.8010  206.9750  151.1710 C   0  0  0  0  0  3  0  0  0  0  0  0
  160.9200  209.5620  157.2610 C   0  0  0  0  0  2  0  0  0  0  0  0
  162.7060  208.5820  151.1830 C   0  0  1  0  0  3  0  0  0  0  0  0
  159.3360  207.3200  155.1680 C   0  0  0  0  0  2  0  0  0  0  0  0
  159.7100  211.9770  151.6010 C   0  0  0  0  0  2  0  0  0  0  0  0
  160.6860  211.9210  150.4460 C   0  0  0  0  0  2  0  0  0  0  0  0
  160.5330  210.7250  151.3660 C   0  0  0  0  0  3  0  0  0  0  0  0
  158.4700  212.1450  156.8830 O   0  0  0  0  0  1  0  0  0  0  0  0
  158.9330  210.8910  156.6630 N   0  0  0  0  0  2  0  0  0  0  0  0
  2 11  1  0  0  0  0
  2  5  1  6  0  0  0
  3 14  1  0  0  0  0
  4 16  1  6  0  0  0
  4 12  1  0  0  0  0
  5  4  1  0  0  0  0
  6 18  1  0  0  0  0
  7 22  1  6  0  0  0
  7  9  1  0  0  0  0
  8 15  2  0  0  0  0
  8 10  1  0  0  0  0
  9 18  1  1  0  0  0
  9 20  1  0  0  0  0
 10 19  1  0  0  0  0
 11  1  1  1  0  0  0
 11  7  1  0  0  0  0
 12 27  1  6  0  0  0
 12 20  1  0  0  0  0
 13  1  1  0  0  0  0
 14 25  1  6  0  0  0
 14  2  1  0  0  0  0
 17 10  2  0  0  0  0
 19 13  2  0  0  0  0
 21 15  1  6  0  0  0
 21  3  1  0  0  0  0
 21 13  1  0  0  0  0
 22  6  1  0  0  0  0
 24 25  1  0  0  0  0
 24 23  1  0  0  0  0
 25 23  1  0  0  0  0
 27 26  1  0  0  0  0
M  END
>  <MODEL>
6

>  <REMARK>
 VINA RESULT:      -1.9     14.154     15.794
  Name = 
  2 active torsions:
  status: ('A' for Active; 'I' for Inactive)
    1  A    between atoms: C_14  and  C_19
    2  A    between atoms: N_16  and  C_17
                            x       y       z     vdW  Elec       q    Type
                         _______ _______ _______ _____ _____    ______ ____

>  <TORSDO>
F 2

$$$$
=
 OpenBabel11052423213D

 27 31  0  0  1  0  0  0  0  0999 V2000
  161.2320  208.3170  148.7600 C   0  0  0  0  0  2  0  0  0  0  0  0
  161.1360  207.8900  151.2580 C   0  0  1  0  0  3  0  0  0  0  0  0
  159.8950  205.9650  150.1260 C   0  0  0  0  0  2  0  0  0  0  0  0
  160.9010  209.1890  153.1690 C   0  0  1  0  0  3  0  0  0  0  0  0
  161.6990  208.2220  152.5030 O   0  0  0  0  0  0  0  0  0  0  0  0
  162.5950  211.7920  148.9390 C   0  0  0  0  0  2  0  0  0  0  0  0
  162.3100  209.8930  150.3800 N   0  0  1  0  0  0  0  0  0  0  0  0
  161.8380  204.1710  147.5540 C   0  0  0  0  0  3  0  0  0  0  0  0
  161.0950  210.7110  150.4590 C   0  0  2  0  0  3  0  0  0  0  0  0
  162.6690  205.2590  147.0240 C   0  0  0  0  0  0  0  0  0  0  0  0
  161.9640  208.4890  150.1010 C   0  0  2  0  0  3  0  0  0  0  0  0
  161.4380  210.6240  153.0420 C   0  0  2  0  0  3  0  0  0  0  0  0
  161.3990  206.9200  148.2730 C   0  0  0  0  0  0  0  0  0  0  0  0
  160.9450  206.3660  151.1740 C   0  0  1  0  0  3  0  0  0  0  0  0
  160.8010  204.4430  148.3460 C   0  0  0  0  0  3  0  0  0  0  0  0
  159.5260  209.0950  152.9070 O   0  0  0  0  0  1  0  0  0  0  0  0
  163.6030  205.0070  146.2190 O   0  0  0  0  0  0  0  0  0  0  0  0
  161.1490  211.7420  149.3510 C   0  0  0  0  0  2  0  0  0  0  0  0
  162.4330  206.6340  147.4760 C   0  0  0  0  0  3  0  0  0  0  0  0
  160.9830  211.4210  151.8100 C   0  0  0  0  0  2  0  0  0  0  0  0
  160.3920  205.8590  148.6770 C   0  0  1  0  0  3  0  0  0  0  0  0
  163.1380  210.4300  149.3020 C   0  0  0  0  0  2  0  0  0  0  0  0
  162.8040  205.3430  152.4790 C   0  0  0  0  0  2  0  0  0  0  0  0
  162.0830  204.2290  151.7520 C   0  0  0  0  0  2  0  0  0  0  0  0
  162.2550  205.5800  151.0850 C   0  0  0  0  0  3  0  0  0  0  0  0
  163.1610  210.6450  154.5060 O   0  0  0  0  0  1  0  0  0  0  0  0
  162.8860  210.6660  153.1790 N   0  0  0  0  0  2  0  0  0  0  0  0
  2  5  1  1  0  0  0
  3 14  1  0  0  0  0
  4 16  1  6  0  0  0
  5  4  1  0  0  0  0
  6 22  1  0  0  0  0
  6 18  1  0  0  0  0
  7 22  1  6  0  0  0
  7  9  1  0  0  0  0
  8 15  2  0  0  0  0
  9 18  1  6  0  0  0
  9 20  1  0  0  0  0
 10 19  1  0  0  0  0
 10  8  1  0  0  0  0
 11  1  1  6  0  0  0
 11  7  1  0  0  0  0
 11  2  1  0  0  0  0
 12  4  1  0  0  0  0
 12 27  1  6  0  0  0
 13 21  1  0  0  0  0
 13  1  1  0  0  0  0
 14 25  1  6  0  0  0
 14  2  1  0  0  0  0
 17 10  2  0  0  0  0
 19 13  2  0  0  0  0
 20 12  1  0  0  0  0
 21 15  1  1  0  0  0
 21  3  1  0  0  0  0
 24 23  1  0  0  0  0
 25 24  1  0  0  0  0
 25 23  1  0  0  0  0
 27 26  1  0  0  0  0
M  END
>  <MODEL>
7

>  <REMARK>
 VINA RESULT:      -1.6     11.435     13.467
  Name = 
  2 active torsions:
  status: ('A' for Active; 'I' for Inactive)
    1  A    between atoms: C_14  and  C_19
    2  A    between atoms: N_16  and  C_17
                            x       y       z     vdW  Elec       q    Type
                         _______ _______ _______ _____ _____    ______ ____

>  <TORSDO>
F 2

$$$$
=
 OpenBabel11052423213D

 27 31  0  0  1  0  0  0  0  0999 V2000
  161.9470  210.3160  153.3370 C   0  0  0  0  0  2  0  0  0  0  0  0
  161.4520  207.8390  153.5610 C   0  0  1  0  0  3  0  0  0  0  0  0
  162.3000  208.6370  155.8340 C   0  0  0  0  0  2  0  0  0  0  0  0
  161.6750  205.9600  152.2130 C   0  0  1  0  0  3  0  0  0  0  0  0
  160.7800  206.7450  152.9870 O   0  0  0  0  0  0  0  0  0  0  0  0
  161.5900  210.5230  149.6230 C   0  0  0  0  0  2  0  0  0  0  0  0
  161.0640  208.9970  151.4000 N   0  0  1  0  0  0  0  0  0  0  0  0
  160.4530  211.4930  157.2610 C   0  0  0  0  0  3  0  0  0  0  0  0
  162.4210  208.6980  150.9300 C   0  0  2  0  0  3  0  0  0  0  0  0
  160.0700  212.2130  156.0410 C   0  0  0  0  0  0  0  0  0  0  0  0
  161.0540  209.1570  152.8640 C   0  0  2  0  0  3  0  0  0  0  0  0
  161.5900  206.2380  150.7030 C   0  0  2  0  0  3  0  0  0  0  0  0
  161.4940  210.7840  154.6760 C   0  0  0  0  0  0  0  0  0  0  0  0
  161.2250  207.8360  155.0820 C   0  0  1  0  0  3  0  0  0  0  0  0
  161.3580  210.5160  157.2070 C   0  0  0  0  0  3  0  0  0  0  0  0
  162.9940  205.9340  152.6900 O   0  0  0  0  0  1  0  0  0  0  0  0
  159.2710  213.1830  156.1030 O   0  0  0  0  0  0  0  0  0  0  0  0
  162.8620  209.8240  150.0190 C   0  0  0  0  0  2  0  0  0  0  0  0
  160.5890  211.7650  154.7430 C   0  0  0  0  0  3  0  0  0  0  0  0
  162.4700  207.3750  150.1630 C   0  0  0  0  0  2  0  0  0  0  0  0
  162.0740  210.1520  155.9270 C   0  0  1  0  0  3  0  0  0  0  0  0
  160.6330  210.2360  150.7560 C   0  0  0  0  0  2  0  0  0  0  0  0
  159.0170  206.8800  155.7210 C   0  0  0  0  0  2  0  0  0  0  0  0
  159.5400  207.6620  156.9060 C   0  0  0  0  0  2  0  0  0  0  0  0
  159.7910  208.1650  155.4970 C   0  0  0  0  0  3  0  0  0  0  0  0
  160.1970  206.2340  148.9230 O   0  0  0  0  0  1  0  0  0  0  0  0
  160.2110  206.3980  150.2670 N   0  0  0  0  0  2  0  0  0  0  0  0
  1 13  1  0  0  0  0
  2  5  1  6  0  0  0
  2 14  1  0  0  0  0
  4 16  1  1  0  0  0
  4  5  1  0  0  0  0
  6 18  1  0  0  0  0
  6 22  1  0  0  0  0
  7 22  1  6  0  0  0
  7 11  1  0  0  0  0
  9 18  1  6  0  0  0
  9  7  1  0  0  0  0
 10 17  2  0  0  0  0
 10  8  1  0  0  0  0
 11  1  1  6  0  0  0
 11  2  1  0  0  0  0
 12 27  1  1  0  0  0
 12  4  1  0  0  0  0
 13 19  2  0  0  0  0
 13 21  1  0  0  0  0
 14 25  1  6  0  0  0
 14  3  1  0  0  0  0
 15  8  2  0  0  0  0
 19 10  1  0  0  0  0
 20 12  1  0  0  0  0
 20  9  1  0  0  0  0
 21  3  1  6  0  0  0
 21 15  1  0  0  0  0
 23 24  1  0  0  0  0
 25 23  1  0  0  0  0
 25 24  1  0  0  0  0
 26 27  1  0  0  0  0
M  END
>  <MODEL>
8

>  <REMARK>
 VINA RESULT:      -1.5     14.176     16.001
  Name = 
  2 active torsions:
  status: ('A' for Active; 'I' for Inactive)
    1  A    between atoms: C_14  and  C_19
    2  A    between atoms: N_16  and  C_17
                            x       y       z     vdW  Elec       q    Type
                         _______ _______ _______ _____ _____    ______ ____

>  <TORSDO>
F 2

$$$$
=
 OpenBabel11052423213D

 27 31  0  0  1  0  0  0  0  0999 V2000
  161.6130  203.5270  149.1200 C   0  0  0  0  0  2  0  0  0  0  0  0
  161.7700  205.9920  148.5440 C   0  0  1  0  0  3  0  0  0  0  0  0
  162.7160  204.7000  146.5530 C   0  0  0  0  0  2  0  0  0  0  0  0
  162.2450  207.9530  149.6950 C   0  0  1  0  0  3  0  0  0  0  0  0
  161.3080  207.2800  148.8680 O   0  0  0  0  0  0  0  0  0  0  0  0
  160.6900  203.9540  152.7160 C   0  0  0  0  0  2  0  0  0  0  0  0
  160.8080  205.2790  150.7190 N   0  0  1  0  0  0  0  0  0  0  0  0
  160.4560  202.1440  145.1510 C   0  0  0  0  0  3  0  0  0  0  0  0
  162.1160  205.3370  151.3810 C   0  0  2  0  0  3  0  0  0  0  0  0
  159.7400  201.7140  146.3580 C   0  0  0  0  0  0  0  0  0  0  0  0
  160.9690  204.9110  149.3010 C   0  0  2  0  0  3  0  0  0  0  0  0
  161.8810  207.9260  151.1880 C   0  0  2  0  0  3  0  0  0  0  0  0
  161.2570  202.9790  147.7830 C   0  0  0  0  0  0  0  0  0  0  0  0
  161.7700  205.8210  147.0150 C   0  0  1  0  0  3  0  0  0  0  0  0
  161.5530  202.8940  145.2530 C   0  0  0  0  0  3  0  0  0  0  0  0
  163.5860  207.6160  149.4540 O   0  0  0  0  0  1  0  0  0  0  0  0
  158.7480  200.9470  146.2650 O   0  0  0  0  0  0  0  0  0  0  0  0
  162.1370  204.2880  152.4720 C   0  0  0  0  0  2  0  0  0  0  0  0
  160.1610  202.2230  147.6680 C   0  0  0  0  0  3  0  0  0  0  0  0
  162.3740  206.7150  151.9950 C   0  0  0  0  0  2  0  0  0  0  0  0
  162.1460  203.2760  146.5890 C   0  0  1  0  0  3  0  0  0  0  0  0
  160.0030  204.2750  151.4110 C   0  0  0  0  0  2  0  0  0  0  0  0
  160.0810  207.0560  145.6650 C   0  0  0  0  0  2  0  0  0  0  0  0
  160.4830  205.8240  144.8850 C   0  0  0  0  0  2  0  0  0  0  0  0
  160.3730  205.7600  146.3960 C   0  0  0  0  0  3  0  0  0  0  0  0
  160.3300  209.0520  152.3880 O   0  0  0  0  0  1  0  0  0  0  0  0
  160.4560  208.1400  151.3940 N   0  0  0  0  0  2  0  0  0  0  0  0
  2  5  1  6  0  0  0
  2 11  1  0  0  0  0
  3 21  1  0  0  0  0
  3 14  1  0  0  0  0
  4 16  1  1  0  0  0
  4 12  1  0  0  0  0
  5  4  1  0  0  0  0
  7  9  1  0  0  0  0
  7 22  1  1  0  0  0
  8 15  2  0  0  0  0
  8 10  1  0  0  0  0
  9 20  1  1  0  0  0
  9 18  1  0  0  0  0
 10 19  1  0  0  0  0
 11  1  1  1  0  0  0
 11  7  1  0  0  0  0
 12 27  1  6  0  0  0
 12 20  1  0  0  0  0
 13  1  1  0  0  0  0
 14 25  1  1  0  0  0
 14  2  1  0  0  0  0
 17 10  2  0  0  0  0
 18  6  1  0  0  0  0
 19 13  2  0  0  0  0
 21 15  1  6  0  0  0
 21 13  1  0  0  0  0
 22  6  1  0  0  0  0
 23 25  1  0  0  0  0
 24 23  1  0  0  0  0
 24 25  1  0  0  0  0
 27 26  1  0  0  0  0
M  END
>  <MODEL>
9

>  <REMARK>
 VINA RESULT:      -1.3     10.802     12.706
  Name = 
  2 active torsions:
  status: ('A' for Active; 'I' for Inactive)
    1  A    between atoms: C_14  and  C_19
    2  A    between atoms: N_16  and  C_17
                            x       y       z     vdW  Elec       q    Type
                         _______ _______ _______ _____ _____    ______ ____

>  <TORSDO>
F 2

$$$$
