=
 OpenBabel11052422163D

 25 29  0  0  1  0  0  0  0  0999 V2000
  160.9090  203.8380  150.4430 C   0  0  0  0  0  0  0  0  0  0  0  0
  161.6480  203.6740  151.5330 C   0  0  0  0  0  0  0  0  0  0  0  0
  162.5670  202.5360  151.8170 C   0  0  0  0  0  1  0  0  0  0  0  0
  160.1270  205.1050  150.5560 C   0  0  0  0  0  2  0  0  0  0  0  0
  160.5390  205.6570  151.9240 C   0  0  1  0  0  3  0  0  0  0  0  0
  161.4710  204.7110  152.4270 O   0  0  0  0  0  0  0  0  0  0  0  0
  161.1350  203.2690  147.9500 C   0  0  0  0  0  0  0  0  0  0  0  0
  160.7250  200.9830  147.5600 C   0  0  0  0  0  3  0  0  0  0  0  0
  161.6170  204.4700  147.2270 C   0  0  1  0  0  3  0  0  0  0  0  0
  161.1080  205.9870  144.8310 C   0  0  0  0  0  3  0  0  0  0  0  0
  160.4980  201.2870  149.2150 S   0  0  0  0  0  0  0  0  0  0  0  0
  161.6890  203.8850  145.8310 C   0  0  0  0  0  0  0  0  0  0  0  0
  161.6690  204.7800  144.6710 C   0  0  0  0  0  3  0  0  0  0  0  0
  160.4850  206.3740  146.1260 C   0  0  0  0  0  3  0  0  0  0  0  0
  161.0930  202.2260  147.0690 C   0  0  0  0  0  0  0  0  0  0  0  0
  161.3990  202.6190  145.7430 N   0  0  0  0  0  0  0  0  0  0  0  0
  160.6630  205.6360  147.2340 C   0  0  0  0  0  3  0  0  0  0  0  0
  160.8490  202.9460  149.2650 C   0  0  0  0  0  0  0  0  0  0  0  0
  161.6200  209.2040  152.7450 C   0  0  0  0  0  0  0  0  0  0  0  0
  161.1840  206.9980  151.7800 C   0  0  0  0  0  0  0  0  0  0  0  0
  161.2740  207.9260  152.9300 C   0  0  0  0  0  3  0  0  0  0  0  0
  161.7380  210.2800  154.1190 Cl  0  0  0  0  0  0  0  0  0  0  0  0
  161.6730  207.3640  150.5900 C   0  0  0  0  0  3  0  0  0  0  0  0
  161.8100  209.7430  151.3520 C   0  0  0  0  0  2  0  0  0  0  0  0
  162.4010  208.6720  150.4310 C   0  0  0  0  0  2  0  0  0  0  0  0
  1  4  1  0  0  0  0
  1  2  2  0  0  0  0
  2  3  1  0  0  0  0
  2  6  1  0  0  0  0
  4  5  1  0  0  0  0
  5 20  1  6  0  0  0
  5  6  1  0  0  0  0
  7 18  2  0  0  0  0
  8 11  1  0  0  0  0
  9 17  1  6  0  0  0
  9  7  1  0  0  0  0
 10 14  1  0  0  0  0
 11 18  1  0  0  0  0
 12  9  1  0  0  0  0
 13 10  2  0  0  0  0
 13 12  1  0  0  0  0
 14 17  2  0  0  0  0
 15  8  2  0  0  0  0
 15  7  1  0  0  0  0
 16 12  2  0  0  0  0
 16 15  1  0  0  0  0
 18  1  1  0  0  0  0
 19 21  2  0  0  0  0
 19 22  1  0  0  0  0
 20 21  1  0  0  0  0
 23 20  2  0  0  0  0
 24 19  1  0  0  0  0
 25 23  1  0  0  0  0
 25 24  1  0  0  0  0
M  END
>  <MODEL>
1

>  <REMARK>
 VINA RESULT:      -8.4      0.000      0.000
  Name = 
  2 active torsions:
  status: ('A' for Active; 'I' for Inactive)
    1  A    between atoms: C_3  and  C_24
    2  A    between atoms: C_6  and  C_20
                            x       y       z     vdW  Elec       q    Type
                         _______ _______ _______ _____ _____    ______ ____

>  <TORSDO>
F 2

$$$$
=
 OpenBabel11052422163D

 25 29  0  0  1  0  0  0  0  0999 V2000
  161.3320  205.4970  150.6120 C   0  0  0  0  0  0  0  0  0  0  0  0
  161.0550  206.6990  150.1240 C   0  0  0  0  0  0  0  0  0  0  0  0
  160.3900  206.9980  148.8260 C   0  0  0  0  0  1  0  0  0  0  0  0
  162.0060  205.6370  151.9360 C   0  0  0  0  0  2  0  0  0  0  0  0
  162.0810  207.1540  152.1390 C   0  0  1  0  0  3  0  0  0  0  0  0
  161.4690  207.7010  150.9800 O   0  0  0  0  0  0  0  0  0  0  0  0
  161.2140  203.8250  148.6670 C   0  0  0  0  0  0  0  0  0  0  0  0
  160.4500  201.7210  149.4010 C   0  0  0  0  0  3  0  0  0  0  0  0
  161.7810  204.4600  147.4540 C   0  0  1  0  0  3  0  0  0  0  0  0
  161.2410  204.7810  144.6420 C   0  0  0  0  0  3  0  0  0  0  0  0
  160.4420  202.7800  150.7290 S   0  0  0  0  0  0  0  0  0  0  0  0
  161.6240  203.3010  146.4910 C   0  0  0  0  0  0  0  0  0  0  0  0
  161.6070  203.5580  145.0490 C   0  0  0  0  0  3  0  0  0  0  0  0
  160.8170  205.8170  145.6230 C   0  0  0  0  0  3  0  0  0  0  0  0
  160.9340  202.5200  148.3760 C   0  0  0  0  0  0  0  0  0  0  0  0
  161.1520  202.2060  147.0130 N   0  0  0  0  0  0  0  0  0  0  0  0
  161.0060  205.6470  146.9420 C   0  0  0  0  0  3  0  0  0  0  0  0
  161.0250  204.1910  149.9890 C   0  0  0  0  0  0  0  0  0  0  0  0
  160.5040  209.3750  154.7840 C   0  0  0  0  0  0  0  0  0  0  0  0
  161.3310  207.5610  153.3660 C   0  0  0  0  0  0  0  0  0  0  0  0
  160.9470  208.9740  153.5900 C   0  0  0  0  0  3  0  0  0  0  0  0
  160.0390  211.0440  155.0230 Cl  0  0  0  0  0  0  0  0  0  0  0  0
  161.0170  206.6340  154.2780 C   0  0  0  0  0  3  0  0  0  0  0  0
  160.4990  208.4220  155.9500 C   0  0  0  0  0  2  0  0  0  0  0  0
  160.1920  206.9950  155.4840 C   0  0  0  0  0  2  0  0  0  0  0  0
  1  4  1  0  0  0  0
  2  1  2  0  0  0  0
  2  6  1  0  0  0  0
  3  2  1  0  0  0  0
  4  5  1  0  0  0  0
  5 20  1  1  0  0  0
  6  5  1  0  0  0  0
  7 18  2  0  0  0  0
  8 11  1  0  0  0  0
  9 17  1  6  0  0  0
  9  7  1  0  0  0  0
 10 13  2  0  0  0  0
 10 14  1  0  0  0  0
 12 16  2  0  0  0  0
 12  9  1  0  0  0  0
 13 12  1  0  0  0  0
 14 17  2  0  0  0  0
 15  7  1  0  0  0  0
 15  8  2  0  0  0  0
 16 15  1  0  0  0  0
 18  1  1  0  0  0  0
 18 11  1  0  0  0  0
 19 22  1  0  0  0  0
 19 24  1  0  0  0  0
 20 21  1  0  0  0  0
 20 23  2  0  0  0  0
 21 19  2  0  0  0  0
 23 25  1  0  0  0  0
 25 24  1  0  0  0  0
M  END
>  <MODEL>
2

>  <REMARK>
 VINA RESULT:      -7.6      1.640      2.654
  Name = 
  2 active torsions:
  status: ('A' for Active; 'I' for Inactive)
    1  A    between atoms: C_3  and  C_24
    2  A    between atoms: C_6  and  C_20
                            x       y       z     vdW  Elec       q    Type
                         _______ _______ _______ _____ _____    ______ ____

>  <TORSDO>
F 2

$$$$
=
 OpenBabel11052422163D

 25 29  0  0  1  0  0  0  0  0999 V2000
  162.0680  207.3950  149.9810 C   0  0  0  0  0  0  0  0  0  0  0  0
  161.9260  208.7100  149.8880 C   0  0  0  0  0  0  0  0  0  0  0  0
  161.6210  209.4840  148.6520 C   0  0  0  0  0  1  0  0  0  0  0  0
  162.3750  207.0240  151.3940 C   0  0  0  0  0  2  0  0  0  0  0  0
  162.3940  208.3730  152.1200 C   0  0  1  0  0  3  0  0  0  0  0  0
  162.1040  209.3270  151.1100 O   0  0  0  0  0  0  0  0  0  0  0  0
  161.4310  205.1180  148.9800 C   0  0  0  0  0  0  0  0  0  0  0  0
  161.7750  205.0890  146.6500 C   0  0  0  0  0  3  0  0  0  0  0  0
  160.8320  204.2780  150.0440 C   0  0  1  0  0  3  0  0  0  0  0  0
  160.9320  201.5950  151.0910 C   0  0  0  0  0  3  0  0  0  0  0  0
  162.2740  206.6010  147.2400 S   0  0  0  0  0  0  0  0  0  0  0  0
  160.5300  203.0430  149.2200 C   0  0  0  0  0  0  0  0  0  0  0  0
  160.3540  201.7520  149.8910 C   0  0  0  0  0  3  0  0  0  0  0  0
  161.7610  202.6780  151.6860 C   0  0  0  0  0  3  0  0  0  0  0  0
  161.3280  204.4470  147.7950 C   0  0  0  0  0  0  0  0  0  0  0  0
  160.8040  203.1400  147.9510 N   0  0  0  0  0  0  0  0  0  0  0  0
  161.7710  203.9150  151.1650 C   0  0  0  0  0  3  0  0  0  0  0  0
  161.9330  206.4050  148.8900 C   0  0  0  0  0  0  0  0  0  0  0  0
  159.8350  209.7580  154.5590 C   0  0  0  0  0  0  0  0  0  0  0  0
  161.3520  208.4120  153.1910 C   0  0  0  0  0  0  0  0  0  0  0  0
  160.5790  209.6470  153.4550 C   0  0  0  0  0  3  0  0  0  0  0  0
  158.9160  211.2190  154.8450 Cl  0  0  0  0  0  0  0  0  0  0  0  0
  161.1270  207.3170  153.9250 C   0  0  0  0  0  3  0  0  0  0  0  0
  159.8630  208.6740  155.6040 C   0  0  0  0  0  2  0  0  0  0  0  0
  160.0290  207.2970  154.9540 C   0  0  0  0  0  2  0  0  0  0  0  0
  1  4  1  0  0  0  0
  2  1  2  0  0  0  0
  2  6  1  0  0  0  0
  3  2  1  0  0  0  0
  4  5  1  0  0  0  0
  5 20  1  1  0  0  0
  6  5  1  0  0  0  0
  7  9  1  0  0  0  0
  8 11  1  0  0  0  0
  8 15  2  0  0  0  0
  9 17  1  1  0  0  0
 10 14  1  0  0  0  0
 11 18  1  0  0  0  0
 12 13  1  0  0  0  0
 12  9  1  0  0  0  0
 13 10  2  0  0  0  0
 15 16  1  0  0  0  0
 15  7  1  0  0  0  0
 16 12  2  0  0  0  0
 17 14  2  0  0  0  0
 18  7  2  0  0  0  0
 18  1  1  0  0  0  0
 19 22  1  0  0  0  0
 19 24  1  0  0  0  0
 20 21  1  0  0  0  0
 20 23  2  0  0  0  0
 21 19  2  0  0  0  0
 23 25  1  0  0  0  0
 25 24  1  0  0  0  0
M  END
>  <MODEL>
3

>  <REMARK>
 VINA RESULT:      -7.5      2.228      4.468
  Name = 
  2 active torsions:
  status: ('A' for Active; 'I' for Inactive)
    1  A    between atoms: C_3  and  C_24
    2  A    between atoms: C_6  and  C_20
                            x       y       z     vdW  Elec       q    Type
                         _______ _______ _______ _____ _____    ______ ____

>  <TORSDO>
F 2

$$$$
=
 OpenBabel11052422163D

 25 29  0  0  1  0  0  0  0  0999 V2000
  161.2300  208.1080  153.5770 C   0  0  0  0  0  0  0  0  0  0  0  0
  160.8200  207.0120  154.2020 C   0  0  0  0  0  0  0  0  0  0  0  0
  159.9830  206.9530  155.4330 C   0  0  0  0  0  1  0  0  0  0  0  0
  162.0510  207.7290  152.3890 C   0  0  0  0  0  2  0  0  0  0  0  0
  162.0540  206.1980  152.4320 C   0  0  1  0  0  3  0  0  0  0  0  0
  161.2720  205.8700  153.5710 O   0  0  0  0  0  0  0  0  0  0  0  0
  160.6290  210.5570  153.0960 C   0  0  0  0  0  0  0  0  0  0  0  0
  160.3450  211.7710  155.0950 C   0  0  0  0  0  3  0  0  0  0  0  0
  160.4400  210.7260  151.6360 C   0  0  1  0  0  3  0  0  0  0  0  0
  161.1350  212.5140  149.4860 C   0  0  0  0  0  3  0  0  0  0  0  0
  160.7970  210.1840  155.4980 S   0  0  0  0  0  0  0  0  0  0  0  0
  160.0810  212.1980  151.6180 C   0  0  0  0  0  0  0  0  0  0  0  0
  160.2470  212.9660  150.3820 C   0  0  0  0  0  3  0  0  0  0  0  0
  161.9560  211.3050  149.7690 C   0  0  0  0  0  3  0  0  0  0  0  0
  160.2980  211.7320  153.7100 C   0  0  0  0  0  0  0  0  0  0  0  0
  159.9960  212.7630  152.7870 N   0  0  0  0  0  0  0  0  0  0  0  0
  161.6790  210.5010  150.8080 C   0  0  0  0  0  3  0  0  0  0  0  0
  160.9310  209.5080  153.9470 C   0  0  0  0  0  0  0  0  0  0  0  0
  160.8310  203.6470  149.8990 C   0  0  0  0  0  0  0  0  0  0  0  0
  161.4360  205.6320  151.1940 C   0  0  0  0  0  0  0  0  0  0  0  0
  161.1480  204.1850  151.0800 C   0  0  0  0  0  3  0  0  0  0  0  0
  160.4780  201.9370  149.7890 Cl  0  0  0  0  0  0  0  0  0  0  0  0
  161.1540  206.4490  150.1730 C   0  0  0  0  0  3  0  0  0  0  0  0
  160.8770  204.4850  148.6490 C   0  0  0  0  0  2  0  0  0  0  0  0
  160.4560  205.9270  148.9450 C   0  0  0  0  0  2  0  0  0  0  0  0
  1 18  1  0  0  0  0
  1  2  2  0  0  0  0
  2  3  1  0  0  0  0
  4  5  1  0  0  0  0
  4  1  1  0  0  0  0
  5 20  1  6  0  0  0
  5  6  1  0  0  0  0
  6  2  1  0  0  0  0
  7 15  1  0  0  0  0
  7 18  2  0  0  0  0
  8 11  1  0  0  0  0
  9 17  1  6  0  0  0
  9  7  1  0  0  0  0
 10 14  1  0  0  0  0
 10 13  2  0  0  0  0
 12  9  1  0  0  0  0
 12 16  2  0  0  0  0
 13 12  1  0  0  0  0
 14 17  2  0  0  0  0
 15  8  2  0  0  0  0
 16 15  1  0  0  0  0
 18 11  1  0  0  0  0
 19 21  2  0  0  0  0
 21 20  1  0  0  0  0
 22 19  1  0  0  0  0
 23 20  2  0  0  0  0
 24 25  1  0  0  0  0
 24 19  1  0  0  0  0
 25 23  1  0  0  0  0
M  END
>  <MODEL>
4

>  <REMARK>
 VINA RESULT:      -7.3      4.314      7.591
  Name = 
  2 active torsions:
  status: ('A' for Active; 'I' for Inactive)
    1  A    between atoms: C_3  and  C_24
    2  A    between atoms: C_6  and  C_20
                            x       y       z     vdW  Elec       q    Type
                         _______ _______ _______ _____ _____    ______ ____

>  <TORSDO>
F 2

$$$$
=
 OpenBabel11052422163D

 25 29  0  0  1  0  0  0  0  0999 V2000
  161.9680  208.2650  150.1900 C   0  0  0  0  0  0  0  0  0  0  0  0
  162.0050  209.5790  150.0100 C   0  0  0  0  0  0  0  0  0  0  0  0
  161.9430  210.2980  148.7080 C   0  0  0  0  0  1  0  0  0  0  0  0
  162.0620  207.9560  151.6470 C   0  0  0  0  0  2  0  0  0  0  0  0
  162.1670  209.3390  152.2980 C   0  0  1  0  0  3  0  0  0  0  0  0
  162.1170  210.2510  151.2110 O   0  0  0  0  0  0  0  0  0  0  0  0
  161.3850  205.9280  149.3010 C   0  0  0  0  0  0  0  0  0  0  0  0
  161.6560  205.8150  146.9640 C   0  0  0  0  0  3  0  0  0  0  0  0
  160.8510  205.1110  150.4160 C   0  0  1  0  0  3  0  0  0  0  0  0
  161.0840  202.4790  151.5650 C   0  0  0  0  0  3  0  0  0  0  0  0
  162.1170  207.3670  147.4770 S   0  0  0  0  0  0  0  0  0  0  0  0
  160.5690  203.8330  149.6530 C   0  0  0  0  0  0  0  0  0  0  0  0
  160.4640  202.5650  150.3800 C   0  0  0  0  0  3  0  0  0  0  0  0
  161.8900  203.6130  152.0900 C   0  0  0  0  0  3  0  0  0  0  0  0
  161.2690  205.2060  148.1470 C   0  0  0  0  0  0  0  0  0  0  0  0
  160.8000  203.8890  148.3730 N   0  0  0  0  0  0  0  0  0  0  0  0
  161.8380  204.8280  151.5200 C   0  0  0  0  0  3  0  0  0  0  0  0
  161.8350  207.2270  149.1440 C   0  0  0  0  0  0  0  0  0  0  0  0
  159.1070  210.9630  153.8530 C   0  0  0  0  0  0  0  0  0  0  0  0
  161.0220  209.5730  153.2290 C   0  0  0  0  0  0  0  0  0  0  0  0
  159.9820  210.5810  152.9180 C   0  0  0  0  0  3  0  0  0  0  0  0
  157.8760  212.1420  153.4600 Cl  0  0  0  0  0  0  0  0  0  0  0  0
  160.9470  208.8690  154.3640 C   0  0  0  0  0  3  0  0  0  0  0  0
  159.2400  210.4600  155.2660 C   0  0  0  0  0  2  0  0  0  0  0  0
  159.7650  209.0220  155.2840 C   0  0  0  0  0  2  0  0  0  0  0  0
  1  4  1  0  0  0  0
  2  1  2  0  0  0  0
  2  6  1  0  0  0  0
  3  2  1  0  0  0  0
  4  5  1  0  0  0  0
  5 20  1  1  0  0  0
  6  5  1  0  0  0  0
  7  9  1  0  0  0  0
  8 11  1  0  0  0  0
  8 15  2  0  0  0  0
  9 17  1  1  0  0  0
 10 14  1  0  0  0  0
 11 18  1  0  0  0  0
 12 13  1  0  0  0  0
 12  9  1  0  0  0  0
 13 10  2  0  0  0  0
 15 16  1  0  0  0  0
 15  7  1  0  0  0  0
 16 12  2  0  0  0  0
 17 14  2  0  0  0  0
 18  7  2  0  0  0  0
 18  1  1  0  0  0  0
 19 24  1  0  0  0  0
 20 23  2  0  0  0  0
 21 20  1  0  0  0  0
 21 19  2  0  0  0  0
 22 19  1  0  0  0  0
 23 25  1  0  0  0  0
 24 25  1  0  0  0  0
M  END
>  <MODEL>
5

>  <REMARK>
 VINA RESULT:      -7.3      2.599      4.944
  Name = 
  2 active torsions:
  status: ('A' for Active; 'I' for Inactive)
    1  A    between atoms: C_3  and  C_24
    2  A    between atoms: C_6  and  C_20
                            x       y       z     vdW  Elec       q    Type
                         _______ _______ _______ _____ _____    ______ ____

>  <TORSDO>
F 2

$$$$
=
 OpenBabel11052422163D

 25 29  0  0  1  0  0  0  0  0999 V2000
  160.9530  208.0770  152.4120 C   0  0  0  0  0  0  0  0  0  0  0  0
  161.2060  207.3270  153.4760 C   0  0  0  0  0  0  0  0  0  0  0  0
  162.0310  206.0870  153.5110 C   0  0  0  0  0  1  0  0  0  0  0  0
  160.0830  209.2250  152.8050 C   0  0  0  0  0  2  0  0  0  0  0  0
  159.8640  209.0080  154.3060 C   0  0  1  0  0  3  0  0  0  0  0  0
  160.5960  207.8300  154.6080 O   0  0  0  0  0  0  0  0  0  0  0  0
  161.2640  206.7450  150.2390 C   0  0  0  0  0  0  0  0  0  0  0  0
  162.4010  208.0200  148.6170 C   0  0  0  0  0  3  0  0  0  0  0  0
  160.5460  205.4550  150.3620 C   0  0  1  0  0  3  0  0  0  0  0  0
  160.9020  202.6440  149.8370 C   0  0  0  0  0  3  0  0  0  0  0  0
  162.2890  208.9470  150.0360 S   0  0  0  0  0  0  0  0  0  0  0  0
  160.8530  204.8890  148.9900 C   0  0  0  0  0  0  0  0  0  0  0  0
  160.7630  203.4430  148.7690 C   0  0  0  0  0  3  0  0  0  0  0  0
  161.1890  203.2110  151.1820 C   0  0  0  0  0  3  0  0  0  0  0  0
  161.7450  206.8490  148.9650 C   0  0  0  0  0  0  0  0  0  0  0  0
  161.5240  205.6770  148.2020 N   0  0  0  0  0  0  0  0  0  0  0  0
  161.0890  204.5280  151.4200 C   0  0  0  0  0  3  0  0  0  0  0  0
  161.4470  207.8640  151.0340 C   0  0  0  0  0  0  0  0  0  0  0  0
  162.1760  211.0790  156.4940 C   0  0  0  0  0  0  0  0  0  0  0  0
  160.3920  210.1660  155.0900 C   0  0  0  0  0  0  0  0  0  0  0  0
  161.7840  210.1720  155.5950 C   0  0  0  0  0  3  0  0  0  0  0  0
  163.8290  211.0790  157.0650 Cl  0  0  0  0  0  0  0  0  0  0  0  0
  159.5870  211.2030  155.3460 C   0  0  0  0  0  3  0  0  0  0  0  0
  161.1760  212.0340  157.0910 C   0  0  0  0  0  2  0  0  0  0  0  0
  160.1110  212.4200  156.0610 C   0  0  0  0  0  2  0  0  0  0  0  0
  1  4  1  0  0  0  0
  1  2  2  0  0  0  0
  2  3  1  0  0  0  0
  2  6  1  0  0  0  0
  4  5  1  0  0  0  0
  5  6  1  0  0  0  0
  5 20  1  1  0  0  0
  7  9  1  0  0  0  0
  7 18  2  0  0  0  0
  8 15  2  0  0  0  0
  8 11  1  0  0  0  0
  9 17  1  1  0  0  0
 10 14  1  0  0  0  0
 11 18  1  0  0  0  0
 12  9  1  0  0  0  0
 13 12  1  0  0  0  0
 13 10  2  0  0  0  0
 14 17  2  0  0  0  0
 15  7  1  0  0  0  0
 16 15  1  0  0  0  0
 16 12  2  0  0  0  0
 18  1  1  0  0  0  0
 19 22  1  0  0  0  0
 19 24  1  0  0  0  0
 20 23  2  0  0  0  0
 20 21  1  0  0  0  0
 21 19  2  0  0  0  0
 23 25  1  0  0  0  0
 25 24  1  0  0  0  0
M  END
>  <MODEL>
6

>  <REMARK>
 VINA RESULT:      -7.2      3.058      5.070
  Name = 
  2 active torsions:
  status: ('A' for Active; 'I' for Inactive)
    1  A    between atoms: C_3  and  C_24
    2  A    between atoms: C_6  and  C_20
                            x       y       z     vdW  Elec       q    Type
                         _______ _______ _______ _____ _____    ______ ____

>  <TORSDO>
F 2

$$$$
=
 OpenBabel11052422163D

 25 29  0  0  1  0  0  0  0  0999 V2000
  161.4370  206.7830  151.2660 C   0  0  0  0  0  0  0  0  0  0  0  0
  162.0930  206.3820  152.3470 C   0  0  0  0  0  0  0  0  0  0  0  0
  163.2560  205.4540  152.3860 C   0  0  0  0  0  1  0  0  0  0  0  0
  160.3330  207.7060  151.6630 C   0  0  0  0  0  2  0  0  0  0  0  0
  160.4560  207.7720  153.1890 C   0  0  1  0  0  3  0  0  0  0  0  0
  161.5610  206.9350  153.4960 O   0  0  0  0  0  0  0  0  0  0  0  0
  161.4130  205.2290  149.2220 C   0  0  0  0  0  0  0  0  0  0  0  0
  162.3310  206.2970  147.3330 C   0  0  0  0  0  3  0  0  0  0  0  0
  160.6980  203.9810  149.5770 C   0  0  1  0  0  3  0  0  0  0  0  0
  160.9260  201.1220  149.3040 C   0  0  0  0  0  3  0  0  0  0  0  0
  162.4380  207.3650  148.6490 S   0  0  0  0  0  0  0  0  0  0  0  0
  160.7970  203.2700  148.2430 C   0  0  0  0  0  0  0  0  0  0  0  0
  160.6510  201.8130  148.1890 C   0  0  0  0  0  3  0  0  0  0  0  0
  161.4100  201.8120  150.5300 C   0  0  0  0  0  3  0  0  0  0  0  0
  161.7100  205.1880  147.8890 C   0  0  0  0  0  0  0  0  0  0  0  0
  161.3620  203.9530  147.2910 N   0  0  0  0  0  0  0  0  0  0  0  0
  161.3690  203.1490  150.6400 C   0  0  0  0  0  3  0  0  0  0  0  0
  161.7270  206.4160  149.8630 C   0  0  0  0  0  0  0  0  0  0  0  0
  161.6370  210.6650  155.3470 C   0  0  0  0  0  0  0  0  0  0  0  0
  160.7230  209.1730  153.6370 C   0  0  0  0  0  0  0  0  0  0  0  0
  161.5980  209.4470  154.7990 C   0  0  0  0  0  3  0  0  0  0  0  0
  162.6910  210.9710  156.7090 Cl  0  0  0  0  0  0  0  0  0  0  0  0
  160.1490  210.1890  152.9830 C   0  0  0  0  0  3  0  0  0  0  0  0
  160.7060  211.7440  154.8620 C   0  0  0  0  0  2  0  0  0  0  0  0
  160.4610  211.6140  153.3560 C   0  0  0  0  0  2  0  0  0  0  0  0
  1  4  1  0  0  0  0
  1  2  2  0  0  0  0
  2  3  1  0  0  0  0
  2  6  1  0  0  0  0
  4  5  1  0  0  0  0
  5  6  1  0  0  0  0
  5 20  1  6  0  0  0
  7  9  1  0  0  0  0
  7 18  2  0  0  0  0
  8 15  2  0  0  0  0
  8 11  1  0  0  0  0
  9 17  1  1  0  0  0
 10 14  1  0  0  0  0
 11 18  1  0  0  0  0
 12  9  1  0  0  0  0
 13 12  1  0  0  0  0
 13 10  2  0  0  0  0
 14 17  2  0  0  0  0
 15  7  1  0  0  0  0
 16 15  1  0  0  0  0
 16 12  2  0  0  0  0
 18  1  1  0  0  0  0
 19 22  1  0  0  0  0
 20 21  1  0  0  0  0
 21 19  2  0  0  0  0
 23 25  1  0  0  0  0
 23 20  2  0  0  0  0
 24 19  1  0  0  0  0
 25 24  1  0  0  0  0
M  END
>  <MODEL>
7

>  <REMARK>
 VINA RESULT:      -7.2      2.238      3.882
  Name = 
  2 active torsions:
  status: ('A' for Active; 'I' for Inactive)
    1  A    between atoms: C_3  and  C_24
    2  A    between atoms: C_6  and  C_20
                            x       y       z     vdW  Elec       q    Type
                         _______ _______ _______ _____ _____    ______ ____

>  <TORSDO>
F 2

$$$$
=
 OpenBabel11052422163D

 25 29  0  0  1  0  0  0  0  0999 V2000
  161.0500  207.1530  150.5320 C   0  0  0  0  0  0  0  0  0  0  0  0
  161.5930  208.0770  149.7500 C   0  0  0  0  0  0  0  0  0  0  0  0
  162.5050  209.1740  150.1750 C   0  0  0  0  0  1  0  0  0  0  0  0
  160.1940  206.2440  149.7130 C   0  0  0  0  0  2  0  0  0  0  0  0
  160.3290  206.8090  148.2960 C   0  0  1  0  0  3  0  0  0  0  0  0
  161.2060  207.9170  148.4340 O   0  0  0  0  0  0  0  0  0  0  0  0
  160.8380  207.8560  152.9920 C   0  0  0  0  0  0  0  0  0  0  0  0
  161.7090  206.2030  154.4270 C   0  0  0  0  0  3  0  0  0  0  0  0
  160.0790  209.1270  153.0630 C   0  0  1  0  0  3  0  0  0  0  0  0
  160.1440  211.6970  154.3630 C   0  0  0  0  0  3  0  0  0  0  0  0
  161.9400  205.6900  152.8240 S   0  0  0  0  0  0  0  0  0  0  0  0
  160.0710  209.3080  154.5670 C   0  0  0  0  0  0  0  0  0  0  0  0
  159.8470  210.6410  155.1330 C   0  0  0  0  0  3  0  0  0  0  0  0
  160.7280  211.5140  153.0070 C   0  0  0  0  0  3  0  0  0  0  0  0
  161.0620  207.4190  154.2660 C   0  0  0  0  0  0  0  0  0  0  0  0
  160.6200  208.3420  155.2450 N   0  0  0  0  0  0  0  0  0  0  0  0
  160.7610  210.3070  152.4190 C   0  0  0  0  0  3  0  0  0  0  0  0
  161.2460  206.9930  151.9890 C   0  0  0  0  0  0  0  0  0  0  0  0
  161.3720  205.0920  145.0730 C   0  0  0  0  0  0  0  0  0  0  0  0
  160.9170  205.7900  147.3740 C   0  0  0  0  0  0  0  0  0  0  0  0
  161.0830  206.0760  145.9310 C   0  0  0  0  0  3  0  0  0  0  0  0
  161.5810  205.4530  143.3750 Cl  0  0  0  0  0  0  0  0  0  0  0  0
  161.2850  204.6010  147.8630 C   0  0  0  0  0  3  0  0  0  0  0  0
  161.4190  203.6640  145.5470 C   0  0  0  0  0  2  0  0  0  0  0  0
  161.9560  203.5840  146.9790 C   0  0  0  0  0  2  0  0  0  0  0  0
  1 18  1  0  0  0  0
  2  3  1  0  0  0  0
  2  1  2  0  0  0  0
  4  1  1  0  0  0  0
  5 20  1  6  0  0  0
  5  6  1  0  0  0  0
  5  4  1  0  0  0  0
  6  2  1  0  0  0  0
  7  9  1  0  0  0  0
  7 15  1  0  0  0  0
  9 17  1  6  0  0  0
  9 12  1  0  0  0  0
 10 13  2  0  0  0  0
 11  8  1  0  0  0  0
 12 13  1  0  0  0  0
 12 16  2  0  0  0  0
 14 10  1  0  0  0  0
 15  8  2  0  0  0  0
 15 16  1  0  0  0  0
 17 14  2  0  0  0  0
 18 11  1  0  0  0  0
 18  7  2  0  0  0  0
 19 24  1  0  0  0  0
 19 21  2  0  0  0  0
 20 23  2  0  0  0  0
 21 20  1  0  0  0  0
 22 19  1  0  0  0  0
 24 25  1  0  0  0  0
 25 23  1  0  0  0  0
M  END
>  <MODEL>
8

>  <REMARK>
 VINA RESULT:      -6.7      3.962      7.690
  Name = 
  2 active torsions:
  status: ('A' for Active; 'I' for Inactive)
    1  A    between atoms: C_3  and  C_24
    2  A    between atoms: C_6  and  C_20
                            x       y       z     vdW  Elec       q    Type
                         _______ _______ _______ _____ _____    ______ ____

>  <TORSDO>
F 2

$$$$
=
 OpenBabel11052422163D

 25 29  0  0  1  0  0  0  0  0999 V2000
  160.8840  208.4050  154.7220 C   0  0  0  0  0  0  0  0  0  0  0  0
  160.3440  207.2240  154.9950 C   0  0  0  0  0  0  0  0  0  0  0  0
  159.2480  206.9530  155.9650 C   0  0  0  0  0  1  0  0  0  0  0  0
  161.9560  208.2410  153.6960 C   0  0  0  0  0  2  0  0  0  0  0  0
  161.9530  206.7340  153.4170 C   0  0  1  0  0  3  0  0  0  0  0  0
  160.9320  206.2170  154.2560 O   0  0  0  0  0  0  0  0  0  0  0  0
  159.9190  210.7830  154.6480 C   0  0  0  0  0  0  0  0  0  0  0  0
  159.9010  211.7600  156.7920 C   0  0  0  0  0  3  0  0  0  0  0  0
  159.4220  211.0560  153.2790 C   0  0  1  0  0  3  0  0  0  0  0  0
  159.4600  213.1100  151.2580 C   0  0  0  0  0  3  0  0  0  0  0  0
  160.6060  210.2200  156.9170 S   0  0  0  0  0  0  0  0  0  0  0  0
  158.8990  212.4610  153.4990 C   0  0  0  0  0  0  0  0  0  0  0  0
  158.7230  213.3540  152.3500 C   0  0  0  0  0  3  0  0  0  0  0  0
  160.4560  212.0040  151.2410 C   0  0  0  0  0  3  0  0  0  0  0  0
  159.5830  211.8410  155.4450 C   0  0  0  0  0  0  0  0  0  0  0  0
  158.9840  212.9010  154.7210 N   0  0  0  0  0  0  0  0  0  0  0  0
  160.4880  211.0790  152.2130 C   0  0  0  0  0  3  0  0  0  0  0  0
  160.5050  209.7130  155.3010 C   0  0  0  0  0  0  0  0  0  0  0  0
  161.3880  207.3420  149.7120 C   0  0  0  0  0  0  0  0  0  0  0  0
  161.6370  206.4630  151.9810 C   0  0  0  0  0  0  0  0  0  0  0  0
  161.8930  207.4840  150.9400 C   0  0  0  0  0  3  0  0  0  0  0  0
  161.7160  208.5500  148.4910 Cl  0  0  0  0  0  0  0  0  0  0  0  0
  161.1020  205.2850  151.6410 C   0  0  0  0  0  3  0  0  0  0  0  0
  160.4560  206.1990  149.4040 C   0  0  0  0  0  2  0  0  0  0  0  0
  160.8480  204.9490  150.1960 C   0  0  0  0  0  2  0  0  0  0  0  0
  1  2  2  0  0  0  0
  1 18  1  0  0  0  0
  2  3  1  0  0  0  0
  4  1  1  0  0  0  0
  5 20  1  6  0  0  0
  5  4  1  0  0  0  0
  5  6  1  0  0  0  0
  6  2  1  0  0  0  0
  7 18  2  0  0  0  0
  7 15  1  0  0  0  0
  8 11  1  0  0  0  0
  9 17  1  6  0  0  0
  9 12  1  0  0  0  0
  9  7  1  0  0  0  0
 10 13  2  0  0  0  0
 12 16  2  0  0  0  0
 13 12  1  0  0  0  0
 14 10  1  0  0  0  0
 14 17  2  0  0  0  0
 15  8  2  0  0  0  0
 16 15  1  0  0  0  0
 18 11  1  0  0  0  0
 19 21  2  0  0  0  0
 21 20  1  0  0  0  0
 22 19  1  0  0  0  0
 23 20  2  0  0  0  0
 24 19  1  0  0  0  0
 24 25  1  0  0  0  0
 25 23  1  0  0  0  0
M  END
>  <MODEL>
9

>  <REMARK>
 VINA RESULT:      -6.7      4.665      8.238
  Name = 
  2 active torsions:
  status: ('A' for Active; 'I' for Inactive)
    1  A    between atoms: C_3  and  C_24
    2  A    between atoms: C_6  and  C_20
                            x       y       z     vdW  Elec       q    Type
                         _______ _______ _______ _____ _____    ______ ____

>  <TORSDO>
F 2

$$$$
