=
 OpenBabel11062409303D

 34 38  0  0  1  0  0  0  0  0999 V2000
  160.6600  211.2260  153.2470 C   0  0  2  0  0  3  0  0  0  0  0  0
  157.0010  212.3980  153.9560 C   0  0  0  0  0  2  0  0  0  0  0  0
  156.4000  214.2390  151.0290 C   0  0  0  0  0  0  0  0  0  0  0  0
  158.6590  211.3270  155.3290 O   0  0  0  0  0  0  0  0  0  0  0  0
  162.1900  210.2580  155.0160 C   0  0  0  0  0  3  0  0  0  0  0  0
  161.4060  209.7900  157.2570 C   0  0  0  0  0  3  0  0  0  0  0  0
  156.8500  214.4340  149.8690 O   0  0  0  0  0  0  0  0  0  0  0  0
  162.4310  209.7820  156.3070 C   0  0  0  0  0  3  0  0  0  0  0  0
  159.9070  210.7860  155.6350 C   0  0  0  0  0  0  0  0  0  0  0  0
  160.9230  210.7410  154.6610 C   0  0  0  0  0  0  0  0  0  0  0  0
  160.1470  210.2920  156.9220 C   0  0  0  0  0  3  0  0  0  0  0  0
  156.7650  213.8220  153.4700 C   0  0  0  0  0  2  0  0  0  0  0  0
  155.0250  214.2590  151.2380 O   0  0  0  0  0  1  0  0  0  0  0  0
  157.2940  214.0080  152.1250 N   0  0  0  0  0  0  0  0  0  0  0  0
  158.7280  213.8750  151.8940 C   0  0  0  0  0  2  0  0  0  0  0  0
  158.4850  212.1730  154.1980 C   0  0  1  0  0  3  0  0  0  0  0  0
  159.0730  212.4060  151.6770 C   0  0  0  0  0  2  0  0  0  0  0  0
  159.1830  211.5700  152.9670 C   0  0  1  0  0  3  0  0  0  0  0  0
  161.1790  210.2340  152.1970 C   0  0  0  0  0  2  0  0  0  0  0  0
  160.4620  208.8890  152.2740 C   0  0  0  0  0  2  0  0  0  0  0  0
  161.4470  207.7570  152.5270 C   0  0  0  0  0  2  0  0  0  0  0  0
  161.3530  206.1040  149.1480 N   0  0  0  0  0  0  0  0  0  0  0  0
  161.2100  205.3680  151.8180 C   0  0  0  0  0  3  0  0  0  0  0  0
  161.0350  202.4660  148.7890 C   0  0  0  0  0  0  0  0  0  0  0  0
  161.1710  203.8220  148.4590 C   0  0  0  0  0  3  0  0  0  0  0  0
  161.2250  204.7890  149.4670 C   0  0  0  0  0  0  0  0  0  0  0  0
  161.0090  203.0460  151.1490 C   0  0  0  0  0  3  0  0  0  0  0  0
  161.1450  204.3960  150.8210 C   0  0  0  0  0  0  0  0  0  0  0  0
  160.9520  202.0860  150.1360 C   0  0  0  0  0  3  0  0  0  0  0  0
  161.3490  206.7130  151.4640 C   0  0  0  0  0  0  0  0  0  0  0  0
  161.4140  207.0650  150.1110 C   0  0  0  0  0  3  0  0  0  0  0  0
  160.9870  201.4420  147.7350 C   0  0  0  0  0  0  0  0  0  0  0  0
  161.1980  200.1380  148.0410 F   0  0  0  0  0  0  0  0  0  0  0  0
  160.7510  201.7630  146.5390 O   0  0  0  0  0  0  0  0  0  0  0  0
  1 19  1  6  0  0  0
  1 10  1  0  0  0  0
  3 13  1  0  0  0  0
  3 14  1  0  0  0  0
  4  9  1  0  0  0  0
  5  8  1  0  0  0  0
  7  3  2  0  0  0  0
  8  6  2  0  0  0  0
  9 11  2  0  0  0  0
 10  5  2  0  0  0  0
 10  9  1  0  0  0  0
 11  6  1  0  0  0  0
 12  2  1  0  0  0  0
 14 12  1  0  0  0  0
 15 14  1  0  0  0  0
 16  2  1  6  0  0  0
 16  4  1  0  0  0  0
 17 15  1  0  0  0  0
 18 17  1  6  0  0  0
 18  1  1  0  0  0  0
 18 16  1  0  0  0  0
 19 20  1  0  0  0  0
 20 21  1  0  0  0  0
 22 26  2  0  0  0  0
 22 31  1  0  0  0  0
 24 29  1  0  0  0  0
 25 24  2  0  0  0  0
 25 26  1  0  0  0  0
 26 28  1  0  0  0  0
 28 27  1  0  0  0  0
 28 23  2  0  0  0  0
 29 27  2  0  0  0  0
 30 23  1  0  0  0  0
 30 21  1  0  0  0  0
 31 30  2  0  0  0  0
 32 33  1  0  0  0  0
 32 24  1  0  0  0  0
 34 32  2  0  0  0  0
M  END
>  <MODEL>
1

>  <REMARK>
 VINA RESULT:      -9.7      0.000      0.000
  Name = 
  5 active torsions:
  status: ('A' for Active; 'I' for Inactive)
    1  A    between atoms: C_1  and  C_9
    2  A    between atoms: C_7  and  C_11
    3  A    between atoms: C_8  and  C_9
    4  A    between atoms: C_8  and  C_18
    5  A    between atoms: C_18  and  C_30
                            x       y       z     vdW  Elec       q    Type
                         _______ _______ _______ _____ _____    ______ ____

>  <TORSDO>
F 5

$$$$
=
 OpenBabel11062409303D

 34 38  0  0  1  0  0  0  0  0999 V2000
  161.1360  211.0720  153.0890 C   0  0  2  0  0  3  0  0  0  0  0  0
  157.6220  212.7230  152.6530 C   0  0  0  0  0  2  0  0  0  0  0  0
  158.0770  214.2490  149.5250 C   0  0  0  0  0  0  0  0  0  0  0  0
  158.6930  211.6490  154.5190 O   0  0  0  0  0  0  0  0  0  0  0  0
  161.9950  210.1620  155.2890 C   0  0  0  0  0  3  0  0  0  0  0  0
  160.5910  210.0610  157.2570 C   0  0  0  0  0  3  0  0  0  0  0  0
  158.8390  214.2490  148.5230 O   0  0  0  0  0  0  0  0  0  0  0  0
  161.8180  209.8230  156.6330 C   0  0  0  0  0  3  0  0  0  0  0  0
  159.7280  211.0140  155.2040 C   0  0  0  0  0  0  0  0  0  0  0  0
  160.9470  210.7370  154.5570 C   0  0  0  0  0  0  0  0  0  0  0  0
  159.5480  210.6560  156.5450 C   0  0  0  0  0  3  0  0  0  0  0  0
  157.7240  214.0940  151.9990 C   0  0  0  0  0  2  0  0  0  0  0  0
  156.7130  214.4470  149.3430 O   0  0  0  0  0  1  0  0  0  0  0  0
  158.6100  214.0550  150.8420 N   0  0  0  0  0  0  0  0  0  0  0  0
  160.0210  213.7350  151.0290 C   0  0  0  0  0  2  0  0  0  0  0  0
  158.9430  212.3640  153.3150 C   0  0  1  0  0  3  0  0  0  0  0  0
  160.2000  212.2220  151.0450 C   0  0  0  0  0  2  0  0  0  0  0  0
  159.8490  211.5420  152.3820 C   0  0  1  0  0  3  0  0  0  0  0  0
  161.7680  209.9080  152.3130 C   0  0  0  0  0  2  0  0  0  0  0  0
  160.7740  208.7780  152.0640 C   0  0  0  0  0  2  0  0  0  0  0  0
  161.3300  207.4440  152.5430 C   0  0  0  0  0  2  0  0  0  0  0  0
  161.3610  205.8480  149.1360 N   0  0  0  0  0  0  0  0  0  0  0  0
  161.1130  205.0680  151.7850 C   0  0  0  0  0  3  0  0  0  0  0  0
  161.0470  202.2180  148.7030 C   0  0  0  0  0  0  0  0  0  0  0  0
  161.1990  203.5790  148.4020 C   0  0  0  0  0  3  0  0  0  0  0  0
  161.2170  204.5280  149.4270 C   0  0  0  0  0  0  0  0  0  0  0  0
  160.9310  202.7590  151.0700 C   0  0  0  0  0  3  0  0  0  0  0  0
  161.0840  204.1130  150.7700 C   0  0  0  0  0  0  0  0  0  0  0  0
  160.9110  201.8150  150.0390 C   0  0  0  0  0  3  0  0  0  0  0  0
  161.2700  206.4180  151.4590 C   0  0  0  0  0  0  0  0  0  0  0  0
  161.3870  206.7920  150.1160 C   0  0  0  0  0  3  0  0  0  0  0  0
  161.0370  201.2110  147.6310 C   0  0  0  0  0  0  0  0  0  0  0  0
  161.5430  199.9730  147.8530 F   0  0  0  0  0  0  0  0  0  0  0  0
  160.5610  201.4880  146.4970 O   0  0  0  0  0  0  0  0  0  0  0  0
  1 19  1  6  0  0  0
  1 10  1  0  0  0  0
  3 14  1  0  0  0  0
  4  9  1  0  0  0  0
  5  8  1  0  0  0  0
  7  3  2  0  0  0  0
  8  6  2  0  0  0  0
  9 11  2  0  0  0  0
 10  9  1  0  0  0  0
 10  5  2  0  0  0  0
 11  6  1  0  0  0  0
 12  2  1  0  0  0  0
 13  3  1  0  0  0  0
 14 15  1  0  0  0  0
 14 12  1  0  0  0  0
 15 17  1  0  0  0  0
 16  2  1  6  0  0  0
 16  4  1  0  0  0  0
 18 17  1  6  0  0  0
 18  1  1  0  0  0  0
 18 16  1  0  0  0  0
 20 19  1  0  0  0  0
 20 21  1  0  0  0  0
 22 26  2  0  0  0  0
 22 31  1  0  0  0  0
 24 29  1  0  0  0  0
 25 24  2  0  0  0  0
 25 26  1  0  0  0  0
 26 28  1  0  0  0  0
 28 27  1  0  0  0  0
 28 23  2  0  0  0  0
 29 27  2  0  0  0  0
 30 23  1  0  0  0  0
 30 21  1  0  0  0  0
 31 30  2  0  0  0  0
 32 33  1  0  0  0  0
 32 24  1  0  0  0  0
 34 32  2  0  0  0  0
M  END
>  <MODEL>
2

>  <REMARK>
 VINA RESULT:      -9.4      0.913      1.046
  Name = 
  5 active torsions:
  status: ('A' for Active; 'I' for Inactive)
    1  A    between atoms: C_1  and  C_9
    2  A    between atoms: C_7  and  C_11
    3  A    between atoms: C_8  and  C_9
    4  A    between atoms: C_8  and  C_18
    5  A    between atoms: C_18  and  C_30
                            x       y       z     vdW  Elec       q    Type
                         _______ _______ _______ _____ _____    ______ ____

>  <TORSDO>
F 5

$$$$
=
 OpenBabel11062409303D

 34 38  0  0  1  0  0  0  0  0999 V2000
  161.2190  211.0540  153.1200 C   0  0  2  0  0  3  0  0  0  0  0  0
  157.5700  212.4500  153.0840 C   0  0  0  0  0  2  0  0  0  0  0  0
  157.6250  214.1510  150.0140 C   0  0  0  0  0  0  0  0  0  0  0  0
  158.8830  211.3750  154.7880 O   0  0  0  0  0  0  0  0  0  0  0  0
  162.3400  210.1110  155.1840 C   0  0  0  0  0  3  0  0  0  0  0  0
  161.1340  209.8120  157.2610 C   0  0  0  0  0  3  0  0  0  0  0  0
  158.2900  214.2550  148.9500 O   0  0  0  0  0  0  0  0  0  0  0  0
  162.3120  209.6970  156.5190 C   0  0  0  0  0  3  0  0  0  0  0  0
  160.0190  210.7900  155.3450 C   0  0  0  0  0  0  0  0  0  0  0  0
  161.1900  210.6380  154.5790 C   0  0  0  0  0  0  0  0  0  0  0  0
  159.9890  210.3580  156.6750 C   0  0  0  0  0  3  0  0  0  0  0  0
  157.5140  213.8540  152.4980 C   0  0  0  0  0  2  0  0  0  0  0  0
  156.2390  214.2520  149.9640 O   0  0  0  0  0  1  0  0  0  0  0  0
  158.2890  213.9360  151.2670 N   0  0  0  0  0  0  0  0  0  0  0  0
  159.7310  213.7170  151.3110 C   0  0  0  0  0  2  0  0  0  0  0  0
  158.9690  212.1630  153.6070 C   0  0  1  0  0  3  0  0  0  0  0  0
  160.0190  212.2230  151.2300 C   0  0  0  0  0  2  0  0  0  0  0  0
  159.8420  211.4570  152.5550 C   0  0  1  0  0  3  0  0  0  0  0  0
  161.8600  209.9790  152.2310 C   0  0  0  0  0  2  0  0  0  0  0  0
  160.9090  208.8160  151.9630 C   0  0  0  0  0  2  0  0  0  0  0  0
  161.2300  207.6290  152.8600 C   0  0  0  0  0  2  0  0  0  0  0  0
  161.0750  203.9600  152.0360 N   0  0  0  0  0  0  0  0  0  0  0  0
  161.2480  206.3790  150.6910 C   0  0  0  0  0  3  0  0  0  0  0  0
  161.0830  202.7600  148.5680 C   0  0  0  0  0  0  0  0  0  0  0  0
  161.0470  202.7580  149.9710 C   0  0  0  0  0  3  0  0  0  0  0  0
  161.1060  203.9620  150.6770 C   0  0  0  0  0  0  0  0  0  0  0  0
  161.2360  205.1860  148.5800 C   0  0  0  0  0  3  0  0  0  0  0  0
  161.1990  205.1830  149.9760 C   0  0  0  0  0  0  0  0  0  0  0  0
  161.1800  203.9780  147.8800 C   0  0  0  0  0  3  0  0  0  0  0  0
  161.2070  206.3510  152.0870 C   0  0  0  0  0  0  0  0  0  0  0  0
  161.1260  205.1190  152.7490 C   0  0  0  0  0  3  0  0  0  0  0  0
  161.0110  201.4980  147.8170 C   0  0  0  0  0  0  0  0  0  0  0  0
  161.5050  200.3550  148.3560 F   0  0  0  0  0  0  0  0  0  0  0  0
  160.4940  201.4630  146.6690 O   0  0  0  0  0  0  0  0  0  0  0  0
  1 19  1  6  0  0  0
  1 10  1  0  0  0  0
  3 14  1  0  0  0  0
  4  9  1  0  0  0  0
  5  8  1  0  0  0  0
  7  3  2  0  0  0  0
  8  6  2  0  0  0  0
  9 11  2  0  0  0  0
 10  5  2  0  0  0  0
 10  9  1  0  0  0  0
 11  6  1  0  0  0  0
 12  2  1  0  0  0  0
 13  3  1  0  0  0  0
 14 15  1  0  0  0  0
 14 12  1  0  0  0  0
 16  2  1  6  0  0  0
 16  4  1  0  0  0  0
 17 15  1  0  0  0  0
 18 17  1  6  0  0  0
 18  1  1  0  0  0  0
 18 16  1  0  0  0  0
 20 19  1  0  0  0  0
 20 21  1  0  0  0  0
 22 31  1  0  0  0  0
 23 30  1  0  0  0  0
 24 25  2  0  0  0  0
 25 26  1  0  0  0  0
 26 22  2  0  0  0  0
 27 28  1  0  0  0  0
 28 26  1  0  0  0  0
 28 23  2  0  0  0  0
 29 24  1  0  0  0  0
 29 27  2  0  0  0  0
 30 31  2  0  0  0  0
 30 21  1  0  0  0  0
 32 33  1  0  0  0  0
 32 24  1  0  0  0  0
 34 32  2  0  0  0  0
M  END
>  <MODEL>
3

>  <REMARK>
 VINA RESULT:      -9.4      1.010      1.465
  Name = 
  5 active torsions:
  status: ('A' for Active; 'I' for Inactive)
    1  A    between atoms: C_1  and  C_9
    2  A    between atoms: C_7  and  C_11
    3  A    between atoms: C_8  and  C_9
    4  A    between atoms: C_8  and  C_18
    5  A    between atoms: C_18  and  C_30
                            x       y       z     vdW  Elec       q    Type
                         _______ _______ _______ _____ _____    ______ ____

>  <TORSDO>
F 5

$$$$
=
 OpenBabel11062409303D

 34 38  0  0  1  0  0  0  0  0999 V2000
  161.6430  206.3460  150.0270 C   0  0  2  0  0  3  0  0  0  0  0  0
  160.6970  205.8500  146.2690 C   0  0  0  0  0  2  0  0  0  0  0  0
  160.8310  202.3470  146.0900 C   0  0  0  0  0  0  0  0  0  0  0  0
  161.2530  207.8000  147.5620 O   0  0  0  0  0  0  0  0  0  0  0  0
  162.3310  208.5710  151.0190 C   0  0  0  0  0  3  0  0  0  0  0  0
  162.2450  210.6170  149.7300 C   0  0  0  0  0  3  0  0  0  0  0  0
  160.8640  201.3170  146.8140 O   0  0  0  0  0  1  0  0  0  0  0  0
  162.5140  209.9530  150.9300 C   0  0  0  0  0  3  0  0  0  0  0  0
  161.6430  208.5110  148.6960 C   0  0  0  0  0  0  0  0  0  0  0  0
  161.8720  207.8410  149.9130 C   0  0  0  0  0  0  0  0  0  0  0  0
  161.8100  209.8980  148.6150 C   0  0  0  0  0  3  0  0  0  0  0  0
  161.4950  204.7180  145.6360 C   0  0  0  0  0  2  0  0  0  0  0  0
  160.1370  202.3110  144.8860 O   0  0  0  0  0  0  0  0  0  0  0  0
  161.5070  203.5440  146.4980 N   0  0  0  0  0  0  0  0  0  0  0  0
  162.1420  203.6230  147.8100 C   0  0  0  0  0  2  0  0  0  0  0  0
  161.4400  206.3920  147.4800 C   0  0  1  0  0  3  0  0  0  0  0  0
  161.1480  204.1840  148.8200 C   0  0  0  0  0  2  0  0  0  0  0  0
  160.9840  205.7160  148.7850 C   0  0  1  0  0  3  0  0  0  0  0  0
  160.8460  205.9840  151.2880 C   0  0  0  0  0  2  0  0  0  0  0  0
  161.7320  205.9250  152.5290 C   0  0  0  0  0  2  0  0  0  0  0  0
  160.9040  205.6790  153.7830 C   0  0  0  0  0  2  0  0  0  0  0  0
  160.0100  208.1250  156.4980 N   0  0  0  0  0  0  0  0  0  0  0  0
  160.7590  208.1780  153.8290 C   0  0  0  0  0  3  0  0  0  0  0  0
  160.0470  211.7490  155.9190 C   0  0  0  0  0  0  0  0  0  0  0  0
  159.9120  210.5130  156.5680 C   0  0  0  0  0  3  0  0  0  0  0  0
  160.1450  209.3240  155.8710 C   0  0  0  0  0  0  0  0  0  0  0  0
  160.6530  210.6000  153.8650 C   0  0  0  0  0  3  0  0  0  0  0  0
  160.5200  209.3700  154.5110 C   0  0  0  0  0  0  0  0  0  0  0  0
  160.4160  211.7850  154.5670 C   0  0  0  0  0  3  0  0  0  0  0  0
  160.6220  206.9590  154.4990 C   0  0  0  0  0  0  0  0  0  0  0  0
  160.2370  206.9530  155.8450 C   0  0  0  0  0  3  0  0  0  0  0  0
  159.8120  213.0050  156.6480 C   0  0  0  0  0  0  0  0  0  0  0  0
  160.8420  213.6390  157.2610 F   0  0  0  0  0  0  0  0  0  0  0  0
  158.6570  213.5030  156.7110 O   0  0  0  0  0  0  0  0  0  0  0  0
  1 19  1  1  0  0  0
  3 14  1  0  0  0  0
  3  7  1  0  0  0  0
  4  9  1  0  0  0  0
  6  8  2  0  0  0  0
  8  5  1  0  0  0  0
  9 10  1  0  0  0  0
 10  1  1  0  0  0  0
 10  5  2  0  0  0  0
 11  9  2  0  0  0  0
 11  6  1  0  0  0  0
 12  2  1  0  0  0  0
 12 14  1  0  0  0  0
 13  3  2  0  0  0  0
 14 15  1  0  0  0  0
 15 17  1  0  0  0  0
 16  2  1  6  0  0  0
 16  4  1  0  0  0  0
 16 18  1  0  0  0  0
 18 17  1  6  0  0  0
 18  1  1  0  0  0  0
 19 20  1  0  0  0  0
 20 21  1  0  0  0  0
 21 30  1  0  0  0  0
 23 30  2  0  0  0  0
 23 28  1  0  0  0  0
 24 25  1  0  0  0  0
 24 32  1  0  0  0  0
 26 22  1  0  0  0  0
 26 25  2  0  0  0  0
 27 28  2  0  0  0  0
 27 29  1  0  0  0  0
 28 26  1  0  0  0  0
 29 24  2  0  0  0  0
 30 31  1  0  0  0  0
 31 22  2  0  0  0  0
 32 34  2  0  0  0  0
 32 33  1  0  0  0  0
M  END
>  <MODEL>
4

>  <REMARK>
 VINA RESULT:      -9.1      4.172      9.670
  Name = 
  5 active torsions:
  status: ('A' for Active; 'I' for Inactive)
    1  A    between atoms: C_1  and  C_9
    2  A    between atoms: C_7  and  C_11
    3  A    between atoms: C_8  and  C_9
    4  A    between atoms: C_8  and  C_18
    5  A    between atoms: C_18  and  C_30
                            x       y       z     vdW  Elec       q    Type
                         _______ _______ _______ _____ _____    ______ ____

>  <TORSDO>
F 5

$$$$
=
 OpenBabel11062409303D

 34 38  0  0  1  0  0  0  0  0999 V2000
  160.8200  211.0020  151.7540 C   0  0  2  0  0  3  0  0  0  0  0  0
  158.6710  214.0120  153.0130 C   0  0  0  0  0  2  0  0  0  0  0  0
  157.1360  212.5140  155.7910 C   0  0  0  0  0  0  0  0  0  0  0  0
  159.9410  213.6490  151.0040 O   0  0  0  0  0  0  0  0  0  0  0  0
  161.9070  210.9120  149.4700 C   0  0  0  0  0  3  0  0  0  0  0  0
  161.8620  212.8070  147.9660 C   0  0  0  0  0  3  0  0  0  0  0  0
  157.2160  211.5100  156.5470 O   0  0  0  0  0  1  0  0  0  0  0  0
  162.2550  211.4970  148.2500 C   0  0  0  0  0  3  0  0  0  0  0  0
  160.7370  212.9370  150.1080 C   0  0  0  0  0  0  0  0  0  0  0  0
  161.1660  211.6320  150.4190 C   0  0  0  0  0  0  0  0  0  0  0  0
  161.1030  213.5260  148.8930 C   0  0  0  0  0  3  0  0  0  0  0  0
  157.3100  213.5550  153.5210 C   0  0  0  0  0  2  0  0  0  0  0  0
  156.7390  213.7360  156.3210 O   0  0  0  0  0  0  0  0  0  0  0  0
  157.4430  212.3970  154.3950 N   0  0  0  0  0  0  0  0  0  0  0  0
  157.9660  211.1470  153.8560 C   0  0  0  0  0  2  0  0  0  0  0  0
  159.2340  212.9850  152.0440 C   0  0  1  0  0  3  0  0  0  0  0  0
  159.4890  211.1770  153.8940 C   0  0  0  0  0  2  0  0  0  0  0  0
  160.1500  211.9700  152.7500 C   0  0  1  0  0  3  0  0  0  0  0  0
  162.0400  210.3360  152.4070 C   0  0  0  0  0  2  0  0  0  0  0  0
  162.2490  208.9090  151.9080 C   0  0  0  0  0  2  0  0  0  0  0  0
  160.9570  208.1080  151.9800 C   0  0  0  0  0  2  0  0  0  0  0  0
  161.1600  206.1790  148.7560 N   0  0  0  0  0  0  0  0  0  0  0  0
  160.8570  205.6610  151.4630 C   0  0  0  0  0  3  0  0  0  0  0  0
  161.0020  202.5130  148.6900 C   0  0  0  0  0  0  0  0  0  0  0  0
  161.1110  203.8420  148.2550 C   0  0  0  0  0  3  0  0  0  0  0  0
  161.0590  204.8900  149.1770 C   0  0  0  0  0  0  0  0  0  0  0  0
  160.7880  203.2850  150.9840 C   0  0  0  0  0  3  0  0  0  0  0  0
  160.8980  204.6080  150.5510 C   0  0  0  0  0  0  0  0  0  0  0  0
  160.8380  202.2420  150.0550 C   0  0  0  0  0  3  0  0  0  0  0  0
  160.9720  206.9760  151.0060 C   0  0  0  0  0  0  0  0  0  0  0  0
  161.1180  207.2170  149.6350 C   0  0  0  0  0  3  0  0  0  0  0  0
  161.0650  201.4040  147.7250 C   0  0  0  0  0  0  0  0  0  0  0  0
  161.3960  200.1560  148.1430 F   0  0  0  0  0  0  0  0  0  0  0  0
  160.8160  201.5990  146.5060 O   0  0  0  0  0  0  0  0  0  0  0  0
  1 19  1  1  0  0  0
  1 18  1  0  0  0  0
  2 12  1  0  0  0  0
  3 13  2  0  0  0  0
  3  7  1  0  0  0  0
  4 16  1  0  0  0  0
  5 10  1  0  0  0  0
  6  8  1  0  0  0  0
  6 11  2  0  0  0  0
  8  5  2  0  0  0  0
  9 10  2  0  0  0  0
  9  4  1  0  0  0  0
 10  1  1  0  0  0  0
 11  9  1  0  0  0  0
 12 14  1  0  0  0  0
 14  3  1  0  0  0  0
 15 17  1  0  0  0  0
 15 14  1  0  0  0  0
 16 18  1  0  0  0  0
 16  2  1  1  0  0  0
 18 17  1  1  0  0  0
 20 21  1  0  0  0  0
 20 19  1  0  0  0  0
 22 26  2  0  0  0  0
 22 31  1  0  0  0  0
 24 29  1  0  0  0  0
 25 24  2  0  0  0  0
 25 26  1  0  0  0  0
 26 28  1  0  0  0  0
 28 27  1  0  0  0  0
 28 23  2  0  0  0  0
 29 27  2  0  0  0  0
 30 23  1  0  0  0  0
 30 21  1  0  0  0  0
 31 30  2  0  0  0  0
 32 33  1  0  0  0  0
 32 24  1  0  0  0  0
 34 32  2  0  0  0  0
M  END
>  <MODEL>
5

>  <REMARK>
 VINA RESULT:      -9.0      1.897      3.867
  Name = 
  5 active torsions:
  status: ('A' for Active; 'I' for Inactive)
    1  A    between atoms: C_1  and  C_9
    2  A    between atoms: C_7  and  C_11
    3  A    between atoms: C_8  and  C_9
    4  A    between atoms: C_8  and  C_18
    5  A    between atoms: C_18  and  C_30
                            x       y       z     vdW  Elec       q    Type
                         _______ _______ _______ _____ _____    ______ ____

>  <TORSDO>
F 5

$$$$
=
 OpenBabel11062409303D

 34 38  0  0  1  0  0  0  0  0999 V2000
  161.9210  210.4830  151.9480 C   0  0  2  0  0  3  0  0  0  0  0  0
  159.2650  212.9400  150.4730 C   0  0  0  0  0  2  0  0  0  0  0  0
  160.4290  213.1440  147.1680 C   0  0  0  0  0  0  0  0  0  0  0  0
  159.7620  212.2410  152.7190 O   0  0  0  0  0  0  0  0  0  0  0  0
  162.2590  210.1060  154.4280 C   0  0  0  0  0  3  0  0  0  0  0  0
  160.7930  211.1030  156.0760 C   0  0  0  0  0  3  0  0  0  0  0  0
  161.2020  212.5760  146.3510 O   0  0  0  0  0  0  0  0  0  0  0  0
  161.8890  210.2950  155.7620 C   0  0  0  0  0  3  0  0  0  0  0  0
  160.4570  211.5650  153.7220 C   0  0  0  0  0  0  0  0  0  0  0  0
  161.5340  210.7190  153.3960 C   0  0  0  0  0  0  0  0  0  0  0  0
  160.0790  211.7370  155.0580 C   0  0  0  0  0  3  0  0  0  0  0  0
  159.8920  213.9170  149.4880 C   0  0  0  0  0  2  0  0  0  0  0  0
  159.2410  213.6990  146.7080 O   0  0  0  0  0  1  0  0  0  0  0  0
  160.7740  213.2240  148.5570 N   0  0  0  0  0  0  0  0  0  0  0  0
  161.9630  212.5470  149.0640 C   0  0  0  0  0  2  0  0  0  0  0  0
  160.3260  212.4100  151.4240 C   0  0  1  0  0  3  0  0  0  0  0  0
  161.5870  211.1480  149.5340 C   0  0  0  0  0  2  0  0  0  0  0  0
  160.9340  211.0870  150.9290 C   0  0  1  0  0  3  0  0  0  0  0  0
  162.1410  208.9930  151.6500 C   0  0  0  0  0  2  0  0  0  0  0  0
  160.8500  208.1880  151.7690 C   0  0  0  0  0  2  0  0  0  0  0  0
  161.1330  206.7630  152.2230 C   0  0  0  0  0  2  0  0  0  0  0  0
  161.2910  205.4190  148.7120 N   0  0  0  0  0  0  0  0  0  0  0  0
  160.9660  204.4470  151.2890 C   0  0  0  0  0  3  0  0  0  0  0  0
  161.0290  201.8270  148.0090 C   0  0  0  0  0  0  0  0  0  0  0  0
  161.1770  203.2080  147.8110 C   0  0  0  0  0  3  0  0  0  0  0  0
  161.1520  204.0800  148.9030 C   0  0  0  0  0  0  0  0  0  0  0  0
  160.8310  202.1940  150.4030 C   0  0  0  0  0  3  0  0  0  0  0  0
  160.9790  203.5680  150.2070 C   0  0  0  0  0  0  0  0  0  0  0  0
  160.8540  201.3280  149.3070 C   0  0  0  0  0  3  0  0  0  0  0  0
  161.1190  205.8180  151.0670 C   0  0  0  0  0  0  0  0  0  0  0  0
  161.2760  206.2900  149.7580 C   0  0  0  0  0  3  0  0  0  0  0  0
  161.0640  200.9010  146.8660 C   0  0  0  0  0  0  0  0  0  0  0  0
  161.5810  199.6560  147.0130 F   0  0  0  0  0  0  0  0  0  0  0  0
  160.6170  201.2530  145.7420 O   0  0  0  0  0  0  0  0  0  0  0  0
  1 19  1  6  0  0  0
  1 10  1  0  0  0  0
  3 14  1  0  0  0  0
  4  9  1  0  0  0  0
  5  8  1  0  0  0  0
  7  3  2  0  0  0  0
  8  6  2  0  0  0  0
  9 11  2  0  0  0  0
 10  9  1  0  0  0  0
 10  5  2  0  0  0  0
 11  6  1  0  0  0  0
 12  2  1  0  0  0  0
 13  3  1  0  0  0  0
 14 15  1  0  0  0  0
 14 12  1  0  0  0  0
 15 17  1  0  0  0  0
 16  2  1  6  0  0  0
 16  4  1  0  0  0  0
 18 17  1  6  0  0  0
 18 16  1  0  0  0  0
 18  1  1  0  0  0  0
 19 20  1  0  0  0  0
 20 21  1  0  0  0  0
 22 26  2  0  0  0  0
 22 31  1  0  0  0  0
 24 29  1  0  0  0  0
 25 24  2  0  0  0  0
 25 26  1  0  0  0  0
 26 28  1  0  0  0  0
 28 27  1  0  0  0  0
 28 23  2  0  0  0  0
 29 27  2  0  0  0  0
 30 23  1  0  0  0  0
 30 21  1  0  0  0  0
 31 30  2  0  0  0  0
 32 33  1  0  0  0  0
 32 24  1  0  0  0  0
 34 32  2  0  0  0  0
M  END
>  <MODEL>
6

>  <REMARK>
 VINA RESULT:      -8.8      2.194      2.836
  Name = 
  5 active torsions:
  status: ('A' for Active; 'I' for Inactive)
    1  A    between atoms: C_1  and  C_9
    2  A    between atoms: C_7  and  C_11
    3  A    between atoms: C_8  and  C_9
    4  A    between atoms: C_8  and  C_18
    5  A    between atoms: C_18  and  C_30
                            x       y       z     vdW  Elec       q    Type
                         _______ _______ _______ _____ _____    ______ ____

>  <TORSDO>
F 5

$$$$
=
 OpenBabel11062409303D

 34 38  0  0  1  0  0  0  0  0999 V2000
  161.9470  208.3300  152.6700 C   0  0  2  0  0  3  0  0  0  0  0  0
  159.3370  208.6930  155.5550 C   0  0  0  0  0  2  0  0  0  0  0  0
  159.9050  212.0430  156.4390 C   0  0  0  0  0  0  0  0  0  0  0  0
  160.1550  206.7910  154.3320 O   0  0  0  0  0  0  0  0  0  0  0  0
  162.6840  206.1050  151.7170 C   0  0  0  0  0  3  0  0  0  0  0  0
  161.6470  204.0260  152.3960 C   0  0  0  0  0  3  0  0  0  0  0  0
  160.4560  213.0980  156.0270 O   0  0  0  0  0  0  0  0  0  0  0  0
  162.5800  204.7150  151.6170 C   0  0  0  0  0  3  0  0  0  0  0  0
  160.9440  206.1130  153.4040 C   0  0  0  0  0  0  0  0  0  0  0  0
  161.8520  206.8180  152.5910 C   0  0  0  0  0  0  0  0  0  0  0  0
  160.8310  204.7240  153.2890 C   0  0  0  0  0  3  0  0  0  0  0  0
  159.8750  209.5520  156.6920 C   0  0  0  0  0  2  0  0  0  0  0  0
  158.7170  212.1300  157.1550 O   0  0  0  0  0  1  0  0  0  0  0  0
  160.5000  210.7640  156.1780 N   0  0  0  0  0  0  0  0  0  0  0  0
  161.6840  210.6580  155.3330 C   0  0  0  0  0  2  0  0  0  0  0  0
  160.4920  208.1060  154.7590 C   0  0  1  0  0  3  0  0  0  0  0  0
  161.2570  210.4320  153.8880 C   0  0  0  0  0  2  0  0  0  0  0  0
  160.8610  208.9820  153.5490 C   0  0  1  0  0  3  0  0  0  0  0  0
  161.9550  208.9760  151.2770 C   0  0  0  0  0  2  0  0  0  0  0  0
  161.2060  208.1330  150.2490 C   0  0  0  0  0  2  0  0  0  0  0  0
  161.8960  208.1810  148.8940 C   0  0  0  0  0  2  0  0  0  0  0  0
  161.8080  205.6440  146.1160 N   0  0  0  0  0  0  0  0  0  0  0  0
  161.3440  205.7400  148.8480 C   0  0  0  0  0  3  0  0  0  0  0  0
  160.9550  202.1300  146.7390 C   0  0  0  0  0  0  0  0  0  0  0  0
  161.3260  203.3040  146.0670 C   0  0  0  0  0  3  0  0  0  0  0  0
  161.4520  204.5050  146.7680 C   0  0  0  0  0  0  0  0  0  0  0  0
  160.8360  203.3690  148.8270 C   0  0  0  0  0  3  0  0  0  0  0  0
  161.2060  204.5360  148.1570 C   0  0  0  0  0  0  0  0  0  0  0  0
  160.7090  202.1710  148.1190 C   0  0  0  0  0  3  0  0  0  0  0  0
  161.7190  206.8940  148.1560 C   0  0  0  0  0  0  0  0  0  0  0  0
  161.9430  206.8270  146.7760 C   0  0  0  0  0  3  0  0  0  0  0  0
  160.8300  200.8590  146.0100 C   0  0  0  0  0  0  0  0  0  0  0  0
  161.4270  199.7380  146.4870 F   0  0  0  0  0  0  0  0  0  0  0  0
  160.1700  200.7970  144.9390 O   0  0  0  0  0  0  0  0  0  0  0  0
  1 19  1  6  0  0  0
  1 18  1  0  0  0  0
  2 12  1  0  0  0  0
  3 13  1  0  0  0  0
  4 16  1  0  0  0  0
  5 10  1  0  0  0  0
  6 11  2  0  0  0  0
  7  3  2  0  0  0  0
  8  5  2  0  0  0  0
  8  6  1  0  0  0  0
  9  4  1  0  0  0  0
 10  1  1  0  0  0  0
 10  9  2  0  0  0  0
 11  9  1  0  0  0  0
 14  3  1  0  0  0  0
 14 12  1  0  0  0  0
 15 14  1  0  0  0  0
 16  2  1  6  0  0  0
 17 15  1  0  0  0  0
 18 17  1  1  0  0  0
 18 16  1  0  0  0  0
 20 19  1  0  0  0  0
 21 20  1  0  0  0  0
 22 26  2  0  0  0  0
 22 31  1  0  0  0  0
 24 29  1  0  0  0  0
 25 24  2  0  0  0  0
 25 26  1  0  0  0  0
 26 28  1  0  0  0  0
 28 27  1  0  0  0  0
 28 23  2  0  0  0  0
 29 27  2  0  0  0  0
 30 23  1  0  0  0  0
 30 21  1  0  0  0  0
 31 30  2  0  0  0  0
 32 33  1  0  0  0  0
 32 24  1  0  0  0  0
 34 32  2  0  0  0  0
M  END
>  <MODEL>
7

>  <REMARK>
 VINA RESULT:      -8.6      3.108      4.513
  Name = 
  5 active torsions:
  status: ('A' for Active; 'I' for Inactive)
    1  A    between atoms: C_1  and  C_9
    2  A    between atoms: C_7  and  C_11
    3  A    between atoms: C_8  and  C_9
    4  A    between atoms: C_8  and  C_18
    5  A    between atoms: C_18  and  C_30
                            x       y       z     vdW  Elec       q    Type
                         _______ _______ _______ _____ _____    ______ ____

>  <TORSDO>
F 5

$$$$
=
 OpenBabel11062409303D

 34 38  0  0  1  0  0  0  0  0999 V2000
  160.4740  209.0280  152.6620 C   0  0  2  0  0  3  0  0  0  0  0  0
  159.9860  212.8040  153.5380 C   0  0  0  0  0  2  0  0  0  0  0  0
  157.8880  212.4890  156.3340 C   0  0  0  0  0  0  0  0  0  0  0  0
  160.9610  211.6870  151.6440 O   0  0  0  0  0  0  0  0  0  0  0  0
  161.4200  208.2090  150.4620 C   0  0  0  0  0  3  0  0  0  0  0  0
  162.2960  209.7420  148.8070 C   0  0  0  0  0  3  0  0  0  0  0  0
  157.4740  211.6460  157.1740 O   0  0  0  0  0  1  0  0  0  0  0  0
  162.0200  208.4360  149.2200 C   0  0  0  0  0  3  0  0  0  0  0  0
  161.3370  210.5980  150.8590 C   0  0  0  0  0  0  0  0  0  0  0  0
  161.0950  209.2840  151.3020 C   0  0  0  0  0  0  0  0  0  0  0  0
  161.9550  210.8210  149.6240 C   0  0  0  0  0  3  0  0  0  0  0  0
  158.5640  213.0920  154.0000 C   0  0  0  0  0  2  0  0  0  0  0  0
  158.1090  213.8010  156.7370 O   0  0  0  0  0  0  0  0  0  0  0  0
  158.1220  212.1020  154.9730 N   0  0  0  0  0  0  0  0  0  0  0  0
  157.9990  210.7050  154.5710 C   0  0  0  0  0  2  0  0  0  0  0  0
  160.0090  211.5400  152.6920 C   0  0  1  0  0  3  0  0  0  0  0  0
  159.3550  210.0210  154.6960 C   0  0  0  0  0  2  0  0  0  0  0  0
  160.3280  210.2920  153.5320 C   0  0  1  0  0  3  0  0  0  0  0  0
  161.2250  207.9370  153.4380 C   0  0  0  0  0  2  0  0  0  0  0  0
  160.4690  206.6110  153.4410 C   0  0  0  0  0  2  0  0  0  0  0  0
  161.4300  205.4320  153.4870 C   0  0  0  0  0  2  0  0  0  0  0  0
  160.7580  202.4710  151.2650 N   0  0  0  0  0  0  0  0  0  0  0  0
  161.5210  205.1240  151.0040 C   0  0  0  0  0  3  0  0  0  0  0  0
  161.0190  202.7030  147.6110 C   0  0  0  0  0  0  0  0  0  0  0  0
  160.7970  202.1760  148.8930 C   0  0  0  0  0  3  0  0  0  0  0  0
  160.9690  202.9810  150.0220 C   0  0  0  0  0  0  0  0  0  0  0  0
  161.5840  204.8520  148.5960 C   0  0  0  0  0  3  0  0  0  0  0  0
  161.3630  204.3280  149.8700 C   0  0  0  0  0  0  0  0  0  0  0  0
  161.4140  204.0400  147.4710 C   0  0  0  0  0  3  0  0  0  0  0  0
  161.2900  204.5780  152.2690 C   0  0  0  0  0  0  0  0  0  0  0  0
  160.9120  203.2350  152.3810 C   0  0  0  0  0  3  0  0  0  0  0  0
  160.8320  201.8650  146.4170 C   0  0  0  0  0  0  0  0  0  0  0  0
  161.0940  200.5350  146.4700 F   0  0  0  0  0  0  0  0  0  0  0  0
  160.4290  202.3700  145.3360 O   0  0  0  0  0  0  0  0  0  0  0  0
  1 19  1  1  0  0  0
  1 18  1  0  0  0  0
  2 12  1  0  0  0  0
  3 13  2  0  0  0  0
  3  7  1  0  0  0  0
  4 16  1  0  0  0  0
  5 10  1  0  0  0  0
  6  8  1  0  0  0  0
  6 11  2  0  0  0  0
  8  5  2  0  0  0  0
  9 10  2  0  0  0  0
  9  4  1  0  0  0  0
 10  1  1  0  0  0  0
 11  9  1  0  0  0  0
 12 14  1  0  0  0  0
 14  3  1  0  0  0  0
 15 17  1  0  0  0  0
 15 14  1  0  0  0  0
 16 18  1  0  0  0  0
 16  2  1  1  0  0  0
 18 17  1  1  0  0  0
 19 20  1  0  0  0  0
 20 21  1  0  0  0  0
 22 31  1  0  0  0  0
 23 30  1  0  0  0  0
 24 25  2  0  0  0  0
 25 26  1  0  0  0  0
 26 22  2  0  0  0  0
 27 28  1  0  0  0  0
 28 26  1  0  0  0  0
 28 23  2  0  0  0  0
 29 24  1  0  0  0  0
 29 27  2  0  0  0  0
 30 31  2  0  0  0  0
 30 21  1  0  0  0  0
 32 33  1  0  0  0  0
 32 24  1  0  0  0  0
 34 32  2  0  0  0  0
M  END
>  <MODEL>
8

>  <REMARK>
 VINA RESULT:      -8.6      2.371      4.100
  Name = 
  5 active torsions:
  status: ('A' for Active; 'I' for Inactive)
    1  A    between atoms: C_1  and  C_9
    2  A    between atoms: C_7  and  C_11
    3  A    between atoms: C_8  and  C_9
    4  A    between atoms: C_8  and  C_18
    5  A    between atoms: C_18  and  C_30
                            x       y       z     vdW  Elec       q    Type
                         _______ _______ _______ _____ _____    ______ ____

>  <TORSDO>
F 5

$$$$
=
 OpenBabel11062409303D

 34 38  0  0  1  0  0  0  0  0999 V2000
  161.2520  208.5120  151.3410 C   0  0  2  0  0  3  0  0  0  0  0  0
  161.5780  204.6340  150.9880 C   0  0  0  0  0  2  0  0  0  0  0  0
  161.4890  204.3560  147.4910 C   0  0  0  0  0  0  0  0  0  0  0  0
  161.2020  206.0690  152.8820 O   0  0  0  0  0  0  0  0  0  0  0  0
  160.6910  209.6810  153.5150 C   0  0  0  0  0  3  0  0  0  0  0  0
  160.5230  208.4680  155.6020 C   0  0  0  0  0  3  0  0  0  0  0  0
  161.5960  205.0390  146.4380 O   0  0  0  0  0  0  0  0  0  0  0  0
  160.4670  209.6710  154.8940 C   0  0  0  0  0  3  0  0  0  0  0  0
  160.9900  207.2760  153.5470 C   0  0  0  0  0  0  0  0  0  0  0  0
  160.9780  208.4890  152.8330 C   0  0  0  0  0  0  0  0  0  0  0  0
  160.7830  207.2730  154.9300 C   0  0  0  0  0  3  0  0  0  0  0  0
  160.7110  204.1000  149.8570 C   0  0  0  0  0  2  0  0  0  0  0  0
  161.9760  203.0540  147.5100 O   0  0  0  0  0  1  0  0  0  0  0  0
  160.8640  204.9110  148.6560 N   0  0  0  0  0  0  0  0  0  0  0  0
  160.4520  206.3110  148.6770 C   0  0  0  0  0  2  0  0  0  0  0  0
  161.0330  205.9690  151.4730 C   0  0  1  0  0  3  0  0  0  0  0  0
  161.5860  207.1640  149.2320 C   0  0  0  0  0  2  0  0  0  0  0  0
  161.7120  207.1570  150.7670 C   0  0  1  0  0  3  0  0  0  0  0  0
  162.2530  209.6120  150.9600 C   0  0  0  0  0  2  0  0  0  0  0  0
  161.6400  210.6430  150.0160 C   0  0  0  0  0  2  0  0  0  0  0  0
  162.7200  211.4510  149.3110 C   0  0  0  0  0  2  0  0  0  0  0  0
  162.5620  213.3300  146.0550 N   0  0  0  0  0  0  0  0  0  0  0  0
  160.8510  211.9070  147.7090 C   0  0  0  0  0  3  0  0  0  0  0  0
  159.4530  213.5830  144.1230 C   0  0  0  0  0  0  0  0  0  0  0  0
  160.7960  213.7350  144.4960 C   0  0  0  0  0  3  0  0  0  0  0  0
  161.2610  213.1810  145.6910 C   0  0  0  0  0  0  0  0  0  0  0  0
  159.0370  212.3140  146.1530 C   0  0  0  0  0  3  0  0  0  0  0  0
  160.3740  212.4640  146.5230 C   0  0  0  0  0  0  0  0  0  0  0  0
  158.5780  212.8730  144.9580 C   0  0  0  0  0  3  0  0  0  0  0  0
  162.1950  212.0680  148.0570 C   0  0  0  0  0  0  0  0  0  0  0  0
  163.0420  212.7950  147.2120 C   0  0  0  0  0  3  0  0  0  0  0  0
  158.9580  214.1550  142.8610 C   0  0  0  0  0  0  0  0  0  0  0  0
  157.6430  214.4530  142.7180 F   0  0  0  0  0  0  0  0  0  0  0  0
  159.7470  214.3740  141.9040 O   0  0  0  0  0  0  0  0  0  0  0  0
  1 19  1  1  0  0  0
  1 10  1  0  0  0  0
  3 13  1  0  0  0  0
  3 14  1  0  0  0  0
  4  9  1  0  0  0  0
  5  8  1  0  0  0  0
  7  3  2  0  0  0  0
  8  6  2  0  0  0  0
  9 11  2  0  0  0  0
 10  5  2  0  0  0  0
 10  9  1  0  0  0  0
 11  6  1  0  0  0  0
 12  2  1  0  0  0  0
 14 15  1  0  0  0  0
 14 12  1  0  0  0  0
 15 17  1  0  0  0  0
 16  2  1  6  0  0  0
 16  4  1  0  0  0  0
 18 17  1  6  0  0  0
 18  1  1  0  0  0  0
 18 16  1  0  0  0  0
 20 19  1  0  0  0  0
 21 20  1  0  0  0  0
 22 31  1  0  0  0  0
 23 30  1  0  0  0  0
 24 25  2  0  0  0  0
 24 29  1  0  0  0  0
 25 26  1  0  0  0  0
 26 22  2  0  0  0  0
 26 28  1  0  0  0  0
 27 28  1  0  0  0  0
 28 23  2  0  0  0  0
 29 27  2  0  0  0  0
 30 21  1  0  0  0  0
 31 30  2  0  0  0  0
 32 24  1  0  0  0  0
 33 32  1  0  0  0  0
 34 32  2  0  0  0  0
M  END
>  <MODEL>
9

>  <REMARK>
 VINA RESULT:      -8.4      5.122      8.787
  Name = 
  5 active torsions:
  status: ('A' for Active; 'I' for Inactive)
    1  A    between atoms: C_1  and  C_9
    2  A    between atoms: C_7  and  C_11
    3  A    between atoms: C_8  and  C_9
    4  A    between atoms: C_8  and  C_18
    5  A    between atoms: C_18  and  C_30
                            x       y       z     vdW  Elec       q    Type
                         _______ _______ _______ _____ _____    ______ ____

>  <TORSDO>
F 5

$$$$
