=
 OpenBabel11052421553D

 30 34  0  0  1  0  0  0  0  0999 V2000
  159.1540  212.2510  154.3430 C   0  0  1  0  0  3  0  0  0  0  0  0
  158.2540  213.6380  152.4060 C   0  0  1  0  0  3  0  0  0  0  0  0
  160.4720  211.8080  154.8350 N   0  0  0  0  0  0  0  0  0  0  0  0
  158.1500  213.7500  150.8850 C   0  0  0  0  0  2  0  0  0  0  0  0
  156.8490  213.6270  152.9800 C   0  0  0  0  0  1  0  0  0  0  0  0
  161.1550  211.0600  152.4980 C   0  0  2  0  0  3  0  0  0  0  0  0
  159.5340  213.7400  150.2460 C   0  0  0  0  0  2  0  0  0  0  0  0
  159.0240  212.3680  152.8040 C   0  0  1  0  0  3  0  0  0  0  0  0
  161.3540  211.0500  153.9790 C   0  0  0  0  0  0  0  0  0  0  0  0
  162.2880  210.3590  154.4690 O   0  0  0  0  0  0  0  0  0  0  0  0
  160.2570  212.4470  150.5980 C   0  0  0  0  0  2  0  0  0  0  0  0
  160.3970  212.3290  152.1120 C   0  0  2  0  0  3  0  0  0  0  0  0
  160.7630  211.9580  156.2670 C   0  0  1  0  0  3  0  0  0  0  0  0
  159.6520  211.3710  157.1250 C   0  0  0  0  0  2  0  0  0  0  0  0
  160.9560  210.6150  157.0000 C   0  0  1  0  0  3  0  0  0  0  0  0
  161.6270  208.2410  156.6470 C   0  0  0  0  0  2  0  0  0  0  0  0
  159.3320  208.8360  156.3050 C   0  0  0  0  0  2  0  0  0  0  0  0
  159.4330  207.3380  156.0960 C   0  0  0  0  0  2  0  0  0  0  0  0
  160.7420  209.3630  156.1520 C   0  0  0  0  0  3  0  0  0  0  0  0
  160.8890  206.9600  156.3090 C   0  0  0  0  0  2  0  0  0  0  0  0
  160.4430  209.9190  152.1100 O   0  0  0  0  0  0  0  0  0  0  0  0
  161.4040  209.0500  151.5940 C   0  0  0  0  0  2  0  0  0  0  0  0
  161.2560  207.6910  152.2480 C   0  0  0  0  0  1  0  0  0  0  0  0
  158.0920  211.5240  154.9250 O   0  0  0  0  0  0  0  0  0  0  0  0
  157.2640  212.4180  155.6270 C   0  0  0  0  0  2  0  0  0  0  0  0
  155.7940  210.4960  155.0940 C   0  0  0  0  0  2  0  0  0  0  0  0
  155.4540  211.6880  157.1780 C   0  0  0  0  0  2  0  0  0  0  0  0
  155.8560  211.8620  155.7300 C   0  0  1  0  0  3  0  0  0  0  0  0
  154.4920  209.8750  155.5440 C   0  0  0  0  0  2  0  0  0  0  0  0
  154.1800  210.3910  157.2610 S   0  0  0  0  0  0  0  0  0  0  0  0
  1  3  1  0  0  0  0
  1 24  1  6  0  0  0
  2  8  1  0  0  0  0
  2  5  1  1  0  0  0
  3 13  1  0  0  0  0
  4  2  1  0  0  0  0
  6 21  1  1  0  0  0
  6  9  1  0  0  0  0
  7 11  1  0  0  0  0
  7  4  1  0  0  0  0
  8  1  1  0  0  0  0
  9 10  2  0  0  0  0
  9  3  1  0  0  0  0
 11 12  1  0  0  0  0
 12  6  1  0  0  0  0
 12  8  1  0  0  0  0
 13 15  1  0  0  0  0
 13 14  1  0  0  0  0
 15 14  1  0  0  0  0
 18 17  1  0  0  0  0
 18 20  1  0  0  0  0
 19 17  1  0  0  0  0
 19 16  1  0  0  0  0
 19 15  1  0  0  0  0
 20 16  1  0  0  0  0
 22 21  1  0  0  0  0
 22 23  1  0  0  0  0
 24 25  1  0  0  0  0
 25 28  1  0  0  0  0
 26 29  1  0  0  0  0
 26 28  1  0  0  0  0
 27 30  1  0  0  0  0
 28 27  1  0  0  0  0
 29 30  1  0  0  0  0
M  END
>  <MODEL>
1

>  <REMARK>
 VINA RESULT:      -3.7      0.000      0.000
  Name = 
  7 active torsions:
  status: ('A' for Active; 'I' for Inactive)
    1  A    between atoms: C_1  and  O_6
    2  A    between atoms: O_3  and  C_11
    3  A    between atoms: O_3  and  C_19
    4  A    between atoms: N_4  and  C_13
    5  A    between atoms: O_6  and  C_8
    6  A    between atoms: C_8  and  C_12
    7  A    between atoms: C_16  and  C_30
                            x       y       z     vdW  Elec       q    Type
                         _______ _______ _______ _____ _____    ______ ____

>  <TORSDO>
F 7

$$$$
=
 OpenBabel11052421553D

 30 34  0  0  1  0  0  0  0  0999 V2000
  159.4710  210.2030  153.8380 C   0  0  1  0  0  3  0  0  0  0  0  0
  160.6890  211.6010  152.0930 C   0  0  1  0  0  3  0  0  0  0  0  0
  159.8270  209.2090  154.8690 N   0  0  0  0  0  0  0  0  0  0  0  0
  161.5650  211.5600  150.8420 C   0  0  0  0  0  2  0  0  0  0  0  0
  159.4320  212.3890  151.7670 C   0  0  0  0  0  1  0  0  0  0  0  0
  161.2790  207.9320  153.2110 C   0  0  2  0  0  3  0  0  0  0  0  0
  162.8360  210.7580  151.0980 C   0  0  0  0  0  2  0  0  0  0  0  0
  160.3440  210.1770  152.5590 C   0  0  1  0  0  3  0  0  0  0  0  0
  160.5360  208.0050  154.5060 C   0  0  0  0  0  0  0  0  0  0  0  0
  160.5240  206.9990  155.2660 O   0  0  0  0  0  0  0  0  0  0  0  0
  162.4760  209.3330  151.4970 C   0  0  0  0  0  2  0  0  0  0  0  0
  161.6240  209.3490  152.7610 C   0  0  2  0  0  3  0  0  0  0  0  0
  159.2500  209.3650  156.2110 C   0  0  1  0  0  3  0  0  0  0  0  0
  160.0800  208.6420  157.2600 C   0  0  0  0  0  2  0  0  0  0  0  0
  160.1550  210.1500  157.1820 C   0  0  1  0  0  3  0  0  0  0  0  0
  161.8910  211.9380  157.1380 C   0  0  0  0  0  2  0  0  0  0  0  0
  162.6130  209.6540  157.1330 C   0  0  0  0  0  2  0  0  0  0  0  0
  163.8640  210.5100  157.1790 C   0  0  0  0  0  2  0  0  0  0  0  0
  161.5170  210.5660  156.6250 C   0  0  0  0  0  3  0  0  0  0  0  0
  163.4070  211.9580  157.1780 C   0  0  0  0  0  2  0  0  0  0  0  0
  160.4910  207.2840  152.2530 O   0  0  0  0  0  0  0  0  0  0  0  0
  161.2450  206.1810  151.8490 C   0  0  0  0  0  2  0  0  0  0  0  0
  160.7820  205.7300  150.4790 C   0  0  0  0  0  1  0  0  0  0  0  0
  158.0870  210.2080  153.5530 O   0  0  0  0  0  0  0  0  0  0  0  0
  157.5680  211.4790  153.8550 C   0  0  0  0  0  2  0  0  0  0  0  0
  157.8000  212.9180  155.8570 C   0  0  0  0  0  2  0  0  0  0  0  0
  155.8020  211.5660  155.6140 C   0  0  0  0  0  2  0  0  0  0  0  0
  157.2910  211.5970  155.3420 C   0  0  1  0  0  3  0  0  0  0  0  0
  157.1830  213.1100  157.2240 C   0  0  0  0  0  2  0  0  0  0  0  0
  155.4950  212.4310  157.1850 S   0  0  0  0  0  0  0  0  0  0  0  0
  1 24  1  6  0  0  0
  1  3  1  0  0  0  0
  2  5  1  6  0  0  0
  2  8  1  0  0  0  0
  3 13  1  0  0  0  0
  4  7  1  0  0  0  0
  4  2  1  0  0  0  0
  6 21  1  6  0  0  0
  6  9  1  0  0  0  0
  7 11  1  0  0  0  0
  8 12  1  0  0  0  0
  8  1  1  0  0  0  0
  9  3  1  0  0  0  0
  9 10  2  0  0  0  0
 11 12  1  0  0  0  0
 12  6  1  0  0  0  0
 13 15  1  0  0  0  0
 13 14  1  0  0  0  0
 15 14  1  0  0  0  0
 16 20  1  0  0  0  0
 17 18  1  0  0  0  0
 19 17  1  0  0  0  0
 19 16  1  0  0  0  0
 19 15  1  0  0  0  0
 20 18  1  0  0  0  0
 22 21  1  0  0  0  0
 23 22  1  0  0  0  0
 24 25  1  0  0  0  0
 25 28  1  0  0  0  0
 26 29  1  0  0  0  0
 27 30  1  0  0  0  0
 28 27  1  0  0  0  0
 28 26  1  0  0  0  0
 30 29  1  0  0  0  0
M  END
>  <MODEL>
2

>  <REMARK>
 VINA RESULT:      -3.5      1.858      3.255
  Name = 
  7 active torsions:
  status: ('A' for Active; 'I' for Inactive)
    1  A    between atoms: C_1  and  O_6
    2  A    between atoms: O_3  and  C_11
    3  A    between atoms: O_3  and  C_19
    4  A    between atoms: N_4  and  C_13
    5  A    between atoms: O_6  and  C_8
    6  A    between atoms: C_8  and  C_12
    7  A    between atoms: C_16  and  C_30
                            x       y       z     vdW  Elec       q    Type
                         _______ _______ _______ _____ _____    ______ ____

>  <TORSDO>
F 7

$$$$
=
 OpenBabel11052421553D

 30 34  0  0  1  0  0  0  0  0999 V2000
  159.7890  211.8370  152.4120 C   0  0  1  0  0  3  0  0  0  0  0  0
  157.3850  211.7760  153.2510 C   0  0  1  0  0  3  0  0  0  0  0  0
  161.0050  211.0140  152.5530 N   0  0  0  0  0  0  0  0  0  0  0  0
  156.4870  211.7990  154.4870 C   0  0  0  0  0  2  0  0  0  0  0  0
  156.9840  212.9310  152.3500 C   0  0  0  0  0  1  0  0  0  0  0  0
  160.6930  210.8900  155.0780 C   0  0  2  0  0  3  0  0  0  0  0  0
  156.8590  210.6750  155.4460 C   0  0  0  0  0  2  0  0  0  0  0  0
  158.8650  211.8780  153.6540 C   0  0  1  0  0  3  0  0  0  0  0  0
  161.5460  210.7310  153.8610 C   0  0  0  0  0  0  0  0  0  0  0  0
  162.7450  210.3640  153.9940 O   0  0  0  0  0  0  0  0  0  0  0  0
  158.3100  210.8280  155.8860 C   0  0  0  0  0  2  0  0  0  0  0  0
  159.2260  210.7790  154.6680 C   0  0  2  0  0  3  0  0  0  0  0  0
  161.7660  210.6880  151.3390 C   0  0  1  0  0  3  0  0  0  0  0  0
  162.9460  209.7800  151.6500 C   0  0  0  0  0  2  0  0  0  0  0  0
  161.7290  209.1900  150.9740 C   0  0  1  0  0  3  0  0  0  0  0  0
  160.5870  206.9950  151.2820 C   0  0  0  0  0  2  0  0  0  0  0  0
  161.8860  207.8640  153.0970 C   0  0  0  0  0  2  0  0  0  0  0  0
  161.3790  206.5040  153.5330 C   0  0  0  0  0  2  0  0  0  0  0  0
  160.9850  208.2880  151.9590 C   0  0  0  0  0  3  0  0  0  0  0  0
  160.5520  205.9530  152.3840 C   0  0  0  0  0  2  0  0  0  0  0  0
  160.9500  212.1300  155.6750 O   0  0  0  0  0  0  0  0  0  0  0  0
  161.0610  211.8590  157.0390 C   0  0  0  0  0  2  0  0  0  0  0  0
  162.1130  210.7900  157.2550 C   0  0  0  0  0  1  0  0  0  0  0  0
  160.0680  213.1230  151.8980 O   0  0  0  0  0  0  0  0  0  0  0  0
  159.4390  213.2580  150.6490 C   0  0  0  0  0  2  0  0  0  0  0  0
  161.2060  212.6440  149.0250 C   0  0  0  0  0  2  0  0  0  0  0  0
  159.6880  214.4530  148.4740 C   0  0  0  0  0  2  0  0  0  0  0  0
  160.4200  213.7850  149.6180 C   0  0  1  0  0  3  0  0  0  0  0  0
  161.8820  213.1890  147.7880 C   0  0  0  0  0  2  0  0  0  0  0  0
  160.7510  214.3770  147.0000 S   0  0  0  0  0  0  0  0  0  0  0  0
  1 24  1  1  0  0  0
  1  3  1  0  0  0  0
  1  8  1  0  0  0  0
  2  5  1  6  0  0  0
  2  8  1  0  0  0  0
  2  4  1  0  0  0  0
  3  9  1  0  0  0  0
  4  7  1  0  0  0  0
  6 21  1  6  0  0  0
  7 11  1  0  0  0  0
  8 12  1  0  0  0  0
  9 10  2  0  0  0  0
  9  6  1  0  0  0  0
 12  6  1  0  0  0  0
 12 11  1  0  0  0  0
 13 14  1  0  0  0  0
 13  3  1  0  0  0  0
 15 13  1  0  0  0  0
 15 14  1  0  0  0  0
 15 19  1  0  0  0  0
 16 19  1  0  0  0  0
 16 20  1  0  0  0  0
 17 18  1  0  0  0  0
 19 17  1  0  0  0  0
 20 18  1  0  0  0  0
 21 22  1  0  0  0  0
 22 23  1  0  0  0  0
 25 24  1  0  0  0  0
 26 28  1  0  0  0  0
 27 28  1  0  0  0  0
 28 25  1  0  0  0  0
 29 26  1  0  0  0  0
 30 29  1  0  0  0  0
 30 27  1  0  0  0  0
M  END
>  <MODEL>
3

>  <REMARK>
 VINA RESULT:      -3.3      2.934      5.768
  Name = 
  7 active torsions:
  status: ('A' for Active; 'I' for Inactive)
    1  A    between atoms: C_1  and  O_6
    2  A    between atoms: O_3  and  C_11
    3  A    between atoms: O_3  and  C_19
    4  A    between atoms: N_4  and  C_13
    5  A    between atoms: O_6  and  C_8
    6  A    between atoms: C_8  and  C_12
    7  A    between atoms: C_16  and  C_30
                            x       y       z     vdW  Elec       q    Type
                         _______ _______ _______ _____ _____    ______ ____

>  <TORSDO>
F 7

$$$$
=
 OpenBabel11052421553D

 30 34  0  0  1  0  0  0  0  0999 V2000
  159.9200  212.0440  153.5830 C   0  0  1  0  0  3  0  0  0  0  0  0
  159.4620  213.3680  151.4560 C   0  0  1  0  0  3  0  0  0  0  0  0
  161.0760  211.3830  154.2180 N   0  0  0  0  0  0  0  0  0  0  0  0
  159.4680  213.3280  149.9290 C   0  0  0  0  0  2  0  0  0  0  0  0
  158.0600  213.7270  151.9170 C   0  0  0  0  0  1  0  0  0  0  0  0
  161.7000  210.2480  152.0250 C   0  0  2  0  0  3  0  0  0  0  0  0
  160.8470  212.9460  149.4030 C   0  0  0  0  0  2  0  0  0  0  0  0
  159.9040  212.0130  152.0350 C   0  0  1  0  0  3  0  0  0  0  0  0
  161.8100  210.3610  153.5110 C   0  0  0  0  0  0  0  0  0  0  0  0
  162.5370  209.5430  154.1380 O   0  0  0  0  0  0  0  0  0  0  0  0
  161.2410  211.5740  149.9350 C   0  0  0  0  0  2  0  0  0  0  0  0
  161.2690  211.5990  151.4600 C   0  0  2  0  0  3  0  0  0  0  0  0
  161.3150  211.6270  155.6470 C   0  0  1  0  0  3  0  0  0  0  0  0
  160.0580  211.3870  156.4690 C   0  0  0  0  0  2  0  0  0  0  0  0
  161.1700  210.3630  156.5190 C   0  0  1  0  0  3  0  0  0  0  0  0
  161.3780  207.8820  156.4080 C   0  0  0  0  0  2  0  0  0  0  0  0
  159.2460  208.8660  155.9340 C   0  0  0  0  0  2  0  0  0  0  0  0
  159.0600  207.3620  155.8660 C   0  0  0  0  0  2  0  0  0  0  0  0
  160.7330  209.0980  155.7820 C   0  0  0  0  0  3  0  0  0  0  0  0
  160.4130  206.7380  156.1630 C   0  0  0  0  0  2  0  0  0  0  0  0
  160.7720  209.2530  151.6960 O   0  0  0  0  0  0  0  0  0  0  0  0
  161.5330  208.2050  151.1770 C   0  0  0  0  0  2  0  0  0  0  0  0
  161.4790  207.0260  152.1260 C   0  0  0  0  0  1  0  0  0  0  0  0
  158.6920  211.6360  154.1490 O   0  0  0  0  0  0  0  0  0  0  0  0
  158.0420  212.7630  154.6810 C   0  0  0  0  0  2  0  0  0  0  0  0
  156.4220  210.9140  154.9900 C   0  0  0  0  0  2  0  0  0  0  0  0
  156.4520  212.7260  156.6020 C   0  0  0  0  0  2  0  0  0  0  0  0
  156.6410  212.3990  155.1360 C   0  0  1  0  0  3  0  0  0  0  0  0
  155.1750  210.5870  155.7790 C   0  0  0  0  0  2  0  0  0  0  0  0
  155.1470  211.6420  157.2610 S   0  0  0  0  0  0  0  0  0  0  0  0
  1 24  1  1  0  0  0
  1  3  1  0  0  0  0
  2  5  1  1  0  0  0
  2  8  1  0  0  0  0
  3 13  1  0  0  0  0
  4  2  1  0  0  0  0
  6 21  1  1  0  0  0
  6  9  1  0  0  0  0
  7  4  1  0  0  0  0
  7 11  1  0  0  0  0
  8  1  1  0  0  0  0
  9 10  2  0  0  0  0
  9  3  1  0  0  0  0
 11 12  1  0  0  0  0
 12  6  1  0  0  0  0
 12  8  1  0  0  0  0
 13 14  1  0  0  0  0
 13 15  1  0  0  0  0
 14 15  1  0  0  0  0
 18 17  1  0  0  0  0
 18 20  1  0  0  0  0
 19 17  1  0  0  0  0
 19 16  1  0  0  0  0
 19 15  1  0  0  0  0
 20 16  1  0  0  0  0
 22 21  1  0  0  0  0
 22 23  1  0  0  0  0
 24 25  1  0  0  0  0
 25 28  1  0  0  0  0
 26 28  1  0  0  0  0
 26 29  1  0  0  0  0
 27 30  1  0  0  0  0
 28 27  1  0  0  0  0
 29 30  1  0  0  0  0
M  END
>  <MODEL>
4

>  <REMARK>
 VINA RESULT:      -3.1      0.954      1.106
  Name = 
  7 active torsions:
  status: ('A' for Active; 'I' for Inactive)
    1  A    between atoms: C_1  and  O_6
    2  A    between atoms: O_3  and  C_11
    3  A    between atoms: O_3  and  C_19
    4  A    between atoms: N_4  and  C_13
    5  A    between atoms: O_6  and  C_8
    6  A    between atoms: C_8  and  C_12
    7  A    between atoms: C_16  and  C_30
                            x       y       z     vdW  Elec       q    Type
                         _______ _______ _______ _____ _____    ______ ____

>  <TORSDO>
F 7

$$$$
=
 OpenBabel11052421553D

 30 34  0  0  1  0  0  0  0  0999 V2000
  161.5470  211.0810  150.1840 C   0  0  1  0  0  3  0  0  0  0  0  0
  161.5210  209.8690  152.4240 C   0  0  1  0  0  3  0  0  0  0  0  0
  161.5660  212.4780  149.7100 N   0  0  0  0  0  0  0  0  0  0  0  0
  160.7450  209.6500  153.7220 C   0  0  0  0  0  2  0  0  0  0  0  0
  161.7220  208.5190  151.7570 C   0  0  0  0  0  1  0  0  0  0  0  0
  159.6870  213.1040  151.3120 C   0  0  2  0  0  3  0  0  0  0  0  0
  160.4870  210.9760  154.4280 C   0  0  0  0  0  2  0  0  0  0  0  0
  160.7640  210.8350  151.4970 C   0  0  1  0  0  3  0  0  0  0  0  0
  160.5310  213.3990  150.1140 C   0  0  0  0  0  0  0  0  0  0  0  0
  160.3160  214.4520  149.4540 O   0  0  0  0  0  0  0  0  0  0  0  0
  159.6820  211.8970  153.5200 C   0  0  0  0  0  2  0  0  0  0  0  0
  160.4510  212.1510  152.2280 C   0  0  2  0  0  3  0  0  0  0  0  0
  162.5220  212.8380  148.6540 C   0  0  1  0  0  3  0  0  0  0  0  0
  162.4960  211.8310  147.5140 C   0  0  0  0  0  2  0  0  0  0  0  0
  161.8520  213.1830  147.3090 C   0  0  1  0  0  3  0  0  0  0  0  0
  159.6920  214.2810  146.7210 C   0  0  0  0  0  2  0  0  0  0  0  0
  159.9240  211.9340  146.3030 C   0  0  0  0  0  2  0  0  0  0  0  0
  158.5580  212.3390  145.7860 C   0  0  0  0  0  2  0  0  0  0  0  0
  160.3320  213.0250  147.2690 C   0  0  0  0  0  3  0  0  0  0  0  0
  158.4080  213.8260  146.0540 C   0  0  0  0  0  2  0  0  0  0  0  0
  158.4740  212.5370  150.9040 O   0  0  0  0  0  0  0  0  0  0  0  0
  157.5770  213.6040  150.8480 C   0  0  0  0  0  2  0  0  0  0  0  0
  156.8000  213.5380  149.5490 C   0  0  0  0  0  1  0  0  0  0  0  0
  161.1930  210.1730  149.1610 O   0  0  0  0  0  0  0  0  0  0  0  0
  162.1190  209.1150  149.1560 C   0  0  0  0  0  2  0  0  0  0  0  0
  162.7290  207.1920  147.7180 C   0  0  0  0  0  2  0  0  0  0  0  0
  160.8440  206.9730  149.2280 C   0  0  0  0  0  2  0  0  0  0  0  0
  161.5850  207.9500  148.3420 C   0  0  1  0  0  3  0  0  0  0  0  0
  162.1570  205.8770  147.2380 C   0  0  0  0  0  2  0  0  0  0  0  0
  160.8970  205.3360  148.4340 S   0  0  0  0  0  0  0  0  0  0  0  0
  1 24  1  6  0  0  0
  1  8  1  0  0  0  0
  2  5  1  6  0  0  0
  2  4  1  0  0  0  0
  3  9  1  0  0  0  0
  3  1  1  0  0  0  0
  4  7  1  0  0  0  0
  6 21  1  6  0  0  0
  6 12  1  0  0  0  0
  8 12  1  0  0  0  0
  8  2  1  0  0  0  0
  9  6  1  0  0  0  0
 10  9  2  0  0  0  0
 11  7  1  0  0  0  0
 12 11  1  0  0  0  0
 13  3  1  0  0  0  0
 14 13  1  0  0  0  0
 15 14  1  0  0  0  0
 15 13  1  0  0  0  0
 16 19  1  0  0  0  0
 17 19  1  0  0  0  0
 18 20  1  0  0  0  0
 18 17  1  0  0  0  0
 19 15  1  0  0  0  0
 20 16  1  0  0  0  0
 22 21  1  0  0  0  0
 23 22  1  0  0  0  0
 25 24  1  0  0  0  0
 26 28  1  0  0  0  0
 28 25  1  0  0  0  0
 28 27  1  0  0  0  0
 29 26  1  0  0  0  0
 29 30  1  0  0  0  0
 30 27  1  0  0  0  0
M  END
>  <MODEL>
5

>  <REMARK>
 VINA RESULT:      -3.1      3.838      8.218
  Name = 
  7 active torsions:
  status: ('A' for Active; 'I' for Inactive)
    1  A    between atoms: C_1  and  O_6
    2  A    between atoms: O_3  and  C_11
    3  A    between atoms: O_3  and  C_19
    4  A    between atoms: N_4  and  C_13
    5  A    between atoms: O_6  and  C_8
    6  A    between atoms: C_8  and  C_12
    7  A    between atoms: C_16  and  C_30
                            x       y       z     vdW  Elec       q    Type
                         _______ _______ _______ _____ _____    ______ ____

>  <TORSDO>
F 7

$$$$
=
 OpenBabel11052421553D

 30 34  0  0  1  0  0  0  0  0999 V2000
  160.6600  210.4140  153.6730 C   0  0  1  0  0  3  0  0  0  0  0  0
  161.7650  208.8710  151.9760 C   0  0  1  0  0  3  0  0  0  0  0  0
  160.7040  210.6260  155.1330 N   0  0  0  0  0  0  0  0  0  0  0  0
  161.9570  207.4190  151.5390 C   0  0  0  0  0  2  0  0  0  0  0  0
  161.1790  209.6450  150.8090 C   0  0  0  0  0  1  0  0  0  0  0  0
  160.4660  208.1250  155.5570 C   0  0  2  0  0  3  0  0  0  0  0  0
  162.5210  206.5810  152.6800 C   0  0  0  0  0  2  0  0  0  0  0  0
  160.8480  208.9490  153.2080 C   0  0  1  0  0  3  0  0  0  0  0  0
  160.4070  209.5400  156.0360 C   0  0  0  0  0  0  0  0  0  0  0  0
  160.0790  209.7710  157.2320 O   0  0  0  0  0  0  0  0  0  0  0  0
  161.5690  206.6180  153.8690 C   0  0  0  0  0  2  0  0  0  0  0  0
  161.3850  208.0570  154.3390 C   0  0  2  0  0  3  0  0  0  0  0  0
  160.8320  212.0020  155.6300 C   0  0  1  0  0  3  0  0  0  0  0  0
  160.0060  212.9720  154.7980 C   0  0  0  0  0  2  0  0  0  0  0  0
  159.5120  212.5850  156.1740 C   0  0  1  0  0  3  0  0  0  0  0  0
  157.4010  211.8240  157.2600 C   0  0  0  0  0  2  0  0  0  0  0  0
  157.4160  212.1120  154.8820 C   0  0  0  0  0  2  0  0  0  0  0  0
  156.0030  211.7220  155.2680 C   0  0  0  0  0  2  0  0  0  0  0  0
  158.2870  211.6820  156.0420 C   0  0  0  0  0  3  0  0  0  0  0  0
  155.9930  211.5360  156.7750 C   0  0  0  0  0  2  0  0  0  0  0  0
  159.1780  207.6840  155.2330 O   0  0  0  0  0  0  0  0  0  0  0  0
  158.9110  206.6530  156.1340 C   0  0  0  0  0  2  0  0  0  0  0  0
  160.0250  206.5800  157.1580 C   0  0  0  0  0  1  0  0  0  0  0  0
  159.5410  211.0360  153.0750 O   0  0  0  0  0  0  0  0  0  0  0  0
  159.9770  212.1790  152.3810 C   0  0  0  0  0  2  0  0  0  0  0  0
  157.9270  213.4760  151.8790 C   0  0  0  0  0  2  0  0  0  0  0  0
  159.6530  213.3130  150.1840 C   0  0  0  0  0  2  0  0  0  0  0  0
  158.9750  212.5570  151.3060 C   0  0  1  0  0  3  0  0  0  0  0  0
  157.1980  214.0800  150.7010 C   0  0  0  0  0  2  0  0  0  0  0  0
  158.4040  214.3540  149.3670 S   0  0  0  0  0  0  0  0  0  0  0  0
  1 24  1  1  0  0  0
  1  3  1  0  0  0  0
  2  5  1  6  0  0  0
  2  8  1  0  0  0  0
  3 13  1  0  0  0  0
  3  9  1  0  0  0  0
  4  2  1  0  0  0  0
  4  7  1  0  0  0  0
  6 21  1  6  0  0  0
  6  9  1  0  0  0  0
  7 11  1  0  0  0  0
  8  1  1  0  0  0  0
  8 12  1  0  0  0  0
  9 10  2  0  0  0  0
 11 12  1  0  0  0  0
 12  6  1  0  0  0  0
 13 15  1  0  0  0  0
 14 13  1  0  0  0  0
 14 15  1  0  0  0  0
 17 18  1  0  0  0  0
 17 19  1  0  0  0  0
 18 20  1  0  0  0  0
 19 15  1  0  0  0  0
 19 16  1  0  0  0  0
 20 16  1  0  0  0  0
 21 22  1  0  0  0  0
 22 23  1  0  0  0  0
 25 24  1  0  0  0  0
 27 28  1  0  0  0  0
 28 26  1  0  0  0  0
 28 25  1  0  0  0  0
 29 26  1  0  0  0  0
 30 27  1  0  0  0  0
 30 29  1  0  0  0  0
M  END
>  <MODEL>
6

>  <REMARK>
 VINA RESULT:      -2.6      2.344      5.308
  Name = 
  7 active torsions:
  status: ('A' for Active; 'I' for Inactive)
    1  A    between atoms: C_1  and  O_6
    2  A    between atoms: O_3  and  C_11
    3  A    between atoms: O_3  and  C_19
    4  A    between atoms: N_4  and  C_13
    5  A    between atoms: O_6  and  C_8
    6  A    between atoms: C_8  and  C_12
    7  A    between atoms: C_16  and  C_30
                            x       y       z     vdW  Elec       q    Type
                         _______ _______ _______ _____ _____    ______ ____

>  <TORSDO>
F 7

$$$$
=
 OpenBabel11052421553D

 30 34  0  0  1  0  0  0  0  0999 V2000
  159.8830  211.6370  154.0930 C   0  0  1  0  0  3  0  0  0  0  0  0
  161.1650  209.6150  153.2230 C   0  0  1  0  0  3  0  0  0  0  0  0
  159.4840  212.1830  155.4050 N   0  0  0  0  0  0  0  0  0  0  0  0
  161.2050  208.0890  153.1570 C   0  0  0  0  0  2  0  0  0  0  0  0
  161.1570  210.1530  151.8040 C   0  0  0  0  0  1  0  0  0  0  0  0
  158.6420  209.9010  156.1590 C   0  0  2  0  0  3  0  0  0  0  0  0
  161.1880  207.4870  154.5570 C   0  0  0  0  0  2  0  0  0  0  0  0
  159.9270  210.0910  154.0020 C   0  0  1  0  0  3  0  0  0  0  0  0
  158.7030  211.3860  156.3190 C   0  0  0  0  0  0  0  0  0  0  0  0
  158.0510  211.9310  157.2510 O   0  0  0  0  0  0  0  0  0  0  0  0
  159.9240  207.9170  155.2910 C   0  0  0  0  0  2  0  0  0  0  0  0
  159.8790  209.4380  155.3930 C   0  0  2  0  0  3  0  0  0  0  0  0
  159.7050  213.6130  155.6550 C   0  0  1  0  0  3  0  0  0  0  0  0
  159.3660  214.4510  154.4320 C   0  0  0  0  0  2  0  0  0  0  0  0
  158.4130  214.4530  155.6070 C   0  0  1  0  0  3  0  0  0  0  0  0
  155.9910  214.1420  156.1050 C   0  0  0  0  0  2  0  0  0  0  0  0
  156.7070  214.0120  153.8230 C   0  0  0  0  0  2  0  0  0  0  0  0
  155.1980  213.8620  153.8180 C   0  0  0  0  0  2  0  0  0  0  0  0
  157.1430  213.6900  155.2350 C   0  0  0  0  0  3  0  0  0  0  0  0
  154.7440  213.9410  155.2650 C   0  0  0  0  0  2  0  0  0  0  0  0
  157.4720  209.5490  155.4750 O   0  0  0  0  0  0  0  0  0  0  0  0
  156.5250  210.4950  155.8660 C   0  0  0  0  0  2  0  0  0  0  0  0
  155.2820  210.3430  155.0140 C   0  0  0  0  0  1  0  0  0  0  0  0
  159.1670  212.2250  153.0270 O   0  0  0  0  0  0  0  0  0  0  0  0
  160.0840  212.7030  152.0750 C   0  0  0  0  0  2  0  0  0  0  0  0
  160.1160  213.4270  149.7060 C   0  0  0  0  0  2  0  0  0  0  0  0
  157.9820  212.9560  150.7570 C   0  0  0  0  0  2  0  0  0  0  0  0
  159.3660  213.5130  151.0110 C   0  0  1  0  0  3  0  0  0  0  0  0
  159.1770  213.9420  148.6400 C   0  0  0  0  0  2  0  0  0  0  0  0
  157.4890  213.4130  149.0660 S   0  0  0  0  0  0  0  0  0  0  0  0
  1 24  1  6  0  0  0
  1  3  1  0  0  0  0
  2  5  1  6  0  0  0
  2  8  1  0  0  0  0
  3 13  1  0  0  0  0
  3  9  1  0  0  0  0
  4  2  1  0  0  0  0
  4  7  1  0  0  0  0
  6 21  1  6  0  0  0
  6  9  1  0  0  0  0
  7 11  1  0  0  0  0
  8  1  1  0  0  0  0
  8 12  1  0  0  0  0
  9 10  2  0  0  0  0
 11 12  1  0  0  0  0
 12  6  1  0  0  0  0
 14 15  1  0  0  0  0
 14 13  1  0  0  0  0
 15 13  1  0  0  0  0
 17 19  1  0  0  0  0
 18 17  1  0  0  0  0
 18 20  1  0  0  0  0
 19 15  1  0  0  0  0
 19 16  1  0  0  0  0
 20 16  1  0  0  0  0
 21 22  1  0  0  0  0
 23 22  1  0  0  0  0
 25 24  1  0  0  0  0
 26 28  1  0  0  0  0
 27 28  1  0  0  0  0
 28 25  1  0  0  0  0
 29 30  1  0  0  0  0
 29 26  1  0  0  0  0
 30 27  1  0  0  0  0
M  END
>  <MODEL>
7

>  <REMARK>
 VINA RESULT:      -2.4      2.346      6.032
  Name = 
  7 active torsions:
  status: ('A' for Active; 'I' for Inactive)
    1  A    between atoms: C_1  and  O_6
    2  A    between atoms: O_3  and  C_11
    3  A    between atoms: O_3  and  C_19
    4  A    between atoms: N_4  and  C_13
    5  A    between atoms: O_6  and  C_8
    6  A    between atoms: C_8  and  C_12
    7  A    between atoms: C_16  and  C_30
                            x       y       z     vdW  Elec       q    Type
                         _______ _______ _______ _____ _____    ______ ____

>  <TORSDO>
F 7

$$$$
=
 OpenBabel11052421553D

 30 34  0  0  1  0  0  0  0  0999 V2000
  161.2230  211.6120  150.6370 C   0  0  1  0  0  3  0  0  0  0  0  0
  160.6720  211.0920  153.0690 C   0  0  1  0  0  3  0  0  0  0  0  0
  161.2920  212.8080  149.7760 N   0  0  0  0  0  0  0  0  0  0  0  0
  159.5950  211.1510  154.1510 C   0  0  0  0  0  2  0  0  0  0  0  0
  161.1150  209.6480  152.9170 C   0  0  0  0  0  1  0  0  0  0  0  0
  159.0260  213.6110  150.6170 C   0  0  2  0  0  3  0  0  0  0  0  0
  159.0880  212.5770  154.3330 C   0  0  0  0  0  2  0  0  0  0  0  0
  160.1350  211.6490  151.7400 C   0  0  1  0  0  3  0  0  0  0  0  0
  160.1390  213.6620  149.6210 C   0  0  0  0  0  0  0  0  0  0  0  0
  160.0490  214.4470  148.6380 O   0  0  0  0  0  0  0  0  0  0  0  0
  158.5020  213.0890  153.0230 C   0  0  0  0  0  2  0  0  0  0  0  0
  159.5710  213.0650  151.9350 C   0  0  2  0  0  3  0  0  0  0  0  0
  162.4710  212.9760  148.9160 C   0  0  1  0  0  3  0  0  0  0  0  0
  162.5870  211.8460  147.9040 C   0  0  0  0  0  2  0  0  0  0  0  0
  162.1230  213.2060  147.4320 C   0  0  1  0  0  3  0  0  0  0  0  0
  160.2990  214.2070  146.0590 C   0  0  0  0  0  2  0  0  0  0  0  0
  160.2850  211.8380  146.4150 C   0  0  0  0  0  2  0  0  0  0  0  0
  159.1200  212.1510  145.4960 C   0  0  0  0  0  2  0  0  0  0  0  0
  160.6360  213.1480  147.0850 C   0  0  0  0  0  3  0  0  0  0  0  0
  159.1260  213.6540  145.2740 C   0  0  0  0  0  2  0  0  0  0  0  0
  157.9950  212.7980  150.1300 O   0  0  0  0  0  0  0  0  0  0  0  0
  156.9500  213.6740  149.8370 C   0  0  0  0  0  2  0  0  0  0  0  0
  156.7270  213.7070  148.3390 C   0  0  0  0  0  1  0  0  0  0  0  0
  161.2020  210.4140  149.8910 O   0  0  0  0  0  0  0  0  0  0  0  0
  162.3270  209.6450  150.2360 C   0  0  0  0  0  2  0  0  0  0  0  0
  161.2060  207.4510  150.4850 C   0  0  0  0  0  2  0  0  0  0  0  0
  161.6770  208.2780  148.2550 C   0  0  0  0  0  2  0  0  0  0  0  0
  162.2010  208.2410  149.6740 C   0  0  1  0  0  3  0  0  0  0  0  0
  160.8740  206.2210  149.6710 C   0  0  0  0  0  2  0  0  0  0  0  0
  160.8530  206.6920  147.9140 S   0  0  0  0  0  0  0  0  0  0  0  0
  1 24  1  6  0  0  0
  1  8  1  0  0  0  0
  2  5  1  6  0  0  0
  2  4  1  0  0  0  0
  3  1  1  0  0  0  0
  4  7  1  0  0  0  0
  6 21  1  6  0  0  0
  6 12  1  0  0  0  0
  8 12  1  0  0  0  0
  8  2  1  0  0  0  0
  9  3  1  0  0  0  0
  9  6  1  0  0  0  0
 10  9  2  0  0  0  0
 11  7  1  0  0  0  0
 12 11  1  0  0  0  0
 13  3  1  0  0  0  0
 14 13  1  0  0  0  0
 15 14  1  0  0  0  0
 15 13  1  0  0  0  0
 16 19  1  0  0  0  0
 17 19  1  0  0  0  0
 18 17  1  0  0  0  0
 19 15  1  0  0  0  0
 20 18  1  0  0  0  0
 20 16  1  0  0  0  0
 22 21  1  0  0  0  0
 23 22  1  0  0  0  0
 24 25  1  0  0  0  0
 27 28  1  0  0  0  0
 28 25  1  0  0  0  0
 28 26  1  0  0  0  0
 29 26  1  0  0  0  0
 30 27  1  0  0  0  0
 30 29  1  0  0  0  0
M  END
>  <MODEL>
8

>  <REMARK>
 VINA RESULT:      -2.2      3.758      7.956
  Name = 
  7 active torsions:
  status: ('A' for Active; 'I' for Inactive)
    1  A    between atoms: C_1  and  O_6
    2  A    between atoms: O_3  and  C_11
    3  A    between atoms: O_3  and  C_19
    4  A    between atoms: N_4  and  C_13
    5  A    between atoms: O_6  and  C_8
    6  A    between atoms: C_8  and  C_12
    7  A    between atoms: C_16  and  C_30
                            x       y       z     vdW  Elec       q    Type
                         _______ _______ _______ _____ _____    ______ ____

>  <TORSDO>
F 7

$$$$
=
 OpenBabel11052421553D

 30 34  0  0  1  0  0  0  0  0999 V2000
  161.5710  209.2720  151.0260 C   0  0  1  0  0  3  0  0  0  0  0  0
  161.4480  207.6860  153.0150 C   0  0  1  0  0  3  0  0  0  0  0  0
  161.8240  210.7080  150.8020 N   0  0  0  0  0  0  0  0  0  0  0  0
  160.7210  207.3670  154.3210 C   0  0  0  0  0  2  0  0  0  0  0  0
  161.3560  206.4710  152.1100 C   0  0  0  0  0  1  0  0  0  0  0  0
  160.1890  211.3400  152.6500 C   0  0  2  0  0  3  0  0  0  0  0  0
  160.7560  208.5630  155.2660 C   0  0  0  0  0  2  0  0  0  0  0  0
  160.8320  208.9240  152.3420 C   0  0  1  0  0  3  0  0  0  0  0  0
  161.0030  211.7030  151.4500 C   0  0  0  0  0  0  0  0  0  0  0  0
  160.9500  212.8810  151.0040 O   0  0  0  0  0  0  0  0  0  0  0  0
  160.0850  209.7610  154.6080 C   0  0  0  0  0  2  0  0  0  0  0  0
  160.8130  210.1150  153.3150 C   0  0  2  0  0  3  0  0  0  0  0  0
  162.7680  211.0880  149.7420 C   0  0  1  0  0  3  0  0  0  0  0  0
  162.3520  210.5140  148.3950 C   0  0  0  0  0  2  0  0  0  0  0  0
  162.1450  211.9890  148.6570 C   0  0  1  0  0  3  0  0  0  0  0  0
  160.4130  213.7670  148.8940 C   0  0  0  0  0  2  0  0  0  0  0  0
  159.8810  211.8290  147.5910 C   0  0  0  0  0  2  0  0  0  0  0  0
  158.6880  212.7610  147.4990 C   0  0  0  0  0  2  0  0  0  0  0  0
  160.6520  212.2750  148.8130 C   0  0  0  0  0  3  0  0  0  0  0  0
  159.0230  213.9880  148.3290 C   0  0  0  0  0  2  0  0  0  0  0  0
  158.8700  211.0770  152.2620 O   0  0  0  0  0  0  0  0  0  0  0  0
  158.1760  212.2620  152.5110 C   0  0  0  0  0  2  0  0  0  0  0  0
  157.5420  212.1920  153.8850 C   0  0  0  0  0  1  0  0  0  0  0  0
  160.9970  208.6450  149.8980 O   0  0  0  0  0  0  0  0  0  0  0  0
  161.9410  207.7670  149.3380 C   0  0  0  0  0  2  0  0  0  0  0  0
  161.9580  206.6850  147.1100 C   0  0  0  0  0  2  0  0  0  0  0  0
  161.3240  205.3690  149.0450 C   0  0  0  0  0  2  0  0  0  0  0  0
  161.2530  206.7550  148.4410 C   0  0  1  0  0  3  0  0  0  0  0  0
  161.4540  205.4350  146.4260 C   0  0  0  0  0  2  0  0  0  0  0  0
  161.2030  204.1560  147.6950 S   0  0  0  0  0  0  0  0  0  0  0  0
  1 24  1  6  0  0  0
  1  8  1  0  0  0  0
  2  5  1  6  0  0  0
  2  4  1  0  0  0  0
  3  1  1  0  0  0  0
  3  9  1  0  0  0  0
  4  7  1  0  0  0  0
  6 21  1  6  0  0  0
  6 12  1  0  0  0  0
  8  2  1  0  0  0  0
  8 12  1  0  0  0  0
  9  6  1  0  0  0  0
 10  9  2  0  0  0  0
 11  7  1  0  0  0  0
 12 11  1  0  0  0  0
 13  3  1  0  0  0  0
 14 15  1  0  0  0  0
 14 13  1  0  0  0  0
 15 19  1  0  0  0  0
 15 13  1  0  0  0  0
 17 19  1  0  0  0  0
 18 17  1  0  0  0  0
 18 20  1  0  0  0  0
 19 16  1  0  0  0  0
 20 16  1  0  0  0  0
 21 22  1  0  0  0  0
 22 23  1  0  0  0  0
 25 24  1  0  0  0  0
 26 28  1  0  0  0  0
 28 27  1  0  0  0  0
 28 25  1  0  0  0  0
 29 26  1  0  0  0  0
 29 30  1  0  0  0  0
 30 27  1  0  0  0  0
M  END
>  <MODEL>
9

>  <REMARK>
 VINA RESULT:      -2.0      3.654      7.952
  Name = 
  7 active torsions:
  status: ('A' for Active; 'I' for Inactive)
    1  A    between atoms: C_1  and  O_6
    2  A    between atoms: O_3  and  C_11
    3  A    between atoms: O_3  and  C_19
    4  A    between atoms: N_4  and  C_13
    5  A    between atoms: O_6  and  C_8
    6  A    between atoms: C_8  and  C_12
    7  A    between atoms: C_16  and  C_30
                            x       y       z     vdW  Elec       q    Type
                         _______ _______ _______ _____ _____    ______ ____

>  <TORSDO>
F 7

$$$$
