=
 OpenBabel11052422463D

 28 32  0  0  1  0  0  0  0  0999 V2000
  161.7320  209.5230  150.4870 C   0  0  0  0  0  0  0  0  0  0  0  0
  161.7360  205.1400  147.5590 C   0  0  0  0  0  2  0  0  0  0  0  0
  161.1100  205.6650  153.5990 C   0  0  0  0  0  1  0  0  0  0  0  0
  160.8680  202.4590  148.7540 C   0  0  0  0  0  2  0  0  0  0  0  0
  161.4150  205.8780  149.8170 C   0  0  0  0  0  0  0  0  0  0  0  0
  161.0860  203.0500  146.3250 C   0  0  0  0  0  0  0  0  0  0  0  0
  161.4250  204.8710  148.8320 C   0  0  0  0  0  0  0  0  0  0  0  0
  161.1090  203.7240  151.0590 S   0  0  0  0  0  0  0  0  0  0  0  0
  160.6270  202.2800  147.3110 C   0  0  0  0  0  3  0  0  0  0  0  0
  161.4290  207.6260  152.0140 C   0  0  0  0  0  0  0  0  0  0  0  0
  161.5860  207.2460  149.5970 C   0  0  0  0  0  3  0  0  0  0  0  0
  161.2040  203.5920  149.3800 C   0  0  0  0  0  0  0  0  0  0  0  0
  161.6080  209.8860  152.8850 C   0  0  0  0  0  3  0  0  0  0  0  0
  161.2710  206.2370  152.2260 C   0  0  0  0  0  0  0  0  0  0  0  0
  161.4440  208.5170  153.0950 C   0  0  0  0  0  3  0  0  0  0  0  0
  160.6730  202.7840  145.0270 O   0  0  0  0  0  1  0  0  0  0  0  0
  162.1070  204.1130  146.5390 C   0  0  0  0  0  2  0  0  0  0  0  0
  161.2690  205.3970  151.1100 C   0  0  0  0  0  0  0  0  0  0  0  0
  161.7520  210.3830  151.5900 C   0  0  0  0  0  3  0  0  0  0  0  0
  161.5820  208.1340  150.6880 C   0  0  0  0  0  0  0  0  0  0  0  0
  161.8770  210.1160  149.1030 C   0  0  0  0  0  2  0  0  0  0  0  0
  162.0950  211.5730  149.0810 N   0  0  0  0  0  0  0  0  0  0  0  0
  161.5590  213.1440  147.3320 C   0  0  1  0  0  3  0  0  0  0  0  0
  160.8710  212.2820  149.4540 C   0  0  0  0  0  2  0  0  0  0  0  0
  163.9180  212.5090  147.7600 C   0  0  0  0  0  1  0  0  0  0  0  0
  162.4830  212.0200  147.7450 C   0  0  1  0  0  3  0  0  0  0  0  0
  161.1320  212.9600  145.8890 C   0  0  0  0  0  1  0  0  0  0  0  0
  160.3630  213.0210  148.2360 C   0  0  0  0  0  2  0  0  0  0  0  0
  1 20  2  0  0  0  0
  1 19  1  0  0  0  0
  2  7  1  0  0  0  0
  4 12  1  0  0  0  0
  5 18  1  0  0  0  0
  6 17  1  0  0  0  0
  6  9  2  0  0  0  0
  7 12  2  0  0  0  0
  7  5  1  0  0  0  0
  8 18  1  0  0  0  0
  9  4  1  0  0  0  0
 10 14  1  0  0  0  0
 10 15  2  0  0  0  0
 11  5  2  0  0  0  0
 11 20  1  0  0  0  0
 12  8  1  0  0  0  0
 13 15  1  0  0  0  0
 14  3  1  0  0  0  0
 16  6  1  0  0  0  0
 17  2  1  0  0  0  0
 18 14  2  0  0  0  0
 19 13  2  0  0  0  0
 20 10  1  0  0  0  0
 21  1  1  0  0  0  0
 22 21  1  0  0  0  0
 22 24  1  0  0  0  0
 23 27  1  6  0  0  0
 23 26  1  0  0  0  0
 23 28  1  0  0  0  0
 26 25  1  1  0  0  0
 26 22  1  0  0  0  0
 28 24  1  0  0  0  0
M  END
>  <MODEL>
1

>  <REMARK>
 VINA RESULT:      -9.8      0.000      0.000
  Name = 
  2 active torsions:
  status: ('A' for Active; 'I' for Inactive)
    1  A    between atoms: C_1  and  C_2
    2  A    between atoms: C_2  and  N_3
                            x       y       z     vdW  Elec       q    Type
                         _______ _______ _______ _____ _____    ______ ____

>  <TORSDO>
F 2

$$$$
=
 OpenBabel11052422463D

 28 32  0  0  1  0  0  0  0  0999 V2000
  160.9250  207.2830  151.8610 C   0  0  0  0  0  0  0  0  0  0  0  0
  161.3500  205.4940  146.9220 C   0  0  0  0  0  2  0  0  0  0  0  0
  161.3900  202.3160  152.1230 C   0  0  0  0  0  1  0  0  0  0  0  0
  161.1300  202.5010  146.3160 C   0  0  0  0  0  2  0  0  0  0  0  0
  161.1840  204.7150  149.1830 C   0  0  0  0  0  0  0  0  0  0  0  0
  160.9370  204.4060  144.6950 C   0  0  0  0  0  0  0  0  0  0  0  0
  161.2520  204.4850  147.7950 C   0  0  0  0  0  0  0  0  0  0  0  0
  161.4230  202.2350  148.9280 S   0  0  0  0  0  0  0  0  0  0  0  0
  160.7490  203.1340  145.0410 C   0  0  0  0  0  3  0  0  0  0  0  0
  161.1560  204.8430  151.9870 C   0  0  0  0  0  0  0  0  0  0  0  0
  161.0790  205.9600  149.8070 C   0  0  0  0  0  3  0  0  0  0  0  0
  161.3330  203.1120  147.4890 C   0  0  0  0  0  0  0  0  0  0  0  0
  161.0340  206.1710  154.0170 C   0  0  0  0  0  3  0  0  0  0  0  0
  161.2760  203.5890  151.3460 C   0  0  0  0  0  0  0  0  0  0  0  0
  161.1450  204.9320  153.3860 C   0  0  0  0  0  3  0  0  0  0  0  0
  160.4220  204.8490  143.4850 O   0  0  0  0  0  1  0  0  0  0  0  0
  161.7710  205.3460  145.4950 C   0  0  0  0  0  2  0  0  0  0  0  0
  161.2870  203.5630  149.9490 C   0  0  0  0  0  0  0  0  0  0  0  0
  160.9260  207.3360  153.2590 C   0  0  0  0  0  3  0  0  0  0  0  0
  161.0510  206.0370  151.2110 C   0  0  0  0  0  0  0  0  0  0  0  0
  160.7890  208.5760  151.0880 C   0  0  0  0  0  2  0  0  0  0  0  0
  162.0420  209.0660  150.4890 N   0  0  0  0  0  0  0  0  0  0  0  0
  162.3300  210.7090  148.7480 C   0  0  1  0  0  3  0  0  0  0  0  0
  162.4470  210.3290  151.1060 C   0  0  0  0  0  2  0  0  0  0  0  0
  162.7080  208.3040  148.2710 C   0  0  0  0  0  1  0  0  0  0  0  0
  161.8770  209.2990  149.0550 C   0  0  1  0  0  3  0  0  0  0  0  0
  161.3540  211.3710  147.7960 C   0  0  0  0  0  1  0  0  0  0  0  0
  162.3160  211.4240  150.0710 C   0  0  0  0  0  2  0  0  0  0  0  0
  1 19  1  0  0  0  0
  2  7  1  0  0  0  0
  4 12  1  0  0  0  0
  5 11  2  0  0  0  0
  5 18  1  0  0  0  0
  6  9  2  0  0  0  0
  6 17  1  0  0  0  0
  7  5  1  0  0  0  0
  8 18  1  0  0  0  0
  9  4  1  0  0  0  0
 10 15  2  0  0  0  0
 11 20  1  0  0  0  0
 12  7  2  0  0  0  0
 12  8  1  0  0  0  0
 14 10  1  0  0  0  0
 14  3  1  0  0  0  0
 15 13  1  0  0  0  0
 16  6  1  0  0  0  0
 17  2  1  0  0  0  0
 18 14  2  0  0  0  0
 19 13  2  0  0  0  0
 20  1  2  0  0  0  0
 20 10  1  0  0  0  0
 21  1  1  0  0  0  0
 22 21  1  0  0  0  0
 22 24  1  0  0  0  0
 23 27  1  6  0  0  0
 23 26  1  0  0  0  0
 23 28  1  0  0  0  0
 26 25  1  6  0  0  0
 26 22  1  0  0  0  0
 28 24  1  0  0  0  0
M  END
>  <MODEL>
2

>  <REMARK>
 VINA RESULT:      -9.0      1.565      2.725
  Name = 
  2 active torsions:
  status: ('A' for Active; 'I' for Inactive)
    1  A    between atoms: C_1  and  C_2
    2  A    between atoms: C_2  and  N_3
                            x       y       z     vdW  Elec       q    Type
                         _______ _______ _______ _____ _____    ______ ____

>  <TORSDO>
F 2

$$$$
=
 OpenBabel11052422463D

 28 32  0  0  1  0  0  0  0  0999 V2000
  161.1060  207.9450  151.9260 C   0  0  0  0  0  0  0  0  0  0  0  0
  161.7970  206.0720  147.0480 C   0  0  0  0  0  2  0  0  0  0  0  0
  161.0190  202.9590  152.2310 C   0  0  0  0  0  1  0  0  0  0  0  0
  161.3210  203.1130  146.4250 C   0  0  0  0  0  2  0  0  0  0  0  0
  161.3400  205.3380  149.2830 C   0  0  0  0  0  0  0  0  0  0  0  0
  161.4810  205.0110  144.7930 C   0  0  0  0  0  0  0  0  0  0  0  0
  161.5130  205.0870  147.9080 C   0  0  0  0  0  0  0  0  0  0  0  0
  161.3400  202.8430  149.0530 S   0  0  0  0  0  0  0  0  0  0  0  0
  161.1280  203.7690  145.1200 C   0  0  0  0  0  3  0  0  0  0  0  0
  161.0660  205.4960  152.0730 C   0  0  0  0  0  0  0  0  0  0  0  0
  161.3100  206.5930  149.8950 C   0  0  0  0  0  3  0  0  0  0  0  0
  161.4770  203.7110  147.6120 C   0  0  0  0  0  0  0  0  0  0  0  0
  160.8970  206.8490  154.0830 C   0  0  0  0  0  3  0  0  0  0  0  0
  161.1120  204.2300  151.4460 C   0  0  0  0  0  0  0  0  0  0  0  0
  160.9350  205.5990  153.4650 C   0  0  0  0  0  3  0  0  0  0  0  0
  161.1290  205.4940  143.5390 O   0  0  0  0  0  1  0  0  0  0  0  0
  162.3310  205.8660  145.6670 C   0  0  0  0  0  2  0  0  0  0  0  0
  161.2500  204.1890  150.0560 C   0  0  0  0  0  0  0  0  0  0  0  0
  160.9830  208.0120  153.3180 C   0  0  0  0  0  3  0  0  0  0  0  0
  161.1600  206.6860  151.2900 C   0  0  0  0  0  0  0  0  0  0  0  0
  161.1790  209.2370  151.1430 C   0  0  0  0  0  2  0  0  0  0  0  0
  161.5360  210.4200  151.9450 N   0  0  0  0  0  0  0  0  0  0  0  0
  160.5100  211.2210  153.9740 C   0  0  1  0  0  3  0  0  0  0  0  0
  162.3830  210.0390  153.0750 C   0  0  0  0  0  2  0  0  0  0  0  0
  160.1520  212.4250  151.8350 C   0  0  0  0  0  1  0  0  0  0  0  0
  160.3380  211.0660  152.4800 C   0  0  1  0  0  3  0  0  0  0  0  0
  159.2230  210.8490  154.6850 C   0  0  0  0  0  1  0  0  0  0  0  0
  161.5960  210.2510  154.3480 C   0  0  0  0  0  2  0  0  0  0  0  0
  1 19  1  0  0  0  0
  2  7  1  0  0  0  0
  4 12  1  0  0  0  0
  5 11  2  0  0  0  0
  5 18  1  0  0  0  0
  6  9  2  0  0  0  0
  6 17  1  0  0  0  0
  7  5  1  0  0  0  0
  8 18  1  0  0  0  0
  9  4  1  0  0  0  0
 10 15  2  0  0  0  0
 11 20  1  0  0  0  0
 12  7  2  0  0  0  0
 12  8  1  0  0  0  0
 14 10  1  0  0  0  0
 14  3  1  0  0  0  0
 15 13  1  0  0  0  0
 16  6  1  0  0  0  0
 17  2  1  0  0  0  0
 18 14  2  0  0  0  0
 19 13  2  0  0  0  0
 20  1  2  0  0  0  0
 20 10  1  0  0  0  0
 21  1  1  0  0  0  0
 21 22  1  0  0  0  0
 22 26  1  0  0  0  0
 22 24  1  0  0  0  0
 23 28  1  0  0  0  0
 23 27  1  1  0  0  0
 24 28  1  0  0  0  0
 26 25  1  6  0  0  0
 26 23  1  0  0  0  0
M  END
>  <MODEL>
3

>  <REMARK>
 VINA RESULT:      -8.8      2.508      3.674
  Name = 
  2 active torsions:
  status: ('A' for Active; 'I' for Inactive)
    1  A    between atoms: C_1  and  C_2
    2  A    between atoms: C_2  and  N_3
                            x       y       z     vdW  Elec       q    Type
                         _______ _______ _______ _____ _____    ______ ____

>  <TORSDO>
F 2

$$$$
=
 OpenBabel11052422463D

 28 32  0  0  1  0  0  0  0  0999 V2000
  159.8270  211.7300  152.7400 C   0  0  0  0  0  0  0  0  0  0  0  0
  161.1660  207.3960  150.0570 C   0  0  0  0  0  2  0  0  0  0  0  0
  161.1470  208.2680  156.0900 C   0  0  0  0  0  1  0  0  0  0  0  0
  161.5660  204.7250  151.4970 C   0  0  0  0  0  2  0  0  0  0  0  0
  160.8690  208.1870  152.3000 C   0  0  0  0  0  0  0  0  0  0  0  0
  161.2310  205.0990  149.0400 C   0  0  0  0  0  0  0  0  0  0  0  0
  161.1470  207.1630  151.3740 C   0  0  0  0  0  0  0  0  0  0  0  0
  161.5830  206.2190  153.6750 S   0  0  0  0  0  0  0  0  0  0  0  0
  161.2350  204.3200  150.1190 C   0  0  0  0  0  3  0  0  0  0  0  0
  160.4780  210.0290  154.3830 C   0  0  0  0  0  0  0  0  0  0  0  0
  160.4670  209.4890  151.9920 C   0  0  0  0  0  3  0  0  0  0  0  0
  161.5110  205.9590  152.0100 C   0  0  0  0  0  0  0  0  0  0  0  0
  159.8720  212.2660  155.1080 C   0  0  0  0  0  3  0  0  0  0  0  0
  160.9000  208.7130  154.6830 C   0  0  0  0  0  0  0  0  0  0  0  0
  160.2810  210.9660  155.4060 C   0  0  0  0  0  3  0  0  0  0  0  0
  160.7950  204.5650  147.8350 O   0  0  0  0  0  1  0  0  0  0  0  0
  161.7770  206.4850  149.0410 C   0  0  0  0  0  2  0  0  0  0  0  0
  161.0850  207.8230  153.6210 C   0  0  0  0  0  0  0  0  0  0  0  0
  159.6490  212.6440  153.7840 C   0  0  0  0  0  3  0  0  0  0  0  0
  160.2550  210.4170  153.0270 C   0  0  0  0  0  0  0  0  0  0  0  0
  159.5540  212.1880  151.3240 C   0  0  0  0  0  2  0  0  0  0  0  0
  160.7130  212.7910  150.6410 N   0  0  0  0  0  0  0  0  0  0  0  0
  161.0040  213.2350  148.2890 C   0  0  1  0  0  3  0  0  0  0  0  0
  160.4860  214.2170  150.4080 C   0  0  0  0  0  2  0  0  0  0  0  0
  162.2450  211.3810  149.3730 C   0  0  0  0  0  1  0  0  0  0  0  0
  160.9420  212.1540  149.3460 C   0  0  1  0  0  3  0  0  0  0  0  0
  160.2200  212.8080  147.0640 C   0  0  0  0  0  1  0  0  0  0  0  0
  160.3510  214.4360  148.9170 C   0  0  0  0  0  2  0  0  0  0  0  0
  1 20  2  0  0  0  0
  1 19  1  0  0  0  0
  2  7  1  0  0  0  0
  4 12  1  0  0  0  0
  5 18  1  0  0  0  0
  6 17  1  0  0  0  0
  6  9  2  0  0  0  0
  7 12  2  0  0  0  0
  7  5  1  0  0  0  0
  9  4  1  0  0  0  0
 10 14  1  0  0  0  0
 10 15  2  0  0  0  0
 11  5  2  0  0  0  0
 11 20  1  0  0  0  0
 12  8  1  0  0  0  0
 13 15  1  0  0  0  0
 14  3  1  0  0  0  0
 16  6  1  0  0  0  0
 17  2  1  0  0  0  0
 18  8  1  0  0  0  0
 18 14  2  0  0  0  0
 19 13  2  0  0  0  0
 20 10  1  0  0  0  0
 21  1  1  0  0  0  0
 22 21  1  0  0  0  0
 23 27  1  6  0  0  0
 23 28  1  0  0  0  0
 23 26  1  0  0  0  0
 24 22  1  0  0  0  0
 26 25  1  1  0  0  0
 26 22  1  0  0  0  0
 28 24  1  0  0  0  0
M  END
>  <MODEL>
4

>  <REMARK>
 VINA RESULT:      -8.4      2.016      3.233
  Name = 
  2 active torsions:
  status: ('A' for Active; 'I' for Inactive)
    1  A    between atoms: C_1  and  C_2
    2  A    between atoms: C_2  and  N_3
                            x       y       z     vdW  Elec       q    Type
                         _______ _______ _______ _____ _____    ______ ____

>  <TORSDO>
F 2

$$$$
=
 OpenBabel11052422463D

 28 32  0  0  1  0  0  0  0  0999 V2000
  160.8070  210.2050  152.4320 C   0  0  0  0  0  0  0  0  0  0  0  0
  161.5930  206.9310  148.3780 C   0  0  0  0  0  2  0  0  0  0  0  0
  161.0960  205.5820  154.3010 C   0  0  0  0  0  1  0  0  0  0  0  0
  161.3330  203.9020  148.7390 C   0  0  0  0  0  2  0  0  0  0  0  0
  161.2120  206.9160  150.7440 C   0  0  0  0  0  0  0  0  0  0  0  0
  161.3370  205.1890  146.5850 C   0  0  0  0  0  0  0  0  0  0  0  0
  161.3910  206.2540  149.5140 C   0  0  0  0  0  0  0  0  0  0  0  0
  161.3960  204.4840  151.3140 S   0  0  0  0  0  0  0  0  0  0  0  0
  161.0810  204.0950  147.2990 C   0  0  0  0  0  3  0  0  0  0  0  0
  160.9520  207.9340  153.3480 C   0  0  0  0  0  0  0  0  0  0  0  0
  161.0940  208.2960  150.9280 C   0  0  0  0  0  3  0  0  0  0  0  0
  161.4550  204.8550  149.6690 C   0  0  0  0  0  0  0  0  0  0  0  0
  160.6990  209.8410  154.8310 C   0  0  0  0  0  3  0  0  0  0  0  0
  161.0860  206.5400  153.1520 C   0  0  0  0  0  0  0  0  0  0  0  0
  160.8250  208.4650  154.6390 C   0  0  0  0  0  3  0  0  0  0  0  0
  160.9390  205.2240  145.2560 O   0  0  0  0  0  1  0  0  0  0  0  0
  162.1280  206.3340  147.1160 C   0  0  0  0  0  2  0  0  0  0  0  0
  161.2150  206.0690  151.8430 C   0  0  0  0  0  0  0  0  0  0  0  0
  160.6920  210.7030  153.7350 C   0  0  0  0  0  3  0  0  0  0  0  0
  160.9500  208.8170  152.2260 C   0  0  0  0  0  0  0  0  0  0  0  0
  160.7770  211.1840  151.2790 C   0  0  0  0  0  2  0  0  0  0  0  0
  160.1510  212.4800  151.5910 N   0  0  0  0  0  0  0  0  0  0  0  0
  158.3800  213.6140  150.4110 C   0  0  1  0  0  3  0  0  0  0  0  0
  158.9030  212.2840  152.3280 C   0  0  0  0  0  2  0  0  0  0  0  0
  160.7120  214.4500  150.2680 C   0  0  0  0  0  1  0  0  0  0  0  0
  159.8380  213.2150  150.3670 C   0  0  1  0  0  3  0  0  0  0  0  0
  157.7360  213.3750  149.0590 C   0  0  0  0  0  1  0  0  0  0  0  0
  157.7570  212.7110  151.4380 C   0  0  0  0  0  2  0  0  0  0  0  0
  1 19  1  0  0  0  0
  2  7  1  0  0  0  0
  4 12  1  0  0  0  0
  5 11  2  0  0  0  0
  5 18  1  0  0  0  0
  6 17  1  0  0  0  0
  6  9  2  0  0  0  0
  7 12  2  0  0  0  0
  7  5  1  0  0  0  0
  8 18  1  0  0  0  0
  9  4  1  0  0  0  0
 10 15  2  0  0  0  0
 11 20  1  0  0  0  0
 12  8  1  0  0  0  0
 14 10  1  0  0  0  0
 14  3  1  0  0  0  0
 15 13  1  0  0  0  0
 16  6  1  0  0  0  0
 17  2  1  0  0  0  0
 18 14  2  0  0  0  0
 19 13  2  0  0  0  0
 20  1  2  0  0  0  0
 20 10  1  0  0  0  0
 21 22  1  0  0  0  0
 21  1  1  0  0  0  0
 22 24  1  0  0  0  0
 23 27  1  6  0  0  0
 23 28  1  0  0  0  0
 26 25  1  1  0  0  0
 26 23  1  0  0  0  0
 26 22  1  0  0  0  0
 28 24  1  0  0  0  0
M  END
>  <MODEL>
5

>  <REMARK>
 VINA RESULT:      -8.0      2.094      2.579
  Name = 
  2 active torsions:
  status: ('A' for Active; 'I' for Inactive)
    1  A    between atoms: C_1  and  C_2
    2  A    between atoms: C_2  and  N_3
                            x       y       z     vdW  Elec       q    Type
                         _______ _______ _______ _____ _____    ______ ____

>  <TORSDO>
F 2

$$$$
=
 OpenBabel11052422463D

 28 32  0  0  1  0  0  0  0  0999 V2000
  161.9520  208.6560  148.7450 C   0  0  0  0  0  0  0  0  0  0  0  0
  161.5800  210.1430  153.7880 C   0  0  0  0  0  2  0  0  0  0  0  0
  160.6890  204.6110  151.3900 C   0  0  0  0  0  1  0  0  0  0  0  0
  161.3630  208.0620  156.0220 C   0  0  0  0  0  2  0  0  0  0  0  0
  161.4690  208.1900  152.4040 C   0  0  0  0  0  0  0  0  0  0  0  0
  161.9630  210.4870  156.2470 C   0  0  0  0  0  0  0  0  0  0  0  0
  161.4580  208.8170  153.6650 C   0  0  0  0  0  0  0  0  0  0  0  0
  160.8570  206.3930  154.0380 S   0  0  0  0  0  0  0  0  0  0  0  0
  161.9240  209.2390  156.7090 C   0  0  0  0  0  3  0  0  0  0  0  0
  161.3290  206.6710  150.0460 C   0  0  0  0  0  0  0  0  0  0  0  0
  161.7270  208.8090  151.1790 C   0  0  0  0  0  3  0  0  0  0  0  0
  161.1810  207.9080  154.7050 C   0  0  0  0  0  0  0  0  0  0  0  0
  161.5240  206.5430  147.6290 C   0  0  0  0  0  3  0  0  0  0  0  0
  161.0550  206.0580  151.2900 C   0  0  0  0  0  0  0  0  0  0  0  0
  161.2600  205.9350  148.8560 C   0  0  0  0  0  3  0  0  0  0  0  0
  162.6220  211.4530  156.9960 O   0  0  0  0  0  1  0  0  0  0  0  0
  161.2370  210.9180  155.0200 C   0  0  0  0  0  2  0  0  0  0  0  0
  161.1340  206.8440  152.4430 C   0  0  0  0  0  0  0  0  0  0  0  0
  161.8650  207.8940  147.5750 C   0  0  0  0  0  3  0  0  0  0  0  0
  161.6730  208.0560  149.9910 C   0  0  0  0  0  0  0  0  0  0  0  0
  162.3420  210.1130  148.6320 C   0  0  0  0  0  2  0  0  0  0  0  0
  161.2060  211.0470  148.5410 N   0  0  0  0  0  0  0  0  0  0  0  0
  161.2500  213.4350  148.2110 C   0  0  1  0  0  3  0  0  0  0  0  0
  160.8830  211.3280  147.1420 C   0  0  0  0  0  2  0  0  0  0  0  0
  160.6650  212.4910  150.4300 C   0  0  0  0  0  1  0  0  0  0  0  0
  161.5230  212.3170  149.1920 C   0  0  1  0  0  3  0  0  0  0  0  0
  162.3720  214.4530  148.2600 C   0  0  0  0  0  1  0  0  0  0  0  0
  161.2210  212.7750  146.8610 C   0  0  0  0  0  2  0  0  0  0  0  0
  1 20  1  0  0  0  0
  2 17  1  0  0  0  0
  4  9  1  0  0  0  0
  5 18  1  0  0  0  0
  5  7  1  0  0  0  0
  6  9  2  0  0  0  0
  6 16  1  0  0  0  0
  7  2  1  0  0  0  0
  7 12  2  0  0  0  0
  8 12  1  0  0  0  0
 10 14  1  0  0  0  0
 11  5  2  0  0  0  0
 12  4  1  0  0  0  0
 13 15  2  0  0  0  0
 14  3  1  0  0  0  0
 14 18  2  0  0  0  0
 15 10  1  0  0  0  0
 17  6  1  0  0  0  0
 18  8  1  0  0  0  0
 19 13  1  0  0  0  0
 19  1  2  0  0  0  0
 20 10  2  0  0  0  0
 20 11  1  0  0  0  0
 21  1  1  0  0  0  0
 22 21  1  0  0  0  0
 22 26  1  0  0  0  0
 23 27  1  6  0  0  0
 23 26  1  0  0  0  0
 24 22  1  0  0  0  0
 26 25  1  1  0  0  0
 28 24  1  0  0  0  0
 28 23  1  0  0  0  0
M  END
>  <MODEL>
6

>  <REMARK>
 VINA RESULT:      -7.8      3.386      6.122
  Name = 
  2 active torsions:
  status: ('A' for Active; 'I' for Inactive)
    1  A    between atoms: C_1  and  C_2
    2  A    between atoms: C_2  and  N_3
                            x       y       z     vdW  Elec       q    Type
                         _______ _______ _______ _____ _____    ______ ____

>  <TORSDO>
F 2

$$$$
=
 OpenBabel11052422463D

 28 32  0  0  1  0  0  0  0  0999 V2000
  161.8150  206.7010  151.7240 C   0  0  0  0  0  0  0  0  0  0  0  0
  161.5550  210.9830  148.6620 C   0  0  0  0  0  2  0  0  0  0  0  0
  159.9630  210.4050  154.5170 C   0  0  0  0  0  1  0  0  0  0  0  0
  161.0150  213.7420  149.8720 C   0  0  0  0  0  2  0  0  0  0  0  0
  161.2050  210.2820  150.9270 C   0  0  0  0  0  0  0  0  0  0  0  0
  161.9360  213.2260  147.5970 C   0  0  0  0  0  0  0  0  0  0  0  0
  161.2560  211.2770  149.9320 C   0  0  0  0  0  0  0  0  0  0  0  0
  160.3230  212.3600  152.0140 S   0  0  0  0  0  0  0  0  0  0  0  0
  161.7180  214.0550  148.6160 C   0  0  0  0  0  3  0  0  0  0  0  0
  160.9040  208.5210  153.0930 C   0  0  0  0  0  0  0  0  0  0  0  0
  161.5680  208.9420  150.7710 C   0  0  0  0  0  3  0  0  0  0  0  0
  160.8390  212.5330  150.4170 C   0  0  0  0  0  0  0  0  0  0  0  0
  161.1240  206.2840  154.0140 C   0  0  0  0  0  3  0  0  0  0  0  0
  160.5260  209.8760  153.2350 C   0  0  0  0  0  0  0  0  0  0  0  0
  160.7570  207.6220  154.1580 C   0  0  0  0  0  3  0  0  0  0  0  0
  162.7070  213.6700  146.5310 O   0  0  0  0  0  1  0  0  0  0  0  0
  161.2990  211.8830  147.4970 C   0  0  0  0  0  2  0  0  0  0  0  0
  160.6890  210.7240  152.1370 C   0  0  0  0  0  0  0  0  0  0  0  0
  161.6470  205.8290  152.8050 C   0  0  0  0  0  3  0  0  0  0  0  0
  161.4340  208.0530  151.8530 C   0  0  0  0  0  0  0  0  0  0  0  0
  162.4030  206.1570  150.4400 C   0  0  0  0  0  2  0  0  0  0  0  0
  161.4120  205.8560  149.3920 N   0  0  0  0  0  0  0  0  0  0  0  0
  161.7860  204.9350  147.1950 C   0  0  1  0  0  3  0  0  0  0  0  0
  161.0520  204.4390  149.4160 C   0  0  0  0  0  2  0  0  0  0  0  0
  161.2010  207.3310  147.4610 C   0  0  0  0  0  1  0  0  0  0  0  0
  161.9500  206.1600  148.0670 C   0  0  1  0  0  3  0  0  0  0  0  0
  163.0460  204.7030  146.3850 C   0  0  0  0  0  1  0  0  0  0  0  0
  161.5810  203.7950  148.1540 C   0  0  0  0  0  2  0  0  0  0  0  0
  1 20  2  0  0  0  0
  1 19  1  0  0  0  0
  2  7  1  0  0  0  0
  4 12  1  0  0  0  0
  5 18  1  0  0  0  0
  6  9  2  0  0  0  0
  7 12  2  0  0  0  0
  7  5  1  0  0  0  0
  8 18  1  0  0  0  0
  9  4  1  0  0  0  0
 10 14  1  0  0  0  0
 10 15  2  0  0  0  0
 11  5  2  0  0  0  0
 11 20  1  0  0  0  0
 12  8  1  0  0  0  0
 13 15  1  0  0  0  0
 14  3  1  0  0  0  0
 16  6  1  0  0  0  0
 17  6  1  0  0  0  0
 17  2  1  0  0  0  0
 18 14  2  0  0  0  0
 19 13  2  0  0  0  0
 20 10  1  0  0  0  0
 21  1  1  0  0  0  0
 22 24  1  0  0  0  0
 22 21  1  0  0  0  0
 23 27  1  1  0  0  0
 23 26  1  0  0  0  0
 23 28  1  0  0  0  0
 26 25  1  6  0  0  0
 26 22  1  0  0  0  0
 28 24  1  0  0  0  0
M  END
>  <MODEL>
7

>  <REMARK>
 VINA RESULT:      -7.7      3.125      6.948
  Name = 
  2 active torsions:
  status: ('A' for Active; 'I' for Inactive)
    1  A    between atoms: C_1  and  C_2
    2  A    between atoms: C_2  and  N_3
                            x       y       z     vdW  Elec       q    Type
                         _______ _______ _______ _____ _____    ______ ____

>  <TORSDO>
F 2

$$$$
=
 OpenBabel11052422463D

 28 32  0  0  1  0  0  0  0  0999 V2000
  161.6110  208.0280  152.8710 C   0  0  0  0  0  0  0  0  0  0  0  0
  160.7280  203.6960  150.0020 C   0  0  0  0  0  2  0  0  0  0  0  0
  161.9750  209.3390  148.0640 C   0  0  0  0  0  1  0  0  0  0  0  0
  161.3200  203.6590  146.9990 C   0  0  0  0  0  2  0  0  0  0  0  0
  161.3550  205.9970  149.7660 C   0  0  0  0  0  0  0  0  0  0  0  0
  160.9640  201.6880  148.5100 C   0  0  0  0  0  0  0  0  0  0  0  0
  161.1140  204.7170  149.2290 C   0  0  0  0  0  0  0  0  0  0  0  0
  161.4720  206.2810  147.2790 S   0  0  0  0  0  0  0  0  0  0  0  0
  161.4000  202.2370  147.3770 C   0  0  0  0  0  3  0  0  0  0  0  0
  161.7870  208.6690  150.5090 C   0  0  0  0  0  0  0  0  0  0  0  0
  161.3560  206.3350  151.1210 C   0  0  0  0  0  3  0  0  0  0  0  0
  161.2040  204.7060  147.8230 C   0  0  0  0  0  0  0  0  0  0  0  0
  162.0050  210.3440  152.2560 C   0  0  0  0  0  3  0  0  0  0  0  0
  161.7700  208.3190  149.1400 C   0  0  0  0  0  0  0  0  0  0  0  0
  161.9960  209.9980  150.9040 C   0  0  0  0  0  3  0  0  0  0  0  0
  161.2140  200.3420  148.7360 O   0  0  0  0  0  1  0  0  0  0  0  0
  160.1240  202.4260  149.4940 C   0  0  0  0  0  2  0  0  0  0  0  0
  161.5510  206.9800  148.8060 C   0  0  0  0  0  0  0  0  0  0  0  0
  161.8130  209.3650  153.2300 C   0  0  0  0  0  3  0  0  0  0  0  0
  161.5840  207.6680  151.5070 C   0  0  0  0  0  0  0  0  0  0  0  0
  161.4230  207.0040  153.9690 C   0  0  0  0  0  2  0  0  0  0  0  0
  160.3720  207.3390  154.9450 N   0  0  0  0  0  0  0  0  0  0  0  0
  160.4150  209.0100  156.6820 C   0  0  1  0  0  3  0  0  0  0  0  0
  159.6000  208.4960  154.4940 C   0  0  0  0  0  2  0  0  0  0  0  0
  160.5860  206.6040  157.2610 C   0  0  0  0  0  1  0  0  0  0  0  0
  160.9550  207.6670  156.2450 C   0  0  1  0  0  3  0  0  0  0  0  0
  161.5330  209.8560  157.2600 C   0  0  0  0  0  1  0  0  0  0  0  0
  159.8900  209.6500  155.4270 C   0  0  0  0  0  2  0  0  0  0  0  0
  1 19  1  0  0  0  0
  1 21  1  0  0  0  0
  3 14  1  0  0  0  0
  4  9  1  0  0  0  0
  4 12  1  0  0  0  0
  5 11  2  0  0  0  0
  6 16  1  0  0  0  0
  6 17  1  0  0  0  0
  7  5  1  0  0  0  0
  7  2  1  0  0  0  0
  8 12  1  0  0  0  0
  8 18  1  0  0  0  0
  9  6  2  0  0  0  0
 10 15  2  0  0  0  0
 10 20  1  0  0  0  0
 11 20  1  0  0  0  0
 12  7  2  0  0  0  0
 13 19  2  0  0  0  0
 14 10  1  0  0  0  0
 15 13  1  0  0  0  0
 17  2  1  0  0  0  0
 18 14  2  0  0  0  0
 18  5  1  0  0  0  0
 20  1  2  0  0  0  0
 21 22  1  0  0  0  0
 22 26  1  0  0  0  0
 23 27  1  6  0  0  0
 24 22  1  0  0  0  0
 24 28  1  0  0  0  0
 26 23  1  0  0  0  0
 26 25  1  1  0  0  0
 28 23  1  0  0  0  0
M  END
>  <MODEL>
8

>  <REMARK>
 VINA RESULT:      -7.7      2.604      5.490
  Name = 
  2 active torsions:
  status: ('A' for Active; 'I' for Inactive)
    1  A    between atoms: C_1  and  C_2
    2  A    between atoms: C_2  and  N_3
                            x       y       z     vdW  Elec       q    Type
                         _______ _______ _______ _____ _____    ______ ____

>  <TORSDO>
F 2

$$$$
=
 OpenBabel11052422463D

 28 32  0  0  1  0  0  0  0  0999 V2000
  161.6040  205.3000  148.7890 C   0  0  0  0  0  0  0  0  0  0  0  0
  161.1180  206.6830  153.8520 C   0  0  0  0  0  2  0  0  0  0  0  0
  161.9720  210.2770  149.0030 C   0  0  0  0  0  1  0  0  0  0  0  0
  160.7150  209.6130  154.6420 C   0  0  0  0  0  2  0  0  0  0  0  0
  161.3250  207.6420  151.6650 C   0  0  0  0  0  0  0  0  0  0  0  0
  160.2960  207.5790  156.0500 C   0  0  0  0  0  0  0  0  0  0  0  0
  161.1460  207.7590  153.0570 C   0  0  0  0  0  0  0  0  0  0  0  0
  161.4490  210.0970  152.1520 S   0  0  0  0  0  0  0  0  0  0  0  0
  160.1360  208.8730  155.7780 C   0  0  0  0  0  3  0  0  0  0  0  0
  161.7870  207.7450  148.8980 C   0  0  0  0  0  0  0  0  0  0  0  0
  161.3640  206.4510  150.9360 C   0  0  0  0  0  3  0  0  0  0  0  0
  161.1350  209.1030  153.4790 C   0  0  0  0  0  0  0  0  0  0  0  0
  162.0550  206.5860  146.7790 C   0  0  0  0  0  3  0  0  0  0  0  0
  161.7590  208.9430  149.6470 C   0  0  0  0  0  0  0  0  0  0  0  0
  162.0210  207.7700  147.5160 C   0  0  0  0  0  3  0  0  0  0  0  0
  159.5920  207.0310  157.1130 O   0  0  0  0  0  1  0  0  0  0  0  0
  161.2810  206.7190  155.3370 C   0  0  0  0  0  2  0  0  0  0  0  0
  161.5280  208.8550  151.0220 C   0  0  0  0  0  0  0  0  0  0  0  0
  161.8490  205.3620  147.4130 C   0  0  0  0  0  3  0  0  0  0  0  0
  161.5820  206.4900  149.5470 C   0  0  0  0  0  0  0  0  0  0  0  0
  161.3710  203.9460  149.4230 C   0  0  0  0  0  2  0  0  0  0  0  0
  160.4470  203.0720  148.6790 N   0  0  0  0  0  0  0  0  0  0  0  0
  160.8060  200.8130  147.9180 C   0  0  1  0  0  3  0  0  0  0  0  0
  159.7560  202.1610  149.5910 C   0  0  0  0  0  2  0  0  0  0  0  0
  160.7910  202.6890  146.2960 C   0  0  0  0  0  1  0  0  0  0  0  0
  161.1720  202.2640  147.7000 C   0  0  1  0  0  3  0  0  0  0  0  0
  162.0480  199.9470  147.8350 C   0  0  0  0  0  1  0  0  0  0  0  0
  160.2380  200.7560  149.3100 C   0  0  0  0  0  2  0  0  0  0  0  0
  1 21  1  0  0  0  0
  1 20  1  0  0  0  0
  2 17  1  0  0  0  0
  3 14  1  0  0  0  0
  4  9  1  0  0  0  0
  5  7  1  0  0  0  0
  6 16  1  0  0  0  0
  7 12  2  0  0  0  0
  7  2  1  0  0  0  0
  8 12  1  0  0  0  0
  9  6  2  0  0  0  0
 10 20  2  0  0  0  0
 10 14  1  0  0  0  0
 11  5  2  0  0  0  0
 12  4  1  0  0  0  0
 13 19  1  0  0  0  0
 13 15  2  0  0  0  0
 14 18  2  0  0  0  0
 15 10  1  0  0  0  0
 17  6  1  0  0  0  0
 18  5  1  0  0  0  0
 18  8  1  0  0  0  0
 19  1  2  0  0  0  0
 20 11  1  0  0  0  0
 22 21  1  0  0  0  0
 22 24  1  0  0  0  0
 23 27  1  1  0  0  0
 23 28  1  0  0  0  0
 26 25  1  6  0  0  0
 26 23  1  0  0  0  0
 26 22  1  0  0  0  0
 28 24  1  0  0  0  0
M  END
>  <MODEL>
9

>  <REMARK>
 VINA RESULT:      -7.6      3.577      8.155
  Name = 
  2 active torsions:
  status: ('A' for Active; 'I' for Inactive)
    1  A    between atoms: C_1  and  C_2
    2  A    between atoms: C_2  and  N_3
                            x       y       z     vdW  Elec       q    Type
                         _______ _______ _______ _____ _____    ______ ____

>  <TORSDO>
F 2

$$$$
