=
 OpenBabel11052422343D

 31 35  0  0  1  0  0  0  0  0999 V2000
  160.8620  207.2250  154.3970 C   0  0  0  0  0  0  0  0  0  0  0  0
  161.6720  206.8540  150.6590 C   0  0  2  0  0  3  0  0  0  0  0  0
  161.3810  205.3880  150.3830 C   0  0  0  0  0  0  0  0  0  0  0  0
  162.1600  212.0040  149.7940 O   0  0  0  0  0  0  0  0  0  0  0  0
  161.9560  211.4410  148.6850 C   0  0  0  0  0  0  0  0  0  0  0  0
  161.4940  203.0460  151.0380 C   0  0  0  0  0  0  0  0  0  0  0  0
  161.2950  207.4230  152.0140 C   0  0  0  0  0  0  0  0  0  0  0  0
  160.8310  208.6160  154.5130 C   0  0  0  0  0  3  0  0  0  0  0  0
  161.6640  204.3990  151.3390 C   0  0  0  0  0  3  0  0  0  0  0  0
  161.4450  209.1820  149.7730 C   0  0  0  0  0  0  0  0  0  0  0  0
  160.6710  206.4500  155.4910 F   0  0  0  0  0  0  0  0  0  0  0  0
  160.7450  206.0040  148.0030 C   0  0  0  0  0  2  0  0  0  0  0  0
  161.7520  202.0840  152.0030 O   0  0  0  0  0  1  0  0  0  0  0  0
  161.4650  209.6600  150.9860 N   0  0  0  0  0  0  0  0  0  0  0  0
  161.0710  207.7390  149.5570 C   0  0  1  0  0  3  0  0  0  0  0  0
  161.6180  210.0460  148.6410 N   0  0  0  0  0  2  0  0  0  0  0  0
  161.1070  206.6310  153.1560 C   0  0  0  0  0  3  0  0  0  0  0  0
  161.0700  202.6610  149.7650 C   0  0  0  0  0  3  0  0  0  0  0  0
  161.2650  208.8280  152.1410 C   0  0  0  0  0  0  0  0  0  0  0  0
  161.0350  209.4170  153.3870 C   0  0  0  0  0  3  0  0  0  0  0  0
  161.4820  207.2440  148.2480 N   0  0  0  0  0  2  0  0  0  0  0  0
  161.0100  204.9850  149.0790 C   0  0  0  0  0  0  0  0  0  0  0  0
  160.8310  203.6290  148.7870 C   0  0  0  0  0  3  0  0  0  0  0  0
  162.4290  213.6340  145.0150 C   0  0  0  0  0  0  0  0  0  0  0  0
  163.3500  212.4080  146.8810 C   0  0  0  0  0  3  0  0  0  0  0  0
  159.5460  212.5780  147.1950 C   0  0  0  0  0  1  0  0  0  0  0  0
  162.6080  214.3370  143.8320 O   0  0  0  0  0  1  0  0  0  0  0  0
  163.5330  213.1150  145.6910 C   0  0  0  0  0  3  0  0  0  0  0  0
  160.9510  212.7360  146.7180 C   0  0  0  0  0  0  0  0  0  0  0  0
  162.0670  212.2040  147.4150 C   0  0  0  0  0  0  0  0  0  0  0  0
  161.1450  213.4440  145.5270 C   0  0  0  0  0  3  0  0  0  0  0  0
  1  8  1  0  0  0  0
  1 11  1  0  0  0  0
  2  3  1  1  0  0  0
  2  7  1  0  0  0  0
  3  9  1  0  0  0  0
  5  4  2  0  0  0  0
  6  9  2  0  0  0  0
  6 13  1  0  0  0  0
  7 19  2  0  0  0  0
  7 17  1  0  0  0  0
 10 14  2  0  0  0  0
 12 21  1  0  0  0  0
 12 22  1  0  0  0  0
 14 19  1  0  0  0  0
 15 21  1  6  0  0  0
 15 10  1  0  0  0  0
 15  2  1  0  0  0  0
 16  5  1  0  0  0  0
 16 10  1  0  0  0  0
 17  1  2  0  0  0  0
 18  6  1  0  0  0  0
 19 20  1  0  0  0  0
 20  8  2  0  0  0  0
 22  3  2  0  0  0  0
 23 22  1  0  0  0  0
 23 18  2  0  0  0  0
 24 31  2  0  0  0  0
 24 28  1  0  0  0  0
 25 30  1  0  0  0  0
 27 24  1  0  0  0  0
 28 25  2  0  0  0  0
 29 26  1  0  0  0  0
 29 30  2  0  0  0  0
 30  5  1  0  0  0  0
 31 29  1  0  0  0  0
M  END
>  <MODEL>
1

>  <REMARK>
 VINA RESULT:      -8.9      0.000      0.000
  Name = 
  1 active torsions:
  status: ('A' for Active; 'I' for Inactive)
    1  A    between atoms: C_9  and  C_22
                            x       y       z     vdW  Elec       q    Type
                         _______ _______ _______ _____ _____    ______ ____

>  <TORSDO>
F 1

$$$$
=
 OpenBabel11052422343D

 31 35  0  0  1  0  0  0  0  0999 V2000
  161.1650  210.5320  154.9760 C   0  0  0  0  0  0  0  0  0  0  0  0
  160.9000  209.5310  151.2750 C   0  0  2  0  0  3  0  0  0  0  0  0
  161.1990  210.8270  150.5420 C   0  0  0  0  0  0  0  0  0  0  0  0
  160.6460  204.3780  152.2230 O   0  0  0  0  0  0  0  0  0  0  0  0
  160.9980  204.5360  151.0230 C   0  0  0  0  0  0  0  0  0  0  0  0
  160.9450  213.2370  150.3090 C   0  0  0  0  0  0  0  0  0  0  0  0
  161.0870  209.4930  152.7810 C   0  0  0  0  0  0  0  0  0  0  0  0
  161.2060  209.2720  155.5780 C   0  0  0  0  0  3  0  0  0  0  0  0
  160.7600  212.0630  151.0430 C   0  0  0  0  0  3  0  0  0  0  0  0
  161.3000  207.0610  151.3030 C   0  0  0  0  0  0  0  0  0  0  0  0
  161.1790  211.6480  155.7430 F   0  0  0  0  0  0  0  0  0  0  0  0
  162.1870  209.4720  148.6340 C   0  0  0  0  0  2  0  0  0  0  0  0
  160.5310  214.4530  150.8330 O   0  0  0  0  0  1  0  0  0  0  0  0
  161.1130  207.0320  152.5930 N   0  0  0  0  0  0  0  0  0  0  0  0
  161.6730  208.3630  150.6430 C   0  0  1  0  0  3  0  0  0  0  0  0
  161.3110  205.8500  150.5350 N   0  0  0  0  0  2  0  0  0  0  0  0
  161.0910  210.6420  153.5850 C   0  0  0  0  0  3  0  0  0  0  0  0
  161.5420  213.1860  149.0490 C   0  0  0  0  0  3  0  0  0  0  0  0
  161.1270  208.2230  153.3970 C   0  0  0  0  0  0  0  0  0  0  0  0
  161.1840  208.1190  154.7890 C   0  0  0  0  0  3  0  0  0  0  0  0
  161.4470  208.3460  149.2030 N   0  0  0  0  0  2  0  0  0  0  0  0
  161.7480  210.7790  149.2380 C   0  0  0  0  0  0  0  0  0  0  0  0
  161.9400  211.9590  148.5140 C   0  0  0  0  0  3  0  0  0  0  0  0
  161.2500  201.0830  148.4700 C   0  0  0  0  0  0  0  0  0  0  0  0
  161.0390  202.0870  150.6570 C   0  0  0  0  0  3  0  0  0  0  0  0
  161.2810  204.8190  147.9970 C   0  0  0  0  0  1  0  0  0  0  0  0
  161.3280  199.9540  147.6680 O   0  0  0  0  0  1  0  0  0  0  0  0
  161.1190  200.9490  149.8520 C   0  0  0  0  0  3  0  0  0  0  0  0
  161.2210  203.5000  148.6920 C   0  0  0  0  0  0  0  0  0  0  0  0
  161.0870  203.3750  150.1000 C   0  0  0  0  0  0  0  0  0  0  0  0
  161.3000  202.3530  147.8950 C   0  0  0  0  0  3  0  0  0  0  0  0
  1  8  1  0  0  0  0
  1 11  1  0  0  0  0
  2  3  1  6  0  0  0
  2  7  1  0  0  0  0
  3  9  1  0  0  0  0
  5  4  2  0  0  0  0
  6 13  1  0  0  0  0
  6  9  2  0  0  0  0
  7 19  2  0  0  0  0
  7 17  1  0  0  0  0
 10 14  2  0  0  0  0
 12 21  1  0  0  0  0
 12 22  1  0  0  0  0
 14 19  1  0  0  0  0
 15 21  1  6  0  0  0
 15  2  1  0  0  0  0
 15 10  1  0  0  0  0
 16  5  1  0  0  0  0
 16 10  1  0  0  0  0
 17  1  2  0  0  0  0
 18  6  1  0  0  0  0
 19 20  1  0  0  0  0
 20  8  2  0  0  0  0
 22  3  2  0  0  0  0
 23 18  2  0  0  0  0
 23 22  1  0  0  0  0
 24 28  1  0  0  0  0
 26 29  1  0  0  0  0
 27 24  1  0  0  0  0
 28 25  2  0  0  0  0
 29 30  2  0  0  0  0
 30 25  1  0  0  0  0
 30  5  1  0  0  0  0
 31 24  2  0  0  0  0
 31 29  1  0  0  0  0
M  END
>  <MODEL>
2

>  <REMARK>
 VINA RESULT:      -8.7      2.422      7.782
  Name = 
  1 active torsions:
  status: ('A' for Active; 'I' for Inactive)
    1  A    between atoms: C_9  and  C_22
                            x       y       z     vdW  Elec       q    Type
                         _______ _______ _______ _____ _____    ______ ____

>  <TORSDO>
F 1

$$$$
=
 OpenBabel11052422343D

 31 35  0  0  1  0  0  0  0  0999 V2000
  161.0380  201.1970  149.5090 C   0  0  0  0  0  0  0  0  0  0  0  0
  161.5810  204.9850  149.1490 C   0  0  2  0  0  3  0  0  0  0  0  0
  161.4670  205.2120  147.6500 C   0  0  0  0  0  0  0  0  0  0  0  0
  161.3010  205.9680  154.2930 O   0  0  0  0  0  0  0  0  0  0  0  0
  161.0840  207.0470  153.6790 C   0  0  0  0  0  0  0  0  0  0  0  0
  161.9460  204.5340  145.3620 C   0  0  0  0  0  0  0  0  0  0  0  0
  161.2430  203.6110  149.6990 C   0  0  0  0  0  0  0  0  0  0  0  0
  160.8310  201.1010  150.8870 C   0  0  0  0  0  3  0  0  0  0  0  0
  161.9570  204.2690  146.7340 C   0  0  0  0  0  3  0  0  0  0  0  0
  160.9720  205.8840  151.4020 C   0  0  0  0  0  0  0  0  0  0  0  0
  161.0440  200.0790  148.7450 F   0  0  0  0  0  0  0  0  0  0  0  0
  160.5600  207.5390  148.1140 C   0  0  0  0  0  2  0  0  0  0  0  0
  162.4090  203.5780  144.4690 O   0  0  0  0  0  1  0  0  0  0  0  0
  161.0270  204.6850  151.9110 N   0  0  0  0  0  0  0  0  0  0  0  0
  160.7770  206.0450  149.9170 C   0  0  1  0  0  3  0  0  0  0  0  0
  160.9330  207.0400  152.2510 N   0  0  0  0  0  2  0  0  0  0  0  0
  161.2580  202.4450  148.9200 C   0  0  0  0  0  3  0  0  0  0  0  0
  161.4740  205.7600  144.8910 C   0  0  0  0  0  3  0  0  0  0  0  0
  161.0360  203.5050  151.0910 C   0  0  0  0  0  0  0  0  0  0  0  0
  160.8330  202.2520  151.6770 C   0  0  0  0  0  3  0  0  0  0  0  0
  161.1420  207.3760  149.4460 N   0  0  0  0  0  2  0  0  0  0  0  0
  161.0470  206.4740  147.1670 C   0  0  0  0  0  0  0  0  0  0  0  0
  161.0280  206.7290  145.7930 C   0  0  0  0  0  3  0  0  0  0  0  0
  160.8830  210.8390  155.6990 C   0  0  0  0  0  0  0  0  0  0  0  0
  161.5630  209.4720  153.8280 C   0  0  0  0  0  3  0  0  0  0  0  0
  159.7060  207.3280  156.3890 C   0  0  0  0  0  1  0  0  0  0  0  0
  160.8300  212.0730  156.3310 O   0  0  0  0  0  1  0  0  0  0  0  0
  161.5120  210.7150  154.4610 C   0  0  0  0  0  3  0  0  0  0  0  0
  160.3500  208.4710  155.6760 C   0  0  0  0  0  0  0  0  0  0  0  0
  160.9880  208.3330  154.4160 C   0  0  0  0  0  0  0  0  0  0  0  0
  160.3040  209.7210  156.3020 C   0  0  0  0  0  3  0  0  0  0  0  0
  1  8  1  0  0  0  0
  2  3  1  6  0  0  0
  2  7  1  0  0  0  0
  2 15  1  0  0  0  0
  5  4  2  0  0  0  0
  5 30  1  0  0  0  0
  6  9  1  0  0  0  0
  7 19  2  0  0  0  0
  8 20  2  0  0  0  0
  9  3  2  0  0  0  0
 10 14  2  0  0  0  0
 10 16  1  0  0  0  0
 11  1  1  0  0  0  0
 12 21  1  0  0  0  0
 13  6  1  0  0  0  0
 15 21  1  6  0  0  0
 15 10  1  0  0  0  0
 16  5  1  0  0  0  0
 17  1  2  0  0  0  0
 17  7  1  0  0  0  0
 18  6  2  0  0  0  0
 18 23  1  0  0  0  0
 19 20  1  0  0  0  0
 19 14  1  0  0  0  0
 22  3  1  0  0  0  0
 22 12  1  0  0  0  0
 23 22  2  0  0  0  0
 24 31  1  0  0  0  0
 24 27  1  0  0  0  0
 25 30  2  0  0  0  0
 25 28  1  0  0  0  0
 28 24  2  0  0  0  0
 29 31  2  0  0  0  0
 29 26  1  0  0  0  0
 30 29  1  0  0  0  0
M  END
>  <MODEL>
3

>  <REMARK>
 VINA RESULT:      -8.3      4.319      7.085
  Name = 
  1 active torsions:
  status: ('A' for Active; 'I' for Inactive)
    1  A    between atoms: C_9  and  C_22
                            x       y       z     vdW  Elec       q    Type
                         _______ _______ _______ _____ _____    ______ ____

>  <TORSDO>
F 1

$$$$
=
 OpenBabel11052422343D

 31 35  0  0  1  0  0  0  0  0999 V2000
  161.9980  205.6220  146.4440 C   0  0  0  0  0  0  0  0  0  0  0  0
  160.8490  205.2280  150.0900 C   0  0  2  0  0  3  0  0  0  0  0  0
  160.9240  203.7280  150.3180 C   0  0  0  0  0  0  0  0  0  0  0  0
  160.9670  210.3630  151.1530 O   0  0  0  0  0  0  0  0  0  0  0  0
  161.0060  209.7390  152.2470 C   0  0  0  0  0  0  0  0  0  0  0  0
  160.5600  201.4470  149.5500 C   0  0  0  0  0  0  0  0  0  0  0  0
  161.4040  205.7900  148.7940 C   0  0  0  0  0  0  0  0  0  0  0  0
  162.2180  207.0000  146.3950 C   0  0  0  0  0  3  0  0  0  0  0  0
  160.5920  202.8210  149.2990 C   0  0  0  0  0  3  0  0  0  0  0  0
  161.3040  207.4720  151.0970 C   0  0  0  0  0  0  0  0  0  0  0  0
  162.1730  204.8690  145.3320 F   0  0  0  0  0  0  0  0  0  0  0  0
  161.4420  204.1680  152.7650 C   0  0  0  0  0  2  0  0  0  0  0  0
  160.2580  200.5630  148.5240 O   0  0  0  0  0  1  0  0  0  0  0  0
  161.4440  207.9920  149.9090 N   0  0  0  0  0  0  0  0  0  0  0  0
  161.4700  205.9850  151.2730 C   0  0  1  0  0  3  0  0  0  0  0  0
  161.1550  208.3100  152.2520 N   0  0  0  0  0  2  0  0  0  0  0  0
  161.5790  205.0220  147.6340 C   0  0  0  0  0  3  0  0  0  0  0  0
  160.8270  200.9640  150.8320 C   0  0  0  0  0  3  0  0  0  0  0  0
  161.6270  207.1830  148.7360 C   0  0  0  0  0  0  0  0  0  0  0  0
  162.0300  207.7810  147.5380 C   0  0  0  0  0  3  0  0  0  0  0  0
  160.8930  205.5030  152.5230 N   0  0  0  0  0  2  0  0  0  0  0  0
  161.1330  203.2320  151.6270 C   0  0  0  0  0  0  0  0  0  0  0  0
  161.1100  201.8560  151.8690 C   0  0  0  0  0  3  0  0  0  0  0  0
  160.8130  211.7790  156.0290 C   0  0  0  0  0  0  0  0  0  0  0  0
  161.9480  210.3370  154.4580 C   0  0  0  0  0  3  0  0  0  0  0  0
  158.6070  211.4740  152.9920 C   0  0  0  0  0  1  0  0  0  0  0  0
  160.7750  212.4270  157.2550 O   0  0  0  0  0  1  0  0  0  0  0  0
  161.9110  210.9880  155.6920 C   0  0  0  0  0  3  0  0  0  0  0  0
  159.7800  211.2710  153.8920 C   0  0  0  0  0  0  0  0  0  0  0  0
  160.8930  210.4630  153.5390 C   0  0  0  0  0  0  0  0  0  0  0  0
  159.7540  211.9180  155.1320 C   0  0  0  0  0  3  0  0  0  0  0  0
  1 17  1  0  0  0  0
  2  7  1  6  0  0  0
  2  3  1  0  0  0  0
  2 15  1  0  0  0  0
  3 22  1  0  0  0  0
  4  5  2  0  0  0  0
  5 16  1  0  0  0  0
  5 30  1  0  0  0  0
  6 18  2  0  0  0  0
  8  1  2  0  0  0  0
  8 20  1  0  0  0  0
  9  6  1  0  0  0  0
  9  3  2  0  0  0  0
 10 16  1  0  0  0  0
 11  1  1  0  0  0  0
 13  6  1  0  0  0  0
 14 10  2  0  0  0  0
 15 10  1  6  0  0  0
 15 21  1  0  0  0  0
 17  7  2  0  0  0  0
 18 23  1  0  0  0  0
 19  7  1  0  0  0  0
 19 14  1  0  0  0  0
 20 19  2  0  0  0  0
 21 12  1  0  0  0  0
 22 23  2  0  0  0  0
 22 12  1  0  0  0  0
 24 27  1  0  0  0  0
 25 28  2  0  0  0  0
 26 29  1  0  0  0  0
 28 24  1  0  0  0  0
 29 31  1  0  0  0  0
 30 29  2  0  0  0  0
 30 25  1  0  0  0  0
 31 24  2  0  0  0  0
M  END
>  <MODEL>
4

>  <REMARK>
 VINA RESULT:      -7.6      3.917      6.282
  Name = 
  1 active torsions:
  status: ('A' for Active; 'I' for Inactive)
    1  A    between atoms: C_9  and  C_22
                            x       y       z     vdW  Elec       q    Type
                         _______ _______ _______ _____ _____    ______ ____

>  <TORSDO>
F 1

$$$$
=
 OpenBabel11052422343D

 31 35  0  0  1  0  0  0  0  0999 V2000
  160.9600  209.0830  154.7020 C   0  0  0  0  0  0  0  0  0  0  0  0
  160.9130  208.5780  150.8930 C   0  0  2  0  0  3  0  0  0  0  0  0
  161.2680  209.9540  150.3550 C   0  0  0  0  0  0  0  0  0  0  0  0
  160.5540  203.3510  151.1390 O   0  0  0  0  0  0  0  0  0  0  0  0
  160.9800  203.6570  149.9930 C   0  0  0  0  0  0  0  0  0  0  0  0
  161.0510  212.3770  150.4260 C   0  0  0  0  0  0  0  0  0  0  0  0
  161.0080  208.3400  152.3880 C   0  0  0  0  0  0  0  0  0  0  0  0
  160.9530  207.7550  155.1340 C   0  0  0  0  0  3  0  0  0  0  0  0
  160.8110  211.1210  150.9870 C   0  0  0  0  0  3  0  0  0  0  0  0
  161.2870  206.1190  150.6190 C   0  0  0  0  0  0  0  0  0  0  0  0
  160.9380  210.0890  155.6080 F   0  0  0  0  0  0  0  0  0  0  0  0
  162.3580  208.8420  148.3480 C   0  0  0  0  0  2  0  0  0  0  0  0
  160.6160  213.5220  151.0790 O   0  0  0  0  0  1  0  0  0  0  0  0
  161.0220  205.9250  151.8810 N   0  0  0  0  0  0  0  0  0  0  0  0
  161.7120  207.4900  150.1600 C   0  0  1  0  0  3  0  0  0  0  0  0
  161.3340  205.0180  149.7020 N   0  0  0  0  0  2  0  0  0  0  0  0
  160.9730  209.3740  153.3360 C   0  0  0  0  0  3  0  0  0  0  0  0
  161.7230  212.4810  149.2070 C   0  0  0  0  0  3  0  0  0  0  0  0
  160.9970  207.0010  152.8340 C   0  0  0  0  0  0  0  0  0  0  0  0
  160.9680  206.7150  154.2010 C   0  0  0  0  0  3  0  0  0  0  0  0
  161.5740  207.6640  148.7180 N   0  0  0  0  0  2  0  0  0  0  0  0
  161.8950  210.0670  149.0910 C   0  0  0  0  0  0  0  0  0  0  0  0
  162.1420  211.3280  148.5400 C   0  0  0  0  0  3  0  0  0  0  0  0
  161.3660  200.5640  147.0300 C   0  0  0  0  0  0  0  0  0  0  0  0
  161.1050  201.2760  149.3230 C   0  0  0  0  0  3  0  0  0  0  0  0
  161.2780  204.3290  147.0300 C   0  0  0  0  0  1  0  0  0  0  0  0
  161.4880  199.5480  146.0930 O   0  0  0  0  0  1  0  0  0  0  0  0
  161.2280  200.2530  148.3820 C   0  0  0  0  0  3  0  0  0  0  0  0
  161.2560  202.9310  147.5540 C   0  0  0  0  0  0  0  0  0  0  0  0
  161.1150  202.6260  148.9330 C   0  0  0  0  0  0  0  0  0  0  0  0
  161.3780  201.8970  146.6190 C   0  0  0  0  0  3  0  0  0  0  0  0
  1  8  1  0  0  0  0
  1 11  1  0  0  0  0
  2  3  1  1  0  0  0
  2  7  1  0  0  0  0
  3  9  1  0  0  0  0
  5  4  2  0  0  0  0
  6  9  2  0  0  0  0
  6 13  1  0  0  0  0
  7 19  2  0  0  0  0
  7 17  1  0  0  0  0
 10 14  2  0  0  0  0
 12 21  1  0  0  0  0
 12 22  1  0  0  0  0
 14 19  1  0  0  0  0
 15 21  1  6  0  0  0
 15 10  1  0  0  0  0
 15  2  1  0  0  0  0
 16  5  1  0  0  0  0
 16 10  1  0  0  0  0
 17  1  2  0  0  0  0
 18  6  1  0  0  0  0
 19 20  1  0  0  0  0
 20  8  2  0  0  0  0
 22  3  2  0  0  0  0
 23 22  1  0  0  0  0
 23 18  2  0  0  0  0
 24 28  1  0  0  0  0
 26 29  1  0  0  0  0
 27 24  1  0  0  0  0
 28 25  2  0  0  0  0
 29 30  2  0  0  0  0
 30 25  1  0  0  0  0
 30  5  1  0  0  0  0
 31 24  2  0  0  0  0
 31 29  1  0  0  0  0
M  END
>  <MODEL>
5

>  <REMARK>
 VINA RESULT:      -7.6      2.427      7.688
  Name = 
  1 active torsions:
  status: ('A' for Active; 'I' for Inactive)
    1  A    between atoms: C_9  and  C_22
                            x       y       z     vdW  Elec       q    Type
                         _______ _______ _______ _____ _____    ______ ____

>  <TORSDO>
F 1

$$$$
=
 OpenBabel11052422343D

 31 35  0  0  1  0  0  0  0  0999 V2000
  161.2130  210.5350  154.5730 C   0  0  0  0  0  0  0  0  0  0  0  0
  161.0240  209.5250  150.8700 C   0  0  2  0  0  3  0  0  0  0  0  0
  161.3760  210.8100  150.1400 C   0  0  0  0  0  0  0  0  0  0  0  0
  160.6100  204.3850  151.8290 O   0  0  0  0  0  0  0  0  0  0  0  0
  160.9980  204.5280  150.6390 C   0  0  0  0  0  0  0  0  0  0  0  0
  161.1920  213.2240  149.8920 C   0  0  0  0  0  0  0  0  0  0  0  0
  161.1690  209.4880  152.3800 C   0  0  0  0  0  0  0  0  0  0  0  0
  161.2050  209.2770  155.1800 C   0  0  0  0  0  3  0  0  0  0  0  0
  160.9560  212.0590  150.6250 C   0  0  0  0  0  3  0  0  0  0  0  0
  161.3580  207.0460  150.9170 C   0  0  0  0  0  0  0  0  0  0  0  0
  161.2350  211.6540  155.3350 F   0  0  0  0  0  0  0  0  0  0  0  0
  162.3810  209.4210  148.2660 C   0  0  0  0  0  2  0  0  0  0  0  0
  160.7950  214.4530  150.3990 O   0  0  0  0  0  1  0  0  0  0  0  0
  161.1360  207.0270  152.2020 N   0  0  0  0  0  0  0  0  0  0  0  0
  161.7830  208.3350  150.2640 C   0  0  1  0  0  3  0  0  0  0  0  0
  161.3590  205.8310  150.1550 N   0  0  0  0  0  2  0  0  0  0  0  0
  161.1810  210.6400  153.1800 C   0  0  0  0  0  3  0  0  0  0  0  0
  161.8220  213.1530  148.6480 C   0  0  0  0  0  3  0  0  0  0  0  0
  161.1580  208.2210  153.0010 C   0  0  0  0  0  0  0  0  0  0  0  0
  161.1750  208.1210  154.3950 C   0  0  0  0  0  3  0  0  0  0  0  0
  161.5960  208.3170  148.8170 N   0  0  0  0  0  2  0  0  0  0  0  0
  161.9590  210.7420  148.8530 C   0  0  0  0  0  0  0  0  0  0  0  0
  162.2020  211.9140  148.1290 C   0  0  0  0  0  3  0  0  0  0  0  0
  161.2420  201.2470  147.8680 C   0  0  0  0  0  0  0  0  0  0  0  0
  161.1260  203.6120  148.3410 C   0  0  0  0  0  3  0  0  0  0  0  0
  161.0820  201.6350  151.6100 C   0  0  0  0  0  1  0  0  0  0  0  0
  161.3210  200.2060  146.9550 O   0  0  0  0  0  1  0  0  0  0  0  0
  161.2060  202.5670  147.4200 C   0  0  0  0  0  3  0  0  0  0  0  0
  161.1210  202.0140  150.1680 C   0  0  0  0  0  0  0  0  0  0  0  0
  161.0830  203.3610  149.7230 C   0  0  0  0  0  0  0  0  0  0  0  0
  161.2000  200.9740  149.2360 C   0  0  0  0  0  3  0  0  0  0  0  0
  1  8  1  0  0  0  0
  1 11  1  0  0  0  0
  2  3  1  6  0  0  0
  2  7  1  0  0  0  0
  3  9  1  0  0  0  0
  5  4  2  0  0  0  0
  6 13  1  0  0  0  0
  6  9  2  0  0  0  0
  7 19  2  0  0  0  0
  7 17  1  0  0  0  0
 10 14  2  0  0  0  0
 12 21  1  0  0  0  0
 12 22  1  0  0  0  0
 14 19  1  0  0  0  0
 15 21  1  6  0  0  0
 15  2  1  0  0  0  0
 15 10  1  0  0  0  0
 16  5  1  0  0  0  0
 16 10  1  0  0  0  0
 17  1  2  0  0  0  0
 18  6  1  0  0  0  0
 19 20  1  0  0  0  0
 20  8  2  0  0  0  0
 22  3  2  0  0  0  0
 23 18  2  0  0  0  0
 23 22  1  0  0  0  0
 24 31  1  0  0  0  0
 25 30  2  0  0  0  0
 27 24  1  0  0  0  0
 28 24  2  0  0  0  0
 28 25  1  0  0  0  0
 29 26  1  0  0  0  0
 30 29  1  0  0  0  0
 30  5  1  0  0  0  0
 31 29  2  0  0  0  0
M  END
>  <MODEL>
6

>  <REMARK>
 VINA RESULT:      -7.5      2.344      7.846
  Name = 
  1 active torsions:
  status: ('A' for Active; 'I' for Inactive)
    1  A    between atoms: C_9  and  C_22
                            x       y       z     vdW  Elec       q    Type
                         _______ _______ _______ _____ _____    ______ ____

>  <TORSDO>
F 1

$$$$
=
 OpenBabel11052422343D

 31 35  0  0  1  0  0  0  0  0999 V2000
  160.7030  202.8700  151.9350 C   0  0  0  0  0  0  0  0  0  0  0  0
  161.5790  204.5650  148.5990 C   0  0  2  0  0  3  0  0  0  0  0  0
  161.2250  203.5060  147.5670 C   0  0  0  0  0  0  0  0  0  0  0  0
  162.3310  209.3140  150.6940 O   0  0  0  0  0  0  0  0  0  0  0  0
  162.1260  209.4620  149.4600 C   0  0  0  0  0  0  0  0  0  0  0  0
  161.2120  201.1870  146.8310 C   0  0  0  0  0  0  0  0  0  0  0  0
  161.1990  204.3170  150.0470 C   0  0  0  0  0  0  0  0  0  0  0  0
  160.7360  203.9700  152.7950 C   0  0  0  0  0  3  0  0  0  0  0  0
  161.4390  202.1430  147.8230 C   0  0  0  0  0  3  0  0  0  0  0  0
  161.4840  207.0060  149.1350 C   0  0  0  0  0  0  0  0  0  0  0  0
  160.4510  201.6340  152.4270 F   0  0  0  0  0  0  0  0  0  0  0  0
  160.6730  205.3580  145.9190 C   0  0  0  0  0  2  0  0  0  0  0  0
  161.4020  199.8410  147.1090 O   0  0  0  0  0  1  0  0  0  0  0  0
  161.4990  206.7400  150.4120 N   0  0  0  0  0  0  0  0  0  0  0  0
  161.0460  205.9390  148.1670 C   0  0  1  0  0  3  0  0  0  0  0  0
  161.7230  208.3380  148.6610 N   0  0  0  0  0  2  0  0  0  0  0  0
  160.9470  203.0400  150.5700 C   0  0  0  0  0  3  0  0  0  0  0  0
  160.7990  201.5850  145.5580 C   0  0  0  0  0  3  0  0  0  0  0  0
  161.2330  205.4240  150.9240 C   0  0  0  0  0  0  0  0  0  0  0  0
  161.0030  205.2450  152.2900 C   0  0  0  0  0  3  0  0  0  0  0  0
  161.4630  206.2200  146.7980 N   0  0  0  0  0  2  0  0  0  0  0  0
  160.8650  203.9040  146.2580 C   0  0  0  0  0  0  0  0  0  0  0  0
  160.6290  202.9410  145.2720 C   0  0  0  0  0  3  0  0  0  0  0  0
  162.7440  213.2420  147.5020 C   0  0  0  0  0  0  0  0  0  0  0  0
  163.2410  210.8940  147.7750 C   0  0  0  0  0  3  0  0  0  0  0  0
  160.5570  211.9480  150.2820 C   0  0  0  0  0  1  0  0  0  0  0  0
  162.9610  214.4490  146.8550 O   0  0  0  0  0  1  0  0  0  0  0  0
  163.4610  212.1080  147.1220 C   0  0  0  0  0  3  0  0  0  0  0  0
  161.5770  211.9480  149.1930 C   0  0  0  0  0  0  0  0  0  0  0  0
  162.3030  210.7880  148.8150 C   0  0  0  0  0  0  0  0  0  0  0  0
  161.8060  213.1600  148.5320 C   0  0  0  0  0  3  0  0  0  0  0  0
  1 11  1  0  0  0  0
  1  8  1  0  0  0  0
  2  3  1  6  0  0  0
  2  7  1  0  0  0  0
  3  9  1  0  0  0  0
  5  4  2  0  0  0  0
  6 13  1  0  0  0  0
  6  9  2  0  0  0  0
  7 17  1  0  0  0  0
  7 19  2  0  0  0  0
 10 14  2  0  0  0  0
 12 22  1  0  0  0  0
 12 21  1  0  0  0  0
 14 19  1  0  0  0  0
 15 21  1  6  0  0  0
 15  2  1  0  0  0  0
 15 10  1  0  0  0  0
 16 10  1  0  0  0  0
 16  5  1  0  0  0  0
 17  1  2  0  0  0  0
 18  6  1  0  0  0  0
 19 20  1  0  0  0  0
 20  8  2  0  0  0  0
 22  3  2  0  0  0  0
 23 18  2  0  0  0  0
 23 22  1  0  0  0  0
 24 31  1  0  0  0  0
 25 30  2  0  0  0  0
 27 24  1  0  0  0  0
 28 24  2  0  0  0  0
 28 25  1  0  0  0  0
 29 26  1  0  0  0  0
 30 29  1  0  0  0  0
 30  5  1  0  0  0  0
 31 29  2  0  0  0  0
M  END
>  <MODEL>
7

>  <REMARK>
 VINA RESULT:      -7.2      2.452      3.469
  Name = 
  1 active torsions:
  status: ('A' for Active; 'I' for Inactive)
    1  A    between atoms: C_9  and  C_22
                            x       y       z     vdW  Elec       q    Type
                         _______ _______ _______ _____ _____    ______ ____

>  <TORSDO>
F 1

$$$$
=
 OpenBabel11052422343D

 31 35  0  0  1  0  0  0  0  0999 V2000
  161.2920  200.9370  148.3040 C   0  0  0  0  0  0  0  0  0  0  0  0
  161.4560  204.7750  148.3830 C   0  0  2  0  0  3  0  0  0  0  0  0
  161.2260  205.1640  146.9320 C   0  0  0  0  0  0  0  0  0  0  0  0
  161.4140  205.1160  153.6170 O   0  0  0  0  0  0  0  0  0  0  0  0
  161.0590  206.2320  153.1520 C   0  0  0  0  0  0  0  0  0  0  0  0
  161.6200  204.8100  144.5560 C   0  0  0  0  0  0  0  0  0  0  0  0
  161.2830  203.3200  148.7770 C   0  0  0  0  0  0  0  0  0  0  0  0
  161.1830  200.6590  149.6680 C   0  0  0  0  0  3  0  0  0  0  0  0
  161.7430  204.3880  145.8830 C   0  0  0  0  0  3  0  0  0  0  0  0
  160.9100  205.3390  150.7590 C   0  0  0  0  0  0  0  0  0  0  0  0
  161.3530  199.9220  147.4090 F   0  0  0  0  0  0  0  0  0  0  0  0
  160.1380  207.3180  147.7240 C   0  0  0  0  0  2  0  0  0  0  0  0
  162.1120  204.0170  143.5300 O   0  0  0  0  0  1  0  0  0  0  0  0
  161.1090  204.1000  151.1130 N   0  0  0  0  0  0  0  0  0  0  0  0
  160.6080  205.6530  149.3160 C   0  0  1  0  0  3  0  0  0  0  0  0
  160.8180  206.3780  151.7440 N   0  0  0  0  0  2  0  0  0  0  0  0
  161.3560  202.2610  147.8610 C   0  0  0  0  0  3  0  0  0  0  0  0
  161.0070  206.0290  144.2650 C   0  0  0  0  0  3  0  0  0  0  0  0
  161.1750  203.0310  150.1550 C   0  0  0  0  0  0  0  0  0  0  0  0
  161.1280  201.7050  150.5930 C   0  0  0  0  0  3  0  0  0  0  0  0
  160.8170  207.0600  148.9940 N   0  0  0  0  0  2  0  0  0  0  0  0
  160.6610  206.4250  146.6300 C   0  0  0  0  0  0  0  0  0  0  0  0
  160.5310  206.8360  145.3000 C   0  0  0  0  0  3  0  0  0  0  0  0
  160.5290  209.5410  155.8500 C   0  0  0  0  0  0  0  0  0  0  0  0
  160.5000  207.1730  155.3740 C   0  0  0  0  0  3  0  0  0  0  0  0
  161.5130  209.1110  152.2400 C   0  0  0  0  0  1  0  0  0  0  0  0
  160.3520  210.5910  156.7390 O   0  0  0  0  0  1  0  0  0  0  0  0
  160.3210  208.2280  156.2710 C   0  0  0  0  0  3  0  0  0  0  0  0
  161.0980  208.7480  153.6270 C   0  0  0  0  0  0  0  0  0  0  0  0
  160.8900  207.4080  154.0450 C   0  0  0  0  0  0  0  0  0  0  0  0
  160.9150  209.7980  154.5340 C   0  0  0  0  0  3  0  0  0  0  0  0
  1  8  1  0  0  0  0
  2  3  1  6  0  0  0
  2  7  1  0  0  0  0
  2 15  1  0  0  0  0
  5  4  2  0  0  0  0
  5 30  1  0  0  0  0
  6  9  1  0  0  0  0
  7 19  2  0  0  0  0
  8 20  2  0  0  0  0
  9  3  2  0  0  0  0
 10 14  2  0  0  0  0
 10 16  1  0  0  0  0
 11  1  1  0  0  0  0
 12 21  1  0  0  0  0
 13  6  1  0  0  0  0
 15 21  1  1  0  0  0
 15 10  1  0  0  0  0
 16  5  1  0  0  0  0
 17  1  2  0  0  0  0
 17  7  1  0  0  0  0
 18  6  2  0  0  0  0
 18 23  1  0  0  0  0
 19 20  1  0  0  0  0
 19 14  1  0  0  0  0
 22  3  1  0  0  0  0
 22 12  1  0  0  0  0
 23 22  2  0  0  0  0
 24 28  1  0  0  0  0
 24 27  1  0  0  0  0
 25 28  2  0  0  0  0
 26 29  1  0  0  0  0
 29 30  2  0  0  0  0
 29 31  1  0  0  0  0
 30 25  1  0  0  0  0
 31 24  2  0  0  0  0
M  END
>  <MODEL>
8

>  <REMARK>
 VINA RESULT:      -6.5      4.439      7.471
  Name = 
  1 active torsions:
  status: ('A' for Active; 'I' for Inactive)
    1  A    between atoms: C_9  and  C_22
                            x       y       z     vdW  Elec       q    Type
                         _______ _______ _______ _____ _____    ______ ____

>  <TORSDO>
F 1

$$$$
