=
 OpenBabel11062408093D

 34 38  0  0  1  0  0  0  0  0999 V2000
  160.9730  210.1530  156.4350 C   0  0  2  0  0  3  0  0  0  0  0  0
  159.8770  207.7550  156.2060 C   0  0  0  0  0  2  0  0  0  0  0  0
  160.6460  209.1170  154.0530 C   0  0  0  0  0  0  0  0  0  0  0  0
  161.0850  208.1940  151.8420 C   0  0  0  0  0  0  0  0  0  0  0  0
  161.1500  206.6240  153.7890 C   0  0  0  0  0  2  0  0  0  0  0  0
  160.4240  209.0140  155.5490 C   0  0  0  0  0  0  0  0  0  0  0  0
  160.6800  205.5440  152.8130 C   0  0  0  0  0  2  0  0  0  0  0  0
  161.3480  207.0400  150.9660 C   0  0  0  0  0  3  0  0  0  0  0  0
  160.6130  210.4110  153.4900 C   0  0  0  0  0  0  0  0  0  0  0  0
  161.2330  211.4540  155.6530 C   0  0  0  0  0  2  0  0  0  0  0  0
  158.9350  208.8680  155.8170 C   0  0  0  0  0  2  0  0  0  0  0  0
  161.0240  209.4720  151.2940 C   0  0  0  0  0  3  0  0  0  0  0  0
  160.7990  210.5940  152.1010 C   0  0  0  0  0  0  0  0  0  0  0  0
  161.2100  205.7920  151.4260 C   0  0  0  0  0  0  0  0  0  0  0  0
  160.9150  208.0040  153.2260 C   0  0  0  0  0  0  0  0  0  0  0  0
  160.3550  211.5770  154.4070 C   0  0  0  0  0  2  0  0  0  0  0  0
  158.7620  212.9880  150.8060 N   0  0  0  0  0  0  0  0  0  0  0  0
  159.4450  213.4480  149.5960 C   0  0  0  0  0  2  0  0  0  0  0  0
  160.7720  211.9010  151.4980 N   0  0  0  0  0  0  0  0  0  0  0  0
  160.4650  212.4070  149.1340 C   0  0  0  0  0  2  0  0  0  0  0  0
  159.7480  212.8720  151.8790 C   0  0  0  0  0  2  0  0  0  0  0  0
  161.4790  212.1680  150.2490 C   0  0  0  0  0  2  0  0  0  0  0  0
  157.8430  214.0420  151.1950 C   0  0  0  0  0  1  0  0  0  0  0  0
  162.2250  209.7600  157.2250 C   0  0  1  0  0  3  0  0  0  0  0  0
  162.6080  208.4540  156.9190 O   0  0  0  0  0  1  0  0  0  0  0  0
  163.3880  210.7110  156.9850 C   0  0  0  0  0  1  0  0  0  0  0  0
  161.5510  204.6360  150.5470 C   0  0  0  0  0  2  0  0  0  0  0  0
  161.9390  204.3890  148.1750 N   0  0  0  0  0  0  0  0  0  0  0  0
  161.2730  204.9610  149.1160 C   0  0  0  0  0  3  0  0  0  0  0  0
  163.0360  204.9310  146.0710 C   0  0  0  0  0  1  0  0  0  0  0  0
  161.7130  204.6740  146.7720 C   0  0  1  0  0  0  0  0  0  0  0  0
  161.1100  203.5660  146.1750 O   0  0  0  0  0  1  0  0  0  0  0  0
  160.3420  206.0580  145.1560 C   0  0  0  0  0  1  0  0  0  0  0  0
  160.8130  205.9000  146.5940 C   0  0  0  0  0  2  0  0  0  0  0  0
  1 24  1  6  0  0  0
  3  6  1  0  0  0  0
  4 15  1  0  0  0  0
  6 11  1  0  0  0  0
  6  2  1  0  0  0  0
  6  1  1  0  0  0  0
  7  5  1  0  0  0  0
  8 14  2  0  0  0  0
  8  4  1  0  0  0  0
  9  3  1  0  0  0  0
  9 16  1  0  0  0  0
 10  1  1  0  0  0  0
 11  2  1  0  0  0  0
 12  4  2  0  0  0  0
 12 13  1  0  0  0  0
 13  9  2  0  0  0  0
 14  7  1  0  0  0  0
 15  5  1  0  0  0  0
 15  3  2  0  0  0  0
 16 10  1  0  0  0  0
 17 23  1  0  0  0  0
 17 21  1  0  0  0  0
 18 17  1  0  0  0  0
 19 21  1  0  0  0  0
 19 13  1  0  0  0  0
 20 18  1  0  0  0  0
 20 22  1  0  0  0  0
 22 19  1  0  0  0  0
 24 26  1  6  0  0  0
 25 24  1  0  0  0  0
 27 14  1  0  0  0  0
 28 29  2  0  0  0  0
 29 27  1  0  0  0  0
 31 30  1  6  0  0  0
 31 28  1  0  0  0  0
 32 31  1  0  0  0  0
 33 34  1  0  0  0  0
 34 31  1  0  0  0  0
M  END
>  <MODEL>
1

>  <REMARK>
 VINA RESULT:      -7.0      0.000      0.000
  Name = 
  6 active torsions:
  status: ('A' for Active; 'I' for Inactive)
    1  A    between atoms: C_1  and  C_6
    2  A    between atoms: C_3  and  C_29
    3  A    between atoms: C_3  and  C_33
    4  A    between atoms: N_12  and  C_28
    5  A    between atoms: N_13  and  C_20
    6  A    between atoms: C_20  and  C_22
                            x       y       z     vdW  Elec       q    Type
                         _______ _______ _______ _____ _____    ______ ____

>  <TORSDO>
F 6

$$$$
=
 OpenBabel11062408093D

 34 38  0  0  1  0  0  0  0  0999 V2000
  160.9360  209.9860  156.6610 C   0  0  2  0  0  3  0  0  0  0  0  0
  160.1610  207.5250  156.0740 C   0  0  0  0  0  2  0  0  0  0  0  0
  160.5020  209.3430  154.1610 C   0  0  0  0  0  0  0  0  0  0  0  0
  160.8250  208.8980  151.7880 C   0  0  0  0  0  0  0  0  0  0  0  0
  161.3120  207.0420  153.3940 C   0  0  0  0  0  2  0  0  0  0  0  0
  160.4570  208.9490  155.6240 C   0  0  0  0  0  0  0  0  0  0  0  0
  160.8930  206.0890  152.2730 C   0  0  0  0  0  2  0  0  0  0  0  0
  161.1490  207.9680  150.6920 C   0  0  0  0  0  3  0  0  0  0  0  0
  160.2330  210.6950  153.8550 C   0  0  0  0  0  0  0  0  0  0  0  0
  160.9310  211.4280  156.1190 C   0  0  0  0  0  2  0  0  0  0  0  0
  159.0390  208.5300  155.9780 C   0  0  0  0  0  2  0  0  0  0  0  0
  160.5310  210.2270  151.4960 C   0  0  0  0  0  3  0  0  0  0  0  0
  160.2420  211.1430  152.5150 C   0  0  0  0  0  0  0  0  0  0  0  0
  161.2330  206.6540  150.9190 C   0  0  0  0  0  0  0  0  0  0  0  0
  160.8310  208.4460  153.1210 C   0  0  0  0  0  0  0  0  0  0  0  0
  159.9160  211.6290  154.9920 C   0  0  0  0  0  2  0  0  0  0  0  0
  157.7730  213.3710  151.8100 N   0  0  0  0  0  0  0  0  0  0  0  0
  158.2760  214.1430  150.6740 C   0  0  0  0  0  2  0  0  0  0  0  0
  159.9720  212.5140  152.1720 N   0  0  0  0  0  0  0  0  0  0  0  0
  159.3960  213.3780  149.9680 C   0  0  0  0  0  2  0  0  0  0  0  0
  158.8520  213.2260  152.7860 C   0  0  0  0  0  2  0  0  0  0  0  0
  160.5240  213.1100  150.9590 C   0  0  0  0  0  2  0  0  0  0  0  0
  156.7450  214.1780  152.4420 C   0  0  0  0  0  1  0  0  0  0  0  0
  162.3070  209.6600  157.2610 C   0  0  1  0  0  3  0  0  0  0  0  0
  162.6860  208.3580  156.9360 O   0  0  0  0  0  1  0  0  0  0  0  0
  163.3850  210.6390  156.8190 C   0  0  0  0  0  1  0  0  0  0  0  0
  161.6340  205.7350  149.8150 C   0  0  0  0  0  2  0  0  0  0  0  0
  161.2460  203.4390  149.1680 N   0  0  0  0  0  0  0  0  0  0  0  0
  161.1120  204.3560  150.0600 C   0  0  0  0  0  3  0  0  0  0  0  0
  161.1440  201.5740  150.7300 C   0  0  0  0  0  1  0  0  0  0  0  0
  160.7520  202.0890  149.3550 C   0  0  1  0  0  0  0  0  0  0  0  0
  159.3590  202.1000  149.2730 O   0  0  0  0  0  1  0  0  0  0  0  0
  160.8170  201.4840  146.8980 C   0  0  0  0  0  1  0  0  0  0  0  0
  161.3160  201.1410  148.2930 C   0  0  0  0  0  2  0  0  0  0  0  0
  1 24  1  6  0  0  0
  3  6  1  0  0  0  0
  4 15  1  0  0  0  0
  6 11  1  0  0  0  0
  6  2  1  0  0  0  0
  6  1  1  0  0  0  0
  7  5  1  0  0  0  0
  8 14  2  0  0  0  0
  8  4  1  0  0  0  0
  9  3  1  0  0  0  0
  9 16  1  0  0  0  0
 10  1  1  0  0  0  0
 11  2  1  0  0  0  0
 12  4  2  0  0  0  0
 12 13  1  0  0  0  0
 13  9  2  0  0  0  0
 14  7  1  0  0  0  0
 15  5  1  0  0  0  0
 15  3  2  0  0  0  0
 16 10  1  0  0  0  0
 17 23  1  0  0  0  0
 17 21  1  0  0  0  0
 18 17  1  0  0  0  0
 19 13  1  0  0  0  0
 19 21  1  0  0  0  0
 20 18  1  0  0  0  0
 20 22  1  0  0  0  0
 22 19  1  0  0  0  0
 24 26  1  6  0  0  0
 25 24  1  0  0  0  0
 27 29  1  0  0  0  0
 27 14  1  0  0  0  0
 28 31  1  0  0  0  0
 28 29  2  0  0  0  0
 31 30  1  1  0  0  0
 32 31  1  0  0  0  0
 33 34  1  0  0  0  0
 34 31  1  0  0  0  0
M  END
>  <MODEL>
2

>  <REMARK>
 VINA RESULT:      -7.0      1.690      2.061
  Name = 
  6 active torsions:
  status: ('A' for Active; 'I' for Inactive)
    1  A    between atoms: C_1  and  C_6
    2  A    between atoms: C_3  and  C_29
    3  A    between atoms: C_3  and  C_33
    4  A    between atoms: N_12  and  C_28
    5  A    between atoms: N_13  and  C_20
    6  A    between atoms: C_20  and  C_22
                            x       y       z     vdW  Elec       q    Type
                         _______ _______ _______ _____ _____    ______ ____

>  <TORSDO>
F 6

$$$$
=
 OpenBabel11062408093D

 34 38  0  0  1  0  0  0  0  0999 V2000
  160.9060  211.8190  151.1290 C   0  0  2  0  0  3  0  0  0  0  0  0
  162.2950  210.4280  149.3570 C   0  0  0  0  0  2  0  0  0  0  0  0
  161.3070  209.2650  151.5370 C   0  0  0  0  0  0  0  0  0  0  0  0
  160.9380  206.8800  151.8600 C   0  0  0  0  0  0  0  0  0  0  0  0
  161.1210  207.7190  149.5100 C   0  0  0  0  0  2  0  0  0  0  0  0
  161.5750  210.4980  150.6970 C   0  0  0  0  0  0  0  0  0  0  0  0
  161.7030  206.3460  149.1650 C   0  0  0  0  0  2  0  0  0  0  0  0
  160.8050  205.5190  151.3100 C   0  0  0  0  0  3  0  0  0  0  0  0
  161.1600  209.4610  152.9280 C   0  0  0  0  0  0  0  0  0  0  0  0
  160.4630  211.8190  152.6030 C   0  0  0  0  0  2  0  0  0  0  0  0
  163.0770  210.7200  150.6140 C   0  0  0  0  0  2  0  0  0  0  0  0
  160.8220  207.0800  153.2320 C   0  0  0  0  0  3  0  0  0  0  0  0
  160.9200  208.3630  153.7860 C   0  0  0  0  0  0  0  0  0  0  0  0
  161.1120  205.2680  150.0340 C   0  0  0  0  0  0  0  0  0  0  0  0
  161.1640  207.9680  150.9970 C   0  0  0  0  0  0  0  0  0  0  0  0
  161.2890  210.8610  153.4650 C   0  0  0  0  0  2  0  0  0  0  0  0
  159.9320  210.5270  156.2140 N   0  0  0  0  0  0  0  0  0  0  0  0
  160.9460  210.4060  157.2610 C   0  0  0  0  0  2  0  0  0  0  0  0
  160.7660  208.5300  155.2060 N   0  0  0  0  0  0  0  0  0  0  0  0
  162.2270  209.7940  156.6910 C   0  0  0  0  0  2  0  0  0  0  0  0
  159.5780  209.1860  155.7520 C   0  0  0  0  0  2  0  0  0  0  0  0
  161.9110  208.4220  156.1060 C   0  0  0  0  0  2  0  0  0  0  0  0
  158.7450  211.0790  156.8410 C   0  0  0  0  0  1  0  0  0  0  0  0
  159.7340  212.2300  150.2320 C   0  0  1  0  0  3  0  0  0  0  0  0
  158.6520  212.6540  151.0050 O   0  0  0  0  0  1  0  0  0  0  0  0
  160.1140  213.3140  149.2340 C   0  0  0  0  0  1  0  0  0  0  0  0
  160.9020  203.9020  149.4760 C   0  0  0  0  0  2  0  0  0  0  0  0
  160.9960  204.2610  147.0880 N   0  0  0  0  0  0  0  0  0  0  0  0
  161.5550  203.7720  148.1390 C   0  0  0  0  0  3  0  0  0  0  0  0
  163.0490  204.5610  145.8140 C   0  0  0  0  0  1  0  0  0  0  0  0
  161.5850  204.1550  145.7670 C   0  0  1  0  0  0  0  0  0  0  0  0
  161.5140  202.8270  145.3440 O   0  0  0  0  0  1  0  0  0  0  0  0
  160.1760  206.2310  145.4370 C   0  0  0  0  0  1  0  0  0  0  0  0
  160.8560  205.0490  144.7620 C   0  0  0  0  0  2  0  0  0  0  0  0
  1 24  1  6  0  0  0
  1 10  1  0  0  0  0
  2 11  1  0  0  0  0
  2  6  1  0  0  0  0
  3  9  1  0  0  0  0
  4 12  2  0  0  0  0
  5 15  1  0  0  0  0
  6  1  1  0  0  0  0
  6  3  1  0  0  0  0
  7  5  1  0  0  0  0
  7 14  1  0  0  0  0
  8  4  1  0  0  0  0
  9 16  1  0  0  0  0
  9 13  2  0  0  0  0
 10 16  1  0  0  0  0
 11  6  1  0  0  0  0
 12 13  1  0  0  0  0
 13 19  1  0  0  0  0
 14  8  2  0  0  0  0
 15  3  2  0  0  0  0
 15  4  1  0  0  0  0
 17 23  1  0  0  0  0
 17 18  1  0  0  0  0
 19 21  1  0  0  0  0
 19 22  1  0  0  0  0
 20 18  1  0  0  0  0
 21 17  1  0  0  0  0
 22 20  1  0  0  0  0
 24 26  1  6  0  0  0
 24 25  1  0  0  0  0
 27 14  1  0  0  0  0
 28 29  2  0  0  0  0
 29 27  1  0  0  0  0
 31 30  1  1  0  0  0
 31 28  1  0  0  0  0
 32 31  1  0  0  0  0
 34 33  1  0  0  0  0
 34 31  1  0  0  0  0
M  END
>  <MODEL>
3

>  <REMARK>
 VINA RESULT:      -6.6      2.255      4.815
  Name = 
  6 active torsions:
  status: ('A' for Active; 'I' for Inactive)
    1  A    between atoms: C_1  and  C_6
    2  A    between atoms: C_3  and  C_29
    3  A    between atoms: C_3  and  C_33
    4  A    between atoms: N_12  and  C_28
    5  A    between atoms: N_13  and  C_20
    6  A    between atoms: C_20  and  C_22
                            x       y       z     vdW  Elec       q    Type
                         _______ _______ _______ _____ _____    ______ ____

>  <TORSDO>
F 6

$$$$
=
 OpenBabel11062408093D

 34 38  0  0  1  0  0  0  0  0999 V2000
  161.7060  205.9700  149.3980 C   0  0  2  0  0  3  0  0  0  0  0  0
  162.3500  205.9420  151.9640 C   0  0  0  0  0  2  0  0  0  0  0  0
  161.6940  208.2150  150.7450 C   0  0  0  0  0  0  0  0  0  0  0  0
  160.9600  210.2720  151.8220 C   0  0  0  0  0  0  0  0  0  0  0  0
  160.7470  208.1430  153.1180 C   0  0  0  0  0  2  0  0  0  0  0  0
  161.9900  206.7280  150.7110 C   0  0  0  0  0  0  0  0  0  0  0  0
  160.9580  208.9950  154.3720 C   0  0  0  0  0  2  0  0  0  0  0  0
  160.4440  210.9850  153.0030 C   0  0  0  0  0  3  0  0  0  0  0  0
  161.9160  208.9360  149.5510 C   0  0  0  0  0  0  0  0  0  0  0  0
  161.6270  206.8960  148.1710 C   0  0  0  0  0  2  0  0  0  0  0  0
  163.4450  206.5070  151.0930 C   0  0  0  0  0  2  0  0  0  0  0  0
  161.2080  210.9780  150.6480 C   0  0  0  0  0  3  0  0  0  0  0  0
  161.6760  210.3290  149.4990 C   0  0  0  0  0  0  0  0  0  0  0  0
  160.3920  210.3790  154.1930 C   0  0  0  0  0  0  0  0  0  0  0  0
  161.1820  208.8840  151.8790 C   0  0  0  0  0  0  0  0  0  0  0  0
  162.4320  208.1850  148.3540 C   0  0  0  0  0  2  0  0  0  0  0  0
  162.2390  213.4530  148.2840 N   0  0  0  0  0  0  0  0  0  0  0  0
  161.3810  213.5570  147.1030 C   0  0  0  0  0  2  0  0  0  0  0  0
  161.8930  211.0910  148.2980 N   0  0  0  0  0  0  0  0  0  0  0  0
  160.2700  212.5070  147.1600 C   0  0  0  0  0  2  0  0  0  0  0  0
  162.9010  212.1500  148.2630 C   0  0  0  0  0  2  0  0  0  0  0  0
  160.8940  211.1180  147.2340 C   0  0  0  0  0  2  0  0  0  0  0  0
  163.2800  214.4530  148.1340 C   0  0  0  0  0  1  0  0  0  0  0  0
  160.4580  205.0840  149.4630 C   0  0  1  0  0  3  0  0  0  0  0  0
  160.5370  204.0560  148.5250 O   0  0  0  0  0  1  0  0  0  0  0  0
  160.2260  204.5030  150.8500 C   0  0  0  0  0  1  0  0  0  0  0  0
  159.7990  211.0900  155.3620 C   0  0  0  0  0  2  0  0  0  0  0  0
  157.4190  211.0590  155.7830 N   0  0  0  0  0  0  0  0  0  0  0  0
  158.3940  211.5050  155.0700 C   0  0  0  0  0  3  0  0  0  0  0  0
  155.2650  210.2260  155.0140 C   0  0  0  0  0  1  0  0  0  0  0  0
  156.0380  211.4250  155.5360 C   0  0  1  0  0  0  0  0  0  0  0  0
  155.4560  211.8310  156.7380 O   0  0  0  0  0  1  0  0  0  0  0  0
  155.5680  213.8830  155.1650 C   0  0  0  0  0  1  0  0  0  0  0  0
  155.9400  212.5600  154.5140 C   0  0  0  0  0  2  0  0  0  0  0  0
  1 24  1  1  0  0  0
  1  6  1  0  0  0  0
  3 15  1  0  0  0  0
  4 15  2  0  0  0  0
  4  8  1  0  0  0  0
  5  7  1  0  0  0  0
  6  3  1  0  0  0  0
  6 11  1  0  0  0  0
  6  2  1  0  0  0  0
  8 14  2  0  0  0  0
  9  3  2  0  0  0  0
 10 16  1  0  0  0  0
 10  1  1  0  0  0  0
 11  2  1  0  0  0  0
 12  4  1  0  0  0  0
 13  9  1  0  0  0  0
 13 12  2  0  0  0  0
 14  7  1  0  0  0  0
 14 27  1  0  0  0  0
 15  5  1  0  0  0  0
 16  9  1  0  0  0  0
 18 20  1  0  0  0  0
 18 17  1  0  0  0  0
 19 13  1  0  0  0  0
 20 22  1  0  0  0  0
 21 17  1  0  0  0  0
 21 19  1  0  0  0  0
 22 19  1  0  0  0  0
 23 17  1  0  0  0  0
 24 26  1  1  0  0  0
 25 24  1  0  0  0  0
 29 27  1  0  0  0  0
 29 28  2  0  0  0  0
 31 30  1  6  0  0  0
 31 28  1  0  0  0  0
 31 32  1  0  0  0  0
 34 33  1  0  0  0  0
 34 31  1  0  0  0  0
M  END
>  <MODEL>
4

>  <REMARK>
 VINA RESULT:      -5.9      2.833      7.536
  Name = 
  6 active torsions:
  status: ('A' for Active; 'I' for Inactive)
    1  A    between atoms: C_1  and  C_6
    2  A    between atoms: C_3  and  C_29
    3  A    between atoms: C_3  and  C_33
    4  A    between atoms: N_12  and  C_28
    5  A    between atoms: N_13  and  C_20
    6  A    between atoms: C_20  and  C_22
                            x       y       z     vdW  Elec       q    Type
                         _______ _______ _______ _____ _____    ______ ____

>  <TORSDO>
F 6

$$$$
=
 OpenBabel11062408093D

 34 38  0  0  1  0  0  0  0  0999 V2000
  160.6550  213.0050  147.8290 C   0  0  2  0  0  3  0  0  0  0  0  0
  162.7480  211.3870  147.8860 C   0  0  0  0  0  2  0  0  0  0  0  0
  161.1390  211.6140  149.9930 C   0  0  0  0  0  0  0  0  0  0  0  0
  160.9280  210.0250  151.8260 C   0  0  0  0  0  0  0  0  0  0  0  0
  161.8960  209.1920  149.6750 C   0  0  0  0  0  2  0  0  0  0  0  0
  161.5730  212.0360  148.6030 C   0  0  0  0  0  0  0  0  0  0  0  0
  162.7060  208.2130  150.5270 C   0  0  0  0  0  2  0  0  0  0  0  0
  161.1570  208.6830  152.3900 C   0  0  0  0  0  3  0  0  0  0  0  0
  160.4570  212.5770  150.7690 C   0  0  0  0  0  0  0  0  0  0  0  0
  159.6910  213.7830  148.7420 C   0  0  0  0  0  2  0  0  0  0  0  0
  162.9620  212.6480  148.6860 C   0  0  0  0  0  2  0  0  0  0  0  0
  160.2820  210.9910  152.5930 C   0  0  0  0  0  3  0  0  0  0  0  0
  160.0280  212.2680  152.0800 C   0  0  0  0  0  0  0  0  0  0  0  0
  161.9480  207.8080  151.7630 C   0  0  0  0  0  0  0  0  0  0  0  0
  161.3470  210.3180  150.5150 C   0  0  0  0  0  0  0  0  0  0  0  0
  160.2250  213.9370  150.1670 C   0  0  0  0  0  2  0  0  0  0  0  0
  157.9460  212.6260  154.7430 N   0  0  0  0  0  0  0  0  0  0  0  0
  156.9770  213.6410  154.3290 C   0  0  0  0  0  2  0  0  0  0  0  0
  159.3320  213.2280  152.8950 N   0  0  0  0  0  0  0  0  0  0  0  0
  156.9570  213.7650  152.8050 C   0  0  0  0  0  2  0  0  0  0  0  0
  159.2810  213.0700  154.3480 C   0  0  0  0  0  2  0  0  0  0  0  0
  158.3510  214.1400  152.3130 C   0  0  0  0  0  2  0  0  0  0  0  0
  157.9280  212.5970  156.1940 C   0  0  0  0  0  1  0  0  0  0  0  0
  159.8720  212.3300  146.6980 C   0  0  1  0  0  3  0  0  0  0  0  0
  158.5060  212.5780  146.8330 O   0  0  0  0  0  1  0  0  0  0  0  0
  160.3450  212.7660  145.3200 C   0  0  0  0  0  1  0  0  0  0  0  0
  162.1090  206.4290  152.3090 C   0  0  0  0  0  2  0  0  0  0  0  0
  161.7340  204.4760  150.9370 N   0  0  0  0  0  0  0  0  0  0  0  0
  161.2280  205.4670  151.5830 C   0  0  0  0  0  3  0  0  0  0  0  0
  161.2060  202.1110  150.7060 C   0  0  0  0  0  1  0  0  0  0  0  0
  160.9230  203.5190  150.2110 C   0  0  1  0  0  0  0  0  0  0  0  0
  159.5750  203.8000  150.4410 O   0  0  0  0  0  1  0  0  0  0  0  0
  161.2060  205.0090  148.1850 C   0  0  0  0  0  1  0  0  0  0  0  0
  161.2060  203.5800  148.7080 C   0  0  0  0  0  2  0  0  0  0  0  0
  1 24  1  6  0  0  0
  1  6  1  0  0  0  0
  1 10  1  0  0  0  0
  2  6  1  0  0  0  0
  2 11  1  0  0  0  0
  3 15  2  0  0  0  0
  3  9  1  0  0  0  0
  4  8  1  0  0  0  0
  4 12  2  0  0  0  0
  5 15  1  0  0  0  0
  5  7  1  0  0  0  0
  6 11  1  0  0  0  0
  6  3  1  0  0  0  0
  7 14  1  0  0  0  0
  9 13  2  0  0  0  0
 10 16  1  0  0  0  0
 13 12  1  0  0  0  0
 13 19  1  0  0  0  0
 14 27  1  0  0  0  0
 14  8  2  0  0  0  0
 15  4  1  0  0  0  0
 16  9  1  0  0  0  0
 17 23  1  0  0  0  0
 18 17  1  0  0  0  0
 19 21  1  0  0  0  0
 20 18  1  0  0  0  0
 21 17  1  0  0  0  0
 22 20  1  0  0  0  0
 22 19  1  0  0  0  0
 24 26  1  6  0  0  0
 24 25  1  0  0  0  0
 28 29  2  0  0  0  0
 29 27  1  0  0  0  0
 31 32  1  0  0  0  0
 31 30  1  1  0  0  0
 31 28  1  0  0  0  0
 33 34  1  0  0  0  0
 34 31  1  0  0  0  0
M  END
>  <MODEL>
5

>  <REMARK>
 VINA RESULT:      -5.7      2.881      5.811
  Name = 
  6 active torsions:
  status: ('A' for Active; 'I' for Inactive)
    1  A    between atoms: C_1  and  C_6
    2  A    between atoms: C_3  and  C_29
    3  A    between atoms: C_3  and  C_33
    4  A    between atoms: N_12  and  C_28
    5  A    between atoms: N_13  and  C_20
    6  A    between atoms: C_20  and  C_22
                            x       y       z     vdW  Elec       q    Type
                         _______ _______ _______ _____ _____    ______ ____

>  <TORSDO>
F 6

$$$$
=
 OpenBabel11062408093D

 34 38  0  0  1  0  0  0  0  0999 V2000
  160.8880  213.0210  148.9020 C   0  0  2  0  0  3  0  0  0  0  0  0
  162.5250  211.3970  147.6050 C   0  0  0  0  0  2  0  0  0  0  0  0
  161.4690  210.6900  149.9430 C   0  0  0  0  0  0  0  0  0  0  0  0
  161.2780  208.4250  150.8160 C   0  0  0  0  0  0  0  0  0  0  0  0
  161.5750  208.6960  148.3470 C   0  0  0  0  0  2  0  0  0  0  0  0
  161.6980  211.7090  148.8440 C   0  0  0  0  0  0  0  0  0  0  0  0
  162.2960  207.3470  148.3800 C   0  0  0  0  0  2  0  0  0  0  0  0
  161.3040  206.9670  150.6080 C   0  0  0  0  0  3  0  0  0  0  0  0
  161.1960  211.1950  151.2340 C   0  0  0  0  0  0  0  0  0  0  0  0
  160.3310  213.3250  150.3050 C   0  0  0  0  0  2  0  0  0  0  0  0
  163.1780  212.0560  148.7950 C   0  0  0  0  0  2  0  0  0  0  0  0
  161.0370  208.9330  152.0890 C   0  0  0  0  0  3  0  0  0  0  0  0
  160.9820  210.3130  152.3180 C   0  0  0  0  0  0  0  0  0  0  0  0
  161.7320  206.4530  149.4510 C   0  0  0  0  0  0  0  0  0  0  0  0
  161.4790  209.2950  149.7280 C   0  0  0  0  0  0  0  0  0  0  0  0
  161.1630  212.6880  151.4190 C   0  0  0  0  0  2  0  0  0  0  0  0
  161.3500  209.6400  155.6300 N   0  0  0  0  0  0  0  0  0  0  0  0
  160.0540  209.9680  156.2260 C   0  0  0  0  0  2  0  0  0  0  0  0
  160.7020  210.7960  153.6440 N   0  0  0  0  0  0  0  0  0  0  0  0
  158.9660  209.9900  155.1510 C   0  0  0  0  0  2  0  0  0  0  0  0
  161.7140  210.7050  154.6960 C   0  0  0  0  0  2  0  0  0  0  0  0
  159.3300  211.0220  154.0890 C   0  0  0  0  0  2  0  0  0  0  0  0
  162.3260  209.6750  156.7030 C   0  0  0  0  0  1  0  0  0  0  0  0
  159.7600  213.0860  147.8680 C   0  0  1  0  0  3  0  0  0  0  0  0
  158.5340  213.3140  148.4940 O   0  0  0  0  0  1  0  0  0  0  0  0
  160.0040  214.1470  146.8050 C   0  0  0  0  0  1  0  0  0  0  0  0
  161.6820  204.9780  149.2310 C   0  0  0  0  0  2  0  0  0  0  0  0
  161.2140  204.4630  146.9170 N   0  0  0  0  0  0  0  0  0  0  0  0
  162.0970  204.6380  147.8370 C   0  0  0  0  0  3  0  0  0  0  0  0
  163.0750  204.1070  145.3880 C   0  0  0  0  0  1  0  0  0  0  0  0
  161.5640  204.1260  145.5520 C   0  0  1  0  0  0  0  0  0  0  0  0
  161.0780  202.8500  145.2610 O   0  0  0  0  0  1  0  0  0  0  0  0
  160.1490  206.2030  145.2620 C   0  0  0  0  0  1  0  0  0  0  0  0
  160.9730  205.1330  144.5630 C   0  0  0  0  0  2  0  0  0  0  0  0
  1 24  1  6  0  0  0
  1 10  1  0  0  0  0
  2 11  1  0  0  0  0
  2  6  1  0  0  0  0
  3  9  1  0  0  0  0
  4 12  2  0  0  0  0
  5  7  1  0  0  0  0
  5 15  1  0  0  0  0
  6  1  1  0  0  0  0
  6  3  1  0  0  0  0
  7 14  1  0  0  0  0
  8  4  1  0  0  0  0
  9 16  1  0  0  0  0
  9 13  2  0  0  0  0
 10 16  1  0  0  0  0
 11  6  1  0  0  0  0
 12 13  1  0  0  0  0
 13 19  1  0  0  0  0
 14  8  2  0  0  0  0
 15  3  2  0  0  0  0
 15  4  1  0  0  0  0
 17 18  1  0  0  0  0
 17 23  1  0  0  0  0
 19 22  1  0  0  0  0
 19 21  1  0  0  0  0
 20 18  1  0  0  0  0
 21 17  1  0  0  0  0
 22 20  1  0  0  0  0
 24 26  1  6  0  0  0
 24 25  1  0  0  0  0
 27 14  1  0  0  0  0
 28 29  2  0  0  0  0
 29 27  1  0  0  0  0
 31 30  1  6  0  0  0
 31 28  1  0  0  0  0
 32 31  1  0  0  0  0
 34 33  1  0  0  0  0
 34 31  1  0  0  0  0
M  END
>  <MODEL>
6

>  <REMARK>
 VINA RESULT:      -5.3      2.475      5.568
  Name = 
  6 active torsions:
  status: ('A' for Active; 'I' for Inactive)
    1  A    between atoms: C_1  and  C_6
    2  A    between atoms: C_3  and  C_29
    3  A    between atoms: C_3  and  C_33
    4  A    between atoms: N_12  and  C_28
    5  A    between atoms: N_13  and  C_20
    6  A    between atoms: C_20  and  C_22
                            x       y       z     vdW  Elec       q    Type
                         _______ _______ _______ _____ _____    ______ ____

>  <TORSDO>
F 6

$$$$
=
 OpenBabel11062408093D

 34 38  0  0  1  0  0  0  0  0999 V2000
  162.7420  212.2140  139.7680 C   0  0  2  0  0  3  0  0  0  0  0  0
  161.1130  210.7730  138.2610 C   0  0  0  0  0  2  0  0  0  0  0  0
  160.1610  212.3500  140.1820 C   0  0  0  0  0  0  0  0  0  0  0  0
  157.8800  213.1830  140.3680 C   0  0  0  0  0  0  0  0  0  0  0  0
  158.6530  212.4070  138.1180 C   0  0  0  0  0  2  0  0  0  0  0  0
  161.3200  211.7150  139.4400 C   0  0  0  0  0  0  0  0  0  0  0  0
  157.1970  212.0170  137.8570 C   0  0  0  0  0  2  0  0  0  0  0  0
  156.5590  213.4420  139.7700 C   0  0  0  0  0  3  0  0  0  0  0  0
  160.3920  212.7260  141.5240 C   0  0  0  0  0  0  0  0  0  0  0  0
  162.8320  212.9270  141.1300 C   0  0  0  0  0  2  0  0  0  0  0  0
  161.2750  210.2100  139.6520 C   0  0  0  0  0  2  0  0  0  0  0  0
  158.1100  213.5250  141.6980 C   0  0  0  0  0  3  0  0  0  0  0  0
  159.3610  213.3140  142.2910 C   0  0  0  0  0  0  0  0  0  0  0  0
  156.2470  212.9420  138.5700 C   0  0  0  0  0  0  0  0  0  0  0  0
  158.9040  212.6090  139.5920 C   0  0  0  0  0  0  0  0  0  0  0  0
  161.7530  212.4620  142.1100 C   0  0  0  0  0  2  0  0  0  0  0  0
  161.6750  213.5680  144.7690 N   0  0  0  0  0  0  0  0  0  0  0  0
  160.9960  213.0800  145.9690 C   0  0  0  0  0  2  0  0  0  0  0  0
  159.5650  213.7080  143.6600 N   0  0  0  0  0  0  0  0  0  0  0  0
  159.7840  212.2300  145.5840 C   0  0  0  0  0  2  0  0  0  0  0  0
  160.7620  214.4530  144.0470 C   0  0  0  0  0  2  0  0  0  0  0  0
  158.8270  213.0700  144.7460 C   0  0  0  0  0  2  0  0  0  0  0  0
  162.7830  214.3890  145.2190 C   0  0  0  0  0  1  0  0  0  0  0  0
  163.3440  213.1030  138.6750 C   0  0  1  0  0  3  0  0  0  0  0  0
  162.4120  214.0460  138.2420 O   0  0  0  0  0  1  0  0  0  0  0  0
  164.6170  213.8020  139.1260 C   0  0  0  0  0  1  0  0  0  0  0  0
  154.9330  213.2750  137.9470 C   0  0  0  0  0  2  0  0  0  0  0  0
  154.1900  211.2490  139.0360 N   0  0  0  0  0  0  0  0  0  0  0  0
  153.9460  212.1770  138.1790 C   0  0  0  0  0  3  0  0  0  0  0  0
  152.3500  210.5130  140.4500 C   0  0  0  0  0  1  0  0  0  0  0  0
  153.2690  210.1600  139.2930 C   0  0  1  0  0  0  0  0  0  0  0  0
  152.4840  209.9530  138.1580 O   0  0  0  0  0  1  0  0  0  0  0  0
  155.4840  208.9360  139.2290 C   0  0  0  0  0  1  0  0  0  0  0  0
  154.0190  208.8690  139.6330 C   0  0  0  0  0  2  0  0  0  0  0  0
  1 24  1  6  0  0  0
  1 10  1  0  0  0  0
  2  6  1  0  0  0  0
  2 11  1  0  0  0  0
  3  9  1  0  0  0  0
  4 12  2  0  0  0  0
  5 15  1  0  0  0  0
  6 11  1  0  0  0  0
  6  1  1  0  0  0  0
  6  3  1  0  0  0  0
  7  5  1  0  0  0  0
  7 14  1  0  0  0  0
  8  4  1  0  0  0  0
  9 16  1  0  0  0  0
  9 13  2  0  0  0  0
 10 16  1  0  0  0  0
 12 13  1  0  0  0  0
 13 19  1  0  0  0  0
 14  8  2  0  0  0  0
 15  3  2  0  0  0  0
 15  4  1  0  0  0  0
 17 23  1  0  0  0  0
 17 18  1  0  0  0  0
 19 21  1  0  0  0  0
 19 22  1  0  0  0  0
 20 18  1  0  0  0  0
 21 17  1  0  0  0  0
 22 20  1  0  0  0  0
 24 26  1  1  0  0  0
 25 24  1  0  0  0  0
 27 29  1  0  0  0  0
 27 14  1  0  0  0  0
 28 31  1  0  0  0  0
 29 28  2  0  0  0  0
 31 34  1  0  0  0  0
 31 30  1  1  0  0  0
 32 31  1  0  0  0  0
 33 34  1  0  0  0  0
M  END
>  <MODEL>
7

>  <REMARK>
 VINA RESULT:      -4.5      9.144     13.522
  Name = 
  6 active torsions:
  status: ('A' for Active; 'I' for Inactive)
    1  A    between atoms: C_1  and  C_6
    2  A    between atoms: C_3  and  C_29
    3  A    between atoms: C_3  and  C_33
    4  A    between atoms: N_12  and  C_28
    5  A    between atoms: N_13  and  C_20
    6  A    between atoms: C_20  and  C_22
                            x       y       z     vdW  Elec       q    Type
                         _______ _______ _______ _____ _____    ______ ____

>  <TORSDO>
F 6

$$$$
=
 OpenBabel11062408093D

 34 38  0  0  1  0  0  0  0  0999 V2000
  161.1940  205.0380  151.7540 C   0  0  2  0  0  3  0  0  0  0  0  0
  160.6090  205.9330  149.3340 C   0  0  0  0  0  2  0  0  0  0  0  0
  161.1440  207.6190  151.3220 C   0  0  0  0  0  0  0  0  0  0  0  0
  161.8180  209.9490  151.0980 C   0  0  0  0  0  0  0  0  0  0  0  0
  162.1460  208.4500  149.1220 C   0  0  0  0  0  2  0  0  0  0  0  0
  160.9090  206.2160  150.8000 C   0  0  0  0  0  0  0  0  0  0  0  0
  161.9280  209.6960  148.2600 C   0  0  0  0  0  2  0  0  0  0  0  0
  162.3300  211.0600  150.2780 C   0  0  0  0  0  3  0  0  0  0  0  0
  160.8670  207.8460  152.6880 C   0  0  0  0  0  0  0  0  0  0  0  0
  161.2080  205.4520  153.2370 C   0  0  0  0  0  2  0  0  0  0  0  0
  159.4730  206.1070  150.3120 C   0  0  0  0  0  2  0  0  0  0  0  0
  161.5150  210.1680  152.4390 C   0  0  0  0  0  3  0  0  0  0  0  0
  161.0490  209.1290  153.2530 C   0  0  0  0  0  0  0  0  0  0  0  0
  162.4340  210.9330  148.9510 C   0  0  0  0  0  0  0  0  0  0  0  0
  161.6530  208.6720  150.5300 C   0  0  0  0  0  0  0  0  0  0  0  0
  160.3560  206.6930  153.5090 C   0  0  0  0  0  2  0  0  0  0  0  0
  160.3260  211.5720  155.5050 N   0  0  0  0  0  0  0  0  0  0  0  0
  161.1540  211.2650  156.6710 C   0  0  0  0  0  2  0  0  0  0  0  0
  160.7750  209.3920  154.6420 N   0  0  0  0  0  0  0  0  0  0  0  0
  162.3110  210.3470  156.2730 C   0  0  0  0  0  2  0  0  0  0  0  0
  159.7210  210.3300  155.0250 C   0  0  0  0  0  2  0  0  0  0  0  0
  161.7500  209.0610  155.6770 C   0  0  0  0  0  2  0  0  0  0  0  0
  159.2380  212.4120  155.9720 C   0  0  0  0  0  1  0  0  0  0  0  0
  162.4780  204.2750  151.4140 C   0  0  1  0  0  3  0  0  0  0  0  0
  163.5520  204.7700  152.1540 O   0  0  0  0  0  1  0  0  0  0  0  0
  162.3430  202.7760  151.6370 C   0  0  0  0  0  1  0  0  0  0  0  0
  163.0230  212.0410  148.1450 C   0  0  0  0  0  2  0  0  0  0  0  0
  161.3020  212.6060  146.5450 N   0  0  0  0  0  0  0  0  0  0  0  0
  161.9500  212.9310  147.6080 C   0  0  0  0  0  3  0  0  0  0  0  0
  159.5730  214.2340  147.0780 C   0  0  0  0  0  1  0  0  0  0  0  0
  160.2580  213.4380  145.9810 C   0  0  1  0  0  0  0  0  0  0  0  0
  160.8310  214.3380  145.0820 O   0  0  0  0  0  1  0  0  0  0  0  0
  157.8770  212.5810  145.9900 C   0  0  0  0  0  1  0  0  0  0  0  0
  159.2080  212.5930  145.2550 C   0  0  0  0  0  2  0  0  0  0  0  0
  1 24  1  6  0  0  0
  1 10  1  0  0  0  0
  2 11  1  0  0  0  0
  2  6  1  0  0  0  0
  3  9  1  0  0  0  0
  4 12  2  0  0  0  0
  5 15  1  0  0  0  0
  6  3  1  0  0  0  0
  6  1  1  0  0  0  0
  7 14  1  0  0  0  0
  7  5  1  0  0  0  0
  8  4  1  0  0  0  0
  9 13  2  0  0  0  0
  9 16  1  0  0  0  0
 10 16  1  0  0  0  0
 11  6  1  0  0  0  0
 12 13  1  0  0  0  0
 13 19  1  0  0  0  0
 14  8  2  0  0  0  0
 15  4  1  0  0  0  0
 15  3  2  0  0  0  0
 17 23  1  0  0  0  0
 17 18  1  0  0  0  0
 19 21  1  0  0  0  0
 19 22  1  0  0  0  0
 20 18  1  0  0  0  0
 21 17  1  0  0  0  0
 22 20  1  0  0  0  0
 24 26  1  1  0  0  0
 24 25  1  0  0  0  0
 27 14  1  0  0  0  0
 28 29  2  0  0  0  0
 29 27  1  0  0  0  0
 31 28  1  0  0  0  0
 31 30  1  1  0  0  0
 32 31  1  0  0  0  0
 34 31  1  0  0  0  0
 34 33  1  0  0  0  0
M  END
>  <MODEL>
8

>  <REMARK>
 VINA RESULT:      -4.1      3.104      6.457
  Name = 
  6 active torsions:
  status: ('A' for Active; 'I' for Inactive)
    1  A    between atoms: C_1  and  C_6
    2  A    between atoms: C_3  and  C_29
    3  A    between atoms: C_3  and  C_33
    4  A    between atoms: N_12  and  C_28
    5  A    between atoms: N_13  and  C_20
    6  A    between atoms: C_20  and  C_22
                            x       y       z     vdW  Elec       q    Type
                         _______ _______ _______ _____ _____    ______ ____

>  <TORSDO>
F 6

$$$$
