=
 OpenBabel11062408143D

 32 36  0  0  1  0  0  0  0  0999 V2000
  161.7230  206.1330  150.7220 C   0  0  2  0  0  3  0  0  0  0  0  0
  161.5720  207.9310  152.3530 C   0  0  2  0  0  3  0  0  0  0  0  0
  161.4520  204.6710  150.4490 C   0  0  0  0  0  2  0  0  0  0  0  0
  161.3790  206.5820  151.9120 C   0  0  1  0  0  3  0  0  0  0  0  0
  160.5170  207.9550  153.4180 C   0  0  1  0  0  3  0  0  0  0  0  0
  161.3270  208.8680  151.1910 C   0  0  2  0  0  3  0  0  0  0  0  0
  160.5960  210.9000  152.6080 C   0  0  0  0  0  0  0  0  0  0  0  0
  160.5940  205.8210  152.8840 C   0  0  2  0  0  3  0  0  0  0  0  0
  160.2620  210.3680  153.7570 N   0  0  0  0  0  0  0  0  0  0  0  0
  160.5050  206.6670  154.0140 O   0  0  0  0  0  0  0  0  0  0  0  0
  161.3200  204.5010  153.0960 C   0  0  0  0  0  2  0  0  0  0  0  0
  162.2100  208.5140  150.1340 O   0  0  0  0  0  0  0  0  0  0  0  0
  161.9220  207.2000  149.6460 C   0  0  1  0  0  3  0  0  0  0  0  0
  161.6230  210.2990  151.6610 C   0  0  1  0  0  3  0  0  0  0  0  0
  160.7220  209.1170  154.3760 C   0  0  2  0  0  3  0  0  0  0  0  0
  161.5720  203.7860  151.7330 C   0  0  0  0  0  2  0  0  0  0  0  0
  162.9140  210.4240  152.1790 O   0  0  0  0  0  1  0  0  0  0  0  0
  162.8050  206.8030  148.4490 C   0  0  2  0  0  3  0  0  0  0  0  0
  162.4490  207.4990  147.2660 O   0  0  0  0  0  0  0  0  0  0  0  0
  162.1950  206.1130  147.2580 C   0  0  2  0  0  0  0  0  0  0  0  0
  160.6840  205.7900  147.0470 C   0  0  0  0  0  0  0  0  0  0  0  0
  160.4640  204.2910  147.1380 C   0  0  0  0  0  1  0  0  0  0  0  0
  160.2530  206.2340  145.6590 C   0  0  0  0  0  1  0  0  0  0  0  0
  159.7480  206.4850  148.0230 C   0  0  0  0  0  1  0  0  0  0  0  0
  163.0710  205.6380  145.0640 O   0  0  0  0  0  1  0  0  0  0  0  0
  163.2070  205.3090  146.4130 C   0  0  2  0  0  3  0  0  0  0  0  0
  163.1240  203.7980  146.5850 C   0  0  0  0  0  1  0  0  0  0  0  0
  162.1070  209.2300  154.8200 N   0  0  0  0  0  2  0  0  0  0  0  0
  162.1230  210.1440  155.9500 C   0  0  0  0  0  1  0  0  0  0  0  0
  159.9730  212.1020  152.2530 O   0  0  0  0  0  0  0  0  0  0  0  0
  158.1640  213.2490  151.1470 C   0  0  0  0  0  1  0  0  0  0  0  0
  158.5610  212.2780  152.2440 C   0  0  0  0  0  2  0  0  0  0  0  0
  1  3  1  6  0  0  0
  1  4  1  0  0  0  0
  2  5  1  0  0  0  0
  3 16  1  0  0  0  0
  4  2  1  0  0  0  0
  4  8  1  0  0  0  0
  5 10  1  0  0  0  0
  5 15  1  0  0  0  0
  6 14  1  0  0  0  0
  6  2  1  0  0  0  0
  7  9  2  0  0  0  0
  8 11  1  0  0  0  0
  8 10  1  0  0  0  0
  9 15  1  0  0  0  0
 12  6  1  0  0  0  0
 13 12  1  0  0  0  0
 13  1  1  0  0  0  0
 14 17  1  0  0  0  0
 14  7  1  0  0  0  0
 15 28  1  0  0  0  0
 16 11  1  0  0  0  0
 18 13  1  0  0  0  0
 19 18  1  0  0  0  0
 20 19  1  0  0  0  0
 20 18  1  0  0  0  0
 21 22  1  0  0  0  0
 21 20  1  0  0  0  0
 21 24  1  0  0  0  0
 23 21  1  0  0  0  0
 25 26  1  0  0  0  0
 26 27  1  0  0  0  0
 26 20  1  0  0  0  0
 28 29  1  0  0  0  0
 30  7  1  0  0  0  0
 31 32  1  0  0  0  0
 32 30  1  0  0  0  0
M  END
>  <MODEL>
1

>  <REMARK>
 VINA RESULT:      -4.4      0.000      0.000
  Name = 
  6 active torsions:
  status: ('A' for Active; 'I' for Inactive)
    1  A    between atoms: C_3  and  C_22
    2  A    between atoms: O_11  and  C_12
    3  A    between atoms: O_11  and  C_31
    4  A    between atoms: N_13  and  C_29
    5  A    between atoms: C_15  and  C_22
    6  A    between atoms: C_16  and  C_27
                            x       y       z     vdW  Elec       q    Type
                         _______ _______ _______ _____ _____    ______ ____

>  <TORSDO>
F 6

$$$$
=
 OpenBabel11062408143D

 32 36  0  0  1  0  0  0  0  0999 V2000
  161.6640  207.8350  149.6580 C   0  0  2  0  0  3  0  0  0  0  0  0
  161.1440  208.9550  151.7540 C   0  0  2  0  0  3  0  0  0  0  0  0
  162.2310  207.9950  148.2660 C   0  0  0  0  0  2  0  0  0  0  0  0
  161.6550  208.9130  150.4160 C   0  0  1  0  0  3  0  0  0  0  0  0
  161.9200  210.1450  152.2350 C   0  0  1  0  0  3  0  0  0  0  0  0
  161.4780  207.6540  152.4490 C   0  0  2  0  0  3  0  0  0  0  0  0
  161.5240  208.6100  154.8480 C   0  0  0  0  0  0  0  0  0  0  0  0
  162.3240  210.1670  150.0720 C   0  0  2  0  0  3  0  0  0  0  0  0
  161.6810  209.8970  154.6610 N   0  0  0  0  0  0  0  0  0  0  0  0
  162.0160  211.0430  151.1390 O   0  0  0  0  0  0  0  0  0  0  0  0
  161.8020  210.5800  148.7030 C   0  0  0  0  0  2  0  0  0  0  0  0
  160.9230  206.5840  151.6920 O   0  0  0  0  0  0  0  0  0  0  0  0
  161.5300  206.5050  150.3990 C   0  0  1  0  0  3  0  0  0  0  0  0
  160.8490  207.6840  153.8480 C   0  0  1  0  0  3  0  0  0  0  0  0
  161.3140  210.7250  153.5040 C   0  0  2  0  0  3  0  0  0  0  0  0
  161.9820  209.4210  147.6740 C   0  0  0  0  0  2  0  0  0  0  0  0
  159.4720  207.9210  153.7990 O   0  0  0  0  0  1  0  0  0  0  0  0
  161.0120  205.3140  149.5710 C   0  0  2  0  0  3  0  0  0  0  0  0
  159.9150  204.6660  150.1930 O   0  0  0  0  0  0  0  0  0  0  0  0
  161.1050  203.9160  150.1220 C   0  0  2  0  0  0  0  0  0  0  0  0
  161.6320  203.5090  151.5330 C   0  0  0  0  0  0  0  0  0  0  0  0
  162.0590  202.0530  151.5180 C   0  0  0  0  0  1  0  0  0  0  0  0
  160.5190  203.6500  152.5570 C   0  0  0  0  0  1  0  0  0  0  0  0
  162.7870  204.3550  152.0440 C   0  0  0  0  0  1  0  0  0  0  0  0
  161.2080  203.3810  147.7760 O   0  0  0  0  0  1  0  0  0  0  0  0
  161.0720  202.8130  149.0420 C   0  0  2  0  0  3  0  0  0  0  0  0
  159.8350  201.9230  149.0770 C   0  0  0  0  0  1  0  0  0  0  0  0
  159.8660  210.8780  153.4060 N   0  0  0  0  0  2  0  0  0  0  0  0
  159.5880  212.3020  153.3380 C   0  0  0  0  0  1  0  0  0  0  0  0
  161.9970  208.0750  156.0510 O   0  0  0  0  0  0  0  0  0  0  0  0
  160.1990  206.9920  157.2360 C   0  0  0  0  0  1  0  0  0  0  0  0
  161.2480  208.0880  157.2600 C   0  0  0  0  0  2  0  0  0  0  0  0
  1  3  1  1  0  0  0
  1 13  1  0  0  0  0
  1  4  1  0  0  0  0
  2  5  1  0  0  0  0
  2  6  1  0  0  0  0
  4  2  1  0  0  0  0
  5 15  1  0  0  0  0
  6 14  1  0  0  0  0
  7 30  1  0  0  0  0
  8  4  1  0  0  0  0
  8 10  1  0  0  0  0
  9  7  2  0  0  0  0
 10  5  1  0  0  0  0
 11  8  1  0  0  0  0
 12  6  1  0  0  0  0
 13 12  1  0  0  0  0
 14  7  1  0  0  0  0
 15  9  1  0  0  0  0
 16  3  1  0  0  0  0
 16 11  1  0  0  0  0
 17 14  1  0  0  0  0
 18 20  1  0  0  0  0
 18 19  1  0  0  0  0
 18 13  1  0  0  0  0
 20 19  1  0  0  0  0
 20 21  1  0  0  0  0
 21 24  1  0  0  0  0
 21 23  1  0  0  0  0
 22 21  1  0  0  0  0
 25 26  1  0  0  0  0
 26 27  1  0  0  0  0
 26 20  1  0  0  0  0
 28 15  1  0  0  0  0
 29 28  1  0  0  0  0
 30 32  1  0  0  0  0
 31 32  1  0  0  0  0
M  END
>  <MODEL>
2

>  <REMARK>
 VINA RESULT:      -3.8      2.112      4.655
  Name = 
  6 active torsions:
  status: ('A' for Active; 'I' for Inactive)
    1  A    between atoms: C_3  and  C_22
    2  A    between atoms: O_11  and  C_12
    3  A    between atoms: O_11  and  C_31
    4  A    between atoms: N_13  and  C_29
    5  A    between atoms: C_15  and  C_22
    6  A    between atoms: C_16  and  C_27
                            x       y       z     vdW  Elec       q    Type
                         _______ _______ _______ _____ _____    ______ ____

>  <TORSDO>
F 6

$$$$
=
 OpenBabel11062408143D

 32 36  0  0  1  0  0  0  0  0999 V2000
  161.6430  208.7520  149.8870 C   0  0  2  0  0  3  0  0  0  0  0  0
  161.3930  208.7510  152.3060 C   0  0  2  0  0  3  0  0  0  0  0  0
  161.5830  207.9200  148.6270 C   0  0  0  0  0  2  0  0  0  0  0  0
  161.3710  208.1290  151.0160 C   0  0  1  0  0  3  0  0  0  0  0  0
  160.4760  207.7960  153.0120 C   0  0  1  0  0  3  0  0  0  0  0  0
  160.8660  210.1640  152.1810 C   0  0  2  0  0  3  0  0  0  0  0  0
  159.9840  210.3600  154.6000 C   0  0  0  0  0  0  0  0  0  0  0  0
  160.8360  206.7700  151.0980 C   0  0  2  0  0  3  0  0  0  0  0  0
  159.8760  209.1130  154.9890 N   0  0  0  0  0  0  0  0  0  0  0  0
  160.7430  206.5050  152.4840 O   0  0  0  0  0  0  0  0  0  0  0  0
  161.7860  205.8780  150.3130 C   0  0  0  0  0  2  0  0  0  0  0  0
  161.6680  210.8590  151.2330 O   0  0  0  0  0  0  0  0  0  0  0  0
  161.5420  210.2770  149.9330 C   0  0  1  0  0  3  0  0  0  0  0  0
  160.9790  210.8390  153.5540 C   0  0  1  0  0  3  0  0  0  0  0  0
  160.6000  207.9230  154.5220 C   0  0  2  0  0  3  0  0  0  0  0  0
  161.9920  206.4300  148.8680 C   0  0  0  0  0  2  0  0  0  0  0  0
  162.2840  210.8010  154.0520 O   0  0  0  0  0  1  0  0  0  0  0  0
  162.3340  211.0440  148.8580 C   0  0  2  0  0  3  0  0  0  0  0  0
  162.7340  212.3290  149.3030 O   0  0  0  0  0  0  0  0  0  0  0  0
  161.7750  212.3130  148.2710 C   0  0  2  0  0  0  0  0  0  0  0  0
  160.4480  213.0200  148.6860 C   0  0  0  0  0  0  0  0  0  0  0  0
  159.2690  212.3090  148.0470 C   0  0  0  0  0  1  0  0  0  0  0  0
  160.4490  214.4520  148.1790 C   0  0  0  0  0  1  0  0  0  0  0  0
  160.2190  213.1020  150.1860 C   0  0  0  0  0  1  0  0  0  0  0  0
  163.0470  213.8830  146.9590 O   0  0  0  0  0  1  0  0  0  0  0  0
  162.3570  212.6730  146.8870 C   0  0  2  0  0  3  0  0  0  0  0  0
  161.3340  212.7310  145.7600 C   0  0  0  0  0  1  0  0  0  0  0  0
  161.9900  207.9490  154.9630 N   0  0  0  0  0  2  0  0  0  0  0  0
  161.9830  208.2250  156.3900 C   0  0  0  0  0  1  0  0  0  0  0  0
  159.1380  211.2960  155.2060 O   0  0  0  0  0  0  0  0  0  0  0  0
  156.7340  211.1930  155.3470 C   0  0  0  0  0  1  0  0  0  0  0  0
  157.9330  211.7610  154.6110 C   0  0  0  0  0  2  0  0  0  0  0  0
  1  3  1  6  0  0  0
  1 13  1  0  0  0  0
  1  4  1  0  0  0  0
  2  5  1  0  0  0  0
  3 16  1  0  0  0  0
  4  8  1  0  0  0  0
  4  2  1  0  0  0  0
  5 15  1  0  0  0  0
  6  2  1  0  0  0  0
  6 14  1  0  0  0  0
  7  9  2  0  0  0  0
  7 30  1  0  0  0  0
  8 10  1  0  0  0  0
 10  5  1  0  0  0  0
 11  8  1  0  0  0  0
 12  6  1  0  0  0  0
 13 12  1  0  0  0  0
 14 17  1  0  0  0  0
 14  7  1  0  0  0  0
 15 28  1  0  0  0  0
 15  9  1  0  0  0  0
 16 11  1  0  0  0  0
 18 19  1  0  0  0  0
 18 13  1  0  0  0  0
 20 21  1  0  0  0  0
 20 18  1  0  0  0  0
 20 19  1  0  0  0  0
 21 24  1  0  0  0  0
 22 21  1  0  0  0  0
 23 21  1  0  0  0  0
 26 25  1  0  0  0  0
 26 20  1  0  0  0  0
 27 26  1  0  0  0  0
 28 29  1  0  0  0  0
 32 30  1  0  0  0  0
 32 31  1  0  0  0  0
M  END
>  <MODEL>
3

>  <REMARK>
 VINA RESULT:      -3.7      2.803      4.612
  Name = 
  6 active torsions:
  status: ('A' for Active; 'I' for Inactive)
    1  A    between atoms: C_3  and  C_22
    2  A    between atoms: O_11  and  C_12
    3  A    between atoms: O_11  and  C_31
    4  A    between atoms: N_13  and  C_29
    5  A    between atoms: C_15  and  C_22
    6  A    between atoms: C_16  and  C_27
                            x       y       z     vdW  Elec       q    Type
                         _______ _______ _______ _____ _____    ______ ____

>  <TORSDO>
F 6

$$$$
=
 OpenBabel11062408143D

 32 36  0  0  1  0  0  0  0  0999 V2000
  161.5730  206.2790  151.2560 C   0  0  2  0  0  3  0  0  0  0  0  0
  161.6020  208.4590  152.3330 C   0  0  2  0  0  3  0  0  0  0  0  0
  161.1740  204.8270  151.3910 C   0  0  0  0  0  2  0  0  0  0  0  0
  161.2880  207.0630  152.2760 C   0  0  1  0  0  3  0  0  0  0  0  0
  160.5690  208.8640  153.3430 C   0  0  1  0  0  3  0  0  0  0  0  0
  161.4180  209.0620  150.9570 C   0  0  2  0  0  3  0  0  0  0  0  0
  160.8860  211.4580  151.7590 C   0  0  0  0  0  0  0  0  0  0  0  0
  160.4560  206.6670  153.4120 C   0  0  2  0  0  3  0  0  0  0  0  0
  160.5270  211.2910  153.0080 N   0  0  0  0  0  0  0  0  0  0  0  0
  160.4580  207.7930  154.2680 O   0  0  0  0  0  0  0  0  0  0  0  0
  161.0710  205.3970  153.9830 C   0  0  0  0  0  2  0  0  0  0  0  0
  162.2510  208.3580  150.0440 O   0  0  0  0  0  0  0  0  0  0  0  0
  161.8440  206.9910  149.9310 C   0  0  1  0  0  3  0  0  0  0  0  0
  161.8430  210.5350  151.0210 C   0  0  1  0  0  3  0  0  0  0  0  0
  160.8890  210.2210  153.9480 C   0  0  2  0  0  3  0  0  0  0  0  0
  161.2390  204.3190  152.8680 C   0  0  0  0  0  2  0  0  0  0  0  0
  163.1480  210.6850  151.4950 O   0  0  0  0  0  1  0  0  0  0  0  0
  162.6720  206.2070  148.8950 C   0  0  2  0  0  3  0  0  0  0  0  0
  163.0690  207.0190  147.8030 O   0  0  0  0  0  0  0  0  0  0  0  0
  162.1390  206.0060  147.5010 C   0  0  2  0  0  0  0  0  0  0  0  0
  160.8070  206.5790  146.9270 C   0  0  0  0  0  0  0  0  0  0  0  0
  160.8310  208.0940  146.9940 C   0  0  0  0  0  1  0  0  0  0  0  0
  159.6360  206.1010  147.7690 C   0  0  0  0  0  1  0  0  0  0  0  0
  160.5010  206.1540  145.4990 C   0  0  0  0  0  1  0  0  0  0  0  0
  163.1290  205.1760  145.4680 O   0  0  0  0  0  1  0  0  0  0  0  0
  162.7610  204.8030  146.7600 C   0  0  2  0  0  3  0  0  0  0  0  0
  161.8780  203.5620  146.7050 C   0  0  0  0  0  1  0  0  0  0  0  0
  162.2850  210.3320  154.3550 N   0  0  0  0  0  2  0  0  0  0  0  0
  162.2970  210.5950  155.7840 C   0  0  0  0  0  1  0  0  0  0  0  0
  160.3620  212.5670  151.0850 O   0  0  0  0  0  0  0  0  0  0  0  0
  159.6550  213.7060  149.0810 C   0  0  0  0  0  1  0  0  0  0  0  0
  160.7740  212.9550  149.7800 C   0  0  0  0  0  2  0  0  0  0  0  0
  1  3  1  6  0  0  0
  1  4  1  0  0  0  0
  2  5  1  0  0  0  0
  3 16  1  0  0  0  0
  4  2  1  0  0  0  0
  4  8  1  0  0  0  0
  5 15  1  0  0  0  0
  5 10  1  0  0  0  0
  6 14  1  0  0  0  0
  6  2  1  0  0  0  0
  7  9  2  0  0  0  0
  8 11  1  0  0  0  0
  8 10  1  0  0  0  0
  9 15  1  0  0  0  0
 12  6  1  0  0  0  0
 13 12  1  0  0  0  0
 13  1  1  0  0  0  0
 14 17  1  0  0  0  0
 14  7  1  0  0  0  0
 15 28  1  0  0  0  0
 16 11  1  0  0  0  0
 18 13  1  0  0  0  0
 19 18  1  0  0  0  0
 20 19  1  0  0  0  0
 20 18  1  0  0  0  0
 21 22  1  0  0  0  0
 21 20  1  0  0  0  0
 21 23  1  0  0  0  0
 24 21  1  0  0  0  0
 25 26  1  0  0  0  0
 26 20  1  0  0  0  0
 27 26  1  0  0  0  0
 28 29  1  0  0  0  0
 30  7  1  0  0  0  0
 31 32  1  0  0  0  0
 32 30  1  0  0  0  0
M  END
>  <MODEL>
4

>  <REMARK>
 VINA RESULT:      -3.5      1.133      1.444
  Name = 
  6 active torsions:
  status: ('A' for Active; 'I' for Inactive)
    1  A    between atoms: C_3  and  C_22
    2  A    between atoms: O_11  and  C_12
    3  A    between atoms: O_11  and  C_31
    4  A    between atoms: N_13  and  C_29
    5  A    between atoms: C_15  and  C_22
    6  A    between atoms: C_16  and  C_27
                            x       y       z     vdW  Elec       q    Type
                         _______ _______ _______ _____ _____    ______ ____

>  <TORSDO>
F 6

$$$$
=
 OpenBabel11062408143D

 32 36  0  0  1  0  0  0  0  0999 V2000
  161.2280  209.5660  151.3100 C   0  0  2  0  0  3  0  0  0  0  0  0
  160.7640  209.7570  153.6900 C   0  0  2  0  0  3  0  0  0  0  0  0
  161.5400  208.6200  150.1720 C   0  0  0  0  0  2  0  0  0  0  0  0
  161.0520  209.0190  152.4960 C   0  0  1  0  0  3  0  0  0  0  0  0
  160.1170  208.6490  154.4670 C   0  0  1  0  0  3  0  0  0  0  0  0
  159.8510  210.9120  153.3460 C   0  0  2  0  0  3  0  0  0  0  0  0
  158.7280  211.0930  155.6650 C   0  0  0  0  0  0  0  0  0  0  0  0
  160.9460  207.5790  152.7320 C   0  0  2  0  0  3  0  0  0  0  0  0
  158.9640  209.9270  156.2120 N   0  0  0  0  0  0  0  0  0  0  0  0
  160.8080  207.4550  154.1340 O   0  0  0  0  0  0  0  0  0  0  0  0
  162.1910  206.9450  152.1270 C   0  0  0  0  0  2  0  0  0  0  0  0
  160.4900  211.7120  152.3580 O   0  0  0  0  0  0  0  0  0  0  0  0
  160.6680  210.9780  151.1440 C   0  0  1  0  0  3  0  0  0  0  0  0
  159.6250  211.7380  154.6200 C   0  0  1  0  0  3  0  0  0  0  0  0
  160.0540  208.9770  155.9500 C   0  0  2  0  0  3  0  0  0  0  0  0
  162.3540  207.3680  150.6350 C   0  0  0  0  0  2  0  0  0  0  0  0
  160.8290  212.1640  155.1890 O   0  0  0  0  0  1  0  0  0  0  0  0
  161.2890  211.8290  150.0200 C   0  0  2  0  0  3  0  0  0  0  0  0
  161.5730  213.1510  150.4440 O   0  0  0  0  0  0  0  0  0  0  0  0
  160.5500  213.0260  149.4840 C   0  0  2  0  0  0  0  0  0  0  0  0
  159.1850  213.5790  149.9980 C   0  0  0  0  0  0  0  0  0  0  0  0
  158.5530  214.4530  148.9310 C   0  0  0  0  0  1  0  0  0  0  0  0
  159.4120  214.4460  151.2260 C   0  0  0  0  0  1  0  0  0  0  0  0
  158.1870  212.5100  150.4140 C   0  0  0  0  0  1  0  0  0  0  0  0
  161.0960  212.3250  147.2450 O   0  0  0  0  0  1  0  0  0  0  0  0
  160.9860  213.4480  148.0640 C   0  0  2  0  0  3  0  0  0  0  0  0
  162.2770  214.2540  148.0070 C   0  0  0  0  0  1  0  0  0  0  0  0
  161.3240  209.4830  156.4600 N   0  0  0  0  0  2  0  0  0  0  0  0
  161.9560  208.3980  157.1920 C   0  0  0  0  0  1  0  0  0  0  0  0
  157.5860  211.7810  156.0920 O   0  0  0  0  0  0  0  0  0  0  0  0
  156.0530  212.8780  154.5890 C   0  0  0  0  0  1  0  0  0  0  0  0
  156.3190  211.6620  155.4570 C   0  0  0  0  0  2  0  0  0  0  0  0
  1  3  1  6  0  0  0
  1  4  1  0  0  0  0
  2  5  1  0  0  0  0
  3 16  1  0  0  0  0
  4  8  1  0  0  0  0
  4  2  1  0  0  0  0
  5 15  1  0  0  0  0
  6  2  1  0  0  0  0
  6 14  1  0  0  0  0
  7 30  1  0  0  0  0
  7  9  2  0  0  0  0
  8 10  1  0  0  0  0
 10  5  1  0  0  0  0
 11  8  1  0  0  0  0
 12  6  1  0  0  0  0
 13  1  1  0  0  0  0
 13 12  1  0  0  0  0
 14 17  1  0  0  0  0
 14  7  1  0  0  0  0
 15  9  1  0  0  0  0
 15 28  1  0  0  0  0
 16 11  1  0  0  0  0
 18 19  1  0  0  0  0
 18 13  1  0  0  0  0
 20 21  1  0  0  0  0
 20 18  1  0  0  0  0
 20 19  1  0  0  0  0
 21 24  1  0  0  0  0
 21 23  1  0  0  0  0
 22 21  1  0  0  0  0
 25 26  1  0  0  0  0
 26 20  1  0  0  0  0
 27 26  1  0  0  0  0
 28 29  1  0  0  0  0
 31 32  1  0  0  0  0
 32 30  1  0  0  0  0
M  END
>  <MODEL>
5

>  <REMARK>
 VINA RESULT:      -3.4      3.153      5.374
  Name = 
  6 active torsions:
  status: ('A' for Active; 'I' for Inactive)
    1  A    between atoms: C_3  and  C_22
    2  A    between atoms: O_11  and  C_12
    3  A    between atoms: O_11  and  C_31
    4  A    between atoms: N_13  and  C_29
    5  A    between atoms: C_15  and  C_22
    6  A    between atoms: C_16  and  C_27
                            x       y       z     vdW  Elec       q    Type
                         _______ _______ _______ _____ _____    ______ ____

>  <TORSDO>
F 6

$$$$
=
 OpenBabel11062408143D

 32 36  0  0  1  0  0  0  0  0999 V2000
  161.7310  208.8820  151.5030 C   0  0  2  0  0  3  0  0  0  0  0  0
  161.7620  206.8500  150.1680 C   0  0  2  0  0  3  0  0  0  0  0  0
  161.5830  210.3870  151.4820 C   0  0  0  0  0  2  0  0  0  0  0  0
  161.6340  208.2660  150.3430 C   0  0  1  0  0  3  0  0  0  0  0  0
  161.0000  206.7300  148.8820 C   0  0  1  0  0  3  0  0  0  0  0  0
  161.1300  206.1490  151.3500 C   0  0  2  0  0  3  0  0  0  0  0  0
  160.5210  203.9710  150.1040 C   0  0  0  0  0  0  0  0  0  0  0  0
  161.2060  208.9100  149.1020 C   0  0  2  0  0  3  0  0  0  0  0  0
  160.5430  204.3230  148.8430 N   0  0  0  0  0  0  0  0  0  0  0  0
  161.2910  207.8930  148.1220 O   0  0  0  0  0  0  0  0  0  0  0  0
  162.1180  210.1110  148.8950 C   0  0  0  0  0  2  0  0  0  0  0  0
  161.7670  206.6060  152.5370 O   0  0  0  0  0  0  0  0  0  0  0  0
  161.5320  208.0030  152.7370 C   0  0  1  0  0  3  0  0  0  0  0  0
  161.3540  204.6400  151.1870 C   0  0  1  0  0  3  0  0  0  0  0  0
  161.2880  205.4080  148.1890 C   0  0  2  0  0  3  0  0  0  0  0  0
  162.1170  211.0260  150.1580 C   0  0  0  0  0  2  0  0  0  0  0  0
  162.7070  204.3230  151.0440 O   0  0  0  0  0  1  0  0  0  0  0  0
  162.1420  208.5260  154.0520 C   0  0  2  0  0  3  0  0  0  0  0  0
  161.5840  207.8920  155.1900 O   0  0  0  0  0  0  0  0  0  0  0  0
  161.2780  209.2590  155.0440 C   0  0  2  0  0  0  0  0  0  0  0  0
  159.7430  209.5120  154.9280 C   0  0  0  0  0  0  0  0  0  0  0  0
  159.2780  210.3730  156.0870 C   0  0  0  0  0  1  0  0  0  0  0  0
  158.9970  208.1900  155.0110 C   0  0  0  0  0  1  0  0  0  0  0  0
  159.3070  210.1630  153.6250 C   0  0  0  0  0  1  0  0  0  0  0  0
  163.1250  210.7790  155.3330 O   0  0  0  0  0  1  0  0  0  0  0  0
  162.0670  210.1710  156.0080 C   0  0  2  0  0  3  0  0  0  0  0  0
  162.5870  209.4770  157.2610 C   0  0  0  0  0  1  0  0  0  0  0  0
  162.7150  205.1080  148.1390 N   0  0  0  0  0  2  0  0  0  0  0  0
  163.0460  204.8200  146.7540 C   0  0  0  0  0  1  0  0  0  0  0  0
  159.6890  202.9020  150.4560 O   0  0  0  0  0  0  0  0  0  0  0  0
  160.9980  200.9890  149.7910 C   0  0  0  0  0  1  0  0  0  0  0  0
  159.6450  201.6750  149.7360 C   0  0  0  0  0  2  0  0  0  0  0  0
  1  3  1  6  0  0  0
  1 13  1  0  0  0  0
  2  4  1  0  0  0  0
  2  6  1  0  0  0  0
  4  1  1  0  0  0  0
  5  2  1  0  0  0  0
  6 12  1  0  0  0  0
  7 30  1  0  0  0  0
  7 14  1  0  0  0  0
  8  4  1  0  0  0  0
  9  7  2  0  0  0  0
 10  5  1  0  0  0  0
 10  8  1  0  0  0  0
 11  8  1  0  0  0  0
 11 16  1  0  0  0  0
 12 13  1  0  0  0  0
 13 18  1  0  0  0  0
 14  6  1  0  0  0  0
 15  9  1  0  0  0  0
 15  5  1  0  0  0  0
 16  3  1  0  0  0  0
 17 14  1  0  0  0  0
 18 20  1  0  0  0  0
 18 19  1  0  0  0  0
 20 19  1  0  0  0  0
 20 26  1  0  0  0  0
 21 23  1  0  0  0  0
 21 20  1  0  0  0  0
 21 22  1  0  0  0  0
 24 21  1  0  0  0  0
 25 26  1  0  0  0  0
 26 27  1  0  0  0  0
 28 15  1  0  0  0  0
 29 28  1  0  0  0  0
 32 31  1  0  0  0  0
 32 30  1  0  0  0  0
M  END
>  <MODEL>
6

>  <REMARK>
 VINA RESULT:      -3.2      2.834      7.805
  Name = 
  6 active torsions:
  status: ('A' for Active; 'I' for Inactive)
    1  A    between atoms: C_3  and  C_22
    2  A    between atoms: O_11  and  C_12
    3  A    between atoms: O_11  and  C_31
    4  A    between atoms: N_13  and  C_29
    5  A    between atoms: C_15  and  C_22
    6  A    between atoms: C_16  and  C_27
                            x       y       z     vdW  Elec       q    Type
                         _______ _______ _______ _____ _____    ______ ____

>  <TORSDO>
F 6

$$$$
=
 OpenBabel11062408143D

 32 36  0  0  1  0  0  0  0  0999 V2000
  161.0740  205.2350  150.3660 C   0  0  2  0  0  3  0  0  0  0  0  0
  161.7590  207.5670  150.4370 C   0  0  2  0  0  3  0  0  0  0  0  0
  160.4740  204.0870  151.1460 C   0  0  0  0  0  2  0  0  0  0  0  0
  161.2000  206.3780  151.0080 C   0  0  1  0  0  3  0  0  0  0  0  0
  161.1050  208.5620  151.3480 C   0  0  1  0  0  3  0  0  0  0  0  0
  161.3400  207.6600  148.9860 C   0  0  2  0  0  3  0  0  0  0  0  0
  161.4580  210.2340  148.8150 C   0  0  0  0  0  0  0  0  0  0  0  0
  160.6290  206.6500  152.3270 C   0  0  2  0  0  3  0  0  0  0  0  0
  161.4060  210.6270  150.0630 N   0  0  0  0  0  0  0  0  0  0  0  0
  161.0470  207.9650  152.6350 O   0  0  0  0  0  0  0  0  0  0  0  0
  161.1360  205.5560  153.2560 C   0  0  0  0  0  2  0  0  0  0  0  0
  161.7750  206.4830  148.3160 O   0  0  0  0  0  0  0  0  0  0  0  0
  161.1200  205.3250  148.8410 C   0  0  1  0  0  3  0  0  0  0  0  0
  162.0180  208.8910  148.3710 C   0  0  1  0  0  3  0  0  0  0  0  0
  161.8010  209.9130  151.2850 C   0  0  2  0  0  3  0  0  0  0  0  0
  160.8220  204.1460  152.6690 C   0  0  0  0  0  2  0  0  0  0  0  0
  163.4070  208.8550  148.5200 O   0  0  0  0  0  1  0  0  0  0  0  0
  161.5050  204.0340  148.0940 C   0  0  2  0  0  3  0  0  0  0  0  0
  162.6760  204.1970  147.3120 O   0  0  0  0  0  0  0  0  0  0  0  0
  161.4840  203.9990  146.5890 C   0  0  2  0  0  0  0  0  0  0  0  0
  161.1630  205.1930  145.6380 C   0  0  0  0  0  0  0  0  0  0  0  0
  160.9040  204.6750  144.2360 C   0  0  0  0  0  1  0  0  0  0  0  0
  162.3590  206.1290  145.5680 C   0  0  0  0  0  1  0  0  0  0  0  0
  159.9830  206.0470  146.0730 C   0  0  0  0  0  1  0  0  0  0  0  0
  160.3330  202.5490  145.0470 O   0  0  0  0  0  1  0  0  0  0  0  0
  161.3540  202.5790  145.9970 C   0  0  2  0  0  3  0  0  0  0  0  0
  161.1340  201.4770  147.0250 C   0  0  0  0  0  1  0  0  0  0  0  0
  163.2520  209.7920  151.3750 N   0  0  0  0  0  2  0  0  0  0  0  0
  163.6690  210.4990  152.5740 C   0  0  0  0  0  1  0  0  0  0  0  0
  160.9840  211.1220  147.8430 O   0  0  0  0  0  0  0  0  0  0  0  0
  163.0030  212.4330  147.7240 C   0  0  0  0  0  1  0  0  0  0  0  0
  161.4860  212.4430  147.6780 C   0  0  0  0  0  2  0  0  0  0  0  0
  1  4  1  0  0  0  0
  1  3  1  6  0  0  0
  2  4  1  0  0  0  0
  2  5  1  0  0  0  0
  3 16  1  0  0  0  0
  4  8  1  0  0  0  0
  5 10  1  0  0  0  0
  6  2  1  0  0  0  0
  7  9  2  0  0  0  0
  8 10  1  0  0  0  0
  8 11  1  0  0  0  0
  9 15  1  0  0  0  0
 12 13  1  0  0  0  0
 12  6  1  0  0  0  0
 13  1  1  0  0  0  0
 14 17  1  0  0  0  0
 14  7  1  0  0  0  0
 14  6  1  0  0  0  0
 15  5  1  0  0  0  0
 15 28  1  0  0  0  0
 16 11  1  0  0  0  0
 18 13  1  0  0  0  0
 19 18  1  0  0  0  0
 20 19  1  0  0  0  0
 20 18  1  0  0  0  0
 21 24  1  0  0  0  0
 21 20  1  0  0  0  0
 22 21  1  0  0  0  0
 23 21  1  0  0  0  0
 25 26  1  0  0  0  0
 26 20  1  0  0  0  0
 26 27  1  0  0  0  0
 28 29  1  0  0  0  0
 30  7  1  0  0  0  0
 32 31  1  0  0  0  0
 32 30  1  0  0  0  0
M  END
>  <MODEL>
7

>  <REMARK>
 VINA RESULT:      -3.1      2.320      3.101
  Name = 
  6 active torsions:
  status: ('A' for Active; 'I' for Inactive)
    1  A    between atoms: C_3  and  C_22
    2  A    between atoms: O_11  and  C_12
    3  A    between atoms: O_11  and  C_31
    4  A    between atoms: N_13  and  C_29
    5  A    between atoms: C_15  and  C_22
    6  A    between atoms: C_16  and  C_27
                            x       y       z     vdW  Elec       q    Type
                         _______ _______ _______ _____ _____    ______ ____

>  <TORSDO>
F 6

$$$$
=
 OpenBabel11062408143D

 32 36  0  0  1  0  0  0  0  0999 V2000
  161.5460  209.8620  150.2950 C   0  0  2  0  0  3  0  0  0  0  0  0
  161.4230  207.5350  149.6000 C   0  0  2  0  0  3  0  0  0  0  0  0
  161.8700  210.8100  151.4270 C   0  0  0  0  0  2  0  0  0  0  0  0
  161.6950  208.5770  150.5440 C   0  0  1  0  0  3  0  0  0  0  0  0
  162.2990  206.4760  150.2000 C   0  0  1  0  0  3  0  0  0  0  0  0
  161.8380  207.9990  148.2210 C   0  0  2  0  0  3  0  0  0  0  0  0
  162.3190  205.6510  147.2580 C   0  0  0  0  0  0  0  0  0  0  0  0
  162.3270  208.0390  151.7490 C   0  0  2  0  0  3  0  0  0  0  0  0
  162.4740  204.9080  148.3250 N   0  0  0  0  0  0  0  0  0  0  0  0
  162.2300  206.6350  151.6090 O   0  0  0  0  0  0  0  0  0  0  0  0
  161.5890  208.6420  152.9350 C   0  0  0  0  0  2  0  0  0  0  0  0
  161.1340  209.1980  147.9200 O   0  0  0  0  0  0  0  0  0  0  0  0
  161.5070  210.2480  148.8160 C   0  0  1  0  0  3  0  0  0  0  0  0
  161.4580  206.9050  147.2140 C   0  0  1  0  0  3  0  0  0  0  0  0
  161.9350  205.0950  149.6790 C   0  0  2  0  0  3  0  0  0  0  0  0
  161.5600  210.1980  152.8320 C   0  0  0  0  0  2  0  0  0  0  0  0
  160.1000  206.5810  147.2780 O   0  0  0  0  0  1  0  0  0  0  0  0
  160.8250  211.5870  148.4810 C   0  0  2  0  0  3  0  0  0  0  0  0
  160.8670  211.8770  147.0940 O   0  0  0  0  0  0  0  0  0  0  0  0
  161.6340  212.7250  147.9160 C   0  0  2  0  0  0  0  0  0  0  0  0
  163.1490  212.6920  147.5490 C   0  0  0  0  0  0  0  0  0  0  0  0
  163.8670  213.8390  148.2360 C   0  0  0  0  0  1  0  0  0  0  0  0
  163.3190  212.8760  146.0510 C   0  0  0  0  0  1  0  0  0  0  0  0
  163.8550  211.3910  147.8980 C   0  0  0  0  0  1  0  0  0  0  0  0
  160.5470  214.2370  149.4440 O   0  0  0  0  0  1  0  0  0  0  0  0
  160.9950  214.1150  148.1290 C   0  0  2  0  0  3  0  0  0  0  0  0
  159.8640  214.4510  147.1660 C   0  0  0  0  0  1  0  0  0  0  0  0
  160.4970  204.8530  149.7090 N   0  0  0  0  0  2  0  0  0  0  0  0
  160.2770  203.6710  150.5250 C   0  0  0  0  0  1  0  0  0  0  0  0
  162.9780  205.2440  146.0920 O   0  0  0  0  0  0  0  0  0  0  0  0
  161.2030  203.8620  145.2260 C   0  0  0  0  0  1  0  0  0  0  0  0
  162.2980  204.8620  144.9030 C   0  0  0  0  0  2  0  0  0  0  0  0
  1  4  1  0  0  0  0
  1  3  1  1  0  0  0
  2  5  1  0  0  0  0
  2  4  1  0  0  0  0
  3 16  1  0  0  0  0
  4  8  1  0  0  0  0
  5 10  1  0  0  0  0
  6  2  1  0  0  0  0
  7  9  2  0  0  0  0
  8 11  1  0  0  0  0
  9 15  1  0  0  0  0
 10  8  1  0  0  0  0
 12  6  1  0  0  0  0
 12 13  1  0  0  0  0
 13  1  1  0  0  0  0
 14  7  1  0  0  0  0
 14 17  1  0  0  0  0
 14  6  1  0  0  0  0
 15 28  1  0  0  0  0
 15  5  1  0  0  0  0
 16 11  1  0  0  0  0
 18 13  1  0  0  0  0
 19 20  1  0  0  0  0
 19 18  1  0  0  0  0
 20 26  1  0  0  0  0
 20 18  1  0  0  0  0
 21 24  1  0  0  0  0
 21 20  1  0  0  0  0
 21 22  1  0  0  0  0
 23 21  1  0  0  0  0
 26 25  1  0  0  0  0
 27 26  1  0  0  0  0
 28 29  1  0  0  0  0
 30  7  1  0  0  0  0
 32 31  1  0  0  0  0
 32 30  1  0  0  0  0
M  END
>  <MODEL>
8

>  <REMARK>
 VINA RESULT:      -2.6      3.429      6.969
  Name = 
  6 active torsions:
  status: ('A' for Active; 'I' for Inactive)
    1  A    between atoms: C_3  and  C_22
    2  A    between atoms: O_11  and  C_12
    3  A    between atoms: O_11  and  C_31
    4  A    between atoms: N_13  and  C_29
    5  A    between atoms: C_15  and  C_22
    6  A    between atoms: C_16  and  C_27
                            x       y       z     vdW  Elec       q    Type
                         _______ _______ _______ _____ _____    ______ ____

>  <TORSDO>
F 6

$$$$
=
 OpenBabel11062408143D

 32 36  0  0  1  0  0  0  0  0999 V2000
  161.1540  210.9360  150.8000 C   0  0  2  0  0  3  0  0  0  0  0  0
  159.4340  212.3250  151.8120 C   0  0  2  0  0  3  0  0  0  0  0  0
  162.2180  210.8500  149.7300 C   0  0  0  0  0  2  0  0  0  0  0  0
  160.4850  212.0680  150.8730 C   0  0  1  0  0  3  0  0  0  0  0  0
  159.5160  213.8220  151.8110 C   0  0  1  0  0  3  0  0  0  0  0  0
  159.7800  211.6690  153.1300 C   0  0  2  0  0  3  0  0  0  0  0  0
  158.4440  213.2980  154.6240 C   0  0  0  0  0  0  0  0  0  0  0  0
  160.8340  213.2810  150.1340 C   0  0  2  0  0  3  0  0  0  0  0  0
  158.2820  214.3510  153.8610 N   0  0  0  0  0  0  0  0  0  0  0  0
  159.8320  214.2150  150.4840 O   0  0  0  0  0  0  0  0  0  0  0  0
  160.8990  212.8940  148.6640 C   0  0  0  0  0  2  0  0  0  0  0  0
  159.9730  210.2780  152.9030 O   0  0  0  0  0  0  0  0  0  0  0  0
  161.0950  210.0520  152.0450 C   0  0  1  0  0  3  0  0  0  0  0  0
  158.6050  211.8820  154.0930 C   0  0  1  0  0  3  0  0  0  0  0  0
  158.2580  214.4460  152.3950 C   0  0  2  0  0  3  0  0  0  0  0  0
  161.8600  211.6830  148.4560 C   0  0  0  0  0  2  0  0  0  0  0  0
  157.4010  211.4070  153.5650 O   0  0  0  0  0  1  0  0  0  0  0  0
  161.3880  208.5550  151.8320 C   0  0  2  0  0  3  0  0  0  0  0  0
  160.2780  207.7390  152.1660 O   0  0  0  0  0  0  0  0  0  0  0  0
  161.4010  207.6140  153.0070 C   0  0  2  0  0  0  0  0  0  0  0  0
  161.0730  207.9760  154.4880 C   0  0  0  0  0  0  0  0  0  0  0  0
  161.7840  209.2620  154.8690 C   0  0  0  0  0  1  0  0  0  0  0  0
  161.5820  206.8810  155.4100 C   0  0  0  0  0  1  0  0  0  0  0  0
  159.5900  208.1270  154.7890 C   0  0  0  0  0  1  0  0  0  0  0  0
  163.1020  206.5040  151.7120 O   0  0  0  0  0  1  0  0  0  0  0  0
  162.2080  206.3200  152.7660 C   0  0  2  0  0  3  0  0  0  0  0  0
  161.3610  205.0790  152.5100 C   0  0  0  0  0  1  0  0  0  0  0  0
  157.0410  213.8530  151.8510 N   0  0  0  0  0  2  0  0  0  0  0  0
  156.8180  214.4520  150.5460 C   0  0  0  0  0  1  0  0  0  0  0  0
  158.4510  213.5050  156.0080 O   0  0  0  0  0  0  0  0  0  0  0  0
  156.3560  212.7510  156.9320 C   0  0  0  0  0  1  0  0  0  0  0  0
  157.8660  212.6000  156.9370 C   0  0  0  0  0  2  0  0  0  0  0  0
  1  3  1  1  0  0  0
  1  4  1  0  0  0  0
  1 13  1  0  0  0  0
  2  6  1  0  0  0  0
  4  2  1  0  0  0  0
  5  2  1  0  0  0  0
  5 15  1  0  0  0  0
  6 14  1  0  0  0  0
  7 30  1  0  0  0  0
  8 10  1  0  0  0  0
  8  4  1  0  0  0  0
  9  7  2  0  0  0  0
 10  5  1  0  0  0  0
 11  8  1  0  0  0  0
 12  6  1  0  0  0  0
 13 12  1  0  0  0  0
 14  7  1  0  0  0  0
 15  9  1  0  0  0  0
 16 11  1  0  0  0  0
 16  3  1  0  0  0  0
 17 14  1  0  0  0  0
 18 13  1  0  0  0  0
 18 19  1  0  0  0  0
 18 20  1  0  0  0  0
 19 20  1  0  0  0  0
 20 21  1  0  0  0  0
 21 24  1  0  0  0  0
 21 22  1  0  0  0  0
 21 23  1  0  0  0  0
 25 26  1  0  0  0  0
 26 20  1  0  0  0  0
 27 26  1  0  0  0  0
 28 15  1  0  0  0  0
 29 28  1  0  0  0  0
 30 32  1  0  0  0  0
 31 32  1  0  0  0  0
M  END
>  <MODEL>
9

>  <REMARK>
 VINA RESULT:      -2.6      3.675      6.451
  Name = 
  6 active torsions:
  status: ('A' for Active; 'I' for Inactive)
    1  A    between atoms: C_3  and  C_22
    2  A    between atoms: O_11  and  C_12
    3  A    between atoms: O_11  and  C_31
    4  A    between atoms: N_13  and  C_29
    5  A    between atoms: C_15  and  C_22
    6  A    between atoms: C_16  and  C_27
                            x       y       z     vdW  Elec       q    Type
                         _______ _______ _______ _____ _____    ______ ____

>  <TORSDO>
F 6

$$$$
