=
 OpenBabel11052422383D

 31 34  0  0  1  0  0  0  0  0999 V2000
  161.1830  200.9680  149.0310 C   0  0  0  0  0  0  0  0  0  0  0  0
  161.4080  204.6340  148.4840 C   0  0  0  0  0  0  0  0  0  0  0  0
  161.5900  204.6850  146.9850 C   0  0  1  0  0  3  0  0  0  0  0  0
  160.5130  203.8700  144.8880 C   0  0  0  0  0  3  0  0  0  0  0  0
  161.3240  203.4000  149.1410 C   0  0  0  0  0  0  0  0  0  0  0  0
  160.5650  200.9220  150.3940 C   0  0  0  0  0  2  0  0  0  0  0  0
  160.2750  204.3350  146.2940 C   0  0  0  0  0  2  0  0  0  0  0  0
  161.0020  205.7520  150.6030 C   0  0  0  0  0  0  0  0  0  0  0  0
  161.3900  199.9010  148.3980 O   0  0  0  0  0  0  0  0  0  0  0  0
  161.7760  207.1950  147.2790 C   0  0  0  0  0  3  0  0  0  0  0  0
  161.0480  204.6440  143.9330 C   0  0  0  0  0  3  0  0  0  0  0  0
  160.9370  204.5350  151.2120 N   0  0  0  0  0  0  0  0  0  0  0  0
  161.2490  205.8230  149.2220 C   0  0  0  0  0  0  0  0  0  0  0  0
  161.4650  202.2000  148.4330 O   0  0  0  0  0  0  0  0  0  0  0  0
  161.4690  206.0670  144.1580 C   0  0  0  0  0  2  0  0  0  0  0  0
  161.0820  203.3730  150.5240 C   0  0  0  0  0  0  0  0  0  0  0  0
  161.0920  202.0660  151.2610 C   0  0  0  0  0  2  0  0  0  0  0  0
  161.3850  207.1260  148.5490 C   0  0  0  0  0  3  0  0  0  0  0  0
  162.0560  206.0040  146.5320 N   0  0  0  0  0  0  0  0  0  0  0  0
  162.5910  206.1500  145.1860 C   0  0  0  0  0  2  0  0  0  0  0  0
  160.5030  209.5190  152.5520 C   0  0  0  0  0  1  0  0  0  0  0  0
  161.2120  207.6220  155.5970 O   0  0  0  0  0  0  0  0  0  0  0  0
  161.4160  206.1080  153.4640 O   0  0  0  0  0  0  0  0  0  0  0  0
  161.0560  207.1020  152.7760 C   0  0  0  0  0  0  0  0  0  0  0  0
  160.9990  208.5930  154.8210 C   0  0  0  0  0  0  0  0  0  0  0  0
  160.8600  208.3870  153.3990 N   0  0  0  0  0  0  0  0  0  0  0  0
  160.8430  206.9580  151.3630 N   0  0  0  0  0  2  0  0  0  0  0  0
  160.9130  209.9650  155.4110 C   0  0  0  0  0  2  0  0  0  0  0  0
  162.2540  210.4040  155.8920 C   0  0  0  0  0  0  0  0  0  0  0  0
  163.1580  210.6840  155.0640 O   0  0  0  0  0  0  0  0  0  0  0  0
  162.4940  210.5380  157.2530 O   0  0  0  0  0  1  0  0  0  0  0  0
  1  6  1  0  0  0  0
  2  5  1  0  0  0  0
  2 13  2  0  0  0  0
  3  7  1  6  0  0  0
  3  2  1  0  0  0  0
  4  7  1  0  0  0  0
  5 16  2  0  0  0  0
  6 17  1  0  0  0  0
  8 12  2  0  0  0  0
  8 27  1  0  0  0  0
  9  1  2  0  0  0  0
 10 18  2  0  0  0  0
 11 15  1  0  0  0  0
 11  4  2  0  0  0  0
 13  8  1  0  0  0  0
 14  1  1  0  0  0  0
 14  5  1  0  0  0  0
 15 20  1  0  0  0  0
 16 12  1  0  0  0  0
 16 17  1  0  0  0  0
 18 13  1  0  0  0  0
 19  3  1  0  0  0  0
 19 10  1  0  0  0  0
 20 19  1  0  0  0  0
 21 26  1  0  0  0  0
 24 26  1  0  0  0  0
 24 23  2  0  0  0  0
 25 28  1  0  0  0  0
 25 22  2  0  0  0  0
 26 25  1  0  0  0  0
 27 24  1  0  0  0  0
 28 29  1  0  0  0  0
 29 31  1  0  0  0  0
 30 29  2  0  0  0  0
M  END
>  <MODEL>
1

>  <REMARK>
 VINA RESULT:      -7.2      0.000      0.000
  Name = 
  3 active torsions:
  status: ('A' for Active; 'I' for Inactive)
    1  A    between atoms: C_1  and  C_24
    2  A    between atoms: C_15  and  N_23
    3  A    between atoms: C_19  and  C_24
                            x       y       z     vdW  Elec       q    Type
                         _______ _______ _______ _____ _____    ______ ____

>  <TORSDO>
F 3

$$$$
=
 OpenBabel11052422383D

 31 34  0  0  1  0  0  0  0  0999 V2000
  161.4750  213.1770  149.0640 C   0  0  0  0  0  0  0  0  0  0  0  0
  160.8580  210.8800  151.9150 C   0  0  0  0  0  0  0  0  0  0  0  0
  160.3320  211.8470  152.9480 C   0  0  1  0  0  3  0  0  0  0  0  0
  158.5640  213.5840  153.2340 C   0  0  0  0  0  3  0  0  0  0  0  0
  161.2720  211.3460  150.6590 C   0  0  0  0  0  0  0  0  0  0  0  0
  161.5560  212.2050  147.9270 C   0  0  0  0  0  2  0  0  0  0  0  0
  158.9190  212.2850  152.5730 C   0  0  0  0  0  2  0  0  0  0  0  0
  161.2850  208.6060  151.1720 C   0  0  0  0  0  0  0  0  0  0  0  0
  161.5370  214.4140  148.8390 O   0  0  0  0  0  0  0  0  0  0  0  0
  160.2390  209.8480  154.5020 C   0  0  0  0  0  3  0  0  0  0  0  0
  158.4830  213.7410  154.5630 C   0  0  0  0  0  3  0  0  0  0  0  0
  161.6930  209.0940  149.9680 N   0  0  0  0  0  0  0  0  0  0  0  0
  160.8670  209.4950  152.1750 C   0  0  0  0  0  0  0  0  0  0  0  0
  161.2620  212.7150  150.3650 O   0  0  0  0  0  0  0  0  0  0  0  0
  158.7330  212.6330  155.5450 C   0  0  0  0  0  2  0  0  0  0  0  0
  161.6880  210.4230  149.6870 C   0  0  0  0  0  0  0  0  0  0  0  0
  162.2330  210.9100  148.3770 C   0  0  0  0  0  2  0  0  0  0  0  0
  160.4800  209.0000  153.5070 C   0  0  0  0  0  3  0  0  0  0  0  0
  160.3320  211.2640  154.2980 N   0  0  0  0  0  0  0  0  0  0  0  0
  160.1710  212.1350  155.4540 C   0  0  0  0  0  2  0  0  0  0  0  0
  161.4450  204.4840  152.2800 C   0  0  0  0  0  1  0  0  0  0  0  0
  160.7550  203.8850  148.7400 O   0  0  0  0  0  0  0  0  0  0  0  0
  161.0390  206.4460  149.2330 O   0  0  0  0  0  0  0  0  0  0  0  0
  161.1790  206.1520  150.4510 C   0  0  0  0  0  0  0  0  0  0  0  0
  161.0450  203.6750  149.9480 C   0  0  0  0  0  0  0  0  0  0  0  0
  161.2210  204.7730  150.8680 N   0  0  0  0  0  0  0  0  0  0  0  0
  161.3030  207.1940  151.4320 N   0  0  0  0  0  2  0  0  0  0  0  0
  161.2230  202.2600  150.3980 C   0  0  0  0  0  2  0  0  0  0  0  0
  160.5950  201.3250  149.4210 C   0  0  0  0  0  0  0  0  0  0  0  0
  159.3430  201.2230  149.3640 O   0  0  0  0  0  1  0  0  0  0  0  0
  161.3920  200.5930  148.5500 O   0  0  0  0  0  0  0  0  0  0  0  0
  1 14  1  0  0  0  0
  2 13  2  0  0  0  0
  2  3  1  0  0  0  0
  3  7  1  6  0  0  0
  3 19  1  0  0  0  0
  4 11  2  0  0  0  0
  5  2  1  0  0  0  0
  6 17  1  0  0  0  0
  6  1  1  0  0  0  0
  7  4  1  0  0  0  0
  8 27  1  0  0  0  0
  8 13  1  0  0  0  0
  9  1  2  0  0  0  0
 11 15  1  0  0  0  0
 12  8  2  0  0  0  0
 13 18  1  0  0  0  0
 14  5  1  0  0  0  0
 16 12  1  0  0  0  0
 16  5  2  0  0  0  0
 17 16  1  0  0  0  0
 18 10  2  0  0  0  0
 19 10  1  0  0  0  0
 19 20  1  0  0  0  0
 20 15  1  0  0  0  0
 22 25  2  0  0  0  0
 23 24  2  0  0  0  0
 24 26  1  0  0  0  0
 24 27  1  0  0  0  0
 25 28  1  0  0  0  0
 25 26  1  0  0  0  0
 26 21  1  0  0  0  0
 29 28  1  0  0  0  0
 30 29  1  0  0  0  0
 31 29  2  0  0  0  0
M  END
>  <MODEL>
2

>  <REMARK>
 VINA RESULT:      -7.0      3.454      9.321
  Name = 
  3 active torsions:
  status: ('A' for Active; 'I' for Inactive)
    1  A    between atoms: C_1  and  C_24
    2  A    between atoms: C_15  and  N_23
    3  A    between atoms: C_19  and  C_24
                            x       y       z     vdW  Elec       q    Type
                         _______ _______ _______ _____ _____    ______ ____

>  <TORSDO>
F 3

$$$$
=
 OpenBabel11052422383D

 31 34  0  0  1  0  0  0  0  0999 V2000
  161.7810  212.1990  149.2060 C   0  0  0  0  0  0  0  0  0  0  0  0
  161.3350  209.3730  151.5740 C   0  0  0  0  0  0  0  0  0  0  0  0
  161.1380  210.1210  152.8710 C   0  0  1  0  0  3  0  0  0  0  0  0
  159.7140  211.9130  153.8620 C   0  0  0  0  0  3  0  0  0  0  0  0
  161.5920  210.0760  150.3880 C   0  0  0  0  0  0  0  0  0  0  0  0
  161.5250  211.5160  147.8980 C   0  0  0  0  0  2  0  0  0  0  0  0
  159.7590  210.7760  152.8850 C   0  0  0  0  0  2  0  0  0  0  0  0
  161.2980  207.3050  150.2990 C   0  0  0  0  0  0  0  0  0  0  0  0
  161.9800  213.4410  149.2390 O   0  0  0  0  0  0  0  0  0  0  0  0
  161.0250  207.8340  153.9560 C   0  0  0  0  0  3  0  0  0  0  0  0
  159.8830  211.7620  155.1830 C   0  0  0  0  0  3  0  0  0  0  0  0
  161.5600  208.0170  149.1680 N   0  0  0  0  0  0  0  0  0  0  0  0
  161.1890  207.9730  151.5300 C   0  0  0  0  0  0  0  0  0  0  0  0
  161.7290  211.4690  150.3970 O   0  0  0  0  0  0  0  0  0  0  0  0
  160.1360  210.4360  155.8400 C   0  0  0  0  0  2  0  0  0  0  0  0
  161.6990  209.3680  149.1800 C   0  0  0  0  0  0  0  0  0  0  0  0
  162.0760  210.0900  147.9210 C   0  0  0  0  0  2  0  0  0  0  0  0
  160.9690  207.2210  152.7770 C   0  0  0  0  0  3  0  0  0  0  0  0
  161.2840  209.2410  154.0410 N   0  0  0  0  0  0  0  0  0  0  0  0
  161.4490  209.8290  155.3620 C   0  0  0  0  0  2  0  0  0  0  0  0
  160.8760  203.0600  150.5040 C   0  0  0  0  0  1  0  0  0  0  0  0
  161.3140  203.2100  146.8770 O   0  0  0  0  0  0  0  0  0  0  0  0
  161.5640  205.5840  147.9640 O   0  0  0  0  0  0  0  0  0  0  0  0
  161.2940  205.0560  149.0770 C   0  0  0  0  0  0  0  0  0  0  0  0
  161.1940  202.7470  148.0440 C   0  0  0  0  0  0  0  0  0  0  0  0
  161.1270  203.6290  149.1850 N   0  0  0  0  0  0  0  0  0  0  0  0
  161.1560  205.8780  150.2470 N   0  0  0  0  0  2  0  0  0  0  0  0
  161.1430  201.2620  148.2160 C   0  0  0  0  0  2  0  0  0  0  0  0
  161.0890  200.5910  146.8860 C   0  0  0  0  0  0  0  0  0  0  0  0
  161.6710  199.4890  146.7140 O   0  0  0  0  0  1  0  0  0  0  0  0
  160.3660  201.1640  145.8480 O   0  0  0  0  0  0  0  0  0  0  0  0
  1  9  2  0  0  0  0
  1 14  1  0  0  0  0
  2  3  1  0  0  0  0
  3  7  1  6  0  0  0
  3 19  1  0  0  0  0
  4 11  2  0  0  0  0
  5 14  1  0  0  0  0
  5  2  1  0  0  0  0
  6 17  1  0  0  0  0
  6  1  1  0  0  0  0
  7  4  1  0  0  0  0
  8 13  1  0  0  0  0
 10 19  1  0  0  0  0
 11 15  1  0  0  0  0
 12 16  1  0  0  0  0
 12  8  2  0  0  0  0
 13  2  2  0  0  0  0
 13 18  1  0  0  0  0
 16  5  2  0  0  0  0
 17 16  1  0  0  0  0
 18 10  2  0  0  0  0
 19 20  1  0  0  0  0
 20 15  1  0  0  0  0
 22 25  2  0  0  0  0
 23 24  2  0  0  0  0
 24 26  1  0  0  0  0
 24 27  1  0  0  0  0
 25 28  1  0  0  0  0
 25 26  1  0  0  0  0
 26 21  1  0  0  0  0
 27  8  1  0  0  0  0
 29 28  1  0  0  0  0
 30 29  1  0  0  0  0
 31 29  2  0  0  0  0
M  END
>  <MODEL>
3

>  <REMARK>
 VINA RESULT:      -6.9      3.026      9.267
  Name = 
  3 active torsions:
  status: ('A' for Active; 'I' for Inactive)
    1  A    between atoms: C_1  and  C_24
    2  A    between atoms: C_15  and  N_23
    3  A    between atoms: C_19  and  C_24
                            x       y       z     vdW  Elec       q    Type
                         _______ _______ _______ _____ _____    ______ ____

>  <TORSDO>
F 3

$$$$
=
 OpenBabel11052422383D

 31 34  0  0  1  0  0  0  0  0999 V2000
  161.4650  206.3770  152.7390 C   0  0  0  0  0  0  0  0  0  0  0  0
  160.6690  209.9490  152.1120 C   0  0  0  0  0  0  0  0  0  0  0  0
  159.8770  210.2840  153.3540 C   0  0  1  0  0  3  0  0  0  0  0  0
  160.0600  210.1780  155.8400 C   0  0  0  0  0  3  0  0  0  0  0  0
  161.1420  208.6460  151.9090 C   0  0  0  0  0  0  0  0  0  0  0  0
  162.5950  206.1650  151.7800 C   0  0  0  0  0  2  0  0  0  0  0  0
  160.8140  210.3670  154.5560 C   0  0  0  0  0  2  0  0  0  0  0  0
  161.8070  210.6420  150.0800 C   0  0  0  0  0  0  0  0  0  0  0  0
  161.1200  205.4520  153.5200 O   0  0  0  0  0  0  0  0  0  0  0  0
  159.5830  212.5790  152.3220 C   0  0  0  0  0  3  0  0  0  0  0  0
  159.1030  211.0140  156.2660 C   0  0  0  0  0  3  0  0  0  0  0  0
  162.2390  209.3630  149.9060 N   0  0  0  0  0  0  0  0  0  0  0  0
  161.0030  210.9580  151.1870 C   0  0  0  0  0  0  0  0  0  0  0  0
  160.8390  207.6240  152.8170 O   0  0  0  0  0  0  0  0  0  0  0  0
  158.6750  212.2390  155.5110 C   0  0  0  0  0  2  0  0  0  0  0  0
  161.9380  208.3720  150.7850 C   0  0  0  0  0  0  0  0  0  0  0  0
  162.3650  206.9630  150.4960 C   0  0  0  0  0  2  0  0  0  0  0  0
  160.4700  212.3190  151.3660 C   0  0  0  0  0  3  0  0  0  0  0  0
  159.1370  211.5470  153.2100 N   0  0  0  0  0  0  0  0  0  0  0  0
  158.0790  211.8670  154.1580 C   0  0  0  0  0  2  0  0  0  0  0  0
  163.0340  213.8200  147.5040 C   0  0  0  0  0  1  0  0  0  0  0  0
  160.4870  212.4830  145.2480 O   0  0  0  0  0  0  0  0  0  0  0  0
  160.5110  211.1880  147.5280 O   0  0  0  0  0  0  0  0  0  0  0  0
  161.4860  211.9070  147.8780 C   0  0  0  0  0  0  0  0  0  0  0  0
  161.3660  213.2460  145.7330 C   0  0  0  0  0  0  0  0  0  0  0  0
  161.9420  212.9790  147.0290 N   0  0  0  0  0  0  0  0  0  0  0  0
  162.1460  211.6630  149.1290 N   0  0  0  0  0  2  0  0  0  0  0  0
  161.7800  214.4440  144.9400 C   0  0  0  0  0  2  0  0  0  0  0  0
  162.5090  214.0230  143.7100 C   0  0  0  0  0  0  0  0  0  0  0  0
  163.7380  213.7660  143.7650 O   0  0  0  0  0  1  0  0  0  0  0  0
  161.8230  213.8800  142.5110 O   0  0  0  0  0  0  0  0  0  0  0  0
  1 14  1  0  0  0  0
  1  9  2  0  0  0  0
  2  3  1  0  0  0  0
  3  7  1  1  0  0  0
  4 11  2  0  0  0  0
  5  2  1  0  0  0  0
  5 14  1  0  0  0  0
  6  1  1  0  0  0  0
  7  4  1  0  0  0  0
  8 13  1  0  0  0  0
 10 19  1  0  0  0  0
 12  8  2  0  0  0  0
 12 16  1  0  0  0  0
 13 18  1  0  0  0  0
 13  2  2  0  0  0  0
 15 11  1  0  0  0  0
 16  5  2  0  0  0  0
 17 16  1  0  0  0  0
 17  6  1  0  0  0  0
 18 10  2  0  0  0  0
 19  3  1  0  0  0  0
 19 20  1  0  0  0  0
 20 15  1  0  0  0  0
 22 25  2  0  0  0  0
 23 24  2  0  0  0  0
 24 27  1  0  0  0  0
 25 26  1  0  0  0  0
 26 21  1  0  0  0  0
 26 24  1  0  0  0  0
 27  8  1  0  0  0  0
 28 25  1  0  0  0  0
 29 30  1  0  0  0  0
 29 28  1  0  0  0  0
 31 29  2  0  0  0  0
M  END
>  <MODEL>
4

>  <REMARK>
 VINA RESULT:      -6.7      5.347      9.091
  Name = 
  3 active torsions:
  status: ('A' for Active; 'I' for Inactive)
    1  A    between atoms: C_1  and  C_24
    2  A    between atoms: C_15  and  N_23
    3  A    between atoms: C_19  and  C_24
                            x       y       z     vdW  Elec       q    Type
                         _______ _______ _______ _____ _____    ______ ____

>  <TORSDO>
F 3

$$$$
=
 OpenBabel11052422383D

 31 34  0  0  1  0  0  0  0  0999 V2000
  160.5880  204.2970  150.3430 C   0  0  0  0  0  0  0  0  0  0  0  0
  161.1220  207.8620  151.2330 C   0  0  0  0  0  0  0  0  0  0  0  0
  160.8250  207.8310  152.7130 C   0  0  1  0  0  3  0  0  0  0  0  0
  161.5100  206.6270  154.7880 C   0  0  0  0  0  3  0  0  0  0  0  0
  160.9920  206.6980  150.4640 C   0  0  0  0  0  0  0  0  0  0  0  0
  161.2980  204.2230  149.0260 C   0  0  0  0  0  2  0  0  0  0  0  0
  161.9660  207.1380  153.4530 C   0  0  0  0  0  2  0  0  0  0  0  0
  161.9460  209.0270  149.2660 C   0  0  0  0  0  0  0  0  0  0  0  0
  160.0980  203.2560  150.8530 O   0  0  0  0  0  0  0  0  0  0  0  0
  161.2190  210.3330  152.6560 C   0  0  0  0  0  3  0  0  0  0  0  0
  161.0760  207.4210  155.7760 C   0  0  0  0  0  3  0  0  0  0  0  0
  161.7970  207.8810  148.5450 N   0  0  0  0  0  0  0  0  0  0  0  0
  161.6010  209.0410  150.6270 C   0  0  0  0  0  0  0  0  0  0  0  0
  160.5300  205.5080  151.0390 O   0  0  0  0  0  0  0  0  0  0  0  0
  160.9980  208.9160  155.6650 C   0  0  0  0  0  2  0  0  0  0  0  0
  161.3420  206.7300  149.1040 C   0  0  0  0  0  0  0  0  0  0  0  0
  161.1110  205.5230  148.2430 C   0  0  0  0  0  2  0  0  0  0  0  0
  161.6940  210.2810  151.4150 C   0  0  0  0  0  3  0  0  0  0  0  0
  160.6210  209.1800  153.2620 N   0  0  0  0  0  0  0  0  0  0  0  0
  160.0150  209.3330  154.5770 C   0  0  0  0  0  2  0  0  0  0  0  0
  163.6820  212.5610  147.6120 C   0  0  0  0  0  1  0  0  0  0  0  0
  160.4640  212.9040  145.9110 O   0  0  0  0  0  0  0  0  0  0  0  0
  160.4670  210.8440  147.5350 O   0  0  0  0  0  0  0  0  0  0  0  0
  161.6740  211.1010  147.7910 C   0  0  0  0  0  0  0  0  0  0  0  0
  161.6220  213.1690  146.3310 C   0  0  0  0  0  0  0  0  0  0  0  0
  162.3020  212.2750  147.2390 N   0  0  0  0  0  0  0  0  0  0  0  0
  162.4310  210.2240  148.6400 N   0  0  0  0  0  2  0  0  0  0  0  0
  162.2640  214.4430  145.8820 C   0  0  0  0  0  2  0  0  0  0  0  0
  162.6410  214.3510  144.4430 C   0  0  0  0  0  0  0  0  0  0  0  0
  163.8490  214.2360  144.1150 O   0  0  0  0  0  1  0  0  0  0  0  0
  161.6540  214.3590  143.4660 O   0  0  0  0  0  0  0  0  0  0  0  0
  1  9  2  0  0  0  0
  1 14  1  0  0  0  0
  2  3  1  0  0  0  0
  3 19  1  0  0  0  0
  3  7  1  1  0  0  0
  4 11  2  0  0  0  0
  5 14  1  0  0  0  0
  5  2  1  0  0  0  0
  6  1  1  0  0  0  0
  7  4  1  0  0  0  0
  8 13  1  0  0  0  0
 10 19  1  0  0  0  0
 12 16  1  0  0  0  0
 12  8  2  0  0  0  0
 13  2  2  0  0  0  0
 13 18  1  0  0  0  0
 15 11  1  0  0  0  0
 16  5  2  0  0  0  0
 17  6  1  0  0  0  0
 17 16  1  0  0  0  0
 18 10  2  0  0  0  0
 19 20  1  0  0  0  0
 20 15  1  0  0  0  0
 22 25  2  0  0  0  0
 23 24  2  0  0  0  0
 24 27  1  0  0  0  0
 25 26  1  0  0  0  0
 26 21  1  0  0  0  0
 26 24  1  0  0  0  0
 27  8  1  0  0  0  0
 28 25  1  0  0  0  0
 29 28  1  0  0  0  0
 30 29  1  0  0  0  0
 31 29  2  0  0  0  0
M  END
>  <MODEL>
5

>  <REMARK>
 VINA RESULT:      -6.5      4.930      7.885
  Name = 
  3 active torsions:
  status: ('A' for Active; 'I' for Inactive)
    1  A    between atoms: C_1  and  C_24
    2  A    between atoms: C_15  and  N_23
    3  A    between atoms: C_19  and  C_24
                            x       y       z     vdW  Elec       q    Type
                         _______ _______ _______ _____ _____    ______ ____

>  <TORSDO>
F 3

$$$$
=
 OpenBabel11052422383D

 31 34  0  0  1  0  0  0  0  0999 V2000
  161.0460  213.3070  149.9190 C   0  0  0  0  0  0  0  0  0  0  0  0
  161.4250  209.7810  151.0180 C   0  0  0  0  0  0  0  0  0  0  0  0
  161.0760  209.9030  152.4830 C   0  0  1  0  0  3  0  0  0  0  0  0
  159.2600  210.7590  153.9630 C   0  0  0  0  0  3  0  0  0  0  0  0
  161.4550  210.9210  150.2040 C   0  0  0  0  0  0  0  0  0  0  0  0
  160.9410  213.1330  148.4350 C   0  0  0  0  0  2  0  0  0  0  0  0
  159.5750  210.1310  152.6380 C   0  0  0  0  0  2  0  0  0  0  0  0
  161.8970  208.4160  149.0640 C   0  0  0  0  0  0  0  0  0  0  0  0
  160.9120  214.4500  150.4290 O   0  0  0  0  0  0  0  0  0  0  0  0
  161.5990  207.4280  152.6220 C   0  0  0  0  0  3  0  0  0  0  0  0
  159.5020  210.1660  155.1400 C   0  0  0  0  0  3  0  0  0  0  0  0
  161.9300  209.5460  148.3040 N   0  0  0  0  0  0  0  0  0  0  0  0
  161.6510  208.5150  150.4440 C   0  0  0  0  0  0  0  0  0  0  0  0
  161.2210  212.1920  150.7430 O   0  0  0  0  0  0  0  0  0  0  0  0
  160.1120  208.8000  155.2710 C   0  0  0  0  0  2  0  0  0  0  0  0
  161.7090  210.7780  148.8310 C   0  0  0  0  0  0  0  0  0  0  0  0
  161.8480  211.9950  147.9640 C   0  0  0  0  0  2  0  0  0  0  0  0
  161.6720  207.3170  151.2990 C   0  0  0  0  0  3  0  0  0  0  0  0
  161.4820  208.7130  153.2460 N   0  0  0  0  0  0  0  0  0  0  0  0
  161.5250  208.7760  154.7000 C   0  0  0  0  0  2  0  0  0  0  0  0
  162.8980  204.5680  147.5060 C   0  0  0  0  0  1  0  0  0  0  0  0
  160.1020  205.1690  145.2280 O   0  0  0  0  0  0  0  0  0  0  0  0
  160.5370  207.2470  146.7680 O   0  0  0  0  0  0  0  0  0  0  0  0
  161.4450  206.5820  147.3370 C   0  0  0  0  0  0  0  0  0  0  0  0
  161.1140  204.6340  145.7550 C   0  0  0  0  0  0  0  0  0  0  0  0
  161.8010  205.2730  146.8520 N   0  0  0  0  0  0  0  0  0  0  0  0
  162.1330  207.1310  148.4710 N   0  0  0  0  0  2  0  0  0  0  0  0
  161.5970  203.3310  145.2000 C   0  0  0  0  0  2  0  0  0  0  0  0
  160.7930  202.2050  145.7530 C   0  0  0  0  0  0  0  0  0  0  0  0
  160.8720  201.9160  146.9740 O   0  0  0  0  0  1  0  0  0  0  0  0
  159.9290  201.4980  144.9270 O   0  0  0  0  0  0  0  0  0  0  0  0
  1  9  2  0  0  0  0
  1 14  1  0  0  0  0
  2  3  1  0  0  0  0
  3  7  1  6  0  0  0
  3 19  1  0  0  0  0
  4 11  2  0  0  0  0
  5 14  1  0  0  0  0
  5  2  1  0  0  0  0
  6  1  1  0  0  0  0
  7  4  1  0  0  0  0
  8 13  1  0  0  0  0
 10 19  1  0  0  0  0
 11 15  1  0  0  0  0
 12 16  1  0  0  0  0
 12  8  2  0  0  0  0
 13  2  2  0  0  0  0
 13 18  1  0  0  0  0
 16  5  2  0  0  0  0
 17  6  1  0  0  0  0
 17 16  1  0  0  0  0
 18 10  2  0  0  0  0
 19 20  1  0  0  0  0
 20 15  1  0  0  0  0
 22 25  2  0  0  0  0
 23 24  2  0  0  0  0
 24 27  1  0  0  0  0
 25 26  1  0  0  0  0
 26 24  1  0  0  0  0
 26 21  1  0  0  0  0
 27  8  1  0  0  0  0
 28 29  1  0  0  0  0
 28 25  1  0  0  0  0
 29 30  1  0  0  0  0
 31 29  2  0  0  0  0
M  END
>  <MODEL>
6

>  <REMARK>
 VINA RESULT:      -5.7      3.167      9.503
  Name = 
  3 active torsions:
  status: ('A' for Active; 'I' for Inactive)
    1  A    between atoms: C_1  and  C_24
    2  A    between atoms: C_15  and  N_23
    3  A    between atoms: C_19  and  C_24
                            x       y       z     vdW  Elec       q    Type
                         _______ _______ _______ _____ _____    ______ ____

>  <TORSDO>
F 3

$$$$
=
 OpenBabel11052422383D

 31 34  0  0  1  0  0  0  0  0999 V2000
  160.6850  208.3820  138.0620 C   0  0  0  0  0  0  0  0  0  0  0  0
  159.4990  211.5420  139.6110 C   0  0  0  0  0  0  0  0  0  0  0  0
  158.3240  211.8680  138.7200 C   0  0  1  0  0  3  0  0  0  0  0  0
  156.2200  210.8430  137.8560 C   0  0  0  0  0  3  0  0  0  0  0  0
  160.2900  210.4150  139.3480 C   0  0  0  0  0  0  0  0  0  0  0  0
  161.5290  207.8240  139.1670 C   0  0  0  0  0  2  0  0  0  0  0  0
  157.1720  210.9120  139.0140 C   0  0  0  0  0  2  0  0  0  0  0  0
  160.8130  211.9550  141.6120 C   0  0  0  0  0  0  0  0  0  0  0  0
  160.5030  207.7150  137.0110 O   0  0  0  0  0  0  0  0  0  0  0  0
  158.0870  213.9690  140.1170 C   0  0  0  0  0  3  0  0  0  0  0  0
  155.5100  211.8920  137.4180 C   0  0  0  0  0  3  0  0  0  0  0  0
  161.5700  210.8610  141.3210 N   0  0  0  0  0  0  0  0  0  0  0  0
  159.7640  212.3220  140.7540 C   0  0  0  0  0  0  0  0  0  0  0  0
  160.0430  209.6130  138.2280 O   0  0  0  0  0  0  0  0  0  0  0  0
  155.5810  213.2580  138.0370 C   0  0  0  0  0  2  0  0  0  0  0  0
  161.3320  210.0870  140.2290 C   0  0  0  0  0  0  0  0  0  0  0  0
  162.2540  208.9480  139.9080 C   0  0  0  0  0  2  0  0  0  0  0  0
  158.9700  213.5350  141.0110 C   0  0  0  0  0  3  0  0  0  0  0  0
  157.8740  213.2590  138.8910 N   0  0  0  0  0  0  0  0  0  0  0  0
  156.9800  213.8470  137.9040 C   0  0  0  0  0  2  0  0  0  0  0  0
  161.9290  214.4520  144.8920 C   0  0  0  0  0  1  0  0  0  0  0  0
  159.3190  212.6290  146.6910 O   0  0  0  0  0  0  0  0  0  0  0  0
  159.6350  211.6880  144.2630 O   0  0  0  0  0  0  0  0  0  0  0  0
  160.4950  212.5900  144.0710 C   0  0  0  0  0  0  0  0  0  0  0  0
  160.2870  213.4030  146.4590 C   0  0  0  0  0  0  0  0  0  0  0  0
  160.8870  213.4640  145.1480 N   0  0  0  0  0  0  0  0  0  0  0  0
  161.0940  212.7470  142.7760 N   0  0  0  0  0  2  0  0  0  0  0  0
  160.8100  214.2400  147.5840 C   0  0  0  0  0  2  0  0  0  0  0  0
  161.2410  213.3720  148.7160 C   0  0  0  0  0  0  0  0  0  0  0  0
  162.3100  212.7160  148.6330 O   0  0  0  0  0  0  0  0  0  0  0  0
  160.4800  213.3150  149.8760 O   0  0  0  0  0  1  0  0  0  0  0  0
  1 14  1  0  0  0  0
  1  6  1  0  0  0  0
  2 13  2  0  0  0  0
  3 19  1  0  0  0  0
  3  7  1  1  0  0  0
  3  2  1  0  0  0  0
  4  7  1  0  0  0  0
  5  2  1  0  0  0  0
  5 16  2  0  0  0  0
  6 17  1  0  0  0  0
  8 27  1  0  0  0  0
  9  1  2  0  0  0  0
 10 18  2  0  0  0  0
 11  4  2  0  0  0  0
 11 15  1  0  0  0  0
 12  8  2  0  0  0  0
 13 18  1  0  0  0  0
 13  8  1  0  0  0  0
 14  5  1  0  0  0  0
 16 12  1  0  0  0  0
 17 16  1  0  0  0  0
 19 10  1  0  0  0  0
 20 15  1  0  0  0  0
 20 19  1  0  0  0  0
 21 26  1  0  0  0  0
 24 23  2  0  0  0  0
 24 26  1  0  0  0  0
 25 22  2  0  0  0  0
 25 28  1  0  0  0  0
 26 25  1  0  0  0  0
 27 24  1  0  0  0  0
 28 29  1  0  0  0  0
 29 31  1  0  0  0  0
 30 29  2  0  0  0  0
M  END
>  <MODEL>
7

>  <REMARK>
 VINA RESULT:      -5.6      8.629     10.979
  Name = 
  3 active torsions:
  status: ('A' for Active; 'I' for Inactive)
    1  A    between atoms: C_1  and  C_24
    2  A    between atoms: C_15  and  N_23
    3  A    between atoms: C_19  and  C_24
                            x       y       z     vdW  Elec       q    Type
                         _______ _______ _______ _____ _____    ______ ____

>  <TORSDO>
F 3

$$$$
=
 OpenBabel11052422383D

 31 34  0  0  1  0  0  0  0  0999 V2000
  161.1890  206.2030  146.3040 C   0  0  0  0  0  0  0  0  0  0  0  0
  160.8280  204.7510  149.7020 C   0  0  0  0  0  0  0  0  0  0  0  0
  160.6500  203.2890  149.3670 C   0  0  1  0  0  3  0  0  0  0  0  0
  161.7640  201.4580  148.0900 C   0  0  0  0  0  3  0  0  0  0  0  0
  160.9570  205.6980  148.6780 C   0  0  0  0  0  0  0  0  0  0  0  0
  161.8030  207.5300  146.6260 C   0  0  0  0  0  2  0  0  0  0  0  0
  161.9800  202.7010  148.9030 C   0  0  0  0  0  2  0  0  0  0  0  0
  161.1850  206.5170  151.3330 C   0  0  0  0  0  0  0  0  0  0  0  0
  161.0240  205.8610  145.1050 O   0  0  0  0  0  0  0  0  0  0  0  0
  160.3690  202.9420  151.8610 C   0  0  0  0  0  3  0  0  0  0  0  0
  161.2040  200.3420  148.5770 C   0  0  0  0  0  3  0  0  0  0  0  0
  161.2930  207.4130  150.3130 N   0  0  0  0  0  0  0  0  0  0  0  0
  160.9400  205.1640  151.0440 C   0  0  0  0  0  0  0  0  0  0  0  0
  160.8630  205.3160  147.3340 O   0  0  0  0  0  0  0  0  0  0  0  0
  160.7290  200.2040  149.9950 C   0  0  0  0  0  2  0  0  0  0  0  0
  161.1950  207.0410  149.0100 C   0  0  0  0  0  0  0  0  0  0  0  0
  161.2310  208.0840  147.9320 C   0  0  0  0  0  2  0  0  0  0  0  0
  160.7570  204.1850  152.1290 C   0  0  0  0  0  3  0  0  0  0  0  0
  160.1370  202.5200  150.5110 N   0  0  0  0  0  0  0  0  0  0  0  0
  159.6020  201.1840  150.2930 C   0  0  0  0  0  2  0  0  0  0  0  0
  161.5820  207.4550  155.4800 C   0  0  0  0  0  1  0  0  0  0  0  0
  160.4700  210.7850  154.4560 O   0  0  0  0  0  0  0  0  0  0  0  0
  160.4610  209.1150  152.4330 O   0  0  0  0  0  0  0  0  0  0  0  0
  160.9290  208.2380  153.2090 C   0  0  0  0  0  0  0  0  0  0  0  0
  160.8020  209.8120  155.1870 C   0  0  0  0  0  0  0  0  0  0  0  0
  161.0940  208.5210  154.6130 N   0  0  0  0  0  0  0  0  0  0  0  0
  161.2950  206.9480  152.6970 N   0  0  0  0  0  2  0  0  0  0  0  0
  160.8640  210.0280  156.6660 C   0  0  0  0  0  2  0  0  0  0  0  0
  161.8140  211.1300  156.9880 C   0  0  0  0  0  0  0  0  0  0  0  0
  161.3770  212.2780  157.2590 O   0  0  0  0  0  1  0  0  0  0  0  0
  163.1800  210.8820  157.0220 O   0  0  0  0  0  0  0  0  0  0  0  0
  1  6  1  0  0  0  0
  1 14  1  0  0  0  0
  2 13  2  0  0  0  0
  3  7  1  1  0  0  0
  3  2  1  0  0  0  0
  3 19  1  0  0  0  0
  4 11  2  0  0  0  0
  4  7  1  0  0  0  0
  5 16  2  0  0  0  0
  5  2  1  0  0  0  0
  6 17  1  0  0  0  0
  8 27  1  0  0  0  0
  9  1  2  0  0  0  0
 10 18  2  0  0  0  0
 11 15  1  0  0  0  0
 12  8  2  0  0  0  0
 13  8  1  0  0  0  0
 13 18  1  0  0  0  0
 14  5  1  0  0  0  0
 15 20  1  0  0  0  0
 16 12  1  0  0  0  0
 17 16  1  0  0  0  0
 19 10  1  0  0  0  0
 20 19  1  0  0  0  0
 22 25  2  0  0  0  0
 23 24  2  0  0  0  0
 24 26  1  0  0  0  0
 25 28  1  0  0  0  0
 26 25  1  0  0  0  0
 26 21  1  0  0  0  0
 27 24  1  0  0  0  0
 28 29  1  0  0  0  0
 29 31  2  0  0  0  0
 29 30  1  0  0  0  0
M  END
>  <MODEL>
8

>  <REMARK>
 VINA RESULT:      -4.5      2.134      4.388
  Name = 
  3 active torsions:
  status: ('A' for Active; 'I' for Inactive)
    1  A    between atoms: C_1  and  C_24
    2  A    between atoms: C_15  and  N_23
    3  A    between atoms: C_19  and  C_24
                            x       y       z     vdW  Elec       q    Type
                         _______ _______ _______ _____ _____    ______ ____

>  <TORSDO>
F 3

$$$$
=
 OpenBabel11052422383D

 31 34  0  0  1  0  0  0  0  0999 V2000
  162.3030  207.8380  148.6100 C   0  0  0  0  0  0  0  0  0  0  0  0
  161.4470  211.2780  149.7160 C   0  0  0  0  0  0  0  0  0  0  0  0
  161.6090  212.0380  148.4210 C   0  0  1  0  0  3  0  0  0  0  0  0
  160.8220  211.9980  146.0540 C   0  0  0  0  0  3  0  0  0  0  0  0
  161.7260  209.9050  149.7660 C   0  0  0  0  0  0  0  0  0  0  0  0
  161.7230  207.0270  149.7290 C   0  0  0  0  0  2  0  0  0  0  0  0
  160.4550  211.7040  147.4790 C   0  0  0  0  0  2  0  0  0  0  0  0
  160.7270  211.1800  152.0350 C   0  0  0  0  0  0  0  0  0  0  0  0
  162.8150  207.2620  147.6160 O   0  0  0  0  0  0  0  0  0  0  0  0
  161.0510  214.1030  149.7810 C   0  0  0  0  0  3  0  0  0  0  0  0
  161.1090  213.2260  145.6010 C   0  0  0  0  0  3  0  0  0  0  0  0
  161.0200  209.8510  152.0520 N   0  0  0  0  0  0  0  0  0  0  0  0
  160.9440  211.9230  150.8630 C   0  0  0  0  0  0  0  0  0  0  0  0
  162.2140  209.2320  148.6390 O   0  0  0  0  0  0  0  0  0  0  0  0
  161.0940  214.4530  146.4660 C   0  0  0  0  0  2  0  0  0  0  0  0
  161.4990  209.2010  150.9590 C   0  0  0  0  0  0  0  0  0  0  0  0
  161.8900  207.7570  151.0620 C   0  0  0  0  0  2  0  0  0  0  0  0
  160.6950  213.3740  150.8350 C   0  0  0  0  0  3  0  0  0  0  0  0
  161.6690  213.4910  148.6410 N   0  0  0  0  0  0  0  0  0  0  0  0
  162.1400  214.3580  147.5700 C   0  0  0  0  0  2  0  0  0  0  0  0
  159.5580  213.1120  155.6600 C   0  0  0  0  0  1  0  0  0  0  0  0
  156.1670  212.6990  154.3550 O   0  0  0  0  0  0  0  0  0  0  0  0
  157.9380  211.5890  152.7700 O   0  0  0  0  0  0  0  0  0  0  0  0
  158.8360  212.0170  153.5440 C   0  0  0  0  0  0  0  0  0  0  0  0
  157.1160  212.9630  155.1420 C   0  0  0  0  0  0  0  0  0  0  0  0
  158.4840  212.6890  154.7690 N   0  0  0  0  0  0  0  0  0  0  0  0
  160.2200  211.8310  153.2090 N   0  0  0  0  0  2  0  0  0  0  0  0
  156.7860  213.5470  156.4790 C   0  0  0  0  0  2  0  0  0  0  0  0
  155.4380  213.0920  156.9220 C   0  0  0  0  0  0  0  0  0  0  0  0
  154.4800  213.9070  156.9590 O   0  0  0  0  0  0  0  0  0  0  0  0
  155.2300  211.7620  157.2610 O   0  0  0  0  0  1  0  0  0  0  0  0
  1 14  1  0  0  0  0
  1  6  1  0  0  0  0
  2  5  1  0  0  0  0
  2 13  2  0  0  0  0
  3  7  1  6  0  0  0
  3 19  1  0  0  0  0
  3  2  1  0  0  0  0
  4  7  1  0  0  0  0
  5 16  2  0  0  0  0
  6 17  1  0  0  0  0
  8 12  2  0  0  0  0
  8 27  1  0  0  0  0
  9  1  2  0  0  0  0
 10 18  2  0  0  0  0
 11  4  2  0  0  0  0
 11 15  1  0  0  0  0
 13  8  1  0  0  0  0
 14  5  1  0  0  0  0
 15 20  1  0  0  0  0
 16 17  1  0  0  0  0
 16 12  1  0  0  0  0
 18 13  1  0  0  0  0
 19 10  1  0  0  0  0
 20 19  1  0  0  0  0
 22 25  2  0  0  0  0
 23 24  2  0  0  0  0
 24 26  1  0  0  0  0
 25 28  1  0  0  0  0
 26 25  1  0  0  0  0
 26 21  1  0  0  0  0
 27 24  1  0  0  0  0
 28 29  1  0  0  0  0
 29 30  2  0  0  0  0
 29 31  1  0  0  0  0
M  END
>  <MODEL>
9

>  <REMARK>
 VINA RESULT:      -4.3      5.063      6.913
  Name = 
  3 active torsions:
  status: ('A' for Active; 'I' for Inactive)
    1  A    between atoms: C_1  and  C_24
    2  A    between atoms: C_15  and  N_23
    3  A    between atoms: C_19  and  C_24
                            x       y       z     vdW  Elec       q    Type
                         _______ _______ _______ _____ _____    ______ ____

>  <TORSDO>
F 3

$$$$
