=
 OpenBabel11062407523D

 34 39  0  0  1  0  0  0  0  0999 V2000
  160.9260  207.9500  154.8080 C   0  0  1  0  0  3  0  0  0  0  0  0
  161.4950  210.2490  153.8390 C   0  0  2  0  0  3  0  0  0  0  0  0
  161.3620  208.1990  152.3490 C   0  0  0  0  0  0  0  0  0  0  0  0
  161.7610  208.3180  149.9790 N   0  0  0  0  0  0  0  0  0  0  0  0
  159.9540  210.0230  155.8080 C   0  0  0  0  0  3  0  0  0  0  0  0
  160.7270  210.7880  155.0230 C   0  0  0  0  0  3  0  0  0  0  0  0
  161.8160  210.3040  151.0070 C   0  0  0  0  0  3  0  0  0  0  0  0
  161.2460  208.7780  153.5810 C   0  0  0  0  0  0  0  0  0  0  0  0
  162.0130  209.2260  149.0250 C   0  0  0  0  0  3  0  0  0  0  0  0
  159.7300  208.5640  155.5290 C   0  0  0  0  0  2  0  0  0  0  0  0
  161.1900  206.7880  152.1910 C   0  0  0  0  0  0  0  0  0  0  0  0
  160.6450  206.5880  154.5070 O   0  0  0  0  0  0  0  0  0  0  0  0
  162.9770  210.4940  154.0550 C   0  0  0  0  0  1  0  0  0  0  0  0
  161.6310  206.9870  149.8070 C   0  0  0  0  0  3  0  0  0  0  0  0
  161.3510  206.1740  150.9110 C   0  0  0  0  0  0  0  0  0  0  0  0
  162.0500  210.4570  149.6510 C   0  0  0  0  0  0  0  0  0  0  0  0
  161.6430  208.9350  151.1700 C   0  0  0  0  0  0  0  0  0  0  0  0
  160.8350  206.0390  153.2410 C   0  0  0  0  0  3  0  0  0  0  0  0
  160.8070  202.8220  149.1950 C   0  0  0  0  0  0  0  0  0  0  0  0
  160.9420  201.9400  150.2700 C   0  0  0  0  0  3  0  0  0  0  0  0
  161.2320  204.7090  150.6740 C   0  0  0  0  0  0  0  0  0  0  0  0
  161.2140  202.4350  151.5470 C   0  0  0  0  0  3  0  0  0  0  0  0
  160.9450  204.1970  149.3970 C   0  0  0  0  0  3  0  0  0  0  0  0
  161.3540  203.8120  151.7490 C   0  0  0  0  0  3  0  0  0  0  0  0
  160.5380  202.3440  147.9560 F   0  0  0  0  0  0  0  0  0  0  0  0
  162.2900  211.7100  149.0130 N   0  0  0  0  0  2  0  0  0  0  0  0
  161.2060  212.5920  148.6070 C   0  0  0  0  0  2  0  0  0  0  0  0
  158.7770  212.6860  146.9000 C   0  0  0  0  0  1  0  0  0  0  0  0
  161.2910  212.8480  147.1390 C   0  0  0  0  0  0  0  0  0  0  0  0
  160.1420  212.8810  146.3300 C   0  0  0  0  0  0  0  0  0  0  0  0
  161.5000  213.2740  144.4270 C   0  0  0  0  0  3  0  0  0  0  0  0
  162.6410  213.2340  145.2300 C   0  0  0  0  0  3  0  0  0  0  0  0
  162.5100  213.0200  146.5650 N   0  0  0  0  0  0  0  0  0  0  0  0
  160.2780  213.0960  144.9950 N   0  0  0  0  0  0  0  0  0  0  0  0
  1 10  1  6  0  0  0
  2 13  1  1  0  0  0
  2  6  1  0  0  0  0
  3  8  2  0  0  0  0
  4 17  1  0  0  0  0
  6  5  2  0  0  0  0
  7 17  2  0  0  0  0
  8  2  1  0  0  0  0
  8  1  1  0  0  0  0
  9 16  2  0  0  0  0
  9  4  1  0  0  0  0
 10  5  1  0  0  0  0
 11  3  1  0  0  0  0
 11 18  2  0  0  0  0
 12  1  1  0  0  0  0
 14  4  1  0  0  0  0
 14 15  2  0  0  0  0
 15 11  1  0  0  0  0
 16  7  1  0  0  0  0
 17  3  1  0  0  0  0
 18 12  1  0  0  0  0
 19 23  2  0  0  0  0
 19 20  1  0  0  0  0
 20 22  2  0  0  0  0
 21 15  1  0  0  0  0
 21 24  2  0  0  0  0
 22 24  1  0  0  0  0
 23 21  1  0  0  0  0
 25 19  1  0  0  0  0
 26 16  1  0  0  0  0
 27 26  1  0  0  0  0
 29 27  1  0  0  0  0
 30 28  1  0  0  0  0
 30 29  2  0  0  0  0
 31 34  2  0  0  0  0
 31 32  1  0  0  0  0
 32 33  2  0  0  0  0
 33 29  1  0  0  0  0
 34 30  1  0  0  0  0
M  END
>  <MODEL>
1

>  <REMARK>
 VINA RESULT:     -10.2      0.000      0.000
  Name = 
  4 active torsions:
  status: ('A' for Active; 'I' for Inactive)
    1  A    between atoms: C_3  and  C_13
    2  A    between atoms: C_3  and  N_17
    3  A    between atoms: C_12  and  C_28
    4  A    between atoms: N_17  and  C_29
                            x       y       z     vdW  Elec       q    Type
                         _______ _______ _______ _____ _____    ______ ____

>  <TORSDO>
F 4

$$$$
=
 OpenBabel11062407523D

 34 39  0  0  1  0  0  0  0  0999 V2000
  160.9020  207.8530  154.9270 C   0  0  1  0  0  3  0  0  0  0  0  0
  161.4230  210.1920  154.0310 C   0  0  2  0  0  3  0  0  0  0  0  0
  161.3180  208.1910  152.4750 C   0  0  0  0  0  0  0  0  0  0  0  0
  161.6980  208.3940  150.1080 N   0  0  0  0  0  0  0  0  0  0  0  0
  159.9000  209.8730  156.0010 C   0  0  0  0  0  3  0  0  0  0  0  0
  160.6540  210.6780  155.2370 C   0  0  0  0  0  3  0  0  0  0  0  0
  161.7240  210.3470  151.2010 C   0  0  0  0  0  3  0  0  0  0  0  0
  161.1990  208.7260  153.7270 C   0  0  0  0  0  0  0  0  0  0  0  0
  161.9270  209.3380  149.1830 C   0  0  0  0  0  3  0  0  0  0  0  0
  159.7010  208.4200  155.6750 C   0  0  0  0  0  2  0  0  0  0  0  0
  161.1710  206.7820  152.2720 C   0  0  0  0  0  0  0  0  0  0  0  0
  160.6450  206.4960  154.5830 O   0  0  0  0  0  0  0  0  0  0  0  0
  162.9020  210.4580  154.2460 C   0  0  0  0  0  1  0  0  0  0  0  0
  161.5910  207.0680  149.8920 C   0  0  0  0  0  3  0  0  0  0  0  0
  161.3340  206.2140  150.9710 C   0  0  0  0  0  0  0  0  0  0  0  0
  161.9450  210.5490  149.8490 C   0  0  0  0  0  0  0  0  0  0  0  0
  161.5770  208.9700  151.3190 C   0  0  0  0  0  0  0  0  0  0  0  0
  160.8360  205.9930  153.2990 C   0  0  0  0  0  3  0  0  0  0  0  0
  160.8720  202.9100  149.1410 C   0  0  0  0  0  0  0  0  0  0  0  0
  160.9980  201.9970  150.1910 C   0  0  0  0  0  3  0  0  0  0  0  0
  161.2400  204.7550  150.6870 C   0  0  0  0  0  0  0  0  0  0  0  0
  161.2370  202.4560  151.4890 C   0  0  0  0  0  3  0  0  0  0  0  0
  160.9870  204.2800  149.3890 C   0  0  0  0  0  3  0  0  0  0  0  0
  161.3530  203.8270  151.7360 C   0  0  0  0  0  3  0  0  0  0  0  0
  160.6350  202.4670  147.8830 F   0  0  0  0  0  0  0  0  0  0  0  0
  162.1580  211.8260  149.2510 N   0  0  0  0  0  2  0  0  0  0  0  0
  162.3930  211.9820  147.8250 C   0  0  0  0  0  2  0  0  0  0  0  0
  162.6930  213.2820  145.1700 C   0  0  0  0  0  1  0  0  0  0  0  0
  161.2930  212.7890  147.2190 C   0  0  0  0  0  0  0  0  0  0  0  0
  161.4400  213.4140  145.9690 C   0  0  0  0  0  0  0  0  0  0  0  0
  159.2540  214.3100  146.1660 C   0  0  0  0  0  3  0  0  0  0  0  0
  159.1120  213.6960  147.4110 C   0  0  0  0  0  3  0  0  0  0  0  0
  160.1340  212.9520  147.9090 N   0  0  0  0  0  0  0  0  0  0  0  0
  160.4140  214.1560  145.4750 N   0  0  0  0  0  0  0  0  0  0  0  0
  1 10  1  6  0  0  0
  2 13  1  1  0  0  0
  2  6  1  0  0  0  0
  3  8  2  0  0  0  0
  4 17  1  0  0  0  0
  6  5  2  0  0  0  0
  7 17  2  0  0  0  0
  8  2  1  0  0  0  0
  8  1  1  0  0  0  0
  9 16  2  0  0  0  0
  9  4  1  0  0  0  0
 10  5  1  0  0  0  0
 11  3  1  0  0  0  0
 11 18  2  0  0  0  0
 12  1  1  0  0  0  0
 14  4  1  0  0  0  0
 14 15  2  0  0  0  0
 15 11  1  0  0  0  0
 16  7  1  0  0  0  0
 17  3  1  0  0  0  0
 18 12  1  0  0  0  0
 19 23  2  0  0  0  0
 19 20  1  0  0  0  0
 20 22  2  0  0  0  0
 21 15  1  0  0  0  0
 21 24  2  0  0  0  0
 22 24  1  0  0  0  0
 23 21  1  0  0  0  0
 25 19  1  0  0  0  0
 26 16  1  0  0  0  0
 27 26  1  0  0  0  0
 28 30  1  0  0  0  0
 29 27  1  0  0  0  0
 29 33  1  0  0  0  0
 30 29  2  0  0  0  0
 31 32  1  0  0  0  0
 32 33  2  0  0  0  0
 34 30  1  0  0  0  0
 34 31  2  0  0  0  0
M  END
>  <MODEL>
2

>  <REMARK>
 VINA RESULT:     -10.0      0.725      1.321
  Name = 
  4 active torsions:
  status: ('A' for Active; 'I' for Inactive)
    1  A    between atoms: C_3  and  C_13
    2  A    between atoms: C_3  and  N_17
    3  A    between atoms: C_12  and  C_28
    4  A    between atoms: N_17  and  C_29
                            x       y       z     vdW  Elec       q    Type
                         _______ _______ _______ _____ _____    ______ ____

>  <TORSDO>
F 4

$$$$
=
 OpenBabel11062407523D

 34 39  0  0  1  0  0  0  0  0999 V2000
  161.0240  207.7410  154.2610 C   0  0  1  0  0  3  0  0  0  0  0  0
  161.5890  210.1240  153.5230 C   0  0  2  0  0  3  0  0  0  0  0  0
  161.3900  208.2450  151.8300 C   0  0  0  0  0  0  0  0  0  0  0  0
  161.7190  208.6110  149.4740 N   0  0  0  0  0  0  0  0  0  0  0  0
  160.1050  209.7040  155.5040 C   0  0  0  0  0  3  0  0  0  0  0  0
  160.8630  210.5410  154.7810 C   0  0  0  0  0  3  0  0  0  0  0  0
  161.8270  210.4770  150.7040 C   0  0  0  0  0  3  0  0  0  0  0  0
  161.3170  208.6910  153.1190 C   0  0  0  0  0  0  0  0  0  0  0  0
  161.9530  209.6130  148.6140 C   0  0  0  0  0  3  0  0  0  0  0  0
  159.8570  208.2840  155.0780 C   0  0  0  0  0  2  0  0  0  0  0  0
  161.1980  206.8600  151.5290 C   0  0  0  0  0  0  0  0  0  0  0  0
  160.7200  206.4200  153.8270 O   0  0  0  0  0  0  0  0  0  0  0  0
  163.0800  210.3340  153.7180 C   0  0  0  0  0  1  0  0  0  0  0  0
  161.5700  207.3070  149.1660 C   0  0  0  0  0  3  0  0  0  0  0  0
  161.3140  206.3840  150.1870 C   0  0  0  0  0  0  0  0  0  0  0  0
  162.0210  210.7710  149.3660 C   0  0  0  0  0  0  0  0  0  0  0  0
  161.6440  209.1000  150.7260 C   0  0  0  0  0  0  0  0  0  0  0  0
  160.8660  206.0070  152.5050 C   0  0  0  0  0  3  0  0  0  0  0  0
  160.8550  202.6120  150.3930 C   0  0  0  0  0  0  0  0  0  0  0  0
  160.9790  202.2490  149.0500 C   0  0  0  0  0  3  0  0  0  0  0  0
  161.1720  204.9530  149.8010 C   0  0  0  0  0  0  0  0  0  0  0  0
  161.2050  203.2290  148.0810 C   0  0  0  0  0  3  0  0  0  0  0  0
  160.9580  203.9550  150.7660 C   0  0  0  0  0  3  0  0  0  0  0  0
  161.3060  204.5720  148.4540 C   0  0  0  0  0  3  0  0  0  0  0  0
  160.6420  201.6630  151.3350 F   0  0  0  0  0  0  0  0  0  0  0  0
  162.2560  212.0830  148.8560 N   0  0  0  0  0  2  0  0  0  0  0  0
  161.1990  213.0770  148.7640 C   0  0  0  0  0  2  0  0  0  0  0  0
  162.7010  214.2060  146.4640 C   0  0  0  0  0  1  0  0  0  0  0  0
  160.6310  213.0810  147.3840 C   0  0  0  0  0  0  0  0  0  0  0  0
  161.3370  213.6270  146.2990 C   0  0  0  0  0  0  0  0  0  0  0  0
  159.5200  213.1130  144.8650 C   0  0  0  0  0  3  0  0  0  0  0  0
  158.8160  212.5780  145.9450 C   0  0  0  0  0  3  0  0  0  0  0  0
  159.3860  212.5770  147.1780 N   0  0  0  0  0  0  0  0  0  0  0  0
  160.7630  213.6250  145.0670 N   0  0  0  0  0  0  0  0  0  0  0  0
  1 10  1  6  0  0  0
  2 13  1  1  0  0  0
  2  6  1  0  0  0  0
  3  8  2  0  0  0  0
  4 17  1  0  0  0  0
  6  5  2  0  0  0  0
  7 17  2  0  0  0  0
  8  2  1  0  0  0  0
  8  1  1  0  0  0  0
  9 16  2  0  0  0  0
  9  4  1  0  0  0  0
 10  5  1  0  0  0  0
 11  3  1  0  0  0  0
 11 18  2  0  0  0  0
 12  1  1  0  0  0  0
 14  4  1  0  0  0  0
 14 15  2  0  0  0  0
 15 11  1  0  0  0  0
 16  7  1  0  0  0  0
 17  3  1  0  0  0  0
 18 12  1  0  0  0  0
 19 23  1  0  0  0  0
 19 25  1  0  0  0  0
 20 19  2  0  0  0  0
 21 15  1  0  0  0  0
 21 23  2  0  0  0  0
 22 24  2  0  0  0  0
 22 20  1  0  0  0  0
 24 21  1  0  0  0  0
 26 16  1  0  0  0  0
 27 26  1  0  0  0  0
 29 27  1  0  0  0  0
 30 28  1  0  0  0  0
 30 29  2  0  0  0  0
 31 34  2  0  0  0  0
 31 32  1  0  0  0  0
 32 33  2  0  0  0  0
 33 29  1  0  0  0  0
 34 30  1  0  0  0  0
M  END
>  <MODEL>
3

>  <REMARK>
 VINA RESULT:      -9.0      1.057      1.704
  Name = 
  4 active torsions:
  status: ('A' for Active; 'I' for Inactive)
    1  A    between atoms: C_3  and  C_13
    2  A    between atoms: C_3  and  N_17
    3  A    between atoms: C_12  and  C_28
    4  A    between atoms: N_17  and  C_29
                            x       y       z     vdW  Elec       q    Type
                         _______ _______ _______ _____ _____    ______ ____

>  <TORSDO>
F 4

$$$$
=
 OpenBabel11062407523D

 34 39  0  0  1  0  0  0  0  0999 V2000
  160.6150  204.7220  150.3710 C   0  0  1  0  0  3  0  0  0  0  0  0
  161.1820  206.1120  148.2990 C   0  0  2  0  0  3  0  0  0  0  0  0
  161.2250  207.1450  150.6160 C   0  0  0  0  0  0  0  0  0  0  0  0
  161.7950  209.4560  150.9720 N   0  0  0  0  0  0  0  0  0  0  0  0
  161.7290  203.6640  148.4020 C   0  0  0  0  0  3  0  0  0  0  0  0
  161.5790  204.7890  147.6870 C   0  0  0  0  0  3  0  0  0  0  0  0
  161.9720  208.7960  148.8410 C   0  0  0  0  0  3  0  0  0  0  0  0
  161.0450  206.0600  149.8060 C   0  0  0  0  0  0  0  0  0  0  0  0
  162.2080  210.5290  150.2820 C   0  0  0  0  0  3  0  0  0  0  0  0
  161.5820  203.6430  149.8970 C   0  0  0  0  0  2  0  0  0  0  0  0
  161.0020  207.0430  152.0250 C   0  0  0  0  0  0  0  0  0  0  0  0
  160.5550  204.7090  151.7930 O   0  0  0  0  0  0  0  0  0  0  0  0
  159.8790  206.5760  147.6750 C   0  0  0  0  0  1  0  0  0  0  0  0
  161.5650  209.3940  152.2990 C   0  0  0  0  0  3  0  0  0  0  0  0
  161.1500  208.1860  152.8700 C   0  0  0  0  0  0  0  0  0  0  0  0
  162.3200  210.1310  148.9620 C   0  0  0  0  0  0  0  0  0  0  0  0
  161.6440  208.4120  150.1350 C   0  0  0  0  0  0  0  0  0  0  0  0
  160.6930  205.8590  152.5660 C   0  0  0  0  0  3  0  0  0  0  0  0
  160.9140  209.2680  156.5100 C   0  0  0  0  0  0  0  0  0  0  0  0
  160.4670  208.0920  157.1160 C   0  0  0  0  0  3  0  0  0  0  0  0
  160.8930  208.1710  154.3370 C   0  0  0  0  0  0  0  0  0  0  0  0
  160.2380  206.9520  156.3410 C   0  0  0  0  0  3  0  0  0  0  0  0
  161.1320  209.3050  155.1300 C   0  0  0  0  0  3  0  0  0  0  0  0
  160.4540  206.9900  154.9600 C   0  0  0  0  0  3  0  0  0  0  0  0
  161.1420  210.3730  157.2610 F   0  0  0  0  0  0  0  0  0  0  0  0
  162.7310  210.9580  147.8750 N   0  0  0  0  0  2  0  0  0  0  0  0
  162.4980  212.3930  147.8630 C   0  0  0  0  0  2  0  0  0  0  0  0
  160.4540  213.5670  149.6700 C   0  0  0  0  0  1  0  0  0  0  0  0
  161.1070  212.6710  147.3970 C   0  0  0  0  0  0  0  0  0  0  0  0
  160.1380  213.2160  148.2560 C   0  0  0  0  0  0  0  0  0  0  0  0
  158.5410  213.1190  146.5060 C   0  0  0  0  0  3  0  0  0  0  0  0
  159.5020  212.5720  145.6550 C   0  0  0  0  0  3  0  0  0  0  0  0
  160.7610  212.3590  146.1200 N   0  0  0  0  0  0  0  0  0  0  0  0
  158.8800  213.4270  147.7860 N   0  0  0  0  0  0  0  0  0  0  0  0
  1 10  1  1  0  0  0
  1 12  1  0  0  0  0
  2 13  1  6  0  0  0
  2  8  1  0  0  0  0
  3 11  1  0  0  0  0
  4 14  1  0  0  0  0
  5 10  1  0  0  0  0
  6  2  1  0  0  0  0
  6  5  2  0  0  0  0
  7 16  1  0  0  0  0
  7 17  2  0  0  0  0
  8  1  1  0  0  0  0
  8  3  2  0  0  0  0
  9  4  1  0  0  0  0
 11 18  2  0  0  0  0
 11 15  1  0  0  0  0
 12 18  1  0  0  0  0
 14 15  2  0  0  0  0
 15 21  1  0  0  0  0
 16  9  2  0  0  0  0
 17  3  1  0  0  0  0
 17  4  1  0  0  0  0
 19 20  1  0  0  0  0
 19 25  1  0  0  0  0
 21 24  2  0  0  0  0
 21 23  1  0  0  0  0
 22 20  2  0  0  0  0
 23 19  2  0  0  0  0
 24 22  1  0  0  0  0
 26 16  1  0  0  0  0
 27 26  1  0  0  0  0
 29 27  1  0  0  0  0
 29 30  1  0  0  0  0
 30 28  1  0  0  0  0
 31 34  1  0  0  0  0
 32 33  1  0  0  0  0
 32 31  2  0  0  0  0
 33 29  2  0  0  0  0
 34 30  2  0  0  0  0
M  END
>  <MODEL>
4

>  <REMARK>
 VINA RESULT:      -8.5      2.575      5.429
  Name = 
  4 active torsions:
  status: ('A' for Active; 'I' for Inactive)
    1  A    between atoms: C_3  and  C_13
    2  A    between atoms: C_3  and  N_17
    3  A    between atoms: C_12  and  C_28
    4  A    between atoms: N_17  and  C_29
                            x       y       z     vdW  Elec       q    Type
                         _______ _______ _______ _____ _____    ______ ____

>  <TORSDO>
F 4

$$$$
=
 OpenBabel11062407523D

 34 39  0  0  1  0  0  0  0  0999 V2000
  160.5930  213.5380  149.7060 C   0  0  1  0  0  3  0  0  0  0  0  0
  161.5810  211.9510  147.9590 C   0  0  2  0  0  3  0  0  0  0  0  0
  161.1410  211.1700  150.3320 C   0  0  0  0  0  0  0  0  0  0  0  0
  161.6260  208.9240  151.0470 N   0  0  0  0  0  0  0  0  0  0  0  0
  159.9650  213.7550  147.2980 C   0  0  0  0  0  3  0  0  0  0  0  0
  160.8830  212.8380  146.9550 C   0  0  0  0  0  3  0  0  0  0  0  0
  161.9930  209.2810  148.8690 C   0  0  0  0  0  3  0  0  0  0  0  0
  161.0890  212.1450  149.3770 C   0  0  0  0  0  0  0  0  0  0  0  0
  162.0610  207.7580  150.5450 C   0  0  0  0  0  3  0  0  0  0  0  0
  159.5010  213.9270  148.7160 C   0  0  0  0  0  2  0  0  0  0  0  0
  160.7320  211.4470  151.6750 C   0  0  0  0  0  0  0  0  0  0  0  0
  160.0900  213.6550  151.0320 O   0  0  0  0  0  0  0  0  0  0  0  0
  163.0760  212.2040  147.8890 C   0  0  0  0  0  1  0  0  0  0  0  0
  161.2730  209.1650  152.3250 C   0  0  0  0  0  3  0  0  0  0  0  0
  160.8220  210.4400  152.6850 C   0  0  0  0  0  0  0  0  0  0  0  0
  162.2910  207.9700  149.1980 C   0  0  0  0  0  0  0  0  0  0  0  0
  161.5810  209.8470  150.0680 C   0  0  0  0  0  0  0  0  0  0  0  0
  160.2200  212.6440  151.9810 C   0  0  0  0  0  3  0  0  0  0  0  0
  158.7890  210.9970  155.8530 C   0  0  0  0  0  0  0  0  0  0  0  0
  159.8010  211.1580  156.8020 C   0  0  0  0  0  3  0  0  0  0  0  0
  160.4580  210.6640  154.1120 C   0  0  0  0  0  0  0  0  0  0  0  0
  161.1400  211.0800  156.4130 C   0  0  0  0  0  3  0  0  0  0  0  0
  159.1160  210.7580  154.5160 C   0  0  0  0  0  3  0  0  0  0  0  0
  161.4670  210.8390  155.0750 C   0  0  0  0  0  3  0  0  0  0  0  0
  157.4900  211.0780  156.2280 F   0  0  0  0  0  0  0  0  0  0  0  0
  162.7640  206.9940  148.2710 N   0  0  0  0  0  2  0  0  0  0  0  0
  161.8980  206.3980  147.2660 C   0  0  0  0  0  2  0  0  0  0  0  0
  161.9520  204.1580  145.3160 C   0  0  0  0  0  1  0  0  0  0  0  0
  161.5510  205.0030  147.6670 C   0  0  0  0  0  0  0  0  0  0  0  0
  161.5650  203.9460  146.7410 C   0  0  0  0  0  0  0  0  0  0  0  0
  160.8530  202.4550  148.4410 C   0  0  0  0  0  3  0  0  0  0  0  0
  160.8310  203.5060  149.3580 C   0  0  0  0  0  3  0  0  0  0  0  0
  161.1780  204.7550  148.9500 N   0  0  0  0  0  0  0  0  0  0  0  0
  161.2170  202.6990  147.1540 N   0  0  0  0  0  0  0  0  0  0  0  0
  1 10  1  6  0  0  0
  1 12  1  0  0  0  0
  2 13  1  1  0  0  0
  2  8  1  0  0  0  0
  3 11  1  0  0  0  0
  4 14  1  0  0  0  0
  5 10  1  0  0  0  0
  6  5  2  0  0  0  0
  6  2  1  0  0  0  0
  7 16  1  0  0  0  0
  7 17  2  0  0  0  0
  8  1  1  0  0  0  0
  8  3  2  0  0  0  0
  9  4  1  0  0  0  0
 11 18  2  0  0  0  0
 11 15  1  0  0  0  0
 12 18  1  0  0  0  0
 14 15  2  0  0  0  0
 15 21  1  0  0  0  0
 16  9  2  0  0  0  0
 17  3  1  0  0  0  0
 17  4  1  0  0  0  0
 19 25  1  0  0  0  0
 19 20  1  0  0  0  0
 21 23  1  0  0  0  0
 21 24  2  0  0  0  0
 22 20  2  0  0  0  0
 23 19  2  0  0  0  0
 24 22  1  0  0  0  0
 26 16  1  0  0  0  0
 27 29  1  0  0  0  0
 27 26  1  0  0  0  0
 28 30  1  0  0  0  0
 29 33  1  0  0  0  0
 30 34  1  0  0  0  0
 30 29  2  0  0  0  0
 31 32  1  0  0  0  0
 33 32  2  0  0  0  0
 34 31  2  0  0  0  0
M  END
>  <MODEL>
5

>  <REMARK>
 VINA RESULT:      -8.2      3.460      7.670
  Name = 
  4 active torsions:
  status: ('A' for Active; 'I' for Inactive)
    1  A    between atoms: C_3  and  C_13
    2  A    between atoms: C_3  and  N_17
    3  A    between atoms: C_12  and  C_28
    4  A    between atoms: N_17  and  C_29
                            x       y       z     vdW  Elec       q    Type
                         _______ _______ _______ _____ _____    ______ ____

>  <TORSDO>
F 4

$$$$
=
 OpenBabel11062407523D

 34 39  0  0  1  0  0  0  0  0999 V2000
  160.9780  210.2880  155.2720 C   0  0  1  0  0  3  0  0  0  0  0  0
  161.0740  207.7320  155.3330 C   0  0  2  0  0  3  0  0  0  0  0  0
  161.3000  208.9960  153.1440 C   0  0  0  0  0  0  0  0  0  0  0  0
  161.6130  207.8630  151.0440 N   0  0  0  0  0  0  0  0  0  0  0  0
  161.9390  209.1030  157.2500 C   0  0  0  0  0  3  0  0  0  0  0  0
  161.5490  207.9190  156.7550 C   0  0  0  0  0  3  0  0  0  0  0  0
  161.5800  206.4960  152.8150 C   0  0  0  0  0  3  0  0  0  0  0  0
  161.1520  208.9950  154.5020 C   0  0  0  0  0  0  0  0  0  0  0  0
  161.7870  206.6240  150.5620 C   0  0  0  0  0  3  0  0  0  0  0  0
  162.0020  210.3410  156.4000 C   0  0  0  0  0  2  0  0  0  0  0  0
  161.2870  210.2250  152.4130 C   0  0  0  0  0  0  0  0  0  0  0  0
  161.1150  211.4470  154.4570 O   0  0  0  0  0  0  0  0  0  0  0  0
  159.6490  207.2100  155.3510 C   0  0  0  0  0  1  0  0  0  0  0  0
  161.5770  209.0050  150.3280 C   0  0  0  0  0  3  0  0  0  0  0  0
  161.4020  210.2260  150.9890 C   0  0  0  0  0  0  0  0  0  0  0  0
  161.7680  205.7710  151.6500 C   0  0  0  0  0  0  0  0  0  0  0  0
  161.4840  207.8130  152.3830 C   0  0  0  0  0  0  0  0  0  0  0  0
  161.2090  211.3880  153.0690 C   0  0  0  0  0  3  0  0  0  0  0  0
  162.1550  212.7930  148.2830 C   0  0  0  0  0  0  0  0  0  0  0  0
  161.2870  213.8270  148.6390 C   0  0  0  0  0  3  0  0  0  0  0  0
  161.3520  211.4590  150.1550 C   0  0  0  0  0  0  0  0  0  0  0  0
  160.4560  213.6870  149.7530 C   0  0  0  0  0  3  0  0  0  0  0  0
  162.1910  211.6190  149.0390 C   0  0  0  0  0  3  0  0  0  0  0  0
  160.4910  212.5120  150.5090 C   0  0  0  0  0  3  0  0  0  0  0  0
  162.9650  212.9290  147.2060 F   0  0  0  0  0  0  0  0  0  0  0  0
  161.9170  204.3530  151.6000 N   0  0  0  0  0  2  0  0  0  0  0  0
  160.8310  203.4740  151.1960 C   0  0  0  0  0  2  0  0  0  0  0  0
  160.4740  200.7230  150.1360 C   0  0  0  0  0  1  0  0  0  0  0  0
  160.9420  203.1770  149.7380 C   0  0  0  0  0  0  0  0  0  0  0  0
  160.7850  201.8730  149.2380 C   0  0  0  0  0  0  0  0  0  0  0  0
  161.2060  202.6680  147.0450 C   0  0  0  0  0  3  0  0  0  0  0  0
  161.3700  203.9610  147.5420 C   0  0  0  0  0  3  0  0  0  0  0  0
  161.2360  204.1850  148.8760 N   0  0  0  0  0  0  0  0  0  0  0  0
  160.9190  201.6540  147.9040 N   0  0  0  0  0  0  0  0  0  0  0  0
  1 10  1  1  0  0  0
  2 13  1  1  0  0  0
  2  6  1  0  0  0  0
  3  8  2  0  0  0  0
  4 17  1  0  0  0  0
  6  5  2  0  0  0  0
  8  1  1  0  0  0  0
  8  2  1  0  0  0  0
  9  4  1  0  0  0  0
  9 16  2  0  0  0  0
 10  5  1  0  0  0  0
 11 18  2  0  0  0  0
 11  3  1  0  0  0  0
 12  1  1  0  0  0  0
 14 15  2  0  0  0  0
 14  4  1  0  0  0  0
 15 11  1  0  0  0  0
 16  7  1  0  0  0  0
 17  7  2  0  0  0  0
 17  3  1  0  0  0  0
 18 12  1  0  0  0  0
 19 20  2  0  0  0  0
 19 23  1  0  0  0  0
 20 22  1  0  0  0  0
 21 24  1  0  0  0  0
 21 15  1  0  0  0  0
 22 24  2  0  0  0  0
 23 21  2  0  0  0  0
 25 19  1  0  0  0  0
 26 16  1  0  0  0  0
 27 26  1  0  0  0  0
 29 27  1  0  0  0  0
 30 29  1  0  0  0  0
 30 28  1  0  0  0  0
 31 32  2  0  0  0  0
 31 34  1  0  0  0  0
 32 33  1  0  0  0  0
 33 29  2  0  0  0  0
 34 30  2  0  0  0  0
M  END
>  <MODEL>
6

>  <REMARK>
 VINA RESULT:      -7.9      3.200      7.399
  Name = 
  4 active torsions:
  status: ('A' for Active; 'I' for Inactive)
    1  A    between atoms: C_3  and  C_13
    2  A    between atoms: C_3  and  N_17
    3  A    between atoms: C_12  and  C_28
    4  A    between atoms: N_17  and  C_29
                            x       y       z     vdW  Elec       q    Type
                         _______ _______ _______ _____ _____    ______ ____

>  <TORSDO>
F 4

$$$$
=
 OpenBabel11062407523D

 34 39  0  0  1  0  0  0  0  0999 V2000
  161.2140  208.8720  149.3070 C   0  0  1  0  0  3  0  0  0  0  0  0
  161.1950  209.9000  151.6500 C   0  0  2  0  0  3  0  0  0  0  0  0
  161.2400  207.3840  151.3270 C   0  0  0  0  0  0  0  0  0  0  0  0
  161.2670  205.8600  153.1900 N   0  0  0  0  0  0  0  0  0  0  0  0
  162.3290  211.0660  149.7370 C   0  0  0  0  0  3  0  0  0  0  0  0
  161.8320  211.0970  150.9830 C   0  0  0  0  0  3  0  0  0  0  0  0
  161.3640  208.0150  153.7820 C   0  0  0  0  0  3  0  0  0  0  0  0
  161.2420  208.6460  150.8040 C   0  0  0  0  0  0  0  0  0  0  0  0
  161.3280  205.8770  154.5290 C   0  0  0  0  0  3  0  0  0  0  0  0
  162.3560  209.8050  148.9200 C   0  0  0  0  0  2  0  0  0  0  0  0
  161.2040  206.2410  150.4670 C   0  0  0  0  0  0  0  0  0  0  0  0
  161.3160  207.6680  148.5560 O   0  0  0  0  0  0  0  0  0  0  0  0
  159.7580  210.2350  152.0030 C   0  0  0  0  0  1  0  0  0  0  0  0
  161.2060  204.7670  152.4030 C   0  0  0  0  0  3  0  0  0  0  0  0
  161.1620  204.9210  151.0120 C   0  0  0  0  0  0  0  0  0  0  0  0
  161.3880  207.2060  154.9050 C   0  0  0  0  0  0  0  0  0  0  0  0
  161.2830  207.1220  152.7210 C   0  0  0  0  0  0  0  0  0  0  0  0
  161.2540  206.4060  149.1410 C   0  0  0  0  0  3  0  0  0  0  0  0
  161.0860  202.5730  148.0190 C   0  0  0  0  0  0  0  0  0  0  0  0
  160.8490  201.3460  148.6410 C   0  0  0  0  0  3  0  0  0  0  0  0
  161.0800  203.6860  150.1850 C   0  0  0  0  0  0  0  0  0  0  0  0
  160.7200  201.2820  150.0310 C   0  0  0  0  0  3  0  0  0  0  0  0
  161.1940  203.7360  148.7860 C   0  0  0  0  0  3  0  0  0  0  0  0
  160.8300  202.4460  150.7980 C   0  0  0  0  0  3  0  0  0  0  0  0
  161.2060  202.6380  146.6710 F   0  0  0  0  0  0  0  0  0  0  0  0
  161.4640  207.6910  156.2440 N   0  0  0  0  0  2  0  0  0  0  0  0
  160.3250  208.2990  156.9120 C   0  0  0  0  0  2  0  0  0  0  0  0
  162.3750  210.4210  157.2610 C   0  0  0  0  0  1  0  0  0  0  0  0
  160.1170  209.6820  156.3910 C   0  0  0  0  0  0  0  0  0  0  0  0
  161.0830  210.6890  156.5670 C   0  0  0  0  0  0  0  0  0  0  0  0
  159.6670  212.2330  155.4570 C   0  0  0  0  0  3  0  0  0  0  0  0
  158.7050  211.2360  155.2900 C   0  0  0  0  0  3  0  0  0  0  0  0
  158.9510  209.9850  155.7620 N   0  0  0  0  0  0  0  0  0  0  0  0
  160.8310  211.9370  156.0930 N   0  0  0  0  0  0  0  0  0  0  0  0
  1 10  1  6  0  0  0
  1  8  1  0  0  0  0
  2 13  1  6  0  0  0
  3 17  1  0  0  0  0
  4  9  1  0  0  0  0
  5  6  2  0  0  0  0
  6  2  1  0  0  0  0
  7 16  1  0  0  0  0
  8  3  2  0  0  0  0
  8  2  1  0  0  0  0
  9 16  2  0  0  0  0
 10  5  1  0  0  0  0
 11 15  1  0  0  0  0
 11  3  1  0  0  0  0
 12 18  1  0  0  0  0
 12  1  1  0  0  0  0
 14  4  1  0  0  0  0
 15 14  2  0  0  0  0
 16 26  1  0  0  0  0
 17  4  1  0  0  0  0
 17  7  2  0  0  0  0
 18 11  2  0  0  0  0
 19 20  2  0  0  0  0
 19 23  1  0  0  0  0
 20 22  1  0  0  0  0
 21 24  1  0  0  0  0
 21 15  1  0  0  0  0
 22 24  2  0  0  0  0
 23 21  2  0  0  0  0
 25 19  1  0  0  0  0
 26 27  1  0  0  0  0
 29 30  1  0  0  0  0
 29 27  1  0  0  0  0
 30 28  1  0  0  0  0
 31 34  1  0  0  0  0
 32 31  2  0  0  0  0
 32 33  1  0  0  0  0
 33 29  2  0  0  0  0
 34 30  2  0  0  0  0
M  END
>  <MODEL>
7

>  <REMARK>
 VINA RESULT:      -7.8      3.725      6.289
  Name = 
  4 active torsions:
  status: ('A' for Active; 'I' for Inactive)
    1  A    between atoms: C_3  and  C_13
    2  A    between atoms: C_3  and  N_17
    3  A    between atoms: C_12  and  C_28
    4  A    between atoms: N_17  and  C_29
                            x       y       z     vdW  Elec       q    Type
                         _______ _______ _______ _____ _____    ______ ____

>  <TORSDO>
F 4

$$$$
=
 OpenBabel11062407523D

 34 39  0  0  1  0  0  0  0  0999 V2000
  161.4640  208.8310  148.9470 C   0  0  1  0  0  3  0  0  0  0  0  0
  161.3700  209.5910  151.3890 C   0  0  2  0  0  3  0  0  0  0  0  0
  161.3300  207.1270  150.7850 C   0  0  0  0  0  0  0  0  0  0  0  0
  161.2050  205.4050  152.4620 N   0  0  0  0  0  0  0  0  0  0  0  0
  162.6420  210.9110  149.6730 C   0  0  0  0  0  3  0  0  0  0  0  0
  162.0860  210.8250  150.8910 C   0  0  0  0  0  3  0  0  0  0  0  0
  161.3580  207.4750  153.2980 C   0  0  0  0  0  3  0  0  0  0  0  0
  161.4080  208.4380  150.4090 C   0  0  0  0  0  0  0  0  0  0  0  0
  161.2010  205.2700  153.7960 C   0  0  0  0  0  3  0  0  0  0  0  0
  162.6600  209.7490  148.7200 C   0  0  0  0  0  2  0  0  0  0  0  0
  161.2920  206.0900  149.8000 C   0  0  0  0  0  0  0  0  0  0  0  0
  161.5540  207.7150  148.0700 O   0  0  0  0  0  0  0  0  0  0  0  0
  159.9310  209.9490  151.7130 C   0  0  0  0  0  1  0  0  0  0  0  0
  161.1400  204.4100  151.5540 C   0  0  0  0  0  3  0  0  0  0  0  0
  161.1710  204.7210  150.1900 C   0  0  0  0  0  0  0  0  0  0  0  0
  161.2950  206.5450  154.3220 C   0  0  0  0  0  0  0  0  0  0  0  0
  161.2940  206.7100  152.1400 C   0  0  0  0  0  0  0  0  0  0  0  0
  161.4130  206.3990  148.5040 C   0  0  0  0  0  3  0  0  0  0  0  0
  161.2080  202.7170  146.9550 C   0  0  0  0  0  0  0  0  0  0  0  0
  160.8320  201.4530  147.4130 C   0  0  0  0  0  3  0  0  0  0  0  0
  161.0800  203.5900  149.2240 C   0  0  0  0  0  0  0  0  0  0  0  0
  160.5720  201.2520  148.7710 C   0  0  0  0  0  3  0  0  0  0  0  0
  161.3250  203.7800  147.8540 C   0  0  0  0  0  3  0  0  0  0  0  0
  160.6910  202.3160  149.6710 C   0  0  0  0  0  3  0  0  0  0  0  0
  161.4550  202.9150  145.6380 F   0  0  0  0  0  0  0  0  0  0  0  0
  161.3240  206.8740  155.7100 N   0  0  0  0  0  2  0  0  0  0  0  0
  160.3790  207.8060  156.3040 C   0  0  0  0  0  2  0  0  0  0  0  0
  159.0190  210.3900  155.7620 C   0  0  0  0  0  1  0  0  0  0  0  0
  161.0540  209.1130  156.5550 C   0  0  0  0  0  0  0  0  0  0  0  0
  160.4140  210.3350  156.2860 C   0  0  0  0  0  0  0  0  0  0  0  0
  162.3570  211.5000  156.9840 C   0  0  0  0  0  3  0  0  0  0  0  0
  162.9950  210.2860  157.2430 C   0  0  0  0  0  3  0  0  0  0  0  0
  162.3300  209.1220  157.0210 N   0  0  0  0  0  0  0  0  0  0  0  0
  161.0830  211.4970  156.5110 N   0  0  0  0  0  0  0  0  0  0  0  0
  1 10  1  1  0  0  0
  1  8  1  0  0  0  0
  2 13  1  6  0  0  0
  3 17  1  0  0  0  0
  4  9  1  0  0  0  0
  5  6  2  0  0  0  0
  6  2  1  0  0  0  0
  7 16  1  0  0  0  0
  8  3  2  0  0  0  0
  8  2  1  0  0  0  0
  9 16  2  0  0  0  0
 10  5  1  0  0  0  0
 11 15  1  0  0  0  0
 11  3  1  0  0  0  0
 12 18  1  0  0  0  0
 12  1  1  0  0  0  0
 14  4  1  0  0  0  0
 15 14  2  0  0  0  0
 16 26  1  0  0  0  0
 17  4  1  0  0  0  0
 17  7  2  0  0  0  0
 18 11  2  0  0  0  0
 19 20  2  0  0  0  0
 19 23  1  0  0  0  0
 20 22  1  0  0  0  0
 21 24  1  0  0  0  0
 21 15  1  0  0  0  0
 22 24  2  0  0  0  0
 23 21  2  0  0  0  0
 25 19  1  0  0  0  0
 26 27  1  0  0  0  0
 27 29  1  0  0  0  0
 28 30  1  0  0  0  0
 29 33  1  0  0  0  0
 30 34  1  0  0  0  0
 30 29  2  0  0  0  0
 31 32  1  0  0  0  0
 33 32  2  0  0  0  0
 34 31  2  0  0  0  0
M  END
>  <MODEL>
8

>  <REMARK>
 VINA RESULT:      -7.7      3.783      6.531
  Name = 
  4 active torsions:
  status: ('A' for Active; 'I' for Inactive)
    1  A    between atoms: C_3  and  C_13
    2  A    between atoms: C_3  and  N_17
    3  A    between atoms: C_12  and  C_28
    4  A    between atoms: N_17  and  C_29
                            x       y       z     vdW  Elec       q    Type
                         _______ _______ _______ _____ _____    ______ ____

>  <TORSDO>
F 4

$$$$
