=
 OpenBabel11052422403D

 31 34  0  0  1  0  0  0  0  0999 V2000
  161.6440  210.7150  150.1540 C   0  0  0  0  0  0  0  0  0  0  0  0
  161.1510  208.5010  153.1440 C   0  0  0  0  0  0  0  0  0  0  0  0
  160.9550  209.4960  154.2960 C   0  0  2  0  0  3  0  0  0  0  0  0
  162.1570  210.9720  155.6960 C   0  0  0  0  0  2  0  0  0  0  0  0
  161.4190  208.9420  151.8160 C   0  0  0  0  0  0  0  0  0  0  0  0
  161.9840  209.7760  149.1810 C   0  0  0  0  0  3  0  0  0  0  0  0
  161.9240  210.6490  154.2500 C   0  0  0  0  0  2  0  0  0  0  0  0
  161.4010  206.1860  152.3650 C   0  0  0  0  0  0  0  0  0  0  0  0
  161.5910  212.0310  149.8360 F   0  0  0  0  0  0  0  0  0  0  0  0
  159.4260  207.1920  155.2630 C   0  0  0  0  0  2  0  0  0  0  0  0
  161.6110  209.8780  156.4870 N   0  0  0  0  0  0  0  0  0  0  0  0
  161.7520  206.6410  151.0980 C   0  0  0  0  0  3  0  0  0  0  0  0
  161.0220  207.0960  153.3680 C   0  0  0  0  0  0  0  0  0  0  0  0
  161.3630  210.3020  151.4590 C   0  0  0  0  0  3  0  0  0  0  0  0
  162.7150  209.3290  157.2570 C   0  0  0  0  0  1  0  0  0  0  0  0
  161.7400  207.9990  150.8090 C   0  0  0  0  0  0  0  0  0  0  0  0
  162.0300  208.4200  149.5080 C   0  0  0  0  0  3  0  0  0  0  0  0
  160.4980  206.5710  154.5580 O   0  0  0  0  0  0  0  0  0  0  0  0
  159.9180  208.3630  156.1000 C   0  0  0  0  0  2  0  0  0  0  0  0
  161.1890  208.8700  155.5960 N   0  0  1  0  0  0  0  0  0  0  0  0
  161.3450  204.7090  152.6000 C   0  0  0  0  0  2  0  0  0  0  0  0
  162.3580  202.1000  151.6930 C   0  0  0  0  0  1  0  0  0  0  0  0
  159.7260  204.5020  150.8660 O   0  0  0  0  0  0  0  0  0  0  0  0
  160.7340  203.9970  151.4310 C   0  0  0  0  0  0  0  0  0  0  0  0
  161.2850  202.7550  150.9540 N   0  0  0  0  0  0  0  0  0  0  0  0
  160.5010  200.8040  149.8070 C   0  0  0  0  0  2  0  0  0  0  0  0
  160.7550  202.1070  149.7850 C   0  0  0  0  0  0  0  0  0  0  0  0
  160.4990  202.8190  148.6080 O   0  0  0  0  0  0  0  0  0  0  0  0
  161.5290  203.3000  147.7530 C   0  0  0  0  0  3  0  0  0  0  0  0
  161.6020  204.8090  147.8540 C   0  0  0  0  0  1  0  0  0  0  0  0
  161.2400  202.9100  146.3170 C   0  0  0  0  0  1  0  0  0  0  0  0
  1 14  1  0  0  0  0
  2 13  2  0  0  0  0
  2  3  1  0  0  0  0
  3  7  1  6  0  0  0
  3 20  1  0  0  0  0
  4 11  1  0  0  0  0
  5  2  1  0  0  0  0
  6 17  1  0  0  0  0
  6  1  2  0  0  0  0
  7  4  1  0  0  0  0
  8 21  1  0  0  0  0
  8 13  1  0  0  0  0
  9  1  1  0  0  0  0
 10 19  1  0  0  0  0
 11 15  1  0  0  0  0
 12  8  2  0  0  0  0
 13 18  1  0  0  0  0
 14  5  2  0  0  0  0
 16 12  1  0  0  0  0
 16  5  1  0  0  0  0
 17 16  2  0  0  0  0
 18 10  1  0  0  0  0
 20 19  1  1  0  0  0
 20 11  1  0  0  0  0
 23 24  2  0  0  0  0
 24 21  1  0  0  0  0
 25 24  1  0  0  0  0
 25 22  1  0  0  0  0
 27 26  2  0  0  0  0
 27 25  1  0  0  0  0
 28 27  1  0  0  0  0
 29 30  1  0  0  0  0
 29 28  1  0  0  0  0
 31 29  1  0  0  0  0
M  END
>  <MODEL>
1

>  <REMARK>
 VINA RESULT:      -7.4      0.000      0.000
  Name = 
  5 active torsions:
  status: ('A' for Active; 'I' for Inactive)
    1  A    between atoms: C_1  and  O_24
    2  A    between atoms: C_9  and  C_23
    3  A    between atoms: C_15  and  C_23
    4  A    between atoms: C_19  and  N_22
    5  A    between atoms: C_19  and  O_24
                            x       y       z     vdW  Elec       q    Type
                         _______ _______ _______ _____ _____    ______ ____

>  <TORSDO>
F 5

$$$$
=
 OpenBabel11052422403D

 31 34  0  0  1  0  0  0  0  0999 V2000
  161.1230  208.8470  154.1720 C   0  0  0  0  0  0  0  0  0  0  0  0
  161.4830  210.1000  150.6530 C   0  0  0  0  0  0  0  0  0  0  0  0
  161.2600  211.6120  150.7890 C   0  0  2  0  0  3  0  0  0  0  0  0
  159.5500  213.2140  151.0920 C   0  0  0  0  0  2  0  0  0  0  0  0
  161.3840  209.2280  151.7760 C   0  0  0  0  0  0  0  0  0  0  0  0
  161.1630  207.4680  153.9690 C   0  0  0  0  0  3  0  0  0  0  0  0
  160.1070  211.9590  151.6950 C   0  0  0  0  0  2  0  0  0  0  0  0
  161.8480  208.1330  149.2300 C   0  0  0  0  0  0  0  0  0  0  0  0
  160.9710  209.3430  155.4240 F   0  0  0  0  0  0  0  0  0  0  0  0
  163.0100  211.4990  148.4420 C   0  0  0  0  0  2  0  0  0  0  0  0
  160.1460  213.3740  149.7720 N   0  0  0  0  0  0  0  0  0  0  0  0
  161.6540  207.2950  150.3240 C   0  0  0  0  0  3  0  0  0  0  0  0
  161.8450  209.5290  149.3940 C   0  0  0  0  0  0  0  0  0  0  0  0
  161.2340  209.7180  153.0860 C   0  0  0  0  0  3  0  0  0  0  0  0
  159.0500  213.3810  148.8180 C   0  0  0  0  0  1  0  0  0  0  0  0
  161.4500  207.8260  151.5900 C   0  0  0  0  0  0  0  0  0  0  0  0
  161.3280  206.9580  152.6800 C   0  0  0  0  0  3  0  0  0  0  0  0
  162.2340  210.3130  148.2990 O   0  0  0  0  0  0  0  0  0  0  0  0
  162.1490  212.6780  148.8680 C   0  0  0  0  0  2  0  0  0  0  0  0
  160.9190  212.2250  149.5060 N   0  0  1  0  0  0  0  0  0  0  0  0
  162.1520  207.5110  147.9030 C   0  0  0  0  0  2  0  0  0  0  0  0
  163.4530  205.0710  146.8970 C   0  0  0  0  0  1  0  0  0  0  0  0
  160.1700  206.1990  148.0510 O   0  0  0  0  0  0  0  0  0  0  0  0
  161.3840  206.2370  147.7130 C   0  0  0  0  0  0  0  0  0  0  0  0
  162.0180  205.0710  147.1530 N   0  0  0  0  0  0  0  0  0  0  0  0
  161.2030  203.3840  145.6610 C   0  0  0  0  0  2  0  0  0  0  0  0
  161.2700  203.8710  146.8940 C   0  0  0  0  0  0  0  0  0  0  0  0
  160.5970  203.1940  147.9180 O   0  0  0  0  0  0  0  0  0  0  0  0
  161.2450  202.7290  149.0960 C   0  0  0  0  0  3  0  0  0  0  0  0
  160.8690  201.2820  149.3380 C   0  0  0  0  0  1  0  0  0  0  0  0
  160.8160  203.5600  150.2900 C   0  0  0  0  0  1  0  0  0  0  0  0
  1  9  1  0  0  0  0
  2  3  1  0  0  0  0
  2  5  1  0  0  0  0
  3  7  1  1  0  0  0
  4  7  1  0  0  0  0
  5 14  1  0  0  0  0
  6  1  1  0  0  0  0
  8 13  1  0  0  0  0
  8 12  2  0  0  0  0
 10 19  1  0  0  0  0
 11  4  1  0  0  0  0
 12 16  1  0  0  0  0
 13  2  2  0  0  0  0
 14  1  2  0  0  0  0
 15 11  1  0  0  0  0
 16  5  2  0  0  0  0
 16 17  1  0  0  0  0
 17  6  2  0  0  0  0
 18 10  1  0  0  0  0
 18 13  1  0  0  0  0
 20 19  1  1  0  0  0
 20 11  1  0  0  0  0
 20  3  1  0  0  0  0
 21  8  1  0  0  0  0
 22 25  1  0  0  0  0
 24 21  1  0  0  0  0
 24 23  2  0  0  0  0
 25 24  1  0  0  0  0
 26 27  2  0  0  0  0
 27 25  1  0  0  0  0
 27 28  1  0  0  0  0
 28 29  1  0  0  0  0
 29 30  1  0  0  0  0
 29 31  1  0  0  0  0
M  END
>  <MODEL>
2

>  <REMARK>
 VINA RESULT:      -7.0      3.031      5.129
  Name = 
  5 active torsions:
  status: ('A' for Active; 'I' for Inactive)
    1  A    between atoms: C_1  and  O_24
    2  A    between atoms: C_9  and  C_23
    3  A    between atoms: C_15  and  C_23
    4  A    between atoms: C_19  and  N_22
    5  A    between atoms: C_19  and  O_24
                            x       y       z     vdW  Elec       q    Type
                         _______ _______ _______ _____ _____    ______ ____

>  <TORSDO>
F 5

$$$$
=
 OpenBabel11052422403D

 31 34  0  0  1  0  0  0  0  0999 V2000
  159.7620  211.9180  154.5310 C   0  0  0  0  0  0  0  0  0  0  0  0
  160.8380  211.5490  150.9540 C   0  0  0  0  0  0  0  0  0  0  0  0
  160.4560  212.8970  150.3260 C   0  0  2  0  0  3  0  0  0  0  0  0
  158.5880  214.1170  149.5490 C   0  0  0  0  0  2  0  0  0  0  0  0
  160.5520  211.2550  152.3180 C   0  0  0  0  0  0  0  0  0  0  0  0
  159.9710  210.6240  155.0060 C   0  0  0  0  0  3  0  0  0  0  0  0
  159.0940  213.3810  150.7530 C   0  0  0  0  0  2  0  0  0  0  0  0
  161.7030  209.2650  150.7010 C   0  0  0  0  0  0  0  0  0  0  0  0
  159.2740  212.8730  155.3590 F   0  0  0  0  0  0  0  0  0  0  0  0
  162.7170  212.1000  148.6430 C   0  0  0  0  0  2  0  0  0  0  0  0
  159.4650  213.7930  148.4310 N   0  0  0  0  0  0  0  0  0  0  0  0
  161.3290  208.9700  152.0090 C   0  0  0  0  0  3  0  0  0  0  0  0
  161.5370  210.5650  150.1910 C   0  0  0  0  0  0  0  0  0  0  0  0
  160.0510  212.2300  153.2000 C   0  0  0  0  0  3  0  0  0  0  0  0
  158.6310  213.1760  147.4130 C   0  0  0  0  0  1  0  0  0  0  0  0
  160.7830  209.9520  152.8240 C   0  0  0  0  0  0  0  0  0  0  0  0
  160.4830  209.6430  154.1540 C   0  0  0  0  0  3  0  0  0  0  0  0
  162.1050  210.8490  148.9400 O   0  0  0  0  0  0  0  0  0  0  0  0
  161.6780  213.1620  148.3140 C   0  0  0  0  0  2  0  0  0  0  0  0
  160.3770  212.8110  148.8690 N   0  0  1  0  0  0  0  0  0  0  0  0
  162.3670  208.1950  149.8930 C   0  0  0  0  0  2  0  0  0  0  0  0
  162.7590  205.8900  151.6780 C   0  0  0  0  0  1  0  0  0  0  0  0
  160.5490  206.9660  148.9700 O   0  0  0  0  0  0  0  0  0  0  0  0
  161.5020  206.9740  149.7950 C   0  0  0  0  0  0  0  0  0  0  0  0
  161.7510  205.8260  150.6270 N   0  0  0  0  0  0  0  0  0  0  0  0
  160.5970  203.9460  151.5610 C   0  0  0  0  0  2  0  0  0  0  0  0
  160.9770  204.6230  150.4840 C   0  0  0  0  0  0  0  0  0  0  0  0
  160.6110  204.1350  149.2240 O   0  0  0  0  0  0  0  0  0  0  0  0
  161.4810  203.3580  148.4100 C   0  0  0  0  0  3  0  0  0  0  0  0
  161.6430  204.0300  147.0630 C   0  0  0  0  0  1  0  0  0  0  0  0
  160.9050  201.9700  148.2080 C   0  0  0  0  0  1  0  0  0  0  0  0
  1  6  1  0  0  0  0
  1  9  1  0  0  0  0
  2  5  1  0  0  0  0
  3  7  1  1  0  0  0
  3  2  1  0  0  0  0
  4  7  1  0  0  0  0
  5 16  2  0  0  0  0
  5 14  1  0  0  0  0
  8 12  2  0  0  0  0
 10 18  1  0  0  0  0
 11 20  1  0  0  0  0
 11  4  1  0  0  0  0
 12 16  1  0  0  0  0
 13  8  1  0  0  0  0
 13  2  2  0  0  0  0
 14  1  2  0  0  0  0
 15 11  1  0  0  0  0
 16 17  1  0  0  0  0
 17  6  2  0  0  0  0
 18 13  1  0  0  0  0
 19 10  1  0  0  0  0
 20 19  1  6  0  0  0
 20  3  1  0  0  0  0
 21  8  1  0  0  0  0
 23 24  2  0  0  0  0
 24 21  1  0  0  0  0
 24 25  1  0  0  0  0
 25 22  1  0  0  0  0
 27 25  1  0  0  0  0
 27 26  2  0  0  0  0
 28 27  1  0  0  0  0
 29 28  1  0  0  0  0
 30 29  1  0  0  0  0
 31 29  1  0  0  0  0
M  END
>  <MODEL>
3

>  <REMARK>
 VINA RESULT:      -6.9      3.413      5.411
  Name = 
  5 active torsions:
  status: ('A' for Active; 'I' for Inactive)
    1  A    between atoms: C_1  and  O_24
    2  A    between atoms: C_9  and  C_23
    3  A    between atoms: C_15  and  C_23
    4  A    between atoms: C_19  and  N_22
    5  A    between atoms: C_19  and  O_24
                            x       y       z     vdW  Elec       q    Type
                         _______ _______ _______ _____ _____    ______ ____

>  <TORSDO>
F 5

$$$$
=
 OpenBabel11052422403D

 31 34  0  0  1  0  0  0  0  0999 V2000
  159.5860  213.1870  151.7160 C   0  0  0  0  0  0  0  0  0  0  0  0
  160.8530  209.9670  153.1710 C   0  0  0  0  0  0  0  0  0  0  0  0
  160.4370  210.0550  154.6460 C   0  0  2  0  0  3  0  0  0  0  0  0
  161.0250  211.1050  156.6790 C   0  0  0  0  0  2  0  0  0  0  0  0
  160.5950  211.0320  152.2600 C   0  0  0  0  0  0  0  0  0  0  0  0
  160.1340  213.1330  150.4350 C   0  0  0  0  0  3  0  0  0  0  0  0
  160.6900  211.4120  155.2500 C   0  0  0  0  0  2  0  0  0  0  0  0
  162.0320  208.7860  151.3710 C   0  0  0  0  0  0  0  0  0  0  0  0
  158.8360  214.2520  152.0880 F   0  0  0  0  0  0  0  0  0  0  0  0
  160.4550  207.1550  154.2270 C   0  0  0  0  0  2  0  0  0  0  0  0
  161.2550  209.6700  156.7810 N   0  0  0  0  0  0  0  0  0  0  0  0
  161.8520  209.8770  150.5260 C   0  0  0  0  0  3  0  0  0  0  0  0
  161.4720  208.7860  152.6600 C   0  0  0  0  0  0  0  0  0  0  0  0
  159.8140  212.1450  152.6190 C   0  0  0  0  0  3  0  0  0  0  0  0
  162.6160  209.4980  157.2610 C   0  0  0  0  0  1  0  0  0  0  0  0
  161.1220  210.9810  150.9460 C   0  0  0  0  0  0  0  0  0  0  0  0
  160.8990  212.0310  150.0500 C   0  0  0  0  0  3  0  0  0  0  0  0
  161.5230  207.5900  153.3910 O   0  0  0  0  0  0  0  0  0  0  0  0
  160.4730  207.8730  155.5680 C   0  0  0  0  0  2  0  0  0  0  0  0
  161.2040  209.1310  155.4800 N   0  0  1  0  0  0  0  0  0  0  0  0
  162.7510  207.5860  150.8390 C   0  0  0  0  0  2  0  0  0  0  0  0
  160.8640  205.3890  150.3160 C   0  0  0  0  0  1  0  0  0  0  0  0
  162.6920  207.9790  148.4910 O   0  0  0  0  0  0  0  0  0  0  0  0
  162.3000  207.2570  149.4470 C   0  0  0  0  0  0  0  0  0  0  0  0
  161.4320  206.1350  149.1990 N   0  0  0  0  0  0  0  0  0  0  0  0
  160.4350  206.6380  147.0800 C   0  0  0  0  0  2  0  0  0  0  0  0
  161.0600  205.7650  147.8610 C   0  0  0  0  0  0  0  0  0  0  0  0
  161.3360  204.4910  147.3510 O   0  0  0  0  0  0  0  0  0  0  0  0
  161.5940  204.2460  145.9740 C   0  0  0  0  0  3  0  0  0  0  0  0
  161.2050  202.8220  145.6360 C   0  0  0  0  0  1  0  0  0  0  0  0
  163.0670  204.4440  145.6750 C   0  0  0  0  0  1  0  0  0  0  0  0
  1  9  1  0  0  0  0
  1 14  1  0  0  0  0
  2  3  1  0  0  0  0
  3  7  1  1  0  0  0
  3 20  1  0  0  0  0
  4 11  1  0  0  0  0
  5 14  2  0  0  0  0
  5  2  1  0  0  0  0
  6  1  2  0  0  0  0
  7  4  1  0  0  0  0
  8 13  1  0  0  0  0
 10 19  1  0  0  0  0
 11 15  1  0  0  0  0
 12 16  1  0  0  0  0
 12  8  2  0  0  0  0
 13  2  2  0  0  0  0
 13 18  1  0  0  0  0
 16  5  1  0  0  0  0
 17  6  1  0  0  0  0
 17 16  2  0  0  0  0
 18 10  1  0  0  0  0
 20 19  1  1  0  0  0
 20 11  1  0  0  0  0
 21  8  1  0  0  0  0
 23 24  2  0  0  0  0
 24 21  1  0  0  0  0
 25 24  1  0  0  0  0
 25 22  1  0  0  0  0
 26 27  2  0  0  0  0
 27 25  1  0  0  0  0
 28 27  1  0  0  0  0
 29 28  1  0  0  0  0
 30 29  1  0  0  0  0
 31 29  1  0  0  0  0
M  END
>  <MODEL>
4

>  <REMARK>
 VINA RESULT:      -6.6      2.137      3.058
  Name = 
  5 active torsions:
  status: ('A' for Active; 'I' for Inactive)
    1  A    between atoms: C_1  and  O_24
    2  A    between atoms: C_9  and  C_23
    3  A    between atoms: C_15  and  C_23
    4  A    between atoms: C_19  and  N_22
    5  A    between atoms: C_19  and  O_24
                            x       y       z     vdW  Elec       q    Type
                         _______ _______ _______ _____ _____    ______ ____

>  <TORSDO>
F 5

$$$$
=
 OpenBabel11052422403D

 31 34  0  0  1  0  0  0  0  0999 V2000
  161.0770  204.6590  152.2440 C   0  0  0  0  0  0  0  0  0  0  0  0
  161.4080  208.1470  153.5890 C   0  0  0  0  0  0  0  0  0  0  0  0
  161.3930  207.9450  155.1110 C   0  0  2  0  0  3  0  0  0  0  0  0
  159.9280  207.4850  156.9060 C   0  0  0  0  0  2  0  0  0  0  0  0
  161.2570  207.0520  152.6900 C   0  0  0  0  0  0  0  0  0  0  0  0
  160.9250  204.9130  150.8810 C   0  0  0  0  0  3  0  0  0  0  0  0
  160.3470  206.9610  155.5640 C   0  0  0  0  0  2  0  0  0  0  0  0
  161.4340  209.6580  151.6540 C   0  0  0  0  0  0  0  0  0  0  0  0
  161.0600  203.3840  152.7010 F   0  0  0  0  0  0  0  0  0  0  0  0
  162.9840  210.3940  154.8730 C   0  0  0  0  0  2  0  0  0  0  0  0
  160.4670  208.8310  157.0430 N   0  0  0  0  0  0  0  0  0  0  0  0
  161.1910  208.5850  150.8020 C   0  0  0  0  0  3  0  0  0  0  0  0
  161.6230  209.4440  153.0310 C   0  0  0  0  0  0  0  0  0  0  0  0
  161.2430  205.7190  153.1390 C   0  0  0  0  0  3  0  0  0  0  0  0
  159.3320  209.7180  157.2320 C   0  0  0  0  0  1  0  0  0  0  0  0
  161.1270  207.2900  151.3010 C   0  0  0  0  0  0  0  0  0  0  0  0
  160.9520  206.2270  150.4100 C   0  0  0  0  0  3  0  0  0  0  0  0
  162.0520  210.5330  153.8050 O   0  0  0  0  0  0  0  0  0  0  0  0
  162.3090  209.8760  156.1340 C   0  0  0  0  0  2  0  0  0  0  0  0
  161.0670  209.1830  155.8170 N   0  0  1  0  0  0  0  0  0  0  0  0
  161.5810  211.0220  151.0560 C   0  0  0  0  0  2  0  0  0  0  0  0
  161.0100  213.4160  149.4430 C   0  0  0  0  0  1  0  0  0  0  0  0
  159.5310  211.4850  152.1760 O   0  0  0  0  0  0  0  0  0  0  0  0
  160.3590  211.8560  151.3000 C   0  0  0  0  0  0  0  0  0  0  0  0
  160.1290  213.0640  150.5510 N   0  0  0  0  0  0  0  0  0  0  0  0
  158.8120  214.3730  152.0640 C   0  0  0  0  0  2  0  0  0  0  0  0
  159.0030  213.9110  150.8340 C   0  0  0  0  0  0  0  0  0  0  0  0
  158.0850  214.2630  149.8370 O   0  0  0  0  0  0  0  0  0  0  0  0
  157.0720  213.3810  149.3690 C   0  0  0  0  0  3  0  0  0  0  0  0
  157.3950  212.9530  147.9530 C   0  0  0  0  0  1  0  0  0  0  0  0
  155.7250  214.0770  149.3840 C   0  0  0  0  0  1  0  0  0  0  0  0
  1  9  1  0  0  0  0
  1 14  1  0  0  0  0
  2  3  1  0  0  0  0
  3  7  1  6  0  0  0
  3 20  1  0  0  0  0
  4 11  1  0  0  0  0
  5 14  2  0  0  0  0
  5  2  1  0  0  0  0
  6  1  2  0  0  0  0
  7  4  1  0  0  0  0
  8 13  1  0  0  0  0
 10 19  1  0  0  0  0
 11 15  1  0  0  0  0
 12 16  1  0  0  0  0
 12  8  2  0  0  0  0
 13  2  2  0  0  0  0
 13 18  1  0  0  0  0
 16  5  1  0  0  0  0
 17  6  1  0  0  0  0
 17 16  2  0  0  0  0
 18 10  1  0  0  0  0
 20 19  1  1  0  0  0
 20 11  1  0  0  0  0
 21 24  1  0  0  0  0
 21  8  1  0  0  0  0
 22 25  1  0  0  0  0
 24 23  2  0  0  0  0
 25 27  1  0  0  0  0
 25 24  1  0  0  0  0
 27 26  2  0  0  0  0
 28 27  1  0  0  0  0
 29 31  1  0  0  0  0
 29 28  1  0  0  0  0
 30 29  1  0  0  0  0
M  END
>  <MODEL>
5

>  <REMARK>
 VINA RESULT:      -6.2      3.782      7.093
  Name = 
  5 active torsions:
  status: ('A' for Active; 'I' for Inactive)
    1  A    between atoms: C_1  and  O_24
    2  A    between atoms: C_9  and  C_23
    3  A    between atoms: C_15  and  C_23
    4  A    between atoms: C_19  and  N_22
    5  A    between atoms: C_19  and  O_24
                            x       y       z     vdW  Elec       q    Type
                         _______ _______ _______ _____ _____    ______ ____

>  <TORSDO>
F 5

$$$$
=
 OpenBabel11052422403D

 31 34  0  0  1  0  0  0  0  0999 V2000
  161.1890  204.8020  151.5310 C   0  0  0  0  0  0  0  0  0  0  0  0
  161.4220  208.2040  153.0970 C   0  0  0  0  0  0  0  0  0  0  0  0
  161.2180  207.9230  154.5920 C   0  0  2  0  0  3  0  0  0  0  0  0
  159.5370  207.4070  156.1700 C   0  0  0  0  0  2  0  0  0  0  0  0
  161.3590  207.1620  152.1270 C   0  0  0  0  0  0  0  0  0  0  0  0
  161.2080  205.1300  150.1760 C   0  0  0  0  0  3  0  0  0  0  0  0
  160.1050  206.9430  154.8610 C   0  0  0  0  0  2  0  0  0  0  0  0
  161.7110  209.8130  151.2660 C   0  0  0  0  0  0  0  0  0  0  0  0
  161.0920  203.5050  151.9120 F   0  0  0  0  0  0  0  0  0  0  0  0
  162.8730  210.3390  154.6830 C   0  0  0  0  0  2  0  0  0  0  0  0
  160.0820  208.7290  156.4450 N   0  0  0  0  0  0  0  0  0  0  0  0
  161.5530  208.7930  150.3330 C   0  0  0  0  0  3  0  0  0  0  0  0
  161.7280  209.5230  152.6410 C   0  0  0  0  0  0  0  0  0  0  0  0
  161.2650  205.8080  152.4970 C   0  0  0  0  0  3  0  0  0  0  0  0
  158.9490  209.6340  156.5450 C   0  0  0  0  0  1  0  0  0  0  0  0
  161.4040  207.4760  150.7470 C   0  0  0  0  0  0  0  0  0  0  0  0
  161.3170  206.4660  149.7850 C   0  0  0  0  0  3  0  0  0  0  0  0
  162.0800  210.5580  153.5200 O   0  0  0  0  0  0  0  0  0  0  0  0
  162.0400  209.7730  155.8240 C   0  0  0  0  0  2  0  0  0  0  0  0
  160.8320  209.1300  155.3210 N   0  0  1  0  0  0  0  0  0  0  0  0
  161.9560  211.2030  150.7650 C   0  0  0  0  0  2  0  0  0  0  0  0
  160.9880  213.5970  149.3560 C   0  0  0  0  0  1  0  0  0  0  0  0
  162.3300  210.2780  148.6030 O   0  0  0  0  0  0  0  0  0  0  0  0
  161.8970  211.2580  149.2680 C   0  0  0  0  0  0  0  0  0  0  0  0
  161.3550  212.4090  148.5940 N   0  0  0  0  0  0  0  0  0  0  0  0
  162.1880  212.9530  146.4160 C   0  0  0  0  0  2  0  0  0  0  0  0
  161.2200  212.4370  147.1630 C   0  0  0  0  0  0  0  0  0  0  0  0
  160.0810  211.9330  146.5260 O   0  0  0  0  0  0  0  0  0  0  0  0
  159.2890  212.7020  145.6290 C   0  0  0  0  0  3  0  0  0  0  0  0
  157.8300  212.5780  146.0150 C   0  0  0  0  0  1  0  0  0  0  0  0
  159.4730  212.2020  144.2100 C   0  0  0  0  0  1  0  0  0  0  0  0
  1  9  1  0  0  0  0
  1 14  1  0  0  0  0
  2  3  1  0  0  0  0
  3  7  1  6  0  0  0
  3 20  1  0  0  0  0
  4 11  1  0  0  0  0
  5 14  2  0  0  0  0
  5  2  1  0  0  0  0
  6  1  2  0  0  0  0
  7  4  1  0  0  0  0
  8 13  1  0  0  0  0
 10 19  1  0  0  0  0
 11 15  1  0  0  0  0
 12 16  1  0  0  0  0
 12  8  2  0  0  0  0
 13  2  2  0  0  0  0
 13 18  1  0  0  0  0
 16  5  1  0  0  0  0
 17  6  1  0  0  0  0
 17 16  2  0  0  0  0
 18 10  1  0  0  0  0
 20 19  1  1  0  0  0
 20 11  1  0  0  0  0
 21  8  1  0  0  0  0
 23 24  2  0  0  0  0
 24 21  1  0  0  0  0
 25 24  1  0  0  0  0
 25 22  1  0  0  0  0
 26 27  2  0  0  0  0
 27 25  1  0  0  0  0
 28 27  1  0  0  0  0
 29 30  1  0  0  0  0
 29 28  1  0  0  0  0
 31 29  1  0  0  0  0
M  END
>  <MODEL>
6

>  <REMARK>
 VINA RESULT:      -6.2      3.769      6.530
  Name = 
  5 active torsions:
  status: ('A' for Active; 'I' for Inactive)
    1  A    between atoms: C_1  and  O_24
    2  A    between atoms: C_9  and  C_23
    3  A    between atoms: C_15  and  C_23
    4  A    between atoms: C_19  and  N_22
    5  A    between atoms: C_19  and  O_24
                            x       y       z     vdW  Elec       q    Type
                         _______ _______ _______ _____ _____    ______ ____

>  <TORSDO>
F 5

$$$$
=
 OpenBabel11052422403D

 31 34  0  0  1  0  0  0  0  0999 V2000
  160.3750  201.5560  150.4530 C   0  0  0  0  0  0  0  0  0  0  0  0
  161.1850  204.8370  148.8200 C   0  0  0  0  0  0  0  0  0  0  0  0
  160.9130  204.5710  147.3330 C   0  0  2  0  0  3  0  0  0  0  0  0
  161.8390  203.4990  145.4410 C   0  0  0  0  0  2  0  0  0  0  0  0
  161.0400  203.8110  149.7990 C   0  0  0  0  0  0  0  0  0  0  0  0
  160.7980  201.7980  151.7600 C   0  0  0  0  0  3  0  0  0  0  0  0
  161.4440  203.2410  146.8650 C   0  0  0  0  0  2  0  0  0  0  0  0
  161.9910  206.3350  150.5900 C   0  0  0  0  0  0  0  0  0  0  0  0
  159.8530  200.3500  150.1230 F   0  0  0  0  0  0  0  0  0  0  0  0
  160.3980  207.4500  147.5040 C   0  0  0  0  0  2  0  0  0  0  0  0
  161.8260  204.9410  145.2340 N   0  0  0  0  0  0  0  0  0  0  0  0
  161.9320  205.2930  151.5100 C   0  0  0  0  0  3  0  0  0  0  0  0
  161.5480  206.1430  149.2700 C   0  0  0  0  0  0  0  0  0  0  0  0
  160.4940  202.5540  149.4830 C   0  0  0  0  0  3  0  0  0  0  0  0
  163.1720  205.3170  144.8360 C   0  0  0  0  0  1  0  0  0  0  0  0
  161.4400  204.0490  151.1360 C   0  0  0  0  0  0  0  0  0  0  0  0
  161.3280  203.0440  152.1010 C   0  0  0  0  0  3  0  0  0  0  0  0
  161.4530  207.2740  148.4450 O   0  0  0  0  0  0  0  0  0  0  0  0
  160.6500  206.6530  146.2330 C   0  0  0  0  0  2  0  0  0  0  0  0
  161.5760  205.5540  146.4780 N   0  0  1  0  0  0  0  0  0  0  0  0
  162.4470  207.6790  151.0660 C   0  0  0  0  0  2  0  0  0  0  0  0
  161.9180  210.5720  151.1200 C   0  0  0  0  0  1  0  0  0  0  0  0
  160.8050  207.5100  152.7830 O   0  0  0  0  0  0  0  0  0  0  0  0
  161.4620  208.2760  152.0270 C   0  0  0  0  0  0  0  0  0  0  0  0
  161.2660  209.7010  152.0910 N   0  0  0  0  0  0  0  0  0  0  0  0
  159.2940  210.9310  152.6670 C   0  0  0  0  0  2  0  0  0  0  0  0
  160.3840  210.2860  153.0630 C   0  0  0  0  0  0  0  0  0  0  0  0
  160.6480  210.1990  154.4350 O   0  0  0  0  0  0  0  0  0  0  0  0
  159.6570  209.8540  155.3950 C   0  0  0  0  0  3  0  0  0  0  0  0
  159.5930  210.9270  156.4600 C   0  0  0  0  0  1  0  0  0  0  0  0
  160.0000  208.5270  156.0450 C   0  0  0  0  0  1  0  0  0  0  0  0
  1  6  1  0  0  0  0
  2 13  2  0  0  0  0
  2  5  1  0  0  0  0
  3  7  1  6  0  0  0
  3  2  1  0  0  0  0
  4  7  1  0  0  0  0
  5 16  2  0  0  0  0
  6 17  2  0  0  0  0
  8 21  1  0  0  0  0
  8 12  2  0  0  0  0
  9  1  1  0  0  0  0
 10 18  1  0  0  0  0
 11  4  1  0  0  0  0
 11 20  1  0  0  0  0
 13  8  1  0  0  0  0
 14  5  1  0  0  0  0
 14  1  2  0  0  0  0
 15 11  1  0  0  0  0
 16 12  1  0  0  0  0
 16 17  1  0  0  0  0
 18 13  1  0  0  0  0
 19 10  1  0  0  0  0
 20 19  1  6  0  0  0
 20  3  1  0  0  0  0
 21 24  1  0  0  0  0
 22 25  1  0  0  0  0
 24 25  1  0  0  0  0
 24 23  2  0  0  0  0
 25 27  1  0  0  0  0
 26 27  2  0  0  0  0
 27 28  1  0  0  0  0
 28 29  1  0  0  0  0
 29 31  1  0  0  0  0
 29 30  1  0  0  0  0
M  END
>  <MODEL>
7

>  <REMARK>
 VINA RESULT:      -6.1      3.197      8.526
  Name = 
  5 active torsions:
  status: ('A' for Active; 'I' for Inactive)
    1  A    between atoms: C_1  and  O_24
    2  A    between atoms: C_9  and  C_23
    3  A    between atoms: C_15  and  C_23
    4  A    between atoms: C_19  and  N_22
    5  A    between atoms: C_19  and  O_24
                            x       y       z     vdW  Elec       q    Type
                         _______ _______ _______ _____ _____    ______ ____

>  <TORSDO>
F 5

$$$$
=
 OpenBabel11052422403D

 31 34  0  0  1  0  0  0  0  0999 V2000
  160.3560  201.7550  150.7290 C   0  0  0  0  0  0  0  0  0  0  0  0
  161.2080  204.9030  148.8730 C   0  0  0  0  0  0  0  0  0  0  0  0
  160.9490  204.5330  147.4060 C   0  0  2  0  0  3  0  0  0  0  0  0
  161.8850  203.3210  145.6060 C   0  0  0  0  0  2  0  0  0  0  0  0
  161.0460  203.9520  149.9210 C   0  0  0  0  0  0  0  0  0  0  0  0
  160.7680  202.0870  152.0200 C   0  0  0  0  0  3  0  0  0  0  0  0
  161.4740  203.1690  147.0410 C   0  0  0  0  0  2  0  0  0  0  0  0
  162.0090  206.5180  150.5390 C   0  0  0  0  0  0  0  0  0  0  0  0
  159.8270  200.5320  150.4810 F   0  0  0  0  0  0  0  0  0  0  0  0
  160.4560  207.4200  147.3650 C   0  0  0  0  0  2  0  0  0  0  0  0
  161.8850  204.7440  145.2950 N   0  0  0  0  0  0  0  0  0  0  0  0
  161.9330  205.5460  151.5310 C   0  0  0  0  0  3  0  0  0  0  0  0
  161.5770  206.2360  149.2310 C   0  0  0  0  0  0  0  0  0  0  0  0
  160.4930  202.6790  149.6910 C   0  0  0  0  0  3  0  0  0  0  0  0
  163.2390  205.0810  144.8850 C   0  0  0  0  0  1  0  0  0  0  0  0
  161.4340  204.2820  151.2420 C   0  0  0  0  0  0  0  0  0  0  0  0
  161.3040  203.3500  152.2760 C   0  0  0  0  0  3  0  0  0  0  0  0
  161.5000  207.3050  148.3270 O   0  0  0  0  0  0  0  0  0  0  0  0
  160.7140  206.5320  146.1560 C   0  0  0  0  0  2  0  0  0  0  0  0
  161.6290  205.4470  146.4900 N   0  0  1  0  0  0  0  0  0  0  0  0
  162.4710  207.8900  150.9210 C   0  0  0  0  0  2  0  0  0  0  0  0
  161.9550  210.7860  150.9250 C   0  0  0  0  0  1  0  0  0  0  0  0
  160.9220  207.7750  152.7260 O   0  0  0  0  0  0  0  0  0  0  0  0
  161.5410  208.5170  151.9160 C   0  0  0  0  0  0  0  0  0  0  0  0
  161.3520  209.9440  151.9520 N   0  0  0  0  0  0  0  0  0  0  0  0
  160.9990  210.7570  154.1770 C   0  0  0  0  0  2  0  0  0  0  0  0
  160.5250  210.5600  152.9530 C   0  0  0  0  0  0  0  0  0  0  0  0
  159.2130  210.9600  152.6710 O   0  0  0  0  0  0  0  0  0  0  0  0
  158.7240  212.2660  152.9500 C   0  0  0  0  0  3  0  0  0  0  0  0
  157.5340  212.1690  153.8800 C   0  0  0  0  0  1  0  0  0  0  0  0
  158.2970  212.9480  151.6650 C   0  0  0  0  0  1  0  0  0  0  0  0
  1  6  1  0  0  0  0
  2 13  2  0  0  0  0
  2  5  1  0  0  0  0
  3  7  1  1  0  0  0
  3  2  1  0  0  0  0
  4  7  1  0  0  0  0
  5 16  2  0  0  0  0
  6 17  2  0  0  0  0
  8 21  1  0  0  0  0
  8 12  2  0  0  0  0
  9  1  1  0  0  0  0
 10 18  1  0  0  0  0
 11  4  1  0  0  0  0
 11 20  1  0  0  0  0
 13  8  1  0  0  0  0
 14  5  1  0  0  0  0
 14  1  2  0  0  0  0
 15 11  1  0  0  0  0
 16 12  1  0  0  0  0
 16 17  1  0  0  0  0
 18 13  1  0  0  0  0
 19 10  1  0  0  0  0
 20 19  1  6  0  0  0
 20  3  1  0  0  0  0
 21 24  1  0  0  0  0
 22 25  1  0  0  0  0
 24 25  1  0  0  0  0
 24 23  2  0  0  0  0
 25 27  1  0  0  0  0
 27 26  2  0  0  0  0
 28 29  1  0  0  0  0
 28 27  1  0  0  0  0
 29 30  1  0  0  0  0
 31 29  1  0  0  0  0
M  END
>  <MODEL>
8

>  <REMARK>
 VINA RESULT:      -5.9      3.397      8.557
  Name = 
  5 active torsions:
  status: ('A' for Active; 'I' for Inactive)
    1  A    between atoms: C_1  and  O_24
    2  A    between atoms: C_9  and  C_23
    3  A    between atoms: C_15  and  C_23
    4  A    between atoms: C_19  and  N_22
    5  A    between atoms: C_19  and  O_24
                            x       y       z     vdW  Elec       q    Type
                         _______ _______ _______ _____ _____    ______ ____

>  <TORSDO>
F 5

$$$$
=
 OpenBabel11052422403D

 31 34  0  0  1  0  0  0  0  0999 V2000
  157.9940  212.6910  154.4670 C   0  0  0  0  0  0  0  0  0  0  0  0
  159.6900  212.5280  151.1230 C   0  0  0  0  0  0  0  0  0  0  0  0
  158.9460  213.5840  150.2950 C   0  0  2  0  0  3  0  0  0  0  0  0
  156.9120  213.9470  149.1490 C   0  0  0  0  0  2  0  0  0  0  0  0
  159.3170  212.2370  152.4680 C   0  0  0  0  0  0  0  0  0  0  0  0
  158.5850  211.6090  155.1190 C   0  0  0  0  0  3  0  0  0  0  0  0
  157.4520  213.5390  150.4870 C   0  0  0  0  0  2  0  0  0  0  0  0
  161.3620  210.7360  151.2590 C   0  0  0  0  0  0  0  0  0  0  0  0
  157.0630  213.4400  155.1070 F   0  0  0  0  0  0  0  0  0  0  0  0
  161.5810  213.6020  149.0140 C   0  0  0  0  0  2  0  0  0  0  0  0
  158.0140  213.9090  148.1970 N   0  0  0  0  0  0  0  0  0  0  0  0
  160.9180  210.4060  152.5360 C   0  0  0  0  0  3  0  0  0  0  0  0
  160.8150  211.8380  150.5780 C   0  0  0  0  0  0  0  0  0  0  0  0
  158.3580  213.0030  153.1550 C   0  0  0  0  0  3  0  0  0  0  0  0
  157.6410  212.9550  147.1650 C   0  0  0  0  0  1  0  0  0  0  0  0
  159.9260  211.1570  153.1520 C   0  0  0  0  0  0  0  0  0  0  0  0
  159.5500  210.8440  154.4620 C   0  0  0  0  0  3  0  0  0  0  0  0
  161.4320  212.2340  149.3830 O   0  0  0  0  0  0  0  0  0  0  0  0
  160.2920  214.1640  148.4330 C   0  0  0  0  0  2  0  0  0  0  0  0
  159.1400  213.3800  148.8600 N   0  0  1  0  0  0  0  0  0  0  0  0
  162.4940  209.9500  150.6750 C   0  0  0  0  0  2  0  0  0  0  0  0
  162.3300  207.1530  151.5730 C   0  0  0  0  0  1  0  0  0  0  0  0
  161.5730  209.1750  148.6210 O   0  0  0  0  0  0  0  0  0  0  0  0
  161.9910  208.8660  149.7690 C   0  0  0  0  0  0  0  0  0  0  0  0
  161.9830  207.4910  150.1980 N   0  0  0  0  0  0  0  0  0  0  0  0
  161.9580  206.4590  148.0370 C   0  0  0  0  0  2  0  0  0  0  0  0
  161.5770  206.4380  149.3080 C   0  0  0  0  0  0  0  0  0  0  0  0
  160.7770  205.3770  149.7490 O   0  0  0  0  0  0  0  0  0  0  0  0
  161.3010  204.1020  150.0960 C   0  0  0  0  0  3  0  0  0  0  0  0
  160.8310  203.0740  149.0880 C   0  0  0  0  0  1  0  0  0  0  0  0
  160.8240  203.6990  151.4770 C   0  0  0  0  0  1  0  0  0  0  0  0
  1  9  1  0  0  0  0
  1  6  1  0  0  0  0
  2  5  1  0  0  0  0
  3  7  1  6  0  0  0
  3  2  1  0  0  0  0
  4  7  1  0  0  0  0
  5 16  2  0  0  0  0
  5 14  1  0  0  0  0
  8 12  2  0  0  0  0
 10 18  1  0  0  0  0
 11 20  1  0  0  0  0
 11  4  1  0  0  0  0
 12 16  1  0  0  0  0
 13  2  2  0  0  0  0
 13  8  1  0  0  0  0
 14  1  2  0  0  0  0
 15 11  1  0  0  0  0
 16 17  1  0  0  0  0
 17  6  2  0  0  0  0
 18 13  1  0  0  0  0
 19 10  1  0  0  0  0
 20 19  1  6  0  0  0
 20  3  1  0  0  0  0
 21  8  1  0  0  0  0
 23 24  2  0  0  0  0
 24 25  1  0  0  0  0
 24 21  1  0  0  0  0
 25 22  1  0  0  0  0
 26 27  2  0  0  0  0
 27 28  1  0  0  0  0
 27 25  1  0  0  0  0
 28 29  1  0  0  0  0
 29 31  1  0  0  0  0
 30 29  1  0  0  0  0
M  END
>  <MODEL>
9

>  <REMARK>
 VINA RESULT:      -5.9      4.209      6.390
  Name = 
  5 active torsions:
  status: ('A' for Active; 'I' for Inactive)
    1  A    between atoms: C_1  and  O_24
    2  A    between atoms: C_9  and  C_23
    3  A    between atoms: C_15  and  C_23
    4  A    between atoms: C_19  and  N_22
    5  A    between atoms: C_19  and  O_24
                            x       y       z     vdW  Elec       q    Type
                         _______ _______ _______ _____ _____    ______ ____

>  <TORSDO>
F 5

$$$$
