=
 OpenBabel11052422533D

 28 32  0  0  1  0  0  0  0  0999 V2000
  161.0730  210.1900  153.7500 C   0  0  0  0  0  0  0  0  0  0  0  0
  161.1360  211.0610  152.5200 C   0  0  1  0  0  3  0  0  0  0  0  0
  161.1600  208.9630  151.1260 C   0  0  1  0  0  3  0  0  0  0  0  0
  161.8270  204.6740  151.0080 C   0  0  0  0  0  2  0  0  0  0  0  0
  160.9030  207.8860  157.2590 O   0  0  0  0  0  1  0  0  0  0  0  0
  161.7780  210.3420  151.3280 C   0  0  0  0  0  2  0  0  0  0  0  0
  161.7450  206.2030  148.5490 C   0  0  0  0  0  2  0  0  0  0  0  0
  161.2660  206.7330  152.3230 C   0  0  0  0  0  0  0  0  0  0  0  0
  161.2820  203.8130  148.7950 N   0  0  0  0  0  0  0  0  0  0  0  0
  161.4080  206.0790  151.0430 N   0  0  0  0  0  0  0  0  0  0  0  0
  161.8420  208.2470  149.9690 C   0  0  0  0  0  2  0  0  0  0  0  0
  160.8440  205.0420  148.1480 C   0  0  0  0  0  2  0  0  0  0  0  0
  161.0580  208.0020  154.8360 C   0  0  0  0  0  0  0  0  0  0  0  0
  161.2080  208.1430  152.3970 C   0  0  0  0  0  0  0  0  0  0  0  0
  161.2110  206.8720  149.8120 C   0  0  1  0  0  3  0  0  0  0  0  0
  160.9120  210.0270  156.1640 C   0  0  0  0  0  3  0  0  0  0  0  0
  161.1190  206.6070  154.7490 C   0  0  0  0  0  3  0  0  0  0  0  0
  160.9580  208.6320  156.0870 C   0  0  0  0  0  0  0  0  0  0  0  0
  160.5540  202.7300  148.1600 C   0  0  0  0  0  1  0  0  0  0  0  0
  160.8530  203.8390  150.1870 C   0  0  0  0  0  2  0  0  0  0  0  0
  161.2260  205.9820  153.5080 C   0  0  0  0  0  3  0  0  0  0  0  0
  160.9710  210.7990  155.0030 C   0  0  0  0  0  3  0  0  0  0  0  0
  161.1040  208.7800  153.6540 C   0  0  0  0  0  0  0  0  0  0  0  0
  159.7390  212.6920  151.2290 C   0  0  0  0  0  0  0  0  0  0  0  0
  158.6110  211.0720  152.7790 C   0  0  0  0  0  1  0  0  0  0  0  0
  159.8250  211.6180  152.1800 N   0  0  0  0  0  0  0  0  0  0  0  0
  158.4230  213.2780  150.8450 C   0  0  0  0  0  1  0  0  0  0  0  0
  160.7860  213.1600  150.7040 O   0  0  0  0  0  0  0  0  0  0  0  0
  1 22  1  0  0  0  0
  2 26  1  6  0  0  0
  2  1  1  0  0  0  0
  3 11  1  6  0  0  0
  3  6  1  0  0  0  0
  3 14  1  0  0  0  0
  4 10  1  0  0  0  0
  6  2  1  0  0  0  0
  8 14  2  0  0  0  0
  8 21  1  0  0  0  0
  9 20  1  0  0  0  0
 10  8  1  0  0  0  0
 12  7  1  0  0  0  0
 12  9  1  0  0  0  0
 13 18  2  0  0  0  0
 14 23  1  0  0  0  0
 15  7  1  6  0  0  0
 15 11  1  0  0  0  0
 15 10  1  0  0  0  0
 17 13  1  0  0  0  0
 18 16  1  0  0  0  0
 18  5  1  0  0  0  0
 19  9  1  0  0  0  0
 20  4  1  0  0  0  0
 21 17  2  0  0  0  0
 22 16  2  0  0  0  0
 23  1  2  0  0  0  0
 23 13  1  0  0  0  0
 24 26  1  0  0  0  0
 26 25  1  0  0  0  0
 27 24  1  0  0  0  0
 28 24  2  0  0  0  0
M  END
>  <MODEL>
1

>  <REMARK>
 VINA RESULT:      -8.2      0.000      0.000
  Name = 
  1 active torsions:
  status: ('A' for Active; 'I' for Inactive)
    1  A    between atoms: C_2  and  N_11
                            x       y       z     vdW  Elec       q    Type
                         _______ _______ _______ _____ _____    ______ ____

>  <TORSDO>
F 1

$$$$
=
 OpenBabel11052422533D

 28 32  0  0  1  0  0  0  0  0999 V2000
  160.6470  209.9320  154.7700 C   0  0  0  0  0  0  0  0  0  0  0  0
  160.8100  211.1660  153.9180 C   0  0  1  0  0  3  0  0  0  0  0  0
  161.0900  209.6590  151.9180 C   0  0  1  0  0  3  0  0  0  0  0  0
  161.9630  205.6640  150.4610 C   0  0  0  0  0  2  0  0  0  0  0  0
  160.1840  206.5810  157.2600 O   0  0  0  0  0  1  0  0  0  0  0  0
  161.6170  210.8930  152.6430 C   0  0  0  0  0  2  0  0  0  0  0  0
  162.0930  207.9300  148.6620 C   0  0  0  0  0  2  0  0  0  0  0  0
  161.1610  207.1570  152.3080 C   0  0  0  0  0  0  0  0  0  0  0  0
  161.7150  205.5940  148.0390 N   0  0  0  0  0  0  0  0  0  0  0  0
  161.4790  206.9720  150.9100 N   0  0  0  0  0  0  0  0  0  0  0  0
  161.9320  209.3780  150.6820 C   0  0  0  0  0  2  0  0  0  0  0  0
  161.2980  206.9670  147.7890 C   0  0  0  0  0  2  0  0  0  0  0  0
  160.6090  207.5060  155.0540 C   0  0  0  0  0  0  0  0  0  0  0  0
  161.0300  208.4600  152.8390 C   0  0  0  0  0  0  0  0  0  0  0  0
  161.3870  208.1320  150.0000 C   0  0  1  0  0  3  0  0  0  0  0  0
  160.2200  208.9650  156.9520 C   0  0  0  0  0  3  0  0  0  0  0  0
  160.7440  206.2220  154.5150 C   0  0  0  0  0  3  0  0  0  0  0  0
  160.3380  207.6780  156.4210 C   0  0  0  0  0  0  0  0  0  0  0  0
  161.1150  204.7850  146.9940 C   0  0  0  0  0  1  0  0  0  0  0  0
  161.1290  205.1490  149.2960 C   0  0  0  0  0  2  0  0  0  0  0  0
  161.0210  206.0510  153.1600 C   0  0  0  0  0  3  0  0  0  0  0  0
  160.3750  210.0840  156.1310 C   0  0  0  0  0  3  0  0  0  0  0  0
  160.7540  208.6370  154.2140 C   0  0  0  0  0  0  0  0  0  0  0  0
  159.0810  212.9080  154.4240 C   0  0  0  0  0  0  0  0  0  0  0  0
  158.7040  211.3270  152.5120 C   0  0  0  0  0  1  0  0  0  0  0  0
  159.5230  211.7990  153.6240 N   0  0  0  0  0  0  0  0  0  0  0  0
  157.7830  213.5880  154.1480 C   0  0  0  0  0  1  0  0  0  0  0  0
  159.7910  213.3230  155.3790 O   0  0  0  0  0  0  0  0  0  0  0  0
  1 22  1  0  0  0  0
  2 26  1  6  0  0  0
  2  1  1  0  0  0  0
  3 11  1  6  0  0  0
  3  6  1  0  0  0  0
  3 14  1  0  0  0  0
  4 10  1  0  0  0  0
  6  2  1  0  0  0  0
  8 14  2  0  0  0  0
  8 21  1  0  0  0  0
  9 20  1  0  0  0  0
 10  8  1  0  0  0  0
 12  9  1  0  0  0  0
 12  7  1  0  0  0  0
 13 18  2  0  0  0  0
 14 23  1  0  0  0  0
 15  7  1  6  0  0  0
 15 11  1  0  0  0  0
 15 10  1  0  0  0  0
 17 13  1  0  0  0  0
 18 16  1  0  0  0  0
 18  5  1  0  0  0  0
 19  9  1  0  0  0  0
 20  4  1  0  0  0  0
 21 17  2  0  0  0  0
 22 16  2  0  0  0  0
 23  1  2  0  0  0  0
 23 13  1  0  0  0  0
 24 28  2  0  0  0  0
 25 26  1  0  0  0  0
 26 24  1  0  0  0  0
 27 24  1  0  0  0  0
M  END
>  <MODEL>
2

>  <REMARK>
 VINA RESULT:      -8.0      1.536      1.783
  Name = 
  1 active torsions:
  status: ('A' for Active; 'I' for Inactive)
    1  A    between atoms: C_2  and  N_11
                            x       y       z     vdW  Elec       q    Type
                         _______ _______ _______ _____ _____    ______ ____

>  <TORSDO>
F 1

$$$$
=
 OpenBabel11052422533D

 28 32  0  0  1  0  0  0  0  0999 V2000
  161.1040  209.6290  153.3730 C   0  0  0  0  0  0  0  0  0  0  0  0
  161.3130  210.7530  152.3900 C   0  0  1  0  0  3  0  0  0  0  0  0
  161.4100  209.0320  150.5530 C   0  0  1  0  0  3  0  0  0  0  0  0
  161.9580  204.8560  149.5000 C   0  0  0  0  0  2  0  0  0  0  0  0
  160.5250  206.5940  156.2200 O   0  0  0  0  0  1  0  0  0  0  0  0
  162.0470  210.2940  151.1250 C   0  0  0  0  0  2  0  0  0  0  0  0
  162.1620  206.9080  147.4670 C   0  0  0  0  0  2  0  0  0  0  0  0
  161.3330  206.5840  151.2040 C   0  0  0  0  0  0  0  0  0  0  0  0
  161.6060  204.5530  147.1080 N   0  0  0  0  0  0  0  0  0  0  0  0
  161.5800  206.2340  149.8240 N   0  0  0  0  0  0  0  0  0  0  0  0
  162.1800  208.5650  149.3260 C   0  0  0  0  0  2  0  0  0  0  0  0
  161.2700  205.9190  146.7290 C   0  0  0  0  0  2  0  0  0  0  0  0
  160.9190  207.2530  153.9140 C   0  0  0  0  0  0  0  0  0  0  0  0
  161.3100  207.9410  151.5980 C   0  0  0  0  0  0  0  0  0  0  0  0
  161.5280  207.2970  148.7990 C   0  0  1  0  0  3  0  0  0  0  0  0
  160.7050  208.9250  155.6590 C   0  0  0  0  0  3  0  0  0  0  0  0
  160.9460  205.9150  153.5110 C   0  0  0  0  0  3  0  0  0  0  0  0
  160.7160  207.5850  155.2640 C   0  0  0  0  0  0  0  0  0  0  0  0
  160.9110  203.6830  146.1770 C   0  0  0  0  0  1  0  0  0  0  0  0
  161.0440  204.2820  148.4250 C   0  0  0  0  0  2  0  0  0  0  0  0
  161.1560  205.5860  152.1720 C   0  0  0  0  0  3  0  0  0  0  0  0
  160.8990  209.9390  154.7200 C   0  0  0  0  0  3  0  0  0  0  0  0
  161.1030  208.2790  152.9550 C   0  0  0  0  0  0  0  0  0  0  0  0
  160.0540  212.4840  151.0880 C   0  0  0  0  0  0  0  0  0  0  0  0
  158.8170  211.0530  152.7360 C   0  0  0  0  0  1  0  0  0  0  0  0
  160.0590  211.4410  152.0750 N   0  0  0  0  0  0  0  0  0  0  0  0
  158.7960  213.1990  150.7280 C   0  0  0  0  0  1  0  0  0  0  0  0
  161.1240  212.8150  150.5090 O   0  0  0  0  0  0  0  0  0  0  0  0
  1 22  1  0  0  0  0
  2 26  1  6  0  0  0
  2  1  1  0  0  0  0
  3 11  1  6  0  0  0
  3  6  1  0  0  0  0
  3 14  1  0  0  0  0
  4 10  1  0  0  0  0
  6  2  1  0  0  0  0
  8 14  2  0  0  0  0
  8 21  1  0  0  0  0
  9 20  1  0  0  0  0
 10  8  1  0  0  0  0
 12  9  1  0  0  0  0
 12  7  1  0  0  0  0
 13 18  2  0  0  0  0
 14 23  1  0  0  0  0
 15  7  1  6  0  0  0
 15 11  1  0  0  0  0
 15 10  1  0  0  0  0
 17 13  1  0  0  0  0
 18 16  1  0  0  0  0
 18  5  1  0  0  0  0
 19  9  1  0  0  0  0
 20  4  1  0  0  0  0
 21 17  2  0  0  0  0
 22 16  2  0  0  0  0
 23  1  2  0  0  0  0
 23 13  1  0  0  0  0
 24 26  1  0  0  0  0
 26 25  1  0  0  0  0
 27 24  1  0  0  0  0
 28 24  2  0  0  0  0
M  END
>  <MODEL>
3

>  <REMARK>
 VINA RESULT:      -7.1      1.053      1.187
  Name = 
  1 active torsions:
  status: ('A' for Active; 'I' for Inactive)
    1  A    between atoms: C_2  and  N_11
                            x       y       z     vdW  Elec       q    Type
                         _______ _______ _______ _____ _____    ______ ____

>  <TORSDO>
F 1

$$$$
=
 OpenBabel11052422533D

 28 32  0  0  1  0  0  0  0  0999 V2000
  160.8610  203.8830  148.6650 C   0  0  0  0  0  0  0  0  0  0  0  0
  160.8210  205.0600  147.7240 C   0  0  1  0  0  3  0  0  0  0  0  0
  161.0260  206.5750  149.7260 C   0  0  1  0  0  3  0  0  0  0  0  0
  160.6510  206.9930  154.0310 C   0  0  0  0  0  2  0  0  0  0  0  0
  160.9520  200.5140  151.1730 O   0  0  0  0  0  1  0  0  0  0  0  0
  160.3070  206.3340  148.4030 C   0  0  0  0  0  2  0  0  0  0  0  0
  160.7920  209.3450  152.3480 C   0  0  0  0  0  2  0  0  0  0  0  0
  160.9880  205.5220  152.0300 C   0  0  0  0  0  0  0  0  0  0  0  0
  161.3940  209.2100  154.7160 N   0  0  0  0  0  0  0  0  0  0  0  0
  160.9730  206.8460  152.6090 N   0  0  0  0  0  0  0  0  0  0  0  0
  160.4700  207.8170  150.4080 C   0  0  0  0  0  2  0  0  0  0  0  0
  161.7920  209.7510  153.4230 C   0  0  0  0  0  2  0  0  0  0  0  0
  160.9480  202.9300  150.9130 C   0  0  0  0  0  0  0  0  0  0  0  0
  160.9490  205.3610  150.6270 C   0  0  0  0  0  0  0  0  0  0  0  0
  161.1980  208.0110  151.7290 C   0  0  1  0  0  3  0  0  0  0  0  0
  160.8730  201.4780  148.9720 C   0  0  0  0  0  3  0  0  0  0  0  0
  160.9850  203.1040  152.3000 C   0  0  0  0  0  3  0  0  0  0  0  0
  160.9250  201.6400  150.3590 C   0  0  0  0  0  0  0  0  0  0  0  0
  162.2320  209.8560  155.7090 C   0  0  0  0  0  1  0  0  0  0  0  0
  161.7290  207.7920  154.7510 C   0  0  0  0  0  2  0  0  0  0  0  0
  161.0000  204.3850  152.8510 C   0  0  0  0  0  3  0  0  0  0  0  0
  160.8400  202.5920  148.1320 C   0  0  0  0  0  3  0  0  0  0  0  0
  160.9280  204.0640  150.0650 C   0  0  0  0  0  0  0  0  0  0  0  0
  162.4360  204.5270  145.8840 C   0  0  0  0  0  0  0  0  0  0  0  0
  163.0530  206.2610  147.5900 C   0  0  0  0  0  1  0  0  0  0  0  0
  162.1120  205.2760  147.0660 N   0  0  0  0  0  0  0  0  0  0  0  0
  163.7340  204.7270  145.1770 C   0  0  0  0  0  1  0  0  0  0  0  0
  161.6210  203.6820  145.4250 O   0  0  0  0  0  0  0  0  0  0  0  0
  1 23  1  0  0  0  0
  2 26  1  1  0  0  0
  2  6  1  0  0  0  0
  2  1  1  0  0  0  0
  3  6  1  6  0  0  0
  3 11  1  0  0  0  0
  3 14  1  0  0  0  0
  4 20  1  0  0  0  0
  7 12  1  0  0  0  0
  8 10  1  0  0  0  0
  8 21  1  0  0  0  0
  9 20  1  0  0  0  0
  9 19  1  0  0  0  0
 10  4  1  0  0  0  0
 12  9  1  0  0  0  0
 13 17  1  0  0  0  0
 14  8  2  0  0  0  0
 15 11  1  6  0  0  0
 15  7  1  0  0  0  0
 15 10  1  0  0  0  0
 16 18  2  0  0  0  0
 17 21  2  0  0  0  0
 18 13  1  0  0  0  0
 18  5  1  0  0  0  0
 22  1  2  0  0  0  0
 22 16  1  0  0  0  0
 23 14  1  0  0  0  0
 23 13  2  0  0  0  0
 24 26  1  0  0  0  0
 26 25  1  0  0  0  0
 27 24  1  0  0  0  0
 28 24  2  0  0  0  0
M  END
>  <MODEL>
4

>  <REMARK>
 VINA RESULT:      -6.9      3.312      7.300
  Name = 
  1 active torsions:
  status: ('A' for Active; 'I' for Inactive)
    1  A    between atoms: C_2  and  N_11
                            x       y       z     vdW  Elec       q    Type
                         _______ _______ _______ _____ _____    ______ ____

>  <TORSDO>
F 1

$$$$
=
 OpenBabel11052422533D

 28 32  0  0  1  0  0  0  0  0999 V2000
  161.6900  204.1540  148.8070 C   0  0  0  0  0  0  0  0  0  0  0  0
  161.5130  203.3040  150.0390 C   0  0  1  0  0  3  0  0  0  0  0  0
  161.2560  205.4240  151.3760 C   0  0  1  0  0  3  0  0  0  0  0  0
  161.8740  209.7180  151.5490 C   0  0  0  0  0  2  0  0  0  0  0  0
  162.2070  206.4010  145.2940 O   0  0  0  0  0  1  0  0  0  0  0  0
  161.9060  204.0450  151.3220 C   0  0  0  0  0  2  0  0  0  0  0  0
  161.3160  208.2280  153.9700 C   0  0  0  0  0  2  0  0  0  0  0  0
  161.5890  207.6350  150.1840 C   0  0  0  0  0  0  0  0  0  0  0  0
  160.9030  210.6110  153.5970 N   0  0  0  0  0  0  0  0  0  0  0  0
  161.4750  208.3100  151.4560 N   0  0  0  0  0  0  0  0  0  0  0  0
  161.6950  206.1630  152.6320 C   0  0  0  0  0  2  0  0  0  0  0  0
  160.3500  209.3900  154.1660 C   0  0  0  0  0  2  0  0  0  0  0  0
  161.8830  206.3250  147.7020 C   0  0  0  0  0  0  0  0  0  0  0  0
  161.5510  206.2240  150.1250 C   0  0  0  0  0  0  0  0  0  0  0  0
  161.0420  207.5360  152.6380 C   0  0  1  0  0  3  0  0  0  0  0  0
  162.0070  204.2780  146.4060 C   0  0  0  0  0  3  0  0  0  0  0  0
  161.9210  207.7210  147.7760 C   0  0  0  0  0  3  0  0  0  0  0  0
  162.0320  205.6730  146.4660 C   0  0  0  0  0  0  0  0  0  0  0  0
  160.0610  211.6990  154.0580 C   0  0  0  0  0  1  0  0  0  0  0  0
  160.7560  210.5600  152.1480 C   0  0  0  0  0  2  0  0  0  0  0  0
  161.7810  208.3660  149.0030 C   0  0  0  0  0  3  0  0  0  0  0  0
  161.8390  203.5240  147.5680 C   0  0  0  0  0  3  0  0  0  0  0  0
  161.6980  205.5650  148.8830 C   0  0  0  0  0  0  0  0  0  0  0  0
  159.8810  201.4800  149.5010 C   0  0  0  0  0  0  0  0  0  0  0  0
  159.1160  203.4470  150.8590 C   0  0  0  0  0  1  0  0  0  0  0  0
  160.1630  202.7430  150.1250 N   0  0  0  0  0  0  0  0  0  0  0  0
  158.5220  200.8700  149.5780 C   0  0  0  0  0  1  0  0  0  0  0  0
  160.7860  200.8670  148.8740 O   0  0  0  0  0  0  0  0  0  0  0  0
  1 23  1  0  0  0  0
  1  2  1  0  0  0  0
  2 26  1  1  0  0  0
  2  6  1  0  0  0  0
  3  6  1  6  0  0  0
  3 11  1  0  0  0  0
  4 20  1  0  0  0  0
  5 18  1  0  0  0  0
  7 12  1  0  0  0  0
  8 10  1  0  0  0  0
  9 19  1  0  0  0  0
  9 12  1  0  0  0  0
 10  4  1  0  0  0  0
 10 15  1  0  0  0  0
 13 17  2  0  0  0  0
 13 23  1  0  0  0  0
 14  8  1  0  0  0  0
 14  3  1  0  0  0  0
 15 11  1  1  0  0  0
 15  7  1  0  0  0  0
 16 18  2  0  0  0  0
 16 22  1  0  0  0  0
 17 21  1  0  0  0  0
 18 13  1  0  0  0  0
 20  9  1  0  0  0  0
 21  8  2  0  0  0  0
 22  1  2  0  0  0  0
 23 14  2  0  0  0  0
 24 27  1  0  0  0  0
 24 26  1  0  0  0  0
 26 25  1  0  0  0  0
 28 24  2  0  0  0  0
M  END
>  <MODEL>
5

>  <REMARK>
 VINA RESULT:      -6.1      3.072      8.028
  Name = 
  1 active torsions:
  status: ('A' for Active; 'I' for Inactive)
    1  A    between atoms: C_2  and  N_11
                            x       y       z     vdW  Elec       q    Type
                         _______ _______ _______ _____ _____    ______ ____

>  <TORSDO>
F 1

$$$$
