=
 OpenBabel11062408453D

 55 59  0  0  1  0  0  0  0  0999 V2000
  160.6210  212.6410  151.7000 C   0  0  0  0  0  3  0  0  0  0  0  0
  159.6240  208.1510  154.1030 C   0  0  0  0  0  2  0  0  0  0  0  0
  157.5940  210.1190  154.1110 O   0  0  0  0  0  0  0  0  0  0  0  0
  157.0830  213.0700  156.6300 C   0  0  0  0  0  2  0  0  0  0  0  0
  155.6810  213.1680  157.2170 C   0  0  0  0  0  2  0  0  0  0  0  0
  156.0530  213.8300  154.4500 C   0  0  0  0  0  0  0  0  0  0  0  0
  155.0800  214.4490  155.1290 C   0  0  0  0  0  3  0  0  0  0  0  0
  159.1100  211.6820  154.8990 O   0  0  0  0  0  0  0  0  0  0  0  0
  154.9670  214.3870  156.6290 C   0  0  0  0  0  2  0  0  0  0  0  0
  160.9320  212.0880  149.3260 C   0  0  0  0  0  2  0  0  0  0  0  0
  156.9820  212.8450  155.1180 C   0  0  1  0  0  3  0  0  0  0  0  0
  162.2760  209.7140  150.3300 C   0  0  1  0  0  3  0  0  0  0  0  0
  159.4770  212.7690  152.3180 C   0  0  0  0  0  0  0  0  0  0  0  0
  162.0980  210.8990  151.0930 O   0  0  0  0  0  0  0  0  0  0  0  0
  157.1580  213.5730  152.2630 C   0  0  0  0  0  0  0  0  0  0  0  0
  160.8480  207.4800  154.1980 O   0  0  0  0  0  0  0  0  0  0  0  0
  156.1130  213.9890  152.9970 C   0  0  0  0  0  3  0  0  0  0  0  0
  159.5540  209.2440  155.1600 C   0  0  0  0  0  2  0  0  0  0  0  0
  158.6910  210.3620  154.6810 C   0  0  0  0  0  0  0  0  0  0  0  0
  161.9480  211.3560  148.4560 C   0  0  0  0  0  2  0  0  0  0  0  0
  161.1390  207.1080  152.8810 C   0  0  1  0  0  3  0  0  0  0  0  0
  160.8780  211.5240  150.7510 C   0  0  1  0  0  3  0  0  0  0  0  0
  158.3700  212.8310  154.4690 C   0  0  2  0  0  3  0  0  0  0  0  0
  158.3420  212.9480  152.9530 C   0  0  0  0  0  0  0  0  0  0  0  0
  162.0540  208.1390  152.2470 C   0  0  0  0  0  2  0  0  0  0  0  0
  161.4810  208.5470  150.8990 C   0  0  0  0  0  2  0  0  0  0  0  0
  161.9880  209.8830  148.8280 C   0  0  0  0  0  2  0  0  0  0  0  0
  158.1710  213.4600  149.9650 C   0  0  0  0  0  3  0  0  0  0  0  0
  156.9380  214.1210  147.9730 C   0  0  0  0  0  0  0  0  0  0  0  0
  155.9200  214.2910  150.1780 C   0  0  0  0  0  3  0  0  0  0  0  0
  155.8460  214.4530  148.7910 C   0  0  0  0  0  3  0  0  0  0  0  0
  158.1010  213.6200  148.5750 C   0  0  0  0  0  3  0  0  0  0  0  0
  157.0860  213.8040  150.7870 C   0  0  0  0  0  0  0  0  0  0  0  0
  156.8570  214.2740  146.5430 N   0  0  0  0  0  0  0  0  0  0  0  0
  155.5610  214.4050  145.8740 C   0  0  0  0  0  1  0  0  0  0  0  0
  158.0540  214.2660  145.7090 C   0  0  0  0  0  1  0  0  0  0  0  0
  163.0710  205.6310  153.6040 C   0  0  0  0  0  1  0  0  0  0  0  0
  161.7780  205.7200  152.8020 C   0  0  2  0  0  3  0  0  0  0  0  0
  161.8770  205.2020  151.4680 O   0  0  0  0  0  0  0  0  0  0  0  0
  161.5200  203.9010  151.0530 C   0  0  0  0  0  0  0  0  0  0  0  0
  161.9540  202.9220  151.7170 O   0  0  0  0  0  0  0  0  0  0  0  0
  160.6440  203.6590  149.8510 C   0  0  2  0  0  3  0  0  0  0  0  0
  159.5130  202.6870  150.1340 C   0  0  0  0  0  1  0  0  0  0  0  0
  161.3850  203.3830  148.5270 C   0  0  1  0  0  3  0  0  0  0  0  0
  161.1810  201.9510  148.1190 C   0  0  0  0  0  0  0  0  0  0  0  0
  161.9020  201.0490  148.6260 O   0  0  0  0  0  1  0  0  0  0  0  0
  160.2060  201.6040  147.1830 O   0  0  0  0  0  0  0  0  0  0  0  0
  161.1290  204.3620  147.3540 C   0  0  2  0  0  3  0  0  0  0  0  0
  161.9570  203.9530  146.1250 C   0  0  1  0  0  3  0  0  0  0  0  0
  161.2260  204.1220  144.9530 O   0  0  0  0  0  1  0  0  0  0  0  0
  163.2700  204.7170  146.0330 C   0  0  0  0  0  2  0  0  0  0  0  0
  163.1780  205.7120  145.0480 O   0  0  0  0  0  1  0  0  0  0  0  0
  161.3590  205.8370  147.7020 C   0  0  0  0  0  2  0  0  0  0  0  0
  159.6460  206.2090  146.4610 O   0  0  0  0  0  1  0  0  0  0  0  0
  160.8690  206.6480  146.6690 O   0  0  0  0  0  0  0  0  0  0  0  0
  1 13  2  0  0  0  0
  2 16  1  0  0  0  0
  2 18  1  0  0  0  0
  3 19  2  0  0  0  0
  4  5  1  0  0  0  0
  6 11  1  0  0  0  0
  6  7  2  0  0  0  0
  7  9  1  0  0  0  0
  9  5  1  0  0  0  0
 11  4  1  1  0  0  0
 12 27  1  6  0  0  0
 12 26  1  0  0  0  0
 12 14  1  0  0  0  0
 13 24  2  0  0  0  0
 15 24  1  0  0  0  0
 15 17  2  0  0  0  0
 17  6  1  0  0  0  0
 19  8  1  0  0  0  0
 19 18  1  0  0  0  0
 20 27  1  0  0  0  0
 20 10  1  0  0  0  0
 21 38  1  1  0  0  0
 21 16  1  0  0  0  0
 22 10  1  6  0  0  0
 22 14  1  0  0  0  0
 22  1  1  0  0  0  0
 23 24  1  6  0  0  0
 23  8  1  0  0  0  0
 23 11  1  0  0  0  0
 25 21  1  0  0  0  0
 26 25  1  0  0  0  0
 28 33  1  0  0  0  0
 29 32  1  0  0  0  0
 29 31  2  0  0  0  0
 30 33  2  0  0  0  0
 31 30  1  0  0  0  0
 32 28  2  0  0  0  0
 33 15  1  0  0  0  0
 34 29  1  0  0  0  0
 35 34  1  0  0  0  0
 36 34  1  0  0  0  0
 38 37  1  6  0  0  0
 39 38  1  0  0  0  0
 40 39  1  0  0  0  0
 40 41  2  0  0  0  0
 42 43  1  1  0  0  0
 42 40  1  0  0  0  0
 44 45  1  6  0  0  0
 44 42  1  0  0  0  0
 45 46  1  0  0  0  0
 47 45  2  0  0  0  0
 48 53  1  1  0  0  0
 48 44  1  0  0  0  0
 49 50  1  6  0  0  0
 49 48  1  0  0  0  0
 51 49  1  0  0  0  0
 52 51  1  0  0  0  0
 54 55  1  0  0  0  0
 55 53  1  0  0  0  0
M  END
>  <MODEL>
1

>  <REMARK>
 VINA RESULT:      -2.7      0.000      0.000
  Name = 
  13 active torsions:
  status: ('A' for Active; 'I' for Inactive)
    1  A    between atoms: C_1  and  C_53
    2  A    between atoms: C_3  and  O_14
    3  A    between atoms: C_3  and  C_38
    4  A    between atoms: C_6  and  C_20
    5  A    between atoms: C_6  and  C_53
    6  A    between atoms: C_8  and  O_22
    7  A    between atoms: C_8  and  C_43
    8  A    between atoms: N_10  and  C_32
    9  A    between atoms: C_11  and  C_29
   10  A    between atoms: C_20  and  O_22
   11  A    between atoms: C_29  and  C_38
   12  A    between atoms: C_33  and  C_52
   13  A    between atoms: C_38  and  C_53
                            x       y       z     vdW  Elec       q    Type
                         _______ _______ _______ _____ _____    ______ ____

>  <TORSDO>
F 13

$$$$
=
 OpenBabel11062408453D

 55 59  0  0  1  0  0  0  0  0999 V2000
  162.3970  210.2750  150.7280 C   0  0  0  0  0  3  0  0  0  0  0  0
  160.2490  206.3840  153.4070 C   0  0  0  0  0  2  0  0  0  0  0  0
  159.2470  208.9900  153.8520 O   0  0  0  0  0  0  0  0  0  0  0  0
  160.5590  211.7030  156.3480 C   0  0  0  0  0  2  0  0  0  0  0  0
  159.4910  212.3060  157.2500 C   0  0  0  0  0  2  0  0  0  0  0  0
  159.4570  212.9710  154.4600 C   0  0  0  0  0  0  0  0  0  0  0  0
  158.9990  213.8730  155.3360 C   0  0  0  0  0  3  0  0  0  0  0  0
  161.4000  209.7590  154.2180 O   0  0  0  0  0  0  0  0  0  0  0  0
  159.2160  213.7490  156.8210 C   0  0  0  0  0  2  0  0  0  0  0  0
  161.9090  209.8240  148.3620 C   0  0  0  0  0  2  0  0  0  0  0  0
  160.0340  211.6510  154.9100 C   0  0  1  0  0  3  0  0  0  0  0  0
  162.3690  207.0420  149.0730 C   0  0  1  0  0  3  0  0  0  0  0  0
  161.5760  210.8000  151.5980 C   0  0  0  0  0  0  0  0  0  0  0  0
  162.8640  208.1400  149.8280 O   0  0  0  0  0  0  0  0  0  0  0  0
  159.8330  212.4610  152.0790 C   0  0  0  0  0  0  0  0  0  0  0  0
  161.0840  205.2770  153.2240 O   0  0  0  0  0  0  0  0  0  0  0  0
  159.2430  213.2010  153.0310 C   0  0  0  0  0  3  0  0  0  0  0  0
  160.8690  207.3320  154.4240 C   0  0  0  0  0  2  0  0  0  0  0  0
  160.4460  208.7330  154.1370 C   0  0  0  0  0  0  0  0  0  0  0  0
  162.3150  208.8160  147.2930 C   0  0  0  0  0  2  0  0  0  0  0  0
  160.8910  204.9200  151.8840 C   0  0  1  0  0  3  0  0  0  0  0  0
  161.9580  209.2220  149.7720 C   0  0  1  0  0  3  0  0  0  0  0  0
  161.1110  211.1350  153.9490 C   0  0  2  0  0  3  0  0  0  0  0  0
  160.7880  211.3670  152.4810 C   0  0  0  0  0  0  0  0  0  0  0  0
  161.9740  205.5470  151.0250 C   0  0  0  0  0  2  0  0  0  0  0  0
  161.3240  206.2480  149.8430 C   0  0  0  0  0  2  0  0  0  0  0  0
  161.8400  207.4240  147.6800 C   0  0  0  0  0  2  0  0  0  0  0  0
  160.5570  212.8630  149.7050 C   0  0  0  0  0  3  0  0  0  0  0  0
  158.9640  213.3580  147.9330 C   0  0  0  0  0  0  0  0  0  0  0  0
  158.2090  213.0190  150.2220 C   0  0  0  0  0  3  0  0  0  0  0  0
  157.9290  213.2940  148.8800 C   0  0  0  0  0  3  0  0  0  0  0  0
  160.2810  213.1370  148.3600 C   0  0  0  0  0  3  0  0  0  0  0  0
  159.5270  212.8120  150.6580 C   0  0  0  0  0  0  0  0  0  0  0  0
  158.6750  213.6270  146.5470 N   0  0  0  0  0  0  0  0  0  0  0  0
  159.5740  214.4520  145.7390 C   0  0  0  0  0  1  0  0  0  0  0  0
  157.4630  213.1210  145.9120 C   0  0  0  0  0  1  0  0  0  0  0  0
  161.8710  202.6920  152.6020 C   0  0  0  0  0  1  0  0  0  0  0  0
  160.8800  203.4030  151.6890 C   0  0  2  0  0  3  0  0  0  0  0  0
  160.9500  202.9950  150.3150 O   0  0  0  0  0  0  0  0  0  0  0  0
  160.5060  201.7610  149.7910 C   0  0  0  0  0  0  0  0  0  0  0  0
  159.7340  201.0550  150.4930 O   0  0  0  0  0  0  0  0  0  0  0  0
  160.9300  201.2750  148.4290 C   0  0  2  0  0  3  0  0  0  0  0  0
  162.3460  200.7260  148.4160 C   0  0  0  0  0  1  0  0  0  0  0  0
  160.6210  202.2240  147.2530 C   0  0  1  0  0  3  0  0  0  0  0  0
  161.1810  203.5890  147.5390 C   0  0  0  0  0  0  0  0  0  0  0  0
  162.4270  203.7390  147.6660 O   0  0  0  0  0  0  0  0  0  0  0  0
  160.3410  204.6960  147.6690 O   0  0  0  0  0  1  0  0  0  0  0  0
  160.9880  201.7340  145.8310 C   0  0  2  0  0  3  0  0  0  0  0  0
  160.4640  202.7180  144.7730 C   0  0  1  0  0  3  0  0  0  0  0  0
  159.1500  203.0860  145.0430 O   0  0  0  0  0  1  0  0  0  0  0  0
  161.3370  203.9600  144.6550 C   0  0  0  0  0  2  0  0  0  0  0  0
  160.5550  205.0620  144.2800 O   0  0  0  0  0  1  0  0  0  0  0  0
  160.5320  200.3040  145.5190 C   0  0  0  0  0  2  0  0  0  0  0  0
  161.1450  198.2450  145.5470 O   0  0  0  0  0  1  0  0  0  0  0  0
  161.3830  199.3880  146.1550 O   0  0  0  0  0  0  0  0  0  0  0  0
  1 13  2  0  0  0  0
  2 18  1  0  0  0  0
  3 19  2  0  0  0  0
  4  5  1  0  0  0  0
  6 11  1  0  0  0  0
  6  7  2  0  0  0  0
  7  9  1  0  0  0  0
  9  5  1  0  0  0  0
 11  4  1  1  0  0  0
 12 27  1  6  0  0  0
 12 14  1  0  0  0  0
 12 26  1  0  0  0  0
 13 24  2  0  0  0  0
 15 24  1  0  0  0  0
 15 17  2  0  0  0  0
 16  2  1  0  0  0  0
 17  6  1  0  0  0  0
 19  8  1  0  0  0  0
 19 18  1  0  0  0  0
 20 27  1  0  0  0  0
 20 10  1  0  0  0  0
 21 38  1  1  0  0  0
 21 16  1  0  0  0  0
 22 10  1  6  0  0  0
 22 14  1  0  0  0  0
 22  1  1  0  0  0  0
 23 24  1  6  0  0  0
 23  8  1  0  0  0  0
 23 11  1  0  0  0  0
 25 21  1  0  0  0  0
 26 25  1  0  0  0  0
 28 33  1  0  0  0  0
 29 32  1  0  0  0  0
 29 31  2  0  0  0  0
 30 33  2  0  0  0  0
 31 30  1  0  0  0  0
 32 28  2  0  0  0  0
 33 15  1  0  0  0  0
 34 29  1  0  0  0  0
 35 34  1  0  0  0  0
 36 34  1  0  0  0  0
 38 37  1  1  0  0  0
 39 38  1  0  0  0  0
 40 39  1  0  0  0  0
 40 41  2  0  0  0  0
 42 43  1  1  0  0  0
 42 40  1  0  0  0  0
 44 45  1  1  0  0  0
 44 42  1  0  0  0  0
 45 46  2  0  0  0  0
 45 47  1  0  0  0  0
 48 53  1  6  0  0  0
 48 44  1  0  0  0  0
 49 50  1  1  0  0  0
 49 48  1  0  0  0  0
 51 49  1  0  0  0  0
 52 51  1  0  0  0  0
 53 55  1  0  0  0  0
 54 55  1  0  0  0  0
M  END
>  <MODEL>
2

>  <REMARK>
 VINA RESULT:      -1.4      2.063      3.260
  Name = 
  13 active torsions:
  status: ('A' for Active; 'I' for Inactive)
    1  A    between atoms: C_1  and  C_53
    2  A    between atoms: C_3  and  O_14
    3  A    between atoms: C_3  and  C_38
    4  A    between atoms: C_6  and  C_20
    5  A    between atoms: C_6  and  C_53
    6  A    between atoms: C_8  and  O_22
    7  A    between atoms: C_8  and  C_43
    8  A    between atoms: N_10  and  C_32
    9  A    between atoms: C_11  and  C_29
   10  A    between atoms: C_20  and  O_22
   11  A    between atoms: C_29  and  C_38
   12  A    between atoms: C_33  and  C_52
   13  A    between atoms: C_38  and  C_53
                            x       y       z     vdW  Elec       q    Type
                         _______ _______ _______ _____ _____    ______ ____

>  <TORSDO>
F 13

$$$$
=
 OpenBabel11062408453D

 55 59  0  0  1  0  0  0  0  0999 V2000
  160.9210  212.5560  150.6350 C   0  0  0  0  0  3  0  0  0  0  0  0
  160.3030  208.0740  153.1750 C   0  0  0  0  0  2  0  0  0  0  0  0
  158.3440  210.0760  153.5570 O   0  0  0  0  0  0  0  0  0  0  0  0
  158.3550  213.0240  156.1300 C   0  0  0  0  0  2  0  0  0  0  0  0
  157.0870  213.1450  156.9640 C   0  0  0  0  0  2  0  0  0  0  0  0
  156.9570  213.8120  154.1770 C   0  0  0  0  0  0  0  0  0  0  0  0
  156.1360  214.4440  155.0230 C   0  0  0  0  0  3  0  0  0  0  0  0
  160.0060  211.6100  154.0560 O   0  0  0  0  0  0  0  0  0  0  0  0
  156.2990  214.3780  156.5190 C   0  0  0  0  0  2  0  0  0  0  0  0
  160.7820  212.0080  148.2430 C   0  0  0  0  0  2  0  0  0  0  0  0
  157.9750  212.8080  154.6620 C   0  0  1  0  0  3  0  0  0  0  0  0
  162.2450  209.6060  148.9810 C   0  0  1  0  0  3  0  0  0  0  0  0
  159.9120  212.7010  151.4520 C   0  0  0  0  0  0  0  0  0  0  0  0
  162.2310  210.7910  149.7660 O   0  0  0  0  0  0  0  0  0  0  0  0
  157.6370  213.5440  151.8240 C   0  0  0  0  0  0  0  0  0  0  0  0
  161.5120  207.3810  153.0440 O   0  0  0  0  0  0  0  0  0  0  0  0
  156.7520  213.9750  152.7380 C   0  0  0  0  0  3  0  0  0  0  0  0
  160.4470  209.1630  154.2290 C   0  0  0  0  0  2  0  0  0  0  0  0
  159.5310  210.2970  153.9160 C   0  0  0  0  0  0  0  0  0  0  0  0
  161.6080  211.2620  147.2010 C   0  0  0  0  0  2  0  0  0  0  0  0
  161.5490  207.0100  151.6950 C   0  0  1  0  0  3  0  0  0  0  0  0
  160.9810  211.4390  149.6530 C   0  0  1  0  0  3  0  0  0  0  0  0
  159.2200  212.7730  153.7700 C   0  0  2  0  0  3  0  0  0  0  0  0
  158.9170  212.8960  152.2840 C   0  0  0  0  0  0  0  0  0  0  0  0
  162.3510  208.0280  150.9050 C   0  0  0  0  0  2  0  0  0  0  0  0
  161.5480  208.4510  149.6850 C   0  0  0  0  0  2  0  0  0  0  0  0
  161.6900  209.7870  147.5580 C   0  0  0  0  0  2  0  0  0  0  0  0
  158.2770  214.2750  149.5050 C   0  0  0  0  0  3  0  0  0  0  0  0
  156.7280  214.1360  147.6320 C   0  0  0  0  0  0  0  0  0  0  0  0
  156.0400  213.4530  149.8650 C   0  0  0  0  0  3  0  0  0  0  0  0
  155.7530  213.6310  148.5080 C   0  0  0  0  0  3  0  0  0  0  0  0
  157.9940  214.4530  148.1450 C   0  0  0  0  0  3  0  0  0  0  0  0
  157.3000  213.7830  150.3870 C   0  0  0  0  0  0  0  0  0  0  0  0
  156.4380  214.3050  146.2310 N   0  0  0  0  0  0  0  0  0  0  0  0
  155.0580  214.4440  145.7610 C   0  0  0  0  0  1  0  0  0  0  0  0
  157.4990  214.3080  145.2300 C   0  0  0  0  0  1  0  0  0  0  0  0
  163.2500  205.3060  152.4970 C   0  0  0  0  0  1  0  0  0  0  0  0
  162.1390  205.6120  151.4990 C   0  0  2  0  0  3  0  0  0  0  0  0
  162.4730  205.3090  150.1370 O   0  0  0  0  0  0  0  0  0  0  0  0
  161.5860  205.3390  149.0380 C   0  0  0  0  0  0  0  0  0  0  0  0
  160.3570  205.4930  149.2660 O   0  0  0  0  0  0  0  0  0  0  0  0
  162.0710  205.1920  147.6190 C   0  0  2  0  0  3  0  0  0  0  0  0
  162.6080  206.4900  147.0440 C   0  0  0  0  0  1  0  0  0  0  0  0
  161.1270  204.4330  146.6640 C   0  0  1  0  0  3  0  0  0  0  0  0
  161.0250  205.1680  145.3570 C   0  0  0  0  0  0  0  0  0  0  0  0
  160.0600  205.9550  145.1570 O   0  0  0  0  0  1  0  0  0  0  0  0
  161.9840  204.9920  144.3590 O   0  0  0  0  0  0  0  0  0  0  0  0
  161.3920  202.9210  146.4590 C   0  0  2  0  0  3  0  0  0  0  0  0
  160.1720  202.2460  145.8100 C   0  0  1  0  0  3  0  0  0  0  0  0
  160.0060  202.6750  144.4970 O   0  0  0  0  0  1  0  0  0  0  0  0
  160.2610  200.7270  145.8520 C   0  0  0  0  0  2  0  0  0  0  0  0
  160.7700  200.2430  144.6380 O   0  0  0  0  0  1  0  0  0  0  0  0
  161.8150  202.1760  147.7300 C   0  0  0  0  0  2  0  0  0  0  0  0
  161.2700  201.8180  149.7770 O   0  0  0  0  0  1  0  0  0  0  0  0
  160.7260  202.0840  148.6080 O   0  0  0  0  0  0  0  0  0  0  0  0
  1 13  2  0  0  0  0
  2 18  1  0  0  0  0
  3 19  2  0  0  0  0
  4  5  1  0  0  0  0
  6 11  1  0  0  0  0
  6  7  2  0  0  0  0
  7  9  1  0  0  0  0
  9  5  1  0  0  0  0
 11  4  1  1  0  0  0
 12 27  1  6  0  0  0
 12 26  1  0  0  0  0
 12 14  1  0  0  0  0
 13 24  2  0  0  0  0
 15 24  1  0  0  0  0
 15 17  2  0  0  0  0
 16  2  1  0  0  0  0
 17  6  1  0  0  0  0
 19  8  1  0  0  0  0
 19 18  1  0  0  0  0
 20 27  1  0  0  0  0
 20 10  1  0  0  0  0
 21 38  1  1  0  0  0
 21 16  1  0  0  0  0
 22 10  1  6  0  0  0
 22 14  1  0  0  0  0
 22  1  1  0  0  0  0
 23 24  1  6  0  0  0
 23  8  1  0  0  0  0
 23 11  1  0  0  0  0
 25 21  1  0  0  0  0
 26 25  1  0  0  0  0
 28 33  1  0  0  0  0
 29 32  1  0  0  0  0
 29 31  2  0  0  0  0
 30 33  2  0  0  0  0
 31 30  1  0  0  0  0
 32 28  2  0  0  0  0
 33 15  1  0  0  0  0
 34 29  1  0  0  0  0
 35 34  1  0  0  0  0
 36 34  1  0  0  0  0
 38 37  1  1  0  0  0
 39 38  1  0  0  0  0
 40 41  2  0  0  0  0
 40 39  1  0  0  0  0
 42 43  1  6  0  0  0
 42 40  1  0  0  0  0
 44 45  1  6  0  0  0
 44 42  1  0  0  0  0
 46 45  1  0  0  0  0
 47 45  2  0  0  0  0
 48 44  1  0  0  0  0
 48 53  1  1  0  0  0
 49 50  1  6  0  0  0
 49 51  1  0  0  0  0
 49 48  1  0  0  0  0
 52 51  1  0  0  0  0
 53 55  1  0  0  0  0
 55 54  1  0  0  0  0
M  END
>  <MODEL>
3

>  <REMARK>
 VINA RESULT:      -1.2      1.295      2.490
  Name = 
  13 active torsions:
  status: ('A' for Active; 'I' for Inactive)
    1  A    between atoms: C_1  and  C_53
    2  A    between atoms: C_3  and  O_14
    3  A    between atoms: C_3  and  C_38
    4  A    between atoms: C_6  and  C_20
    5  A    between atoms: C_6  and  C_53
    6  A    between atoms: C_8  and  O_22
    7  A    between atoms: C_8  and  C_43
    8  A    between atoms: N_10  and  C_32
    9  A    between atoms: C_11  and  C_29
   10  A    between atoms: C_20  and  O_22
   11  A    between atoms: C_29  and  C_38
   12  A    between atoms: C_33  and  C_52
   13  A    between atoms: C_38  and  C_53
                            x       y       z     vdW  Elec       q    Type
                         _______ _______ _______ _____ _____    ______ ____

>  <TORSDO>
F 13

$$$$
