=
 OpenBabel11062410033D

 43 47  0  0  1  0  0  0  0  0999 V2000
  161.1890  200.9220  147.4880 C   0  0  0  0  0  0  0  0  0  0  0  0
  161.0960  204.7960  150.7380 C   0  0  0  0  0  0  0  0  0  0  0  0
  160.8930  207.2470  149.3600 C   0  0  1  0  0  3  0  0  0  0  0  0
  161.2680  202.2890  149.4860 C   0  0  0  0  0  0  0  0  0  0  0  0
  160.9730  202.0630  146.7110 C   0  0  0  0  0  3  0  0  0  0  0  0
  161.2570  199.6750  146.8830 O   0  0  0  0  0  1  0  0  0  0  0  0
  161.0570  203.4510  148.7070 C   0  0  0  0  0  0  0  0  0  0  0  0
  161.3360  201.0340  148.8720 C   0  0  0  0  0  3  0  0  0  0  0  0
  160.9070  203.3210  147.3160 C   0  0  0  0  0  3  0  0  0  0  0  0
  160.8430  205.9690  148.5170 C   0  0  0  0  0  2  0  0  0  0  0  0
  161.0040  204.7140  149.3350 C   0  0  0  0  0  0  0  0  0  0  0  0
  161.3310  203.6360  151.4910 C   0  0  0  0  0  3  0  0  0  0  0  0
  161.0620  206.1560  151.4000 C   0  0  1  0  0  3  0  0  0  0  0  0
  160.3240  207.0980  150.6480 O   0  0  0  0  0  0  0  0  0  0  0  0
  161.4110  202.3890  150.8690 C   0  0  0  0  0  3  0  0  0  0  0  0
  162.2240  208.0130  149.3130 C   0  0  1  0  0  3  0  0  0  0  0  0
  163.1530  207.3440  148.3100 C   0  0  0  0  0  1  0  0  0  0  0  0
  162.0320  209.4240  148.9840 N   0  0  0  0  0  2  0  0  0  0  0  0
  161.6970  210.1510  150.2050 C   0  0  1  0  0  3  0  0  0  0  0  0
  162.7480  209.8670  151.2630 C   0  0  0  0  0  1  0  0  0  0  0  0
  161.6750  211.6560  149.9440 C   0  0  0  0  0  2  0  0  0  0  0  0
  160.3320  212.3170  150.2620 C   0  0  1  0  0  3  0  0  0  0  0  0
  159.0880  214.2540  151.8390 C   0  0  0  0  0  2  0  0  0  0  0  0
  160.0910  212.2600  151.7780 C   0  0  0  0  0  2  0  0  0  0  0  0
  160.2610  213.7060  149.7390 N   0  0  0  0  0  0  0  0  0  0  0  0
  159.1420  214.4530  150.3300 C   0  0  0  0  0  2  0  0  0  0  0  0
  158.8850  212.8950  152.1080 O   0  0  0  0  0  0  0  0  0  0  0  0
  160.0330  213.7530  148.2850 C   0  0  0  0  0  3  0  0  0  0  0  0
  161.1280  214.4510  147.4630 C   0  0  0  0  0  2  0  0  0  0  0  0
  162.0470  213.0180  145.7930 O   0  0  0  0  0  1  0  0  0  0  0  0
  162.2330  213.4740  147.0970 C   0  0  0  0  0  2  0  0  0  0  0  0
  158.5920  214.1150  147.9140 C   0  0  0  0  0  2  0  0  0  0  0  0
  156.9240  213.6860  146.2670 O   0  0  0  0  0  1  0  0  0  0  0  0
  158.2890  213.9200  146.4360 C   0  0  0  0  0  2  0  0  0  0  0  0
  160.5420  206.1170  152.8420 C   0  0  0  0  0  2  0  0  0  0  0  0
  159.9220  207.4070  155.9010 C   0  0  0  0  0  2  0  0  0  0  0  0
  160.2100  209.1950  155.7690 P   0  0  1  0  0  0  0  0  0  0  0  0
  158.7400  210.0110  155.5950 O   0  0  0  0  0  0  0  0  0  0  0  0
  160.7580  208.5290  153.4460 C   0  0  0  0  0  2  0  0  0  0  0  0
  161.0950  206.7050  155.2270 C   0  0  0  0  0  2  0  0  0  0  0  0
  161.2620  207.1080  153.7480 C   0  0  1  0  0  3  0  0  0  0  0  0
  160.9240  209.6850  157.0100 O   0  0  0  0  0  1  0  0  0  0  0  0
  161.1940  209.4530  154.4070 O   0  0  0  0  0  0  0  0  0  0  0  0
  1  8  1  0  0  0  0
  2 13  1  0  0  0  0
  2 12  1  0  0  0  0
  3 16  1  1  0  0  0
  3 14  1  0  0  0  0
  4 15  1  0  0  0  0
  5  9  1  0  0  0  0
  5  1  2  0  0  0  0
  6  1  1  0  0  0  0
  7 11  1  0  0  0  0
  7  4  1  0  0  0  0
  8  4  2  0  0  0  0
  9  7  2  0  0  0  0
 10 11  1  0  0  0  0
 10  3  1  0  0  0  0
 11  2  2  0  0  0  0
 13 35  1  1  0  0  0
 14 13  1  0  0  0  0
 15 12  2  0  0  0  0
 16 17  1  6  0  0  0
 18 16  1  0  0  0  0
 18 19  1  0  0  0  0
 19 20  1  1  0  0  0
 21 19  1  0  0  0  0
 22 21  1  1  0  0  0
 22 24  1  0  0  0  0
 23 27  1  0  0  0  0
 24 27  1  0  0  0  0
 25 22  1  0  0  0  0
 25 26  1  0  0  0  0
 26 23  1  0  0  0  0
 28 25  1  0  0  0  0
 29 28  1  0  0  0  0
 30 31  1  0  0  0  0
 31 29  1  0  0  0  0
 32 28  1  0  0  0  0
 33 34  1  0  0  0  0
 34 32  1  0  0  0  0
 37 38  2  6  0  0  0
 37 36  1  0  0  0  0
 37 42  1  0  0  0  0
 39 41  1  0  0  0  0
 39 43  1  0  0  0  0
 40 36  1  0  0  0  0
 41 35  1  6  0  0  0
 41 40  1  0  0  0  0
 43 37  1  0  0  0  0
M  END
>  <MODEL>
1

>  <REMARK>
 VINA RESULT:      -7.1      0.000      0.000
  Name = 
  12 active torsions:
  status: ('A' for Active; 'I' for Inactive)
    1  A    between atoms: C_1  and  C_34
    2  A    between atoms: C_1  and  C_35
    3  A    between atoms: C_2  and  N_6
    4  A    between atoms: C_2  and  C_13
    5  A    between atoms: C_3  and  C_4
    6  A    between atoms: C_3  and  C_12
    7  A    between atoms: N_6  and  C_12
    8  A    between atoms: C_11  and  C_14
    9  A    between atoms: C_11  and  C_36
   10  A    between atoms: C_14  and  N_22
   11  A    between atoms: C_14  and  C_40
   12  A    between atoms: C_31  and  C_40
                            x       y       z     vdW  Elec       q    Type
                         _______ _______ _______ _____ _____    ______ ____

>  <TORSDO>
F 12

$$$$
=
 OpenBabel11062410033D

 43 47  0  0  1  0  0  0  0  0999 V2000
  160.9190  213.6680  147.0500 C   0  0  0  0  0  0  0  0  0  0  0  0
  160.4340  211.9460  151.7800 C   0  0  0  0  0  0  0  0  0  0  0  0
  162.2350  209.8300  152.2590 C   0  0  1  0  0  3  0  0  0  0  0  0
  160.1690  213.2680  149.3180 C   0  0  0  0  0  0  0  0  0  0  0  0
  161.9250  212.7120  147.2110 C   0  0  0  0  0  3  0  0  0  0  0  0
  160.7900  214.3420  145.8440 O   0  0  0  0  0  1  0  0  0  0  0  0
  161.1810  212.2940  149.4880 C   0  0  0  0  0  0  0  0  0  0  0  0
  160.0430  213.9450  148.1010 C   0  0  0  0  0  3  0  0  0  0  0  0
  162.0570  212.0290  148.4220 C   0  0  0  0  0  3  0  0  0  0  0  0
  162.3210  210.5210  150.8950 C   0  0  0  0  0  2  0  0  0  0  0  0
  161.2910  211.6060  150.7150 C   0  0  0  0  0  0  0  0  0  0  0  0
  159.4200  212.8950  151.5850 C   0  0  0  0  0  3  0  0  0  0  0  0
  160.5440  211.1860  153.0850 C   0  0  1  0  0  3  0  0  0  0  0  0
  161.8500  210.6980  153.3100 O   0  0  0  0  0  0  0  0  0  0  0  0
  159.2920  213.5560  150.3630 C   0  0  0  0  0  3  0  0  0  0  0  0
  161.5490  208.4550  152.2570 C   0  0  1  0  0  3  0  0  0  0  0  0
  160.6110  208.3610  153.4520 C   0  0  0  0  0  1  0  0  0  0  0  0
  160.8300  208.2040  151.0100 N   0  0  0  0  0  2  0  0  0  0  0  0
  161.4290  207.0510  150.3460 C   0  0  1  0  0  3  0  0  0  0  0  0
  162.2670  206.2730  151.3460 C   0  0  0  0  0  1  0  0  0  0  0  0
  160.3450  206.1190  149.8050 C   0  0  0  0  0  2  0  0  0  0  0  0
  160.6500  205.5620  148.4130 C   0  0  1  0  0  3  0  0  0  0  0  0
  162.5990  205.4080  146.4220 C   0  0  0  0  0  2  0  0  0  0  0  0
  161.1440  206.7040  147.5120 C   0  0  0  0  0  2  0  0  0  0  0  0
  161.6190  204.4370  148.4670 N   0  0  0  0  0  0  0  0  0  0  0  0
  162.1750  204.1340  147.1410 C   0  0  0  0  0  2  0  0  0  0  0  0
  161.4720  206.2190  146.2390 O   0  0  0  0  0  0  0  0  0  0  0  0
  161.0030  203.1810  148.9250 C   0  0  0  0  0  3  0  0  0  0  0  0
  161.3860  202.7310  150.3440 C   0  0  0  0  0  2  0  0  0  0  0  0
  160.7250  203.2440  152.5770 O   0  0  0  0  0  1  0  0  0  0  0  0
  160.2310  202.9440  151.3070 C   0  0  0  0  0  2  0  0  0  0  0  0
  161.0110  202.0830  147.8570 C   0  0  0  0  0  2  0  0  0  0  0  0
  161.5450  199.8170  147.3480 O   0  0  0  0  0  1  0  0  0  0  0  0
  161.4180  200.7230  148.4020 C   0  0  0  0  0  2  0  0  0  0  0  0
  160.0720  211.9940  154.2990 C   0  0  0  0  0  2  0  0  0  0  0  0
  156.7550  212.4270  154.7700 C   0  0  0  0  0  2  0  0  0  0  0  0
  156.4680  212.2720  156.5560 P   0  0  1  0  0  0  0  0  0  0  0  0
  156.3370  213.8020  157.2610 O   0  0  0  0  0  1  0  0  0  0  0  0
  158.9160  211.8870  156.5090 C   0  0  0  0  0  2  0  0  0  0  0  0
  157.6590  211.2730  154.3510 C   0  0  0  0  0  2  0  0  0  0  0  0
  159.0040  211.2640  155.1050 C   0  0  1  0  0  3  0  0  0  0  0  0
  155.1980  211.4860  156.7980 O   0  0  0  0  0  0  0  0  0  0  0  0
  157.7920  211.4300  157.2140 O   0  0  0  0  0  0  0  0  0  0  0  0
  1  5  2  0  0  0  0
  1  8  1  0  0  0  0
  2 13  1  0  0  0  0
  3 16  1  6  0  0  0
  3 14  1  0  0  0  0
  4  7  1  0  0  0  0
  4 15  1  0  0  0  0
  5  9  1  0  0  0  0
  6  1  1  0  0  0  0
  7 11  1  0  0  0  0
  8  4  2  0  0  0  0
  9  7  2  0  0  0  0
 10  3  1  0  0  0  0
 11 10  1  0  0  0  0
 11  2  2  0  0  0  0
 12  2  1  0  0  0  0
 13 14  1  0  0  0  0
 13 35  1  1  0  0  0
 15 12  2  0  0  0  0
 16 17  1  1  0  0  0
 18 16  1  0  0  0  0
 19 18  1  0  0  0  0
 19 20  1  1  0  0  0
 21 19  1  0  0  0  0
 22 25  1  0  0  0  0
 22 21  1  1  0  0  0
 23 26  1  0  0  0  0
 24 22  1  0  0  0  0
 25 28  1  0  0  0  0
 26 25  1  0  0  0  0
 27 23  1  0  0  0  0
 27 24  1  0  0  0  0
 28 29  1  0  0  0  0
 29 31  1  0  0  0  0
 31 30  1  0  0  0  0
 32 34  1  0  0  0  0
 32 28  1  0  0  0  0
 33 34  1  0  0  0  0
 36 37  1  0  0  0  0
 37 42  2  1  0  0  0
 37 43  1  0  0  0  0
 37 38  1  0  0  0  0
 39 43  1  0  0  0  0
 40 36  1  0  0  0  0
 40 41  1  0  0  0  0
 41 35  1  6  0  0  0
 41 39  1  0  0  0  0
M  END
>  <MODEL>
2

>  <REMARK>
 VINA RESULT:      -6.9      2.443      8.806
  Name = 
  12 active torsions:
  status: ('A' for Active; 'I' for Inactive)
    1  A    between atoms: C_1  and  C_34
    2  A    between atoms: C_1  and  C_35
    3  A    between atoms: C_2  and  N_6
    4  A    between atoms: C_2  and  C_13
    5  A    between atoms: C_3  and  C_4
    6  A    between atoms: C_3  and  C_12
    7  A    between atoms: N_6  and  C_12
    8  A    between atoms: C_11  and  C_14
    9  A    between atoms: C_11  and  C_36
   10  A    between atoms: C_14  and  N_22
   11  A    between atoms: C_14  and  C_40
   12  A    between atoms: C_31  and  C_40
                            x       y       z     vdW  Elec       q    Type
                         _______ _______ _______ _____ _____    ______ ____

>  <TORSDO>
F 12

$$$$
=
 OpenBabel11062410033D

 43 47  0  0  1  0  0  0  0  0999 V2000
  161.1790  201.3610  148.5850 C   0  0  0  0  0  0  0  0  0  0  0  0
  161.1960  205.6550  151.2570 C   0  0  0  0  0  0  0  0  0  0  0  0
  160.9040  207.8860  149.5580 C   0  0  1  0  0  3  0  0  0  0  0  0
  161.3360  202.9960  150.3640 C   0  0  0  0  0  0  0  0  0  0  0  0
  160.9160  202.3800  147.6660 C   0  0  0  0  0  3  0  0  0  0  0  0
  161.2320  200.0410  148.1590 O   0  0  0  0  0  1  0  0  0  0  0  0
  161.0770  204.0360  149.4400 C   0  0  0  0  0  0  0  0  0  0  0  0
  161.3890  201.6680  149.9310 C   0  0  0  0  0  3  0  0  0  0  0  0
  160.8650  203.7100  148.0900 C   0  0  0  0  0  3  0  0  0  0  0  0
  160.8280  206.5010  148.9060 C   0  0  0  0  0  2  0  0  0  0  0  0
  161.0410  205.3750  149.8850 C   0  0  0  0  0  0  0  0  0  0  0  0
  161.4780  204.6140  152.1540 C   0  0  0  0  0  3  0  0  0  0  0  0
  161.1790  207.0950  151.7210 C   0  0  1  0  0  3  0  0  0  0  0  0
  160.3970  207.9180  150.8790 O   0  0  0  0  0  0  0  0  0  0  0  0
  161.5420  203.2920  151.7110 C   0  0  0  0  0  3  0  0  0  0  0  0
  162.2240  208.6420  149.3400 C   0  0  1  0  0  3  0  0  0  0  0  0
  163.2650  207.6840  148.7790 C   0  0  0  0  0  1  0  0  0  0  0  0
  162.0540  209.7990  148.4630 N   0  0  0  0  0  2  0  0  0  0  0  0
  161.7140  210.9610  149.2770 C   0  0  1  0  0  3  0  0  0  0  0  0
  162.1340  210.7090  150.7140 C   0  0  0  0  0  1  0  0  0  0  0  0
  162.4520  212.2020  148.7760 C   0  0  0  0  0  2  0  0  0  0  0  0
  161.7120  212.9520  147.6660 C   0  0  1  0  0  3  0  0  0  0  0  0
  160.4310  212.6490  145.2050 C   0  0  0  0  0  2  0  0  0  0  0  0
  162.3670  212.6250  146.3160 C   0  0  0  0  0  2  0  0  0  0  0  0
  160.2580  212.6470  147.6660 N   0  0  0  0  0  0  0  0  0  0  0  0
  159.6130  213.0750  146.4170 C   0  0  0  0  0  2  0  0  0  0  0  0
  161.6870  213.2650  145.2710 O   0  0  0  0  0  0  0  0  0  0  0  0
  159.5320  213.3500  148.7370 C   0  0  0  0  0  3  0  0  0  0  0  0
  158.0830  213.7440  148.4110 C   0  0  0  0  0  2  0  0  0  0  0  0
  155.9680  213.6250  149.5050 O   0  0  0  0  0  1  0  0  0  0  0  0
  157.1020  212.8790  149.1840 C   0  0  0  0  0  2  0  0  0  0  0  0
  160.3740  214.4290  149.4260 C   0  0  0  0  0  2  0  0  0  0  0  0
  159.7540  213.1620  151.3470 O   0  0  0  0  0  1  0  0  0  0  0  0
  160.2570  214.3990  150.9420 C   0  0  0  0  0  2  0  0  0  0  0  0
  160.7260  207.2580  153.1770 C   0  0  0  0  0  2  0  0  0  0  0  0
  160.1500  208.8380  156.1060 C   0  0  0  0  0  2  0  0  0  0  0  0
  159.7660  210.5630  155.6890 P   0  0  1  0  0  0  0  0  0  0  0  0
  158.0940  210.8110  155.7150 O   0  0  0  0  0  0  0  0  0  0  0  0
  160.1640  209.6790  153.4080 C   0  0  0  0  0  2  0  0  0  0  0  0
  161.3820  208.4390  155.3030 C   0  0  0  0  0  2  0  0  0  0  0  0
  161.1760  208.5830  153.7820 C   0  0  1  0  0  3  0  0  0  0  0  0
  160.4360  211.4850  156.6840 O   0  0  0  0  0  1  0  0  0  0  0  0
  160.3830  210.8610  154.1320 O   0  0  0  0  0  0  0  0  0  0  0  0
  1  8  1  0  0  0  0
  2 13  1  0  0  0  0
  2 12  1  0  0  0  0
  3 16  1  1  0  0  0
  3 14  1  0  0  0  0
  4 15  1  0  0  0  0
  5  9  1  0  0  0  0
  5  1  2  0  0  0  0
  6  1  1  0  0  0  0
  7 11  1  0  0  0  0
  7  4  1  0  0  0  0
  8  4  2  0  0  0  0
  9  7  2  0  0  0  0
 10  3  1  0  0  0  0
 10 11  1  0  0  0  0
 11  2  2  0  0  0  0
 13 35  1  1  0  0  0
 14 13  1  0  0  0  0
 15 12  2  0  0  0  0
 16 17  1  6  0  0  0
 18 19  1  0  0  0  0
 18 16  1  0  0  0  0
 19 20  1  1  0  0  0
 21 19  1  0  0  0  0
 22 21  1  1  0  0  0
 23 27  1  0  0  0  0
 23 26  1  0  0  0  0
 24 22  1  0  0  0  0
 25 22  1  0  0  0  0
 25 28  1  0  0  0  0
 26 25  1  0  0  0  0
 27 24  1  0  0  0  0
 28 32  1  0  0  0  0
 29 28  1  0  0  0  0
 29 31  1  0  0  0  0
 31 30  1  0  0  0  0
 32 34  1  0  0  0  0
 34 33  1  0  0  0  0
 37 38  2  1  0  0  0
 37 36  1  0  0  0  0
 37 42  1  0  0  0  0
 39 41  1  0  0  0  0
 39 43  1  0  0  0  0
 40 36  1  0  0  0  0
 41 35  1  1  0  0  0
 41 40  1  0  0  0  0
 43 37  1  0  0  0  0
M  END
>  <MODEL>
3

>  <REMARK>
 VINA RESULT:      -6.9      1.310      2.933
  Name = 
  12 active torsions:
  status: ('A' for Active; 'I' for Inactive)
    1  A    between atoms: C_1  and  C_34
    2  A    between atoms: C_1  and  C_35
    3  A    between atoms: C_2  and  N_6
    4  A    between atoms: C_2  and  C_13
    5  A    between atoms: C_3  and  C_4
    6  A    between atoms: C_3  and  C_12
    7  A    between atoms: N_6  and  C_12
    8  A    between atoms: C_11  and  C_14
    9  A    between atoms: C_11  and  C_36
   10  A    between atoms: C_14  and  N_22
   11  A    between atoms: C_14  and  C_40
   12  A    between atoms: C_31  and  C_40
                            x       y       z     vdW  Elec       q    Type
                         _______ _______ _______ _____ _____    ______ ____

>  <TORSDO>
F 12

$$$$
=
 OpenBabel11062410033D

 43 47  0  0  1  0  0  0  0  0999 V2000
  161.2000  201.0660  148.0120 C   0  0  0  0  0  0  0  0  0  0  0  0
  161.1360  205.1420  151.0060 C   0  0  0  0  0  0  0  0  0  0  0  0
  160.8510  207.4940  149.4790 C   0  0  1  0  0  3  0  0  0  0  0  0
  161.3140  202.5610  149.9140 C   0  0  0  0  0  0  0  0  0  0  0  0
  160.9420  202.1510  147.1700 C   0  0  0  0  0  3  0  0  0  0  0  0
  161.2720  199.7830  147.4870 O   0  0  0  0  0  1  0  0  0  0  0  0
  161.0610  203.6670  149.0680 C   0  0  0  0  0  0  0  0  0  0  0  0
  161.3860  201.2710  149.3810 C   0  0  0  0  0  3  0  0  0  0  0  0
  160.8730  203.4440  147.6940 C   0  0  0  0  0  3  0  0  0  0  0  0
  160.7980  206.1630  148.7220 C   0  0  0  0  0  2  0  0  0  0  0  0
  161.0050  204.9670  149.6140 C   0  0  0  0  0  0  0  0  0  0  0  0
  161.4130  204.0370  151.8250 C   0  0  0  0  0  3  0  0  0  0  0  0
  161.0980  206.5420  151.5790 C   0  0  1  0  0  3  0  0  0  0  0  0
  160.3230  207.4210  150.7910 O   0  0  0  0  0  0  0  0  0  0  0  0
  161.4960  202.7540  151.2830 C   0  0  0  0  0  3  0  0  0  0  0  0
  162.1670  208.2760  149.3420 C   0  0  1  0  0  3  0  0  0  0  0  0
  163.1910  207.4120  148.6190 C   0  0  0  0  0  1  0  0  0  0  0  0
  161.9780  209.5490  148.6500 N   0  0  0  0  0  2  0  0  0  0  0  0
  161.6990  210.5860  149.6380 C   0  0  1  0  0  3  0  0  0  0  0  0
  162.3090  210.1880  150.9710 C   0  0  0  0  0  1  0  0  0  0  0  0
  162.3160  211.9160  149.2100 C   0  0  0  0  0  2  0  0  0  0  0  0
  161.4110  212.7500  148.2990 C   0  0  1  0  0  3  0  0  0  0  0  0
  159.5120  212.6010  146.2590 C   0  0  0  0  0  2  0  0  0  0  0  0
  161.6520  212.3370  146.8390 C   0  0  0  0  0  2  0  0  0  0  0  0
  159.9810  212.6300  148.6820 N   0  0  0  0  0  0  0  0  0  0  0  0
  159.0910  213.1320  147.6240 C   0  0  0  0  0  2  0  0  0  0  0  0
  160.8080  213.0540  145.9800 O   0  0  0  0  0  0  0  0  0  0  0  0
  159.6460  213.4240  149.8760 C   0  0  0  0  0  3  0  0  0  0  0  0
  159.5400  212.6340  151.1910 C   0  0  0  0  0  2  0  0  0  0  0  0
  159.3790  212.8940  153.5550 O   0  0  0  0  0  1  0  0  0  0  0  0
  159.7740  213.5430  152.3850 C   0  0  0  0  0  2  0  0  0  0  0  0
  158.5340  214.4480  149.6270 C   0  0  0  0  0  2  0  0  0  0  0  0
  156.2840  214.0560  148.9490 O   0  0  0  0  0  1  0  0  0  0  0  0
  157.1580  213.9440  150.0310 C   0  0  0  0  0  2  0  0  0  0  0  0
  160.6210  206.5890  153.0350 C   0  0  0  0  0  2  0  0  0  0  0  0
  160.0580  208.0010  156.0520 C   0  0  0  0  0  2  0  0  0  0  0  0
  160.1300  209.7980  155.7960 P   0  0  1  0  0  0  0  0  0  0  0  0
  158.5670  210.4320  155.6810 O   0  0  0  0  0  0  0  0  0  0  0  0
  160.5980  209.0440  153.4810 C   0  0  0  0  0  2  0  0  0  0  0  0
  161.2580  207.3910  155.3370 C   0  0  0  0  0  2  0  0  0  0  0  0
  161.2810  207.7110  153.8290 C   0  0  1  0  0  3  0  0  0  0  0  0
  160.8620  210.4440  156.9510 O   0  0  0  0  0  1  0  0  0  0  0  0
  160.9870  210.0730  154.3530 O   0  0  0  0  0  0  0  0  0  0  0  0
  1  8  1  0  0  0  0
  2 13  1  0  0  0  0
  2 12  1  0  0  0  0
  3 16  1  1  0  0  0
  3 14  1  0  0  0  0
  4 15  1  0  0  0  0
  5  9  1  0  0  0  0
  5  1  2  0  0  0  0
  6  1  1  0  0  0  0
  7 11  1  0  0  0  0
  7  4  1  0  0  0  0
  8  4  2  0  0  0  0
  9  7  2  0  0  0  0
 10  3  1  0  0  0  0
 10 11  1  0  0  0  0
 11  2  2  0  0  0  0
 13 35  1  1  0  0  0
 14 13  1  0  0  0  0
 15 12  2  0  0  0  0
 16 17  1  6  0  0  0
 18 16  1  0  0  0  0
 18 19  1  0  0  0  0
 19 20  1  1  0  0  0
 21 19  1  0  0  0  0
 22 25  1  0  0  0  0
 22 21  1  1  0  0  0
 23 26  1  0  0  0  0
 24 22  1  0  0  0  0
 25 28  1  0  0  0  0
 26 25  1  0  0  0  0
 27 23  1  0  0  0  0
 27 24  1  0  0  0  0
 28 29  1  0  0  0  0
 29 31  1  0  0  0  0
 31 30  1  0  0  0  0
 32 28  1  0  0  0  0
 32 34  1  0  0  0  0
 33 34  1  0  0  0  0
 37 38  2  6  0  0  0
 37 36  1  0  0  0  0
 37 42  1  0  0  0  0
 39 41  1  0  0  0  0
 39 43  1  0  0  0  0
 40 36  1  0  0  0  0
 41 35  1  6  0  0  0
 41 40  1  0  0  0  0
 43 37  1  0  0  0  0
M  END
>  <MODEL>
4

>  <REMARK>
 VINA RESULT:      -6.7      0.970      2.536
  Name = 
  12 active torsions:
  status: ('A' for Active; 'I' for Inactive)
    1  A    between atoms: C_1  and  C_34
    2  A    between atoms: C_1  and  C_35
    3  A    between atoms: C_2  and  N_6
    4  A    between atoms: C_2  and  C_13
    5  A    between atoms: C_3  and  C_4
    6  A    between atoms: C_3  and  C_12
    7  A    between atoms: N_6  and  C_12
    8  A    between atoms: C_11  and  C_14
    9  A    between atoms: C_11  and  C_36
   10  A    between atoms: C_14  and  N_22
   11  A    between atoms: C_14  and  C_40
   12  A    between atoms: C_31  and  C_40
                            x       y       z     vdW  Elec       q    Type
                         _______ _______ _______ _____ _____    ______ ____

>  <TORSDO>
F 12

$$$$
=
 OpenBabel11062410033D

 43 47  0  0  1  0  0  0  0  0999 V2000
  160.9130  201.9700  147.7480 C   0  0  0  0  0  0  0  0  0  0  0  0
  161.6170  206.8860  148.7010 C   0  0  0  0  0  0  0  0  0  0  0  0
  161.9470  207.3270  151.4660 C   0  0  1  0  0  3  0  0  0  0  0  0
  161.1140  204.3750  147.5500 C   0  0  0  0  0  0  0  0  0  0  0  0
  161.1770  202.0570  149.1170 C   0  0  0  0  0  3  0  0  0  0  0  0
  160.6810  200.7320  147.1630 O   0  0  0  0  0  1  0  0  0  0  0  0
  161.3750  204.4740  148.9370 C   0  0  0  0  0  0  0  0  0  0  0  0
  160.8820  203.1260  146.9660 C   0  0  0  0  0  3  0  0  0  0  0  0
  161.4070  203.3010  149.7090 C   0  0  0  0  0  3  0  0  0  0  0  0
  161.8120  205.8720  151.0050 C   0  0  0  0  0  2  0  0  0  0  0  0
  161.5940  205.7400  149.5200 C   0  0  0  0  0  0  0  0  0  0  0  0
  161.3300  206.7720  147.3320 C   0  0  0  0  0  3  0  0  0  0  0  0
  161.8290  208.2430  149.3380 C   0  0  1  0  0  3  0  0  0  0  0  0
  162.5940  208.1620  150.5230 O   0  0  0  0  0  0  0  0  0  0  0  0
  161.0850  205.5230  146.7600 C   0  0  0  0  0  3  0  0  0  0  0  0
  160.6950  207.9260  152.1250 C   0  0  1  0  0  3  0  0  0  0  0  0
  160.5800  207.4040  153.5500 C   0  0  0  0  0  1  0  0  0  0  0  0
  160.7120  209.3880  152.1050 N   0  0  0  0  0  2  0  0  0  0  0  0
  160.5020  209.8790  153.4640 C   0  0  1  0  0  3  0  0  0  0  0  0
  161.7010  210.7070  153.8900 C   0  0  0  0  0  1  0  0  0  0  0  0
  159.2610  210.7680  153.5270 C   0  0  0  0  0  2  0  0  0  0  0  0
  159.5310  212.2290  153.1600 C   0  0  1  0  0  3  0  0  0  0  0  0
  158.8490  214.2720  151.3850 C   0  0  0  0  0  2  0  0  0  0  0  0
  159.8850  212.3150  151.6680 C   0  0  0  0  0  2  0  0  0  0  0  0
  158.3850  213.1080  153.5110 N   0  0  0  0  0  0  0  0  0  0  0  0
  158.4880  214.4200  152.8570 C   0  0  0  0  0  2  0  0  0  0  0  0
  160.0980  213.6470  151.2890 O   0  0  0  0  0  0  0  0  0  0  0  0
  158.3150  213.3980  154.9530 C   0  0  0  0  0  3  0  0  0  0  0  0
  159.6060  213.1410  155.7460 C   0  0  0  0  0  2  0  0  0  0  0  0
  160.1190  211.1190  156.9020 O   0  0  0  0  0  1  0  0  0  0  0  0
  159.3290  212.2670  156.9570 C   0  0  0  0  0  2  0  0  0  0  0  0
  157.0240  212.8940  155.6050 C   0  0  0  0  0  2  0  0  0  0  0  0
  155.8280  210.9420  154.9450 O   0  0  0  0  0  1  0  0  0  0  0  0
  156.0530  212.2780  154.6100 C   0  0  0  0  0  2  0  0  0  0  0  0
  162.4500  209.2710  148.3850 C   0  0  0  0  0  2  0  0  0  0  0  0
  160.8780  211.7820  146.7630 C   0  0  0  0  0  2  0  0  0  0  0  0
  161.8760  213.2740  147.0430 P   0  0  1  0  0  0  0  0  0  0  0  0
  162.8500  213.5850  145.6980 O   0  0  0  0  0  0  0  0  0  0  0  0
  163.2180  211.6450  148.3420 C   0  0  0  0  0  2  0  0  0  0  0  0
  160.7200  211.0810  148.1060 C   0  0  0  0  0  2  0  0  0  0  0  0
  162.0720  210.7020  148.7450 C   0  0  1  0  0  3  0  0  0  0  0  0
  160.9610  214.4520  147.2960 O   0  0  0  0  0  1  0  0  0  0  0  0
  162.8370  212.9930  148.4170 O   0  0  0  0  0  0  0  0  0  0  0  0
  1  5  1  0  0  0  0
  2 13  1  0  0  0  0
  2 11  1  0  0  0  0
  3 16  1  6  0  0  0
  4  7  1  0  0  0  0
  5  9  2  0  0  0  0
  6  1  1  0  0  0  0
  7 11  2  0  0  0  0
  7  9  1  0  0  0  0
  8  4  1  0  0  0  0
  8  1  2  0  0  0  0
 10  3  1  0  0  0  0
 11 10  1  0  0  0  0
 12  2  2  0  0  0  0
 13 35  1  6  0  0  0
 13 14  1  0  0  0  0
 14  3  1  0  0  0  0
 15 12  1  0  0  0  0
 15  4  2  0  0  0  0
 16 17  1  1  0  0  0
 18 16  1  0  0  0  0
 18 19  1  0  0  0  0
 19 21  1  0  0  0  0
 19 20  1  6  0  0  0
 22 25  1  0  0  0  0
 22 21  1  6  0  0  0
 23 26  1  0  0  0  0
 24 22  1  0  0  0  0
 25 28  1  0  0  0  0
 26 25  1  0  0  0  0
 27 23  1  0  0  0  0
 27 24  1  0  0  0  0
 28 32  1  0  0  0  0
 28 29  1  0  0  0  0
 29 31  1  0  0  0  0
 30 31  1  0  0  0  0
 34 33  1  0  0  0  0
 34 32  1  0  0  0  0
 36 37  1  0  0  0  0
 36 40  1  0  0  0  0
 37 38  2  6  0  0  0
 37 42  1  0  0  0  0
 37 43  1  0  0  0  0
 39 43  1  0  0  0  0
 39 41  1  0  0  0  0
 40 41  1  0  0  0  0
 41 35  1  6  0  0  0
M  END
>  <MODEL>
5

>  <REMARK>
 VINA RESULT:      -6.1      2.691      5.938
  Name = 
  12 active torsions:
  status: ('A' for Active; 'I' for Inactive)
    1  A    between atoms: C_1  and  C_34
    2  A    between atoms: C_1  and  C_35
    3  A    between atoms: C_2  and  N_6
    4  A    between atoms: C_2  and  C_13
    5  A    between atoms: C_3  and  C_4
    6  A    between atoms: C_3  and  C_12
    7  A    between atoms: N_6  and  C_12
    8  A    between atoms: C_11  and  C_14
    9  A    between atoms: C_11  and  C_36
   10  A    between atoms: C_14  and  N_22
   11  A    between atoms: C_14  and  C_40
   12  A    between atoms: C_31  and  C_40
                            x       y       z     vdW  Elec       q    Type
                         _______ _______ _______ _____ _____    ______ ____

>  <TORSDO>
F 12

$$$$
=
 OpenBabel11062410033D

 43 47  0  0  1  0  0  0  0  0999 V2000
  160.9800  203.6040  149.1700 C   0  0  0  0  0  0  0  0  0  0  0  0
  161.8260  208.5750  149.5550 C   0  0  0  0  0  0  0  0  0  0  0  0
  162.0410  209.3420  152.2590 C   0  0  1  0  0  3  0  0  0  0  0  0
  161.2830  205.9590  148.6930 C   0  0  0  0  0  0  0  0  0  0  0  0
  161.1820  203.8500  150.5310 C   0  0  0  0  0  3  0  0  0  0  0  0
  160.7290  202.3120  148.7290 O   0  0  0  0  0  1  0  0  0  0  0  0
  161.4810  206.2190  150.0690 C   0  0  0  0  0  0  0  0  0  0  0  0
  161.0300  204.6560  148.2530 C   0  0  0  0  0  3  0  0  0  0  0  0
  161.4310  205.1500  150.9790 C   0  0  0  0  0  3  0  0  0  0  0  0
  161.8730  207.8470  151.9720 C   0  0  0  0  0  2  0  0  0  0  0  0
  161.7210  207.5400  150.5040 C   0  0  0  0  0  0  0  0  0  0  0  0
  161.6010  208.3030  148.1980 C   0  0  0  0  0  3  0  0  0  0  0  0
  162.0600  209.9920  150.0330 C   0  0  1  0  0  3  0  0  0  0  0  0
  162.7640  210.0340  151.2570 O   0  0  0  0  0  0  0  0  0  0  0  0
  161.3360  207.0020  147.7690 C   0  0  0  0  0  3  0  0  0  0  0  0
  160.7830  210.0580  152.7750 C   0  0  1  0  0  3  0  0  0  0  0  0
  160.0230  209.1270  153.7080 C   0  0  0  0  0  1  0  0  0  0  0  0
  161.1050  211.3170  153.4440 N   0  0  0  0  0  2  0  0  0  0  0  0
  160.0470  212.2820  153.1660 C   0  0  1  0  0  3  0  0  0  0  0  0
  159.7350  212.2720  151.6800 C   0  0  0  0  0  1  0  0  0  0  0  0
  158.7710  211.9140  153.9230 C   0  0  0  0  0  2  0  0  0  0  0  0
  158.7460  212.4190  155.3680 C   0  0  1  0  0  3  0  0  0  0  0  0
  159.6650  214.4280  157.0720 C   0  0  0  0  0  2  0  0  0  0  0  0
  160.1880  212.6350  155.8500 C   0  0  0  0  0  2  0  0  0  0  0  0
  157.9220  213.6470  155.5100 N   0  0  0  0  0  0  0  0  0  0  0  0
  158.1720  214.3230  156.7910 C   0  0  0  0  0  2  0  0  0  0  0  0
  160.1990  213.1370  157.1580 O   0  0  0  0  0  0  0  0  0  0  0  0
  156.4770  213.3640  155.4970 C   0  0  0  0  0  3  0  0  0  0  0  0
  155.5920  214.4530  154.8690 C   0  0  0  0  0  2  0  0  0  0  0  0
  156.1040  214.3280  152.5430 O   0  0  0  0  0  1  0  0  0  0  0  0
  155.1210  214.0340  153.4870 C   0  0  0  0  0  2  0  0  0  0  0  0
  155.9670  212.7750  156.8160 C   0  0  0  0  0  2  0  0  0  0  0  0
  155.9440  210.7350  155.5830 O   0  0  0  0  0  1  0  0  0  0  0  0
  155.3390  211.4000  156.6510 C   0  0  0  0  0  2  0  0  0  0  0  0
  162.7650  210.8740  148.9960 C   0  0  0  0  0  2  0  0  0  0  0  0
  160.1790  211.8310  147.0440 C   0  0  0  0  0  2  0  0  0  0  0  0
  160.6880  213.3810  146.2460 P   0  0  1  0  0  0  0  0  0  0  0  0
  161.2130  213.0790  144.6680 O   0  0  0  0  0  0  0  0  0  0  0  0
  162.7150  212.9450  147.6040 C   0  0  0  0  0  2  0  0  0  0  0  0
  160.5330  211.9420  148.5220 C   0  0  0  0  0  2  0  0  0  0  0  0
  162.0360  212.1920  148.7600 C   0  0  1  0  0  3  0  0  0  0  0  0
  159.5210  214.3430  146.2220 O   0  0  0  0  0  1  0  0  0  0  0  0
  161.9510  214.0410  147.1740 O   0  0  0  0  0  0  0  0  0  0  0  0
  1  5  1  0  0  0  0
  2 13  1  0  0  0  0
  2 11  1  0  0  0  0
  3 16  1  6  0  0  0
  4  7  1  0  0  0  0
  5  9  2  0  0  0  0
  6  1  1  0  0  0  0
  7 11  2  0  0  0  0
  7  9  1  0  0  0  0
  8  4  1  0  0  0  0
  8  1  2  0  0  0  0
 10  3  1  0  0  0  0
 11 10  1  0  0  0  0
 12  2  2  0  0  0  0
 13 35  1  6  0  0  0
 13 14  1  0  0  0  0
 14  3  1  0  0  0  0
 15 12  1  0  0  0  0
 15  4  2  0  0  0  0
 16 18  1  0  0  0  0
 16 17  1  1  0  0  0
 19 20  1  6  0  0  0
 19 18  1  0  0  0  0
 19 21  1  0  0  0  0
 22 21  1  6  0  0  0
 22 25  1  0  0  0  0
 22 24  1  0  0  0  0
 23 27  1  0  0  0  0
 24 27  1  0  0  0  0
 25 26  1  0  0  0  0
 26 23  1  0  0  0  0
 28 25  1  0  0  0  0
 28 32  1  0  0  0  0
 29 28  1  0  0  0  0
 30 31  1  0  0  0  0
 31 29  1  0  0  0  0
 33 34  1  0  0  0  0
 34 32  1  0  0  0  0
 36 40  1  0  0  0  0
 37 38  2  6  0  0  0
 37 36  1  0  0  0  0
 37 43  1  0  0  0  0
 39 41  1  0  0  0  0
 40 41  1  0  0  0  0
 41 35  1  6  0  0  0
 42 37  1  0  0  0  0
 43 39  1  0  0  0  0
M  END
>  <MODEL>
6

>  <REMARK>
 VINA RESULT:      -6.1      3.396      6.778
  Name = 
  12 active torsions:
  status: ('A' for Active; 'I' for Inactive)
    1  A    between atoms: C_1  and  C_34
    2  A    between atoms: C_1  and  C_35
    3  A    between atoms: C_2  and  N_6
    4  A    between atoms: C_2  and  C_13
    5  A    between atoms: C_3  and  C_4
    6  A    between atoms: C_3  and  C_12
    7  A    between atoms: N_6  and  C_12
    8  A    between atoms: C_11  and  C_14
    9  A    between atoms: C_11  and  C_36
   10  A    between atoms: C_14  and  N_22
   11  A    between atoms: C_14  and  C_40
   12  A    between atoms: C_31  and  C_40
                            x       y       z     vdW  Elec       q    Type
                         _______ _______ _______ _____ _____    ______ ____

>  <TORSDO>
F 12

$$$$
=
 OpenBabel11062410033D

 43 47  0  0  1  0  0  0  0  0999 V2000
  160.5610  213.6380  147.5370 C   0  0  0  0  0  0  0  0  0  0  0  0
  160.7440  211.6130  152.1670 C   0  0  0  0  0  0  0  0  0  0  0  0
  162.4130  209.3410  152.1950 C   0  0  1  0  0  3  0  0  0  0  0  0
  160.1770  213.1290  149.8730 C   0  0  0  0  0  0  0  0  0  0  0  0
  161.4950  212.6020  147.4610 C   0  0  0  0  0  3  0  0  0  0  0  0
  160.2860  214.4080  146.4150 O   0  0  0  0  0  1  0  0  0  0  0  0
  161.1160  212.0730  149.8040 C   0  0  0  0  0  0  0  0  0  0  0  0
  159.9040  213.9020  148.7400 C   0  0  0  0  0  3  0  0  0  0  0  0
  161.7720  211.8230  148.5870 C   0  0  0  0  0  3  0  0  0  0  0  0
  162.3240  210.1230  150.8800 C   0  0  0  0  0  2  0  0  0  0  0  0
  161.3750  211.2900  150.9500 C   0  0  0  0  0  0  0  0  0  0  0  0
  159.7970  212.6460  152.2100 C   0  0  0  0  0  3  0  0  0  0  0  0
  161.0090  210.7530  153.3840 C   0  0  1  0  0  3  0  0  0  0  0  0
  162.2890  210.1550  153.3470 O   0  0  0  0  0  0  0  0  0  0  0  0
  159.5190  213.4030  151.0710 C   0  0  0  0  0  3  0  0  0  0  0  0
  161.6220  208.0240  152.2310 C   0  0  1  0  0  3  0  0  0  0  0  0
  160.4540  208.1140  151.2600 C   0  0  0  0  0  1  0  0  0  0  0  0
  162.4660  206.8700  151.9250 N   0  0  0  0  0  2  0  0  0  0  0  0
  161.7240  205.6510  152.2280 C   0  0  1  0  0  3  0  0  0  0  0  0
  160.8240  205.8940  153.4270 C   0  0  0  0  0  1  0  0  0  0  0  0
  160.8440  205.2500  151.0450 C   0  0  0  0  0  2  0  0  0  0  0  0
  161.3010  203.9680  150.3440 C   0  0  1  0  0  3  0  0  0  0  0  0
  160.4350  201.5050  149.3580 C   0  0  0  0  0  2  0  0  0  0  0  0
  160.8370  202.7550  151.1640 C   0  0  0  0  0  2  0  0  0  0  0  0
  160.8220  203.9060  148.9390 N   0  0  0  0  0  0  0  0  0  0  0  0
  160.9520  202.5520  148.3800 C   0  0  0  0  0  2  0  0  0  0  0  0
  161.2040  201.5620  150.5270 O   0  0  0  0  0  0  0  0  0  0  0  0
  161.5990  204.7730  148.0370 C   0  0  0  0  0  3  0  0  0  0  0  0
  160.9780  206.1470  147.7370 C   0  0  0  0  0  2  0  0  0  0  0  0
  161.2690  208.4980  148.0050 O   0  0  0  0  0  1  0  0  0  0  0  0
  161.8800  207.2650  148.2310 C   0  0  0  0  0  2  0  0  0  0  0  0
  162.1700  204.0250  146.8280 C   0  0  0  0  0  2  0  0  0  0  0  0
  160.6740  204.1490  144.9770 O   0  0  0  0  0  1  0  0  0  0  0  0
  161.8440  204.6970  145.5030 C   0  0  0  0  0  2  0  0  0  0  0  0
  160.8220  211.5020  154.7090 C   0  0  0  0  0  2  0  0  0  0  0  0
  157.4710  211.3980  154.2980 C   0  0  0  0  0  2  0  0  0  0  0  0
  156.7460  211.9110  155.8820 P   0  0  1  0  0  0  0  0  0  0  0  0
  156.2780  213.5330  155.8100 O   0  0  0  0  0  0  0  0  0  0  0  0
  159.1480  212.0480  156.4770 C   0  0  0  0  0  2  0  0  0  0  0  0
  158.5670  210.3840  154.6050 C   0  0  0  0  0  2  0  0  0  0  0  0
  159.6630  210.9510  155.5300 C   0  0  1  0  0  3  0  0  0  0  0  0
  155.5460  211.0440  156.1920 O   0  0  0  0  0  1  0  0  0  0  0  0
  157.9330  211.6910  157.0800 O   0  0  0  0  0  0  0  0  0  0  0  0
  1  8  1  0  0  0  0
  2 12  1  0  0  0  0
  2 13  1  0  0  0  0
  3 16  1  6  0  0  0
  3 14  1  0  0  0  0
  4 15  1  0  0  0  0
  5  1  2  0  0  0  0
  5  9  1  0  0  0  0
  6  1  1  0  0  0  0
  7  4  1  0  0  0  0
  7 11  1  0  0  0  0
  8  4  2  0  0  0  0
  9  7  2  0  0  0  0
 10 11  1  0  0  0  0
 10  3  1  0  0  0  0
 11  2  2  0  0  0  0
 13 35  1  1  0  0  0
 14 13  1  0  0  0  0
 15 12  2  0  0  0  0
 16 17  1  6  0  0  0
 18 19  1  0  0  0  0
 18 16  1  0  0  0  0
 19 20  1  1  0  0  0
 21 19  1  0  0  0  0
 22 21  1  1  0  0  0
 22 24  1  0  0  0  0
 23 27  1  0  0  0  0
 25 22  1  0  0  0  0
 26 25  1  0  0  0  0
 26 23  1  0  0  0  0
 27 24  1  0  0  0  0
 28 25  1  0  0  0  0
 29 28  1  0  0  0  0
 29 31  1  0  0  0  0
 30 31  1  0  0  0  0
 32 28  1  0  0  0  0
 33 34  1  0  0  0  0
 34 32  1  0  0  0  0
 36 40  1  0  0  0  0
 36 37  1  0  0  0  0
 37 38  2  6  0  0  0
 37 42  1  0  0  0  0
 37 43  1  0  0  0  0
 39 43  1  0  0  0  0
 40 41  1  0  0  0  0
 41 35  1  6  0  0  0
 41 39  1  0  0  0  0
M  END
>  <MODEL>
7

>  <REMARK>
 VINA RESULT:      -6.0      2.507      8.238
  Name = 
  12 active torsions:
  status: ('A' for Active; 'I' for Inactive)
    1  A    between atoms: C_1  and  C_34
    2  A    between atoms: C_1  and  C_35
    3  A    between atoms: C_2  and  N_6
    4  A    between atoms: C_2  and  C_13
    5  A    between atoms: C_3  and  C_4
    6  A    between atoms: C_3  and  C_12
    7  A    between atoms: N_6  and  C_12
    8  A    between atoms: C_11  and  C_14
    9  A    between atoms: C_11  and  C_36
   10  A    between atoms: C_14  and  N_22
   11  A    between atoms: C_14  and  C_40
   12  A    between atoms: C_31  and  C_40
                            x       y       z     vdW  Elec       q    Type
                         _______ _______ _______ _____ _____    ______ ____

>  <TORSDO>
F 12

$$$$
=
 OpenBabel11062410033D

 43 47  0  0  1  0  0  0  0  0999 V2000
  161.1540  201.9800  150.3170 C   0  0  0  0  0  0  0  0  0  0  0  0
  161.3450  206.9860  149.6250 C   0  0  0  0  0  0  0  0  0  0  0  0
  161.9220  208.3050  152.0490 C   0  0  1  0  0  3  0  0  0  0  0  0
  161.0320  204.2080  149.3740 C   0  0  0  0  0  0  0  0  0  0  0  0
  161.5560  202.5170  151.5430 C   0  0  0  0  0  3  0  0  0  0  0  0
  161.0150  200.6070  150.1750 O   0  0  0  0  0  1  0  0  0  0  0  0
  161.4320  204.7610  150.6130 C   0  0  0  0  0  0  0  0  0  0  0  0
  160.8930  202.8230  149.2350 C   0  0  0  0  0  3  0  0  0  0  0  0
  161.6940  203.9000  151.6910 C   0  0  0  0  0  3  0  0  0  0  0  0
  161.9190  206.7730  152.0750 C   0  0  0  0  0  2  0  0  0  0  0  0
  161.5550  206.1610  150.7470 C   0  0  0  0  0  0  0  0  0  0  0  0
  160.9240  206.4210  148.4120 C   0  0  0  0  0  3  0  0  0  0  0  0
  161.4560  208.4870  149.7840 C   0  0  1  0  0  3  0  0  0  0  0  0
  162.3520  208.8500  150.8150 O   0  0  0  0  0  0  0  0  0  0  0  0
  160.7740  205.0400  148.2860 C   0  0  0  0  0  3  0  0  0  0  0  0
  160.6860  208.9760  152.6690 C   0  0  1  0  0  3  0  0  0  0  0  0
  160.2570  208.1930  153.9020 C   0  0  0  0  0  1  0  0  0  0  0  0
  160.9330  210.3770  153.0030 N   0  0  0  0  0  2  0  0  0  0  0  0
  160.9050  210.5280  154.4540 C   0  0  1  0  0  3  0  0  0  0  0  0
  162.3270  210.5680  154.9830 C   0  0  0  0  0  1  0  0  0  0  0  0
  160.2130  211.8330  154.8450 C   0  0  0  0  0  2  0  0  0  0  0  0
  158.7280  211.6670  155.1770 C   0  0  1  0  0  3  0  0  0  0  0  0
  156.8400  211.8510  157.2230 C   0  0  0  0  0  2  0  0  0  0  0  0
  158.5860  210.7370  156.3910 C   0  0  0  0  0  2  0  0  0  0  0  0
  158.0610  212.9760  155.3980 N   0  0  0  0  0  0  0  0  0  0  0  0
  156.7520  212.8160  156.0480 C   0  0  0  0  0  2  0  0  0  0  0  0
  157.2380  210.5960  156.7470 O   0  0  0  0  0  0  0  0  0  0  0  0
  157.7840  213.6900  154.1410 C   0  0  0  0  0  3  0  0  0  0  0  0
  156.4070  214.3670  154.0500 C   0  0  0  0  0  2  0  0  0  0  0  0
  154.5700  214.1610  152.5440 O   0  0  0  0  0  1  0  0  0  0  0  0
  155.3900  213.4380  153.4100 C   0  0  0  0  0  2  0  0  0  0  0  0
  158.2220  212.9100  152.8970 C   0  0  0  0  0  2  0  0  0  0  0  0
  157.9410  213.5100  150.6080 O   0  0  0  0  0  1  0  0  0  0  0  0
  158.6730  213.8110  151.7570 C   0  0  0  0  0  2  0  0  0  0  0  0
  161.8350  209.2090  148.4860 C   0  0  0  0  0  2  0  0  0  0  0  0
  161.1120  211.9160  146.6000 C   0  0  0  0  0  2  0  0  0  0  0  0
  162.5690  212.9980  146.6800 P   0  0  1  0  0  0  0  0  0  0  0  0
  163.5110  212.8100  145.2900 O   0  0  0  0  0  0  0  0  0  0  0  0
  163.3550  211.1580  148.1420 C   0  0  0  0  0  2  0  0  0  0  0  0
  160.8050  211.4600  148.0210 C   0  0  0  0  0  2  0  0  0  0  0  0
  161.9840  210.7130  148.6770 C   0  0  1  0  0  3  0  0  0  0  0  0
  162.1220  214.4380  146.8050 O   0  0  0  0  0  1  0  0  0  0  0  0
  163.4570  212.5550  148.0610 O   0  0  0  0  0  0  0  0  0  0  0  0
  1  5  1  0  0  0  0
  2 13  1  0  0  0  0
  2 11  1  0  0  0  0
  3 10  1  0  0  0  0
  3 16  1  6  0  0  0
  4  7  1  0  0  0  0
  5  9  2  0  0  0  0
  6  1  1  0  0  0  0
  7 11  2  0  0  0  0
  7  9  1  0  0  0  0
  8  4  1  0  0  0  0
  8  1  2  0  0  0  0
 11 10  1  0  0  0  0
 12  2  2  0  0  0  0
 13 35  1  6  0  0  0
 13 14  1  0  0  0  0
 14  3  1  0  0  0  0
 15 12  1  0  0  0  0
 15  4  2  0  0  0  0
 16 18  1  0  0  0  0
 16 17  1  1  0  0  0
 18 19  1  0  0  0  0
 19 21  1  0  0  0  0
 19 20  1  6  0  0  0
 22 21  1  1  0  0  0
 22 25  1  0  0  0  0
 22 24  1  0  0  0  0
 24 27  1  0  0  0  0
 25 26  1  0  0  0  0
 26 23  1  0  0  0  0
 27 23  1  0  0  0  0
 28 25  1  0  0  0  0
 29 28  1  0  0  0  0
 30 31  1  0  0  0  0
 31 29  1  0  0  0  0
 32 28  1  0  0  0  0
 33 34  1  0  0  0  0
 34 32  1  0  0  0  0
 36 37  1  0  0  0  0
 36 40  1  0  0  0  0
 37 38  2  6  0  0  0
 37 42  1  0  0  0  0
 37 43  1  0  0  0  0
 39 41  1  0  0  0  0
 40 41  1  0  0  0  0
 41 35  1  6  0  0  0
 43 39  1  0  0  0  0
M  END
>  <MODEL>
8

>  <REMARK>
 VINA RESULT:      -5.6      3.035      6.059
  Name = 
  12 active torsions:
  status: ('A' for Active; 'I' for Inactive)
    1  A    between atoms: C_1  and  C_34
    2  A    between atoms: C_1  and  C_35
    3  A    between atoms: C_2  and  N_6
    4  A    between atoms: C_2  and  C_13
    5  A    between atoms: C_3  and  C_4
    6  A    between atoms: C_3  and  C_12
    7  A    between atoms: N_6  and  C_12
    8  A    between atoms: C_11  and  C_14
    9  A    between atoms: C_11  and  C_36
   10  A    between atoms: C_14  and  N_22
   11  A    between atoms: C_14  and  C_40
   12  A    between atoms: C_31  and  C_40
                            x       y       z     vdW  Elec       q    Type
                         _______ _______ _______ _____ _____    ______ ____

>  <TORSDO>
F 12

$$$$
=
 OpenBabel11062410033D

 43 47  0  0  1  0  0  0  0  0999 V2000
  160.6760  203.0390  148.6360 C   0  0  0  0  0  0  0  0  0  0  0  0
  161.6770  207.9450  149.3410 C   0  0  0  0  0  0  0  0  0  0  0  0
  162.0040  208.5110  152.0840 C   0  0  1  0  0  3  0  0  0  0  0  0
  161.0300  205.4130  148.3160 C   0  0  0  0  0  0  0  0  0  0  0  0
  160.9300  203.1810  150.0030 C   0  0  0  0  0  3  0  0  0  0  0  0
  160.3730  201.7890  148.1140 O   0  0  0  0  0  1  0  0  0  0  0  0
  161.2820  205.5680  149.7000 C   0  0  0  0  0  0  0  0  0  0  0  0
  160.7260  204.1520  147.7950 C   0  0  0  0  0  3  0  0  0  0  0  0
  161.2310  204.4380  150.5320 C   0  0  0  0  0  3  0  0  0  0  0  0
  161.7830  207.0450  151.6970 C   0  0  0  0  0  2  0  0  0  0  0  0
  161.5740  206.8480  150.2180 C   0  0  0  0  0  0  0  0  0  0  0  0
  161.3980  207.7770  147.9770 C   0  0  0  0  0  3  0  0  0  0  0  0
  161.9670  209.3180  149.9090 C   0  0  1  0  0  3  0  0  0  0  0  0
  162.7130  209.2530  151.1080 O   0  0  0  0  0  0  0  0  0  0  0  0
  161.0820  206.5170  147.4670 C   0  0  0  0  0  3  0  0  0  0  0  0
  160.7850  209.2210  152.6930 C   0  0  1  0  0  3  0  0  0  0  0  0
  160.2320  208.3780  153.8330 C   0  0  0  0  0  1  0  0  0  0  0  0
  161.1100  210.5690  153.1530 N   0  0  0  0  0  2  0  0  0  0  0  0
  159.9050  211.3900  153.0940 C   0  0  1  0  0  3  0  0  0  0  0  0
  159.5860  211.7120  151.6450 C   0  0  0  0  0  1  0  0  0  0  0  0
  158.7150  210.6390  153.6890 C   0  0  0  0  0  2  0  0  0  0  0  0
  157.9460  211.4400  154.7430 C   0  0  1  0  0  3  0  0  0  0  0  0
  156.0510  211.2490  156.7830 C   0  0  0  0  0  2  0  0  0  0  0  0
  156.4430  211.1620  154.5870 C   0  0  0  0  0  2  0  0  0  0  0  0
  158.4250  211.1490  156.1180 N   0  0  0  0  0  0  0  0  0  0  0  0
  157.4820  211.6320  157.1370 C   0  0  0  0  0  2  0  0  0  0  0  0
  155.7120  211.8500  155.5640 O   0  0  0  0  0  0  0  0  0  0  0  0
  159.7020  211.8140  156.4260 C   0  0  0  0  0  3  0  0  0  0  0  0
  160.6980  210.9910  157.2580 C   0  0  0  0  0  2  0  0  0  0  0  0
  162.2690  209.3150  156.6190 O   0  0  0  0  0  1  0  0  0  0  0  0
  161.9360  210.6580  156.4440 C   0  0  0  0  0  2  0  0  0  0  0  0
  159.5310  213.2760  156.8520 C   0  0  0  0  0  2  0  0  0  0  0  0
  158.3710  214.4160  155.1100 O   0  0  0  0  0  1  0  0  0  0  0  0
  159.6300  214.2510  155.6890 C   0  0  0  0  0  2  0  0  0  0  0  0
  162.6620  210.2530  148.9130 C   0  0  0  0  0  2  0  0  0  0  0  0
  160.6420  211.7850  146.6800 C   0  0  0  0  0  2  0  0  0  0  0  0
  161.3140  213.4550  146.4470 P   0  0  1  0  0  0  0  0  0  0  0  0
  162.2270  213.5230  145.0260 O   0  0  0  0  0  0  0  0  0  0  0  0
  162.9360  212.6010  148.1140 C   0  0  0  0  0  2  0  0  0  0  0  0
  160.6080  211.5130  148.1800 C   0  0  0  0  0  2  0  0  0  0  0  0
  161.9970  211.6230  148.8390 C   0  0  1  0  0  3  0  0  0  0  0  0
  160.1770  214.4510  146.3720 O   0  0  0  0  0  1  0  0  0  0  0  0
  162.2900  213.8050  147.7940 O   0  0  0  0  0  0  0  0  0  0  0  0
  1  5  1  0  0  0  0
  2 13  1  0  0  0  0
  2 11  1  0  0  0  0
  3 16  1  6  0  0  0
  4  7  1  0  0  0  0
  5  9  2  0  0  0  0
  6  1  1  0  0  0  0
  7 11  2  0  0  0  0
  7  9  1  0  0  0  0
  8  4  1  0  0  0  0
  8  1  2  0  0  0  0
 10  3  1  0  0  0  0
 11 10  1  0  0  0  0
 12  2  2  0  0  0  0
 13 35  1  6  0  0  0
 13 14  1  0  0  0  0
 14  3  1  0  0  0  0
 15 12  1  0  0  0  0
 15  4  2  0  0  0  0
 16 18  1  0  0  0  0
 16 17  1  1  0  0  0
 19 20  1  6  0  0  0
 19 18  1  0  0  0  0
 19 21  1  0  0  0  0
 22 21  1  6  0  0  0
 22 25  1  0  0  0  0
 23 26  1  0  0  0  0
 24 22  1  0  0  0  0
 24 27  1  0  0  0  0
 25 28  1  0  0  0  0
 25 26  1  0  0  0  0
 27 23  1  0  0  0  0
 28 32  1  0  0  0  0
 28 29  1  0  0  0  0
 31 30  1  0  0  0  0
 31 29  1  0  0  0  0
 33 34  1  0  0  0  0
 34 32  1  0  0  0  0
 36 40  1  0  0  0  0
 37 38  2  6  0  0  0
 37 36  1  0  0  0  0
 37 43  1  0  0  0  0
 39 41  1  0  0  0  0
 40 41  1  0  0  0  0
 41 35  1  6  0  0  0
 42 37  1  0  0  0  0
 43 39  1  0  0  0  0
M  END
>  <MODEL>
9

>  <REMARK>
 VINA RESULT:      -5.4      3.266      6.718
  Name = 
  12 active torsions:
  status: ('A' for Active; 'I' for Inactive)
    1  A    between atoms: C_1  and  C_34
    2  A    between atoms: C_1  and  C_35
    3  A    between atoms: C_2  and  N_6
    4  A    between atoms: C_2  and  C_13
    5  A    between atoms: C_3  and  C_4
    6  A    between atoms: C_3  and  C_12
    7  A    between atoms: N_6  and  C_12
    8  A    between atoms: C_11  and  C_14
    9  A    between atoms: C_11  and  C_36
   10  A    between atoms: C_14  and  N_22
   11  A    between atoms: C_14  and  C_40
   12  A    between atoms: C_31  and  C_40
                            x       y       z     vdW  Elec       q    Type
                         _______ _______ _______ _____ _____    ______ ____

>  <TORSDO>
F 12

$$$$
