=
 OpenBabel11062408073D

 34 38  0  0  1  0  0  0  0  0999 V2000
  159.7060  209.2420  155.4430 C   0  0  2  0  0  3  0  0  0  0  0  0
  161.4450  211.0880  154.9970 C   0  0  2  0  0  3  0  0  0  0  0  0
  160.8310  209.4570  153.1830 N   0  0  0  0  0  0  0  0  0  0  0  0
  161.5920  209.5590  150.8000 C   0  0  0  0  0  0  0  0  0  0  0  0
  160.4780  210.8790  157.2020 C   0  0  0  0  0  2  0  0  0  0  0  0
  160.9440  211.8140  156.1720 N   0  0  0  0  0  2  0  0  0  0  0  0
  160.7660  211.5390  151.9280 C   0  0  0  0  0  3  0  0  0  0  0  0
  160.3630  210.1540  154.4010 C   0  0  1  0  0  3  0  0  0  0  0  0
  160.9790  212.3180  150.6960 C   0  0  0  0  0  3  0  0  0  0  0  0
  162.0360  210.3520  149.6000 C   0  0  0  0  0  2  0  0  0  0  0  0
  159.3050  210.0420  156.6840 C   0  0  0  0  0  2  0  0  0  0  0  0
  160.9330  208.0030  153.0830 C   0  0  0  0  0  0  0  0  0  0  0  0
  160.8100  207.8750  155.8800 S   0  0  0  0  0  0  0  0  0  0  0  0
  162.7760  210.4000  155.2870 C   0  0  0  0  0  1  0  0  0  0  0  0
  161.6950  208.2660  150.7910 N   0  0  0  0  0  0  0  0  0  0  0  0
  161.2940  207.4310  151.8950 C   0  0  0  0  0  0  0  0  0  0  0  0
  161.5510  211.7900  149.6150 C   0  0  0  0  0  0  0  0  0  0  0  0
  161.0690  210.2370  151.9950 C   0  0  0  0  0  0  0  0  0  0  0  0
  160.5300  207.1290  154.2400 C   0  0  0  0  0  2  0  0  0  0  0  0
  161.1420  204.1080  150.0820 C   0  0  0  0  0  0  0  0  0  0  0  0
  161.0950  203.2000  151.1430 C   0  0  0  0  0  3  0  0  0  0  0  0
  161.3010  205.9630  151.6540 C   0  0  0  0  0  0  0  0  0  0  0  0
  161.1510  203.6660  152.4590 C   0  0  0  0  0  3  0  0  0  0  0  0
  161.2250  205.4810  150.3340 C   0  0  0  0  0  3  0  0  0  0  0  0
  161.2460  205.0380  152.7130 C   0  0  0  0  0  3  0  0  0  0  0  0
  161.0840  203.6230  148.6820 C   0  0  0  0  0  1  0  0  0  0  0  0
  161.6590  212.6600  148.3960 C   0  0  0  0  0  2  0  0  0  0  0  0
  160.6930  213.8490  148.4170 C   0  0  0  0  0  2  0  0  0  0  0  0
  159.6680  213.6660  147.3010 C   0  0  2  0  0  3  0  0  0  0  0  0
  158.2200  213.4050  149.1740 F   0  0  0  0  0  0  0  0  0  0  0  0
  157.3880  212.5120  147.1370 C   0  0  0  0  0  1  0  0  0  0  0  0
  158.2240  213.5950  147.8050 C   0  0  2  0  0  3  0  0  0  0  0  0
  160.0220  212.5390  146.3170 C   0  0  0  0  0  2  0  0  0  0  0  0
  160.3530  213.0550  145.0620 O   0  0  0  0  0  1  0  0  0  0  0  0
  1 13  1  0  0  0  0
  1 11  1  1  0  0  0
  2 14  1  1  0  0  0
  2  6  1  0  0  0  0
  4 18  1  0  0  0  0
  6  5  1  0  0  0  0
  7 18  2  0  0  0  0
  8  3  1  6  0  0  0
  8  2  1  0  0  0  0
  8  1  1  0  0  0  0
  9  7  1  0  0  0  0
 10 17  1  0  0  0  0
 10  4  1  0  0  0  0
 11  5  1  0  0  0  0
 12  3  1  0  0  0  0
 12 19  1  0  0  0  0
 15  4  2  0  0  0  0
 15 16  1  0  0  0  0
 16 12  2  0  0  0  0
 17  9  2  0  0  0  0
 18  3  1  0  0  0  0
 19 13  1  0  0  0  0
 20 24  2  0  0  0  0
 20 21  1  0  0  0  0
 21 23  2  0  0  0  0
 22 16  1  0  0  0  0
 22 25  2  0  0  0  0
 23 25  1  0  0  0  0
 24 22  1  0  0  0  0
 26 20  1  0  0  0  0
 27 28  1  0  0  0  0
 27 17  1  0  0  0  0
 29 33  1  1  0  0  0
 29 32  1  0  0  0  0
 29 28  1  0  0  0  0
 32 31  1  6  0  0  0
 32 30  1  0  0  0  0
 34 33  1  0  0  0  0
M  END
>  <MODEL>
1

>  <REMARK>
 VINA RESULT:      -7.6      0.000      0.000
  Name = 
  6 active torsions:
  status: ('A' for Active; 'I' for Inactive)
    1  A    between atoms: C_3  and  C_13
    2  A    between atoms: C_3  and  C_29
    3  A    between atoms: C_12  and  C_28
    4  A    between atoms: C_13  and  C_22
    5  A    between atoms: C_20  and  C_22
    6  A    between atoms: C_22  and  C_33
                            x       y       z     vdW  Elec       q    Type
                         _______ _______ _______ _____ _____    ______ ____

>  <TORSDO>
F 6

$$$$
=
 OpenBabel11062408073D

 34 38  0  0  1  0  0  0  0  0999 V2000
  162.0500  209.6210  155.1820 C   0  0  2  0  0  3  0  0  0  0  0  0
  160.2430  207.7890  155.2500 C   0  0  2  0  0  3  0  0  0  0  0  0
  161.4060  208.3460  153.0900 N   0  0  0  0  0  0  0  0  0  0  0  0
  161.1530  207.1100  150.9270 C   0  0  0  0  0  0  0  0  0  0  0  0
  160.7460  209.0320  157.2610 C   0  0  0  0  0  2  0  0  0  0  0  0
  160.4000  207.7170  156.7100 N   0  0  0  0  0  2  0  0  0  0  0  0
  161.4930  205.9170  153.0100 C   0  0  0  0  0  3  0  0  0  0  0  0
  161.5260  208.3210  154.5650 C   0  0  1  0  0  3  0  0  0  0  0  0
  161.4540  204.6410  152.2740 C   0  0  0  0  0  3  0  0  0  0  0  0
  160.8810  205.8370  150.1710 C   0  0  0  0  0  2  0  0  0  0  0  0
  162.0890  209.5170  156.7090 C   0  0  0  0  0  2  0  0  0  0  0  0
  161.4950  209.5720  152.3020 C   0  0  0  0  0  0  0  0  0  0  0  0
  161.0440  211.0300  154.6530 S   0  0  0  0  0  0  0  0  0  0  0  0
  158.9690  208.5310  154.8590 C   0  0  0  0  0  1  0  0  0  0  0  0
  161.2040  208.2390  150.2910 N   0  0  0  0  0  0  0  0  0  0  0  0
  161.4580  209.5020  150.9370 C   0  0  0  0  0  0  0  0  0  0  0  0
  161.1850  204.5840  150.9710 C   0  0  0  0  0  0  0  0  0  0  0  0
  161.3330  207.0900  152.3860 C   0  0  0  0  0  0  0  0  0  0  0  0
  161.7450  210.8960  152.9750 C   0  0  0  0  0  2  0  0  0  0  0  0
  161.0320  212.9290  149.3790 C   0  0  0  0  0  0  0  0  0  0  0  0
  161.8690  212.8480  148.2630 C   0  0  0  0  0  3  0  0  0  0  0  0
  161.6700  210.6740  150.0440 C   0  0  0  0  0  0  0  0  0  0  0  0
  162.6100  211.6850  148.0340 C   0  0  0  0  0  3  0  0  0  0  0  0
  160.9170  211.8440  150.2540 C   0  0  0  0  0  3  0  0  0  0  0  0
  162.5050  210.6030  148.9140 C   0  0  0  0  0  3  0  0  0  0  0  0
  160.2430  214.1600  149.6310 C   0  0  0  0  0  1  0  0  0  0  0  0
  161.2350  203.2360  150.3140 C   0  0  0  0  0  2  0  0  0  0  0  0
  160.4080  203.1630  149.0260 C   0  0  0  0  0  2  0  0  0  0  0  0
  161.3430  202.8380  147.8630 C   0  0  2  0  0  3  0  0  0  0  0  0
  161.3690  203.3560  145.5390 F   0  0  0  0  0  0  0  0  0  0  0  0
  162.5900  204.8610  146.9110 C   0  0  0  0  0  1  0  0  0  0  0  0
  161.3890  203.9330  146.7950 C   0  0  2  0  0  3  0  0  0  0  0  0
  161.1350  201.4310  147.2790 C   0  0  0  0  0  2  0  0  0  0  0  0
  161.3550  200.4490  148.2470 O   0  0  0  0  0  1  0  0  0  0  0  0
  1 11  1  1  0  0  0
  2 14  1  1  0  0  0
  2  6  1  0  0  0  0
  4 18  1  0  0  0  0
  6  5  1  0  0  0  0
  8  3  1  6  0  0  0
  8  1  1  0  0  0  0
  8  2  1  0  0  0  0
  9  7  1  0  0  0  0
 10  4  1  0  0  0  0
 10 17  1  0  0  0  0
 11  5  1  0  0  0  0
 12 19  1  0  0  0  0
 12  3  1  0  0  0  0
 13  1  1  0  0  0  0
 15  4  2  0  0  0  0
 15 16  1  0  0  0  0
 16 12  2  0  0  0  0
 17  9  2  0  0  0  0
 18  7  2  0  0  0  0
 18  3  1  0  0  0  0
 19 13  1  0  0  0  0
 20 26  1  0  0  0  0
 20 24  1  0  0  0  0
 21 20  2  0  0  0  0
 22 24  2  0  0  0  0
 22 16  1  0  0  0  0
 23 21  1  0  0  0  0
 23 25  2  0  0  0  0
 25 22  1  0  0  0  0
 27 17  1  0  0  0  0
 28 27  1  0  0  0  0
 29 33  1  6  0  0  0
 29 28  1  0  0  0  0
 30 32  1  0  0  0  0
 32 31  1  1  0  0  0
 32 29  1  0  0  0  0
 33 34  1  0  0  0  0
M  END
>  <MODEL>
2

>  <REMARK>
 VINA RESULT:      -7.0      3.408      7.124
  Name = 
  6 active torsions:
  status: ('A' for Active; 'I' for Inactive)
    1  A    between atoms: C_3  and  C_13
    2  A    between atoms: C_3  and  C_29
    3  A    between atoms: C_12  and  C_28
    4  A    between atoms: C_13  and  C_22
    5  A    between atoms: C_20  and  C_22
    6  A    between atoms: C_22  and  C_33
                            x       y       z     vdW  Elec       q    Type
                         _______ _______ _______ _____ _____    ______ ____

>  <TORSDO>
F 6

$$$$
=
 OpenBabel11062408073D

 34 38  0  0  1  0  0  0  0  0999 V2000
  160.7210  206.3270  149.5240 C   0  0  2  0  0  3  0  0  0  0  0  0
  161.9490  205.7960  151.7230 C   0  0  2  0  0  3  0  0  0  0  0  0
  161.2770  208.1590  151.1830 N   0  0  0  0  0  0  0  0  0  0  0  0
  161.4790  210.1280  152.7170 C   0  0  0  0  0  0  0  0  0  0  0  0
  161.5310  204.0180  150.1400 C   0  0  0  0  0  2  0  0  0  0  0  0
  161.5840  204.3810  151.5600 N   0  0  0  0  0  2  0  0  0  0  0  0
  160.5580  208.0270  153.5030 C   0  0  0  0  0  3  0  0  0  0  0  0
  160.9580  206.7280  150.9840 C   0  0  1  0  0  3  0  0  0  0  0  0
  160.3540  208.6260  154.8340 C   0  0  0  0  0  3  0  0  0  0  0  0
  161.5010  210.7090  154.1050 C   0  0  0  0  0  3  0  0  0  0  0  0
  160.4520  204.8240  149.4130 C   0  0  0  0  0  2  0  0  0  0  0  0
  161.6240  209.0610  150.0890 C   0  0  0  0  0  0  0  0  0  0  0  0
  162.1270  206.8130  148.4930 S   0  0  0  0  0  0  0  0  0  0  0  0
  163.4160  206.0400  151.3800 C   0  0  0  0  0  1  0  0  0  0  0  0
  161.8160  210.8650  151.7050 N   0  0  0  0  0  0  0  0  0  0  0  0
  161.8230  210.3890  150.3450 C   0  0  0  0  0  0  0  0  0  0  0  0
  160.7700  209.8560  155.1270 C   0  0  0  0  0  0  0  0  0  0  0  0
  161.1060  208.7220  152.4990 C   0  0  1  0  0  3  0  0  0  0  0  0
  161.6480  208.5630  148.6680 C   0  0  0  0  0  2  0  0  0  0  0  0
  161.1480  213.1410  147.8310 C   0  0  0  0  0  0  0  0  0  0  0  0
  162.3610  213.2100  147.1410 C   0  0  0  0  0  3  0  0  0  0  0  0
  162.0530  211.4080  149.2850 C   0  0  0  0  0  0  0  0  0  0  0  0
  163.4230  212.3820  147.5180 C   0  0  0  0  0  3  0  0  0  0  0  0
  160.9870  212.2350  148.8830 C   0  0  0  0  0  3  0  0  0  0  0  0
  163.2660  211.4830  148.5780 C   0  0  0  0  0  3  0  0  0  0  0  0
  160.0170  214.0170  147.4380 C   0  0  0  0  0  1  0  0  0  0  0  0
  160.4510  210.3860  156.4950 C   0  0  0  0  0  2  0  0  0  0  0  0
  159.7400  211.7430  156.4650 C   0  0  0  0  0  2  0  0  0  0  0  0
  158.3010  211.5300  156.0020 C   0  0  2  0  0  3  0  0  0  0  0  0
  158.1760  211.1610  153.6520 F   0  0  0  0  0  0  0  0  0  0  0  0
  158.8600  213.3450  154.2850 C   0  0  0  0  0  1  0  0  0  0  0  0
  158.0090  212.1300  154.6240 C   0  0  2  0  0  3  0  0  0  0  0  0
  157.2510  211.9060  157.0600 C   0  0  0  0  0  2  0  0  0  0  0  0
  155.9760  211.9870  156.4950 O   0  0  0  0  0  1  0  0  0  0  0  0
  1 11  1  1  0  0  0
  1  8  1  0  0  0  0
  2 14  1  6  0  0  0
  3 18  1  0  0  0  0
  4 10  1  0  0  0  0
  5  6  1  0  0  0  0
  6  2  1  0  0  0  0
  7  9  2  0  0  0  0
  8  3  1  6  0  0  0
  8  2  1  0  0  0  0
  9 17  1  0  0  0  0
 10 17  2  0  0  0  0
 11  5  1  0  0  0  0
 12 16  2  0  0  0  0
 12  3  1  0  0  0  0
 13 19  1  0  0  0  0
 13  1  1  0  0  0  0
 15  4  2  0  0  0  0
 16 15  1  0  0  0  0
 17 27  1  0  0  0  0
 18  4  1  0  0  0  0
 18  7  1  6  0  0  0
 19 12  1  0  0  0  0
 20 24  1  0  0  0  0
 21 23  1  0  0  0  0
 21 20  2  0  0  0  0
 22 16  1  0  0  0  0
 23 25  2  0  0  0  0
 24 22  2  0  0  0  0
 25 22  1  0  0  0  0
 26 20  1  0  0  0  0
 28 27  1  0  0  0  0
 29 28  1  1  0  0  0
 29 33  1  0  0  0  0
 30 32  1  0  0  0  0
 32 31  1  6  0  0  0
 32 29  1  0  0  0  0
 34 33  1  0  0  0  0
M  END
>  <MODEL>
3

>  <REMARK>
 VINA RESULT:      -6.3      3.082      7.331
  Name = 
  6 active torsions:
  status: ('A' for Active; 'I' for Inactive)
    1  A    between atoms: C_3  and  C_13
    2  A    between atoms: C_3  and  C_29
    3  A    between atoms: C_12  and  C_28
    4  A    between atoms: C_13  and  C_22
    5  A    between atoms: C_20  and  C_22
    6  A    between atoms: C_22  and  C_33
                            x       y       z     vdW  Elec       q    Type
                         _______ _______ _______ _____ _____    ______ ____

>  <TORSDO>
F 6

$$$$
=
 OpenBabel11062408073D

 34 38  0  0  1  0  0  0  0  0999 V2000
  160.0770  208.7280  153.6860 C   0  0  2  0  0  3  0  0  0  0  0  0
  161.7290  210.7030  153.6780 C   0  0  2  0  0  3  0  0  0  0  0  0
  161.0620  209.5970  151.5190 N   0  0  0  0  0  0  0  0  0  0  0  0
  161.6810  210.3740  149.2210 C   0  0  0  0  0  0  0  0  0  0  0  0
  160.8970  209.8620  155.7860 C   0  0  0  0  0  2  0  0  0  0  0  0
  161.2740  211.0610  155.0290 N   0  0  0  0  0  2  0  0  0  0  0  0
  160.8590  211.9360  150.8830 C   0  0  0  0  0  3  0  0  0  0  0  0
  160.6440  209.9170  152.9020 C   0  0  1  0  0  3  0  0  0  0  0  0
  160.9770  213.0280  149.9020 C   0  0  0  0  0  3  0  0  0  0  0  0
  162.0310  211.4820  148.2630 C   0  0  0  0  0  2  0  0  0  0  0  0
  159.7230  209.1440  155.1150 C   0  0  0  0  0  2  0  0  0  0  0  0
  161.2040  208.2310  151.0220 C   0  0  0  0  0  0  0  0  0  0  0  0
  161.2460  207.3460  153.6810 S   0  0  0  0  0  0  0  0  0  0  0  0
  163.0950  210.0250  153.7070 C   0  0  0  0  0  1  0  0  0  0  0  0
  161.8240  209.1380  148.8550 N   0  0  0  0  0  0  0  0  0  0  0  0
  161.5130  208.0180  149.7080 C   0  0  0  0  0  0  0  0  0  0  0  0
  161.5020  212.8380  148.6920 C   0  0  0  0  0  0  0  0  0  0  0  0
  161.2070  210.6790  150.5780 C   0  0  0  0  0  0  0  0  0  0  0  0
  160.8950  207.0590  151.9150 C   0  0  0  0  0  2  0  0  0  0  0  0
  161.2160  204.2670  149.2750 C   0  0  0  0  0  0  0  0  0  0  0  0
  161.7980  204.0710  148.0200 C   0  0  0  0  0  3  0  0  0  0  0  0
  161.5520  206.6710  149.0760 C   0  0  0  0  0  0  0  0  0  0  0  0
  162.2570  205.1700  147.2880 C   0  0  0  0  0  3  0  0  0  0  0  0
  161.1100  205.5550  149.8090 C   0  0  0  0  0  3  0  0  0  0  0  0
  162.1420  206.4600  147.8170 C   0  0  0  0  0  3  0  0  0  0  0  0
  160.7240  203.1060  150.0570 C   0  0  0  0  0  1  0  0  0  0  0  0
  161.5120  214.0090  147.7520 C   0  0  0  0  0  2  0  0  0  0  0  0
  162.3770  213.7750  146.5100 C   0  0  0  0  0  2  0  0  0  0  0  0
  161.4880  213.8610  145.2720 C   0  0  2  0  0  3  0  0  0  0  0  0
  160.5940  212.1160  143.9190 F   0  0  0  0  0  0  0  0  0  0  0  0
  159.0400  213.1210  145.4070 C   0  0  0  0  0  1  0  0  0  0  0  0
  160.4850  212.7090  145.1630 C   0  0  2  0  0  3  0  0  0  0  0  0
  162.2660  214.1110  143.9700 C   0  0  0  0  0  2  0  0  0  0  0  0
  163.4350  213.3490  143.9300 O   0  0  0  0  0  1  0  0  0  0  0  0
  1 11  1  1  0  0  0
  2 14  1  1  0  0  0
  2  6  1  0  0  0  0
  4 18  1  0  0  0  0
  6  5  1  0  0  0  0
  8  3  1  6  0  0  0
  8  2  1  0  0  0  0
  8  1  1  0  0  0  0
  9  7  1  0  0  0  0
 10 17  1  0  0  0  0
 10  4  1  0  0  0  0
 11  5  1  0  0  0  0
 12  3  1  0  0  0  0
 12 19  1  0  0  0  0
 13  1  1  0  0  0  0
 15  4  2  0  0  0  0
 15 16  1  0  0  0  0
 16 12  2  0  0  0  0
 17  9  2  0  0  0  0
 18  7  2  0  0  0  0
 18  3  1  0  0  0  0
 19 13  1  0  0  0  0
 20 24  1  0  0  0  0
 20 26  1  0  0  0  0
 21 20  2  0  0  0  0
 22 16  1  0  0  0  0
 22 24  2  0  0  0  0
 23 25  2  0  0  0  0
 23 21  1  0  0  0  0
 25 22  1  0  0  0  0
 27 17  1  0  0  0  0
 28 27  1  0  0  0  0
 29 33  1  6  0  0  0
 29 28  1  0  0  0  0
 30 32  1  0  0  0  0
 32 29  1  0  0  0  0
 32 31  1  6  0  0  0
 34 33  1  0  0  0  0
M  END
>  <MODEL>
4

>  <REMARK>
 VINA RESULT:      -5.5      1.942      2.614
  Name = 
  6 active torsions:
  status: ('A' for Active; 'I' for Inactive)
    1  A    between atoms: C_3  and  C_13
    2  A    between atoms: C_3  and  C_29
    3  A    between atoms: C_12  and  C_28
    4  A    between atoms: C_13  and  C_22
    5  A    between atoms: C_20  and  C_22
    6  A    between atoms: C_22  and  C_33
                            x       y       z     vdW  Elec       q    Type
                         _______ _______ _______ _____ _____    ______ ____

>  <TORSDO>
F 6

$$$$
=
 OpenBabel11062408073D

 34 38  0  0  1  0  0  0  0  0999 V2000
  160.5180  213.3480  148.1320 C   0  0  2  0  0  3  0  0  0  0  0  0
  162.7060  212.1140  147.5690 C   0  0  2  0  0  3  0  0  0  0  0  0
  161.2610  211.3300  149.4730 N   0  0  0  0  0  0  0  0  0  0  0  0
  161.6100  209.2480  150.8180 C   0  0  0  0  0  0  0  0  0  0  0  0
  162.1000  214.0870  146.3110 C   0  0  0  0  0  2  0  0  0  0  0  0
  162.6980  212.7490  146.2430 N   0  0  0  0  0  2  0  0  0  0  0  0
  161.7460  209.2030  148.3980 C   0  0  0  0  0  3  0  0  0  0  0  0
  161.2800  212.0180  148.1630 C   0  0  1  0  0  3  0  0  0  0  0  0
  162.0220  207.7570  148.4500 C   0  0  0  0  0  3  0  0  0  0  0  0
  162.1090  207.8320  150.9340 C   0  0  0  0  0  3  0  0  0  0  0  0
  160.6380  214.0070  146.7570 C   0  0  0  0  0  2  0  0  0  0  0  0
  160.8160  211.9730  150.7070 C   0  0  0  0  0  0  0  0  0  0  0  0
  161.1110  214.4530  149.4370 S   0  0  0  0  0  0  0  0  0  0  0  0
  163.7300  212.7640  148.4960 C   0  0  0  0  0  1  0  0  0  0  0  0
  161.2390  209.8890  151.8830 N   0  0  0  0  0  0  0  0  0  0  0  0
  160.7490  211.2440  151.8620 C   0  0  0  0  0  0  0  0  0  0  0  0
  162.1820  207.1080  149.6020 C   0  0  0  0  0  0  0  0  0  0  0  0
  161.5670  209.9230  149.5130 C   0  0  1  0  0  3  0  0  0  0  0  0
  160.3190  213.3940  150.6920 C   0  0  0  0  0  2  0  0  0  0  0  0
  160.2550  211.8310  155.5720 C   0  0  0  0  0  0  0  0  0  0  0  0
  159.0560  212.5490  155.5960 C   0  0  0  0  0  3  0  0  0  0  0  0
  160.1890  211.7680  153.1370 C   0  0  0  0  0  0  0  0  0  0  0  0
  158.4210  212.8800  154.3960 C   0  0  0  0  0  3  0  0  0  0  0  0
  160.8090  211.4260  154.3530 C   0  0  0  0  0  3  0  0  0  0  0  0
  158.9800  212.4850  153.1760 C   0  0  0  0  0  3  0  0  0  0  0  0
  160.9370  211.4760  156.8400 C   0  0  0  0  0  1  0  0  0  0  0  0
  162.3960  205.6240  149.5350 C   0  0  0  0  0  2  0  0  0  0  0  0
  161.1760  204.8640  149.0040 C   0  0  0  0  0  2  0  0  0  0  0  0
  160.7550  203.8290  150.0440 C   0  0  2  0  0  3  0  0  0  0  0  0
  161.9260  202.5200  151.6530 F   0  0  0  0  0  0  0  0  0  0  0  0
  161.0440  204.5640  152.4800 C   0  0  0  0  0  1  0  0  0  0  0  0
  161.6420  203.8230  151.2920 C   0  0  2  0  0  3  0  0  0  0  0  0
  160.5240  202.4250  149.4600 C   0  0  0  0  0  2  0  0  0  0  0  0
  161.1660  202.2840  148.2280 O   0  0  0  0  0  1  0  0  0  0  0  0
  1 11  1  6  0  0  0
  1  8  1  0  0  0  0
  1 13  1  0  0  0  0
  2  8  1  0  0  0  0
  2 14  1  1  0  0  0
  3 18  1  0  0  0  0
  3 12  1  0  0  0  0
  4 10  1  0  0  0  0
  4 15  2  0  0  0  0
  5 11  1  0  0  0  0
  6  5  1  0  0  0  0
  6  2  1  0  0  0  0
  7  9  2  0  0  0  0
  8  3  1  1  0  0  0
  9 17  1  0  0  0  0
 12 16  2  0  0  0  0
 13 19  1  0  0  0  0
 16 15  1  0  0  0  0
 16 22  1  0  0  0  0
 17 10  2  0  0  0  0
 18  7  1  6  0  0  0
 18  4  1  0  0  0  0
 19 12  1  0  0  0  0
 20 21  1  0  0  0  0
 20 26  1  0  0  0  0
 22 25  2  0  0  0  0
 22 24  1  0  0  0  0
 23 21  2  0  0  0  0
 24 20  2  0  0  0  0
 25 23  1  0  0  0  0
 27 17  1  0  0  0  0
 28 27  1  0  0  0  0
 29 28  1  6  0  0  0
 29 32  1  0  0  0  0
 32 30  1  0  0  0  0
 32 31  1  1  0  0  0
 33 29  1  0  0  0  0
 34 33  1  0  0  0  0
M  END
>  <MODEL>
5

>  <REMARK>
 VINA RESULT:      -5.4      3.744      8.167
  Name = 
  6 active torsions:
  status: ('A' for Active; 'I' for Inactive)
    1  A    between atoms: C_3  and  C_13
    2  A    between atoms: C_3  and  C_29
    3  A    between atoms: C_12  and  C_28
    4  A    between atoms: C_13  and  C_22
    5  A    between atoms: C_20  and  C_22
    6  A    between atoms: C_22  and  C_33
                            x       y       z     vdW  Elec       q    Type
                         _______ _______ _______ _____ _____    ______ ____

>  <TORSDO>
F 6

$$$$
=
 OpenBabel11062408073D

 34 38  0  0  1  0  0  0  0  0999 V2000
  160.4450  213.4120  148.2850 C   0  0  2  0  0  3  0  0  0  0  0  0
  162.5830  212.2220  147.4820 C   0  0  2  0  0  3  0  0  0  0  0  0
  161.2680  211.3020  149.4200 N   0  0  0  0  0  0  0  0  0  0  0  0
  161.6980  209.1260  150.5830 C   0  0  0  0  0  0  0  0  0  0  0  0
  161.9020  214.2820  146.4170 C   0  0  0  0  0  2  0  0  0  0  0  0
  162.4860  212.9520  146.2100 N   0  0  0  0  0  2  0  0  0  0  0  0
  161.6660  209.2590  148.1620 C   0  0  0  0  0  3  0  0  0  0  0  0
  161.2000  212.0840  148.1660 C   0  0  1  0  0  3  0  0  0  0  0  0
  161.9360  207.8130  148.0890 C   0  0  0  0  0  3  0  0  0  0  0  0
  162.1960  207.7060  150.5600 C   0  0  0  0  0  3  0  0  0  0  0  0
  160.4740  214.1700  146.9560 C   0  0  0  0  0  2  0  0  0  0  0  0
  160.9140  211.8520  150.7250 C   0  0  0  0  0  0  0  0  0  0  0  0
  161.1340  214.4190  149.6220 S   0  0  0  0  0  0  0  0  0  0  0  0
  163.6710  212.8020  148.3810 C   0  0  0  0  0  1  0  0  0  0  0  0
  161.4050  209.6880  151.7140 N   0  0  0  0  0  0  0  0  0  0  0  0
  160.9230  211.0410  151.8260 C   0  0  0  0  0  0  0  0  0  0  0  0
  162.1720  207.0810  149.1760 C   0  0  0  0  0  0  0  0  0  0  0  0
  161.5690  209.8950  149.3360 C   0  0  1  0  0  3  0  0  0  0  0  0
  160.4250  213.2710  150.8480 C   0  0  0  0  0  2  0  0  0  0  0  0
  160.7320  211.4090  155.5920 C   0  0  0  0  0  0  0  0  0  0  0  0
  159.5110  212.0680  155.7580 C   0  0  0  0  0  3  0  0  0  0  0  0
  160.4550  211.4710  153.1720 C   0  0  0  0  0  0  0  0  0  0  0  0
  158.7590  212.4320  154.6370 C   0  0  0  0  0  3  0  0  0  0  0  0
  161.1930  211.0950  154.3090 C   0  0  0  0  0  3  0  0  0  0  0  0
  159.2250  212.1280  153.3540 C   0  0  0  0  0  3  0  0  0  0  0  0
  161.5370  211.0210  156.7750 C   0  0  0  0  0  1  0  0  0  0  0  0
  162.3730  205.6060  148.9870 C   0  0  0  0  0  2  0  0  0  0  0  0
  161.2180  204.9330  148.2390 C   0  0  0  0  0  2  0  0  0  0  0  0
  161.7900  203.8470  147.3310 C   0  0  2  0  0  3  0  0  0  0  0  0
  163.3900  204.7520  145.8160 F   0  0  0  0  0  0  0  0  0  0  0  0
  161.1510  205.4440  145.4340 C   0  0  0  0  0  1  0  0  0  0  0  0
  162.0760  204.3320  145.9070 C   0  0  2  0  0  3  0  0  0  0  0  0
  161.0020  202.5280  147.3740 C   0  0  0  0  0  2  0  0  0  0  0  0
  160.8330  202.0030  146.0900 O   0  0  0  0  0  1  0  0  0  0  0  0
  1 11  1  6  0  0  0
  1 13  1  0  0  0  0
  2  8  1  0  0  0  0
  2 14  1  1  0  0  0
  3 12  1  0  0  0  0
  4 15  2  0  0  0  0
  5 11  1  0  0  0  0
  6  5  1  0  0  0  0
  6  2  1  0  0  0  0
  8  1  1  0  0  0  0
  8  3  1  1  0  0  0
  9  7  2  0  0  0  0
  9 17  1  0  0  0  0
 10  4  1  0  0  0  0
 12 19  1  0  0  0  0
 12 16  2  0  0  0  0
 13 19  1  0  0  0  0
 15 16  1  0  0  0  0
 16 22  1  0  0  0  0
 17 10  2  0  0  0  0
 18  7  1  6  0  0  0
 18  3  1  0  0  0  0
 18  4  1  0  0  0  0
 20 21  1  0  0  0  0
 20 26  1  0  0  0  0
 22 25  2  0  0  0  0
 22 24  1  0  0  0  0
 23 21  2  0  0  0  0
 24 20  2  0  0  0  0
 25 23  1  0  0  0  0
 27 17  1  0  0  0  0
 28 27  1  0  0  0  0
 29 33  1  6  0  0  0
 29 28  1  0  0  0  0
 30 32  1  0  0  0  0
 32 31  1  1  0  0  0
 32 29  1  0  0  0  0
 34 33  1  0  0  0  0
M  END
>  <MODEL>
6

>  <REMARK>
 VINA RESULT:      -5.3      3.736      7.886
  Name = 
  6 active torsions:
  status: ('A' for Active; 'I' for Inactive)
    1  A    between atoms: C_3  and  C_13
    2  A    between atoms: C_3  and  C_29
    3  A    between atoms: C_12  and  C_28
    4  A    between atoms: C_13  and  C_22
    5  A    between atoms: C_20  and  C_22
    6  A    between atoms: C_22  and  C_33
                            x       y       z     vdW  Elec       q    Type
                         _______ _______ _______ _____ _____    ______ ____

>  <TORSDO>
F 6

$$$$
