=
 OpenBabel11052423063D

 27 31  0  0  1  0  0  0  0  0999 V2000
  162.4790  210.3790  151.2650 C   0  0  0  0  0  3  0  0  0  0  0  0
  161.8450  208.6780  149.5620 C   0  0  0  0  0  0  0  0  0  0  0  0
  160.7660  207.8650  151.7190 C   0  0  0  0  0  3  0  0  0  0  0  0
  161.6420  204.7720  148.2630 N   0  0  0  0  0  0  0  0  0  0  0  0
  160.7890  202.8790  149.5430 N   0  0  0  0  0  1  0  0  0  0  0  0
  162.2980  208.3810  148.2520 C   0  0  0  0  0  3  0  0  0  0  0  0
  160.8870  205.1790  150.3660 N   0  0  0  0  0  0  0  0  0  0  0  0
  161.0800  209.4080  155.0300 C   0  0  0  0  0  0  0  0  0  0  0  0
  160.3330  204.9270  151.6880 C   0  0  0  0  0  1  0  0  0  0  0  0
  160.9340  208.9860  156.1640 O   0  0  0  0  0  0  0  0  0  0  0  0
  161.3130  206.3390  149.8300 C   0  0  0  0  0  0  0  0  0  0  0  0
  161.8680  210.0420  150.0130 N   0  0  0  0  0  0  0  0  0  0  0  0
  161.1000  204.2620  149.3950 C   0  0  0  0  0  0  0  0  0  0  0  0
  161.7660  206.0800  148.5640 C   0  0  0  0  0  0  0  0  0  0  0  0
  162.1790  209.8000  152.4250 C   0  0  0  0  0  0  0  0  0  0  0  0
  161.3450  207.6330  150.3840 C   0  0  0  0  0  0  0  0  0  0  0  0
  160.3130  208.7950  153.8950 C   0  0  0  0  0  2  0  0  0  0  0  0
  162.2670  207.0760  147.7410 C   0  0  0  0  0  3  0  0  0  0  0  0
  161.9630  210.5880  154.7780 C   0  0  0  0  0  2  0  0  0  0  0  0
  162.9230  210.2730  153.6370 C   0  0  0  0  0  2  0  0  0  0  0  0
  161.0900  208.8040  152.6080 C   0  0  0  0  0  0  0  0  0  0  0  0
  161.9290  213.8000  148.2210 O   0  0  0  0  0  0  0  0  0  0  0  0
  161.6570  211.1130  149.0370 C   0  0  2  0  0  3  0  0  0  0  0  0
  162.9840  211.6320  148.4770 C   0  0  0  0  0  2  0  0  0  0  0  0
  162.6920  212.8010  147.5410 C   0  0  0  0  0  2  0  0  0  0  0  0
  160.9700  213.4780  149.1930 C   0  0  0  0  0  3  0  0  0  0  0  0
  160.8240  212.2230  149.6210 C   0  0  0  0  0  3  0  0  0  0  0  0
  1 15  2  0  0  0  0
  2 12  1  0  0  0  0
  2 16  1  0  0  0  0
  3 21  2  0  0  0  0
  4 14  1  0  0  0  0
  4 13  2  0  0  0  0
  6  2  2  0  0  0  0
  7  9  1  0  0  0  0
  8 10  2  0  0  0  0
 11  7  1  0  0  0  0
 11 16  2  0  0  0  0
 12  1  1  0  0  0  0
 13  5  1  0  0  0  0
 13  7  1  0  0  0  0
 14 11  1  0  0  0  0
 15 21  1  0  0  0  0
 15 20  1  0  0  0  0
 16  3  1  0  0  0  0
 17  8  1  0  0  0  0
 18  6  1  0  0  0  0
 18 14  2  0  0  0  0
 19  8  1  0  0  0  0
 20 19  1  0  0  0  0
 21 17  1  0  0  0  0
 22 26  1  0  0  0  0
 23 24  1  1  0  0  0
 23 27  1  0  0  0  0
 23 12  1  0  0  0  0
 25 22  1  0  0  0  0
 25 24  1  0  0  0  0
 26 27  2  0  0  0  0
M  END
>  <MODEL>
1

>  <REMARK>
 VINA RESULT:      -6.5      0.000      0.000
  Name = 
  1 active torsions:
  status: ('A' for Active; 'I' for Inactive)
    1  A    between atoms: C_9  and  N_15
                            x       y       z     vdW  Elec       q    Type
                         _______ _______ _______ _____ _____    ______ ____

>  <TORSDO>
F 1

$$$$
=
 OpenBabel11052423063D

 27 31  0  0  1  0  0  0  0  0999 V2000
  160.4060  210.4460  152.9500 C   0  0  0  0  0  3  0  0  0  0  0  0
  161.1540  208.0890  152.6620 C   0  0  0  0  0  0  0  0  0  0  0  0
  161.7690  209.2340  150.4740 C   0  0  0  0  0  3  0  0  0  0  0  0
  161.2000  204.5490  150.5540 N   0  0  0  0  0  0  0  0  0  0  0  0
  161.6380  204.3090  148.1660 N   0  0  0  0  0  1  0  0  0  0  0  0
  160.9040  206.8850  153.3670 C   0  0  0  0  0  3  0  0  0  0  0  0
  161.6230  206.4390  149.3670 N   0  0  0  0  0  0  0  0  0  0  0  0
  161.0470  212.7080  149.5520 C   0  0  0  0  0  0  0  0  0  0  0  0
  161.9180  207.2960  148.2280 C   0  0  0  0  0  1  0  0  0  0  0  0
  160.9570  213.2860  148.4830 O   0  0  0  0  0  0  0  0  0  0  0  0
  161.4060  206.7780  150.6520 C   0  0  0  0  0  0  0  0  0  0  0  0
  161.1850  209.3270  153.3920 N   0  0  0  0  0  0  0  0  0  0  0  0
  161.4910  205.0930  149.3470 C   0  0  0  0  0  0  0  0  0  0  0  0
  161.1520  205.6310  151.3560 C   0  0  0  0  0  0  0  0  0  0  0  0
  160.4480  210.9500  151.7190 C   0  0  0  0  0  0  0  0  0  0  0  0
  161.4050  208.0460  151.2650 C   0  0  0  0  0  0  0  0  0  0  0  0
  161.9330  211.5040  149.6840 C   0  0  0  0  0  2  0  0  0  0  0  0
  160.8960  205.6420  152.7180 C   0  0  0  0  0  3  0  0  0  0  0  0
  160.3360  213.2430  150.7550 C   0  0  0  0  0  2  0  0  0  0  0  0
  159.5580  212.1190  151.4290 C   0  0  0  0  0  2  0  0  0  0  0  0
  161.3900  210.4980  150.6610 C   0  0  0  0  0  0  0  0  0  0  0  0
  162.0520  210.6000  157.2610 O   0  0  0  0  0  0  0  0  0  0  0  0
  161.6610  209.3190  154.7760 C   0  0  2  0  0  3  0  0  0  0  0  0
  160.5050  209.4790  155.7680 C   0  0  0  0  0  2  0  0  0  0  0  0
  161.0820  209.5540  157.1780 C   0  0  0  0  0  2  0  0  0  0  0  0
  162.8920  210.9280  156.1860 C   0  0  0  0  0  3  0  0  0  0  0  0
  162.7270  210.3610  154.9900 C   0  0  0  0  0  3  0  0  0  0  0  0
  1 12  1  0  0  0  0
  2  6  1  0  0  0  0
  2 12  1  0  0  0  0
  3 21  2  0  0  0  0
  3 16  1  0  0  0  0
  4 14  1  0  0  0  0
  5 13  1  0  0  0  0
  7 11  1  0  0  0  0
  8 17  1  0  0  0  0
  8 19  1  0  0  0  0
  9  7  1  0  0  0  0
 10  8  2  0  0  0  0
 11 16  1  0  0  0  0
 11 14  2  0  0  0  0
 13  7  1  0  0  0  0
 13  4  2  0  0  0  0
 14 18  1  0  0  0  0
 15  1  2  0  0  0  0
 16  2  2  0  0  0  0
 17 21  1  0  0  0  0
 18  6  2  0  0  0  0
 19 20  1  0  0  0  0
 20 15  1  0  0  0  0
 21 15  1  0  0  0  0
 23 12  1  6  0  0  0
 23 27  1  0  0  0  0
 23 24  1  0  0  0  0
 24 25  1  0  0  0  0
 25 22  1  0  0  0  0
 26 22  1  0  0  0  0
 27 26  2  0  0  0  0
M  END
>  <MODEL>
2

>  <REMARK>
 VINA RESULT:      -6.4      1.507      5.214
  Name = 
  1 active torsions:
  status: ('A' for Active; 'I' for Inactive)
    1  A    between atoms: C_9  and  N_15
                            x       y       z     vdW  Elec       q    Type
                         _______ _______ _______ _____ _____    ______ ____

>  <TORSDO>
F 1

$$$$
=
 OpenBabel11052423063D

 27 31  0  0  1  0  0  0  0  0999 V2000
  161.2810  210.7920  154.4270 C   0  0  0  0  0  3  0  0  0  0  0  0
  161.1310  210.3730  151.9780 C   0  0  0  0  0  0  0  0  0  0  0  0
  160.6250  208.1210  153.0500 C   0  0  0  0  0  3  0  0  0  0  0  0
  162.2030  208.2640  148.6040 N   0  0  0  0  0  0  0  0  0  0  0  0
  162.2070  205.8360  148.3730 N   0  0  0  0  0  1  0  0  0  0  0  0
  161.5300  211.1010  150.8300 C   0  0  0  0  0  3  0  0  0  0  0  0
  161.5600  207.0360  150.4030 N   0  0  0  0  0  0  0  0  0  0  0  0
  160.6910  207.3480  156.6340 C   0  0  0  0  0  0  0  0  0  0  0  0
  161.2630  205.8690  151.2220 C   0  0  0  0  0  1  0  0  0  0  0  0
  160.8150  206.3110  157.2610 O   0  0  0  0  0  0  0  0  0  0  0  0
  161.4930  208.3410  150.7280 C   0  0  0  0  0  0  0  0  0  0  0  0
  160.7110  211.0960  153.1480 N   0  0  0  0  0  0  0  0  0  0  0  0
  161.9910  207.0290  149.1210 C   0  0  0  0  0  0  0  0  0  0  0  0
  161.8830  209.0700  149.6360 C   0  0  0  0  0  0  0  0  0  0  0  0
  161.3210  209.5730  154.9600 C   0  0  0  0  0  0  0  0  0  0  0  0
  161.1170  208.9530  151.9390 C   0  0  0  0  0  0  0  0  0  0  0  0
  160.0850  207.3280  155.2610 C   0  0  0  0  0  2  0  0  0  0  0  0
  161.9150  210.4560  149.6460 C   0  0  0  0  0  3  0  0  0  0  0  0
  161.0690  208.6520  157.2610 C   0  0  0  0  0  2  0  0  0  0  0  0
  161.9620  209.4370  156.3070 C   0  0  0  0  0  2  0  0  0  0  0  0
  160.6800  208.3740  154.3580 C   0  0  0  0  0  0  0  0  0  0  0  0
  157.7120  213.9800  153.0100 O   0  0  0  0  0  0  0  0  0  0  0  0
  160.0400  212.3850  152.9790 C   0  0  2  0  0  3  0  0  0  0  0  0
  159.4520  212.8890  154.3000 C   0  0  0  0  0  2  0  0  0  0  0  0
  158.6930  214.1840  154.0300 C   0  0  0  0  0  2  0  0  0  0  0  0
  157.9210  213.1020  151.9360 C   0  0  0  0  0  3  0  0  0  0  0  0
  158.9980  212.3160  151.8940 C   0  0  0  0  0  3  0  0  0  0  0  0
  1 15  2  0  0  0  0
  2 12  1  0  0  0  0
  3 21  2  0  0  0  0
  4 13  2  0  0  0  0
  4 14  1  0  0  0  0
  5 13  1  0  0  0  0
  6  2  2  0  0  0  0
  7 11  1  0  0  0  0
  7  9  1  0  0  0  0
  8 19  1  0  0  0  0
  8 10  2  0  0  0  0
 11 16  2  0  0  0  0
 12  1  1  0  0  0  0
 13  7  1  0  0  0  0
 14 18  2  0  0  0  0
 14 11  1  0  0  0  0
 15 20  1  0  0  0  0
 16  2  1  0  0  0  0
 16  3  1  0  0  0  0
 17  8  1  0  0  0  0
 18  6  1  0  0  0  0
 20 19  1  0  0  0  0
 21 15  1  0  0  0  0
 21 17  1  0  0  0  0
 22 25  1  0  0  0  0
 23 27  1  6  0  0  0
 23 12  1  0  0  0  0
 23 24  1  0  0  0  0
 25 24  1  0  0  0  0
 26 22  1  0  0  0  0
 27 26  2  0  0  0  0
M  END
>  <MODEL>
3

>  <REMARK>
 VINA RESULT:      -6.2      2.517      3.685
  Name = 
  1 active torsions:
  status: ('A' for Active; 'I' for Inactive)
    1  A    between atoms: C_9  and  N_15
                            x       y       z     vdW  Elec       q    Type
                         _______ _______ _______ _____ _____    ______ ____

>  <TORSDO>
F 1

$$$$
=
 OpenBabel11052423063D

 27 31  0  0  1  0  0  0  0  0999 V2000
  162.0060  208.9240  149.5740 C   0  0  0  0  0  3  0  0  0  0  0  0
  161.2370  208.0020  151.7540 C   0  0  0  0  0  0  0  0  0  0  0  0
  160.6100  210.4680  151.8380 C   0  0  0  0  0  3  0  0  0  0  0  0
  161.1440  208.0780  155.8730 N   0  0  0  0  0  0  0  0  0  0  0  0
  160.6810  210.0310  157.2600 N   0  0  0  0  0  1  0  0  0  0  0  0
  161.4850  206.7950  152.4540 C   0  0  0  0  0  3  0  0  0  0  0  0
  160.7240  210.0440  154.8160 N   0  0  0  0  0  0  0  0  0  0  0  0
  161.3490  212.9940  149.2860 C   0  0  0  0  0  0  0  0  0  0  0  0
  160.4250  211.4570  154.6320 C   0  0  0  0  0  1  0  0  0  0  0  0
  161.4330  214.2090  149.3150 O   0  0  0  0  0  0  0  0  0  0  0  0
  160.9560  209.0970  153.8870 C   0  0  0  0  0  0  0  0  0  0  0  0
  161.2220  207.9820  150.3170 N   0  0  0  0  0  0  0  0  0  0  0  0
  160.8460  209.3950  155.9960 C   0  0  0  0  0  0  0  0  0  0  0  0
  161.2080  207.9180  154.5370 C   0  0  0  0  0  0  0  0  0  0  0  0
  161.9560  210.2430  149.7460 C   0  0  0  0  0  0  0  0  0  0  0  0
  160.9730  209.1930  152.4820 C   0  0  0  0  0  0  0  0  0  0  0  0
  160.4550  212.2780  150.2560 C   0  0  0  0  0  2  0  0  0  0  0  0
  161.4780  206.7420  153.8550 C   0  0  0  0  0  3  0  0  0  0  0  0
  162.0760  212.2180  148.2330 C   0  0  0  0  0  2  0  0  0  0  0  0
  162.8520  211.0790  148.8840 C   0  0  0  0  0  2  0  0  0  0  0  0
  161.0000  210.9340  150.6510 C   0  0  0  0  0  0  0  0  0  0  0  0
  161.2070  204.5980  147.8910 O   0  0  0  0  0  0  0  0  0  0  0  0
  160.7600  206.7740  149.6330 C   0  0  2  0  0  3  0  0  0  0  0  0
  161.5250  205.5340  150.1060 C   0  0  0  0  0  2  0  0  0  0  0  0
  161.0560  204.3340  149.2880 C   0  0  0  0  0  2  0  0  0  0  0  0
  161.0240  205.8790  147.3480 C   0  0  0  0  0  3  0  0  0  0  0  0
  160.8310  206.9370  148.1370 C   0  0  0  0  0  3  0  0  0  0  0  0
  1 15  2  0  0  0  0
  1 12  1  0  0  0  0
  2  6  2  0  0  0  0
  2 16  1  0  0  0  0
  3 16  1  0  0  0  0
  4 13  2  0  0  0  0
  6 18  1  0  0  0  0
  7 13  1  0  0  0  0
  8 10  2  0  0  0  0
  8 17  1  0  0  0  0
  9  7  1  0  0  0  0
 11 14  1  0  0  0  0
 11  7  1  0  0  0  0
 12  2  1  0  0  0  0
 13  5  1  0  0  0  0
 14  4  1  0  0  0  0
 15 21  1  0  0  0  0
 16 11  2  0  0  0  0
 17 21  1  0  0  0  0
 18 14  2  0  0  0  0
 19 20  1  0  0  0  0
 19  8  1  0  0  0  0
 20 15  1  0  0  0  0
 21  3  2  0  0  0  0
 22 25  1  0  0  0  0
 23 27  1  6  0  0  0
 23 24  1  0  0  0  0
 23 12  1  0  0  0  0
 25 24  1  0  0  0  0
 26 22  1  0  0  0  0
 26 27  2  0  0  0  0
M  END
>  <MODEL>
4

>  <REMARK>
 VINA RESULT:      -5.9      2.974      6.215
  Name = 
  1 active torsions:
  status: ('A' for Active; 'I' for Inactive)
    1  A    between atoms: C_9  and  N_15
                            x       y       z     vdW  Elec       q    Type
                         _______ _______ _______ _____ _____    ______ ____

>  <TORSDO>
F 1

$$$$
=
 OpenBabel11052423063D

 27 31  0  0  1  0  0  0  0  0999 V2000
  161.9180  204.3060  148.0470 C   0  0  0  0  0  3  0  0  0  0  0  0
  161.5630  206.1210  149.7130 C   0  0  0  0  0  0  0  0  0  0  0  0
  160.9640  207.1730  147.4740 C   0  0  0  0  0  3  0  0  0  0  0  0
  162.2290  209.9530  151.0720 N   0  0  0  0  0  0  0  0  0  0  0  0
  162.0310  211.9960  149.7530 N   0  0  0  0  0  1  0  0  0  0  0  0
  161.9340  206.2970  151.0690 C   0  0  0  0  0  3  0  0  0  0  0  0
  161.6230  209.7440  148.8940 N   0  0  0  0  0  0  0  0  0  0  0  0
  161.2230  205.5860  144.1800 C   0  0  0  0  0  0  0  0  0  0  0  0
  161.2970  210.1240  147.5260 C   0  0  0  0  0  1  0  0  0  0  0  0
  161.3120  206.0250  143.0470 O   0  0  0  0  0  0  0  0  0  0  0  0
  161.6790  208.5160  149.4440 C   0  0  0  0  0  0  0  0  0  0  0  0
  161.2840  204.7940  149.2360 N   0  0  0  0  0  0  0  0  0  0  0  0
  161.9600  210.5810  149.9020 C   0  0  0  0  0  0  0  0  0  0  0  0
  162.0460  208.6560  150.7560 C   0  0  0  0  0  0  0  0  0  0  0  0
  161.9020  204.9370  146.8750 C   0  0  0  0  0  0  0  0  0  0  0  0
  161.4380  207.2550  148.8670 C   0  0  0  0  0  0  0  0  0  0  0  0
  160.5220  206.3810  145.2420 C   0  0  0  0  0  2  0  0  0  0  0  0
  162.1850  207.5690  151.6040 C   0  0  0  0  0  3  0  0  0  0  0  0
  161.7430  204.2190  144.4960 C   0  0  0  0  0  2  0  0  0  0  0  0
  162.6250  204.2830  145.7370 C   0  0  0  0  0  2  0  0  0  0  0  0
  161.1300  206.1780  146.6030 C   0  0  0  0  0  0  0  0  0  0  0  0
  160.7790  201.3360  151.5000 O   0  0  0  0  0  0  0  0  0  0  0  0
  160.7030  203.8190  150.1600 C   0  0  2  0  0  3  0  0  0  0  0  0
  161.5860  203.6210  151.3950 C   0  0  0  0  0  2  0  0  0  0  0  0
  160.9670  202.5300  152.2640 C   0  0  0  0  0  2  0  0  0  0  0  0
  160.4430  201.3650  150.1380 C   0  0  0  0  0  3  0  0  0  0  0  0
  160.4160  202.5150  149.4630 C   0  0  0  0  0  3  0  0  0  0  0  0
  1 12  1  0  0  0  0
  2  6  1  0  0  0  0
  3 16  1  0  0  0  0
  5 13  1  0  0  0  0
  6 18  2  0  0  0  0
  7 11  1  0  0  0  0
  7 13  1  0  0  0  0
  8 19  1  0  0  0  0
  8 17  1  0  0  0  0
  9  7  1  0  0  0  0
 10  8  2  0  0  0  0
 11 14  2  0  0  0  0
 12  2  1  0  0  0  0
 13  4  2  0  0  0  0
 14  4  1  0  0  0  0
 14 18  1  0  0  0  0
 15  1  2  0  0  0  0
 16 11  1  0  0  0  0
 16  2  2  0  0  0  0
 17 21  1  0  0  0  0
 19 20  1  0  0  0  0
 20 15  1  0  0  0  0
 21 15  1  0  0  0  0
 21  3  2  0  0  0  0
 22 25  1  0  0  0  0
 23 12  1  6  0  0  0
 23 24  1  0  0  0  0
 24 25  1  0  0  0  0
 26 22  1  0  0  0  0
 27 26  2  0  0  0  0
 27 23  1  0  0  0  0
M  END
>  <MODEL>
5

>  <REMARK>
 VINA RESULT:      -5.6      3.249      8.129
  Name = 
  1 active torsions:
  status: ('A' for Active; 'I' for Inactive)
    1  A    between atoms: C_9  and  N_15
                            x       y       z     vdW  Elec       q    Type
                         _______ _______ _______ _____ _____    ______ ____

>  <TORSDO>
F 1

$$$$
=
 OpenBabel11052423063D

 27 31  0  0  1  0  0  0  0  0999 V2000
  158.8790  210.4640  154.3530 C   0  0  0  0  0  3  0  0  0  0  0  0
  160.6110  210.8500  152.6080 C   0  0  0  0  0  0  0  0  0  0  0  0
  159.2570  213.0050  152.6620 C   0  0  0  0  0  3  0  0  0  0  0  0
  161.7030  211.9060  148.7780 N   0  0  0  0  0  0  0  0  0  0  0  0
  160.9570  213.8910  147.5710 N   0  0  0  0  0  1  0  0  0  0  0  0
  161.5080  210.0050  151.9080 C   0  0  0  0  0  3  0  0  0  0  0  0
  160.2750  213.3130  149.8460 N   0  0  0  0  0  0  0  0  0  0  0  0
  156.2880  213.6630  154.7100 C   0  0  0  0  0  0  0  0  0  0  0  0
  159.3990  214.4530  150.0730 C   0  0  0  0  0  1  0  0  0  0  0  0
  155.3650  214.4530  154.6110 O   0  0  0  0  0  0  0  0  0  0  0  0
  160.5650  212.2870  150.6700 C   0  0  0  0  0  0  0  0  0  0  0  0
  160.2560  210.5180  153.9610 N   0  0  0  0  0  0  0  0  0  0  0  0
  160.9770  213.0490  148.7200 C   0  0  0  0  0  0  0  0  0  0  0  0
  161.4250  211.4470  150.0140 C   0  0  0  0  0  0  0  0  0  0  0  0
  158.0050  211.4500  154.1630 C   0  0  0  0  0  0  0  0  0  0  0  0
  160.1140  212.0210  151.9770 C   0  0  0  0  0  0  0  0  0  0  0  0
  157.6330  214.0020  154.1360 C   0  0  0  0  0  2  0  0  0  0  0  0
  161.9200  210.2930  150.6000 C   0  0  0  0  0  3  0  0  0  0  0  0
  156.1050  212.3890  155.4710 C   0  0  0  0  0  2  0  0  0  0  0  0
  156.6010  211.2170  154.6320 C   0  0  0  0  0  2  0  0  0  0  0  0
  158.3580  212.7890  153.6220 C   0  0  0  0  0  0  0  0  0  0  0  0
  162.6100  209.5520  157.2570 O   0  0  0  0  0  0  0  0  0  0  0  0
  161.2430  209.8430  154.8050 C   0  0  2  0  0  3  0  0  0  0  0  0
  160.5790  209.1450  155.9950 C   0  0  0  0  0  2  0  0  0  0  0  0
  161.6710  208.5440  156.8760 C   0  0  0  0  0  2  0  0  0  0  0  0
  162.9580  210.6110  156.4050 C   0  0  0  0  0  3  0  0  0  0  0  0
  162.3220  210.7960  155.2470 C   0  0  0  0  0  3  0  0  0  0  0  0
  2 12  1  0  0  0  0
  3 21  2  0  0  0  0
  4 14  1  0  0  0  0
  5 13  1  0  0  0  0
  6  2  2  0  0  0  0
  7  9  1  0  0  0  0
  7 11  1  0  0  0  0
  8 19  1  0  0  0  0
 10  8  2  0  0  0  0
 11 16  2  0  0  0  0
 12  1  1  0  0  0  0
 13  4  2  0  0  0  0
 13  7  1  0  0  0  0
 14 18  2  0  0  0  0
 14 11  1  0  0  0  0
 15  1  2  0  0  0  0
 15 20  1  0  0  0  0
 16  2  1  0  0  0  0
 16  3  1  0  0  0  0
 17  8  1  0  0  0  0
 18  6  1  0  0  0  0
 20 19  1  0  0  0  0
 21 17  1  0  0  0  0
 21 15  1  0  0  0  0
 23 12  1  1  0  0  0
 23 27  1  0  0  0  0
 23 24  1  0  0  0  0
 24 25  1  0  0  0  0
 25 22  1  0  0  0  0
 26 22  1  0  0  0  0
 27 26  2  0  0  0  0
M  END
>  <MODEL>
6

>  <REMARK>
 VINA RESULT:      -5.2      4.016      6.949
  Name = 
  1 active torsions:
  status: ('A' for Active; 'I' for Inactive)
    1  A    between atoms: C_9  and  N_15
                            x       y       z     vdW  Elec       q    Type
                         _______ _______ _______ _____ _____    ______ ____

>  <TORSDO>
F 1

$$$$
=
 OpenBabel11052423063D

 27 31  0  0  1  0  0  0  0  0999 V2000
  159.7860  210.9590  154.5890 C   0  0  0  0  0  3  0  0  0  0  0  0
  159.5430  212.3940  152.5690 C   0  0  0  0  0  0  0  0  0  0  0  0
  160.4730  210.1930  151.6900 C   0  0  0  0  0  3  0  0  0  0  0  0
  161.0940  214.1360  149.1720 N   0  0  0  0  0  0  0  0  0  0  0  0
  162.3620  212.9950  147.4270 N   0  0  0  0  0  1  0  0  0  0  0  0
  159.3280  213.7800  152.3670 C   0  0  0  0  0  3  0  0  0  0  0  0
  161.4640  211.9100  149.4250 N   0  0  0  0  0  0  0  0  0  0  0  0
  161.4380  207.2790  153.6950 C   0  0  0  0  0  0  0  0  0  0  0  0
  161.9530  210.5670  149.1430 C   0  0  0  0  0  1  0  0  0  0  0  0
  162.1830  206.3360  153.4910 O   0  0  0  0  0  0  0  0  0  0  0  0
  160.7560  212.3510  150.4830 C   0  0  0  0  0  0  0  0  0  0  0  0
  158.9700  211.7630  153.7260 N   0  0  0  0  0  0  0  0  0  0  0  0
  161.6480  213.0100  148.6600 C   0  0  0  0  0  0  0  0  0  0  0  0
  160.5400  213.6940  150.3180 C   0  0  0  0  0  0  0  0  0  0  0  0
  160.5440  209.9460  154.1750 C   0  0  0  0  0  0  0  0  0  0  0  0
  160.2840  211.6520  151.6100 C   0  0  0  0  0  0  0  0  0  0  0  0
  160.7520  207.9580  152.5460 C   0  0  0  0  0  2  0  0  0  0  0  0
  159.8290  214.4450  151.2400 C   0  0  0  0  0  3  0  0  0  0  0  0
  161.1440  207.7120  155.0960 C   0  0  0  0  0  2  0  0  0  0  0  0
  161.3380  209.2190  155.2160 C   0  0  0  0  0  2  0  0  0  0  0  0
  160.5650  209.4310  152.7810 C   0  0  0  0  0  0  0  0  0  0  0  0
  155.7900  212.4820  156.3150 O   0  0  0  0  0  0  0  0  0  0  0  0
  157.6980  212.2650  154.2480 C   0  0  2  0  0  3  0  0  0  0  0  0
  157.9140  213.2310  155.4160 C   0  0  0  0  0  2  0  0  0  0  0  0
  156.5500  213.6400  155.9650 C   0  0  0  0  0  2  0  0  0  0  0  0
  155.8770  211.2830  155.5930 C   0  0  0  0  0  3  0  0  0  0  0  0
  156.7800  211.1320  154.6220 C   0  0  0  0  0  3  0  0  0  0  0  0
  2 12  1  0  0  0  0
  3 21  2  0  0  0  0
  4 14  1  0  0  0  0
  5 13  1  0  0  0  0
  6  2  1  0  0  0  0
  7 11  1  0  0  0  0
  8 19  1  0  0  0  0
  9  7  1  0  0  0  0
 10  8  2  0  0  0  0
 11 16  1  0  0  0  0
 12  1  1  0  0  0  0
 13  4  2  0  0  0  0
 13  7  1  0  0  0  0
 14 11  2  0  0  0  0
 14 18  1  0  0  0  0
 15  1  2  0  0  0  0
 15 20  1  0  0  0  0
 16  3  1  0  0  0  0
 16  2  2  0  0  0  0
 17 21  1  0  0  0  0
 17  8  1  0  0  0  0
 18  6  2  0  0  0  0
 19 20  1  0  0  0  0
 21 15  1  0  0  0  0
 23 12  1  1  0  0  0
 23 27  1  0  0  0  0
 23 24  1  0  0  0  0
 24 25  1  0  0  0  0
 25 22  1  0  0  0  0
 26 22  1  0  0  0  0
 27 26  2  0  0  0  0
M  END
>  <MODEL>
7

>  <REMARK>
 VINA RESULT:      -5.1      3.865      6.615
  Name = 
  1 active torsions:
  status: ('A' for Active; 'I' for Inactive)
    1  A    between atoms: C_9  and  N_15
                            x       y       z     vdW  Elec       q    Type
                         _______ _______ _______ _____ _____    ______ ____

>  <TORSDO>
F 1

$$$$
=
 OpenBabel11052423063D

 27 31  0  0  1  0  0  0  0  0999 V2000
  161.4060  205.6630  153.2670 C   0  0  0  0  0  3  0  0  0  0  0  0
  161.3060  208.0630  152.6150 C   0  0  0  0  0  0  0  0  0  0  0  0
  160.8080  206.7890  150.4680 C   0  0  0  0  0  3  0  0  0  0  0  0
  162.4670  211.2000  150.2100 N   0  0  0  0  0  0  0  0  0  0  0  0
  162.5050  211.1980  147.7700 N   0  0  0  0  0  1  0  0  0  0  0  0
  161.7180  209.2690  153.2360 C   0  0  0  0  0  3  0  0  0  0  0  0
  161.8060  209.3040  149.1490 N   0  0  0  0  0  0  0  0  0  0  0  0
  160.8170  203.1480  150.0420 C   0  0  0  0  0  0  0  0  0  0  0  0
  161.5080  208.3830  148.0620 C   0  0  0  0  0  1  0  0  0  0  0  0
  160.9420  202.4220  149.0710 O   0  0  0  0  0  0  0  0  0  0  0  0
  161.7170  209.1070  150.4790 C   0  0  0  0  0  0  0  0  0  0  0  0
  160.8560  206.9750  153.4400 N   0  0  0  0  0  0  0  0  0  0  0  0
  162.2600  210.5720  149.0270 C   0  0  0  0  0  0  0  0  0  0  0  0
  162.1180  210.2560  151.1060 C   0  0  0  0  0  0  0  0  0  0  0  0
  161.4500  205.0150  152.1060 C   0  0  0  0  0  0  0  0  0  0  0  0
  161.3110  207.9670  151.1980 C   0  0  0  0  0  0  0  0  0  0  0  0
  160.2370  204.5230  149.8830 C   0  0  0  0  0  2  0  0  0  0  0  0
  162.1330  210.3780  152.4860 C   0  0  0  0  0  3  0  0  0  0  0  0
  161.1660  202.6420  151.4060 C   0  0  0  0  0  2  0  0  0  0  0  0
  162.0680  203.6500  152.1080 C   0  0  0  0  0  2  0  0  0  0  0  0
  160.8350  205.5110  150.8460 C   0  0  0  0  0  0  0  0  0  0  0  0
  160.1230  208.4600  157.2610 O   0  0  0  0  0  0  0  0  0  0  0  0
  160.1720  207.2780  154.6980 C   0  0  2  0  0  3  0  0  0  0  0  0
  159.9440  208.7840  154.8640 C   0  0  0  0  0  2  0  0  0  0  0  0
  159.3130  209.0310  156.2310 C   0  0  0  0  0  2  0  0  0  0  0  0
  160.8450  207.2710  157.0720 C   0  0  0  0  0  3  0  0  0  0  0  0
  160.9100  206.6920  155.8720 C   0  0  0  0  0  3  0  0  0  0  0  0
  1 12  1  0  0  0  0
  2  6  1  0  0  0  0
  2 12  1  0  0  0  0
  3 21  2  0  0  0  0
  3 16  1  0  0  0  0
  4 14  1  0  0  0  0
  5 13  1  0  0  0  0
  7 11  1  0  0  0  0
  8 19  1  0  0  0  0
  9  7  1  0  0  0  0
 10  8  2  0  0  0  0
 11 14  2  0  0  0  0
 11 16  1  0  0  0  0
 13  7  1  0  0  0  0
 13  4  2  0  0  0  0
 14 18  1  0  0  0  0
 15 20  1  0  0  0  0
 15  1  2  0  0  0  0
 16  2  2  0  0  0  0
 17  8  1  0  0  0  0
 17 21  1  0  0  0  0
 18  6  2  0  0  0  0
 19 20  1  0  0  0  0
 21 15  1  0  0  0  0
 23 12  1  6  0  0  0
 23 24  1  0  0  0  0
 23 27  1  0  0  0  0
 24 25  1  0  0  0  0
 25 22  1  0  0  0  0
 26 22  1  0  0  0  0
 27 26  2  0  0  0  0
M  END
>  <MODEL>
8

>  <REMARK>
 VINA RESULT:      -5.0      2.931      6.685
  Name = 
  1 active torsions:
  status: ('A' for Active; 'I' for Inactive)
    1  A    between atoms: C_9  and  N_15
                            x       y       z     vdW  Elec       q    Type
                         _______ _______ _______ _____ _____    ______ ____

>  <TORSDO>
F 1

$$$$
=
 OpenBabel11052423063D

 27 31  0  0  1  0  0  0  0  0999 V2000
  162.4070  210.8030  149.8620 C   0  0  0  0  0  3  0  0  0  0  0  0
  161.3060  210.7110  152.0920 C   0  0  0  0  0  0  0  0  0  0  0  0
  159.8900  212.3370  150.7390 C   0  0  0  0  0  3  0  0  0  0  0  0
  159.8020  212.5610  155.4530 N   0  0  0  0  0  0  0  0  0  0  0  0
  158.2620  214.4530  155.4790 N   0  0  0  0  0  1  0  0  0  0  0  0
  161.6970  210.2170  153.3620 C   0  0  0  0  0  3  0  0  0  0  0  0
  159.1240  213.3930  153.4520 N   0  0  0  0  0  0  0  0  0  0  0  0
  160.5460  213.4730  147.3160 C   0  0  0  0  0  0  0  0  0  0  0  0
  158.4440  214.2500  152.4910 C   0  0  0  0  0  1  0  0  0  0  0  0
  160.1970  214.4530  146.6810 O   0  0  0  0  0  0  0  0  0  0  0  0
  159.9640  212.3650  153.2270 C   0  0  0  0  0  0  0  0  0  0  0  0
  161.7880  210.0480  150.9110 N   0  0  0  0  0  0  0  0  0  0  0  0
  159.0510  213.4810  154.7990 C   0  0  0  0  0  0  0  0  0  0  0  0
  160.3660  211.8720  154.4410 C   0  0  0  0  0  0  0  0  0  0  0  0
  161.8570  211.8630  149.2740 C   0  0  0  0  0  0  0  0  0  0  0  0
  160.4230  211.8200  152.0120 C   0  0  0  0  0  0  0  0  0  0  0  0
  159.6760  212.9410  148.4170 C   0  0  0  0  0  2  0  0  0  0  0  0
  161.2330  210.7970  154.5510 C   0  0  0  0  0  3  0  0  0  0  0  0
  161.8040  212.7520  146.9490 C   0  0  0  0  0  2  0  0  0  0  0  0
  162.6510  212.5360  148.1970 C   0  0  0  0  0  2  0  0  0  0  0  0
  160.4770  212.3460  149.5420 C   0  0  0  0  0  0  0  0  0  0  0  0
  161.1060  205.9430  150.7680 O   0  0  0  0  0  0  0  0  0  0  0  0
  162.0250  208.6050  150.9580 C   0  0  2  0  0  3  0  0  0  0  0  0
  161.7880  207.9530  149.5930 C   0  0  0  0  0  2  0  0  0  0  0  0
  161.9630  206.4440  149.7390 C   0  0  0  0  0  2  0  0  0  0  0  0
  160.8050  206.6870  151.9180 C   0  0  0  0  0  3  0  0  0  0  0  0
  161.2020  207.9540  152.0390 C   0  0  0  0  0  3  0  0  0  0  0  0
  1 12  1  0  0  0  0
  2  6  1  0  0  0  0
  3 16  1  0  0  0  0
  6 18  2  0  0  0  0
  7 13  1  0  0  0  0
  8 17  1  0  0  0  0
  9  7  1  0  0  0  0
 10  8  2  0  0  0  0
 11  7  1  0  0  0  0
 11 14  2  0  0  0  0
 12 23  1  0  0  0  0
 12  2  1  0  0  0  0
 13  4  2  0  0  0  0
 13  5  1  0  0  0  0
 14 18  1  0  0  0  0
 14  4  1  0  0  0  0
 15 21  1  0  0  0  0
 15  1  2  0  0  0  0
 16  2  2  0  0  0  0
 16 11  1  0  0  0  0
 17 21  1  0  0  0  0
 19  8  1  0  0  0  0
 19 20  1  0  0  0  0
 20 15  1  0  0  0  0
 21  3  2  0  0  0  0
 22 26  1  0  0  0  0
 23 24  1  6  0  0  0
 23 27  1  0  0  0  0
 24 25  1  0  0  0  0
 25 22  1  0  0  0  0
 26 27  2  0  0  0  0
M  END
>  <MODEL>
9

>  <REMARK>
 VINA RESULT:      -4.3      3.061      7.325
  Name = 
  1 active torsions:
  status: ('A' for Active; 'I' for Inactive)
    1  A    between atoms: C_9  and  N_15
                            x       y       z     vdW  Elec       q    Type
                         _______ _______ _______ _____ _____    ______ ____

>  <TORSDO>
F 1

$$$$
