=
 OpenBabel11052422283D

 31 34  0  0  1  0  0  0  0  0999 V2000
  161.0060  206.9000  150.2540 C   0  0  1  0  0  3  0  0  0  0  0  0
  160.7340  205.5420  149.5760 C   0  0  1  0  0  3  0  0  0  0  0  0
  161.3240  205.5160  148.1560 C   0  0  2  0  0  3  0  0  0  0  0  0
  160.4830  206.3460  145.8890 C   0  0  0  0  0  3  0  0  0  0  0  0
  160.4080  206.2820  147.2320 C   0  0  0  0  0  3  0  0  0  0  0  0
  161.2950  202.9080  148.5470 C   0  0  0  0  0  2  0  0  0  0  0  0
  161.4290  205.6030  144.9750 C   0  0  0  0  0  2  0  0  0  0  0  0
  161.2230  204.4760  150.3540 O   0  0  0  0  0  0  0  0  0  0  0  0
  162.6670  205.0310  145.6520 C   0  0  0  0  0  2  0  0  0  0  0  0
  160.6020  203.3310  149.8400 C   0  0  0  0  0  2  0  0  0  0  0  0
  161.6040  204.1000  147.6820 C   0  0  0  0  0  0  0  0  0  0  0  0
  162.2730  203.8940  146.5420 C   0  0  0  0  0  3  0  0  0  0  0  0
  161.4540  208.5220  153.3330 N   0  0  0  0  0  0  0  0  0  0  0  0
  161.8470  207.1720  153.6860 C   0  0  0  0  0  2  0  0  0  0  0  0
  160.5930  209.0040  154.3980 C   0  0  0  0  0  1  0  0  0  0  0  0
  160.6260  208.4010  152.1390 C   0  0  0  0  0  2  0  0  0  0  0  0
  160.6290  207.0120  151.6710 N   0  0  0  0  0  0  0  0  0  0  0  0
  161.6400  206.3330  152.4560 C   0  0  0  0  0  2  0  0  0  0  0  0
  162.6350  207.6540  149.8780 S   0  0  0  0  0  0  0  0  0  0  0  0
  162.0000  208.9420  148.7390 C   0  0  0  0  0  2  0  0  0  0  0  0
  162.5880  210.2340  150.5290 O   0  0  0  0  0  1  0  0  0  0  0  0
  161.8820  210.2560  149.3720 N   0  0  0  0  0  0  0  0  0  0  0  0
  162.4780  211.2730  148.5130 C   0  0  0  0  0  2  0  0  0  0  0  0
  161.6550  212.5200  148.5350 C   0  0  0  0  0  0  0  0  0  0  0  0
  160.8930  212.7320  149.4640 O   0  0  0  0  0  0  0  0  0  0  0  0
  161.8260  213.5420  147.4480 C   0  0  0  0  0  2  0  0  0  0  0  0
  161.5460  213.0050  146.0400 C   0  0  2  0  0  3  0  0  0  0  0  0
  162.6740  213.3260  145.0740 C   0  0  0  0  0  1  0  0  0  0  0  0
  160.2100  213.4920  145.5020 C   0  0  2  0  0  3  0  0  0  0  0  0
  159.2260  212.3890  145.5210 C   0  0  0  0  0  2  0  0  0  0  0  0
  159.8870  212.7690  144.3390 O   0  0  0  0  0  0  0  0  0  0  0  0
  1 19  1  1  0  0  0
  1 17  1  0  0  0  0
  2  1  1  1  0  0  0
  2  8  1  0  0  0  0
  3  5  1  6  0  0  0
  3  2  1  0  0  0  0
  4  5  2  0  0  0  0
  6 10  1  0  0  0  0
  7  9  1  0  0  0  0
  7  4  1  0  0  0  0
  9 12  1  0  0  0  0
 10  8  1  0  0  0  0
 11  3  1  0  0  0  0
 11  6  1  0  0  0  0
 12 11  2  0  0  0  0
 13 14  1  0  0  0  0
 13 15  1  0  0  0  0
 16 13  1  0  0  0  0
 17 16  1  0  0  0  0
 17 18  1  0  0  0  0
 18 14  1  0  0  0  0
 20 22  1  0  0  0  0
 20 19  1  0  0  0  0
 22 21  1  0  0  0  0
 23 24  1  0  0  0  0
 23 22  1  0  0  0  0
 24 25  2  0  0  0  0
 26 24  1  0  0  0  0
 27 28  1  6  0  0  0
 27 26  1  0  0  0  0
 29 30  1  0  0  0  0
 29 27  1  1  0  0  0
 31 29  1  0  0  0  0
 31 30  1  0  0  0  0
M  END
>  <MODEL>
1

>  <REMARK>
 VINA RESULT:      -7.1      0.000      0.000
  Name = 
  10 active torsions:
  status: ('A' for Active; 'I' for Inactive)
    1  A    between atoms: C_1  and  C_6
    2  A    between atoms: C_3  and  C_19
    3  A    between atoms: C_3  and  C_23
    4  A    between atoms: C_4  and  C_12
    5  A    between atoms: C_6  and  C_19
    6  A    between atoms: N_9  and  C_15
    7  A    between atoms: N_9  and  C_23
    8  A    between atoms: C_12  and  S_20
    9  A    between atoms: C_12  and  N_27
   10  A    between atoms: C_15  and  S_20
                            x       y       z     vdW  Elec       q    Type
                         _______ _______ _______ _____ _____    ______ ____

>  <TORSDO>
F 10

$$$$
=
 OpenBabel11052422283D

 31 34  0  0  1  0  0  0  0  0999 V2000
  160.9510  207.5210  151.6460 C   0  0  1  0  0  3  0  0  0  0  0  0
  160.6980  208.7350  152.5620 C   0  0  1  0  0  3  0  0  0  0  0  0
  161.0060  208.3830  154.0270 C   0  0  2  0  0  3  0  0  0  0  0  0
  159.6670  207.2330  155.8760 C   0  0  0  0  0  3  0  0  0  0  0  0
  159.8560  207.5820  154.5900 C   0  0  0  0  0  3  0  0  0  0  0  0
  161.3250  210.9920  154.2430 C   0  0  0  0  0  2  0  0  0  0  0  0
  160.4930  207.6280  157.0770 C   0  0  0  0  0  2  0  0  0  0  0  0
  161.4350  209.8560  152.1390 O   0  0  0  0  0  0  0  0  0  0  0  0
  161.8900  208.1430  156.7610 C   0  0  0  0  0  2  0  0  0  0  0  0
  160.8510  210.9480  152.7930 C   0  0  0  0  0  2  0  0  0  0  0  0
  161.3370  209.6150  154.8520 C   0  0  0  0  0  0  0  0  0  0  0  0
  161.7940  209.4840  156.1010 C   0  0  0  0  0  3  0  0  0  0  0  0
  161.6220  206.3630  148.4020 N   0  0  0  0  0  0  0  0  0  0  0  0
  162.4680  207.5400  148.4430 C   0  0  0  0  0  2  0  0  0  0  0  0
  160.9380  206.3780  147.1220 C   0  0  0  0  0  1  0  0  0  0  0  0
  160.6070  206.5610  149.4290 C   0  0  0  0  0  2  0  0  0  0  0  0
  160.9080  207.7730  150.1970 N   0  0  0  0  0  0  0  0  0  0  0  0
  162.2310  208.1880  149.7780 C   0  0  0  0  0  2  0  0  0  0  0  0
  162.3380  206.4320  152.1480 S   0  0  0  0  0  0  0  0  0  0  0  0
  161.3230  204.9310  152.4270 C   0  0  0  0  0  2  0  0  0  0  0  0
  161.6780  202.6990  152.0950 O   0  0  0  0  0  1  0  0  0  0  0  0
  161.5750  203.8800  151.4400 N   0  0  0  0  0  0  0  0  0  0  0  0
  160.4430  203.7800  150.5260 C   0  0  0  0  0  2  0  0  0  0  0  0
  160.5530  202.5430  149.6950 C   0  0  0  0  0  0  0  0  0  0  0  0
  160.0220  201.5090  150.0680 O   0  0  0  0  0  0  0  0  0  0  0  0
  161.2540  202.5990  148.3680 C   0  0  0  0  0  2  0  0  0  0  0  0
  160.7780  201.5390  147.3690 C   0  0  2  0  0  3  0  0  0  0  0  0
  161.5660  200.2450  147.4960 C   0  0  0  0  0  1  0  0  0  0  0  0
  160.8020  202.0550  145.9400 C   0  0  2  0  0  3  0  0  0  0  0  0
  159.4500  201.9630  145.3490 C   0  0  0  0  0  2  0  0  0  0  0  0
  160.4460  201.0120  145.0650 O   0  0  0  0  0  0  0  0  0  0  0  0
  1 19  1  1  0  0  0
  2  1  1  6  0  0  0
  2  3  1  0  0  0  0
  3  5  1  1  0  0  0
  3 11  1  0  0  0  0
  4  7  1  0  0  0  0
  5  4  2  0  0  0  0
  6 11  1  0  0  0  0
  8  2  1  0  0  0  0
  8 10  1  0  0  0  0
  9  7  1  0  0  0  0
 10  6  1  0  0  0  0
 11 12  2  0  0  0  0
 12  9  1  0  0  0  0
 13 14  1  0  0  0  0
 13 16  1  0  0  0  0
 14 18  1  0  0  0  0
 15 13  1  0  0  0  0
 16 17  1  0  0  0  0
 17  1  1  0  0  0  0
 18 17  1  0  0  0  0
 19 20  1  0  0  0  0
 22 21  1  0  0  0  0
 22 20  1  0  0  0  0
 23 22  1  0  0  0  0
 24 25  2  0  0  0  0
 24 23  1  0  0  0  0
 26 24  1  0  0  0  0
 27 28  1  6  0  0  0
 27 26  1  0  0  0  0
 29 27  1  1  0  0  0
 30 29  1  0  0  0  0
 31 30  1  0  0  0  0
 31 29  1  0  0  0  0
M  END
>  <MODEL>
2

>  <REMARK>
 VINA RESULT:      -7.0      3.589      8.608
  Name = 
  10 active torsions:
  status: ('A' for Active; 'I' for Inactive)
    1  A    between atoms: C_1  and  C_6
    2  A    between atoms: C_3  and  C_19
    3  A    between atoms: C_3  and  C_23
    4  A    between atoms: C_4  and  C_12
    5  A    between atoms: C_6  and  C_19
    6  A    between atoms: N_9  and  C_15
    7  A    between atoms: N_9  and  C_23
    8  A    between atoms: C_12  and  S_20
    9  A    between atoms: C_12  and  N_27
   10  A    between atoms: C_15  and  S_20
                            x       y       z     vdW  Elec       q    Type
                         _______ _______ _______ _____ _____    ______ ____

>  <TORSDO>
F 10

$$$$
=
 OpenBabel11052422283D

 31 34  0  0  1  0  0  0  0  0999 V2000
  161.9270  206.9080  150.1250 C   0  0  1  0  0  3  0  0  0  0  0  0
  161.1760  205.6540  149.6340 C   0  0  1  0  0  3  0  0  0  0  0  0
  161.5120  205.3610  148.1620 C   0  0  2  0  0  3  0  0  0  0  0  0
  160.6160  206.2570  145.9430 C   0  0  0  0  0  3  0  0  0  0  0  0
  160.7280  206.3050  147.2840 C   0  0  0  0  0  3  0  0  0  0  0  0
  160.7910  202.9120  148.8280 C   0  0  0  0  0  2  0  0  0  0  0  0
  161.1590  205.2080  145.0020 C   0  0  0  0  0  2  0  0  0  0  0  0
  161.4480  204.5430  150.4530 O   0  0  0  0  0  0  0  0  0  0  0  0
  162.2660  204.3340  145.5760 C   0  0  0  0  0  2  0  0  0  0  0  0
  160.4530  203.6070  150.1450 C   0  0  0  0  0  2  0  0  0  0  0  0
  161.2970  203.8990  147.8100 C   0  0  0  0  0  0  0  0  0  0  0  0
  161.6990  203.4280  146.6240 C   0  0  0  0  0  3  0  0  0  0  0  0
  162.4230  210.2070  149.0360 N   0  0  0  0  0  0  0  0  0  0  0  0
  161.8240  210.4440  150.3350 C   0  0  0  0  0  2  0  0  0  0  0  0
  161.7760  211.1100  148.1010 C   0  0  0  0  0  1  0  0  0  0  0  0
  162.0370  208.8540  148.6570 C   0  0  0  0  0  2  0  0  0  0  0  0
  161.3350  208.2070  149.7690 N   0  0  0  0  0  0  0  0  0  0  0  0
  161.4910  209.0940  150.9040 C   0  0  0  0  0  2  0  0  0  0  0  0
  162.5260  206.8390  151.8560 S   0  0  0  0  0  0  0  0  0  0  0  0
  160.9250  207.2670  152.6390 C   0  0  0  0  0  2  0  0  0  0  0  0
  161.3700  205.3950  153.8690 O   0  0  0  0  0  1  0  0  0  0  0  0
  160.7090  206.5770  153.9110 N   0  0  0  0  0  0  0  0  0  0  0  0
  161.2780  207.3610  155.0010 C   0  0  0  0  0  2  0  0  0  0  0  0
  160.2030  207.8070  155.9380 C   0  0  0  0  0  0  0  0  0  0  0  0
  159.5670  206.9820  156.5730 O   0  0  0  0  0  0  0  0  0  0  0  0
  159.9620  209.2740  156.1470 C   0  0  0  0  0  2  0  0  0  0  0  0
  160.6050  210.1680  155.0820 C   0  0  2  0  0  3  0  0  0  0  0  0
  161.8980  210.7970  155.5720 C   0  0  0  0  0  1  0  0  0  0  0  0
  159.6410  211.2270  154.5720 C   0  0  2  0  0  3  0  0  0  0  0  0
  159.3610  211.0060  153.1370 C   0  0  0  0  0  2  0  0  0  0  0  0
  160.2730  211.9850  153.5690 O   0  0  0  0  0  0  0  0  0  0  0  0
  1 19  1  1  0  0  0
  2  1  1  1  0  0  0
  2  8  1  0  0  0  0
  3  5  1  6  0  0  0
  3  2  1  0  0  0  0
  4  5  2  0  0  0  0
  6 10  1  0  0  0  0
  7  9  1  0  0  0  0
  7  4  1  0  0  0  0
  9 12  1  0  0  0  0
 10  8  1  0  0  0  0
 11  3  1  0  0  0  0
 11  6  1  0  0  0  0
 12 11  2  0  0  0  0
 13 14  1  0  0  0  0
 14 18  1  0  0  0  0
 15 13  1  0  0  0  0
 16 13  1  0  0  0  0
 16 17  1  0  0  0  0
 17  1  1  0  0  0  0
 17 18  1  0  0  0  0
 19 20  1  0  0  0  0
 20 22  1  0  0  0  0
 21 22  1  0  0  0  0
 22 23  1  0  0  0  0
 23 24  1  0  0  0  0
 24 26  1  0  0  0  0
 24 25  2  0  0  0  0
 27 28  1  1  0  0  0
 27 26  1  0  0  0  0
 29 27  1  6  0  0  0
 30 31  1  0  0  0  0
 30 29  1  0  0  0  0
 31 29  1  0  0  0  0
M  END
>  <MODEL>
3

>  <REMARK>
 VINA RESULT:      -6.9      2.592      5.624
  Name = 
  10 active torsions:
  status: ('A' for Active; 'I' for Inactive)
    1  A    between atoms: C_1  and  C_6
    2  A    between atoms: C_3  and  C_19
    3  A    between atoms: C_3  and  C_23
    4  A    between atoms: C_4  and  C_12
    5  A    between atoms: C_6  and  C_19
    6  A    between atoms: N_9  and  C_15
    7  A    between atoms: N_9  and  C_23
    8  A    between atoms: C_12  and  S_20
    9  A    between atoms: C_12  and  N_27
   10  A    between atoms: C_15  and  S_20
                            x       y       z     vdW  Elec       q    Type
                         _______ _______ _______ _____ _____    ______ ____

>  <TORSDO>
F 10

$$$$
=
 OpenBabel11052422283D

 31 34  0  0  1  0  0  0  0  0999 V2000
  160.8790  209.1600  152.9730 C   0  0  1  0  0  3  0  0  0  0  0  0
  161.5540  208.6320  151.6910 C   0  0  1  0  0  3  0  0  0  0  0  0
  161.1180  207.1850  151.4050 C   0  0  2  0  0  3  0  0  0  0  0  0
  161.9080  204.9100  152.2610 C   0  0  0  0  0  3  0  0  0  0  0  0
  161.8800  206.2550  152.3180 C   0  0  0  0  0  3  0  0  0  0  0  0
  161.7900  207.8200  148.9350 C   0  0  0  0  0  2  0  0  0  0  0  0
  161.2720  204.0100  151.2280 C   0  0  0  0  0  2  0  0  0  0  0  0
  161.2930  209.4720  150.5930 O   0  0  0  0  0  0  0  0  0  0  0  0
  160.1720  204.6550  150.3970 C   0  0  0  0  0  2  0  0  0  0  0  0
  162.2330  209.1100  149.6210 C   0  0  0  0  0  2  0  0  0  0  0  0
  161.2590  206.8280  149.9350 C   0  0  0  0  0  0  0  0  0  0  0  0
  160.7690  205.6720  149.4750 C   0  0  0  0  0  3  0  0  0  0  0  0
  159.9940  208.1590  156.2180 N   0  0  0  0  0  0  0  0  0  0  0  0
  161.0580  209.1000  156.5120 C   0  0  0  0  0  2  0  0  0  0  0  0
  160.2180  206.9930  157.0520 C   0  0  0  0  0  1  0  0  0  0  0  0
  160.1980  207.7400  154.8370 C   0  0  0  0  0  2  0  0  0  0  0  0
  161.2820  208.5220  154.2360 N   0  0  0  0  0  0  0  0  0  0  0  0
  161.5880  209.5710  155.1880 C   0  0  0  0  0  2  0  0  0  0  0  0
  160.7460  210.9850  153.0970 S   0  0  0  0  0  0  0  0  0  0  0  0
  158.9380  211.0720  152.8110 C   0  0  0  0  0  2  0  0  0  0  0  0
  157.9960  213.0770  153.3700 O   0  0  0  0  0  1  0  0  0  0  0  0
  158.5000  212.3810  152.3230 N   0  0  0  0  0  0  0  0  0  0  0  0
  159.6460  213.1240  151.8110 C   0  0  0  0  0  2  0  0  0  0  0  0
  159.4720  213.4100  150.3550 C   0  0  0  0  0  0  0  0  0  0  0  0
  158.3610  213.3680  149.8530 O   0  0  0  0  0  0  0  0  0  0  0  0
  160.6590  213.8210  149.5320 C   0  0  0  0  0  2  0  0  0  0  0  0
  160.9390  212.8990  148.3410 C   0  0  2  0  0  3  0  0  0  0  0  0
  162.4010  212.4910  148.2680 C   0  0  0  0  0  1  0  0  0  0  0  0
  160.4770  213.5100  147.0280 C   0  0  2  0  0  3  0  0  0  0  0  0
  159.3970  212.6890  146.4420 C   0  0  0  0  0  2  0  0  0  0  0  0
  160.7230  212.6020  145.9820 O   0  0  0  0  0  0  0  0  0  0  0  0
  1 19  1  1  0  0  0
  1 17  1  0  0  0  0
  2  1  1  1  0  0  0
  3  2  1  0  0  0  0
  3  5  1  1  0  0  0
  4  5  2  0  0  0  0
  6 10  1  0  0  0  0
  6 11  1  0  0  0  0
  7  4  1  0  0  0  0
  8  2  1  0  0  0  0
  9  7  1  0  0  0  0
 10  8  1  0  0  0  0
 11  3  1  0  0  0  0
 12 11  2  0  0  0  0
 12  9  1  0  0  0  0
 13 14  1  0  0  0  0
 13 15  1  0  0  0  0
 16 13  1  0  0  0  0
 17 16  1  0  0  0  0
 17 18  1  0  0  0  0
 18 14  1  0  0  0  0
 20 19  1  0  0  0  0
 22 20  1  0  0  0  0
 22 21  1  0  0  0  0
 23 22  1  0  0  0  0
 24 23  1  0  0  0  0
 25 24  2  0  0  0  0
 26 24  1  0  0  0  0
 27 28  1  6  0  0  0
 27 26  1  0  0  0  0
 29 27  1  1  0  0  0
 30 29  1  0  0  0  0
 31 30  1  0  0  0  0
 31 29  1  0  0  0  0
M  END
>  <MODEL>
4

>  <REMARK>
 VINA RESULT:      -6.7      2.623      4.213
  Name = 
  10 active torsions:
  status: ('A' for Active; 'I' for Inactive)
    1  A    between atoms: C_1  and  C_6
    2  A    between atoms: C_3  and  C_19
    3  A    between atoms: C_3  and  C_23
    4  A    between atoms: C_4  and  C_12
    5  A    between atoms: C_6  and  C_19
    6  A    between atoms: N_9  and  C_15
    7  A    between atoms: N_9  and  C_23
    8  A    between atoms: C_12  and  S_20
    9  A    between atoms: C_12  and  N_27
   10  A    between atoms: C_15  and  S_20
                            x       y       z     vdW  Elec       q    Type
                         _______ _______ _______ _____ _____    ______ ____

>  <TORSDO>
F 10

$$$$
=
 OpenBabel11052422283D

 31 34  0  0  1  0  0  0  0  0999 V2000
  160.2210  211.6040  153.7510 C   0  0  1  0  0  3  0  0  0  0  0  0
  159.3750  212.8660  153.4910 C   0  0  1  0  0  3  0  0  0  0  0  0
  158.9230  212.9250  152.0220 C   0  0  2  0  0  3  0  0  0  0  0  0
  160.0410  213.7350  149.8710 C   0  0  0  0  0  3  0  0  0  0  0  0
  160.0800  213.3940  151.1730 C   0  0  0  0  0  3  0  0  0  0  0  0
  157.0150  214.4520  153.0130 C   0  0  0  0  0  2  0  0  0  0  0  0
  158.8320  213.8260  148.9700 C   0  0  0  0  0  2  0  0  0  0  0  0
  158.2770  212.9350  154.3680 O   0  0  0  0  0  0  0  0  0  0  0  0
  157.5970  213.0870  149.4670 C   0  0  0  0  0  2  0  0  0  0  0  0
  157.8280  214.2590  154.2910 C   0  0  0  0  0  2  0  0  0  0  0  0
  157.6710  213.7670  151.8440 C   0  0  0  0  0  0  0  0  0  0  0  0
  157.0400  213.7910  150.6660 C   0  0  0  0  0  3  0  0  0  0  0  0
  161.9910  209.6240  156.0450 N   0  0  0  0  0  0  0  0  0  0  0  0
  160.6270  209.3380  156.4450 C   0  0  0  0  0  2  0  0  0  0  0  0
  162.7490  209.8550  157.2610 C   0  0  0  0  0  1  0  0  0  0  0  0
  161.9410  210.8920  155.3270 C   0  0  0  0  0  2  0  0  0  0  0  0
  160.5480  211.3110  155.1550 N   0  0  0  0  0  0  0  0  0  0  0  0
  159.7410  210.1830  155.5740 C   0  0  0  0  0  2  0  0  0  0  0  0
  159.7240  210.1160  152.8010 S   0  0  0  0  0  0  0  0  0  0  0  0
  161.4120  209.6570  152.2530 C   0  0  0  0  0  2  0  0  0  0  0  0
  162.1380  210.5060  150.2610 O   0  0  0  0  0  1  0  0  0  0  0  0
  161.5050  209.4410  150.8090 N   0  0  0  0  0  0  0  0  0  0  0  0
  162.3150  208.2590  150.5370 C   0  0  0  0  0  2  0  0  0  0  0  0
  161.8320  207.5680  149.3040 C   0  0  0  0  0  0  0  0  0  0  0  0
  162.3520  207.8090  148.2270 O   0  0  0  0  0  0  0  0  0  0  0  0
  160.7560  206.5260  149.4100 C   0  0  0  0  0  2  0  0  0  0  0  0
  161.2880  205.1020  149.6040 C   0  0  2  0  0  3  0  0  0  0  0  0
  161.3660  204.3410  148.2910 C   0  0  0  0  0  1  0  0  0  0  0  0
  160.4810  204.3300  150.6350 C   0  0  2  0  0  3  0  0  0  0  0  0
  161.3780  203.7970  151.6820 C   0  0  0  0  0  2  0  0  0  0  0  0
  160.8970  202.9860  150.6380 O   0  0  0  0  0  0  0  0  0  0  0  0
  1 19  1  1  0  0  0
  1 17  1  0  0  0  0
  2  1  1  6  0  0  0
  2  8  1  0  0  0  0
  3  5  1  6  0  0  0
  3  2  1  0  0  0  0
  4  5  2  0  0  0  0
  6 10  1  0  0  0  0
  7  9  1  0  0  0  0
  7  4  1  0  0  0  0
  9 12  1  0  0  0  0
 10  8  1  0  0  0  0
 11  3  1  0  0  0  0
 11  6  1  0  0  0  0
 12 11  2  0  0  0  0
 13 14  1  0  0  0  0
 13 15  1  0  0  0  0
 16 13  1  0  0  0  0
 17 16  1  0  0  0  0
 17 18  1  0  0  0  0
 18 14  1  0  0  0  0
 20 19  1  0  0  0  0
 21 22  1  0  0  0  0
 22 20  1  0  0  0  0
 23 22  1  0  0  0  0
 24 26  1  0  0  0  0
 24 23  1  0  0  0  0
 25 24  2  0  0  0  0
 26 27  1  0  0  0  0
 27 28  1  6  0  0  0
 29 27  1  6  0  0  0
 29 31  1  0  0  0  0
 29 30  1  0  0  0  0
 31 30  1  0  0  0  0
M  END
>  <MODEL>
5

>  <REMARK>
 VINA RESULT:      -6.3      3.400      8.035
  Name = 
  10 active torsions:
  status: ('A' for Active; 'I' for Inactive)
    1  A    between atoms: C_1  and  C_6
    2  A    between atoms: C_3  and  C_19
    3  A    between atoms: C_3  and  C_23
    4  A    between atoms: C_4  and  C_12
    5  A    between atoms: C_6  and  C_19
    6  A    between atoms: N_9  and  C_15
    7  A    between atoms: N_9  and  C_23
    8  A    between atoms: C_12  and  S_20
    9  A    between atoms: C_12  and  N_27
   10  A    between atoms: C_15  and  S_20
                            x       y       z     vdW  Elec       q    Type
                         _______ _______ _______ _____ _____    ______ ____

>  <TORSDO>
F 10

$$$$
=
 OpenBabel11052422283D

 31 34  0  0  1  0  0  0  0  0999 V2000
  161.2910  207.4110  152.9770 C   0  0  1  0  0  3  0  0  0  0  0  0
  161.2240  208.2190  154.2880 C   0  0  1  0  0  3  0  0  0  0  0  0
  160.1620  209.3270  154.1890 C   0  0  2  0  0  3  0  0  0  0  0  0
  160.1740  211.6910  153.2170 C   0  0  0  0  0  3  0  0  0  0  0  0
  160.7250  210.4740  153.3840 C   0  0  0  0  0  3  0  0  0  0  0  0
  160.1830  209.1270  156.8190 C   0  0  0  0  0  2  0  0  0  0  0  0
  158.9230  212.2410  153.8600 C   0  0  0  0  0  2  0  0  0  0  0  0
  160.9890  207.3810  155.3930 O   0  0  0  0  0  0  0  0  0  0  0  0
  157.9820  211.1960  154.4430 C   0  0  0  0  0  2  0  0  0  0  0  0
  161.3180  208.1520  156.5150 C   0  0  0  0  0  2  0  0  0  0  0  0
  159.6510  209.7500  155.5560 C   0  0  0  0  0  0  0  0  0  0  0  0
  158.6060  210.5780  155.6550 C   0  0  0  0  0  3  0  0  0  0  0  0
  161.6790  207.8640  149.5180 N   0  0  0  0  0  0  0  0  0  0  0  0
  162.9240  207.1920  149.8390 C   0  0  0  0  0  2  0  0  0  0  0  0
  162.0090  208.9690  148.6380 C   0  0  0  0  0  1  0  0  0  0  0  0
  161.2020  208.4430  150.7680 C   0  0  0  0  0  2  0  0  0  0  0  0
  162.0600  208.0120  151.8750 N   0  0  0  0  0  0  0  0  0  0  0  0
  162.9270  206.9880  151.3280 C   0  0  0  0  0  2  0  0  0  0  0  0
  161.5990  205.6140  153.1760 S   0  0  0  0  0  0  0  0  0  0  0  0
  160.6540  205.0850  151.6970 C   0  0  0  0  0  2  0  0  0  0  0  0
  161.4570  202.9520  151.8440 O   0  0  0  0  0  1  0  0  0  0  0  0
  161.2910  203.9800  150.9780 N   0  0  0  0  0  0  0  0  0  0  0  0
  160.4140  203.5180  149.9090 C   0  0  0  0  0  2  0  0  0  0  0  0
  161.1450  203.5060  148.6050 C   0  0  0  0  0  0  0  0  0  0  0  0
  161.5290  202.4490  148.1320 O   0  0  0  0  0  0  0  0  0  0  0  0
  161.3370  204.7890  147.8500 C   0  0  0  0  0  2  0  0  0  0  0  0
  161.7450  204.5930  146.3860 C   0  0  2  0  0  3  0  0  0  0  0  0
  163.2360  204.8060  146.1780 C   0  0  0  0  0  1  0  0  0  0  0  0
  160.9320  205.4700  145.4470 C   0  0  2  0  0  3  0  0  0  0  0  0
  160.4680  204.6740  144.2900 C   0  0  0  0  0  2  0  0  0  0  0  0
  161.5780  205.5350  144.1980 O   0  0  0  0  0  0  0  0  0  0  0  0
  1 19  1  1  0  0  0
  2  1  1  6  0  0  0
  2  8  1  0  0  0  0
  3  5  1  1  0  0  0
  3  2  1  0  0  0  0
  3 11  1  0  0  0  0
  4  5  2  0  0  0  0
  4  7  1  0  0  0  0
  7  9  1  0  0  0  0
  8 10  1  0  0  0  0
  9 12  1  0  0  0  0
 10  6  1  0  0  0  0
 11 12  2  0  0  0  0
 11  6  1  0  0  0  0
 13 14  1  0  0  0  0
 13 16  1  0  0  0  0
 14 18  1  0  0  0  0
 15 13  1  0  0  0  0
 16 17  1  0  0  0  0
 17  1  1  0  0  0  0
 18 17  1  0  0  0  0
 20 19  1  0  0  0  0
 22 20  1  0  0  0  0
 22 21  1  0  0  0  0
 23 22  1  0  0  0  0
 24 23  1  0  0  0  0
 25 24  2  0  0  0  0
 26 24  1  0  0  0  0
 27 28  1  1  0  0  0
 27 26  1  0  0  0  0
 29 27  1  1  0  0  0
 30 29  1  0  0  0  0
 31 30  1  0  0  0  0
 31 29  1  0  0  0  0
M  END
>  <MODEL>
6

>  <REMARK>
 VINA RESULT:      -6.3      3.427      7.660
  Name = 
  10 active torsions:
  status: ('A' for Active; 'I' for Inactive)
    1  A    between atoms: C_1  and  C_6
    2  A    between atoms: C_3  and  C_19
    3  A    between atoms: C_3  and  C_23
    4  A    between atoms: C_4  and  C_12
    5  A    between atoms: C_6  and  C_19
    6  A    between atoms: N_9  and  C_15
    7  A    between atoms: N_9  and  C_23
    8  A    between atoms: C_12  and  S_20
    9  A    between atoms: C_12  and  N_27
   10  A    between atoms: C_15  and  S_20
                            x       y       z     vdW  Elec       q    Type
                         _______ _______ _______ _____ _____    ______ ____

>  <TORSDO>
F 10

$$$$
=
 OpenBabel11052422283D

 31 34  0  0  1  0  0  0  0  0999 V2000
  160.3100  211.5570  153.6890 C   0  0  1  0  0  3  0  0  0  0  0  0
  159.4260  212.8030  153.4810 C   0  0  1  0  0  3  0  0  0  0  0  0
  158.9670  212.9060  152.0170 C   0  0  2  0  0  3  0  0  0  0  0  0
  160.0530  213.8320  149.8960 C   0  0  0  0  0  3  0  0  0  0  0  0
  160.1060  213.4420  151.1830 C   0  0  0  0  0  3  0  0  0  0  0  0
  157.0180  214.3350  153.0710 C   0  0  0  0  0  2  0  0  0  0  0  0
  158.8380  213.9220  149.0020 C   0  0  0  0  0  2  0  0  0  0  0  0
  158.3290  212.8050  154.3630 O   0  0  0  0  0  0  0  0  0  0  0  0
  157.6280  213.1280  149.4730 C   0  0  0  0  0  2  0  0  0  0  0  0
  157.8400  214.1170  154.3390 C   0  0  0  0  0  2  0  0  0  0  0  0
  157.6900  213.7160  151.8750 C   0  0  0  0  0  0  0  0  0  0  0  0
  157.0540  213.7670  150.7000 C   0  0  0  0  0  3  0  0  0  0  0  0
  161.9660  209.4150  155.9210 N   0  0  0  0  0  0  0  0  0  0  0  0
  160.5860  209.0620  156.1910 C   0  0  0  0  0  2  0  0  0  0  0  0
  162.6270  209.5500  157.2060 C   0  0  0  0  0  1  0  0  0  0  0  0
  161.9320  210.7430  155.3190 C   0  0  0  0  0  2  0  0  0  0  0  0
  160.5420  211.1440  155.0820 N   0  0  0  0  0  0  0  0  0  0  0  0
  159.7410  209.9640  155.3360 C   0  0  0  0  0  2  0  0  0  0  0  0
  159.9600  210.1500  152.5670 S   0  0  0  0  0  0  0  0  0  0  0  0
  161.6250  210.0850  151.8040 C   0  0  0  0  0  2  0  0  0  0  0  0
  161.8460  207.9470  152.5760 O   0  0  0  0  0  1  0  0  0  0  0  0
  162.0540  208.7230  151.4850 N   0  0  0  0  0  0  0  0  0  0  0  0
  161.2370  208.1880  150.4020 C   0  0  0  0  0  2  0  0  0  0  0  0
  161.9170  208.3910  149.0880 C   0  0  0  0  0  0  0  0  0  0  0  0
  162.0640  209.5180  148.6440 O   0  0  0  0  0  0  0  0  0  0  0  0
  162.4820  207.2090  148.3540 C   0  0  0  0  0  2  0  0  0  0  0  0
  161.4200  206.3040  147.7220 C   0  0  2  0  0  3  0  0  0  0  0  0
  161.2230  205.0200  148.5120 C   0  0  0  0  0  1  0  0  0  0  0  0
  161.7220  206.0060  146.2620 C   0  0  2  0  0  3  0  0  0  0  0  0
  160.4970  206.1630  145.4510 C   0  0  0  0  0  2  0  0  0  0  0  0
  160.9620  204.8960  145.8480 O   0  0  0  0  0  0  0  0  0  0  0  0
  1 19  1  6  0  0  0
  1 17  1  0  0  0  0
  2  1  1  6  0  0  0
  2  8  1  0  0  0  0
  3  5  1  6  0  0  0
  3  2  1  0  0  0  0
  4  5  2  0  0  0  0
  6 10  1  0  0  0  0
  7  9  1  0  0  0  0
  7  4  1  0  0  0  0
  9 12  1  0  0  0  0
 10  8  1  0  0  0  0
 11  3  1  0  0  0  0
 11  6  1  0  0  0  0
 12 11  2  0  0  0  0
 13 14  1  0  0  0  0
 13 15  1  0  0  0  0
 16 13  1  0  0  0  0
 17 16  1  0  0  0  0
 17 18  1  0  0  0  0
 18 14  1  0  0  0  0
 20 19  1  0  0  0  0
 22 20  1  0  0  0  0
 22 21  1  0  0  0  0
 23 22  1  0  0  0  0
 24 23  1  0  0  0  0
 25 24  2  0  0  0  0
 26 24  1  0  0  0  0
 27 26  1  0  0  0  0
 27 28  1  1  0  0  0
 29 27  1  1  0  0  0
 30 31  1  0  0  0  0
 30 29  1  0  0  0  0
 31 29  1  0  0  0  0
M  END
>  <MODEL>
7

>  <REMARK>
 VINA RESULT:      -6.2      3.429      7.454
  Name = 
  10 active torsions:
  status: ('A' for Active; 'I' for Inactive)
    1  A    between atoms: C_1  and  C_6
    2  A    between atoms: C_3  and  C_19
    3  A    between atoms: C_3  and  C_23
    4  A    between atoms: C_4  and  C_12
    5  A    between atoms: C_6  and  C_19
    6  A    between atoms: N_9  and  C_15
    7  A    between atoms: N_9  and  C_23
    8  A    between atoms: C_12  and  S_20
    9  A    between atoms: C_12  and  N_27
   10  A    between atoms: C_15  and  S_20
                            x       y       z     vdW  Elec       q    Type
                         _______ _______ _______ _____ _____    ______ ____

>  <TORSDO>
F 10

$$$$
=
 OpenBabel11052422283D

 31 34  0  0  1  0  0  0  0  0999 V2000
  161.2680  207.3180  152.7250 C   0  0  1  0  0  3  0  0  0  0  0  0
  161.2040  207.6790  154.2220 C   0  0  1  0  0  3  0  0  0  0  0  0
  160.4700  209.0150  154.4280 C   0  0  2  0  0  3  0  0  0  0  0  0
  161.2020  211.4600  154.2930 C   0  0  0  0  0  3  0  0  0  0  0  0
  161.4090  210.1470  154.0840 C   0  0  0  0  0  3  0  0  0  0  0  0
  160.0480  208.0360  156.8400 C   0  0  0  0  0  2  0  0  0  0  0  0
  160.0400  212.1170  155.0010 C   0  0  0  0  0  2  0  0  0  0  0  0
  160.6090  206.6480  154.9720 O   0  0  0  0  0  0  0  0  0  0  0  0
  158.7970  211.2510  155.1450 C   0  0  0  0  0  2  0  0  0  0  0  0
  160.9440  206.9220  156.3040 C   0  0  0  0  0  2  0  0  0  0  0  0
  159.8780  209.1320  155.8220 C   0  0  0  0  0  0  0  0  0  0  0  0
  159.0630  210.1480  156.1230 C   0  0  0  0  0  3  0  0  0  0  0  0
  161.7710  204.1310  151.3460 N   0  0  0  0  0  0  0  0  0  0  0  0
  160.8180  204.6800  150.4010 C   0  0  0  0  0  2  0  0  0  0  0  0
  161.3370  202.7790  151.6470 C   0  0  0  0  0  1  0  0  0  0  0  0
  161.6190  204.9090  152.5690 C   0  0  0  0  0  2  0  0  0  0  0  0
  160.6920  206.0200  152.3390 N   0  0  0  0  0  0  0  0  0  0  0  0
  160.4540  206.0460  150.9100 C   0  0  0  0  0  2  0  0  0  0  0  0
  160.8320  208.6730  151.5700 S   0  0  0  0  0  0  0  0  0  0  0  0
  162.2880  208.4770  150.4740 C   0  0  0  0  0  2  0  0  0  0  0  0
  162.2730  209.8780  148.6690 O   0  0  0  0  0  1  0  0  0  0  0  0
  161.9570  208.6190  149.0550 N   0  0  0  0  0  0  0  0  0  0  0  0
  162.7690  207.7000  148.2650 C   0  0  0  0  0  2  0  0  0  0  0  0
  161.9100  206.6410  147.6540 C   0  0  0  0  0  0  0  0  0  0  0  0
  160.7200  206.8460  147.4790 O   0  0  0  0  0  0  0  0  0  0  0  0
  162.5340  205.3560  147.1900 C   0  0  0  0  0  2  0  0  0  0  0  0
  161.5290  204.3450  146.6260 C   0  0  2  0  0  3  0  0  0  0  0  0
  161.5670  203.0250  147.3780 C   0  0  0  0  0  1  0  0  0  0  0  0
  161.7170  204.1290  145.1330 C   0  0  2  0  0  3  0  0  0  0  0  0
  161.1560  205.2730  144.3830 C   0  0  0  0  0  2  0  0  0  0  0  0
  160.4570  204.0590  144.5120 O   0  0  0  0  0  0  0  0  0  0  0  0
  1 19  1  6  0  0  0
  2  1  1  6  0  0  0
  2  3  1  0  0  0  0
  2  8  1  0  0  0  0
  3  5  1  1  0  0  0
  3 11  1  0  0  0  0
  4  7  1  0  0  0  0
  5  4  2  0  0  0  0
  7  9  1  0  0  0  0
  8 10  1  0  0  0  0
  9 12  1  0  0  0  0
 10  6  1  0  0  0  0
 11 12  2  0  0  0  0
 11  6  1  0  0  0  0
 13 15  1  0  0  0  0
 13 16  1  0  0  0  0
 14 18  1  0  0  0  0
 14 13  1  0  0  0  0
 17 16  1  0  0  0  0
 17  1  1  0  0  0  0
 18 17  1  0  0  0  0
 20 19  1  0  0  0  0
 21 22  1  0  0  0  0
 22 20  1  0  0  0  0
 23 22  1  0  0  0  0
 24 23  1  0  0  0  0
 25 24  2  0  0  0  0
 26 24  1  0  0  0  0
 27 26  1  0  0  0  0
 27 28  1  1  0  0  0
 29 27  1  1  0  0  0
 30 31  1  0  0  0  0
 30 29  1  0  0  0  0
 31 29  1  0  0  0  0
M  END
>  <MODEL>
8

>  <REMARK>
 VINA RESULT:      -6.1      3.310      7.264
  Name = 
  10 active torsions:
  status: ('A' for Active; 'I' for Inactive)
    1  A    between atoms: C_1  and  C_6
    2  A    between atoms: C_3  and  C_19
    3  A    between atoms: C_3  and  C_23
    4  A    between atoms: C_4  and  C_12
    5  A    between atoms: C_6  and  C_19
    6  A    between atoms: N_9  and  C_15
    7  A    between atoms: N_9  and  C_23
    8  A    between atoms: C_12  and  S_20
    9  A    between atoms: C_12  and  N_27
   10  A    between atoms: C_15  and  S_20
                            x       y       z     vdW  Elec       q    Type
                         _______ _______ _______ _____ _____    ______ ____

>  <TORSDO>
F 10

$$$$
=
 OpenBabel11052422283D

 31 34  0  0  1  0  0  0  0  0999 V2000
  161.6460  206.1810  148.9540 C   0  0  1  0  0  3  0  0  0  0  0  0
  161.1140  205.5610  150.2620 C   0  0  1  0  0  3  0  0  0  0  0  0
  161.2710  204.0310  150.2410 C   0  0  2  0  0  3  0  0  0  0  0  0
  159.8700  202.1340  149.2570 C   0  0  0  0  0  3  0  0  0  0  0  0
  160.1770  203.4380  149.3870 C   0  0  0  0  0  3  0  0  0  0  0  0
  161.2030  204.3190  152.8620 C   0  0  0  0  0  2  0  0  0  0  0  0
  160.4710  200.9600  149.9940 C   0  0  0  0  0  2  0  0  0  0  0  0
  161.7400  206.1260  151.3880 O   0  0  0  0  0  0  0  0  0  0  0  0
  161.8140  201.2310  150.6570 C   0  0  0  0  0  2  0  0  0  0  0  0
  160.9330  205.7710  152.4750 C   0  0  0  0  0  2  0  0  0  0  0  0
  161.3210  203.4450  151.6420 C   0  0  0  0  0  0  0  0  0  0  0  0
  161.6240  202.1550  151.8190 C   0  0  0  0  0  3  0  0  0  0  0  0
  162.1730  205.7360  145.5140 N   0  0  0  0  0  0  0  0  0  0  0  0
  160.8320  206.2870  145.5070 C   0  0  0  0  0  2  0  0  0  0  0  0
  162.1750  204.6160  144.5910 C   0  0  0  0  0  1  0  0  0  0  0  0
  162.3760  205.1870  146.8490 C   0  0  0  0  0  2  0  0  0  0  0  0
  161.2340  205.5260  147.7030 N   0  0  0  0  0  0  0  0  0  0  0  0
  160.4400  206.4720  146.9460 C   0  0  0  0  0  2  0  0  0  0  0  0
  161.5770  208.0110  148.8670 S   0  0  0  0  0  0  0  0  0  0  0  0
  162.5750  208.3200  150.3730 C   0  0  0  0  0  2  0  0  0  0  0  0
  162.0330  210.5340  150.2220 O   0  0  0  0  0  1  0  0  0  0  0  0
  162.1480  209.5140  151.1050 N   0  0  0  0  0  0  0  0  0  0  0  0
  160.8320  209.2880  151.6920 C   0  0  0  0  0  2  0  0  0  0  0  0
  160.6180  210.2000  152.8560 C   0  0  0  0  0  0  0  0  0  0  0  0
  159.5660  210.8070  152.9700 O   0  0  0  0  0  0  0  0  0  0  0  0
  161.6730  210.3060  153.9200 C   0  0  0  0  0  2  0  0  0  0  0  0
  161.2390  209.7590  155.2830 C   0  0  2  0  0  3  0  0  0  0  0  0
  161.9930  210.4170  156.4270 C   0  0  0  0  0  1  0  0  0  0  0  0
  161.3560  208.2450  155.3510 C   0  0  2  0  0  3  0  0  0  0  0  0
  160.0610  207.6570  155.7560 C   0  0  0  0  0  2  0  0  0  0  0  0
  161.1180  207.8200  156.6710 O   0  0  0  0  0  0  0  0  0  0  0  0
  1 19  1  6  0  0  0
  2  1  1  6  0  0  0
  2  8  1  0  0  0  0
  3  5  1  6  0  0  0
  3  2  1  0  0  0  0
  3 11  1  0  0  0  0
  4  5  2  0  0  0  0
  4  7  1  0  0  0  0
  7  9  1  0  0  0  0
  8 10  1  0  0  0  0
  9 12  1  0  0  0  0
 10  6  1  0  0  0  0
 11 12  2  0  0  0  0
 11  6  1  0  0  0  0
 13 16  1  0  0  0  0
 14 13  1  0  0  0  0
 14 18  1  0  0  0  0
 15 13  1  0  0  0  0
 16 17  1  0  0  0  0
 17  1  1  0  0  0  0
 18 17  1  0  0  0  0
 19 20  1  0  0  0  0
 20 22  1  0  0  0  0
 21 22  1  0  0  0  0
 22 23  1  0  0  0  0
 23 24  1  0  0  0  0
 24 25  2  0  0  0  0
 24 26  1  0  0  0  0
 26 27  1  0  0  0  0
 27 28  1  1  0  0  0
 29 27  1  1  0  0  0
 29 30  1  0  0  0  0
 29 31  1  0  0  0  0
 30 31  1  0  0  0  0
M  END
>  <MODEL>
9

>  <REMARK>
 VINA RESULT:      -5.9      3.388      6.624
  Name = 
  10 active torsions:
  status: ('A' for Active; 'I' for Inactive)
    1  A    between atoms: C_1  and  C_6
    2  A    between atoms: C_3  and  C_19
    3  A    between atoms: C_3  and  C_23
    4  A    between atoms: C_4  and  C_12
    5  A    between atoms: C_6  and  C_19
    6  A    between atoms: N_9  and  C_15
    7  A    between atoms: N_9  and  C_23
    8  A    between atoms: C_12  and  S_20
    9  A    between atoms: C_12  and  N_27
   10  A    between atoms: C_15  and  S_20
                            x       y       z     vdW  Elec       q    Type
                         _______ _______ _______ _____ _____    ______ ____

>  <TORSDO>
F 10

$$$$
