=
 OpenBabel11062408193D

 32 36  0  0  1  0  0  0  0  0999 V2000
  160.6740  210.8120  155.3470 C   0  0  2  0  0  3  0  0  0  0  0  0
  157.4460  213.9650  155.6650 C   0  0  0  0  0  2  0  0  0  0  0  0
  160.4620  211.9690  154.3490 C   0  0  1  0  0  3  0  0  0  0  0  0
  156.4410  213.0780  153.9100 O   0  0  0  0  0  0  0  0  0  0  0  0
  157.7260  212.6280  153.8940 C   0  0  0  0  0  0  0  0  0  0  0  0
  159.7840  211.5890  153.0050 C   0  0  1  0  0  3  0  0  0  0  0  0
  158.3130  211.9360  152.9240 C   0  0  0  0  0  3  0  0  0  0  0  0
  158.3940  213.0640  155.0290 N   0  0  0  0  0  0  0  0  0  0  0  0
  156.1880  213.8500  154.9890 O   0  0  0  0  0  0  0  0  0  0  0  0
  159.8420  213.1890  155.0450 C   0  0  0  0  0  2  0  0  0  0  0  0
  160.5150  212.2320  151.8360 C   0  0  0  0  0  2  0  0  0  0  0  0
  159.5910  213.1340  151.0340 C   0  0  0  0  0  2  0  0  0  0  0  0
  160.3600  213.8430  149.9350 C   0  0  0  0  0  1  0  0  0  0  0  0
  162.1430  210.6610  155.8110 C   0  0  0  0  0  0  0  0  0  0  0  0
  163.0950  210.6800  154.6280 C   0  0  0  0  0  1  0  0  0  0  0  0
  162.3460  209.3730  156.5900 C   0  0  0  0  0  1  0  0  0  0  0  0
  162.5140  211.8050  156.7370 C   0  0  0  0  0  1  0  0  0  0  0  0
  158.9820  209.0470  156.1860 N   0  0  0  0  0  0  0  0  0  0  0  0
  158.5140  209.6740  155.0390 O   0  0  0  0  0  0  0  0  0  0  0  0
  159.8600  209.4990  155.1140 C   0  0  1  0  0  0  0  0  0  0  0  0
  161.0920  206.0450  153.9810 C   0  0  0  0  0  3  0  0  0  0  0  0
  161.1790  207.5750  152.1140 C   0  0  0  0  0  3  0  0  0  0  0  0
  160.3840  208.3560  154.2770 C   0  0  0  0  0  0  0  0  0  0  0  0
  161.3900  206.2950  152.6360 C   0  0  0  0  0  0  0  0  0  0  0  0
  160.6900  208.5960  152.9300 C   0  0  0  0  0  3  0  0  0  0  0  0
  160.6080  207.0650  154.8050 C   0  0  0  0  0  0  0  0  0  0  0  0
  160.3730  206.7830  156.1440 O   0  0  0  0  0  1  0  0  0  0  0  0
  161.8590  205.1830  151.7470 C   0  0  0  0  0  3  0  0  0  0  0  0
  161.0150  205.1170  150.4850 C   0  0  0  0  0  2  0  0  0  0  0  0
  160.7760  204.1270  151.6010 C   0  0  0  0  0  2  0  0  0  0  0  0
  158.8250  210.0200  157.2610 C   0  0  0  0  0  2  0  0  0  0  0  0
  157.6450  210.7390  157.0670 O   0  0  0  0  0  1  0  0  0  0  0  0
  1 14  1  6  0  0  0
  3 10  1  0  0  0  0
  3  1  1  1  0  0  0
  4  9  1  0  0  0  0
  5  4  1  0  0  0  0
  5  8  1  0  0  0  0
  6 11  1  6  0  0  0
  6  3  1  0  0  0  0
  7  6  1  0  0  0  0
  7  5  2  0  0  0  0
  8 10  1  0  0  0  0
  8  2  1  0  0  0  0
  9  2  1  0  0  0  0
 12 11  1  0  0  0  0
 13 12  1  0  0  0  0
 14 16  1  0  0  0  0
 14 17  1  0  0  0  0
 15 14  1  0  0  0  0
 18 31  1  0  0  0  0
 19 20  1  0  0  0  0
 19 18  1  0  0  0  0
 20  1  1  1  0  0  0
 20 18  1  0  0  0  0
 21 26  1  0  0  0  0
 22 24  1  0  0  0  0
 22 25  2  0  0  0  0
 23 26  2  0  0  0  0
 23 20  1  0  0  0  0
 24 21  2  0  0  0  0
 25 23  1  0  0  0  0
 26 27  1  0  0  0  0
 28 24  1  0  0  0  0
 29 30  1  0  0  0  0
 29 28  1  0  0  0  0
 30 28  1  0  0  0  0
 32 31  1  0  0  0  0
M  END
>  <MODEL>
1

>  <REMARK>
 VINA RESULT:      -3.5      0.000      0.000
  Name = 
  8 active torsions:
  status: ('A' for Active; 'I' for Inactive)
    1  A    between atoms: N_1  and  C_4
    2  A    between atoms: C_2  and  C_5
    3  A    between atoms: C_5  and  C_10
    4  A    between atoms: C_5  and  C_27
    5  A    between atoms: C_6  and  C_13
    6  A    between atoms: C_6  and  C_25
    7  A    between atoms: C_7  and  C_19
    8  A    between atoms: C_16  and  C_27
                            x       y       z     vdW  Elec       q    Type
                         _______ _______ _______ _____ _____    ______ ____

>  <TORSDO>
F 8

$$$$
=
 OpenBabel11062408193D

 32 36  0  0  1  0  0  0  0  0999 V2000
  160.6870  210.1460  155.4620 C   0  0  2  0  0  3  0  0  0  0  0  0
  156.8570  211.7560  157.2530 C   0  0  0  0  0  2  0  0  0  0  0  0
  160.0720  211.5250  155.1490 C   0  0  1  0  0  3  0  0  0  0  0  0
  155.8800  211.5530  155.2830 O   0  0  0  0  0  0  0  0  0  0  0  0
  157.2230  211.5370  155.0570 C   0  0  0  0  0  0  0  0  0  0  0  0
  159.3380  211.6470  153.7850 C   0  0  1  0  0  3  0  0  0  0  0  0
  157.8300  211.5710  153.8760 C   0  0  0  0  0  3  0  0  0  0  0  0
  157.9060  211.5580  156.2640 N   0  0  0  0  0  0  0  0  0  0  0  0
  155.5890  211.6280  156.6000 O   0  0  0  0  0  0  0  0  0  0  0  0
  159.2690  212.0540  156.3460 C   0  0  0  0  0  2  0  0  0  0  0  0
  159.7340  212.9360  153.0790 C   0  0  0  0  0  2  0  0  0  0  0  0
  159.4540  212.8560  151.5860 C   0  0  0  0  0  2  0  0  0  0  0  0
  158.1870  213.6150  151.2410 C   0  0  0  0  0  1  0  0  0  0  0  0
  162.1680  210.2190  155.9070 C   0  0  0  0  0  0  0  0  0  0  0  0
  162.3580  211.2450  157.0090 C   0  0  0  0  0  1  0  0  0  0  0  0
  163.0780  210.5670  154.7410 C   0  0  0  0  0  1  0  0  0  0  0  0
  162.6170  208.8670  156.4330 C   0  0  0  0  0  1  0  0  0  0  0  0
  159.8390  207.7180  155.2010 N   0  0  0  0  0  0  0  0  0  0  0  0
  158.9570  208.6150  154.6130 O   0  0  0  0  0  0  0  0  0  0  0  0
  160.2740  208.9470  154.5490 C   0  0  1  0  0  0  0  0  0  0  0  0
  162.0460  207.2660  151.5890 C   0  0  0  0  0  3  0  0  0  0  0  0
  161.5620  209.5650  151.0280 C   0  0  0  0  0  3  0  0  0  0  0  0
  160.9120  208.6920  153.2040 C   0  0  0  0  0  0  0  0  0  0  0  0
  162.1050  208.3260  150.6760 C   0  0  0  0  0  0  0  0  0  0  0  0
  160.9810  209.7470  152.2840 C   0  0  0  0  0  3  0  0  0  0  0  0
  161.4700  207.4440  152.8500 C   0  0  0  0  0  0  0  0  0  0  0  0
  161.4790  206.3800  153.7410 O   0  0  0  0  0  1  0  0  0  0  0  0
  162.6770  208.1110  149.3070 C   0  0  0  0  0  3  0  0  0  0  0  0
  162.0580  209.0810  148.3130 C   0  0  0  0  0  2  0  0  0  0  0  0
  161.5960  207.6430  148.3470 C   0  0  0  0  0  2  0  0  0  0  0  0
  159.6450  207.8580  156.6390 C   0  0  0  0  0  2  0  0  0  0  0  0
  159.8830  206.6320  157.2610 O   0  0  0  0  0  1  0  0  0  0  0  0
  1 14  1  6  0  0  0
  3  1  1  1  0  0  0
  3 10  1  0  0  0  0
  4  9  1  0  0  0  0
  5  4  1  0  0  0  0
  5  8  1  0  0  0  0
  6 11  1  1  0  0  0
  6  7  1  0  0  0  0
  6  3  1  0  0  0  0
  7  5  2  0  0  0  0
  8 10  1  0  0  0  0
  8  2  1  0  0  0  0
  9  2  1  0  0  0  0
 12 11  1  0  0  0  0
 13 12  1  0  0  0  0
 14 17  1  0  0  0  0
 14 15  1  0  0  0  0
 16 14  1  0  0  0  0
 18 31  1  0  0  0  0
 19 18  1  0  0  0  0
 20 19  1  0  0  0  0
 20 18  1  0  0  0  0
 20  1  1  1  0  0  0
 21 26  1  0  0  0  0
 22 25  2  0  0  0  0
 23 20  1  0  0  0  0
 24 22  1  0  0  0  0
 24 21  2  0  0  0  0
 25 23  1  0  0  0  0
 26 23  2  0  0  0  0
 26 27  1  0  0  0  0
 28 24  1  0  0  0  0
 29 30  1  0  0  0  0
 29 28  1  0  0  0  0
 30 28  1  0  0  0  0
 31 32  1  0  0  0  0
M  END
>  <MODEL>
2

>  <REMARK>
 VINA RESULT:      -3.0      1.822      2.469
  Name = 
  8 active torsions:
  status: ('A' for Active; 'I' for Inactive)
    1  A    between atoms: N_1  and  C_4
    2  A    between atoms: C_2  and  C_5
    3  A    between atoms: C_5  and  C_10
    4  A    between atoms: C_5  and  C_27
    5  A    between atoms: C_6  and  C_13
    6  A    between atoms: C_6  and  C_25
    7  A    between atoms: C_7  and  C_19
    8  A    between atoms: C_16  and  C_27
                            x       y       z     vdW  Elec       q    Type
                         _______ _______ _______ _____ _____    ______ ____

>  <TORSDO>
F 8

$$$$
=
 OpenBabel11062408193D

 32 36  0  0  1  0  0  0  0  0999 V2000
  159.8290  210.5080  154.3680 C   0  0  2  0  0  3  0  0  0  0  0  0
  156.9730  213.9360  155.1180 C   0  0  0  0  0  2  0  0  0  0  0  0
  159.9580  211.9200  153.7600 C   0  0  1  0  0  3  0  0  0  0  0  0
  156.2640  213.7670  153.0330 O   0  0  0  0  0  0  0  0  0  0  0  0
  157.4660  213.1310  153.0900 C   0  0  0  0  0  0  0  0  0  0  0  0
  159.5360  212.0580  152.2720 C   0  0  1  0  0  3  0  0  0  0  0  0
  158.1620  212.6560  152.0620 C   0  0  0  0  0  3  0  0  0  0  0  0
  157.9280  213.1070  154.3980 N   0  0  0  0  0  0  0  0  0  0  0  0
  155.8790  214.2310  154.2420 O   0  0  0  0  0  0  0  0  0  0  0  0
  159.3450  212.9770  154.6900 C   0  0  0  0  0  2  0  0  0  0  0  0
  160.5610  212.8760  151.5000 C   0  0  0  0  0  2  0  0  0  0  0  0
  159.9930  213.3710  150.1790 C   0  0  0  0  0  2  0  0  0  0  0  0
  160.9430  213.0540  149.0390 C   0  0  0  0  0  1  0  0  0  0  0  0
  159.1190  210.4920  155.7430 C   0  0  0  0  0  0  0  0  0  0  0  0
  157.6120  210.5920  155.5810 C   0  0  0  0  0  1  0  0  0  0  0  0
  159.6000  211.6290  156.6270 C   0  0  0  0  0  1  0  0  0  0  0  0
  159.4330  209.1980  156.4730 C   0  0  0  0  0  1  0  0  0  0  0  0
  162.3240  209.9230  154.7120 N   0  0  0  0  0  0  0  0  0  0  0  0
  161.5070  208.9820  155.3230 O   0  0  0  0  0  0  0  0  0  0  0  0
  161.0290  209.5270  154.1730 C   0  0  1  0  0  0  0  0  0  0  0  0
  161.0770  206.4580  151.8690 C   0  0  0  0  0  3  0  0  0  0  0  0
  161.6700  208.4230  150.5940 C   0  0  0  0  0  3  0  0  0  0  0  0
  161.1580  208.6310  152.9630 C   0  0  0  0  0  0  0  0  0  0  0  0
  161.4490  207.0430  150.6520 C   0  0  0  0  0  0  0  0  0  0  0  0
  161.5350  209.2050  151.7410 C   0  0  0  0  0  3  0  0  0  0  0  0
  160.9450  207.2360  153.0220 C   0  0  0  0  0  0  0  0  0  0  0  0
  160.6230  206.6060  154.2160 O   0  0  0  0  0  1  0  0  0  0  0  0
  161.5370  206.2090  149.4090 C   0  0  0  0  0  3  0  0  0  0  0  0
  161.4610  207.0880  148.1720 C   0  0  0  0  0  2  0  0  0  0  0  0
  160.2460  206.3060  148.6120 C   0  0  0  0  0  2  0  0  0  0  0  0
  162.2650  211.1080  155.5610 C   0  0  0  0  0  2  0  0  0  0  0  0
  163.1170  210.9400  156.6520 O   0  0  0  0  0  1  0  0  0  0  0  0
  1 14  1  1  0  0  0
  3  1  1  1  0  0  0
  3 10  1  0  0  0  0
  4  5  1  0  0  0  0
  4  9  1  0  0  0  0
  5  8  1  0  0  0  0
  6 11  1  6  0  0  0
  6  3  1  0  0  0  0
  7  6  1  0  0  0  0
  7  5  2  0  0  0  0
  8 10  1  0  0  0  0
  8  2  1  0  0  0  0
  9  2  1  0  0  0  0
 12 11  1  0  0  0  0
 13 12  1  0  0  0  0
 14 17  1  0  0  0  0
 14 16  1  0  0  0  0
 15 14  1  0  0  0  0
 18 19  1  0  0  0  0
 18 31  1  0  0  0  0
 20  1  1  1  0  0  0
 20 18  1  0  0  0  0
 20 19  1  0  0  0  0
 21 26  1  0  0  0  0
 22 24  1  0  0  0  0
 22 25  2  0  0  0  0
 23 26  2  0  0  0  0
 23 20  1  0  0  0  0
 24 21  2  0  0  0  0
 25 23  1  0  0  0  0
 26 27  1  0  0  0  0
 28 24  1  0  0  0  0
 29 30  1  0  0  0  0
 29 28  1  0  0  0  0
 30 28  1  0  0  0  0
 31 32  1  0  0  0  0
M  END
>  <MODEL>
3

>  <REMARK>
 VINA RESULT:      -2.7      1.793      2.548
  Name = 
  8 active torsions:
  status: ('A' for Active; 'I' for Inactive)
    1  A    between atoms: N_1  and  C_4
    2  A    between atoms: C_2  and  C_5
    3  A    between atoms: C_5  and  C_10
    4  A    between atoms: C_5  and  C_27
    5  A    between atoms: C_6  and  C_13
    6  A    between atoms: C_6  and  C_25
    7  A    between atoms: C_7  and  C_19
    8  A    between atoms: C_16  and  C_27
                            x       y       z     vdW  Elec       q    Type
                         _______ _______ _______ _____ _____    ______ ____

>  <TORSDO>
F 8

$$$$
=
 OpenBabel11062408193D

 32 36  0  0  1  0  0  0  0  0999 V2000
  160.1990  209.4330  154.7130 C   0  0  2  0  0  3  0  0  0  0  0  0
  156.4350  211.0400  156.6420 C   0  0  0  0  0  2  0  0  0  0  0  0
  159.7510  210.9090  154.6920 C   0  0  1  0  0  3  0  0  0  0  0  0
  155.5850  211.3890  154.6340 O   0  0  0  0  0  0  0  0  0  0  0  0
  156.9320  211.2690  154.4740 C   0  0  0  0  0  0  0  0  0  0  0  0
  159.1330  211.4110  153.3590 C   0  0  1  0  0  3  0  0  0  0  0  0
  157.6220  211.4910  153.3600 C   0  0  0  0  0  3  0  0  0  0  0  0
  157.5260  210.9450  155.6840 N   0  0  0  0  0  0  0  0  0  0  0  0
  155.2110  211.2060  155.9190 O   0  0  0  0  0  0  0  0  0  0  0  0
  158.9230  211.2500  155.9390 C   0  0  0  0  0  2  0  0  0  0  0  0
  159.7060  212.7690  152.9810 C   0  0  0  0  0  2  0  0  0  0  0  0
  160.0710  212.8240  151.5060 C   0  0  0  0  0  2  0  0  0  0  0  0
  159.0540  213.6470  150.7370 C   0  0  0  0  0  1  0  0  0  0  0  0
  160.1380  208.7910  156.1200 C   0  0  0  0  0  0  0  0  0  0  0  0
  161.4160  208.0320  156.4300 C   0  0  0  0  0  1  0  0  0  0  0  0
  158.9560  207.8460  156.2450 C   0  0  0  0  0  1  0  0  0  0  0  0
  159.9580  209.8690  157.1740 C   0  0  0  0  0  1  0  0  0  0  0  0
  162.5450  209.9260  153.7460 N   0  0  0  0  0  0  0  0  0  0  0  0
  162.5450  208.7360  154.4610 O   0  0  0  0  0  0  0  0  0  0  0  0
  161.3970  209.0290  153.7950 C   0  0  1  0  0  0  0  0  0  0  0  0
  160.8310  206.2020  151.2630 C   0  0  0  0  0  3  0  0  0  0  0  0
  161.1250  208.2860  150.0780 C   0  0  0  0  0  3  0  0  0  0  0  0
  161.2120  208.2570  152.5090 C   0  0  0  0  0  0  0  0  0  0  0  0
  160.9040  206.9060  150.0550 C   0  0  0  0  0  0  0  0  0  0  0  0
  161.2880  208.9520  151.2940 C   0  0  0  0  0  3  0  0  0  0  0  0
  160.9980  206.8620  152.4830 C   0  0  0  0  0  0  0  0  0  0  0  0
  160.9680  206.1150  153.6530 O   0  0  0  0  0  1  0  0  0  0  0  0
  160.6720  206.1990  148.7540 C   0  0  0  0  0  3  0  0  0  0  0  0
  161.2060  204.7770  148.8170 C   0  0  0  0  0  2  0  0  0  0  0  0
  161.9960  205.8450  148.0970 C   0  0  0  0  0  2  0  0  0  0  0  0
  162.5000  210.9870  154.7450 C   0  0  0  0  0  2  0  0  0  0  0  0
  163.4450  210.7300  155.7380 O   0  0  0  0  0  1  0  0  0  0  0  0
  1 14  1  1  0  0  0
  3  1  1  6  0  0  0
  3 10  1  0  0  0  0
  4  9  1  0  0  0  0
  5  4  1  0  0  0  0
  5  8  1  0  0  0  0
  6 11  1  1  0  0  0
  6  7  1  0  0  0  0
  6  3  1  0  0  0  0
  7  5  2  0  0  0  0
  8 10  1  0  0  0  0
  8  2  1  0  0  0  0
  9  2  1  0  0  0  0
 12 11  1  0  0  0  0
 13 12  1  0  0  0  0
 14 16  1  0  0  0  0
 14 15  1  0  0  0  0
 14 17  1  0  0  0  0
 18 20  1  0  0  0  0
 18 19  1  0  0  0  0
 18 31  1  0  0  0  0
 20 19  1  0  0  0  0
 20  1  1  1  0  0  0
 21 26  1  0  0  0  0
 22 25  2  0  0  0  0
 23 20  1  0  0  0  0
 24 22  1  0  0  0  0
 24 21  2  0  0  0  0
 25 23  1  0  0  0  0
 26 23  2  0  0  0  0
 26 27  1  0  0  0  0
 28 29  1  0  0  0  0
 28 24  1  0  0  0  0
 30 28  1  0  0  0  0
 30 29  1  0  0  0  0
 31 32  1  0  0  0  0
M  END
>  <MODEL>
4

>  <REMARK>
 VINA RESULT:      -1.3      2.086      2.855
  Name = 
  8 active torsions:
  status: ('A' for Active; 'I' for Inactive)
    1  A    between atoms: N_1  and  C_4
    2  A    between atoms: C_2  and  C_5
    3  A    between atoms: C_5  and  C_10
    4  A    between atoms: C_5  and  C_27
    5  A    between atoms: C_6  and  C_13
    6  A    between atoms: C_6  and  C_25
    7  A    between atoms: C_7  and  C_19
    8  A    between atoms: C_16  and  C_27
                            x       y       z     vdW  Elec       q    Type
                         _______ _______ _______ _____ _____    ______ ____

>  <TORSDO>
F 8

$$$$
=
 OpenBabel11062408193D

 32 36  0  0  1  0  0  0  0  0999 V2000
  160.7160  209.9440  155.0040 C   0  0  2  0  0  3  0  0  0  0  0  0
  161.7690  207.2500  151.5260 C   0  0  0  0  0  2  0  0  0  0  0  0
  160.0590  209.9980  153.6100 C   0  0  1  0  0  3  0  0  0  0  0  0
  162.6730  208.9800  150.4930 O   0  0  0  0  0  0  0  0  0  0  0  0
  161.8540  209.4840  151.4560 C   0  0  0  0  0  0  0  0  0  0  0  0
  160.5190  211.1590  152.6880 C   0  0  1  0  0  3  0  0  0  0  0  0
  161.5240  210.7600  151.6290 C   0  0  0  0  0  3  0  0  0  0  0  0
  161.3260  208.4520  152.2170 N   0  0  0  0  0  0  0  0  0  0  0  0
  162.7110  207.6300  150.5170 O   0  0  0  0  0  0  0  0  0  0  0  0
  160.0770  208.6160  152.9400 C   0  0  0  0  0  2  0  0  0  0  0  0
  159.3220  211.8180  152.0180 C   0  0  0  0  0  2  0  0  0  0  0  0
  159.0520  213.1970  152.5990 C   0  0  0  0  0  2  0  0  0  0  0  0
  157.6350  213.2810  153.1340 C   0  0  0  0  0  1  0  0  0  0  0  0
  160.4520  208.6190  155.7590 C   0  0  0  0  0  0  0  0  0  0  0  0
  160.4220  208.8420  157.2610 C   0  0  0  0  0  1  0  0  0  0  0  0
  161.5080  207.5780  155.4320 C   0  0  0  0  0  1  0  0  0  0  0  0
  159.1120  208.0420  155.3380 C   0  0  0  0  0  1  0  0  0  0  0  0
  161.7800  211.4210  156.8400 N   0  0  0  0  0  0  0  0  0  0  0  0
  161.7830  212.0760  155.6160 O   0  0  0  0  0  0  0  0  0  0  0  0
  160.7230  211.2580  155.8500 C   0  0  1  0  0  0  0  0  0  0  0  0
  158.2530  213.9060  157.1220 C   0  0  0  0  0  3  0  0  0  0  0  0
  157.0280  211.9490  156.4110 C   0  0  0  0  0  3  0  0  0  0  0  0
  159.4540  211.9830  156.2350 C   0  0  0  0  0  0  0  0  0  0  0  0
  157.0330  213.2400  156.9470 C   0  0  0  0  0  0  0  0  0  0  0  0
  158.2290  211.3250  156.0690 C   0  0  0  0  0  3  0  0  0  0  0  0
  159.4580  213.2840  156.7860 C   0  0  0  0  0  0  0  0  0  0  0  0
  160.6460  213.9630  157.0230 O   0  0  0  0  0  1  0  0  0  0  0  0
  155.7430  213.9350  157.2610 C   0  0  0  0  0  3  0  0  0  0  0  0
  154.5710  212.9790  157.1010 C   0  0  0  0  0  2  0  0  0  0  0  0
  154.8600  213.9990  156.0250 C   0  0  0  0  0  2  0  0  0  0  0  0
  162.8250  210.4080  156.7490 C   0  0  0  0  0  2  0  0  0  0  0  0
  164.0160  210.9240  157.2600 O   0  0  0  0  0  1  0  0  0  0  0  0
  1 14  1  1  0  0  0
  2  8  1  0  0  0  0
  3  1  1  1  0  0  0
  4  9  1  0  0  0  0
  4  5  1  0  0  0  0
  5  7  2  0  0  0  0
  5  8  1  0  0  0  0
  6 11  1  6  0  0  0
  6  3  1  0  0  0  0
  7  6  1  0  0  0  0
  8 10  1  0  0  0  0
  9  2  1  0  0  0  0
 10  3  1  0  0  0  0
 11 12  1  0  0  0  0
 12 13  1  0  0  0  0
 14 15  1  0  0  0  0
 16 14  1  0  0  0  0
 17 14  1  0  0  0  0
 19 20  1  0  0  0  0
 19 18  1  0  0  0  0
 20  1  1  6  0  0  0
 20 23  1  0  0  0  0
 20 18  1  0  0  0  0
 22 24  2  0  0  0  0
 23 26  1  0  0  0  0
 24 21  1  0  0  0  0
 24 28  1  0  0  0  0
 25 23  2  0  0  0  0
 25 22  1  0  0  0  0
 26 27  1  0  0  0  0
 26 21  2  0  0  0  0
 29 28  1  0  0  0  0
 30 29  1  0  0  0  0
 30 28  1  0  0  0  0
 31 18  1  0  0  0  0
 31 32  1  0  0  0  0
M  END
>  <MODEL>
5

>  <REMARK>
 VINA RESULT:      -1.2      2.805      6.467
  Name = 
  8 active torsions:
  status: ('A' for Active; 'I' for Inactive)
    1  A    between atoms: N_1  and  C_4
    2  A    between atoms: C_2  and  C_5
    3  A    between atoms: C_5  and  C_10
    4  A    between atoms: C_5  and  C_27
    5  A    between atoms: C_6  and  C_13
    6  A    between atoms: C_6  and  C_25
    7  A    between atoms: C_7  and  C_19
    8  A    between atoms: C_16  and  C_27
                            x       y       z     vdW  Elec       q    Type
                         _______ _______ _______ _____ _____    ______ ____

>  <TORSDO>
F 8

$$$$
=
 OpenBabel11062408193D

 32 36  0  0  1  0  0  0  0  0999 V2000
  161.5480  205.9660  150.7780 C   0  0  2  0  0  3  0  0  0  0  0  0
  160.5010  201.6030  150.2060 C   0  0  0  0  0  2  0  0  0  0  0  0
  160.5640  205.4210  149.7230 C   0  0  1  0  0  3  0  0  0  0  0  0
  161.5940  201.6170  148.2870 O   0  0  0  0  0  0  0  0  0  0  0  0
  161.3310  202.9170  148.5980 C   0  0  0  0  0  0  0  0  0  0  0  0
  161.0980  205.3540  148.2670 C   0  0  1  0  0  3  0  0  0  0  0  0
  161.5330  203.9750  147.8210 C   0  0  0  0  0  3  0  0  0  0  0  0
  160.7330  202.9930  149.8470 N   0  0  0  0  0  0  0  0  0  0  0  0
  161.1660  200.7710  149.2490 O   0  0  0  0  0  0  0  0  0  0  0  0
  159.8980  204.1260  150.2110 C   0  0  0  0  0  2  0  0  0  0  0  0
  160.0610  205.8920  147.2920 C   0  0  0  0  0  2  0  0  0  0  0  0
  160.7120  206.3880  146.0100 C   0  0  0  0  0  2  0  0  0  0  0  0
  160.4090  205.4450  144.8610 C   0  0  0  0  0  1  0  0  0  0  0  0
  161.7270  205.0300  151.9980 C   0  0  0  0  0  0  0  0  0  0  0  0
  160.3830  204.6430  152.5900 C   0  0  0  0  0  1  0  0  0  0  0  0
  162.5750  205.6830  153.0750 C   0  0  0  0  0  1  0  0  0  0  0  0
  162.4430  203.7600  151.5750 C   0  0  0  0  0  1  0  0  0  0  0  0
  162.4080  208.3470  150.2530 N   0  0  0  0  0  0  0  0  0  0  0  0
  161.0410  208.2570  150.0340 O   0  0  0  0  0  0  0  0  0  0  0  0
  161.5300  207.5040  151.0550 C   0  0  1  0  0  0  0  0  0  0  0  0
  161.5200  209.8090  154.1230 C   0  0  0  0  0  3  0  0  0  0  0  0
  160.2500  207.8150  154.6190 C   0  0  0  0  0  3  0  0  0  0  0  0
  161.2730  208.0800  152.4280 C   0  0  0  0  0  0  0  0  0  0  0  0
  160.7570  209.0540  155.0230 C   0  0  0  0  0  0  0  0  0  0  0  0
  160.5160  207.3300  153.3380 C   0  0  0  0  0  3  0  0  0  0  0  0
  161.7930  209.3270  152.8400 C   0  0  0  0  0  0  0  0  0  0  0  0
  162.5940  210.0870  152.0000 O   0  0  0  0  0  1  0  0  0  0  0  0
  160.4260  209.6030  156.3770 C   0  0  0  0  0  3  0  0  0  0  0  0
  161.1740  210.9030  156.6230 C   0  0  0  0  0  2  0  0  0  0  0  0
  161.6630  209.6230  157.2600 C   0  0  0  0  0  2  0  0  0  0  0  0
  163.0350  207.6450  149.1390 C   0  0  0  0  0  2  0  0  0  0  0  0
  162.7550  208.3180  147.9500 O   0  0  0  0  0  1  0  0  0  0  0  0
  1 14  1  1  0  0  0
  3 10  1  0  0  0  0
  3  1  1  1  0  0  0
  4  5  1  0  0  0  0
  4  9  1  0  0  0  0
  5  8  1  0  0  0  0
  6 11  1  6  0  0  0
  6  3  1  0  0  0  0
  7  6  1  0  0  0  0
  7  5  2  0  0  0  0
  8  2  1  0  0  0  0
  8 10  1  0  0  0  0
  9  2  1  0  0  0  0
 12 11  1  0  0  0  0
 13 12  1  0  0  0  0
 14 15  1  0  0  0  0
 14 16  1  0  0  0  0
 17 14  1  0  0  0  0
 18 20  1  0  0  0  0
 19 18  1  0  0  0  0
 19 20  1  0  0  0  0
 20  1  1  6  0  0  0
 20 23  1  0  0  0  0
 21 24  1  0  0  0  0
 22 24  2  0  0  0  0
 23 26  1  0  0  0  0
 23 25  2  0  0  0  0
 24 28  1  0  0  0  0
 25 22  1  0  0  0  0
 26 21  2  0  0  0  0
 27 26  1  0  0  0  0
 28 29  1  0  0  0  0
 28 30  1  0  0  0  0
 29 30  1  0  0  0  0
 31 18  1  0  0  0  0
 32 31  1  0  0  0  0
M  END
>  <MODEL>
6

>  <REMARK>
 VINA RESULT:      -0.9      4.198      8.420
  Name = 
  8 active torsions:
  status: ('A' for Active; 'I' for Inactive)
    1  A    between atoms: N_1  and  C_4
    2  A    between atoms: C_2  and  C_5
    3  A    between atoms: C_5  and  C_10
    4  A    between atoms: C_5  and  C_27
    5  A    between atoms: C_6  and  C_13
    6  A    between atoms: C_6  and  C_25
    7  A    between atoms: C_7  and  C_19
    8  A    between atoms: C_16  and  C_27
                            x       y       z     vdW  Elec       q    Type
                         _______ _______ _______ _____ _____    ______ ____

>  <TORSDO>
F 8

$$$$
=
 OpenBabel11062408193D

 32 36  0  0  1  0  0  0  0  0999 V2000
  159.0660  212.1270  154.8880 C   0  0  2  0  0  3  0  0  0  0  0  0
  162.8350  211.2980  157.2500 C   0  0  0  0  0  2  0  0  0  0  0  0
  159.6600  210.7280  155.1500 C   0  0  1  0  0  3  0  0  0  0  0  0
  163.8470  210.7060  155.3780 O   0  0  0  0  0  0  0  0  0  0  0  0
  162.5090  210.6480  155.1340 C   0  0  0  0  0  0  0  0  0  0  0  0
  160.4120  210.0760  153.9580 C   0  0  1  0  0  3  0  0  0  0  0  0
  161.9200  210.1640  154.0460 C   0  0  0  0  0  3  0  0  0  0  0  0
  161.8060  211.1070  156.2390 N   0  0  0  0  0  0  0  0  0  0  0  0
  164.1160  211.1460  156.6270 O   0  0  0  0  0  0  0  0  0  0  0  0
  160.4330  210.6980  156.4770 C   0  0  0  0  0  2  0  0  0  0  0  0
  160.0040  208.6190  153.8000 C   0  0  0  0  0  2  0  0  0  0  0  0
  161.2140  207.6990  153.8330 C   0  0  0  0  0  2  0  0  0  0  0  0
  160.7980  206.2640  153.5690 C   0  0  0  0  0  1  0  0  0  0  0  0
  158.6810  212.8850  156.1820 C   0  0  0  0  0  0  0  0  0  0  0  0
  159.9170  213.3740  156.9170 C   0  0  0  0  0  1  0  0  0  0  0  0
  157.8640  212.0070  157.1130 C   0  0  0  0  0  1  0  0  0  0  0  0
  157.8240  214.0900  155.8390 C   0  0  0  0  0  1  0  0  0  0  0  0
  157.0040  211.3610  153.5320 N   0  0  0  0  0  0  0  0  0  0  0  0
  156.8510  212.6710  153.9650 O   0  0  0  0  0  0  0  0  0  0  0  0
  158.1190  212.2910  153.6570 C   0  0  1  0  0  0  0  0  0  0  0  0
  158.3450  214.0800  150.2690 C   0  0  0  0  0  3  0  0  0  0  0  0
  160.3540  212.7850  150.6230 C   0  0  0  0  0  3  0  0  0  0  0  0
  158.6070  212.7900  152.3170 C   0  0  0  0  0  0  0  0  0  0  0  0
  159.5970  213.6440  149.8190 C   0  0  0  0  0  0  0  0  0  0  0  0
  159.8570  212.3550  151.8540 C   0  0  0  0  0  3  0  0  0  0  0  0
  157.8400  213.6490  151.4990 C   0  0  0  0  0  0  0  0  0  0  0  0
  156.5730  214.0670  151.8810 O   0  0  0  0  0  1  0  0  0  0  0  0
  160.1530  214.1520  148.5230 C   0  0  0  0  0  3  0  0  0  0  0  0
  159.4200  213.5260  147.3470 C   0  0  0  0  0  2  0  0  0  0  0  0
  160.7890  213.0180  147.7360 C   0  0  0  0  0  2  0  0  0  0  0  0
  156.8030  210.5280  154.7120 C   0  0  0  0  0  2  0  0  0  0  0  0
  155.5230  210.7470  155.2220 O   0  0  0  0  0  1  0  0  0  0  0  0
  1 14  1  1  0  0  0
  3  1  1  6  0  0  0
  3 10  1  0  0  0  0
  4  9  1  0  0  0  0
  5  4  1  0  0  0  0
  5  8  1  0  0  0  0
  6 11  1  1  0  0  0
  6  7  1  0  0  0  0
  6  3  1  0  0  0  0
  7  5  2  0  0  0  0
  8 10  1  0  0  0  0
  8  2  1  0  0  0  0
  9  2  1  0  0  0  0
 11 12  1  0  0  0  0
 13 12  1  0  0  0  0
 14 15  1  0  0  0  0
 14 16  1  0  0  0  0
 17 14  1  0  0  0  0
 18 20  1  0  0  0  0
 18 19  1  0  0  0  0
 18 31  1  0  0  0  0
 20 19  1  0  0  0  0
 20  1  1  1  0  0  0
 21 26  1  0  0  0  0
 22 25  2  0  0  0  0
 23 20  1  0  0  0  0
 24 21  2  0  0  0  0
 24 22  1  0  0  0  0
 25 23  1  0  0  0  0
 26 27  1  0  0  0  0
 26 23  2  0  0  0  0
 28 24  1  0  0  0  0
 29 30  1  0  0  0  0
 29 28  1  0  0  0  0
 30 28  1  0  0  0  0
 31 32  1  0  0  0  0
M  END
>  <MODEL>
7

>  <REMARK>
 VINA RESULT:      -0.8      2.152      6.079
  Name = 
  8 active torsions:
  status: ('A' for Active; 'I' for Inactive)
    1  A    between atoms: N_1  and  C_4
    2  A    between atoms: C_2  and  C_5
    3  A    between atoms: C_5  and  C_10
    4  A    between atoms: C_5  and  C_27
    5  A    between atoms: C_6  and  C_13
    6  A    between atoms: C_6  and  C_25
    7  A    between atoms: C_7  and  C_19
    8  A    between atoms: C_16  and  C_27
                            x       y       z     vdW  Elec       q    Type
                         _______ _______ _______ _____ _____    ______ ____

>  <TORSDO>
F 8

$$$$
=
 OpenBabel11062408193D

 32 36  0  0  1  0  0  0  0  0999 V2000
  160.8310  208.2340  152.5060 C   0  0  2  0  0  3  0  0  0  0  0  0
  162.7840  210.7010  155.7580 C   0  0  0  0  0  2  0  0  0  0  0  0
  160.8940  209.7750  152.5350 C   0  0  1  0  0  3  0  0  0  0  0  0
  160.7860  211.3790  156.4080 O   0  0  0  0  0  0  0  0  0  0  0  0
  160.6440  210.9040  155.1400 C   0  0  0  0  0  0  0  0  0  0  0  0
  159.5830  210.5000  152.9450 C   0  0  1  0  0  3  0  0  0  0  0  0
  159.5590  210.9900  154.3770 C   0  0  0  0  0  3  0  0  0  0  0  0
  161.8430  210.3630  154.7000 N   0  0  0  0  0  0  0  0  0  0  0  0
  162.0490  211.2350  156.8640 O   0  0  0  0  0  0  0  0  0  0  0  0
  162.1440  210.2610  153.2830 C   0  0  0  0  0  2  0  0  0  0  0  0
  159.3020  211.6680  152.0110 C   0  0  0  0  0  2  0  0  0  0  0  0
  158.4000  212.6980  152.6700 C   0  0  0  0  0  2  0  0  0  0  0  0
  158.5210  214.0380  151.9680 C   0  0  0  0  0  1  0  0  0  0  0  0
  160.7810  207.5930  153.9140 C   0  0  0  0  0  0  0  0  0  0  0  0
  159.7190  208.2510  154.7770 C   0  0  0  0  0  1  0  0  0  0  0  0
  162.1240  207.6960  154.6150 C   0  0  0  0  0  1  0  0  0  0  0  0
  160.4510  206.1160  153.7980 C   0  0  0  0  0  1  0  0  0  0  0  0
  162.1550  208.2830  150.2860 N   0  0  0  0  0  0  0  0  0  0  0  0
  162.9720  207.8960  151.3400 O   0  0  0  0  0  0  0  0  0  0  0  0
  161.6740  207.4980  151.4160 C   0  0  1  0  0  0  0  0  0  0  0  0
  160.5590  204.2930  149.6240 C   0  0  0  0  0  3  0  0  0  0  0  0
  161.7620  203.7050  151.6350 C   0  0  0  0  0  3  0  0  0  0  0  0
  161.4500  206.0470  151.0570 C   0  0  0  0  0  0  0  0  0  0  0  0
  161.0610  203.3130  150.4890 C   0  0  0  0  0  0  0  0  0  0  0  0
  161.9440  205.0590  151.9190 C   0  0  0  0  0  3  0  0  0  0  0  0
  160.7330  205.6500  149.9060 C   0  0  0  0  0  0  0  0  0  0  0  0
  160.1750  206.5860  149.0460 O   0  0  0  0  0  1  0  0  0  0  0  0
  160.9150  201.8610  150.1520 C   0  0  0  0  0  3  0  0  0  0  0  0
  160.9380  201.6590  148.6460 C   0  0  0  0  0  2  0  0  0  0  0  0
  159.6230  201.6200  149.3880 C   0  0  0  0  0  2  0  0  0  0  0  0
  161.9560  209.7190  150.4460 C   0  0  0  0  0  2  0  0  0  0  0  0
  162.0170  210.3380  149.1980 O   0  0  0  0  0  1  0  0  0  0  0  0
  1 14  1  1  0  0  0
  2  9  1  0  0  0  0
  3  1  1  1  0  0  0
  3  6  1  0  0  0  0
  3 10  1  0  0  0  0
  4  9  1  0  0  0  0
  5  4  1  0  0  0  0
  6 11  1  6  0  0  0
  6  7  1  0  0  0  0
  7  5  2  0  0  0  0
  8  5  1  0  0  0  0
  8  2  1  0  0  0  0
 10  8  1  0  0  0  0
 11 12  1  0  0  0  0
 13 12  1  0  0  0  0
 14 16  1  0  0  0  0
 14 15  1  0  0  0  0
 17 14  1  0  0  0  0
 18 31  1  0  0  0  0
 18 19  1  0  0  0  0
 18 20  1  0  0  0  0
 19 20  1  0  0  0  0
 20  1  1  1  0  0  0
 21 26  2  0  0  0  0
 21 24  1  0  0  0  0
 22 25  1  0  0  0  0
 23 20  1  0  0  0  0
 23 25  2  0  0  0  0
 24 22  2  0  0  0  0
 26 23  1  0  0  0  0
 27 26  1  0  0  0  0
 28 24  1  0  0  0  0
 29 30  1  0  0  0  0
 29 28  1  0  0  0  0
 30 28  1  0  0  0  0
 32 31  1  0  0  0  0
M  END
>  <MODEL>
8

>  <REMARK>
 VINA RESULT:      -0.8      2.957      4.779
  Name = 
  8 active torsions:
  status: ('A' for Active; 'I' for Inactive)
    1  A    between atoms: N_1  and  C_4
    2  A    between atoms: C_2  and  C_5
    3  A    between atoms: C_5  and  C_10
    4  A    between atoms: C_5  and  C_27
    5  A    between atoms: C_6  and  C_13
    6  A    between atoms: C_6  and  C_25
    7  A    between atoms: C_7  and  C_19
    8  A    between atoms: C_16  and  C_27
                            x       y       z     vdW  Elec       q    Type
                         _______ _______ _______ _____ _____    ______ ____

>  <TORSDO>
F 8

$$$$
=
 OpenBabel11062408193D

 32 36  0  0  1  0  0  0  0  0999 V2000
  161.0060  208.9630  154.4500 C   0  0  2  0  0  3  0  0  0  0  0  0
  161.1030  204.7890  152.7080 C   0  0  0  0  0  2  0  0  0  0  0  0
  160.7020  208.6070  152.9810 C   0  0  1  0  0  3  0  0  0  0  0  0
  162.9100  205.3360  151.5630 O   0  0  0  0  0  0  0  0  0  0  0  0
  162.3130  206.5020  151.9330 C   0  0  0  0  0  0  0  0  0  0  0  0
  161.8270  208.9250  151.9590 C   0  0  1  0  0  3  0  0  0  0  0  0
  162.6490  207.7260  151.5380 C   0  0  0  0  0  3  0  0  0  0  0  0
  161.2220  206.2380  152.7470 N   0  0  0  0  0  0  0  0  0  0  0  0
  162.2570  204.2570  152.0480 O   0  0  0  0  0  0  0  0  0  0  0  0
  160.1280  207.1870  152.8660 C   0  0  0  0  0  2  0  0  0  0  0  0
  161.2520  209.5970  150.7210 C   0  0  0  0  0  2  0  0  0  0  0  0
  161.9650  210.9050  150.4190 C   0  0  0  0  0  2  0  0  0  0  0  0
  161.9700  211.1770  148.9270 C   0  0  0  0  0  1  0  0  0  0  0  0
  160.6320  207.8390  155.4470 C   0  0  0  0  0  0  0  0  0  0  0  0
  161.5830  206.6620  155.3250 C   0  0  0  0  0  1  0  0  0  0  0  0
  159.2100  207.3550  155.2230 C   0  0  0  0  0  1  0  0  0  0  0  0
  160.7050  208.3640  156.8690 C   0  0  0  0  0  1  0  0  0  0  0  0
  161.7760  211.0870  155.7070 N   0  0  0  0  0  0  0  0  0  0  0  0
  161.5900  211.3520  154.3580 O   0  0  0  0  0  0  0  0  0  0  0  0
  160.7480  210.4360  154.9050 C   0  0  1  0  0  0  0  0  0  0  0  0
  157.1870  211.8120  154.5160 C   0  0  0  0  0  3  0  0  0  0  0  0
  157.7130  211.6120  156.8650 C   0  0  0  0  0  3  0  0  0  0  0  0
  159.3640  210.9640  155.2000 C   0  0  0  0  0  0  0  0  0  0  0  0
  156.8120  211.9660  155.8560 C   0  0  0  0  0  0  0  0  0  0  0  0
  158.9800  211.1260  156.5380 C   0  0  0  0  0  3  0  0  0  0  0  0
  158.4560  211.3310  154.1820 C   0  0  0  0  0  0  0  0  0  0  0  0
  158.8020  211.2420  152.8410 O   0  0  0  0  0  1  0  0  0  0  0  0
  155.4310  212.4330  156.2040 C   0  0  0  0  0  3  0  0  0  0  0  0
  155.2440  213.8880  155.8060 C   0  0  0  0  0  2  0  0  0  0  0  0
  155.4900  213.5310  157.2530 C   0  0  0  0  0  2  0  0  0  0  0  0
  163.0170  210.3270  155.7940 C   0  0  0  0  0  2  0  0  0  0  0  0
  163.4720  210.3290  157.1120 O   0  0  0  0  0  1  0  0  0  0  0  0
  1 14  1  1  0  0  0
  2  8  1  0  0  0  0
  3  1  1  1  0  0  0
  4  5  1  0  0  0  0
  4  9  1  0  0  0  0
  5  8  1  0  0  0  0
  6 11  1  6  0  0  0
  6  3  1  0  0  0  0
  7  5  2  0  0  0  0
  7  6  1  0  0  0  0
  8 10  1  0  0  0  0
  9  2  1  0  0  0  0
 10  3  1  0  0  0  0
 12 11  1  0  0  0  0
 13 12  1  0  0  0  0
 14 17  1  0  0  0  0
 15 14  1  0  0  0  0
 16 14  1  0  0  0  0
 18 31  1  0  0  0  0
 19 20  1  0  0  0  0
 19 18  1  0  0  0  0
 20  1  1  6  0  0  0
 20 23  1  0  0  0  0
 20 18  1  0  0  0  0
 21 24  1  0  0  0  0
 23 25  2  0  0  0  0
 24 28  1  0  0  0  0
 24 22  2  0  0  0  0
 25 22  1  0  0  0  0
 26 21  2  0  0  0  0
 26 23  1  0  0  0  0
 27 26  1  0  0  0  0
 28 30  1  0  0  0  0
 29 28  1  0  0  0  0
 29 30  1  0  0  0  0
 31 32  1  0  0  0  0
M  END
>  <MODEL>
9

>  <REMARK>
 VINA RESULT:      -0.6      2.576      6.626
  Name = 
  8 active torsions:
  status: ('A' for Active; 'I' for Inactive)
    1  A    between atoms: N_1  and  C_4
    2  A    between atoms: C_2  and  C_5
    3  A    between atoms: C_5  and  C_10
    4  A    between atoms: C_5  and  C_27
    5  A    between atoms: C_6  and  C_13
    6  A    between atoms: C_6  and  C_25
    7  A    between atoms: C_7  and  C_19
    8  A    between atoms: C_16  and  C_27
                            x       y       z     vdW  Elec       q    Type
                         _______ _______ _______ _____ _____    ______ ____

>  <TORSDO>
F 8

$$$$
