=
 OpenBabel11052422193D

 25 26  0  0  1  0  0  0  0  0999 V2000
  161.5650  203.3740  148.5610 C   0  0  2  0  0  3  0  0  0  0  0  0
  160.7780  204.5130  149.2300 C   0  0  1  0  0  3  0  0  0  0  0  0
  162.3780  205.9920  146.3760 O   0  0  0  0  0  0  0  0  0  0  0  0
  161.9160  205.2790  147.3050 C   0  0  0  0  0  0  0  0  0  0  0  0
  161.2000  207.0610  148.9020 C   0  0  0  0  0  0  0  0  0  0  0  0
  161.2610  208.0540  148.1950 O   0  0  0  0  0  0  0  0  0  0  0  0
  161.3920  204.7610  150.6050 C   0  0  0  0  0  2  0  0  0  0  0  0
  162.2690  203.9600  147.4770 O   0  0  0  0  0  0  0  0  0  0  0  0
  161.4380  207.2210  150.3780 C   0  0  0  0  0  2  0  0  0  0  0  0
  160.8670  206.0590  151.1790 C   0  0  2  0  0  3  0  0  0  0  0  0
  160.8800  205.7230  148.2670 C   0  0  2  0  0  3  0  0  0  0  0  0
  160.6340  202.2480  148.0920 C   0  0  1  0  0  3  0  0  0  0  0  0
  161.1970  201.4520  146.9060 C   0  0  1  0  0  3  0  0  0  0  0  0
  161.3970  200.1100  147.2450 O   0  0  0  0  0  1  0  0  0  0  0  0
  160.5450  202.7760  144.9720 N   0  0  0  0  0  1  0  0  0  0  0  0
  160.2680  201.5550  145.7080 C   0  0  0  0  0  2  0  0  0  0  0  0
  160.9840  201.2260  150.1970 O   0  0  0  0  0  0  0  0  0  0  0  0
  160.2420  201.3630  149.2370 C   0  0  0  0  0  3  0  0  0  0  0  0
  161.2910  206.1730  152.6320 C   0  0  0  0  0  2  0  0  0  0  0  0
  161.2630  207.6240  153.0790 C   0  0  0  0  0  2  0  0  0  0  0  0
  160.9530  207.7010  154.5350 C   0  0  0  0  0  0  0  0  0  0  0  0
  160.4260  206.7110  155.1080 O   0  0  0  0  0  0  0  0  0  0  0  0
  161.2830  208.9080  155.3030 C   0  0  0  0  0  0  0  0  0  0  0  0
  160.9010  210.0390  154.9010 O   0  0  0  0  0  0  0  0  0  0  0  0
  162.0180  208.8110  156.4780 O   0  0  0  0  0  1  0  0  0  0  0  0
  1 12  1  6  0  0  0
  1  2  1  0  0  0  0
  2  7  1  1  0  0  0
  3  4  2  0  0  0  0
  4  8  1  0  0  0  0
  5  9  1  0  0  0  0
  6  5  2  0  0  0  0
  7 10  1  0  0  0  0
  8  1  1  0  0  0  0
  9 10  1  0  0  0  0
 10 19  1  1  0  0  0
 11  4  1  6  0  0  0
 11  5  1  0  0  0  0
 11  2  1  0  0  0  0
 12 18  1  1  0  0  0
 13 14  1  1  0  0  0
 13 12  1  0  0  0  0
 15 16  1  0  0  0  0
 16 13  1  0  0  0  0
 18 17  2  0  0  0  0
 19 20  1  0  0  0  0
 20 21  1  0  0  0  0
 21 22  2  0  0  0  0
 21 23  1  0  0  0  0
 23 25  1  0  0  0  0
 24 23  2  0  0  0  0
M  END
>  <MODEL>
1

>  <REMARK>
 VINA RESULT:      -7.8      0.000      0.000
  Name = 
  8 active torsions:
  status: ('A' for Active; 'I' for Inactive)
    1  A    between atoms: C_1  and  C_5
    2  A    between atoms: C_2  and  C_21
    3  A    between atoms: C_5  and  C_10
    4  A    between atoms: C_5  and  C_22
    5  A    between atoms: C_6  and  C_15
    6  A    between atoms: C_6  and  C_23
    7  A    between atoms: C_10  and  C_11
    8  A    between atoms: C_15  and  C_21
                            x       y       z     vdW  Elec       q    Type
                         _______ _______ _______ _____ _____    ______ ____

>  <TORSDO>
F 8

$$$$
=
 OpenBabel11052422193D

 25 26  0  0  1  0  0  0  0  0999 V2000
  162.1380  207.0540  150.3270 C   0  0  2  0  0  3  0  0  0  0  0  0
  161.0940  205.9670  150.0240 C   0  0  1  0  0  3  0  0  0  0  0  0
  162.0030  205.4990  153.4660 O   0  0  0  0  0  0  0  0  0  0  0  0
  161.8310  205.8390  152.2660 C   0  0  0  0  0  0  0  0  0  0  0  0
  160.7240  203.7800  151.3870 C   0  0  0  0  0  0  0  0  0  0  0  0
  160.4440  203.1990  152.4230 O   0  0  0  0  0  0  0  0  0  0  0  0
  161.6930  205.0200  148.9890 C   0  0  0  0  0  2  0  0  0  0  0  0
  162.5680  206.8320  151.6610 O   0  0  0  0  0  0  0  0  0  0  0  0
  160.9960  202.9570  150.1580 C   0  0  0  0  0  2  0  0  0  0  0  0
  160.8460  203.7700  148.8800 C   0  0  2  0  0  3  0  0  0  0  0  0
  160.7740  205.2950  151.3830 C   0  0  2  0  0  3  0  0  0  0  0  0
  161.5540  208.4610  150.1460 C   0  0  1  0  0  3  0  0  0  0  0  0
  161.8720  209.4040  151.3150 C   0  0  1  0  0  3  0  0  0  0  0  0
  162.1910  210.6870  150.8580 O   0  0  0  0  0  1  0  0  0  0  0  0
  160.2750  210.8480  152.4490 N   0  0  0  0  0  1  0  0  0  0  0  0
  160.7000  209.4690  152.2800 C   0  0  0  0  0  2  0  0  0  0  0  0
  162.7120  208.4350  148.0830 O   0  0  0  0  0  0  0  0  0  0  0  0
  161.9520  209.0420  148.8210 C   0  0  0  0  0  3  0  0  0  0  0  0
  161.3070  202.9530  147.6870 C   0  0  0  0  0  2  0  0  0  0  0  0
  161.9820  203.8480  146.6620 C   0  0  0  0  0  2  0  0  0  0  0  0
  161.1560  203.9120  145.4230 C   0  0  0  0  0  0  0  0  0  0  0  0
  160.6250  202.8590  144.9790 O   0  0  0  0  0  0  0  0  0  0  0  0
  160.9390  205.1920  144.7390 C   0  0  0  0  0  0  0  0  0  0  0  0
  161.5230  205.4360  143.6500 O   0  0  0  0  0  0  0  0  0  0  0  0
  160.0870  206.1430  145.2870 O   0  0  0  0  0  1  0  0  0  0  0  0
  1 12  1  1  0  0  0
  1  8  1  0  0  0  0
  2  7  1  6  0  0  0
  2  1  1  0  0  0  0
  2 11  1  0  0  0  0
  4  3  2  0  0  0  0
  5  6  2  0  0  0  0
  8  4  1  0  0  0  0
  9  5  1  0  0  0  0
 10 19  1  6  0  0  0
 10  7  1  0  0  0  0
 10  9  1  0  0  0  0
 11  5  1  6  0  0  0
 11  4  1  0  0  0  0
 12 18  1  6  0  0  0
 12 13  1  0  0  0  0
 13 14  1  6  0  0  0
 13 16  1  0  0  0  0
 16 15  1  0  0  0  0
 17 18  2  0  0  0  0
 20 19  1  0  0  0  0
 21 20  1  0  0  0  0
 22 21  2  0  0  0  0
 23 25  1  0  0  0  0
 23 21  1  0  0  0  0
 24 23  2  0  0  0  0
M  END
>  <MODEL>
2

>  <REMARK>
 VINA RESULT:      -7.8      3.195      7.845
  Name = 
  8 active torsions:
  status: ('A' for Active; 'I' for Inactive)
    1  A    between atoms: C_1  and  C_5
    2  A    between atoms: C_2  and  C_21
    3  A    between atoms: C_5  and  C_10
    4  A    between atoms: C_5  and  C_22
    5  A    between atoms: C_6  and  C_15
    6  A    between atoms: C_6  and  C_23
    7  A    between atoms: C_10  and  C_11
    8  A    between atoms: C_15  and  C_21
                            x       y       z     vdW  Elec       q    Type
                         _______ _______ _______ _____ _____    ______ ____

>  <TORSDO>
F 8

$$$$
=
 OpenBabel11052422193D

 25 26  0  0  1  0  0  0  0  0999 V2000
  162.0800  207.9200  150.7420 C   0  0  2  0  0  3  0  0  0  0  0  0
  161.1550  207.0710  149.8540 C   0  0  1  0  0  3  0  0  0  0  0  0
  161.7040  205.1220  152.8190 O   0  0  0  0  0  0  0  0  0  0  0  0
  161.6440  205.9610  151.8830 C   0  0  0  0  0  0  0  0  0  0  0  0
  160.7890  204.5010  150.0470 C   0  0  0  0  0  0  0  0  0  0  0  0
  160.4360  203.5130  150.6720 O   0  0  0  0  0  0  0  0  0  0  0  0
  161.9310  206.6950  148.5950 C   0  0  0  0  0  2  0  0  0  0  0  0
  162.3730  207.1290  151.8830 O   0  0  0  0  0  0  0  0  0  0  0  0
  161.2530  204.3190  148.6280 C   0  0  0  0  0  2  0  0  0  0  0  0
  161.1900  205.6160  147.8340 C   0  0  2  0  0  3  0  0  0  0  0  0
  160.7330  205.8570  150.7210 C   0  0  2  0  0  3  0  0  0  0  0  0
  161.4230  209.2520  151.1270 C   0  0  1  0  0  3  0  0  0  0  0  0
  161.3910  209.4950  152.6420 C   0  0  1  0  0  3  0  0  0  0  0  0
  162.4990  210.2410  153.0590 O   0  0  0  0  0  1  0  0  0  0  0  0
  160.3480  211.6260  153.1800 N   0  0  0  0  0  1  0  0  0  0  0  0
  160.1060  210.2010  153.0410 C   0  0  0  0  0  2  0  0  0  0  0  0
  162.1220  210.3670  149.1610 O   0  0  0  0  0  0  0  0  0  0  0  0
  162.0450  210.3940  150.3790 C   0  0  0  0  0  3  0  0  0  0  0  0
  161.8380  205.4250  146.4750 C   0  0  0  0  0  2  0  0  0  0  0  0
  162.1210  203.9540  146.2260 C   0  0  0  0  0  2  0  0  0  0  0  0
  161.0390  203.3640  145.3870 C   0  0  0  0  0  0  0  0  0  0  0  0
  160.5150  204.0590  144.4760 O   0  0  0  0  0  0  0  0  0  0  0  0
  160.6060  201.9780  145.5990 C   0  0  0  0  0  0  0  0  0  0  0  0
  159.8820  201.4020  144.7420 O   0  0  0  0  0  0  0  0  0  0  0  0
  160.9890  201.2910  146.7440 O   0  0  0  0  0  1  0  0  0  0  0  0
  1 12  1  1  0  0  0
  1  8  1  0  0  0  0
  2  7  1  6  0  0  0
  2 11  1  0  0  0  0
  2  1  1  0  0  0  0
  4  3  2  0  0  0  0
  5  6  2  0  0  0  0
  8  4  1  0  0  0  0
  9  5  1  0  0  0  0
 10 19  1  6  0  0  0
 10  7  1  0  0  0  0
 10  9  1  0  0  0  0
 11  5  1  6  0  0  0
 11  4  1  0  0  0  0
 12 18  1  6  0  0  0
 12 13  1  0  0  0  0
 13 16  1  0  0  0  0
 13 14  1  6  0  0  0
 16 15  1  0  0  0  0
 17 18  2  0  0  0  0
 20 19  1  0  0  0  0
 21 23  1  0  0  0  0
 21 20  1  0  0  0  0
 22 21  2  0  0  0  0
 23 25  1  0  0  0  0
 24 23  2  0  0  0  0
M  END
>  <MODEL>
3

>  <REMARK>
 VINA RESULT:      -7.4      3.170      8.333
  Name = 
  8 active torsions:
  status: ('A' for Active; 'I' for Inactive)
    1  A    between atoms: C_1  and  C_5
    2  A    between atoms: C_2  and  C_21
    3  A    between atoms: C_5  and  C_10
    4  A    between atoms: C_5  and  C_22
    5  A    between atoms: C_6  and  C_15
    6  A    between atoms: C_6  and  C_23
    7  A    between atoms: C_10  and  C_11
    8  A    between atoms: C_15  and  C_21
                            x       y       z     vdW  Elec       q    Type
                         _______ _______ _______ _____ _____    ______ ____

>  <TORSDO>
F 8

$$$$
=
 OpenBabel11052422193D

 25 26  0  0  1  0  0  0  0  0999 V2000
  161.6590  206.5660  151.9400 C   0  0  2  0  0  3  0  0  0  0  0  0
  160.9560  206.1500  150.6370 C   0  0  1  0  0  3  0  0  0  0  0  0
  161.0870  203.1820  152.6530 O   0  0  0  0  0  0  0  0  0  0  0  0
  161.1440  204.3230  152.1250 C   0  0  0  0  0  0  0  0  0  0  0  0
  160.7130  203.7180  149.7410 C   0  0  0  0  0  0  0  0  0  0  0  0
  160.3140  202.5700  149.8540 O   0  0  0  0  0  0  0  0  0  0  0  0
  161.9620  206.2880  149.4990 C   0  0  0  0  0  2  0  0  0  0  0  0
  161.7920  205.3850  152.7150 O   0  0  0  0  0  0  0  0  0  0  0  0
  161.4300  204.1020  148.4760 C   0  0  0  0  0  2  0  0  0  0  0  0
  161.4320  205.6080  148.2540 C   0  0  2  0  0  3  0  0  0  0  0  0
  160.4600  204.7000  150.8670 C   0  0  2  0  0  3  0  0  0  0  0  0
  160.8680  207.6480  152.6850 C   0  0  1  0  0  3  0  0  0  0  0  0
  161.2330  207.7500  154.1720 C   0  0  1  0  0  3  0  0  0  0  0  0
  161.3350  209.0850  154.5790 O   0  0  0  0  0  1  0  0  0  0  0  0
  160.0830  207.6750  156.3150 N   0  0  0  0  0  1  0  0  0  0  0  0
  160.2090  207.0200  155.0240 C   0  0  0  0  0  2  0  0  0  0  0  0
  162.0080  209.3000  151.4340 O   0  0  0  0  0  0  0  0  0  0  0  0
  160.9690  208.9690  151.9810 C   0  0  0  0  0  3  0  0  0  0  0  0
  162.3190  205.9580  147.0740 C   0  0  0  0  0  2  0  0  0  0  0  0
  162.6790  204.7060  146.2930 C   0  0  0  0  0  2  0  0  0  0  0  0
  161.6000  204.3890  145.3160 C   0  0  0  0  0  0  0  0  0  0  0  0
  161.2130  203.1970  145.1860 O   0  0  0  0  0  0  0  0  0  0  0  0
  160.9700  205.4570  144.5300 C   0  0  0  0  0  0  0  0  0  0  0  0
  159.9860  206.0910  144.9960 O   0  0  0  0  0  1  0  0  0  0  0  0
  161.4540  205.7760  143.2670 O   0  0  0  0  0  0  0  0  0  0  0  0
  1 12  1  1  0  0  0
  1  8  1  0  0  0  0
  2  7  1  6  0  0  0
  2 11  1  0  0  0  0
  2  1  1  0  0  0  0
  4  3  2  0  0  0  0
  4  8  1  0  0  0  0
  5  6  2  0  0  0  0
  9  5  1  0  0  0  0
 10 19  1  6  0  0  0
 10  9  1  0  0  0  0
 10  7  1  0  0  0  0
 11  5  1  6  0  0  0
 11  4  1  0  0  0  0
 12 18  1  6  0  0  0
 12 13  1  0  0  0  0
 13 14  1  1  0  0  0
 13 16  1  0  0  0  0
 16 15  1  0  0  0  0
 17 18  2  0  0  0  0
 20 19  1  0  0  0  0
 21 20  1  0  0  0  0
 22 21  2  0  0  0  0
 23 24  1  0  0  0  0
 23 21  1  0  0  0  0
 25 23  2  0  0  0  0
M  END
>  <MODEL>
4

>  <REMARK>
 VINA RESULT:      -7.4      3.154      8.033
  Name = 
  8 active torsions:
  status: ('A' for Active; 'I' for Inactive)
    1  A    between atoms: C_1  and  C_5
    2  A    between atoms: C_2  and  C_21
    3  A    between atoms: C_5  and  C_10
    4  A    between atoms: C_5  and  C_22
    5  A    between atoms: C_6  and  C_15
    6  A    between atoms: C_6  and  C_23
    7  A    between atoms: C_10  and  C_11
    8  A    between atoms: C_15  and  C_21
                            x       y       z     vdW  Elec       q    Type
                         _______ _______ _______ _____ _____    ______ ____

>  <TORSDO>
F 8

$$$$
=
 OpenBabel11052422193D

 25 26  0  0  1  0  0  0  0  0999 V2000
  162.2410  206.7050  151.5070 C   0  0  2  0  0  3  0  0  0  0  0  0
  161.2040  206.3440  150.4320 C   0  0  1  0  0  3  0  0  0  0  0  0
  161.8410  203.2960  152.2200 O   0  0  0  0  0  0  0  0  0  0  0  0
  161.7660  204.4580  151.7410 C   0  0  0  0  0  0  0  0  0  0  0  0
  160.6910  203.9510  149.5440 C   0  0  0  0  0  0  0  0  0  0  0  0
  160.3230  202.8000  149.7180 O   0  0  0  0  0  0  0  0  0  0  0  0
  161.8620  206.5260  149.0680 C   0  0  0  0  0  2  0  0  0  0  0  0
  162.5650  205.4930  152.1710 O   0  0  0  0  0  0  0  0  0  0  0  0
  161.0410  204.3840  148.1470 C   0  0  0  0  0  2  0  0  0  0  0  0
  161.0020  205.8980  147.9910 C   0  0  2  0  0  3  0  0  0  0  0  0
  160.7690  204.8870  150.7330 C   0  0  2  0  0  3  0  0  0  0  0  0
  161.6980  207.7580  152.4820 C   0  0  1  0  0  3  0  0  0  0  0  0
  161.0420  208.9540  151.7770 C   0  0  1  0  0  3  0  0  0  0  0  0
  160.1410  209.6090  152.6230 O   0  0  0  0  0  1  0  0  0  0  0  0
  162.0790  209.9880  149.8340 N   0  0  0  0  0  1  0  0  0  0  0  0
  162.0990  209.9280  151.2850 C   0  0  0  0  0  2  0  0  0  0  0  0
  161.0720  207.1860  154.6900 O   0  0  0  0  0  0  0  0  0  0  0  0
  160.7950  207.1320  153.5020 C   0  0  0  0  0  3  0  0  0  0  0  0
  161.5370  206.2930  146.6270 C   0  0  0  0  0  2  0  0  0  0  0  0
  160.4450  206.1810  145.5770 C   0  0  0  0  0  2  0  0  0  0  0  0
  160.8350  205.1800  144.5450 C   0  0  0  0  0  0  0  0  0  0  0  0
  161.5720  205.5350  143.5870 O   0  0  0  0  0  0  0  0  0  0  0  0
  160.3890  203.7850  144.6540 C   0  0  0  0  0  0  0  0  0  0  0  0
  159.2820  203.4340  144.1650 O   0  0  0  0  0  0  0  0  0  0  0  0
  161.1830  202.8440  145.2960 O   0  0  0  0  0  1  0  0  0  0  0  0
  1  8  1  0  0  0  0
  1 12  1  1  0  0  0
  2  7  1  6  0  0  0
  2 11  1  0  0  0  0
  2  1  1  0  0  0  0
  4  8  1  0  0  0  0
  4  3  2  0  0  0  0
  5  6  2  0  0  0  0
  9  5  1  0  0  0  0
 10 19  1  6  0  0  0
 10  9  1  0  0  0  0
 10  7  1  0  0  0  0
 11  5  1  6  0  0  0
 11  4  1  0  0  0  0
 12 18  1  1  0  0  0
 13 12  1  0  0  0  0
 13 14  1  1  0  0  0
 15 16  1  0  0  0  0
 16 13  1  0  0  0  0
 18 17  2  0  0  0  0
 20 19  1  0  0  0  0
 21 23  1  0  0  0  0
 21 20  1  0  0  0  0
 22 21  2  0  0  0  0
 23 25  1  0  0  0  0
 24 23  2  0  0  0  0
M  END
>  <MODEL>
5

>  <REMARK>
 VINA RESULT:      -7.1      2.764      7.824
  Name = 
  8 active torsions:
  status: ('A' for Active; 'I' for Inactive)
    1  A    between atoms: C_1  and  C_5
    2  A    between atoms: C_2  and  C_21
    3  A    between atoms: C_5  and  C_10
    4  A    between atoms: C_5  and  C_22
    5  A    between atoms: C_6  and  C_15
    6  A    between atoms: C_6  and  C_23
    7  A    between atoms: C_10  and  C_11
    8  A    between atoms: C_15  and  C_21
                            x       y       z     vdW  Elec       q    Type
                         _______ _______ _______ _____ _____    ______ ____

>  <TORSDO>
F 8

$$$$
=
 OpenBabel11052422193D

 25 26  0  0  1  0  0  0  0  0999 V2000
  161.8150  205.5310  150.0950 C   0  0  2  0  0  3  0  0  0  0  0  0
  160.8500  204.5900  149.3570 C   0  0  1  0  0  3  0  0  0  0  0  0
  161.2690  203.1720  152.6290 O   0  0  0  0  0  0  0  0  0  0  0  0
  161.2620  203.8340  151.5590 C   0  0  0  0  0  0  0  0  0  0  0  0
  160.3390  202.1180  149.9960 C   0  0  0  0  0  0  0  0  0  0  0  0
  159.9270  201.2780  150.7800 O   0  0  0  0  0  0  0  0  0  0  0  0
  161.6120  203.9540  148.1980 C   0  0  0  0  0  2  0  0  0  0  0  0
  162.0550  204.9420  151.3630 O   0  0  0  0  0  0  0  0  0  0  0  0
  160.8020  201.6620  148.6400 C   0  0  0  0  0  2  0  0  0  0  0  0
  160.8170  202.7980  147.6280 C   0  0  2  0  0  3  0  0  0  0  0  0
  160.3540  203.5740  150.4170 C   0  0  2  0  0  3  0  0  0  0  0  0
  161.2310  206.9440  150.2270 C   0  0  1  0  0  3  0  0  0  0  0  0
  161.8620  207.7560  151.3660 C   0  0  1  0  0  3  0  0  0  0  0  0
  162.4060  208.9550  150.8940 O   0  0  0  0  0  1  0  0  0  0  0  0
  160.4660  209.4440  152.4250 N   0  0  0  0  0  1  0  0  0  0  0  0
  160.8350  208.0390  152.4500 C   0  0  0  0  0  2  0  0  0  0  0  0
  162.2060  207.4900  148.1420 O   0  0  0  0  0  0  0  0  0  0  0  0
  161.2800  207.6710  148.9150 C   0  0  0  0  0  3  0  0  0  0  0  0
  161.4620  202.3340  146.3350 C   0  0  0  0  0  2  0  0  0  0  0  0
  160.9160  203.1230  145.1580 C   0  0  0  0  0  2  0  0  0  0  0  0
  161.7300  204.3530  144.9490 C   0  0  0  0  0  0  0  0  0  0  0  0
  162.9560  204.3390  145.2370 O   0  0  0  0  0  0  0  0  0  0  0  0
  161.1190  205.5630  144.3850 C   0  0  0  0  0  0  0  0  0  0  0  0
  161.3910  205.9210  143.2080 O   0  0  0  0  0  0  0  0  0  0  0  0
  160.2390  206.3230  145.1450 O   0  0  0  0  0  1  0  0  0  0  0  0
  1 12  1  1  0  0  0
  1  8  1  0  0  0  0
  2  7  1  6  0  0  0
  2  1  1  0  0  0  0
  2 11  1  0  0  0  0
  4  3  2  0  0  0  0
  5  6  2  0  0  0  0
  8  4  1  0  0  0  0
  9  5  1  0  0  0  0
 10 19  1  6  0  0  0
 10  7  1  0  0  0  0
 10  9  1  0  0  0  0
 11  5  1  6  0  0  0
 11  4  1  0  0  0  0
 12 18  1  6  0  0  0
 12 13  1  0  0  0  0
 13 14  1  6  0  0  0
 13 16  1  0  0  0  0
 15 16  1  0  0  0  0
 17 18  2  0  0  0  0
 20 19  1  0  0  0  0
 21 20  1  0  0  0  0
 21 22  2  0  0  0  0
 23 21  1  0  0  0  0
 23 25  1  0  0  0  0
 24 23  2  0  0  0  0
M  END
>  <MODEL>
6

>  <REMARK>
 VINA RESULT:      -7.0      3.039      7.675
  Name = 
  8 active torsions:
  status: ('A' for Active; 'I' for Inactive)
    1  A    between atoms: C_1  and  C_5
    2  A    between atoms: C_2  and  C_21
    3  A    between atoms: C_5  and  C_10
    4  A    between atoms: C_5  and  C_22
    5  A    between atoms: C_6  and  C_15
    6  A    between atoms: C_6  and  C_23
    7  A    between atoms: C_10  and  C_11
    8  A    between atoms: C_15  and  C_21
                            x       y       z     vdW  Elec       q    Type
                         _______ _______ _______ _____ _____    ______ ____

>  <TORSDO>
F 8

$$$$
=
 OpenBabel11052422193D

 25 26  0  0  1  0  0  0  0  0999 V2000
  160.6340  208.4250  152.6710 C   0  0  2  0  0  3  0  0  0  0  0  0
  161.7450  208.4180  151.6090 C   0  0  1  0  0  3  0  0  0  0  0  0
  160.5570  211.8040  151.7410 O   0  0  0  0  0  0  0  0  0  0  0  0
  160.8200  210.5790  151.8610 C   0  0  0  0  0  0  0  0  0  0  0  0
  162.0860  210.1990  149.7420 C   0  0  0  0  0  0  0  0  0  0  0  0
  162.2980  211.3470  149.3820 O   0  0  0  0  0  0  0  0  0  0  0  0
  161.2800  207.5400  150.4510 C   0  0  0  0  0  2  0  0  0  0  0  0
  160.0970  209.7380  152.6780 O   0  0  0  0  0  0  0  0  0  0  0  0
  161.9590  209.1340  148.6890 C   0  0  0  0  0  2  0  0  0  0  0  0
  162.1870  207.7390  149.2550 C   0  0  2  0  0  3  0  0  0  0  0  0
  161.9730  209.9020  151.2230 C   0  0  2  0  0  3  0  0  0  0  0  0
  161.1710  208.0230  154.0510 C   0  0  1  0  0  3  0  0  0  0  0  0
  160.6920  208.9470  155.1790 C   0  0  1  0  0  3  0  0  0  0  0  0
  160.1200  208.2150  156.2240 O   0  0  0  0  0  1  0  0  0  0  0  0
  161.5080  211.2000  155.5980 N   0  0  0  0  0  1  0  0  0  0  0  0
  161.8430  209.7910  155.7010 C   0  0  0  0  0  2  0  0  0  0  0  0
  161.2780  205.7090  153.5750 O   0  0  0  0  0  0  0  0  0  0  0  0
  160.8890  206.5780  154.3380 C   0  0  0  0  0  3  0  0  0  0  0  0
  161.8670  206.6930  148.2030 C   0  0  0  0  0  2  0  0  0  0  0  0
  160.7630  205.7720  148.6920 C   0  0  0  0  0  2  0  0  0  0  0  0
  161.1960  204.3510  148.5730 C   0  0  0  0  0  0  0  0  0  0  0  0
  161.9330  204.0080  147.6100 O   0  0  0  0  0  0  0  0  0  0  0  0
  160.7950  203.3630  149.5820 C   0  0  0  0  0  0  0  0  0  0  0  0
  160.4350  202.2080  149.2290 O   0  0  0  0  0  0  0  0  0  0  0  0
  160.8090  203.6940  150.9310 O   0  0  0  0  0  1  0  0  0  0  0  0
  1  8  1  0  0  0  0
  1 12  1  1  0  0  0
  2  7  1  6  0  0  0
  2  1  1  0  0  0  0
  3  4  2  0  0  0  0
  4  8  1  0  0  0  0
  6  5  2  0  0  0  0
  9 10  1  0  0  0  0
  9  5  1  0  0  0  0
 10 19  1  6  0  0  0
 10  7  1  0  0  0  0
 11  5  1  6  0  0  0
 11  2  1  0  0  0  0
 11  4  1  0  0  0  0
 12 18  1  1  0  0  0
 12 13  1  0  0  0  0
 13 16  1  0  0  0  0
 13 14  1  1  0  0  0
 15 16  1  0  0  0  0
 17 18  2  0  0  0  0
 19 20  1  0  0  0  0
 21 20  1  0  0  0  0
 21 23  1  0  0  0  0
 22 21  2  0  0  0  0
 23 25  1  0  0  0  0
 24 23  2  0  0  0  0
M  END
>  <MODEL>
7

>  <REMARK>
 VINA RESULT:      -6.9      3.357      7.681
  Name = 
  8 active torsions:
  status: ('A' for Active; 'I' for Inactive)
    1  A    between atoms: C_1  and  C_5
    2  A    between atoms: C_2  and  C_21
    3  A    between atoms: C_5  and  C_10
    4  A    between atoms: C_5  and  C_22
    5  A    between atoms: C_6  and  C_15
    6  A    between atoms: C_6  and  C_23
    7  A    between atoms: C_10  and  C_11
    8  A    between atoms: C_15  and  C_21
                            x       y       z     vdW  Elec       q    Type
                         _______ _______ _______ _____ _____    ______ ____

>  <TORSDO>
F 8

$$$$
=
 OpenBabel11052422193D

 25 26  0  0  1  0  0  0  0  0999 V2000
  162.3470  206.1630  147.8420 C   0  0  2  0  0  3  0  0  0  0  0  0
  161.2080  205.9080  148.8420 C   0  0  1  0  0  3  0  0  0  0  0  0
  162.3350  209.2540  149.4950 O   0  0  0  0  0  0  0  0  0  0  0  0
  162.0990  208.0820  149.1010 C   0  0  0  0  0  0  0  0  0  0  0  0
  160.7830  207.2290  151.0450 C   0  0  0  0  0  0  0  0  0  0  0  0
  160.5400  208.2670  151.6420 O   0  0  0  0  0  0  0  0  0  0  0  0
  161.6570  204.8020  149.7920 C   0  0  0  0  0  2  0  0  0  0  0  0
  162.8590  207.4520  148.1410 O   0  0  0  0  0  0  0  0  0  0  0  0
  160.9020  205.9600  151.8410 C   0  0  0  0  0  2  0  0  0  0  0  0
  160.7160  204.7220  150.9750 C   0  0  2  0  0  3  0  0  0  0  0  0
  160.9420  207.2680  149.5380 C   0  0  2  0  0  3  0  0  0  0  0  0
  161.8540  206.0690  146.3920 C   0  0  1  0  0  3  0  0  0  0  0  0
  162.3390  204.8060  145.6680 C   0  0  1  0  0  3  0  0  0  0  0  0
  163.7190  204.6320  145.8200 O   0  0  0  0  0  1  0  0  0  0  0  0
  160.8620  202.9600  145.0940 N   0  0  0  0  0  1  0  0  0  0  0  0
  161.5990  203.5810  146.1800 C   0  0  0  0  0  2  0  0  0  0  0  0
  159.7980  206.2570  145.2380 O   0  0  0  0  0  0  0  0  0  0  0  0
  160.3650  206.2320  146.3190 C   0  0  0  0  0  3  0  0  0  0  0  0
  161.0260  203.4730  151.7800 C   0  0  0  0  0  2  0  0  0  0  0  0
  161.7390  202.4490  150.9140 C   0  0  0  0  0  2  0  0  0  0  0  0
  160.7510  201.4950  150.3370 C   0  0  0  0  0  0  0  0  0  0  0  0
  159.9400  200.9070  151.1020 O   0  0  0  0  0  0  0  0  0  0  0  0
  160.6980  201.2620  148.8890 C   0  0  0  0  0  0  0  0  0  0  0  0
  159.7790  201.7750  148.1970 O   0  0  0  0  0  0  0  0  0  0  0  0
  161.6610  200.4740  148.2710 O   0  0  0  0  0  1  0  0  0  0  0  0
  1 12  1  6  0  0  0
  1  8  1  0  0  0  0
  1  2  1  0  0  0  0
  2 11  1  0  0  0  0
  2  7  1  1  0  0  0
  4  3  2  0  0  0  0
  5  6  2  0  0  0  0
  5  9  1  0  0  0  0
  7 10  1  0  0  0  0
  8  4  1  0  0  0  0
 10 19  1  1  0  0  0
 10  9  1  0  0  0  0
 11  4  1  1  0  0  0
 11  5  1  0  0  0  0
 12 18  1  1  0  0  0
 13 14  1  1  0  0  0
 13 16  1  0  0  0  0
 13 12  1  0  0  0  0
 15 16  1  0  0  0  0
 17 18  2  0  0  0  0
 20 19  1  0  0  0  0
 21 20  1  0  0  0  0
 21 22  2  0  0  0  0
 23 21  1  0  0  0  0
 24 23  2  0  0  0  0
 25 23  1  0  0  0  0
M  END
>  <MODEL>
8

>  <REMARK>
 VINA RESULT:      -6.8      2.257      5.410
  Name = 
  8 active torsions:
  status: ('A' for Active; 'I' for Inactive)
    1  A    between atoms: C_1  and  C_5
    2  A    between atoms: C_2  and  C_21
    3  A    between atoms: C_5  and  C_10
    4  A    between atoms: C_5  and  C_22
    5  A    between atoms: C_6  and  C_15
    6  A    between atoms: C_6  and  C_23
    7  A    between atoms: C_10  and  C_11
    8  A    between atoms: C_15  and  C_21
                            x       y       z     vdW  Elec       q    Type
                         _______ _______ _______ _____ _____    ______ ____

>  <TORSDO>
F 8

$$$$
=
 OpenBabel11052422193D

 25 26  0  0  1  0  0  0  0  0999 V2000
  160.8870  208.2760  152.7550 C   0  0  2  0  0  3  0  0  0  0  0  0
  161.7210  207.3210  151.8860 C   0  0  1  0  0  3  0  0  0  0  0  0
  161.6930  210.4510  150.1280 O   0  0  0  0  0  0  0  0  0  0  0  0
  161.5780  209.4650  150.9010 C   0  0  0  0  0  0  0  0  0  0  0  0
  162.2430  207.6210  149.3540 C   0  0  0  0  0  0  0  0  0  0  0  0
  162.7300  208.2510  148.4280 O   0  0  0  0  0  0  0  0  0  0  0  0
  160.7980  206.2120  151.3910 C   0  0  0  0  0  2  0  0  0  0  0  0
  160.7970  209.4950  152.0350 O   0  0  0  0  0  0  0  0  0  0  0  0
  161.5950  206.2980  149.0530 C   0  0  0  0  0  2  0  0  0  0  0  0
  161.4800  205.4230  150.2940 C   0  0  2  0  0  3  0  0  0  0  0  0
  162.3220  208.1930  150.7550 C   0  0  2  0  0  3  0  0  0  0  0  0
  161.5210  208.4780  154.1380 C   0  0  1  0  0  3  0  0  0  0  0  0
  161.1760  209.8340  154.7690 C   0  0  1  0  0  3  0  0  0  0  0  0
  159.7930  209.9950  154.9010 O   0  0  0  0  0  1  0  0  0  0  0  0
  163.0970  210.7080  155.9800 N   0  0  0  0  0  1  0  0  0  0  0  0
  161.8500  209.9770  156.1240 C   0  0  0  0  0  2  0  0  0  0  0  0
  160.0630  206.9130  155.1460 O   0  0  0  0  0  0  0  0  0  0  0  0
  161.2060  207.3280  155.0480 C   0  0  0  0  0  3  0  0  0  0  0  0
  160.6590  204.1850  149.9810 C   0  0  0  0  0  2  0  0  0  0  0  0
  161.2510  203.4430  148.7950 C   0  0  0  0  0  2  0  0  0  0  0  0
  160.5720  202.1280  148.6280 C   0  0  0  0  0  0  0  0  0  0  0  0
  159.7390  201.7480  149.4940 O   0  0  0  0  0  0  0  0  0  0  0  0
  160.8470  201.2910  147.4540 C   0  0  0  0  0  0  0  0  0  0  0  0
  161.4680  200.2030  147.5820 O   0  0  0  0  0  1  0  0  0  0  0  0
  160.4250  201.6940  146.1930 O   0  0  0  0  0  0  0  0  0  0  0  0
  1 12  1  1  0  0  0
  2  7  1  6  0  0  0
  2  1  1  0  0  0  0
  3  4  2  0  0  0  0
  4  8  1  0  0  0  0
  6  5  2  0  0  0  0
  8  1  1  0  0  0  0
  9  5  1  0  0  0  0
  9 10  1  0  0  0  0
 10 19  1  6  0  0  0
 10  7  1  0  0  0  0
 11  5  1  6  0  0  0
 11  4  1  0  0  0  0
 11  2  1  0  0  0  0
 12 13  1  0  0  0  0
 12 18  1  1  0  0  0
 13 14  1  1  0  0  0
 13 16  1  0  0  0  0
 15 16  1  0  0  0  0
 18 17  2  0  0  0  0
 20 19  1  0  0  0  0
 21 20  1  0  0  0  0
 21 22  2  0  0  0  0
 23 24  1  0  0  0  0
 23 21  1  0  0  0  0
 25 23  2  0  0  0  0
M  END
>  <MODEL>
9

>  <REMARK>
 VINA RESULT:      -6.7      3.126      8.171
  Name = 
  8 active torsions:
  status: ('A' for Active; 'I' for Inactive)
    1  A    between atoms: C_1  and  C_5
    2  A    between atoms: C_2  and  C_21
    3  A    between atoms: C_5  and  C_10
    4  A    between atoms: C_5  and  C_22
    5  A    between atoms: C_6  and  C_15
    6  A    between atoms: C_6  and  C_23
    7  A    between atoms: C_10  and  C_11
    8  A    between atoms: C_15  and  C_21
                            x       y       z     vdW  Elec       q    Type
                         _______ _______ _______ _____ _____    ______ ____

>  <TORSDO>
F 8

$$$$
