=
 OpenBabel11062409033D

 37 41  0  0  1  0  0  0  0  0999 V2000
  161.4540  211.7290  149.5810 C   0  0  2  0  0  3  0  0  0  0  0  0
  161.0960  210.2730  149.9660 C   0  0  2  0  0  3  0  0  0  0  0  0
  160.8830  210.0990  151.4810 C   0  0  2  0  0  3  0  0  0  0  0  0
  160.2380  212.5090  151.6850 C   0  0  0  0  0  2  0  0  0  0  0  0
  160.9660  214.1650  150.0330 C   0  0  0  0  0  1  0  0  0  0  0  0
  160.4610  212.7430  150.1940 C   0  0  1  0  0  3  0  0  0  0  0  0
  159.8080  211.0730  151.9550 C   0  0  0  0  0  2  0  0  0  0  0  0
  160.6710  209.6190  154.4060 C   0  0  0  0  0  3  0  0  0  0  0  0
  161.9940  210.0210  153.7730 C   0  0  2  0  0  0  0  0  0  0  0  0
  162.6060  208.9480  152.9050 C   0  0  0  0  0  2  0  0  0  0  0  0
  162.9550  210.6500  154.7440 C   0  0  0  0  0  2  0  0  0  0  0  0
  163.8360  211.7900  157.2590 C   0  0  0  0  0  1  0  0  0  0  0  0
  162.5450  211.1700  157.1090 N   0  0  0  0  0  0  0  0  0  0  0  0
  162.1470  210.6550  155.9980 C   0  0  0  0  0  0  0  0  0  0  0  0
  162.1810  210.2750  152.2840 C   0  0  1  0  0  3  0  0  0  0  0  0
  160.7890  210.0460  155.8650 C   0  0  0  0  0  3  0  0  0  0  0  0
  162.1650  207.0380  147.9630 C   0  0  2  0  0  3  0  0  0  0  0  0
  162.0930  205.7420  148.5640 O   0  0  0  0  0  0  0  0  0  0  0  0
  160.7890  205.4800  149.0680 C   0  0  0  0  0  2  0  0  0  0  0  0
  160.6350  205.8760  150.5640 C   0  0  2  0  0  3  0  0  0  0  0  0
  160.7860  207.3860  150.8810 C   0  0  0  0  0  2  0  0  0  0  0  0
  162.1180  209.2610  149.4330 C   0  0  1  0  0  3  0  0  0  0  0  0
  162.0070  207.9240  150.1570 C   0  0  2  0  0  3  0  0  0  0  0  0
  161.4220  208.1010  148.7670 C   0  0  2  0  0  3  0  0  0  0  0  0
  161.4200  204.9710  151.5160 C   0  0  0  0  0  2  0  0  0  0  0  0
  161.2750  205.3750  152.9740 C   0  0  0  0  0  1  0  0  0  0  0  0
  161.9600  205.6750  145.8880 C   0  0  0  0  0  1  0  0  0  0  0  0
  161.6430  207.0090  146.5360 C   0  0  0  0  0  2  0  0  0  0  0  0
  161.5530  211.8500  148.0460 C   0  0  2  0  0  3  0  0  0  0  0  0
  162.6440  212.7820  147.5130 C   0  0  2  0  0  3  0  0  0  0  0  0
  162.6040  212.8770  146.1210 O   0  0  0  0  0  1  0  0  0  0  0  0
  164.0110  212.2920  147.9490 C   0  0  0  0  0  1  0  0  0  0  0  0
  160.2520  211.7380  147.2400 C   0  0  0  0  0  2  0  0  0  0  0  0
  159.5640  213.0770  147.0320 C   0  0  0  0  0  2  0  0  0  0  0  0
  158.0610  212.8850  146.9270 C   0  0  0  0  0  2  0  0  0  0  0  0
  157.4260  213.0900  148.2300 C   0  0  0  0  0  0  0  0  0  0  0  0
  156.9050  213.2570  149.3050 C   0  0  0  0  0  3  0  0  0  0  0  0
  1 29  1  6  0  0  0
  1  2  1  0  0  0  0
  1  6  1  0  0  0  0
  2 22  1  1  0  0  0
  2  3  1  0  0  0  0
  3  7  1  1  0  0  0
  3 15  1  0  0  0  0
  4  7  1  0  0  0  0
  6  5  1  1  0  0  0
  6  4  1  0  0  0  0
  8 16  2  0  0  0  0
  9 10  1  1  0  0  0
  9  8  1  0  0  0  0
  9 11  1  0  0  0  0
 11 14  1  0  0  0  0
 13 12  1  0  0  0  0
 14 13  2  0  0  0  0
 15 10  1  6  0  0  0
 15  9  1  0  0  0  0
 16 14  1  0  0  0  0
 17 28  1  6  0  0  0
 17 18  1  0  0  0  0
 17 24  1  0  0  0  0
 18 19  1  0  0  0  0
 19 20  1  0  0  0  0
 20 21  1  0  0  0  0
 20 25  1  1  0  0  0
 22 23  1  0  0  0  0
 23 21  1  0  0  0  0
 24 22  1  0  0  0  0
 24 23  1  0  0  0  0
 25 26  1  0  0  0  0
 27 28  1  0  0  0  0
 30 32  1  0  0  0  0
 30 29  1  0  0  0  0
 31 30  1  0  0  0  0
 33 29  1  0  0  0  0
 34 33  1  0  0  0  0
 35 34  1  0  0  0  0
 35 36  1  0  0  0  0
 36 37  3  0  0  0  0
M  END
>  <MODEL>
1

>  <REMARK>
 VINA RESULT:      -3.3      0.000      0.000
  Name = 
  10 active torsions:
  status: ('A' for Active; 'I' for Inactive)
    1  A    between atoms: C_1  and  C_23
    2  A    between atoms: C_3  and  C_30
    3  A    between atoms: C_4  and  C_13
    4  A    between atoms: C_9  and  C_13
    5  A    between atoms: C_9  and  C_16
    6  A    between atoms: C_10  and  C_29
    7  A    between atoms: C_11  and  C_26
    8  A    between atoms: C_13  and  C_20
    9  A    between atoms: C_14  and  C_31
   10  A    between atoms: C_16  and  C_30
                            x       y       z     vdW  Elec       q    Type
                         _______ _______ _______ _____ _____    ______ ____

>  <TORSDO>
F 10

$$$$
=
 OpenBabel11062409033D

 37 41  0  0  1  0  0  0  0  0999 V2000
  160.6520  211.4100  150.7120 C   0  0  2  0  0  3  0  0  0  0  0  0
  161.1290  210.8860  152.0880 C   0  0  2  0  0  3  0  0  0  0  0  0
  161.7330  209.4720  152.0040 C   0  0  2  0  0  3  0  0  0  0  0  0
  162.3550  209.8610  149.6110 C   0  0  0  0  0  2  0  0  0  0  0  0
  161.1850  211.5270  148.2470 C   0  0  0  0  0  1  0  0  0  0  0  0
  161.7470  211.2600  149.6310 C   0  0  1  0  0  3  0  0  0  0  0  0
  162.8720  209.4690  150.9890 C   0  0  0  0  0  2  0  0  0  0  0  0
  162.6350  206.6510  152.2480 C   0  0  0  0  0  3  0  0  0  0  0  0
  161.2200  206.9850  151.8020 C   0  0  2  0  0  0  0  0  0  0  0  0
  160.3570  207.5660  152.8950 C   0  0  0  0  0  2  0  0  0  0  0  0
  160.5640  205.8800  151.0210 C   0  0  0  0  0  2  0  0  0  0  0  0
  160.3930  203.3560  149.6070 C   0  0  0  0  0  1  0  0  0  0  0  0
  161.5720  203.7490  150.3340 N   0  0  0  0  0  0  0  0  0  0  0  0
  161.6550  204.8640  150.9700 C   0  0  0  0  0  0  0  0  0  0  0  0
  160.6850  208.4030  151.6620 C   0  0  1  0  0  3  0  0  0  0  0  0
  162.9040  205.2590  151.6900 C   0  0  0  0  0  3  0  0  0  0  0  0
  159.5530  212.1590  155.4820 C   0  0  2  0  0  3  0  0  0  0  0  0
  159.8850  211.5380  156.7270 O   0  0  0  0  0  0  0  0  0  0  0  0
  161.2920  211.5140  156.9310 C   0  0  0  0  0  2  0  0  0  0  0  0
  161.9480  210.2000  156.4200 C   0  0  2  0  0  3  0  0  0  0  0  0
  161.8580  209.9510  154.8920 C   0  0  0  0  0  2  0  0  0  0  0  0
  160.0270  210.9530  153.1520 C   0  0  1  0  0  3  0  0  0  0  0  0
  160.4400  210.2290  154.4280 C   0  0  2  0  0  3  0  0  0  0  0  0
  160.4890  211.7440  154.3500 C   0  0  2  0  0  3  0  0  0  0  0  0
  161.5870  208.9720  157.2600 C   0  0  0  0  0  2  0  0  0  0  0  0
  161.0680  207.8140  156.4250 C   0  0  0  0  0  1  0  0  0  0  0  0
  158.1170  214.1700  155.7980 C   0  0  0  0  0  1  0  0  0  0  0  0
  159.5380  213.6740  155.6130 C   0  0  0  0  0  2  0  0  0  0  0  0
  160.1540  212.8640  150.8550 C   0  0  2  0  0  3  0  0  0  0  0  0
  158.8240  213.0510  151.5890 C   0  0  2  0  0  3  0  0  0  0  0  0
  157.7350  212.8880  150.7310 O   0  0  0  0  0  1  0  0  0  0  0  0
  158.7670  214.4260  152.2260 C   0  0  0  0  0  1  0  0  0  0  0  0
  160.4880  213.8420  149.7210 C   0  0  0  0  0  2  0  0  0  0  0  0
  159.2540  214.4530  149.0790 C   0  0  0  0  0  2  0  0  0  0  0  0
  159.2730  214.2220  147.5780 C   0  0  0  0  0  2  0  0  0  0  0  0
  158.2170  213.2840  147.1910 C   0  0  0  0  0  0  0  0  0  0  0  0
  157.3460  212.5110  146.8740 C   0  0  0  0  0  3  0  0  0  0  0  0
  1 29  1  1  0  0  0
  1  2  1  0  0  0  0
  2 22  1  1  0  0  0
  3  7  1  6  0  0  0
  3  2  1  0  0  0  0
  4  6  1  0  0  0  0
  4  7  1  0  0  0  0
  6  5  1  6  0  0  0
  6  1  1  0  0  0  0
  9 11  1  6  0  0  0
  9  8  1  0  0  0  0
  9 10  1  0  0  0  0
 12 13  1  0  0  0  0
 13 14  2  0  0  0  0
 14 11  1  0  0  0  0
 14 16  1  0  0  0  0
 15  9  1  0  0  0  0
 15  3  1  0  0  0  0
 15 10  1  1  0  0  0
 16  8  2  0  0  0  0
 17 28  1  1  0  0  0
 17 18  1  0  0  0  0
 18 19  1  0  0  0  0
 20 19  1  0  0  0  0
 20 25  1  1  0  0  0
 21 20  1  0  0  0  0
 22 24  1  0  0  0  0
 22 23  1  0  0  0  0
 23 21  1  0  0  0  0
 24 23  1  0  0  0  0
 24 17  1  0  0  0  0
 26 25  1  0  0  0  0
 28 27  1  0  0  0  0
 29 30  1  0  0  0  0
 30 32  1  0  0  0  0
 31 30  1  0  0  0  0
 33 29  1  0  0  0  0
 34 33  1  0  0  0  0
 35 34  1  0  0  0  0
 36 35  1  0  0  0  0
 37 36  3  0  0  0  0
M  END
>  <MODEL>
2

>  <REMARK>
 VINA RESULT:      -2.4      3.117      6.365
  Name = 
  10 active torsions:
  status: ('A' for Active; 'I' for Inactive)
    1  A    between atoms: C_1  and  C_23
    2  A    between atoms: C_3  and  C_30
    3  A    between atoms: C_4  and  C_13
    4  A    between atoms: C_9  and  C_13
    5  A    between atoms: C_9  and  C_16
    6  A    between atoms: C_10  and  C_29
    7  A    between atoms: C_11  and  C_26
    8  A    between atoms: C_13  and  C_20
    9  A    between atoms: C_14  and  C_31
   10  A    between atoms: C_16  and  C_30
                            x       y       z     vdW  Elec       q    Type
                         _______ _______ _______ _____ _____    ______ ____

>  <TORSDO>
F 10

$$$$
=
 OpenBabel11062409033D

 37 41  0  0  1  0  0  0  0  0999 V2000
  160.9980  207.5960  153.7100 C   0  0  2  0  0  3  0  0  0  0  0  0
  161.3220  208.8200  152.8210 C   0  0  2  0  0  3  0  0  0  0  0  0
  160.8570  210.1470  153.4500 C   0  0  2  0  0  3  0  0  0  0  0  0
  161.0410  209.1460  155.7360 C   0  0  0  0  0  2  0  0  0  0  0  0
  160.9280  206.7220  156.0780 C   0  0  0  0  0  1  0  0  0  0  0  0
  161.4800  207.8020  155.1650 C   0  0  1  0  0  3  0  0  0  0  0  0
  161.4780  210.2930  154.8350 C   0  0  0  0  0  2  0  0  0  0  0  0
  159.8020  212.5890  154.7740 C   0  0  0  0  0  3  0  0  0  0  0  0
  158.8610  211.5340  154.2130 C   0  0  2  0  0  0  0  0  0  0  0  0
  158.8500  211.4660  152.7050 C   0  0  0  0  0  2  0  0  0  0  0  0
  157.4930  211.5600  154.8380 C   0  0  0  0  0  2  0  0  0  0  0  0
  155.4380  212.3660  156.7160 C   0  0  0  0  0  1  0  0  0  0  0  0
  156.7300  213.0000  156.6740 N   0  0  0  0  0  0  0  0  0  0  0  0
  157.6460  212.6540  155.8400 C   0  0  0  0  0  0  0  0  0  0  0  0
  159.3270  210.2640  153.5150 C   0  0  1  0  0  3  0  0  0  0  0  0
  158.9890  213.3110  155.8420 C   0  0  0  0  0  3  0  0  0  0  0  0
  161.6810  208.6910  148.8860 C   0  0  2  0  0  3  0  0  0  0  0  0
  161.6940  209.8910  148.1080 O   0  0  0  0  0  0  0  0  0  0  0  0
  162.6970  210.7900  148.5650 C   0  0  0  0  0  2  0  0  0  0  0  0
  162.1570  211.8050  149.6110 C   0  0  2  0  0  3  0  0  0  0  0  0
  161.6610  211.1970  150.9490 C   0  0  0  0  0  2  0  0  0  0  0  0
  160.7780  208.6660  151.3950 C   0  0  1  0  0  3  0  0  0  0  0  0
  160.7820  209.9960  150.6500 C   0  0  2  0  0  3  0  0  0  0  0  0
  161.8550  208.9570  150.3790 C   0  0  2  0  0  3  0  0  0  0  0  0
  161.1950  212.8380  149.0170 C   0  0  0  0  0  2  0  0  0  0  0  0
  160.3940  213.5800  150.0740 C   0  0  0  0  0  1  0  0  0  0  0  0
  162.1270  206.6790  147.4860 C   0  0  0  0  0  1  0  0  0  0  0  0
  162.7430  207.7150  148.4070 C   0  0  0  0  0  2  0  0  0  0  0  0
  161.5790  206.3200  153.0670 C   0  0  2  0  0  3  0  0  0  0  0  0
  162.1080  206.4660  151.6380 C   0  0  2  0  0  3  0  0  0  0  0  0
  161.2860  205.8130  150.7170 O   0  0  0  0  0  1  0  0  0  0  0  0
  163.5170  205.9140  151.5410 C   0  0  0  0  0  1  0  0  0  0  0  0
  160.9510  204.9770  153.4620 C   0  0  0  0  0  2  0  0  0  0  0  0
  160.4670  204.1710  152.2680 C   0  0  0  0  0  2  0  0  0  0  0  0
  161.2880  202.9030  152.1210 C   0  0  0  0  0  2  0  0  0  0  0  0
  160.9860  202.2410  150.8500 C   0  0  0  0  0  0  0  0  0  0  0  0
  160.7350  201.6940  149.8040 C   0  0  0  0  0  3  0  0  0  0  0  0
  1 29  1  6  0  0  0
  1  6  1  0  0  0  0
  2 22  1  6  0  0  0
  2  3  1  0  0  0  0
  2  1  1  0  0  0  0
  3 15  1  0  0  0  0
  3  7  1  1  0  0  0
  6  4  1  0  0  0  0
  6  5  1  1  0  0  0
  7  4  1  0  0  0  0
  8 16  2  0  0  0  0
  9 10  1  6  0  0  0
  9  8  1  0  0  0  0
  9 11  1  0  0  0  0
 11 14  1  0  0  0  0
 13 12  1  0  0  0  0
 14 16  1  0  0  0  0
 14 13  2  0  0  0  0
 15 10  1  6  0  0  0
 15  9  1  0  0  0  0
 17 28  1  6  0  0  0
 17 24  1  0  0  0  0
 18 19  1  0  0  0  0
 18 17  1  0  0  0  0
 19 20  1  0  0  0  0
 20 25  1  6  0  0  0
 20 21  1  0  0  0  0
 23 21  1  0  0  0  0
 23 22  1  0  0  0  0
 24 23  1  0  0  0  0
 24 22  1  0  0  0  0
 25 26  1  0  0  0  0
 27 28  1  0  0  0  0
 29 33  1  0  0  0  0
 30 29  1  0  0  0  0
 31 30  1  0  0  0  0
 32 30  1  0  0  0  0
 34 33  1  0  0  0  0
 35 34  1  0  0  0  0
 36 35  1  0  0  0  0
 37 36  3  0  0  0  0
M  END
>  <MODEL>
3

>  <REMARK>
 VINA RESULT:      -2.3      2.504      6.558
  Name = 
  10 active torsions:
  status: ('A' for Active; 'I' for Inactive)
    1  A    between atoms: C_1  and  C_23
    2  A    between atoms: C_3  and  C_30
    3  A    between atoms: C_4  and  C_13
    4  A    between atoms: C_9  and  C_13
    5  A    between atoms: C_9  and  C_16
    6  A    between atoms: C_10  and  C_29
    7  A    between atoms: C_11  and  C_26
    8  A    between atoms: C_13  and  C_20
    9  A    between atoms: C_14  and  C_31
   10  A    between atoms: C_16  and  C_30
                            x       y       z     vdW  Elec       q    Type
                         _______ _______ _______ _____ _____    ______ ____

>  <TORSDO>
F 10

$$$$
=
 OpenBabel11062409033D

 37 41  0  0  1  0  0  0  0  0999 V2000
  160.6940  211.0890  150.5440 C   0  0  2  0  0  3  0  0  0  0  0  0
  161.0090  210.7420  152.0190 C   0  0  2  0  0  3  0  0  0  0  0  0
  161.6020  209.3300  152.1800 C   0  0  2  0  0  3  0  0  0  0  0  0
  162.4910  209.4190  149.8420 C   0  0  0  0  0  2  0  0  0  0  0  0
  161.5010  210.8990  148.1590 C   0  0  0  0  0  1  0  0  0  0  0  0
  161.9020  210.8080  149.6200 C   0  0  1  0  0  3  0  0  0  0  0  0
  162.8470  209.2030  151.3070 C   0  0  0  0  0  2  0  0  0  0  0  0
  162.6100  206.5430  152.4010 C   0  0  0  0  0  3  0  0  0  0  0  0
  161.1750  206.8260  151.9850 C   0  0  2  0  0  0  0  0  0  0  0  0
  160.3140  207.3750  153.0970 C   0  0  0  0  0  2  0  0  0  0  0  0
  160.5420  205.6990  151.2160 C   0  0  0  0  0  2  0  0  0  0  0  0
  160.4330  203.1710  149.8030 C   0  0  0  0  0  1  0  0  0  0  0  0
  161.6120  203.6050  150.5060 N   0  0  0  0  0  0  0  0  0  0  0  0
  161.6680  204.7230  151.1420 C   0  0  0  0  0  0  0  0  0  0  0  0
  160.5860  208.2240  151.8580 C   0  0  1  0  0  3  0  0  0  0  0  0
  162.9170  205.1620  151.8360 C   0  0  0  0  0  3  0  0  0  0  0  0
  159.1500  212.2620  155.1590 C   0  0  2  0  0  3  0  0  0  0  0  0
  159.2730  211.6600  156.4510 O   0  0  0  0  0  0  0  0  0  0  0  0
  160.6380  211.5260  156.8280 C   0  0  0  0  0  2  0  0  0  0  0  0
  161.2340  210.1440  156.4350 C   0  0  2  0  0  3  0  0  0  0  0  0
  161.3080  209.8500  154.9140 C   0  0  0  0  0  2  0  0  0  0  0  0
  159.7960  210.9390  152.9360 C   0  0  1  0  0  3  0  0  0  0  0  0
  159.9870  210.2280  154.2720 C   0  0  2  0  0  3  0  0  0  0  0  0
  160.1770  211.7300  154.1620 C   0  0  2  0  0  3  0  0  0  0  0  0
  160.6670  208.9820  157.2540 C   0  0  0  0  0  2  0  0  0  0  0  0
  161.1430  207.6240  156.7650 C   0  0  0  0  0  1  0  0  0  0  0  0
  158.3020  214.3040  156.3070 C   0  0  0  0  0  1  0  0  0  0  0  0
  159.2520  213.7760  155.2490 C   0  0  0  0  0  2  0  0  0  0  0  0
  160.2010  212.5480  150.4480 C   0  0  2  0  0  3  0  0  0  0  0  0
  160.3390  213.2170  149.0790 C   0  0  2  0  0  3  0  0  0  0  0  0
  160.9830  214.4520  149.1720 O   0  0  0  0  0  1  0  0  0  0  0  0
  158.9740  213.4030  148.4460 C   0  0  0  0  0  1  0  0  0  0  0  0
  160.3530  213.4320  151.6930 C   0  0  0  0  0  2  0  0  0  0  0  0
  159.1630  214.3490  151.9220 C   0  0  0  0  0  2  0  0  0  0  0  0
  157.8710  213.6300  151.5770 C   0  0  0  0  0  2  0  0  0  0  0  0
  156.7990  214.0370  152.4880 C   0  0  0  0  0  0  0  0  0  0  0  0
  155.9180  214.3710  153.2400 C   0  0  0  0  0  3  0  0  0  0  0  0
  1 29  1  1  0  0  0
  1  2  1  0  0  0  0
  2  3  1  0  0  0  0
  2 22  1  1  0  0  0
  3  7  1  6  0  0  0
  4  7  1  0  0  0  0
  6  5  1  6  0  0  0
  6  4  1  0  0  0  0
  6  1  1  0  0  0  0
  9 11  1  6  0  0  0
  9  8  1  0  0  0  0
  9 10  1  0  0  0  0
 12 13  1  0  0  0  0
 13 14  2  0  0  0  0
 14 11  1  0  0  0  0
 14 16  1  0  0  0  0
 15  9  1  0  0  0  0
 15  3  1  0  0  0  0
 15 10  1  1  0  0  0
 16  8  2  0  0  0  0
 17 28  1  1  0  0  0
 17 18  1  0  0  0  0
 18 19  1  0  0  0  0
 20 19  1  0  0  0  0
 20 25  1  1  0  0  0
 21 20  1  0  0  0  0
 22 24  1  0  0  0  0
 22 23  1  0  0  0  0
 23 21  1  0  0  0  0
 24 23  1  0  0  0  0
 24 17  1  0  0  0  0
 26 25  1  0  0  0  0
 28 27  1  0  0  0  0
 29 33  1  0  0  0  0
 30 31  1  0  0  0  0
 30 29  1  0  0  0  0
 32 30  1  0  0  0  0
 33 34  1  0  0  0  0
 35 34  1  0  0  0  0
 35 36  1  0  0  0  0
 36 37  3  0  0  0  0
M  END
>  <MODEL>
4

>  <REMARK>
 VINA RESULT:      -1.5      3.133      6.387
  Name = 
  10 active torsions:
  status: ('A' for Active; 'I' for Inactive)
    1  A    between atoms: C_1  and  C_23
    2  A    between atoms: C_3  and  C_30
    3  A    between atoms: C_4  and  C_13
    4  A    between atoms: C_9  and  C_13
    5  A    between atoms: C_9  and  C_16
    6  A    between atoms: C_10  and  C_29
    7  A    between atoms: C_11  and  C_26
    8  A    between atoms: C_13  and  C_20
    9  A    between atoms: C_14  and  C_31
   10  A    between atoms: C_16  and  C_30
                            x       y       z     vdW  Elec       q    Type
                         _______ _______ _______ _____ _____    ______ ____

>  <TORSDO>
F 10

$$$$
=
 OpenBabel11062409033D

 37 41  0  0  1  0  0  0  0  0999 V2000
  160.3760  211.9050  151.1860 C   0  0  2  0  0  3  0  0  0  0  0  0
  160.7840  211.0560  152.4140 C   0  0  2  0  0  3  0  0  0  0  0  0
  161.5260  209.7650  152.0200 C   0  0  2  0  0  3  0  0  0  0  0  0
  162.3070  210.8410  149.9000 C   0  0  0  0  0  2  0  0  0  0  0  0
  161.1020  212.7340  148.9140 C   0  0  0  0  0  1  0  0  0  0  0  0
  161.5680  212.1350  150.2280 C   0  0  1  0  0  3  0  0  0  0  0  0
  162.7410  210.1210  151.1690 C   0  0  0  0  0  2  0  0  0  0  0  0
  162.9160  207.7070  150.3880 C   0  0  0  0  0  3  0  0  0  0  0  0
  161.3980  207.7450  150.4730 C   0  0  2  0  0  0  0  0  0  0  0  0
  160.8530  207.3500  151.8240 C   0  0  0  0  0  2  0  0  0  0  0  0
  160.7180  207.0700  149.3130 C   0  0  0  0  0  2  0  0  0  0  0  0
  160.5210  205.7660  146.7320 C   0  0  0  0  0  1  0  0  0  0  0  0
  161.7890  206.0770  147.3390 N   0  0  0  0  0  0  0  0  0  0  0  0
  161.8870  206.6500  148.4880 C   0  0  0  0  0  0  0  0  0  0  0  0
  160.6180  208.7620  151.2930 C   0  0  1  0  0  3  0  0  0  0  0  0
  163.2180  206.9890  149.0780 C   0  0  0  0  0  3  0  0  0  0  0  0
  158.7950  211.2590  155.8240 C   0  0  2  0  0  3  0  0  0  0  0  0
  159.0860  210.3640  156.9010 O   0  0  0  0  0  0  0  0  0  0  0  0
  160.4650  210.4040  157.2460 C   0  0  0  0  0  2  0  0  0  0  0  0
  161.3010  209.3290  156.4950 C   0  0  2  0  0  3  0  0  0  0  0  0
  161.3690  209.4830  154.9530 C   0  0  0  0  0  2  0  0  0  0  0  0
  159.5940  210.7500  153.3320 C   0  0  1  0  0  3  0  0  0  0  0  0
  159.9740  209.7530  154.4220 C   0  0  2  0  0  3  0  0  0  0  0  0
  159.8640  211.2350  154.7340 C   0  0  2  0  0  3  0  0  0  0  0  0
  161.0050  207.8990  156.9530 C   0  0  0  0  0  2  0  0  0  0  0  0
  160.7950  206.9360  155.7960 C   0  0  0  0  0  1  0  0  0  0  0  0
  159.9350  213.4100  156.3590 C   0  0  0  0  0  1  0  0  0  0  0  0
  158.6050  212.6800  156.3300 C   0  0  0  0  0  2  0  0  0  0  0  0
  159.7310  213.2240  151.6580 C   0  0  2  0  0  3  0  0  0  0  0  0
  158.6070  213.0930  152.6880 C   0  0  2  0  0  3  0  0  0  0  0  0
  157.4600  212.5250  152.1290 O   0  0  0  0  0  1  0  0  0  0  0  0
  158.2680  214.4520  153.2700 C   0  0  0  0  0  1  0  0  0  0  0  0
  159.6400  214.3720  150.6440 C   0  0  0  0  0  2  0  0  0  0  0  0
  158.2990  214.4340  149.9330 C   0  0  0  0  0  2  0  0  0  0  0  0
  158.3970  213.7790  148.5670 C   0  0  0  0  0  2  0  0  0  0  0  0
  157.2490  214.1500  147.7370 C   0  0  0  0  0  0  0  0  0  0  0  0
  156.3030  214.4530  147.0520 C   0  0  0  0  0  3  0  0  0  0  0  0
  1 29  1  1  0  0  0
  1  2  1  0  0  0  0
  2 22  1  6  0  0  0
  3  7  1  6  0  0  0
  3  2  1  0  0  0  0
  4  6  1  0  0  0  0
  4  7  1  0  0  0  0
  6  5  1  6  0  0  0
  6  1  1  0  0  0  0
  8  9  1  0  0  0  0
  9 11  1  6  0  0  0
  9 15  1  0  0  0  0
  9 10  1  0  0  0  0
 12 13  1  0  0  0  0
 13 14  2  0  0  0  0
 14 16  1  0  0  0  0
 14 11  1  0  0  0  0
 15 10  1  1  0  0  0
 15  3  1  0  0  0  0
 16  8  2  0  0  0  0
 17 28  1  1  0  0  0
 17 18  1  0  0  0  0
 18 19  1  0  0  0  0
 20 25  1  6  0  0  0
 20 19  1  0  0  0  0
 21 20  1  0  0  0  0
 22 23  1  0  0  0  0
 22 24  1  0  0  0  0
 23 24  1  0  0  0  0
 23 21  1  0  0  0  0
 24 17  1  0  0  0  0
 26 25  1  0  0  0  0
 28 27  1  0  0  0  0
 29 30  1  0  0  0  0
 30 32  1  0  0  0  0
 31 30  1  0  0  0  0
 33 29  1  0  0  0  0
 34 33  1  0  0  0  0
 35 34  1  0  0  0  0
 36 35  1  0  0  0  0
 37 36  3  0  0  0  0
M  END
>  <MODEL>
5

>  <REMARK>
 VINA RESULT:      -0.9      3.235      6.560
  Name = 
  10 active torsions:
  status: ('A' for Active; 'I' for Inactive)
    1  A    between atoms: C_1  and  C_23
    2  A    between atoms: C_3  and  C_30
    3  A    between atoms: C_4  and  C_13
    4  A    between atoms: C_9  and  C_13
    5  A    between atoms: C_9  and  C_16
    6  A    between atoms: C_10  and  C_29
    7  A    between atoms: C_11  and  C_26
    8  A    between atoms: C_13  and  C_20
    9  A    between atoms: C_14  and  C_31
   10  A    between atoms: C_16  and  C_30
                            x       y       z     vdW  Elec       q    Type
                         _______ _______ _______ _____ _____    ______ ____

>  <TORSDO>
F 10

$$$$
=
 OpenBabel11062409033D

 37 41  0  0  1  0  0  0  0  0999 V2000
  160.9750  210.5520  150.2890 C   0  0  2  0  0  3  0  0  0  0  0  0
  161.5710  209.1830  150.6990 C   0  0  2  0  0  3  0  0  0  0  0  0
  162.1280  208.3980  149.4980 C   0  0  2  0  0  3  0  0  0  0  0  0
  162.5240  210.5380  148.2610 C   0  0  0  0  0  2  0  0  0  0  0  0
  161.2690  212.5720  148.8030 C   0  0  0  0  0  1  0  0  0  0  0  0
  161.9560  211.3630  149.4110 C   0  0  1  0  0  3  0  0  0  0  0  0
  163.1620  209.2530  148.7710 C   0  0  0  0  0  2  0  0  0  0  0  0
  162.6890  205.8890  148.0070 C   0  0  0  0  0  3  0  0  0  0  0  0
  161.3860  206.6460  147.8040 C   0  0  2  0  0  0  0  0  0  0  0  0
  160.4560  206.5900  148.9910 C   0  0  0  0  0  2  0  0  0  0  0  0
  160.7220  206.3490  146.4870 C   0  0  0  0  0  2  0  0  0  0  0  0
  160.4670  205.2340  143.8240 C   0  0  0  0  0  1  0  0  0  0  0  0
  161.5790  204.9200  144.6830 N   0  0  0  0  0  0  0  0  0  0  0  0
  161.6970  205.4040  145.8700 C   0  0  0  0  0  0  0  0  0  0  0  0
  161.0260  207.9300  148.5360 C   0  0  1  0  0  3  0  0  0  0  0  0
  162.8790  205.0840  146.7270 C   0  0  0  0  0  3  0  0  0  0  0  0
  160.4560  207.0610  153.8420 C   0  0  2  0  0  3  0  0  0  0  0  0
  160.8140  205.6810  153.9630 O   0  0  0  0  0  0  0  0  0  0  0  0
  162.2190  205.5010  153.8450 C   0  0  0  0  0  2  0  0  0  0  0  0
  162.6630  205.2000  152.3860 C   0  0  2  0  0  3  0  0  0  0  0  0
  162.4140  206.3330  151.3570 C   0  0  0  0  0  2  0  0  0  0  0  0
  160.5790  208.3330  151.5020 C   0  0  1  0  0  3  0  0  0  0  0  0
  161.0070  206.8700  151.5430 C   0  0  2  0  0  3  0  0  0  0  0  0
  161.2350  207.7750  152.7400 C   0  0  2  0  0  3  0  0  0  0  0  0
  162.2260  203.8190  151.8900 C   0  0  0  0  0  2  0  0  0  0  0  0
  161.0020  203.8720  150.9900 C   0  0  0  0  0  1  0  0  0  0  0  0
  159.7060  207.2200  156.2120 C   0  0  0  0  0  1  0  0  0  0  0  0
  160.6390  207.7920  155.1620 C   0  0  0  0  0  2  0  0  0  0  0  0
  160.5300  211.3220  151.5490 C   0  0  2  0  0  3  0  0  0  0  0  0
  159.5580  212.4830  151.3210 C   0  0  2  0  0  3  0  0  0  0  0  0
  160.0810  213.6910  151.7870 O   0  0  0  0  0  1  0  0  0  0  0  0
  158.2360  212.2030  152.0100 C   0  0  0  0  0  1  0  0  0  0  0  0
  161.5420  211.4530  152.6950 C   0  0  0  0  0  2  0  0  0  0  0  0
  161.0590  210.8230  153.9910 C   0  0  0  0  0  2  0  0  0  0  0  0
  160.4380  211.8790  154.8890 C   0  0  0  0  0  2  0  0  0  0  0  0
  159.1470  211.4180  155.4050 C   0  0  0  0  0  0  0  0  0  0  0  0
  158.0830  211.0400  155.8300 C   0  0  0  0  0  3  0  0  0  0  0  0
  1  2  1  0  0  0  0
  1 29  1  1  0  0  0
  2 22  1  6  0  0  0
  3  7  1  6  0  0  0
  3  2  1  0  0  0  0
  4  7  1  0  0  0  0
  4  6  1  0  0  0  0
  6  5  1  6  0  0  0
  6  1  1  0  0  0  0
  9 11  1  6  0  0  0
  9  8  1  0  0  0  0
  9 15  1  0  0  0  0
  9 10  1  0  0  0  0
 12 13  1  0  0  0  0
 13 14  2  0  0  0  0
 14 11  1  0  0  0  0
 14 16  1  0  0  0  0
 15 10  1  1  0  0  0
 15  3  1  0  0  0  0
 16  8  2  0  0  0  0
 17 18  1  0  0  0  0
 17 28  1  1  0  0  0
 19 18  1  0  0  0  0
 20 25  1  6  0  0  0
 20 19  1  0  0  0  0
 21 23  1  0  0  0  0
 21 20  1  0  0  0  0
 22 23  1  0  0  0  0
 22 24  1  0  0  0  0
 23 24  1  0  0  0  0
 24 17  1  0  0  0  0
 26 25  1  0  0  0  0
 28 27  1  0  0  0  0
 29 33  1  0  0  0  0
 30 29  1  0  0  0  0
 30 31  1  0  0  0  0
 30 32  1  0  0  0  0
 33 34  1  0  0  0  0
 34 35  1  0  0  0  0
 35 36  1  0  0  0  0
 36 37  3  0  0  0  0
M  END
>  <MODEL>
6

>  <REMARK>
 VINA RESULT:      -0.7      3.222      6.787
  Name = 
  10 active torsions:
  status: ('A' for Active; 'I' for Inactive)
    1  A    between atoms: C_1  and  C_23
    2  A    between atoms: C_3  and  C_30
    3  A    between atoms: C_4  and  C_13
    4  A    between atoms: C_9  and  C_13
    5  A    between atoms: C_9  and  C_16
    6  A    between atoms: C_10  and  C_29
    7  A    between atoms: C_11  and  C_26
    8  A    between atoms: C_13  and  C_20
    9  A    between atoms: C_14  and  C_31
   10  A    between atoms: C_16  and  C_30
                            x       y       z     vdW  Elec       q    Type
                         _______ _______ _______ _____ _____    ______ ____

>  <TORSDO>
F 10

$$$$
=
 OpenBabel11062409033D

 37 41  0  0  1  0  0  0  0  0999 V2000
  161.1820  210.6280  150.0990 C   0  0  2  0  0  3  0  0  0  0  0  0
  161.6490  209.2830  150.7070 C   0  0  2  0  0  3  0  0  0  0  0  0
  162.1120  208.2790  149.6360 C   0  0  2  0  0  3  0  0  0  0  0  0
  162.6940  210.1640  148.0960 C   0  0  0  0  0  2  0  0  0  0  0  0
  161.6480  212.3680  148.3290 C   0  0  0  0  0  1  0  0  0  0  0  0
  162.2240  211.2010  149.1110 C   0  0  1  0  0  3  0  0  0  0  0  0
  163.2130  208.9130  148.7920 C   0  0  0  0  0  2  0  0  0  0  0  0
  162.6330  205.7900  148.0980 C   0  0  0  0  0  3  0  0  0  0  0  0
  161.2980  206.5110  147.9920 C   0  0  2  0  0  0  0  0  0  0  0  0
  160.4580  206.4260  149.2430 C   0  0  0  0  0  2  0  0  0  0  0  0
  160.5490  206.1990  146.7250 C   0  0  0  0  0  2  0  0  0  0  0  0
  160.1350  205.0850  144.0820 C   0  0  0  0  0  1  0  0  0  0  0  0
  161.3140  204.7990  144.8580 N   0  0  0  0  0  0  0  0  0  0  0  0
  161.5040  205.2830  146.0350 C   0  0  0  0  0  0  0  0  0  0  0  0
  160.9560  207.7830  148.7540 C   0  0  1  0  0  3  0  0  0  0  0  0
  162.7520  204.9930  146.8040 C   0  0  0  0  0  3  0  0  0  0  0  0
  160.4140  207.6410  154.0840 C   0  0  2  0  0  3  0  0  0  0  0  0
  160.5820  206.2420  154.3270 O   0  0  0  0  0  0  0  0  0  0  0  0
  161.9420  205.8530  154.1750 C   0  0  0  0  0  2  0  0  0  0  0  0
  162.2640  205.3580  152.7360 C   0  0  2  0  0  3  0  0  0  0  0  0
  162.1220  206.4150  151.6110 C   0  0  0  0  0  2  0  0  0  0  0  0
  160.5910  208.6610  151.6270 C   0  0  1  0  0  3  0  0  0  0  0  0
  160.8140  207.1620  151.7960 C   0  0  2  0  0  3  0  0  0  0  0  0
  161.2260  208.1320  152.8890 C   0  0  2  0  0  3  0  0  0  0  0  0
  161.6150  204.0140  152.3960 C   0  0  0  0  0  2  0  0  0  0  0  0
  161.5780  203.7340  150.9020 C   0  0  0  0  0  1  0  0  0  0  0  0
  160.1410  207.8350  156.5530 C   0  0  0  0  0  1  0  0  0  0  0  0
  160.7630  208.4580  155.3180 C   0  0  0  0  0  2  0  0  0  0  0  0
  160.8300  211.6150  151.2300 C   0  0  2  0  0  3  0  0  0  0  0  0
  160.1330  211.0170  152.4540 C   0  0  2  0  0  3  0  0  0  0  0  0
  158.7490  211.1990  152.3980 O   0  0  0  0  0  1  0  0  0  0  0  0
  160.6750  211.6410  153.7250 C   0  0  0  0  0  1  0  0  0  0  0  0
  160.4650  213.0510  150.8310 C   0  0  0  0  0  2  0  0  0  0  0  0
  158.9670  213.3080  150.8370 C   0  0  0  0  0  2  0  0  0  0  0  0
  158.4930  213.6850  149.4440 C   0  0  0  0  0  2  0  0  0  0  0  0
  157.0450  213.9060  149.4390 C   0  0  0  0  0  0  0  0  0  0  0  0
  155.8520  214.0860  149.4330 C   0  0  0  0  0  3  0  0  0  0  0  0
  1  2  1  0  0  0  0
  1 29  1  1  0  0  0
  2 22  1  6  0  0  0
  3  7  1  6  0  0  0
  3  2  1  0  0  0  0
  4  7  1  0  0  0  0
  4  6  1  0  0  0  0
  6  5  1  6  0  0  0
  6  1  1  0  0  0  0
  9 11  1  6  0  0  0
  9  8  1  0  0  0  0
  9 15  1  0  0  0  0
  9 10  1  0  0  0  0
 12 13  1  0  0  0  0
 13 14  2  0  0  0  0
 14 11  1  0  0  0  0
 14 16  1  0  0  0  0
 15 10  1  1  0  0  0
 15  3  1  0  0  0  0
 16  8  2  0  0  0  0
 17 18  1  0  0  0  0
 17 28  1  1  0  0  0
 19 18  1  0  0  0  0
 20 25  1  6  0  0  0
 20 19  1  0  0  0  0
 21 23  1  0  0  0  0
 21 20  1  0  0  0  0
 22 23  1  0  0  0  0
 22 24  1  0  0  0  0
 23 24  1  0  0  0  0
 24 17  1  0  0  0  0
 26 25  1  0  0  0  0
 28 27  1  0  0  0  0
 29 30  1  0  0  0  0
 30 32  1  0  0  0  0
 31 30  1  0  0  0  0
 33 34  1  0  0  0  0
 33 29  1  0  0  0  0
 35 34  1  0  0  0  0
 36 35  1  0  0  0  0
 37 36  3  0  0  0  0
M  END
>  <MODEL>
7

>  <REMARK>
 VINA RESULT:      -0.4      3.223      6.412
  Name = 
  10 active torsions:
  status: ('A' for Active; 'I' for Inactive)
    1  A    between atoms: C_1  and  C_23
    2  A    between atoms: C_3  and  C_30
    3  A    between atoms: C_4  and  C_13
    4  A    between atoms: C_9  and  C_13
    5  A    between atoms: C_9  and  C_16
    6  A    between atoms: C_10  and  C_29
    7  A    between atoms: C_11  and  C_26
    8  A    between atoms: C_13  and  C_20
    9  A    between atoms: C_14  and  C_31
   10  A    between atoms: C_16  and  C_30
                            x       y       z     vdW  Elec       q    Type
                         _______ _______ _______ _____ _____    ______ ____

>  <TORSDO>
F 10

$$$$
