=
 OpenBabel11052422323D

 31 34  0  0  0  0  0  0  0  0999 V2000
  161.9450  210.4940  149.6980 C   0  0  0  0  0  0  0  0  0  0  0  0
  161.5110  208.0760  152.5290 C   0  0  0  0  0  0  0  0  0  0  0  0
  161.3410  208.9180  153.7600 C   0  0  0  0  0  0  0  0  0  0  0  0
  161.4690  211.0910  154.9820 N   0  0  0  0  0  0  0  0  0  0  0  0
  161.7170  208.6150  151.2340 C   0  0  0  0  0  0  0  0  0  0  0  0
  162.1100  209.6130  148.6300 C   0  0  0  0  0  3  0  0  0  0  0  0
  161.9560  210.2990  153.8480 C   0  0  0  0  0  2  0  0  0  0  0  0
  161.6000  205.8420  151.5470 C   0  0  0  0  0  0  0  0  0  0  0  0
  161.9770  211.8310  149.4860 F   0  0  0  0  0  0  0  0  0  0  0  0
  160.2930  206.9610  154.8640 C   0  0  0  0  0  2  0  0  0  0  0  0
  160.8980  210.5630  156.0200 C   0  0  0  0  0  0  0  0  0  0  0  0
  161.8110  206.3900  150.3240 N   0  0  0  0  0  0  0  0  0  0  0  0
  161.4230  206.6700  152.6680 C   0  0  0  0  0  0  0  0  0  0  0  0
  161.7470  209.9980  150.9890 C   0  0  0  0  0  3  0  0  0  0  0  0
  160.5050  211.3870  157.1100 N   0  0  0  0  0  1  0  0  0  0  0  0
  161.8710  207.7320  150.1370 C   0  0  0  0  0  0  0  0  0  0  0  0
  162.0710  208.2350  148.8470 C   0  0  0  0  0  3  0  0  0  0  0  0
  161.2090  206.0710  154.0320 C   0  0  0  0  0  2  0  0  0  0  0  0
  160.8000  208.3720  154.8690 C   0  0  0  0  0  0  0  0  0  0  0  0
  160.6000  209.1680  156.0390 N   0  0  0  0  0  2  0  0  0  0  0  0
  161.5220  204.3560  151.6640 C   0  0  0  0  0  2  0  0  0  0  0  0
  160.7210  203.7840  150.5080 C   0  0  0  0  0  2  0  0  0  0  0  0
  160.8310  202.2680  150.4910 C   0  0  0  0  0  2  0  0  0  0  0  0
  160.1130  201.6760  149.2830 C   0  0  0  0  0  2  0  0  0  0  0  0
  161.0870  201.1970  148.2120 C   0  0  0  0  0  2  0  0  0  0  0  0
  161.5810  204.3320  145.9870 C   0  0  0  0  0  0  0  0  0  0  0  0
  160.4600  201.6470  145.9610 O   0  0  0  0  0  0  0  0  0  0  0  0
  161.0590  204.0510  144.8750 O   0  0  0  0  0  0  0  0  0  0  0  0
  162.2000  205.6670  146.1870 C   0  0  0  0  0  1  0  0  0  0  0  0
  161.0250  202.0700  147.0040 C   0  0  0  0  0  0  0  0  0  0  0  0
  161.5870  203.3850  147.0610 N   0  0  0  0  0  2  0  0  0  0  0  0
  1 14  1  0  0  0  0
  2 13  2  0  0  0  0
  2  3  1  0  0  0  0
  3  7  1  0  0  0  0
  3 19  2  0  0  0  0
  4 11  2  0  0  0  0
  5  2  1  0  0  0  0
  6 17  1  0  0  0  0
  6  1  2  0  0  0  0
  7  4  1  0  0  0  0
  8 21  1  0  0  0  0
  8 13  1  0  0  0  0
  9  1  1  0  0  0  0
 10 19  1  0  0  0  0
 11 20  1  0  0  0  0
 11 15  1  0  0  0  0
 12  8  2  0  0  0  0
 13 18  1  0  0  0  0
 14  5  2  0  0  0  0
 16 12  1  0  0  0  0
 16  5  1  0  0  0  0
 17 16  2  0  0  0  0
 18 10  1  0  0  0  0
 19 20  1  0  0  0  0
 22 21  1  0  0  0  0
 23 22  1  0  0  0  0
 24 23  1  0  0  0  0
 25 24  1  0  0  0  0
 26 29  1  0  0  0  0
 26 31  1  0  0  0  0
 27 30  2  0  0  0  0
 28 26  2  0  0  0  0
 30 31  1  0  0  0  0
 30 25  1  0  0  0  0
M  END
>  <MODEL>
1

>  <REMARK>
 VINA RESULT:     -10.1      0.000      0.000
  Name = 
  6 active torsions:
  status: ('A' for Active; 'I' for Inactive)
    1  A    between atoms: C_3  and  C_19
    2  A    between atoms: C_3  and  C_22
    3  A    between atoms: C_7  and  C_9
    4  A    between atoms: C_7  and  C_22
    5  A    between atoms: C_9  and  C_23
    6  A    between atoms: C_15  and  C_23
                            x       y       z     vdW  Elec       q    Type
                         _______ _______ _______ _____ _____    ______ ____

>  <TORSDO>
F 6

$$$$
=
 OpenBabel11052422323D

 31 34  0  0  0  0  0  0  0  0999 V2000
  160.8070  207.3300  154.4180 C   0  0  0  0  0  0  0  0  0  0  0  0
  161.4450  206.8370  150.7580 C   0  0  0  0  0  0  0  0  0  0  0  0
  161.2550  205.3680  150.5060 C   0  0  0  0  0  0  0  0  0  0  0  0
  161.0070  203.0110  151.2870 N   0  0  0  0  0  0  0  0  0  0  0  0
  161.3060  207.4370  152.0350 C   0  0  0  0  0  0  0  0  0  0  0  0
  161.0270  208.7020  154.5350 C   0  0  0  0  0  3  0  0  0  0  0  0
  161.5010  204.3540  151.6030 C   0  0  0  0  0  2  0  0  0  0  0  0
  161.9530  209.0430  149.8430 C   0  0  0  0  0  0  0  0  0  0  0  0
  160.4620  206.6030  155.5070 F   0  0  0  0  0  0  0  0  0  0  0  0
  160.9260  205.8970  148.1070 C   0  0  0  0  0  2  0  0  0  0  0  0
  160.7560  202.6160  150.0770 C   0  0  0  0  0  0  0  0  0  0  0  0
  161.8270  209.5830  151.0810 N   0  0  0  0  0  0  0  0  0  0  0  0
  161.7430  207.6670  149.6510 C   0  0  0  0  0  0  0  0  0  0  0  0
  160.9430  206.7040  153.1760 C   0  0  0  0  0  3  0  0  0  0  0  0
  160.3370  201.2790  149.8400 N   0  0  0  0  0  1  0  0  0  0  0  0
  161.5110  208.8320  152.1650 C   0  0  0  0  0  0  0  0  0  0  0  0
  161.3760  209.4530  153.4120 C   0  0  0  0  0  3  0  0  0  0  0  0
  161.9010  207.0550  148.2850 C   0  0  0  0  0  2  0  0  0  0  0  0
  161.0490  204.9310  149.2470 C   0  0  0  0  0  0  0  0  0  0  0  0
  160.8320  203.5410  148.9940 N   0  0  0  0  0  2  0  0  0  0  0  0
  162.2770  209.9420  148.6970 C   0  0  0  0  0  2  0  0  0  0  0  0
  161.9710  211.3840  149.0630 C   0  0  0  0  0  2  0  0  0  0  0  0
  161.5110  212.1520  147.8350 C   0  0  0  0  0  2  0  0  0  0  0  0
  162.6760  212.8780  147.1700 C   0  0  0  0  0  2  0  0  0  0  0  0
  162.2080  213.8570  146.0990 C   0  0  0  0  0  2  0  0  0  0  0  0
  161.3620  212.2180  142.6900 C   0  0  0  0  0  0  0  0  0  0  0  0
  163.5860  213.2510  144.2560 O   0  0  0  0  0  0  0  0  0  0  0  0
  162.4580  212.1100  142.0780 O   0  0  0  0  0  0  0  0  0  0  0  0
  160.1140  211.7360  142.0450 C   0  0  0  0  0  1  0  0  0  0  0  0
  162.4210  213.2980  144.7330 C   0  0  0  0  0  0  0  0  0  0  0  0
  161.2990  212.7970  143.9980 N   0  0  0  0  0  2  0  0  0  0  0  0
  1  6  1  0  0  0  0
  1  9  1  0  0  0  0
  2  5  1  0  0  0  0
  3  2  1  0  0  0  0
  3  7  1  0  0  0  0
  4  7  1  0  0  0  0
  5 16  2  0  0  0  0
  5 14  1  0  0  0  0
  8 12  2  0  0  0  0
 10 18  1  0  0  0  0
 10 19  1  0  0  0  0
 11  4  2  0  0  0  0
 12 16  1  0  0  0  0
 13  8  1  0  0  0  0
 13  2  2  0  0  0  0
 14  1  2  0  0  0  0
 15 11  1  0  0  0  0
 16 17  1  0  0  0  0
 17  6  2  0  0  0  0
 18 13  1  0  0  0  0
 19  3  2  0  0  0  0
 20 19  1  0  0  0  0
 20 11  1  0  0  0  0
 21 22  1  0  0  0  0
 21  8  1  0  0  0  0
 23 22  1  0  0  0  0
 24 23  1  0  0  0  0
 25 24  1  0  0  0  0
 26 31  1  0  0  0  0
 27 30  2  0  0  0  0
 28 26  2  0  0  0  0
 29 26  1  0  0  0  0
 30 25  1  0  0  0  0
 31 30  1  0  0  0  0
M  END
>  <MODEL>
2

>  <REMARK>
 VINA RESULT:      -9.5      4.179      7.869
  Name = 
  6 active torsions:
  status: ('A' for Active; 'I' for Inactive)
    1  A    between atoms: C_3  and  C_19
    2  A    between atoms: C_3  and  C_22
    3  A    between atoms: C_7  and  C_9
    4  A    between atoms: C_7  and  C_22
    5  A    between atoms: C_9  and  C_23
    6  A    between atoms: C_15  and  C_23
                            x       y       z     vdW  Elec       q    Type
                         _______ _______ _______ _____ _____    ______ ____

>  <TORSDO>
F 6

$$$$
=
 OpenBabel11052422323D

 31 34  0  0  0  0  0  0  0  0999 V2000
  161.2120  208.6460  154.6670 C   0  0  0  0  0  0  0  0  0  0  0  0
  161.3650  207.6950  151.0450 C   0  0  0  0  0  0  0  0  0  0  0  0
  161.6010  208.9760  150.2980 C   0  0  0  0  0  0  0  0  0  0  0  0
  161.6740  211.4670  150.1590 N   0  0  0  0  0  0  0  0  0  0  0  0
  161.2310  207.6240  152.4550 C   0  0  0  0  0  0  0  0  0  0  0  0
  160.9740  207.4010  155.2510 C   0  0  0  0  0  3  0  0  0  0  0  0
  161.1260  210.3010  150.8570 C   0  0  0  0  0  2  0  0  0  0  0  0
  161.0660  205.2730  150.9550 C   0  0  0  0  0  0  0  0  0  0  0  0
  161.3160  209.7500  155.4440 F   0  0  0  0  0  0  0  0  0  0  0  0
  162.4340  207.6260  148.3930 C   0  0  0  0  0  2  0  0  0  0  0  0
  162.1760  211.4050  148.9640 C   0  0  0  0  0  0  0  0  0  0  0  0
  160.9280  205.2420  152.3040 N   0  0  0  0  0  0  0  0  0  0  0  0
  161.3100  206.4930  150.3010 C   0  0  0  0  0  0  0  0  0  0  0  0
  161.3420  208.7540  153.2800 C   0  0  0  0  0  3  0  0  0  0  0  0
  162.6340  212.5890  148.3250 N   0  0  0  0  0  1  0  0  0  0  0  0
  161.0050  206.3640  153.0610 C   0  0  0  0  0  0  0  0  0  0  0  0
  160.8730  206.2620  154.4510 C   0  0  0  0  0  3  0  0  0  0  0  0
  161.4450  206.5400  148.8020 C   0  0  0  0  0  2  0  0  0  0  0  0
  162.0700  208.9310  149.0340 C   0  0  0  0  0  0  0  0  0  0  0  0
  162.3330  210.1420  148.3210 N   0  0  0  0  0  2  0  0  0  0  0  0
  160.9950  203.9900  150.1960 C   0  0  0  0  0  2  0  0  0  0  0  0
  161.0850  202.8130  151.1520 C   0  0  0  0  0  2  0  0  0  0  0  0
  160.9500  201.5050  150.3900 C   0  0  0  0  0  2  0  0  0  0  0  0
  160.2570  201.7170  149.0480 C   0  0  0  0  0  2  0  0  0  0  0  0
  161.1010  201.2240  147.8780 C   0  0  0  0  0  2  0  0  0  0  0  0
  161.4110  204.2140  145.4330 C   0  0  0  0  0  0  0  0  0  0  0  0
  160.0630  201.6600  145.7820 O   0  0  0  0  0  0  0  0  0  0  0  0
  160.6440  203.9520  144.4680 O   0  0  0  0  0  0  0  0  0  0  0  0
  162.1810  205.4850  145.4300 C   0  0  0  0  0  1  0  0  0  0  0  0
  160.8710  202.0570  146.6640 C   0  0  0  0  0  0  0  0  0  0  0  0
  161.5520  203.3090  146.5330 N   0  0  0  0  0  2  0  0  0  0  0  0
  1  6  1  0  0  0  0
  1  9  1  0  0  0  0
  2  5  1  0  0  0  0
  3  7  1  0  0  0  0
  3  2  1  0  0  0  0
  4  7  1  0  0  0  0
  5 16  2  0  0  0  0
  5 14  1  0  0  0  0
  8 12  2  0  0  0  0
 10 18  1  0  0  0  0
 10 19  1  0  0  0  0
 11  4  2  0  0  0  0
 12 16  1  0  0  0  0
 13  8  1  0  0  0  0
 13  2  2  0  0  0  0
 14  1  2  0  0  0  0
 15 11  1  0  0  0  0
 16 17  1  0  0  0  0
 17  6  2  0  0  0  0
 18 13  1  0  0  0  0
 19  3  2  0  0  0  0
 20 11  1  0  0  0  0
 20 19  1  0  0  0  0
 21  8  1  0  0  0  0
 21 22  1  0  0  0  0
 23 22  1  0  0  0  0
 24 23  1  0  0  0  0
 25 24  1  0  0  0  0
 26 31  1  0  0  0  0
 27 30  2  0  0  0  0
 28 26  2  0  0  0  0
 29 26  1  0  0  0  0
 30 25  1  0  0  0  0
 31 30  1  0  0  0  0
M  END
>  <MODEL>
3

>  <REMARK>
 VINA RESULT:      -9.5      2.346      4.222
  Name = 
  6 active torsions:
  status: ('A' for Active; 'I' for Inactive)
    1  A    between atoms: C_3  and  C_19
    2  A    between atoms: C_3  and  C_22
    3  A    between atoms: C_7  and  C_9
    4  A    between atoms: C_7  and  C_22
    5  A    between atoms: C_9  and  C_23
    6  A    between atoms: C_15  and  C_23
                            x       y       z     vdW  Elec       q    Type
                         _______ _______ _______ _____ _____    ______ ____

>  <TORSDO>
F 6

$$$$
=
 OpenBabel11052422323D

 31 34  0  0  0  0  0  0  0  0999 V2000
  160.8150  203.7890  152.0890 C   0  0  0  0  0  0  0  0  0  0  0  0
  161.3790  205.3300  148.7200 C   0  0  0  0  0  0  0  0  0  0  0  0
  161.2030  204.2170  147.7290 C   0  0  0  0  0  0  0  0  0  0  0  0
  161.0030  201.8000  147.1390 N   0  0  0  0  0  0  0  0  0  0  0  0
  161.2600  205.1570  150.1220 C   0  0  0  0  0  0  0  0  0  0  0  0
  161.0200  204.8940  152.9160 C   0  0  0  0  0  3  0  0  0  0  0  0
  161.4860  202.7800  148.1150 C   0  0  0  0  0  2  0  0  0  0  0  0
  161.8390  207.6970  149.1130 C   0  0  0  0  0  0  0  0  0  0  0  0
  160.5040  202.5870  152.6290 F   0  0  0  0  0  0  0  0  0  0  0  0
  160.8140  205.9320  145.9820 C   0  0  0  0  0  2  0  0  0  0  0  0
  160.7300  202.1030  145.9070 C   0  0  0  0  0  0  0  0  0  0  0  0
  161.7330  207.4930  150.4500 N   0  0  0  0  0  0  0  0  0  0  0  0
  161.6420  206.6280  148.2210 C   0  0  0  0  0  0  0  0  0  0  0  0
  160.9320  203.9220  150.7030 C   0  0  0  0  0  3  0  0  0  0  0  0
  160.3230  201.0870  145.0000 N   0  0  0  0  0  1  0  0  0  0  0  0
  161.4500  206.2740  150.9720 C   0  0  0  0  0  0  0  0  0  0  0  0
  161.3350  206.1340  152.3600 C   0  0  0  0  0  3  0  0  0  0  0  0
  161.7780  206.8400  146.7360 C   0  0  0  0  0  2  0  0  0  0  0  0
  160.9750  204.5110  146.4320 C   0  0  0  0  0  0  0  0  0  0  0  0
  160.7710  203.4640  145.4810 N   0  0  0  0  0  2  0  0  0  0  0  0
  162.1260  209.0750  148.6160 C   0  0  0  0  0  2  0  0  0  0  0  0
  162.1880  210.0460  149.7820 C   0  0  0  0  0  2  0  0  0  0  0  0
  161.7480  211.4310  149.3370 C   0  0  0  0  0  2  0  0  0  0  0  0
  162.6160  211.9440  148.1920 C   0  0  0  0  0  2  0  0  0  0  0  0
  162.0790  213.2420  147.5990 C   0  0  0  0  0  2  0  0  0  0  0  0
  158.7070  212.5860  145.8060 C   0  0  0  0  0  0  0  0  0  0  0  0
  161.5660  212.8070  145.3170 O   0  0  0  0  0  0  0  0  0  0  0  0
  158.9910  212.4100  144.5910 O   0  0  0  0  0  0  0  0  0  0  0  0
  157.2900  212.5040  146.2450 C   0  0  0  0  0  1  0  0  0  0  0  0
  161.1260  212.9670  146.4860 C   0  0  0  0  0  0  0  0  0  0  0  0
  159.7270  212.8640  146.7710 N   0  0  0  0  0  2  0  0  0  0  0  0
  1  9  1  0  0  0  0
  1  6  1  0  0  0  0
  2  5  1  0  0  0  0
  3  7  1  0  0  0  0
  3  2  1  0  0  0  0
  4  7  1  0  0  0  0
  5 14  1  0  0  0  0
  5 16  2  0  0  0  0
  8 12  2  0  0  0  0
 10 19  1  0  0  0  0
 10 18  1  0  0  0  0
 11  4  2  0  0  0  0
 12 16  1  0  0  0  0
 13  2  2  0  0  0  0
 13  8  1  0  0  0  0
 14  1  2  0  0  0  0
 15 11  1  0  0  0  0
 16 17  1  0  0  0  0
 17  6  2  0  0  0  0
 18 13  1  0  0  0  0
 19  3  2  0  0  0  0
 20 11  1  0  0  0  0
 20 19  1  0  0  0  0
 21  8  1  0  0  0  0
 21 22  1  0  0  0  0
 23 22  1  0  0  0  0
 24 23  1  0  0  0  0
 25 24  1  0  0  0  0
 26 29  1  0  0  0  0
 26 31  1  0  0  0  0
 27 30  2  0  0  0  0
 28 26  2  0  0  0  0
 30 31  1  0  0  0  0
 30 25  1  0  0  0  0
M  END
>  <MODEL>
4

>  <REMARK>
 VINA RESULT:      -9.3      4.154      8.766
  Name = 
  6 active torsions:
  status: ('A' for Active; 'I' for Inactive)
    1  A    between atoms: C_3  and  C_19
    2  A    between atoms: C_3  and  C_22
    3  A    between atoms: C_7  and  C_9
    4  A    between atoms: C_7  and  C_22
    5  A    between atoms: C_9  and  C_23
    6  A    between atoms: C_15  and  C_23
                            x       y       z     vdW  Elec       q    Type
                         _______ _______ _______ _____ _____    ______ ____

>  <TORSDO>
F 6

$$$$
=
 OpenBabel11052422323D

 31 34  0  0  0  0  0  0  0  0999 V2000
  160.8340  203.5770  151.8900 C   0  0  0  0  0  0  0  0  0  0  0  0
  161.5190  204.9630  148.4760 C   0  0  0  0  0  0  0  0  0  0  0  0
  161.2420  203.8400  147.5180 C   0  0  0  0  0  0  0  0  0  0  0  0
  160.8280  201.4340  147.0010 N   0  0  0  0  0  0  0  0  0  0  0  0
  161.3900  204.8420  149.8830 C   0  0  0  0  0  0  0  0  0  0  0  0
  161.1380  204.6830  152.6830 C   0  0  0  0  0  3  0  0  0  0  0  0
  161.4000  202.3960  147.9470 C   0  0  0  0  0  2  0  0  0  0  0  0
  162.1860  207.2900  148.7980 C   0  0  0  0  0  0  0  0  0  0  0  0
  160.4210  202.4230  152.4660 F   0  0  0  0  0  0  0  0  0  0  0  0
  160.9990  205.5310  145.7210 C   0  0  0  0  0  2  0  0  0  0  0  0
  160.5790  201.7230  145.7610 C   0  0  0  0  0  0  0  0  0  0  0  0
  162.0670  207.1360  150.1400 N   0  0  0  0  0  0  0  0  0  0  0  0
  161.8940  206.2170  147.9390 C   0  0  0  0  0  0  0  0  0  0  0  0
  160.9570  203.6580  150.5010 C   0  0  0  0  0  3  0  0  0  0  0  0
  160.0810  200.7210  144.8850 N   0  0  0  0  0  1  0  0  0  0  0  0
  161.6810  205.9620  150.6990 C   0  0  0  0  0  0  0  0  0  0  0  0
  161.5590  205.8740  152.0900 C   0  0  0  0  0  3  0  0  0  0  0  0
  162.0420  206.3720  146.4480 C   0  0  0  0  0  2  0  0  0  0  0  0
  161.0360  204.1150  146.2140 C   0  0  0  0  0  0  0  0  0  0  0  0
  160.7380  203.0620  145.2950 N   0  0  0  0  0  2  0  0  0  0  0  0
  162.5910  208.6220  148.2600 C   0  0  0  0  0  2  0  0  0  0  0  0
  161.6300  209.6940  148.7450 C   0  0  0  0  0  2  0  0  0  0  0  0
  162.2800  210.5280  149.8360 C   0  0  0  0  0  2  0  0  0  0  0  0
  161.4830  210.4570  151.1340 C   0  0  0  0  0  2  0  0  0  0  0  0
  162.3310  209.9740  152.3050 C   0  0  0  0  0  2  0  0  0  0  0  0
  160.3950  208.5950  155.3670 C   0  0  0  0  0  0  0  0  0  0  0  0
  161.2100  211.0790  154.0900 O   0  0  0  0  0  0  0  0  0  0  0  0
  159.9930  209.6050  156.0040 O   0  0  0  0  0  0  0  0  0  0  0  0
  160.0670  207.2360  155.8690 C   0  0  0  0  0  1  0  0  0  0  0  0
  161.5460  209.9800  153.5730 C   0  0  0  0  0  0  0  0  0  0  0  0
  161.1630  208.7350  154.1670 N   0  0  0  0  0  2  0  0  0  0  0  0
  1  9  1  0  0  0  0
  1  6  1  0  0  0  0
  2  5  1  0  0  0  0
  3  7  1  0  0  0  0
  3  2  1  0  0  0  0
  4  7  1  0  0  0  0
  5 14  1  0  0  0  0
  5 16  2  0  0  0  0
  8 12  2  0  0  0  0
 10 19  1  0  0  0  0
 10 18  1  0  0  0  0
 11  4  2  0  0  0  0
 12 16  1  0  0  0  0
 13  2  2  0  0  0  0
 13  8  1  0  0  0  0
 14  1  2  0  0  0  0
 15 11  1  0  0  0  0
 16 17  1  0  0  0  0
 17  6  2  0  0  0  0
 18 13  1  0  0  0  0
 19  3  2  0  0  0  0
 20 11  1  0  0  0  0
 20 19  1  0  0  0  0
 21 22  1  0  0  0  0
 21  8  1  0  0  0  0
 22 23  1  0  0  0  0
 23 24  1  0  0  0  0
 24 25  1  0  0  0  0
 25 30  1  0  0  0  0
 26 29  1  0  0  0  0
 26 28  2  0  0  0  0
 30 27  2  0  0  0  0
 30 31  1  0  0  0  0
 31 26  1  0  0  0  0
M  END
>  <MODEL>
5

>  <REMARK>
 VINA RESULT:      -9.0      3.834      9.002
  Name = 
  6 active torsions:
  status: ('A' for Active; 'I' for Inactive)
    1  A    between atoms: C_3  and  C_19
    2  A    between atoms: C_3  and  C_22
    3  A    between atoms: C_7  and  C_9
    4  A    between atoms: C_7  and  C_22
    5  A    between atoms: C_9  and  C_23
    6  A    between atoms: C_15  and  C_23
                            x       y       z     vdW  Elec       q    Type
                         _______ _______ _______ _____ _____    ______ ____

>  <TORSDO>
F 6

$$$$
=
 OpenBabel11052422323D

 31 34  0  0  0  0  0  0  0  0999 V2000
  161.5340  205.8970  145.8950 C   0  0  0  0  0  0  0  0  0  0  0  0
  161.0480  203.1360  148.3820 C   0  0  0  0  0  0  0  0  0  0  0  0
  161.0150  201.8670  147.5800 C   0  0  0  0  0  0  0  0  0  0  0  0
  160.8350  200.6260  145.4230 N   0  0  0  0  0  0  0  0  0  0  0  0
  161.2040  204.4230  147.8070 C   0  0  0  0  0  0  0  0  0  0  0  0
  161.5300  207.0080  146.7380 C   0  0  0  0  0  3  0  0  0  0  0  0
  160.5440  201.8700  146.1410 C   0  0  0  0  0  2  0  0  0  0  0  0
  160.9550  204.1970  150.5800 C   0  0  0  0  0  0  0  0  0  0  0  0
  161.6920  206.0600  144.5600 F   0  0  0  0  0  0  0  0  0  0  0  0
  161.5690  200.6280  149.6550 C   0  0  0  0  0  2  0  0  0  0  0  0
  161.0920  199.5050  146.0240 C   0  0  0  0  0  0  0  0  0  0  0  0
  161.0910  205.4140  149.9960 N   0  0  0  0  0  0  0  0  0  0  0  0
  160.9530  203.0340  149.7910 C   0  0  0  0  0  0  0  0  0  0  0  0
  161.3750  204.6150  146.4270 C   0  0  0  0  0  3  0  0  0  0  0  0
  161.3060  198.3240  145.2620 N   0  0  0  0  0  1  0  0  0  0  0  0
  161.2160  205.5580  148.6540 C   0  0  0  0  0  0  0  0  0  0  0  0
  161.3730  206.8400  148.1150 C   0  0  0  0  0  3  0  0  0  0  0  0
  160.7830  201.6810  150.4280 C   0  0  0  0  0  2  0  0  0  0  0  0
  161.2250  200.6860  148.1970 C   0  0  0  0  0  0  0  0  0  0  0  0
  161.2310  199.4720  147.4430 N   0  0  0  0  0  2  0  0  0  0  0  0
  160.8490  204.1220  152.0670 C   0  0  0  0  0  2  0  0  0  0  0  0
  161.6530  205.2410  152.7040 C   0  0  0  0  0  2  0  0  0  0  0  0
  160.8320  205.9330  153.7790 C   0  0  0  0  0  2  0  0  0  0  0  0
  160.9530  207.4500  153.6750 C   0  0  0  0  0  2  0  0  0  0  0  0
  161.2510  207.9090  152.2520 C   0  0  0  0  0  2  0  0  0  0  0  0
  159.5050  211.3310  152.7630 C   0  0  0  0  0  0  0  0  0  0  0  0
  161.6500  210.0430  151.2790 O   0  0  0  0  0  0  0  0  0  0  0  0
  160.1010  212.1390  152.0020 O   0  0  0  0  0  0  0  0  0  0  0  0
  158.3730  211.8110  153.5960 C   0  0  0  0  0  1  0  0  0  0  0  0
  160.9660  209.3630  152.0890 C   0  0  0  0  0  0  0  0  0  0  0  0
  159.8990  209.9570  152.8360 N   0  0  0  0  0  2  0  0  0  0  0  0
  1 14  2  0  0  0  0
  1  6  1  0  0  0  0
  2 13  1  0  0  0  0
  3 19  2  0  0  0  0
  3  2  1  0  0  0  0
  4 11  2  0  0  0  0
  4  7  1  0  0  0  0
  5  2  2  0  0  0  0
  5 16  1  0  0  0  0
  6 17  2  0  0  0  0
  7  3  1  0  0  0  0
  8 21  1  0  0  0  0
  9  1  1  0  0  0  0
 10 18  1  0  0  0  0
 11 20  1  0  0  0  0
 12  8  1  0  0  0  0
 13 18  1  0  0  0  0
 13  8  2  0  0  0  0
 14  5  1  0  0  0  0
 15 11  1  0  0  0  0
 16 12  2  0  0  0  0
 17 16  1  0  0  0  0
 19 10  1  0  0  0  0
 20 19  1  0  0  0  0
 21 22  1  0  0  0  0
 22 23  1  0  0  0  0
 24 23  1  0  0  0  0
 25 24  1  0  0  0  0
 26 31  1  0  0  0  0
 26 29  1  0  0  0  0
 27 30  2  0  0  0  0
 28 26  2  0  0  0  0
 30 25  1  0  0  0  0
 30 31  1  0  0  0  0
M  END
>  <MODEL>
6

>  <REMARK>
 VINA RESULT:      -8.8      3.497      8.654
  Name = 
  6 active torsions:
  status: ('A' for Active; 'I' for Inactive)
    1  A    between atoms: C_3  and  C_19
    2  A    between atoms: C_3  and  C_22
    3  A    between atoms: C_7  and  C_9
    4  A    between atoms: C_7  and  C_22
    5  A    between atoms: C_9  and  C_23
    6  A    between atoms: C_15  and  C_23
                            x       y       z     vdW  Elec       q    Type
                         _______ _______ _______ _____ _____    ______ ____

>  <TORSDO>
F 6

$$$$
=
 OpenBabel11052422323D

 31 34  0  0  0  0  0  0  0  0999 V2000
  162.2600  210.1510  149.0220 C   0  0  0  0  0  0  0  0  0  0  0  0
  161.3270  206.6870  150.1070 C   0  0  0  0  0  0  0  0  0  0  0  0
  161.2650  205.8700  148.8490 C   0  0  0  0  0  0  0  0  0  0  0  0
  161.1840  205.6480  146.3650 N   0  0  0  0  0  0  0  0  0  0  0  0
  161.6380  208.0700  150.1280 C   0  0  0  0  0  0  0  0  0  0  0  0
  162.2680  210.8120  150.2500 C   0  0  0  0  0  3  0  0  0  0  0  0
  160.9290  206.5130  147.5200 C   0  0  0  0  0  2  0  0  0  0  0  0
  161.1190  206.7590  152.5400 C   0  0  0  0  0  0  0  0  0  0  0  0
  162.5520  210.8270  147.8860 F   0  0  0  0  0  0  0  0  0  0  0  0
  161.5250  203.8370  150.2450 C   0  0  0  0  0  2  0  0  0  0  0  0
  161.2940  204.3590  146.4570 C   0  0  0  0  0  0  0  0  0  0  0  0
  161.4060  208.0850  152.5220 N   0  0  0  0  0  0  0  0  0  0  0  0
  161.0960  206.0290  151.3390 C   0  0  0  0  0  0  0  0  0  0  0  0
  161.9500  208.7900  148.9630 C   0  0  0  0  0  3  0  0  0  0  0  0
  161.4800  203.5770  145.2840 N   0  0  0  0  0  1  0  0  0  0  0  0
  161.6650  208.7500  151.3700 C   0  0  0  0  0  0  0  0  0  0  0  0
  161.9740  210.1140  151.4220 C   0  0  0  0  0  3  0  0  0  0  0  0
  160.7590  204.5620  151.3460 C   0  0  0  0  0  2  0  0  0  0  0  0
  161.3210  204.5240  148.9280 C   0  0  0  0  0  0  0  0  0  0  0  0
  161.2980  203.7320  147.7380 N   0  0  0  0  0  2  0  0  0  0  0  0
  160.8720  206.0940  153.8530 C   0  0  0  0  0  2  0  0  0  0  0  0
  161.1980  207.0480  154.9890 C   0  0  0  0  0  2  0  0  0  0  0  0
  159.9530  207.3280  155.8130 C   0  0  0  0  0  2  0  0  0  0  0  0
  160.0800  208.6430  156.5760 C   0  0  0  0  0  2  0  0  0  0  0  0
  160.6970  209.7460  155.7240 C   0  0  0  0  0  2  0  0  0  0  0  0
  159.0730  212.1860  153.1890 C   0  0  0  0  0  0  0  0  0  0  0  0
  158.4740  210.5720  155.5340 O   0  0  0  0  0  0  0  0  0  0  0  0
  157.8670  212.2930  153.5370 O   0  0  0  0  0  0  0  0  0  0  0  0
  159.5630  212.9460  152.0110 C   0  0  0  0  0  1  0  0  0  0  0  0
  159.6410  210.5630  155.0600 C   0  0  0  0  0  0  0  0  0  0  0  0
  159.9790  211.3450  153.9100 N   0  0  0  0  0  2  0  0  0  0  0  0
  1  6  1  0  0  0  0
  2  5  2  0  0  0  0
  2 13  1  0  0  0  0
  3 19  2  0  0  0  0
  3  2  1  0  0  0  0
  4 11  2  0  0  0  0
  4  7  1  0  0  0  0
  5 16  1  0  0  0  0
  6 17  2  0  0  0  0
  7  3  1  0  0  0  0
  8 21  1  0  0  0  0
  9  1  1  0  0  0  0
 10 18  1  0  0  0  0
 11 20  1  0  0  0  0
 12  8  1  0  0  0  0
 13 18  1  0  0  0  0
 13  8  2  0  0  0  0
 14  1  2  0  0  0  0
 14  5  1  0  0  0  0
 15 11  1  0  0  0  0
 16 17  1  0  0  0  0
 16 12  2  0  0  0  0
 19 10  1  0  0  0  0
 20 19  1  0  0  0  0
 21 22  1  0  0  0  0
 22 23  1  0  0  0  0
 23 24  1  0  0  0  0
 25 24  1  0  0  0  0
 26 28  2  0  0  0  0
 26 31  1  0  0  0  0
 29 26  1  0  0  0  0
 30 27  2  0  0  0  0
 30 25  1  0  0  0  0
 31 30  1  0  0  0  0
M  END
>  <MODEL>
7

>  <REMARK>
 VINA RESULT:      -8.8      3.656      7.796
  Name = 
  6 active torsions:
  status: ('A' for Active; 'I' for Inactive)
    1  A    between atoms: C_3  and  C_19
    2  A    between atoms: C_3  and  C_22
    3  A    between atoms: C_7  and  C_9
    4  A    between atoms: C_7  and  C_22
    5  A    between atoms: C_9  and  C_23
    6  A    between atoms: C_15  and  C_23
                            x       y       z     vdW  Elec       q    Type
                         _______ _______ _______ _____ _____    ______ ____

>  <TORSDO>
F 6

$$$$
=
 OpenBabel11052422323D

 31 34  0  0  0  0  0  0  0  0999 V2000
  161.1790  200.9900  149.0490 C   0  0  0  0  0  0  0  0  0  0  0  0
  161.2790  204.7220  148.7210 C   0  0  0  0  0  0  0  0  0  0  0  0
  161.3570  204.9990  147.2470 C   0  0  0  0  0  0  0  0  0  0  0  0
  161.7380  204.2840  144.8860 N   0  0  0  0  0  0  0  0  0  0  0  0
  161.2360  203.4170  149.2710 C   0  0  0  0  0  0  0  0  0  0  0  0
  161.1270  200.8550  150.4370 C   0  0  0  0  0  3  0  0  0  0  0  0
  161.9900  203.9990  146.3010 C   0  0  0  0  0  2  0  0  0  0  0  0
  161.1570  205.6180  150.9890 C   0  0  0  0  0  0  0  0  0  0  0  0
  161.1820  199.8900  148.2610 F   0  0  0  0  0  0  0  0  0  0  0  0
  160.5250  207.2890  147.7060 C   0  0  0  0  0  2  0  0  0  0  0  0
  161.3730  205.4520  144.4540 C   0  0  0  0  0  0  0  0  0  0  0  0
  161.1330  204.3550  151.4840 N   0  0  0  0  0  0  0  0  0  0  0  0
  161.2070  205.8280  149.6010 C   0  0  0  0  0  0  0  0  0  0  0  0
  161.2300  202.2620  148.4720 C   0  0  0  0  0  3  0  0  0  0  0  0
  161.2060  205.6710  143.0590 N   0  0  0  0  0  1  0  0  0  0  0  0
  161.1670  203.2650  150.6780 C   0  0  0  0  0  0  0  0  0  0  0  0
  161.1190  201.9890  151.2500 C   0  0  0  0  0  3  0  0  0  0  0  0
  161.2550  207.2260  149.0430 C   0  0  0  0  0  2  0  0  0  0  0  0
  161.0360  206.2240  146.7820 C   0  0  0  0  0  0  0  0  0  0  0  0
  161.0730  206.4940  145.3790 N   0  0  0  0  0  2  0  0  0  0  0  0
  161.0900  206.7650  151.9430 C   0  0  0  0  0  2  0  0  0  0  0  0
  161.1970  206.2610  153.3720 C   0  0  0  0  0  2  0  0  0  0  0  0
  161.0240  207.4120  154.3480 C   0  0  0  0  0  2  0  0  0  0  0  0
  161.1100  208.7580  153.6370 C   0  0  0  0  0  2  0  0  0  0  0  0
  160.8370  209.9260  154.5780 C   0  0  0  0  0  2  0  0  0  0  0  0
  159.3650  212.5600  152.1460 C   0  0  0  0  0  0  0  0  0  0  0  0
  158.7280  211.0280  154.5350 O   0  0  0  0  0  0  0  0  0  0  0  0
  158.2090  212.8180  152.5750 O   0  0  0  0  0  0  0  0  0  0  0  0
  159.8660  213.2560  150.9330 C   0  0  0  0  0  1  0  0  0  0  0  0
  159.8500  210.8720  153.9830 C   0  0  0  0  0  0  0  0  0  0  0  0
  160.2050  211.6090  152.8080 N   0  0  0  0  0  2  0  0  0  0  0  0
  1  6  1  0  0  0  0
  2  5  2  0  0  0  0
  2 13  1  0  0  0  0
  3  2  1  0  0  0  0
  4  7  1  0  0  0  0
  5 16  1  0  0  0  0
  6 17  2  0  0  0  0
  7  3  1  0  0  0  0
  8 12  1  0  0  0  0
  8 21  1  0  0  0  0
  9  1  1  0  0  0  0
 10 18  1  0  0  0  0
 11  4  2  0  0  0  0
 11 20  1  0  0  0  0
 13  8  2  0  0  0  0
 14  1  2  0  0  0  0
 14  5  1  0  0  0  0
 15 11  1  0  0  0  0
 16 17  1  0  0  0  0
 16 12  2  0  0  0  0
 18 13  1  0  0  0  0
 19  3  2  0  0  0  0
 19 10  1  0  0  0  0
 20 19  1  0  0  0  0
 21 22  1  0  0  0  0
 22 23  1  0  0  0  0
 24 23  1  0  0  0  0
 24 25  1  0  0  0  0
 26 28  2  0  0  0  0
 26 31  1  0  0  0  0
 29 26  1  0  0  0  0
 30 27  2  0  0  0  0
 30 25  1  0  0  0  0
 31 30  1  0  0  0  0
M  END
>  <MODEL>
8

>  <REMARK>
 VINA RESULT:      -8.8      4.260      8.925
  Name = 
  6 active torsions:
  status: ('A' for Active; 'I' for Inactive)
    1  A    between atoms: C_3  and  C_19
    2  A    between atoms: C_3  and  C_22
    3  A    between atoms: C_7  and  C_9
    4  A    between atoms: C_7  and  C_22
    5  A    between atoms: C_9  and  C_23
    6  A    between atoms: C_15  and  C_23
                            x       y       z     vdW  Elec       q    Type
                         _______ _______ _______ _____ _____    ______ ____

>  <TORSDO>
F 6

$$$$
=
 OpenBabel11052422323D

 31 34  0  0  0  0  0  0  0  0999 V2000
  160.9040  201.3640  149.7690 C   0  0  0  0  0  0  0  0  0  0  0  0
  161.3580  205.0230  149.0980 C   0  0  0  0  0  0  0  0  0  0  0  0
  161.4230  205.1570  147.6040 C   0  0  0  0  0  0  0  0  0  0  0  0
  161.6680  204.2000  145.3120 N   0  0  0  0  0  0  0  0  0  0  0  0
  161.2030  203.7820  149.7670 C   0  0  0  0  0  0  0  0  0  0  0  0
  160.8760  201.3590  151.1640 C   0  0  0  0  0  3  0  0  0  0  0  0
  161.9290  204.0190  146.7430 C   0  0  0  0  0  2  0  0  0  0  0  0
  161.3860  206.1260  151.2770 C   0  0  0  0  0  0  0  0  0  0  0  0
  160.7770  200.2020  149.0850 F   0  0  0  0  0  0  0  0  0  0  0  0
  160.8310  207.5500  147.8670 C   0  0  0  0  0  2  0  0  0  0  0  0
  161.4080  205.3540  144.7810 C   0  0  0  0  0  0  0  0  0  0  0  0
  161.2520  204.9210  151.8850 N   0  0  0  0  0  0  0  0  0  0  0  0
  161.4190  206.2050  149.8740 C   0  0  0  0  0  0  0  0  0  0  0  0
  161.0630  202.5670  149.0770 C   0  0  0  0  0  3  0  0  0  0  0  0
  161.2250  205.4640  143.3750 N   0  0  0  0  0  1  0  0  0  0  0  0
  161.1580  203.7650  151.1820 C   0  0  0  0  0  0  0  0  0  0  0  0
  161.0010  202.5570  151.8700 C   0  0  0  0  0  3  0  0  0  0  0  0
  161.5880  207.5350  149.1900 C   0  0  0  0  0  2  0  0  0  0  0  0
  161.2110  206.3620  147.0350 C   0  0  0  0  0  0  0  0  0  0  0  0
  161.2360  206.5000  145.6130 N   0  0  0  0  0  2  0  0  0  0  0  0
  161.4560  207.3540  152.1220 C   0  0  0  0  0  2  0  0  0  0  0  0
  161.0240  207.0340  153.5430 C   0  0  0  0  0  2  0  0  0  0  0  0
  160.9000  208.3130  154.3540 C   0  0  0  0  0  2  0  0  0  0  0  0
  160.6270  209.5140  153.4540 C   0  0  0  0  0  2  0  0  0  0  0  0
  161.0920  210.8220  154.0830 C   0  0  0  0  0  2  0  0  0  0  0  0
  157.5100  211.5730  155.3580 C   0  0  0  0  0  0  0  0  0  0  0  0
  160.2950  212.3090  155.7620 O   0  0  0  0  0  0  0  0  0  0  0  0
  157.6390  212.4460  156.2580 O   0  0  0  0  0  0  0  0  0  0  0  0
  156.1530  211.0780  155.0110 C   0  0  0  0  0  1  0  0  0  0  0  0
  160.0060  211.4390  154.8980 C   0  0  0  0  0  0  0  0  0  0  0  0
  158.6480  211.0500  154.6650 N   0  0  0  0  0  2  0  0  0  0  0  0
  1  6  1  0  0  0  0
  2  5  2  0  0  0  0
  2 13  1  0  0  0  0
  3  2  1  0  0  0  0
  4  7  1  0  0  0  0
  5 16  1  0  0  0  0
  6 17  2  0  0  0  0
  7  3  1  0  0  0  0
  8 12  1  0  0  0  0
  8 21  1  0  0  0  0
  9  1  1  0  0  0  0
 10 18  1  0  0  0  0
 11  4  2  0  0  0  0
 11 20  1  0  0  0  0
 13  8  2  0  0  0  0
 14  5  1  0  0  0  0
 14  1  2  0  0  0  0
 15 11  1  0  0  0  0
 16 17  1  0  0  0  0
 16 12  2  0  0  0  0
 18 13  1  0  0  0  0
 19  3  2  0  0  0  0
 19 10  1  0  0  0  0
 20 19  1  0  0  0  0
 21 22  1  0  0  0  0
 22 23  1  0  0  0  0
 24 25  1  0  0  0  0
 24 23  1  0  0  0  0
 25 30  1  0  0  0  0
 26 28  2  0  0  0  0
 29 26  1  0  0  0  0
 30 27  2  0  0  0  0
 31 30  1  0  0  0  0
 31 26  1  0  0  0  0
M  END
>  <MODEL>
9

>  <REMARK>
 VINA RESULT:      -8.5      4.588      9.298
  Name = 
  6 active torsions:
  status: ('A' for Active; 'I' for Inactive)
    1  A    between atoms: C_3  and  C_19
    2  A    between atoms: C_3  and  C_22
    3  A    between atoms: C_7  and  C_9
    4  A    between atoms: C_7  and  C_22
    5  A    between atoms: C_9  and  C_23
    6  A    between atoms: C_15  and  C_23
                            x       y       z     vdW  Elec       q    Type
                         _______ _______ _______ _____ _____    ______ ____

>  <TORSDO>
F 6

$$$$
