=
 OpenBabel11052422183D

 25 28  0  0  1  0  0  0  0  0999 V2000
  161.3340  205.5360  149.4700 C   0  0  0  0  0  0  0  0  0  0  0  0
  161.3660  206.6640  150.2960 C   0  0  0  0  0  0  0  0  0  0  0  0
  161.6590  206.8260  147.5130 N   0  0  0  0  0  0  0  0  0  0  0  0
  161.1700  204.1910  149.7170 C   0  0  0  0  0  0  0  0  0  0  0  0
  161.1600  207.3210  152.7640 C   0  0  0  0  0  0  0  0  0  0  0  0
  160.9050  201.4400  149.5480 C   0  0  0  0  0  3  0  0  0  0  0  0
  161.7020  207.9310  148.2630 N   0  0  0  0  0  0  0  0  0  0  0  0
  161.2290  203.5660  148.4870 C   0  0  0  0  0  0  0  0  0  0  0  0
  161.0990  202.1830  148.3700 C   0  0  0  0  0  3  0  0  0  0  0  0
  161.5850  209.2490  150.3480 C   0  0  2  0  0  3  0  0  0  0  0  0
  162.2730  210.3410  149.5420 C   0  0  0  0  0  1  0  0  0  0  0  0
  161.2120  206.4420  151.7580 C   0  0  0  0  0  3  0  0  0  0  0  0
  160.8450  202.0820  150.8030 C   0  0  0  0  0  3  0  0  0  0  0  0
  161.4800  205.6300  148.1100 C   0  0  0  0  0  0  0  0  0  0  0  0
  161.4200  204.4390  147.4730 N   0  0  0  0  0  2  0  0  0  0  0  0
  162.2180  209.1630  151.6480 N   0  0  0  0  0  2  0  0  0  0  0  0
  160.9790  203.4780  150.9000 C   0  0  0  0  0  3  0  0  0  0  0  0
  161.1560  208.7940  152.5600 C   0  0  0  0  0  2  0  0  0  0  0  0
  161.5860  207.9160  149.6320 C   0  0  0  0  0  0  0  0  0  0  0  0
  161.0190  206.8170  154.1760 C   0  0  0  0  0  2  0  0  0  0  0  0
  159.5040  207.3040  155.9350 C   0  0  0  0  0  1  0  0  0  0  0  0
  160.6150  207.8460  155.1550 N   0  0  0  0  0  0  0  0  0  0  0  0
  161.6950  208.1630  156.0180 N   0  0  0  0  0  0  0  0  0  0  0  0
  161.3860  207.7140  157.2610 O   0  0  0  0  0  1  0  0  0  0  0  0
  161.7600  209.6140  156.1430 C   0  0  0  0  0  1  0  0  0  0  0  0
  1  4  1  0  0  0  0
  1  2  2  0  0  0  0
  2 12  1  0  0  0  0
  3 14  2  0  0  0  0
  3  7  1  0  0  0  0
  4 17  1  0  0  0  0
  5 20  1  0  0  0  0
  6 13  1  0  0  0  0
  7 19  2  0  0  0  0
  8  4  2  0  0  0  0
  9  8  1  0  0  0  0
  9  6  2  0  0  0  0
 10 11  1  6  0  0  0
 10 16  1  0  0  0  0
 12  5  2  0  0  0  0
 13 17  2  0  0  0  0
 14  1  1  0  0  0  0
 15 14  1  0  0  0  0
 15  8  1  0  0  0  0
 16 18  1  0  0  0  0
 18  5  1  0  0  0  0
 19  2  1  0  0  0  0
 19 10  1  0  0  0  0
 20 22  1  0  0  0  0
 22 21  1  0  0  0  0
 22 23  1  0  0  0  0
 23 25  1  0  0  0  0
 23 24  1  0  0  0  0
M  END
>  <MODEL>
1

>  <REMARK>
 VINA RESULT:      -9.8      0.000      0.000
  Name = 
  3 active torsions:
  status: ('A' for Active; 'I' for Inactive)
    1  A    between atoms: N_2  and  N_25
    2  A    between atoms: C_6  and  C_15
    3  A    between atoms: C_15  and  N_25
                            x       y       z     vdW  Elec       q    Type
                         _______ _______ _______ _____ _____    ______ ____

>  <TORSDO>
F 3

$$$$
=
 OpenBabel11052422183D

 25 28  0  0  1  0  0  0  0  0999 V2000
  161.3210  205.5580  150.1380 C   0  0  0  0  0  0  0  0  0  0  0  0
  161.4570  206.8630  150.6220 C   0  0  0  0  0  0  0  0  0  0  0  0
  160.9920  204.6740  152.3080 N   0  0  0  0  0  0  0  0  0  0  0  0
  161.3670  205.0110  148.8750 C   0  0  0  0  0  0  0  0  0  0  0  0
  161.8960  209.2480  149.7940 C   0  0  0  0  0  0  0  0  0  0  0  0
  161.3450  203.3390  146.6680 C   0  0  0  0  0  3  0  0  0  0  0  0
  161.1100  205.9040  152.8150 N   0  0  0  0  0  0  0  0  0  0  0  0
  161.1620  203.6550  149.0380 C   0  0  0  0  0  0  0  0  0  0  0  0
  161.1450  202.7890  147.9470 C   0  0  0  0  0  3  0  0  0  0  0  0
  161.5000  208.3420  152.7530 C   0  0  2  0  0  3  0  0  0  0  0  0
  160.8700  208.3460  154.1380 C   0  0  0  0  0  1  0  0  0  0  0  0
  161.6880  207.9390  149.6210 C   0  0  0  0  0  3  0  0  0  0  0  0
  161.5540  204.7250  146.5060 C   0  0  0  0  0  3  0  0  0  0  0  0
  161.0920  204.4970  150.9750 C   0  0  0  0  0  0  0  0  0  0  0  0
  160.9890  203.3110  150.3340 N   0  0  0  0  0  2  0  0  0  0  0  0
  160.9520  209.4460  151.9910 N   0  0  0  0  0  2  0  0  0  0  0  0
  161.5670  205.5820  147.6190 C   0  0  0  0  0  3  0  0  0  0  0  0
  162.0320  209.8820  151.1320 C   0  0  0  0  0  2  0  0  0  0  0  0
  161.3170  207.0200  152.0400 C   0  0  0  0  0  0  0  0  0  0  0  0
  162.0830  210.1300  148.5880 C   0  0  0  0  0  2  0  0  0  0  0  0
  163.2240  212.1460  148.0790 C   0  0  0  0  0  1  0  0  0  0  0  0
  162.1500  211.5730  148.8900 N   0  0  0  0  0  0  0  0  0  0  0  0
  160.9220  212.2060  148.5720 N   0  0  0  0  0  0  0  0  0  0  0  0
  160.7760  212.1890  147.2230 O   0  0  0  0  0  1  0  0  0  0  0  0
  161.0360  213.6160  148.9240 C   0  0  0  0  0  1  0  0  0  0  0  0
  1  2  2  0  0  0  0
  1 14  1  0  0  0  0
  2 19  1  0  0  0  0
  3  7  1  0  0  0  0
  4  8  1  0  0  0  0
  4  1  1  0  0  0  0
  5 18  1  0  0  0  0
  6  9  1  0  0  0  0
  8 15  1  0  0  0  0
  9  8  2  0  0  0  0
 10 11  1  1  0  0  0
 12  5  2  0  0  0  0
 12  2  1  0  0  0  0
 13  6  2  0  0  0  0
 13 17  1  0  0  0  0
 14  3  2  0  0  0  0
 15 14  1  0  0  0  0
 16 10  1  0  0  0  0
 17  4  2  0  0  0  0
 18 16  1  0  0  0  0
 19 10  1  0  0  0  0
 19  7  2  0  0  0  0
 20 22  1  0  0  0  0
 20  5  1  0  0  0  0
 21 22  1  0  0  0  0
 23 22  1  0  0  0  0
 23 25  1  0  0  0  0
 24 23  1  0  0  0  0
M  END
>  <MODEL>
2

>  <REMARK>
 VINA RESULT:      -9.2      3.018      5.120
  Name = 
  3 active torsions:
  status: ('A' for Active; 'I' for Inactive)
    1  A    between atoms: N_2  and  N_25
    2  A    between atoms: C_6  and  C_15
    3  A    between atoms: C_15  and  N_25
                            x       y       z     vdW  Elec       q    Type
                         _______ _______ _______ _____ _____    ______ ____

>  <TORSDO>
F 3

$$$$
=
 OpenBabel11052422183D

 25 28  0  0  1  0  0  0  0  0999 V2000
  161.2340  204.5230  150.8460 C   0  0  0  0  0  0  0  0  0  0  0  0
  161.4280  205.8660  150.5090 C   0  0  0  0  0  0  0  0  0  0  0  0
  161.2640  204.9880  153.1650 N   0  0  0  0  0  0  0  0  0  0  0  0
  161.0870  203.3750  150.0980 C   0  0  0  0  0  0  0  0  0  0  0  0
  161.6980  207.3760  148.4570 C   0  0  0  0  0  0  0  0  0  0  0  0
  160.7390  200.7790  149.2000 C   0  0  0  0  0  3  0  0  0  0  0  0
  161.4450  206.2840  152.8920 N   0  0  0  0  0  0  0  0  0  0  0  0
  160.9290  202.3460  151.0050 C   0  0  0  0  0  0  0  0  0  0  0  0
  160.7520  201.0300  150.5830 C   0  0  0  0  0  3  0  0  0  0  0  0
  161.7870  208.2580  151.4480 C   0  0  2  0  0  3  0  0  0  0  0  0
  161.3850  209.0620  152.6750 C   0  0  0  0  0  1  0  0  0  0  0  0
  161.4830  206.2040  149.0620 C   0  0  0  0  0  3  0  0  0  0  0  0
  160.9020  201.8330  148.2760 C   0  0  0  0  0  3  0  0  0  0  0  0
  161.1550  204.1080  152.1500 C   0  0  0  0  0  0  0  0  0  0  0  0
  160.9680  202.7760  152.2860 N   0  0  0  0  0  2  0  0  0  0  0  0
  161.1110  208.8070  150.2900 N   0  0  0  0  0  2  0  0  0  0  0  0
  161.0790  203.1540  148.7210 C   0  0  0  0  0  3  0  0  0  0  0  0
  162.0360  208.6240  149.1920 C   0  0  0  0  0  2  0  0  0  0  0  0
  161.5120  206.7790  151.6110 C   0  0  0  0  0  0  0  0  0  0  0  0
  161.6800  207.4430  146.9520 C   0  0  0  0  0  2  0  0  0  0  0  0
  160.1490  206.3400  145.5150 C   0  0  0  0  0  1  0  0  0  0  0  0
  161.3780  206.1600  146.2870 N   0  0  0  0  0  0  0  0  0  0  0  0
  162.4370  205.7870  145.4210 N   0  0  0  0  0  0  0  0  0  0  0  0
  161.8950  205.2160  144.3150 O   0  0  0  0  0  1  0  0  0  0  0  0
  163.1940  204.7210  146.0660 C   0  0  0  0  0  1  0  0  0  0  0  0
  1 14  1  0  0  0  0
  2  1  2  0  0  0  0
  2 19  1  0  0  0  0
  4  1  1  0  0  0  0
  4  8  1  0  0  0  0
  5 12  2  0  0  0  0
  5 18  1  0  0  0  0
  6  9  1  0  0  0  0
  7  3  1  0  0  0  0
  8 15  1  0  0  0  0
  9  8  2  0  0  0  0
 10 19  1  0  0  0  0
 10 11  1  1  0  0  0
 12  2  1  0  0  0  0
 13 17  1  0  0  0  0
 13  6  2  0  0  0  0
 14 15  1  0  0  0  0
 14  3  2  0  0  0  0
 16 10  1  0  0  0  0
 17  4  2  0  0  0  0
 18 16  1  0  0  0  0
 19  7  2  0  0  0  0
 20  5  1  0  0  0  0
 21 22  1  0  0  0  0
 22 20  1  0  0  0  0
 23 25  1  0  0  0  0
 23 22  1  0  0  0  0
 24 23  1  0  0  0  0
M  END
>  <MODEL>
3

>  <REMARK>
 VINA RESULT:      -9.1      3.263      5.870
  Name = 
  3 active torsions:
  status: ('A' for Active; 'I' for Inactive)
    1  A    between atoms: N_2  and  N_25
    2  A    between atoms: C_6  and  C_15
    3  A    between atoms: C_15  and  N_25
                            x       y       z     vdW  Elec       q    Type
                         _______ _______ _______ _____ _____    ______ ____

>  <TORSDO>
F 3

$$$$
=
 OpenBabel11052422183D

 25 28  0  0  1  0  0  0  0  0999 V2000
  161.2140  204.5190  149.7080 C   0  0  0  0  0  0  0  0  0  0  0  0
  161.3930  205.7430  150.3600 C   0  0  0  0  0  0  0  0  0  0  0  0
  160.7900  203.3780  151.7370 N   0  0  0  0  0  0  0  0  0  0  0  0
  161.2690  204.1380  148.3850 C   0  0  0  0  0  0  0  0  0  0  0  0
  161.9570  208.1920  149.8590 C   0  0  0  0  0  0  0  0  0  0  0  0
  161.2330  202.7680  145.9790 C   0  0  0  0  0  3  0  0  0  0  0  0
  160.9470  204.5260  152.4020 N   0  0  0  0  0  0  0  0  0  0  0  0
  161.0020  202.7830  148.3660 C   0  0  0  0  0  0  0  0  0  0  0  0
  160.9770  202.0670  147.1710 C   0  0  0  0  0  3  0  0  0  0  0  0
  161.4440  206.9310  152.6660 C   0  0  2  0  0  3  0  0  0  0  0  0
  160.7790  206.7850  154.0260 C   0  0  0  0  0  1  0  0  0  0  0  0
  161.6970  206.9270  149.5130 C   0  0  0  0  0  3  0  0  0  0  0  0
  161.5070  204.1520  146.0030 C   0  0  0  0  0  3  0  0  0  0  0  0
  160.9170  203.3700  150.3950 C   0  0  0  0  0  0  0  0  0  0  0  0
  160.7800  202.2830  149.6020 N   0  0  0  0  0  2  0  0  0  0  0  0
  160.9650  208.1480  152.0420 N   0  0  0  0  0  2  0  0  0  0  0  0
  161.5270  204.8570  147.2190 C   0  0  0  0  0  3  0  0  0  0  0  0
  162.0850  208.6410  151.2700 C   0  0  0  0  0  2  0  0  0  0  0  0
  161.2230  205.7220  151.7830 C   0  0  0  0  0  0  0  0  0  0  0  0
  162.2130  209.2120  148.7810 C   0  0  0  0  0  2  0  0  0  0  0  0
  162.0660  211.1200  150.1840 C   0  0  0  0  0  1  0  0  0  0  0  0
  161.5160  210.4990  148.9790 N   0  0  0  0  0  0  0  0  0  0  0  0
  161.7220  211.3520  147.8650 N   0  0  0  0  0  0  0  0  0  0  0  0
  162.9520  211.9130  147.9860 O   0  0  0  0  0  1  0  0  0  0  0  0
  160.7850  212.4640  147.9710 C   0  0  0  0  0  1  0  0  0  0  0  0
  1  2  2  0  0  0  0
  1 14  1  0  0  0  0
  2 19  1  0  0  0  0
  3  7  1  0  0  0  0
  4  1  1  0  0  0  0
  5 18  1  0  0  0  0
  6 13  2  0  0  0  0
  6  9  1  0  0  0  0
  8  4  1  0  0  0  0
  8 15  1  0  0  0  0
  9  8  2  0  0  0  0
 10 11  1  1  0  0  0
 12  5  2  0  0  0  0
 12  2  1  0  0  0  0
 13 17  1  0  0  0  0
 14  3  2  0  0  0  0
 15 14  1  0  0  0  0
 16 10  1  0  0  0  0
 17  4  2  0  0  0  0
 18 16  1  0  0  0  0
 19  7  2  0  0  0  0
 19 10  1  0  0  0  0
 20 22  1  0  0  0  0
 20  5  1  0  0  0  0
 22 21  1  0  0  0  0
 23 25  1  0  0  0  0
 23 24  1  0  0  0  0
 23 22  1  0  0  0  0
M  END
>  <MODEL>
4

>  <REMARK>
 VINA RESULT:      -8.5      2.890      4.960
  Name = 
  3 active torsions:
  status: ('A' for Active; 'I' for Inactive)
    1  A    between atoms: N_2  and  N_25
    2  A    between atoms: C_6  and  C_15
    3  A    between atoms: C_15  and  N_25
                            x       y       z     vdW  Elec       q    Type
                         _______ _______ _______ _____ _____    ______ ____

>  <TORSDO>
F 3

$$$$
=
 OpenBabel11052422183D

 25 28  0  0  1  0  0  0  0  0999 V2000
  161.2880  205.3030  150.6610 C   0  0  0  0  0  0  0  0  0  0  0  0
  161.1230  204.1600  149.8720 C   0  0  0  0  0  0  0  0  0  0  0  0
  160.9150  204.1040  152.6660 N   0  0  0  0  0  0  0  0  0  0  0  0
  161.5600  206.6210  150.3660 C   0  0  0  0  0  0  0  0  0  0  0  0
  161.1270  203.4290  147.4160 C   0  0  0  0  0  0  0  0  0  0  0  0
  162.0770  209.3400  150.4410 C   0  0  0  0  0  3  0  0  0  0  0  0
  160.7550  202.9840  151.9530 N   0  0  0  0  0  0  0  0  0  0  0  0
  161.6030  207.2830  151.5780 C   0  0  0  0  0  0  0  0  0  0  0  0
  161.8610  208.6500  151.6470 C   0  0  0  0  0  3  0  0  0  0  0  0
  160.5930  201.6210  149.9010 C   0  0  2  0  0  3  0  0  0  0  0  0
  160.8000  200.4340  150.8300 C   0  0  0  0  0  1  0  0  0  0  0  0
  161.2720  204.3210  148.4010 C   0  0  0  0  0  3  0  0  0  0  0  0
  162.0330  208.6610  149.2060 C   0  0  0  0  0  3  0  0  0  0  0  0
  161.1850  205.2600  152.0270 C   0  0  0  0  0  0  0  0  0  0  0  0
  161.3720  206.4580  152.6240 N   0  0  0  0  0  2  0  0  0  0  0  0
  161.4200  201.4410  148.7250 N   0  0  0  0  0  2  0  0  0  0  0  0
  161.7720  207.2810  149.1560 C   0  0  0  0  0  3  0  0  0  0  0  0
  160.6670  202.0330  147.6410 C   0  0  0  0  0  2  0  0  0  0  0  0
  160.8660  202.9430  150.5840 C   0  0  0  0  0  0  0  0  0  0  0  0
  161.3610  203.8600  145.9920 C   0  0  0  0  0  2  0  0  0  0  0  0
  163.4520  204.7280  145.2830 C   0  0  0  0  0  1  0  0  0  0  0  0
  162.1560  205.0970  145.8500 N   0  0  0  0  0  0  0  0  0  0  0  0
  161.5000  206.0120  144.9880 N   0  0  0  0  0  0  0  0  0  0  0  0
  160.2820  206.2920  145.5190 O   0  0  0  0  0  1  0  0  0  0  0  0
  161.2190  205.3270  143.7320 C   0  0  0  0  0  1  0  0  0  0  0  0
  1 14  1  0  0  0  0
  2 19  1  0  0  0  0
  2  1  2  0  0  0  0
  4  1  1  0  0  0  0
  4  8  1  0  0  0  0
  5 18  1  0  0  0  0
  5 12  2  0  0  0  0
  6  9  1  0  0  0  0
  7  3  1  0  0  0  0
  8  9  2  0  0  0  0
  8 15  1  0  0  0  0
 10 19  1  0  0  0  0
 10 11  1  1  0  0  0
 12  2  1  0  0  0  0
 13  6  2  0  0  0  0
 14 15  1  0  0  0  0
 14  3  2  0  0  0  0
 16 10  1  0  0  0  0
 17 13  1  0  0  0  0
 17  4  2  0  0  0  0
 18 16  1  0  0  0  0
 19  7  2  0  0  0  0
 20  5  1  0  0  0  0
 21 22  1  0  0  0  0
 22 20  1  0  0  0  0
 23 24  1  0  0  0  0
 23 22  1  0  0  0  0
 25 23  1  0  0  0  0
M  END
>  <MODEL>
5

>  <REMARK>
 VINA RESULT:      -8.4      3.259      7.681
  Name = 
  3 active torsions:
  status: ('A' for Active; 'I' for Inactive)
    1  A    between atoms: N_2  and  N_25
    2  A    between atoms: C_6  and  C_15
    3  A    between atoms: C_15  and  N_25
                            x       y       z     vdW  Elec       q    Type
                         _______ _______ _______ _____ _____    ______ ____

>  <TORSDO>
F 3

$$$$
=
 OpenBabel11052422183D

 25 28  0  0  1  0  0  0  0  0999 V2000
  161.1260  206.5800  152.1060 C   0  0  0  0  0  0  0  0  0  0  0  0
  161.0690  205.6710  151.0440 C   0  0  0  0  0  0  0  0  0  0  0  0
  160.9460  204.8630  153.7250 N   0  0  0  0  0  0  0  0  0  0  0  0
  161.2410  207.9510  152.1690 C   0  0  0  0  0  0  0  0  0  0  0  0
  161.0860  205.6140  148.4830 C   0  0  0  0  0  0  0  0  0  0  0  0
  161.4520  210.5970  152.9580 C   0  0  0  0  0  3  0  0  0  0  0  0
  160.8920  203.9580  152.7420 N   0  0  0  0  0  0  0  0  0  0  0  0
  161.2420  208.2730  153.5130 C   0  0  0  0  0  0  0  0  0  0  0  0
  161.3470  209.5950  153.9400 C   0  0  0  0  0  3  0  0  0  0  0  0
  160.8270  203.1690  150.4030 C   0  0  2  0  0  3  0  0  0  0  0  0
  161.1920  201.8130  150.9880 C   0  0  0  0  0  1  0  0  0  0  0  0
  161.1570  206.2280  149.6680 C   0  0  0  0  0  3  0  0  0  0  0  0
  161.4490  210.2630  151.5870 C   0  0  0  0  0  3  0  0  0  0  0  0
  161.0660  206.1690  153.4130 C   0  0  0  0  0  0  0  0  0  0  0  0
  161.1340  207.1830  154.3050 N   0  0  0  0  0  2  0  0  0  0  0  0
  161.6360  203.3990  149.2240 N   0  0  0  0  0  2  0  0  0  0  0  0
  161.3430  208.9240  151.1760 C   0  0  0  0  0  3  0  0  0  0  0  0
  160.7920  204.1640  148.3320 C   0  0  0  0  0  2  0  0  0  0  0  0
  160.9690  204.2890  151.4100 C   0  0  0  0  0  0  0  0  0  0  0  0
  161.2320  206.4260  147.2230 C   0  0  0  0  0  2  0  0  0  0  0  0
  159.9750  206.2010  145.2230 C   0  0  0  0  0  1  0  0  0  0  0  0
  161.1000  205.6470  145.9750 N   0  0  0  0  0  0  0  0  0  0  0  0
  162.2850  205.7420  145.2020 N   0  0  0  0  0  0  0  0  0  0  0  0
  161.9710  205.4550  143.9130 O   0  0  0  0  0  1  0  0  0  0  0  0
  163.1840  204.6740  145.6220 C   0  0  0  0  0  1  0  0  0  0  0  0
  1  4  1  0  0  0  0
  1 14  1  0  0  0  0
  2 19  1  0  0  0  0
  2  1  2  0  0  0  0
  4  8  1  0  0  0  0
  5 12  2  0  0  0  0
  6  9  1  0  0  0  0
  7  3  1  0  0  0  0
  8  9  2  0  0  0  0
  8 15  1  0  0  0  0
 10 11  1  1  0  0  0
 10 19  1  0  0  0  0
 12  2  1  0  0  0  0
 13  6  2  0  0  0  0
 14  3  2  0  0  0  0
 14 15  1  0  0  0  0
 16 10  1  0  0  0  0
 17 13  1  0  0  0  0
 17  4  2  0  0  0  0
 18  5  1  0  0  0  0
 18 16  1  0  0  0  0
 19  7  2  0  0  0  0
 20  5  1  0  0  0  0
 21 22  1  0  0  0  0
 22 20  1  0  0  0  0
 23 25  1  0  0  0  0
 23 22  1  0  0  0  0
 24 23  1  0  0  0  0
M  END
>  <MODEL>
6

>  <REMARK>
 VINA RESULT:      -8.1      3.293      7.621
  Name = 
  3 active torsions:
  status: ('A' for Active; 'I' for Inactive)
    1  A    between atoms: N_2  and  N_25
    2  A    between atoms: C_6  and  C_15
    3  A    between atoms: C_15  and  N_25
                            x       y       z     vdW  Elec       q    Type
                         _______ _______ _______ _____ _____    ______ ____

>  <TORSDO>
F 3

$$$$
=
 OpenBabel11052422183D

 25 28  0  0  1  0  0  0  0  0999 V2000
  161.1130  206.2900  151.2550 C   0  0  0  0  0  0  0  0  0  0  0  0
  161.0580  207.3170  152.2030 C   0  0  0  0  0  0  0  0  0  0  0  0
  161.1620  204.6100  152.9200 N   0  0  0  0  0  0  0  0  0  0  0  0
  161.1330  206.2790  149.8770 C   0  0  0  0  0  0  0  0  0  0  0  0
  160.9770  209.8740  152.3530 C   0  0  0  0  0  0  0  0  0  0  0  0
  161.1980  205.5890  147.1960 C   0  0  0  0  0  3  0  0  0  0  0  0
  161.1050  205.5570  153.8610 N   0  0  0  0  0  0  0  0  0  0  0  0
  161.1930  204.9490  149.5070 C   0  0  0  0  0  0  0  0  0  0  0  0
  161.2270  204.5720  148.1670 C   0  0  0  0  0  3  0  0  0  0  0  0
  161.0410  207.8650  154.7390 C   0  0  2  0  0  3  0  0  0  0  0  0
  160.5590  207.2210  156.0300 C   0  0  0  0  0  1  0  0  0  0  0  0
  160.9930  208.7120  151.6920 C   0  0  0  0  0  3  0  0  0  0  0  0
  161.1370  206.9460  147.5790 C   0  0  0  0  0  3  0  0  0  0  0  0
  161.1610  204.9700  151.6210 C   0  0  0  0  0  0  0  0  0  0  0  0
  161.2130  204.1170  150.5730 N   0  0  0  0  0  2  0  0  0  0  0  0
  160.2320  209.0370  154.4740 N   0  0  0  0  0  2  0  0  0  0  0  0
  161.1040  207.3070  148.9360 C   0  0  0  0  0  3  0  0  0  0  0  0
  161.1260  209.9740  153.8290 C   0  0  0  0  0  2  0  0  0  0  0  0
  161.0310  206.8990  153.5730 C   0  0  0  0  0  0  0  0  0  0  0  0
  160.8830  211.1620  151.5780 C   0  0  0  0  0  2  0  0  0  0  0  0
  160.0540  213.3710  151.3410 C   0  0  0  0  0  1  0  0  0  0  0  0
  160.0290  212.1910  152.2030 N   0  0  0  0  0  0  0  0  0  0  0  0
  158.6970  211.7210  152.3320 N   0  0  0  0  0  0  0  0  0  0  0  0
  157.9100  212.4530  151.5040 O   0  0  0  0  0  1  0  0  0  0  0  0
  158.2340  212.0400  153.6770 C   0  0  0  0  0  1  0  0  0  0  0  0
  1 14  1  0  0  0  0
  1  2  2  0  0  0  0
  2 19  1  0  0  0  0
  3  7  1  0  0  0  0
  4  1  1  0  0  0  0
  5 18  1  0  0  0  0
  6 13  2  0  0  0  0
  6  9  1  0  0  0  0
  8  4  1  0  0  0  0
  8 15  1  0  0  0  0
  9  8  2  0  0  0  0
 10 11  1  1  0  0  0
 12  2  1  0  0  0  0
 12  5  2  0  0  0  0
 13 17  1  0  0  0  0
 14  3  2  0  0  0  0
 15 14  1  0  0  0  0
 16 10  1  0  0  0  0
 17  4  2  0  0  0  0
 18 16  1  0  0  0  0
 19  7  2  0  0  0  0
 19 10  1  0  0  0  0
 20 22  1  0  0  0  0
 20  5  1  0  0  0  0
 21 22  1  0  0  0  0
 22 23  1  0  0  0  0
 23 25  1  0  0  0  0
 24 23  1  0  0  0  0
M  END
>  <MODEL>
7

>  <REMARK>
 VINA RESULT:      -8.0      2.801      4.690
  Name = 
  3 active torsions:
  status: ('A' for Active; 'I' for Inactive)
    1  A    between atoms: N_2  and  N_25
    2  A    between atoms: C_6  and  C_15
    3  A    between atoms: C_15  and  N_25
                            x       y       z     vdW  Elec       q    Type
                         _______ _______ _______ _____ _____    ______ ____

>  <TORSDO>
F 3

$$$$
=
 OpenBabel11052422183D

 25 28  0  0  1  0  0  0  0  0999 V2000
  161.2660  208.5820  153.2170 C   0  0  0  0  0  0  0  0  0  0  0  0
  161.3370  207.9170  151.9890 C   0  0  0  0  0  0  0  0  0  0  0  0
  162.0650  210.6070  152.2880 N   0  0  0  0  0  0  0  0  0  0  0  0
  160.8800  208.1920  154.4800 C   0  0  0  0  0  0  0  0  0  0  0  0
  160.9110  205.6110  150.9570 C   0  0  0  0  0  0  0  0  0  0  0  0
  160.2530  208.0430  157.1730 C   0  0  0  0  0  3  0  0  0  0  0  0
  162.1440  210.0140  151.0930 N   0  0  0  0  0  0  0  0  0  0  0  0
  161.0310  209.3030  155.2870 C   0  0  0  0  0  0  0  0  0  0  0  0
  160.7250  209.2580  156.6450 C   0  0  0  0  0  3  0  0  0  0  0  0
  161.9880  208.1440  149.4880 C   0  0  2  0  0  3  0  0  0  0  0  0
  162.0150  209.2290  148.4220 C   0  0  0  0  0  1  0  0  0  0  0  0
  160.9090  206.4930  151.9610 C   0  0  0  0  0  3  0  0  0  0  0  0
  160.1000  206.9110  156.3460 C   0  0  0  0  0  3  0  0  0  0  0  0
  161.6240  209.8990  153.3480 C   0  0  0  0  0  0  0  0  0  0  0  0
  161.4940  210.3750  154.6070 N   0  0  0  0  0  2  0  0  0  0  0  0
  160.9660  207.1770  149.1410 N   0  0  0  0  0  2  0  0  0  0  0  0
  160.4150  206.9750  154.9780 C   0  0  0  0  0  3  0  0  0  0  0  0
  161.4740  205.9070  149.6120 C   0  0  0  0  0  2  0  0  0  0  0  0
  161.7820  208.7050  150.8780 C   0  0  0  0  0  0  0  0  0  0  0  0
  160.3950  204.2170  151.1990 C   0  0  0  0  0  2  0  0  0  0  0  0
  161.6550  202.2440  151.5810 C   0  0  0  0  0  1  0  0  0  0  0  0
  161.1770  203.1520  150.5400 N   0  0  0  0  0  0  0  0  0  0  0  0
  160.3680  202.4400  149.6180 N   0  0  0  0  0  0  0  0  0  0  0  0
  160.3770  201.1300  149.9750 O   0  0  0  0  0  1  0  0  0  0  0  0
  161.0220  202.4830  148.3160 C   0  0  0  0  0  1  0  0  0  0  0  0
  1 14  1  0  0  0  0
  1  4  1  0  0  0  0
  2  1  2  0  0  0  0
  3 14  2  0  0  0  0
  4 17  2  0  0  0  0
  4  8  1  0  0  0  0
  5 20  1  0  0  0  0
  5 12  2  0  0  0  0
  7  3  1  0  0  0  0
  8  9  2  0  0  0  0
  9  6  1  0  0  0  0
 10 11  1  6  0  0  0
 10 19  1  0  0  0  0
 12  2  1  0  0  0  0
 13  6  2  0  0  0  0
 14 15  1  0  0  0  0
 15  8  1  0  0  0  0
 16 10  1  0  0  0  0
 16 18  1  0  0  0  0
 17 13  1  0  0  0  0
 18  5  1  0  0  0  0
 19  7  2  0  0  0  0
 19  2  1  0  0  0  0
 22 20  1  0  0  0  0
 22 21  1  0  0  0  0
 23 24  1  0  0  0  0
 23 22  1  0  0  0  0
 25 23  1  0  0  0  0
M  END
>  <MODEL>
8

>  <REMARK>
 VINA RESULT:      -8.0      2.456      6.538
  Name = 
  3 active torsions:
  status: ('A' for Active; 'I' for Inactive)
    1  A    between atoms: N_2  and  N_25
    2  A    between atoms: C_6  and  C_15
    3  A    between atoms: C_15  and  N_25
                            x       y       z     vdW  Elec       q    Type
                         _______ _______ _______ _____ _____    ______ ____

>  <TORSDO>
F 3

$$$$
=
 OpenBabel11052422183D

 25 28  0  0  1  0  0  0  0  0999 V2000
  161.5030  207.2160  150.8880 C   0  0  0  0  0  0  0  0  0  0  0  0
  161.2610  205.9150  150.4350 C   0  0  0  0  0  0  0  0  0  0  0  0
  161.4580  206.5500  153.1580 N   0  0  0  0  0  0  0  0  0  0  0  0
  161.6900  208.4190  150.2440 C   0  0  0  0  0  0  0  0  0  0  0  0
  160.9350  204.6020  148.2590 C   0  0  0  0  0  0  0  0  0  0  0  0
  162.1310  211.0700  149.5760 C   0  0  0  0  0  3  0  0  0  0  0  0
  161.2310  205.2900  152.7720 N   0  0  0  0  0  0  0  0  0  0  0  0
  161.8870  209.3580  151.2370 C   0  0  0  0  0  0  0  0  0  0  0  0
  162.1100  210.6990  150.9320 C   0  0  0  0  0  3  0  0  0  0  0  0
  160.8170  203.4640  151.1610 C   0  0  2  0  0  3  0  0  0  0  0  0
  161.1910  202.5420  152.3110 C   0  0  0  0  0  1  0  0  0  0  0  0
  161.1920  205.7090  148.9640 C   0  0  0  0  0  3  0  0  0  0  0  0
  161.9300  210.1080  148.5640 C   0  0  0  0  0  3  0  0  0  0  0  0
  161.5980  207.5110  152.2230 C   0  0  0  0  0  0  0  0  0  0  0  0
  161.8330  208.8190  152.4760 N   0  0  0  0  0  2  0  0  0  0  0  0
  161.4710  202.9960  149.9570 N   0  0  0  0  0  2  0  0  0  0  0  0
  161.7060  208.7600  148.8920 C   0  0  0  0  0  3  0  0  0  0  0  0
  160.5530  203.3080  148.8830 C   0  0  0  0  0  2  0  0  0  0  0  0
  161.1450  204.9130  151.4530 C   0  0  0  0  0  0  0  0  0  0  0  0
  160.9490  204.6680  146.7550 C   0  0  0  0  0  2  0  0  0  0  0  0
  160.8770  202.7900  145.3070 C   0  0  0  0  0  1  0  0  0  0  0  0
  161.7710  203.6270  146.1050 N   0  0  0  0  0  0  0  0  0  0  0  0
  162.7500  204.2180  145.2650 N   0  0  0  0  0  0  0  0  0  0  0  0
  163.7490  204.6920  146.0520 O   0  0  0  0  0  1  0  0  0  0  0  0
  162.1590  205.4000  144.6480 C   0  0  0  0  0  1  0  0  0  0  0  0
  1 14  1  0  0  0  0
  2  1  2  0  0  0  0
  2 19  1  0  0  0  0
  4  1  1  0  0  0  0
  4  8  1  0  0  0  0
  5 18  1  0  0  0  0
  5 12  2  0  0  0  0
  6  9  1  0  0  0  0
  7  3  1  0  0  0  0
  8 15  1  0  0  0  0
  9  8  2  0  0  0  0
 10 19  1  0  0  0  0
 10 11  1  1  0  0  0
 12  2  1  0  0  0  0
 13 17  1  0  0  0  0
 13  6  2  0  0  0  0
 14 15  1  0  0  0  0
 14  3  2  0  0  0  0
 16 10  1  0  0  0  0
 17  4  2  0  0  0  0
 18 16  1  0  0  0  0
 19  7  2  0  0  0  0
 20  5  1  0  0  0  0
 21 22  1  0  0  0  0
 22 20  1  0  0  0  0
 23 24  1  0  0  0  0
 23 22  1  0  0  0  0
 25 23  1  0  0  0  0
M  END
>  <MODEL>
9

>  <REMARK>
 VINA RESULT:      -7.5      3.179      7.548
  Name = 
  3 active torsions:
  status: ('A' for Active; 'I' for Inactive)
    1  A    between atoms: N_2  and  N_25
    2  A    between atoms: C_6  and  C_15
    3  A    between atoms: C_15  and  N_25
                            x       y       z     vdW  Elec       q    Type
                         _______ _______ _______ _____ _____    ______ ____

>  <TORSDO>
F 3

$$$$
