=
 OpenBabel11062410443D

 32 38  0  0  1  0  0  0  0  0999 V2000
  162.6540  213.0070  148.6650 C   0  0  1  0  0  3  0  0  0  0  0  0
  161.5370  208.0970  149.9300 C   0  0  0  0  0  0  0  0  0  0  0  0
  161.1070  208.1390  154.7390 C   0  0  0  0  0  3  0  0  0  0  0  0
  160.8730  206.7020  154.7650 C   0  0  0  0  0  3  0  0  0  0  0  0
  161.4610  205.9270  148.7000 C   0  0  0  0  0  0  0  0  0  0  0  0
  161.3250  204.5250  148.7240 C   0  0  0  0  0  0  0  0  0  0  0  0
  161.7880  210.1920  148.5690 C   0  0  1  0  0  3  0  0  0  0  0  0
  161.2080  210.2680  151.0350 C   0  0  0  0  0  2  0  0  0  0  0  0
  161.0270  202.5590  149.5240 C   0  0  0  0  0  0  0  0  0  0  0  0
  161.6150  212.5560  149.6220 C   0  0  2  0  0  3  0  0  0  0  0  0
  161.2350  208.8200  153.4900 C   0  0  0  0  0  3  0  0  0  0  0  0
  161.3230  208.7560  151.1050 N   0  0  0  0  0  0  0  0  0  0  0  0
  161.2140  208.1330  152.2790 C   0  0  0  0  0  0  0  0  0  0  0  0
  161.1020  205.9660  151.0880 C   0  0  0  0  0  0  0  0  0  0  0  0
  161.1940  202.4680  148.2230 N   0  0  0  0  0  0  0  0  0  0  0  0
  163.4970  212.0300  147.8550 C   0  0  0  0  0  2  0  0  0  0  0  0
  161.9610  210.9710  149.8860 C   0  0  2  0  0  3  0  0  0  0  0  0
  161.3740  203.6950  147.6990 N   0  0  0  0  0  0  0  0  0  0  0  0
  162.7470  210.6640  147.4460 C   0  0  0  0  0  2  0  0  0  0  0  0
  161.1850  212.8280  148.2410 C   0  0  1  0  0  3  0  0  0  0  0  0
  160.8930  206.0430  153.5270 C   0  0  0  0  0  3  0  0  0  0  0  0
  161.0470  206.6920  152.2910 C   0  0  0  0  0  0  0  0  0  0  0  0
  161.0100  204.5410  151.1060 C   0  0  0  0  0  3  0  0  0  0  0  0
  161.9900  208.7650  148.7150 C   0  0  0  0  0  2  0  0  0  0  0  0
  161.8050  206.4700  147.4030 O   0  0  0  0  0  1  0  0  0  0  0  0
  160.8250  201.4080  150.4440 C   0  0  0  0  0  1  0  0  0  0  0  0
  161.3640  206.6650  149.9170 C   0  0  0  0  0  0  0  0  0  0  0  0
  161.0900  203.8840  149.9050 C   0  0  0  0  0  0  0  0  0  0  0  0
  161.0880  214.0540  147.6080 O   0  0  0  0  0  0  0  0  0  0  0  0
  160.9380  214.3460  146.2250 C   0  0  0  0  0  0  0  0  0  0  0  0
  159.6200  214.4530  145.6370 C   0  0  0  0  0  1  0  0  0  0  0  0
  161.9780  214.4520  145.5560 O   0  0  0  0  0  0  0  0  0  0  0  0
  1 16  1  6  0  0  0
  1 10  1  0  0  0  0
  2 12  1  0  0  0  0
  3  4  1  0  0  0  0
  5  6  2  0  0  0  0
  5 27  1  0  0  0  0
  6 28  1  0  0  0  0
  7 19  1  6  0  0  0
  7 24  1  0  0  0  0
  7 17  1  0  0  0  0
  8 12  1  0  0  0  0
  9 28  2  0  0  0  0
  9 26  1  0  0  0  0
 10 17  1  0  0  0  0
 11  3  2  0  0  0  0
 12 13  1  0  0  0  0
 13 22  2  0  0  0  0
 13 11  1  0  0  0  0
 14 23  2  0  0  0  0
 14 22  1  0  0  0  0
 15  9  1  0  0  0  0
 17  8  1  0  0  0  0
 18 15  2  0  0  0  0
 18  6  1  0  0  0  0
 19 16  1  0  0  0  0
 20  1  1  0  0  0  0
 20 10  1  0  0  0  0
 21  4  2  0  0  0  0
 22 21  1  0  0  0  0
 24  2  1  0  0  0  0
 25  5  1  0  0  0  0
 27  2  2  0  0  0  0
 27 14  1  0  0  0  0
 28 23  1  0  0  0  0
 29 20  1  0  0  0  0
 30 29  1  0  0  0  0
 31 30  1  0  0  0  0
 32 30  2  0  0  0  0
M  END
>  <MODEL>
1

>  <REMARK>
 VINA RESULT:      -7.9      0.000      0.000
  Name = 
  2 active torsions:
  status: ('A' for Active; 'I' for Inactive)
    1  A    between atoms: C_1  and  O_10
    2  A    between atoms: O_10  and  C_24
                            x       y       z     vdW  Elec       q    Type
                         _______ _______ _______ _____ _____    ______ ____

>  <TORSDO>
F 2

$$$$
=
 OpenBabel11062410443D

 32 38  0  0  1  0  0  0  0  0999 V2000
  161.8060  209.8990  154.3610 C   0  0  1  0  0  3  0  0  0  0  0  0
  161.1140  206.6490  150.3710 C   0  0  0  0  0  0  0  0  0  0  0  0
  161.1620  202.2470  152.3550 C   0  0  0  0  0  3  0  0  0  0  0  0
  161.0170  201.6200  151.0500 C   0  0  0  0  0  3  0  0  0  0  0  0
  161.0450  206.8860  147.8880 C   0  0  0  0  0  0  0  0  0  0  0  0
  160.9960  206.2860  146.6150 C   0  0  0  0  0  0  0  0  0  0  0  0
  161.1030  208.7570  151.7370 C   0  0  1  0  0  3  0  0  0  0  0  0
  160.7680  206.4800  152.7990 C   0  0  0  0  0  2  0  0  0  0  0  0
  160.8960  204.7350  145.1390 C   0  0  0  0  0  0  0  0  0  0  0  0
  160.8960  208.7290  154.3230 C   0  0  2  0  0  3  0  0  0  0  0  0
  161.1250  203.6710  152.4720 C   0  0  0  0  0  3  0  0  0  0  0  0
  160.9790  205.8210  151.4480 N   0  0  0  0  0  0  0  0  0  0  0  0
  161.0240  204.4920  151.3530 C   0  0  0  0  0  0  0  0  0  0  0  0
  160.9240  204.6910  148.8880 C   0  0  0  0  0  0  0  0  0  0  0  0
  160.9380  205.8990  144.5300 N   0  0  0  0  0  0  0  0  0  0  0  0
  162.6210  210.3400  153.1500 C   0  0  0  0  0  2  0  0  0  0  0  0
  161.3600  207.8930  152.9860 C   0  0  2  0  0  3  0  0  0  0  0  0
  160.9920  206.8890  145.4400 N   0  0  0  0  0  0  0  0  0  0  0  0
  161.9160  210.0770  151.7260 C   0  0  0  0  0  2  0  0  0  0  0  0
  160.3160  210.0430  154.0040 C   0  0  1  0  0  3  0  0  0  0  0  0
  160.9540  202.4820  149.9450 C   0  0  0  0  0  3  0  0  0  0  0  0
  160.9450  203.8830  150.0390 C   0  0  0  0  0  0  0  0  0  0  0  0
  160.9190  204.0920  147.5920 C   0  0  0  0  0  3  0  0  0  0  0  0
  161.4040  208.0740  150.4950 C   0  0  0  0  0  2  0  0  0  0  0  0
  161.2260  208.3230  147.8630 O   0  0  0  0  0  1  0  0  0  0  0  0
  160.8550  203.4130  144.4570 C   0  0  0  0  0  1  0  0  0  0  0  0
  161.0260  206.0660  149.0550 C   0  0  0  0  0  0  0  0  0  0  0  0
  160.9180  204.9280  146.5050 C   0  0  0  0  0  0  0  0  0  0  0  0
  160.0830  211.1010  154.8660 O   0  0  0  0  0  0  0  0  0  0  0  0
  159.5790  212.4000  154.5860 C   0  0  0  0  0  0  0  0  0  0  0  0
  159.2080  212.7680  153.2370 C   0  0  0  0  0  1  0  0  0  0  0  0
  159.5260  213.1980  155.5350 O   0  0  0  0  0  0  0  0  0  0  0  0
  1 16  1  6  0  0  0
  2 24  1  0  0  0  0
  2 12  1  0  0  0  0
  3 11  1  0  0  0  0
  4  3  2  0  0  0  0
  5 27  1  0  0  0  0
  6  5  2  0  0  0  0
  7 24  1  6  0  0  0
  7 17  1  0  0  0  0
  8 17  1  0  0  0  0
  9 28  2  0  0  0  0
 10  1  1  0  0  0  0
 12  8  1  0  0  0  0
 13 12  1  0  0  0  0
 13 11  2  0  0  0  0
 14 27  1  0  0  0  0
 14 22  1  0  0  0  0
 15  9  1  0  0  0  0
 15 18  2  0  0  0  0
 17 10  1  0  0  0  0
 18  6  1  0  0  0  0
 19  7  1  0  0  0  0
 19 16  1  0  0  0  0
 20 10  1  0  0  0  0
 20  1  1  0  0  0  0
 20 29  1  0  0  0  0
 21 22  2  0  0  0  0
 21  4  1  0  0  0  0
 22 13  1  0  0  0  0
 23 14  2  0  0  0  0
 25  5  1  0  0  0  0
 26  9  1  0  0  0  0
 27  2  2  0  0  0  0
 28  6  1  0  0  0  0
 28 23  1  0  0  0  0
 30 29  1  0  0  0  0
 30 32  2  0  0  0  0
 31 30  1  0  0  0  0
M  END
>  <MODEL>
2

>  <REMARK>
 VINA RESULT:      -7.8      3.315      5.169
  Name = 
  2 active torsions:
  status: ('A' for Active; 'I' for Inactive)
    1  A    between atoms: C_1  and  O_10
    2  A    between atoms: O_10  and  C_24
                            x       y       z     vdW  Elec       q    Type
                         _______ _______ _______ _____ _____    ______ ____

>  <TORSDO>
F 2

$$$$
=
 OpenBabel11062410443D

 32 38  0  0  1  0  0  0  0  0999 V2000
  160.4460  209.2650  155.4800 C   0  0  1  0  0  3  0  0  0  0  0  0
  161.0980  205.8770  151.6000 C   0  0  0  0  0  0  0  0  0  0  0  0
  161.6430  208.6160  147.6610 C   0  0  0  0  0  3  0  0  0  0  0  0
  161.7330  207.4370  146.8120 C   0  0  0  0  0  3  0  0  0  0  0  0
  160.9290  203.3970  151.3690 C   0  0  0  0  0  0  0  0  0  0  0  0
  160.9250  202.2550  150.5450 C   0  0  0  0  0  0  0  0  0  0  0  0
  161.0250  206.8310  153.9210 C   0  0  1  0  0  3  0  0  0  0  0  0
  161.6680  208.2460  151.9190 C   0  0  0  0  0  2  0  0  0  0  0  0
  161.0440  201.0800  148.7560 C   0  0  0  0  0  0  0  0  0  0  0  0
  161.4570  209.3450  154.3980 C   0  0  2  0  0  3  0  0  0  0  0  0
  161.5530  208.4700  149.0790 C   0  0  0  0  0  3  0  0  0  0  0  0
  161.4040  207.0650  151.0030 N   0  0  0  0  0  0  0  0  0  0  0  0
  161.4780  207.2160  149.6810 C   0  0  0  0  0  0  0  0  0  0  0  0
  161.3450  204.7590  149.4180 C   0  0  0  0  0  0  0  0  0  0  0  0
  160.8390  200.2790  149.7780 N   0  0  0  0  0  0  0  0  0  0  0  0
  159.4920  208.0850  155.6200 C   0  0  0  0  0  2  0  0  0  0  0  0
  160.9610  208.2350  153.2910 C   0  0  2  0  0  3  0  0  0  0  0  0
  160.7700  200.9970  150.9150 N   0  0  0  0  0  0  0  0  0  0  0  0
  160.0920  206.6670  155.1490 C   0  0  0  0  0  2  0  0  0  0  0  0
  161.8790  208.7370  155.6700 C   0  0  1  0  0  3  0  0  0  0  0  0
  161.6180  206.1940  147.4530 C   0  0  0  0  0  3  0  0  0  0  0  0
  161.5010  206.0320  148.8430 C   0  0  0  0  0  0  0  0  0  0  0  0
  161.2950  203.5980  148.5880 C   0  0  0  0  0  3  0  0  0  0  0  0
  160.6850  205.7710  152.9950 C   0  0  0  0  0  2  0  0  0  0  0  0
  160.6100  203.1330  152.7570 O   0  0  0  0  0  1  0  0  0  0  0  0
  161.1520  200.6470  147.3370 C   0  0  0  0  0  1  0  0  0  0  0  0
  161.1270  204.6850  150.7880 C   0  0  0  0  0  0  0  0  0  0  0  0
  161.1230  202.3840  149.2020 C   0  0  0  0  0  0  0  0  0  0  0  0
  162.0840  209.3660  156.8860 O   0  0  0  0  0  0  0  0  0  0  0  0
  162.6170  210.6550  157.1570 C   0  0  0  0  0  0  0  0  0  0  0  0
  161.7430  211.8040  157.2590 C   0  0  0  0  0  1  0  0  0  0  0  0
  163.8510  210.7450  157.2480 O   0  0  0  0  0  0  0  0  0  0  0  0
  1 16  1  6  0  0  0
  1 20  1  0  0  0  0
  2 24  1  0  0  0  0
  3 11  1  0  0  0  0
  4 21  1  0  0  0  0
  4  3  2  0  0  0  0
  5 25  1  0  0  0  0
  6 18  1  0  0  0  0
  6  5  2  0  0  0  0
  7 24  1  6  0  0  0
  7 19  1  0  0  0  0
  8 17  1  0  0  0  0
  9 28  2  0  0  0  0
  9 15  1  0  0  0  0
 10  1  1  0  0  0  0
 10 20  1  0  0  0  0
 11 13  2  0  0  0  0
 12  2  1  0  0  0  0
 12  8  1  0  0  0  0
 13 12  1  0  0  0  0
 14 27  1  0  0  0  0
 15 18  2  0  0  0  0
 17  7  1  0  0  0  0
 17 10  1  0  0  0  0
 19 16  1  0  0  0  0
 20 29  1  0  0  0  0
 21 22  2  0  0  0  0
 22 14  1  0  0  0  0
 22 13  1  0  0  0  0
 23 28  1  0  0  0  0
 23 14  2  0  0  0  0
 26  9  1  0  0  0  0
 27  5  1  0  0  0  0
 27  2  2  0  0  0  0
 28  6  1  0  0  0  0
 29 30  1  0  0  0  0
 30 32  2  0  0  0  0
 30 31  1  0  0  0  0
M  END
>  <MODEL>
3

>  <REMARK>
 VINA RESULT:      -7.5      3.994      6.398
  Name = 
  2 active torsions:
  status: ('A' for Active; 'I' for Inactive)
    1  A    between atoms: C_1  and  O_10
    2  A    between atoms: O_10  and  C_24
                            x       y       z     vdW  Elec       q    Type
                         _______ _______ _______ _____ _____    ______ ____

>  <TORSDO>
F 2

$$$$
=
 OpenBabel11062410443D

 32 38  0  0  1  0  0  0  0  0999 V2000
  162.3160  214.0770  147.0160 C   0  0  1  0  0  3  0  0  0  0  0  0
  160.8340  211.2910  151.1380 C   0  0  0  0  0  0  0  0  0  0  0  0
  158.2690  214.3650  153.8370 C   0  0  0  0  0  3  0  0  0  0  0  0
  158.0740  213.3530  154.8650 C   0  0  0  0  0  3  0  0  0  0  0  0
  161.3620  209.0160  152.0180 C   0  0  0  0  0  0  0  0  0  0  0  0
  161.2560  208.0600  153.0480 C   0  0  0  0  0  0  0  0  0  0  0  0
  161.6380  211.8540  148.8270 C   0  0  1  0  0  3  0  0  0  0  0  0
  160.0010  213.3400  150.0670 C   0  0  0  0  0  2  0  0  0  0  0  0
  160.6620  207.1920  154.9150 C   0  0  0  0  0  0  0  0  0  0  0  0
  160.9650  214.0520  147.6250 C   0  0  2  0  0  3  0  0  0  0  0  0
  158.9380  214.0280  152.6210 C   0  0  0  0  0  3  0  0  0  0  0  0
  160.0980  212.4310  151.2790 N   0  0  0  0  0  0  0  0  0  0  0  0
  159.4800  212.7620  152.4120 C   0  0  0  0  0  0  0  0  0  0  0  0
  159.9590  210.5030  153.3030 C   0  0  0  0  0  0  0  0  0  0  0  0
  161.4020  206.3250  154.2600 N   0  0  0  0  0  0  0  0  0  0  0  0
  163.4520  213.1910  147.5120 C   0  0  0  0  0  2  0  0  0  0  0  0
  161.1820  213.3040  149.0730 C   0  0  2  0  0  3  0  0  0  0  0  0
  161.7780  206.8480  153.0770 N   0  0  0  0  0  0  0  0  0  0  0  0
  162.9930  211.7550  148.0800 C   0  0  0  0  0  2  0  0  0  0  0  0
  161.2030  213.1610  146.4780 C   0  0  1  0  0  3  0  0  0  0  0  0
  158.6660  212.1020  154.6330 C   0  0  0  0  0  3  0  0  0  0  0  0
  159.3510  211.7630  153.4550 C   0  0  0  0  0  0  0  0  0  0  0  0
  159.8940  209.5440  154.3590 C   0  0  0  0  0  3  0  0  0  0  0  0
  161.7770  211.0820  150.0450 C   0  0  0  0  0  2  0  0  0  0  0  0
  162.2480  208.6320  150.9380 O   0  0  0  0  0  1  0  0  0  0  0  0
  160.0850  206.9740  156.2690 C   0  0  0  0  0  1  0  0  0  0  0  0
  160.7110  210.2780  152.1570 C   0  0  0  0  0  0  0  0  0  0  0  0
  160.5210  208.3400  154.1630 C   0  0  0  0  0  0  0  0  0  0  0  0
  161.3820  213.5140  145.1520 O   0  0  0  0  0  0  0  0  0  0  0  0
  160.9960  212.8190  143.9730 C   0  0  0  0  0  0  0  0  0  0  0  0
  159.6910  212.2020  143.8780 C   0  0  0  0  0  1  0  0  0  0  0  0
  161.8430  212.7310  143.0700 O   0  0  0  0  0  0  0  0  0  0  0  0
  1 16  1  1  0  0  0
  1 10  1  0  0  0  0
  2 12  1  0  0  0  0
  2 27  2  0  0  0  0
  3  4  1  0  0  0  0
  5 27  1  0  0  0  0
  5  6  2  0  0  0  0
  6 18  1  0  0  0  0
  6 28  1  0  0  0  0
  7 19  1  1  0  0  0
  7 17  1  0  0  0  0
  7 24  1  0  0  0  0
  8 12  1  0  0  0  0
  9 26  1  0  0  0  0
 10 17  1  0  0  0  0
 11  3  2  0  0  0  0
 12 13  1  0  0  0  0
 13 11  1  0  0  0  0
 13 22  2  0  0  0  0
 14 22  1  0  0  0  0
 14 23  2  0  0  0  0
 15  9  1  0  0  0  0
 16 19  1  0  0  0  0
 17  8  1  0  0  0  0
 18 15  2  0  0  0  0
 20  1  1  0  0  0  0
 20 10  1  0  0  0  0
 21  4  2  0  0  0  0
 22 21  1  0  0  0  0
 24  2  1  0  0  0  0
 25  5  1  0  0  0  0
 27 14  1  0  0  0  0
 28 23  1  0  0  0  0
 28  9  2  0  0  0  0
 29 20  1  0  0  0  0
 30 29  1  0  0  0  0
 31 30  1  0  0  0  0
 32 30  2  0  0  0  0
M  END
>  <MODEL>
4

>  <REMARK>
 VINA RESULT:      -6.7      3.352      4.777
  Name = 
  2 active torsions:
  status: ('A' for Active; 'I' for Inactive)
    1  A    between atoms: C_1  and  O_10
    2  A    between atoms: O_10  and  C_24
                            x       y       z     vdW  Elec       q    Type
                         _______ _______ _______ _____ _____    ______ ____

>  <TORSDO>
F 2

$$$$
=
 OpenBabel11062410443D

 32 38  0  0  1  0  0  0  0  0999 V2000
  161.7530  202.2640  147.8890 C   0  0  1  0  0  3  0  0  0  0  0  0
  161.2250  206.2600  151.1610 C   0  0  0  0  0  0  0  0  0  0  0  0
  162.3310  210.1540  148.5280 C   0  0  0  0  0  3  0  0  0  0  0  0
  162.1560  211.0250  149.6800 C   0  0  0  0  0  3  0  0  0  0  0  0
  160.8230  206.4980  153.6120 C   0  0  0  0  0  0  0  0  0  0  0  0
  160.7400  207.3220  154.7520 C   0  0  0  0  0  0  0  0  0  0  0  0
  160.9770  203.9690  150.1630 C   0  0  1  0  0  3  0  0  0  0  0  0
  161.2020  206.0360  148.7130 C   0  0  0  0  0  2  0  0  0  0  0  0
  160.7620  209.1120  155.9300 C   0  0  0  0  0  0  0  0  0  0  0  0
  161.0820  203.5550  147.6050 C   0  0  2  0  0  3  0  0  0  0  0  0
  162.0410  208.7590  148.6360 C   0  0  0  0  0  3  0  0  0  0  0  0
  161.3740  206.8870  149.9580 N   0  0  0  0  0  0  0  0  0  0  0  0
  161.6570  208.1850  149.8450 C   0  0  0  0  0  0  0  0  0  0  0  0
  161.2340  208.4620  152.2680 C   0  0  0  0  0  0  0  0  0  0  0  0
  160.5130  208.0890  156.7170 N   0  0  0  0  0  0  0  0  0  0  0  0
  162.3240  201.9250  149.2610 C   0  0  0  0  0  2  0  0  0  0  0  0
  161.5360  204.5340  148.8440 C   0  0  2  0  0  3  0  0  0  0  0  0
  160.4850  206.9530  155.9940 N   0  0  0  0  0  0  0  0  0  0  0  0
  161.5200  202.5580  150.5050 C   0  0  0  0  0  2  0  0  0  0  0  0
  160.2320  202.4360  148.0400 C   0  0  1  0  0  3  0  0  0  0  0  0
  161.8030  210.4030  150.8880 C   0  0  0  0  0  3  0  0  0  0  0  0
  161.5410  209.0290  151.0180 C   0  0  0  0  0  0  0  0  0  0  0  0
  161.1910  209.2810  153.4360 C   0  0  0  0  0  3  0  0  0  0  0  0
  161.2540  204.8090  151.3110 C   0  0  0  0  0  2  0  0  0  0  0  0
  160.7260  205.0810  153.8930 O   0  0  0  0  0  1  0  0  0  0  0  0
  160.8910  210.5250  156.3780 C   0  0  0  0  0  1  0  0  0  0  0  0
  161.0950  207.0810  152.3390 C   0  0  0  0  0  0  0  0  0  0  0  0
  160.9060  208.6700  154.6310 C   0  0  0  0  0  0  0  0  0  0  0  0
  159.9060  201.2910  147.3330 O   0  0  0  0  0  0  0  0  0  0  0  0
  160.2270  200.9340  145.9950 C   0  0  0  0  0  0  0  0  0  0  0  0
  159.7060  201.7040  144.8860 C   0  0  0  0  0  1  0  0  0  0  0  0
  160.9210  199.9190  145.8350 O   0  0  0  0  0  0  0  0  0  0  0  0
  1 20  1  0  0  0  0
  1 16  1  1  0  0  0
  2 24  1  0  0  0  0
  2 27  2  0  0  0  0
  3 11  2  0  0  0  0
  3  4  1  0  0  0  0
  4 21  2  0  0  0  0
  5 25  1  0  0  0  0
  5  6  2  0  0  0  0
  6 18  1  0  0  0  0
  7 19  1  1  0  0  0
  7 24  1  0  0  0  0
  8 17  1  0  0  0  0
  8 12  1  0  0  0  0
  9 26  1  0  0  0  0
  9 15  1  0  0  0  0
 10  1  1  0  0  0  0
 10 20  1  0  0  0  0
 10 17  1  0  0  0  0
 11 13  1  0  0  0  0
 12  2  1  0  0  0  0
 13 12  1  0  0  0  0
 13 22  2  0  0  0  0
 14 27  1  0  0  0  0
 14 23  2  0  0  0  0
 16 19  1  0  0  0  0
 17  7  1  0  0  0  0
 18 15  2  0  0  0  0
 21 22  1  0  0  0  0
 22 14  1  0  0  0  0
 23 28  1  0  0  0  0
 27  5  1  0  0  0  0
 28  6  1  0  0  0  0
 28  9  2  0  0  0  0
 29 20  1  0  0  0  0
 30 29  1  0  0  0  0
 31 30  1  0  0  0  0
 32 30  2  0  0  0  0
M  END
>  <MODEL>
5

>  <REMARK>
 VINA RESULT:      -6.7      3.705      8.096
  Name = 
  2 active torsions:
  status: ('A' for Active; 'I' for Inactive)
    1  A    between atoms: C_1  and  O_10
    2  A    between atoms: O_10  and  C_24
                            x       y       z     vdW  Elec       q    Type
                         _______ _______ _______ _____ _____    ______ ____

>  <TORSDO>
F 2

$$$$
=
 OpenBabel11062410443D

 32 38  0  0  1  0  0  0  0  0999 V2000
  161.8370  202.5190  149.1400 C   0  0  1  0  0  3  0  0  0  0  0  0
  161.1020  206.9470  151.7510 C   0  0  0  0  0  0  0  0  0  0  0  0
  162.3310  210.4240  148.6360 C   0  0  0  0  0  3  0  0  0  0  0  0
  162.0860  211.4540  149.6360 C   0  0  0  0  0  3  0  0  0  0  0  0
  160.5610  207.5370  154.1150 C   0  0  0  0  0  0  0  0  0  0  0  0
  160.4090  208.5180  155.1140 C   0  0  0  0  0  0  0  0  0  0  0  0
  160.9240  204.5300  151.0920 C   0  0  1  0  0  3  0  0  0  0  0  0
  161.2180  206.3630  149.3670 C   0  0  0  0  0  2  0  0  0  0  0  0
  160.3550  210.4630  156.0140 C   0  0  0  0  0  0  0  0  0  0  0  0
  161.1750  203.7450  148.6320 C   0  0  2  0  0  3  0  0  0  0  0  0
  162.0430  209.0570  148.9330 C   0  0  0  0  0  3  0  0  0  0  0  0
  161.3140  207.3910  150.4790 N   0  0  0  0  0  0  0  0  0  0  0  0
  161.5960  208.6620  150.1910 C   0  0  0  0  0  0  0  0  0  0  0  0
  161.0360  209.2870  152.5200 C   0  0  0  0  0  0  0  0  0  0  0  0
  160.0680  209.5630  156.9290 N   0  0  0  0  0  0  0  0  0  0  0  0
  162.3310  202.3940  150.5770 C   0  0  0  0  0  2  0  0  0  0  0  0
  161.5530  204.9020  149.7360 C   0  0  2  0  0  3  0  0  0  0  0  0
  160.0870  208.3330  156.3810 N   0  0  0  0  0  0  0  0  0  0  0  0
  161.4550  203.1920  151.6670 C   0  0  0  0  0  2  0  0  0  0  0  0
  160.3080  202.6900  149.1810 C   0  0  1  0  0  3  0  0  0  0  0  0
  161.6700  211.0110  150.9010 C   0  0  0  0  0  3  0  0  0  0  0  0
  161.4090  209.6680  151.2190 C   0  0  0  0  0  0  0  0  0  0  0  0
  160.9220  210.2690  153.5500 C   0  0  0  0  0  3  0  0  0  0  0  0
  161.1310  205.5340  152.1160 C   0  0  0  0  0  2  0  0  0  0  0  0
  160.4570  206.1750  154.5970 O   0  0  0  0  0  1  0  0  0  0  0  0
  160.4500  211.9280  156.2540 C   0  0  0  0  0  1  0  0  0  0  0  0
  160.9010  207.9300  152.7870 C   0  0  0  0  0  0  0  0  0  0  0  0
  160.5740  209.8370  154.8040 C   0  0  0  0  0  0  0  0  0  0  0  0
  160.0300  201.4490  148.6350 O   0  0  0  0  0  0  0  0  0  0  0  0
  160.5470  200.8440  147.4570 C   0  0  0  0  0  0  0  0  0  0  0  0
  160.1940  201.3600  146.1520 C   0  0  0  0  0  1  0  0  0  0  0  0
  161.2620  199.8410  147.6080 O   0  0  0  0  0  0  0  0  0  0  0  0
  1 20  1  0  0  0  0
  1 16  1  1  0  0  0
  2 24  1  0  0  0  0
  2 27  2  0  0  0  0
  3 11  2  0  0  0  0
  3  4  1  0  0  0  0
  4 21  2  0  0  0  0
  5 25  1  0  0  0  0
  5  6  2  0  0  0  0
  6 18  1  0  0  0  0
  7 19  1  1  0  0  0
  7 24  1  0  0  0  0
  8 17  1  0  0  0  0
  8 12  1  0  0  0  0
  9 26  1  0  0  0  0
  9 15  1  0  0  0  0
 10  1  1  0  0  0  0
 10 20  1  0  0  0  0
 10 17  1  0  0  0  0
 11 13  1  0  0  0  0
 12  2  1  0  0  0  0
 13 12  1  0  0  0  0
 13 22  2  0  0  0  0
 14 27  1  0  0  0  0
 14 23  2  0  0  0  0
 16 19  1  0  0  0  0
 17  7  1  0  0  0  0
 18 15  2  0  0  0  0
 21 22  1  0  0  0  0
 22 14  1  0  0  0  0
 23 28  1  0  0  0  0
 27  5  1  0  0  0  0
 28  6  1  0  0  0  0
 28  9  2  0  0  0  0
 29 20  1  0  0  0  0
 30 32  2  0  0  0  0
 30 29  1  0  0  0  0
 31 30  1  0  0  0  0
M  END
>  <MODEL>
6

>  <REMARK>
 VINA RESULT:      -6.5      3.671      8.356
  Name = 
  2 active torsions:
  status: ('A' for Active; 'I' for Inactive)
    1  A    between atoms: C_1  and  O_10
    2  A    between atoms: O_10  and  C_24
                            x       y       z     vdW  Elec       q    Type
                         _______ _______ _______ _____ _____    ______ ____

>  <TORSDO>
F 2

$$$$
=
 OpenBabel11062410443D

 32 38  0  0  1  0  0  0  0  0999 V2000
  162.2080  204.0040  145.8880 C   0  0  1  0  0  3  0  0  0  0  0  0
  161.3870  206.9920  150.0540 C   0  0  0  0  0  0  0  0  0  0  0  0
  162.1940  211.4950  148.5090 C   0  0  0  0  0  3  0  0  0  0  0  0
  161.9560  212.0310  149.8410 C   0  0  0  0  0  3  0  0  0  0  0  0
  160.9730  206.5720  152.4790 C   0  0  0  0  0  0  0  0  0  0  0  0
  160.8310  207.0720  153.7880 C   0  0  0  0  0  0  0  0  0  0  0  0
  161.3100  205.0160  148.5060 C   0  0  1  0  0  3  0  0  0  0  0  0
  161.3770  207.3930  147.6290 C   0  0  0  0  0  2  0  0  0  0  0  0
  160.7210  208.5020  155.3800 C   0  0  0  0  0  0  0  0  0  0  0  0
  161.4410  205.2720  145.9280 C   0  0  2  0  0  3  0  0  0  0  0  0
  162.0090  210.1010  148.2560 C   0  0  0  0  0  3  0  0  0  0  0  0
  161.4870  207.9120  149.0510 N   0  0  0  0  0  0  0  0  0  0  0  0
  161.6720  209.2130  149.2740 C   0  0  0  0  0  0  0  0  0  0  0  0
  161.2340  208.8360  151.6810 C   0  0  0  0  0  0  0  0  0  0  0  0
  160.5510  207.2970  155.8780 N   0  0  0  0  0  0  0  0  0  0  0  0
  162.8040  203.3710  147.1390 C   0  0  0  0  0  2  0  0  0  0  0  0
  161.8230  205.9360  147.3820 C   0  0  2  0  0  3  0  0  0  0  0  0
  160.6070  206.3830  154.8920 N   0  0  0  0  0  0  0  0  0  0  0  0
  161.9580  203.6080  148.4890 C   0  0  0  0  0  2  0  0  0  0  0  0
  160.6770  204.0200  146.0510 C   0  0  1  0  0  3  0  0  0  0  0  0
  161.6530  211.1000  150.8460 C   0  0  0  0  0  3  0  0  0  0  0  0
  161.4960  209.7230  150.6210 C   0  0  0  0  0  0  0  0  0  0  0  0
  161.1320  209.3280  153.0180 C   0  0  0  0  0  3  0  0  0  0  0  0
  161.5250  205.5570  149.8330 C   0  0  0  0  0  2  0  0  0  0  0  0
  160.9840  205.1260  152.3910 O   0  0  0  0  0  1  0  0  0  0  0  0
  160.7450  209.7610  156.1730 C   0  0  0  0  0  1  0  0  0  0  0  0
  161.1990  207.4760  151.3990 C   0  0  0  0  0  0  0  0  0  0  0  0
  160.8950  208.4150  154.0140 C   0  0  0  0  0  0  0  0  0  0  0  0
  160.4380  203.0720  145.0730 O   0  0  0  0  0  0  0  0  0  0  0  0
  160.0800  201.7020  145.2110 C   0  0  0  0  0  0  0  0  0  0  0  0
  160.8310  200.8330  146.0910 C   0  0  0  0  0  1  0  0  0  0  0  0
  159.1410  201.2940  144.5110 O   0  0  0  0  0  0  0  0  0  0  0  0
  1 10  1  0  0  0  0
  1 20  1  0  0  0  0
  1 16  1  1  0  0  0
  2 27  2  0  0  0  0
  3  4  1  0  0  0  0
  4 21  2  0  0  0  0
  5  6  2  0  0  0  0
  6 28  1  0  0  0  0
  6 18  1  0  0  0  0
  7 19  1  1  0  0  0
  7 24  1  0  0  0  0
  8 12  1  0  0  0  0
  9 15  1  0  0  0  0
  9 26  1  0  0  0  0
 10 20  1  0  0  0  0
 10 17  1  0  0  0  0
 11  3  2  0  0  0  0
 11 13  1  0  0  0  0
 12 13  1  0  0  0  0
 12  2  1  0  0  0  0
 13 22  2  0  0  0  0
 14 23  2  0  0  0  0
 16 19  1  0  0  0  0
 17  8  1  0  0  0  0
 17  7  1  0  0  0  0
 18 15  2  0  0  0  0
 22 21  1  0  0  0  0
 22 14  1  0  0  0  0
 23 28  1  0  0  0  0
 24  2  1  0  0  0  0
 25  5  1  0  0  0  0
 27 14  1  0  0  0  0
 27  5  1  0  0  0  0
 28  9  2  0  0  0  0
 29 30  1  0  0  0  0
 29 20  1  0  0  0  0
 30 31  1  0  0  0  0
 32 30  2  0  0  0  0
M  END
>  <MODEL>
7

>  <REMARK>
 VINA RESULT:      -6.5      3.476      7.450
  Name = 
  2 active torsions:
  status: ('A' for Active; 'I' for Inactive)
    1  A    between atoms: C_1  and  O_10
    2  A    between atoms: O_10  and  C_24
                            x       y       z     vdW  Elec       q    Type
                         _______ _______ _______ _____ _____    ______ ____

>  <TORSDO>
F 2

$$$$
=
 OpenBabel11062410443D

 32 38  0  0  1  0  0  0  0  0999 V2000
  162.6070  212.1580  149.4710 C   0  0  1  0  0  3  0  0  0  0  0  0
  161.5550  207.0770  149.2810 C   0  0  0  0  0  0  0  0  0  0  0  0
  161.1450  205.7370  153.9010 C   0  0  0  0  0  3  0  0  0  0  0  0
  160.9280  204.3500  153.5150 C   0  0  0  0  0  3  0  0  0  0  0  0
  161.5000  205.3480  147.4820 C   0  0  0  0  0  0  0  0  0  0  0  0
  161.3820  203.9960  147.1040 C   0  0  0  0  0  0  0  0  0  0  0  0
  161.7750  209.4770  148.5740 C   0  0  1  0  0  3  0  0  0  0  0  0
  161.2040  208.8370  150.9590 C   0  0  0  0  0  2  0  0  0  0  0  0
  161.1110  201.8800  147.3090 C   0  0  0  0  0  0  0  0  0  0  0  0
  161.5780  211.4390  150.2600 C   0  0  2  0  0  3  0  0  0  0  0  0
  161.2600  206.7480  152.8980 C   0  0  0  0  0  3  0  0  0  0  0  0
  161.3380  207.3700  150.5950 N   0  0  0  0  0  0  0  0  0  0  0  0
  161.2420  206.4360  151.5420 C   0  0  0  0  0  0  0  0  0  0  0  0
  161.1510  204.6980  149.7810 C   0  0  0  0  0  0  0  0  0  0  0  0
  161.2730  202.1660  146.0360 N   0  0  0  0  0  0  0  0  0  0  0  0
  163.4580  211.4630  148.4140 C   0  0  0  0  0  2  0  0  0  0  0  0
  161.9450  209.8490  150.0590 C   0  0  2  0  0  3  0  0  0  0  0  0
  161.4360  203.4940  145.8840 N   0  0  0  0  0  0  0  0  0  0  0  0
  162.7230  210.2630  147.6330 C   0  0  0  0  0  2  0  0  0  0  0  0
  161.1390  212.0880  149.0150 C   0  0  1  0  0  3  0  0  0  0  0  0
  160.9520  204.0720  152.1400 C   0  0  0  0  0  3  0  0  0  0  0  0
  161.0920  205.0500  151.1420 C   0  0  0  0  0  0  0  0  0  0  0  0
  161.0770  203.3270  149.3910 C   0  0  0  0  0  3  0  0  0  0  0  0
  161.9950  208.0700  148.3070 C   0  0  0  0  0  2  0  0  0  0  0  0
  161.8320  206.2440  146.3930 O   0  0  0  0  0  1  0  0  0  0  0  0
  160.9260  200.5110  147.8610 C   0  0  0  0  0  1  0  0  0  0  0  0
  161.4000  205.7070  148.8580 C   0  0  0  0  0  0  0  0  0  0  0  0
  161.1590  203.0410  148.0520 C   0  0  0  0  0  0  0  0  0  0  0  0
  161.0240  213.4430  148.7580 O   0  0  0  0  0  0  0  0  0  0  0  0
  160.1280  214.1250  147.8900 C   0  0  0  0  0  0  0  0  0  0  0  0
  158.7580  214.3610  148.2890 C   0  0  0  0  0  1  0  0  0  0  0  0
  160.5650  214.4530  146.7760 O   0  0  0  0  0  0  0  0  0  0  0  0
  1 16  1  6  0  0  0
  1 10  1  0  0  0  0
  2 12  1  0  0  0  0
  4  3  1  0  0  0  0
  5 27  1  0  0  0  0
  6  5  2  0  0  0  0
  6 28  1  0  0  0  0
  7 19  1  6  0  0  0
  7 17  1  0  0  0  0
  9 26  1  0  0  0  0
  9 28  2  0  0  0  0
 11  3  2  0  0  0  0
 12  8  1  0  0  0  0
 12 13  1  0  0  0  0
 13 11  1  0  0  0  0
 14 22  1  0  0  0  0
 15  9  1  0  0  0  0
 17 10  1  0  0  0  0
 17  8  1  0  0  0  0
 18 15  2  0  0  0  0
 18  6  1  0  0  0  0
 19 16  1  0  0  0  0
 20  1  1  0  0  0  0
 20 10  1  0  0  0  0
 21  4  2  0  0  0  0
 22 13  2  0  0  0  0
 22 21  1  0  0  0  0
 23 14  2  0  0  0  0
 24  7  1  0  0  0  0
 24  2  1  0  0  0  0
 25  5  1  0  0  0  0
 27  2  2  0  0  0  0
 27 14  1  0  0  0  0
 28 23  1  0  0  0  0
 29 20  1  0  0  0  0
 30 31  1  0  0  0  0
 30 29  1  0  0  0  0
 32 30  2  0  0  0  0
M  END
>  <MODEL>
8

>  <REMARK>
 VINA RESULT:      -6.2      1.364      1.784
  Name = 
  2 active torsions:
  status: ('A' for Active; 'I' for Inactive)
    1  A    between atoms: C_1  and  O_10
    2  A    between atoms: O_10  and  C_24
                            x       y       z     vdW  Elec       q    Type
                         _______ _______ _______ _____ _____    ______ ____

>  <TORSDO>
F 2

$$$$
