=
 OpenBabel11052422223D

 31 34  0  0  1  0  0  0  0  0999 V2000
  162.1150  209.7390  149.2380 C   0  0  0  0  0  0  0  0  0  0  0  0
  161.3540  207.5970  152.2510 C   0  0  0  0  0  0  0  0  0  0  0  0
  160.9800  208.3990  153.4090 C   0  0  2  0  0  3  0  0  0  0  0  0
  159.6290  210.3340  154.1400 C   0  0  0  0  0  3  0  0  0  0  0  0
  161.4740  208.0550  150.8490 C   0  0  0  0  0  0  0  0  0  0  0  0
  161.7410  208.9110  148.2260 N   0  0  0  0  0  0  0  0  0  0  0  0
  160.8640  209.8840  153.4360 C   0  0  0  0  0  2  0  0  0  0  0  0
  161.2990  204.8340  150.6220 C   0  0  1  0  0  3  0  0  0  0  0  0
  162.7400  211.3340  148.8750 Cl  0  0  0  0  0  0  0  0  0  0  0  0
  161.3970  206.2300  154.1320 C   0  0  0  0  0  3  0  0  0  0  0  0
  159.3120  210.0000  155.3940 C   0  0  0  0  0  3  0  0  0  0  0  0
  160.3870  205.9150  150.0300 C   0  0  0  0  0  2  0  0  0  0  0  0
  161.5840  206.3540  152.6580 C   0  0  0  0  0  0  0  0  0  0  0  0
  161.9900  209.3240  150.5650 C   0  0  0  0  0  3  0  0  0  0  0  0
  160.0550  209.0940  156.2280 N   0  0  0  0  0  0  0  0  0  0  0  0
  161.0820  207.2200  149.7830 C   0  0  0  0  0  0  0  0  0  0  0  0
  161.2270  207.6750  148.4710 C   0  0  0  0  0  3  0  0  0  0  0  0
  162.1830  205.2820  151.7940 C   0  0  0  0  0  2  0  0  0  0  0  0
  160.9960  207.6260  154.4860 C   0  0  0  0  0  0  0  0  0  0  0  0
  160.7730  208.0670  155.8730 C   0  0  0  0  0  3  0  0  0  0  0  0
  160.4660  203.6320  151.0340 C   0  0  0  0  0  2  0  0  0  0  0  0
  161.8780  203.8760  148.6140 O   0  0  0  0  0  0  0  0  0  0  0  0
  159.6240  201.5590  150.0850 O   0  0  0  0  0  1  0  0  0  0  0  0
  160.3590  202.6860  149.9300 N   0  0  0  0  0  0  0  0  0  0  0  0
  161.0740  202.9070  148.7100 C   0  0  0  0  0  0  0  0  0  0  0  0
  161.4940  200.7570  147.8180 O   0  0  0  0  0  1  0  0  0  0  0  0
  160.8790  201.9790  147.5460 C   0  0  2  0  0  3  0  0  0  0  0  0
  161.4570  202.5650  146.2600 C   0  0  0  0  0  2  0  0  0  0  0  0
  160.4590  202.5400  145.1450 C   0  0  0  0  0  0  0  0  0  0  0  0
  159.7790  201.2630  144.7910 C   0  0  0  0  0  1  0  0  0  0  0  0
  160.2050  203.5580  144.5190 O   0  0  0  0  0  0  0  0  0  0  0  0
  1 14  1  0  0  0  0
  2 13  2  0  0  0  0
  2  3  1  0  0  0  0
  3  7  1  1  0  0  0
  3 19  1  0  0  0  0
  4 11  2  0  0  0  0
  5  2  1  0  0  0  0
  6 17  1  0  0  0  0
  6  1  2  0  0  0  0
  7  4  1  0  0  0  0
  8 21  1  1  0  0  0
  8 18  1  0  0  0  0
  9  1  1  0  0  0  0
 10 19  2  0  0  0  0
 11 15  1  0  0  0  0
 12  8  1  0  0  0  0
 13 10  1  0  0  0  0
 14  5  2  0  0  0  0
 16 12  1  0  0  0  0
 16  5  1  0  0  0  0
 17 16  2  0  0  0  0
 18 13  1  0  0  0  0
 19 20  1  0  0  0  0
 20 15  2  0  0  0  0
 22 25  2  0  0  0  0
 24 23  1  0  0  0  0
 24 21  1  0  0  0  0
 25 24  1  0  0  0  0
 27 26  1  1  0  0  0
 27 25  1  0  0  0  0
 28 27  1  0  0  0  0
 29 28  1  0  0  0  0
 30 29  1  0  0  0  0
 31 29  2  0  0  0  0
M  END
>  <MODEL>
1

>  <REMARK>
 VINA RESULT:      -9.4      0.000      0.000
  Name = 
  5 active torsions:
  status: ('A' for Active; 'I' for Inactive)
    1  A    between atoms: C_1  and  C_24
    2  A    between atoms: N_9  and  C_23
    3  A    between atoms: C_15  and  C_23
    4  A    between atoms: C_19  and  C_22
    5  A    between atoms: C_19  and  C_24
                            x       y       z     vdW  Elec       q    Type
                         _______ _______ _______ _____ _____    ______ ____

>  <TORSDO>
F 5

$$$$
=
 OpenBabel11052422223D

 31 34  0  0  1  0  0  0  0  0999 V2000
  160.5630  203.0730  145.2590 C   0  0  0  0  0  0  0  0  0  0  0  0
  161.0020  204.5920  148.6870 C   0  0  0  0  0  0  0  0  0  0  0  0
  160.9170  203.5910  149.7410 C   0  0  2  0  0  3  0  0  0  0  0  0
  161.6310  201.3160  150.3910 C   0  0  0  0  0  3  0  0  0  0  0  0
  161.1310  204.3490  147.2320 C   0  0  0  0  0  0  0  0  0  0  0  0
  161.3300  203.9050  144.5040 N   0  0  0  0  0  0  0  0  0  0  0  0
  160.7180  202.1280  149.5360 C   0  0  0  0  0  2  0  0  0  0  0  0
  162.0070  207.4400  147.6030 C   0  0  1  0  0  3  0  0  0  0  0  0
  159.7320  201.7280  144.5070 Cl  0  0  0  0  0  0  0  0  0  0  0  0
  160.7900  205.6920  150.7240 C   0  0  0  0  0  3  0  0  0  0  0  0
  161.7000  201.4110  151.7220 C   0  0  0  0  0  3  0  0  0  0  0  0
  162.7940  206.2530  147.0350 C   0  0  0  0  0  2  0  0  0  0  0  0
  160.9400  205.7960  149.2440 C   0  0  0  0  0  0  0  0  0  0  0  0
  160.4490  203.2830  146.6350 C   0  0  0  0  0  3  0  0  0  0  0  0
  160.9800  202.3590  152.5290 N   0  0  0  0  0  0  0  0  0  0  0  0
  161.9280  205.1900  146.4290 C   0  0  0  0  0  0  0  0  0  0  0  0
  162.0110  204.9450  145.0580 C   0  0  0  0  0  3  0  0  0  0  0  0
  160.7970  207.0750  148.4730 C   0  0  0  0  0  2  0  0  0  0  0  0
  160.8030  204.2090  150.9080 C   0  0  0  0  0  0  0  0  0  0  0  0
  160.5920  203.5630  152.2140 C   0  0  0  0  0  3  0  0  0  0  0  0
  162.9440  208.3500  148.3780 C   0  0  0  0  0  2  0  0  0  0  0  0
  162.9360  207.9870  151.1670 O   0  0  0  0  0  0  0  0  0  0  0  0
  161.5240  210.2680  148.8400 O   0  0  0  0  0  1  0  0  0  0  0  0
  162.1900  209.1840  149.3060 N   0  0  0  0  0  0  0  0  0  0  0  0
  162.1990  208.9040  150.7090 C   0  0  0  0  0  0  0  0  0  0  0  0
  162.1480  210.3480  152.5810 O   0  0  0  0  0  1  0  0  0  0  0  0
  161.3400  209.7070  151.6410 C   0  0  2  0  0  3  0  0  0  0  0  0
  160.3200  208.8280  152.3620 C   0  0  0  0  0  2  0  0  0  0  0  0
  160.7530  208.5130  153.7600 C   0  0  0  0  0  0  0  0  0  0  0  0
  161.2370  207.1450  154.0930 C   0  0  0  0  0  1  0  0  0  0  0  0
  160.7050  209.3690  154.6300 O   0  0  0  0  0  0  0  0  0  0  0  0
  1 14  1  0  0  0  0
  2 13  2  0  0  0  0
  2  3  1  0  0  0  0
  3  7  1  6  0  0  0
  3 19  1  0  0  0  0
  4 11  2  0  0  0  0
  5  2  1  0  0  0  0
  6 17  1  0  0  0  0
  6  1  2  0  0  0  0
  7  4  1  0  0  0  0
  8 21  1  1  0  0  0
  8 18  1  0  0  0  0
  9  1  1  0  0  0  0
 10 19  2  0  0  0  0
 11 15  1  0  0  0  0
 12  8  1  0  0  0  0
 13 10  1  0  0  0  0
 14  5  2  0  0  0  0
 16 12  1  0  0  0  0
 16  5  1  0  0  0  0
 17 16  2  0  0  0  0
 18 13  1  0  0  0  0
 19 20  1  0  0  0  0
 20 15  2  0  0  0  0
 21 24  1  0  0  0  0
 23 24  1  0  0  0  0
 24 25  1  0  0  0  0
 25 22  2  0  0  0  0
 25 27  1  0  0  0  0
 27 28  1  0  0  0  0
 27 26  1  1  0  0  0
 28 29  1  0  0  0  0
 29 30  1  0  0  0  0
 29 31  2  0  0  0  0
M  END
>  <MODEL>
2

>  <REMARK>
 VINA RESULT:      -7.5      3.757      7.455
  Name = 
  5 active torsions:
  status: ('A' for Active; 'I' for Inactive)
    1  A    between atoms: C_1  and  C_24
    2  A    between atoms: N_9  and  C_23
    3  A    between atoms: C_15  and  C_23
    4  A    between atoms: C_19  and  C_22
    5  A    between atoms: C_19  and  C_24
                            x       y       z     vdW  Elec       q    Type
                         _______ _______ _______ _____ _____    ______ ____

>  <TORSDO>
F 5

$$$$
=
 OpenBabel11052422223D

 31 34  0  0  1  0  0  0  0  0999 V2000
  161.0520  201.8300  150.3910 C   0  0  0  0  0  0  0  0  0  0  0  0
  161.6780  205.0320  148.4930 C   0  0  0  0  0  0  0  0  0  0  0  0
  161.5700  204.8420  147.0520 C   0  0  0  0  0  0  0  0  0  0  0  0
  160.2250  203.7690  145.2800 C   0  0  0  0  0  3  0  0  0  0  0  0
  161.2580  204.0880  149.5530 C   0  0  0  0  0  0  0  0  0  0  0  0
  160.5140  202.3100  151.5440 N   0  0  0  0  0  0  0  0  0  0  0  0
  161.2220  203.5640  146.3690 C   0  0  0  0  0  2  0  0  0  0  0  0
  161.5620  206.9190  151.0850 C   0  0  1  0  0  3  0  0  0  0  0  0
  161.2490  200.1040  150.1710 Cl  0  0  0  0  0  0  0  0  0  0  0  0
  162.5560  206.9100  147.4390 C   0  0  0  0  0  3  0  0  0  0  0  0
  160.3920  204.6060  144.2530 C   0  0  0  0  0  3  0  0  0  0  0  0
  160.3390  206.0060  150.9340 C   0  0  0  0  0  2  0  0  0  0  0  0
  162.2320  206.2180  148.7190 C   0  0  2  0  0  3  0  0  0  0  0  0
  161.4350  202.7110  149.3770 C   0  0  0  0  0  3  0  0  0  0  0  0
  161.5050  205.4990  144.0770 N   0  0  0  0  0  0  0  0  0  0  0  0
  160.6880  204.5590  150.7520 C   0  0  0  0  0  0  0  0  0  0  0  0
  160.3220  203.6430  151.7400 C   0  0  0  0  0  3  0  0  0  0  0  0
  162.6880  206.6900  150.0690 C   0  0  0  0  0  2  0  0  0  0  0  0
  162.0620  205.9110  146.4430 C   0  0  0  0  0  0  0  0  0  0  0  0
  162.2310  206.0790  144.9900 C   0  0  0  0  0  3  0  0  0  0  0  0
  161.1200  208.3730  151.0460 C   0  0  0  0  0  2  0  0  0  0  0  0
  160.8440  211.0950  151.6990 O   0  0  0  0  0  0  0  0  0  0  0  0
  160.6820  207.9840  153.4050 O   0  0  0  0  0  1  0  0  0  0  0  0
  160.8850  208.8670  152.3980 N   0  0  0  0  0  0  0  0  0  0  0  0
  160.8050  210.2720  152.6560 C   0  0  0  0  0  0  0  0  0  0  0  0
  160.2340  212.0980  154.0460 O   0  0  0  0  0  1  0  0  0  0  0  0
  160.6620  210.7710  154.0640 C   0  0  2  0  0  3  0  0  0  0  0  0
  161.9800  210.6720  154.8300 C   0  0  0  0  0  2  0  0  0  0  0  0
  161.8080  209.9610  156.1360 C   0  0  0  0  0  0  0  0  0  0  0  0
  160.4470  209.5460  156.5760 C   0  0  0  0  0  1  0  0  0  0  0  0
  162.7740  209.7280  156.8460 O   0  0  0  0  0  0  0  0  0  0  0  0
  1  6  1  0  0  0  0
  2 13  1  0  0  0  0
  2  5  1  0  0  0  0
  3  2  2  0  0  0  0
  4  7  1  0  0  0  0
  5 16  2  0  0  0  0
  6 17  2  0  0  0  0
  7  3  1  0  0  0  0
  8 21  1  6  0  0  0
  9  1  1  0  0  0  0
 11  4  2  0  0  0  0
 12  8  1  0  0  0  0
 13 10  1  6  0  0  0
 13 18  1  0  0  0  0
 14  5  1  0  0  0  0
 14  1  2  0  0  0  0
 15 11  1  0  0  0  0
 15 20  2  0  0  0  0
 16 12  1  0  0  0  0
 16 17  1  0  0  0  0
 18  8  1  0  0  0  0
 19  3  1  0  0  0  0
 19 10  2  0  0  0  0
 20 19  1  0  0  0  0
 21 24  1  0  0  0  0
 22 25  2  0  0  0  0
 24 25  1  0  0  0  0
 24 23  1  0  0  0  0
 25 27  1  0  0  0  0
 27 26  1  6  0  0  0
 27 28  1  0  0  0  0
 28 29  1  0  0  0  0
 29 30  1  0  0  0  0
 29 31  2  0  0  0  0
M  END
>  <MODEL>
3

>  <REMARK>
 VINA RESULT:      -7.1      4.239      8.951
  Name = 
  5 active torsions:
  status: ('A' for Active; 'I' for Inactive)
    1  A    between atoms: C_1  and  C_24
    2  A    between atoms: N_9  and  C_23
    3  A    between atoms: C_15  and  C_23
    4  A    between atoms: C_19  and  C_22
    5  A    between atoms: C_19  and  C_24
                            x       y       z     vdW  Elec       q    Type
                         _______ _______ _______ _____ _____    ______ ____

>  <TORSDO>
F 5

$$$$
=
 OpenBabel11052422223D

 31 34  0  0  1  0  0  0  0  0999 V2000
  160.2790  203.9330  144.7660 C   0  0  0  0  0  0  0  0  0  0  0  0
  160.9160  204.5850  148.4290 C   0  0  0  0  0  0  0  0  0  0  0  0
  160.8250  203.3670  149.2230 C   0  0  0  0  0  0  0  0  0  0  0  0
  161.4570  200.9790  149.2890 C   0  0  0  0  0  3  0  0  0  0  0  0
  160.9780  204.6870  146.9540 C   0  0  0  0  0  0  0  0  0  0  0  0
  161.0530  204.8910  144.1910 N   0  0  0  0  0  0  0  0  0  0  0  0
  160.5510  202.0010  148.6910 C   0  0  0  0  0  2  0  0  0  0  0  0
  162.0090  207.5690  147.9950 C   0  0  1  0  0  3  0  0  0  0  0  0
  159.3580  202.8340  143.7610 Cl  0  0  0  0  0  0  0  0  0  0  0  0
  160.8320  205.1800  150.6750 C   0  0  0  0  0  3  0  0  0  0  0  0
  161.5810  200.7550  150.5990 C   0  0  0  0  0  3  0  0  0  0  0  0
  162.7190  206.5220  147.1280 C   0  0  0  0  0  2  0  0  0  0  0  0
  160.9300  205.6240  149.2550 C   0  0  2  0  0  3  0  0  0  0  0  0
  160.2260  203.8170  146.1570 C   0  0  0  0  0  3  0  0  0  0  0  0
  160.9360  201.5110  151.6390 N   0  0  0  0  0  0  0  0  0  0  0  0
  161.7820  205.6640  146.3330 C   0  0  0  0  0  0  0  0  0  0  0  0
  161.8020  205.7460  144.9400 C   0  0  0  0  0  3  0  0  0  0  0  0
  160.8170  207.0540  148.8120 C   0  0  0  0  0  2  0  0  0  0  0  0
  160.7830  203.6960  150.5060 C   0  0  0  0  0  0  0  0  0  0  0  0
  160.5930  202.7680  151.6340 C   0  0  0  0  0  3  0  0  0  0  0  0
  163.0160  208.2380  148.9160 C   0  0  0  0  0  2  0  0  0  0  0  0
  162.7060  207.5260  151.6190 O   0  0  0  0  0  0  0  0  0  0  0  0
  161.8960  210.2980  149.5530 O   0  0  0  0  0  1  0  0  0  0  0  0
  162.3310  209.0640  149.9030 N   0  0  0  0  0  0  0  0  0  0  0  0
  162.1730  208.6080  151.2490 C   0  0  0  0  0  0  0  0  0  0  0  0
  162.2250  210.3280  152.8720 O   0  0  0  0  0  1  0  0  0  0  0  0
  161.3790  209.4230  152.2300 C   0  0  2  0  0  3  0  0  0  0  0  0
  160.6960  208.5390  153.2710 C   0  0  0  0  0  2  0  0  0  0  0  0
  160.7250  209.1640  154.6300 C   0  0  0  0  0  0  0  0  0  0  0  0
  159.7080  210.1900  154.9930 C   0  0  0  0  0  1  0  0  0  0  0  0
  161.5810  208.8440  155.4400 O   0  0  0  0  0  0  0  0  0  0  0  0
  1 14  1  0  0  0  0
  2  3  2  0  0  0  0
  2 13  1  0  0  0  0
  3 19  1  0  0  0  0
  4 11  2  0  0  0  0
  5  2  1  0  0  0  0
  6  1  2  0  0  0  0
  6 17  1  0  0  0  0
  7  3  1  0  0  0  0
  7  4  1  0  0  0  0
  8 18  1  0  0  0  0
  8 21  1  1  0  0  0
  9  1  1  0  0  0  0
 11 15  1  0  0  0  0
 12  8  1  0  0  0  0
 13 18  1  6  0  0  0
 13 10  1  0  0  0  0
 14  5  2  0  0  0  0
 16  5  1  0  0  0  0
 16 12  1  0  0  0  0
 17 16  2  0  0  0  0
 19 10  2  0  0  0  0
 19 20  1  0  0  0  0
 20 15  2  0  0  0  0
 21 24  1  0  0  0  0
 23 24  1  0  0  0  0
 24 25  1  0  0  0  0
 25 22  2  0  0  0  0
 25 27  1  0  0  0  0
 27 26  1  1  0  0  0
 27 28  1  0  0  0  0
 28 29  1  0  0  0  0
 29 30  1  0  0  0  0
 29 31  2  0  0  0  0
M  END
>  <MODEL>
4

>  <REMARK>
 VINA RESULT:      -7.0      3.666      7.798
  Name = 
  5 active torsions:
  status: ('A' for Active; 'I' for Inactive)
    1  A    between atoms: C_1  and  C_24
    2  A    between atoms: N_9  and  C_23
    3  A    between atoms: C_15  and  C_23
    4  A    between atoms: C_19  and  C_22
    5  A    between atoms: C_19  and  C_24
                            x       y       z     vdW  Elec       q    Type
                         _______ _______ _______ _____ _____    ______ ____

>  <TORSDO>
F 5

$$$$
=
 OpenBabel11052422223D

 31 34  0  0  1  0  0  0  0  0999 V2000
  160.4070  204.3870  144.9200 C   0  0  0  0  0  0  0  0  0  0  0  0
  160.9380  204.8520  148.6280 C   0  0  0  0  0  0  0  0  0  0  0  0
  160.8380  203.5930  149.3550 C   0  0  0  0  0  0  0  0  0  0  0  0
  161.4930  201.2110  149.3130 C   0  0  0  0  0  3  0  0  0  0  0  0
  161.0400  205.0320  147.1620 C   0  0  0  0  0  0  0  0  0  0  0  0
  161.1870  205.3810  144.4170 N   0  0  0  0  0  0  0  0  0  0  0  0
  160.5930  202.2550  148.7450 C   0  0  0  0  0  2  0  0  0  0  0  0
  162.0120  207.8650  148.3800 C   0  0  1  0  0  3  0  0  0  0  0  0
  159.5260  203.3340  143.8340 Cl  0  0  0  0  0  0  0  0  0  0  0  0
  160.7880  205.3280  150.8990 C   0  0  0  0  0  3  0  0  0  0  0  0
  161.5840  200.9200  150.6130 C   0  0  0  0  0  3  0  0  0  0  0  0
  162.7560  206.8710  147.4800 C   0  0  0  0  0  2  0  0  0  0  0  0
  160.9200  205.8470  149.5070 C   0  0  2  0  0  3  0  0  0  0  0  0
  160.3190  204.1980  146.3010 C   0  0  0  0  0  3  0  0  0  0  0  0
  160.9040  201.6150  151.6730 N   0  0  0  0  0  0  0  0  0  0  0  0
  161.8500  206.0470  146.6150 C   0  0  0  0  0  0  0  0  0  0  0  0
  161.9060  206.2030  145.2290 C   0  0  0  0  0  3  0  0  0  0  0  0
  160.8040  207.2970  149.1360 C   0  0  0  0  0  2  0  0  0  0  0  0
  160.7590  203.8540  150.6520 C   0  0  0  0  0  0  0  0  0  0  0  0
  160.5470  202.8670  151.7230 C   0  0  0  0  0  3  0  0  0  0  0  0
  162.9870  208.4930  149.3620 C   0  0  0  0  0  2  0  0  0  0  0  0
  162.3300  208.2900  152.0890 O   0  0  0  0  0  0  0  0  0  0  0  0
  162.1020  210.7500  149.5370 O   0  0  0  0  0  1  0  0  0  0  0  0
  162.3310  209.5500  150.1230 N   0  0  0  0  0  0  0  0  0  0  0  0
  161.9860  209.3500  151.4970 C   0  0  0  0  0  0  0  0  0  0  0  0
  161.8770  210.6970  153.4380 O   0  0  0  0  0  1  0  0  0  0  0  0
  161.2220  210.4070  152.2400 C   0  0  2  0  0  3  0  0  0  0  0  0
  159.7920  209.9610  152.5380 C   0  0  0  0  0  2  0  0  0  0  0  0
  158.9720  211.0780  153.1030 C   0  0  0  0  0  0  0  0  0  0  0  0
  158.6100  212.2380  152.2420 C   0  0  0  0  0  1  0  0  0  0  0  0
  158.6050  211.0480  154.2680 O   0  0  0  0  0  0  0  0  0  0  0  0
  1 14  1  0  0  0  0
  2  3  2  0  0  0  0
  2 13  1  0  0  0  0
  3 19  1  0  0  0  0
  4 11  2  0  0  0  0
  5  2  1  0  0  0  0
  6  1  2  0  0  0  0
  6 17  1  0  0  0  0
  7  4  1  0  0  0  0
  7  3  1  0  0  0  0
  8 18  1  0  0  0  0
  8 21  1  1  0  0  0
  9  1  1  0  0  0  0
 11 15  1  0  0  0  0
 12  8  1  0  0  0  0
 13 18  1  6  0  0  0
 13 10  1  0  0  0  0
 14  5  2  0  0  0  0
 15 20  2  0  0  0  0
 16  5  1  0  0  0  0
 16 12  1  0  0  0  0
 17 16  2  0  0  0  0
 19 10  2  0  0  0  0
 19 20  1  0  0  0  0
 21 24  1  0  0  0  0
 23 24  1  0  0  0  0
 24 25  1  0  0  0  0
 25 22  2  0  0  0  0
 25 27  1  0  0  0  0
 27 28  1  0  0  0  0
 27 26  1  1  0  0  0
 28 29  1  0  0  0  0
 29 31  2  0  0  0  0
 30 29  1  0  0  0  0
M  END
>  <MODEL>
5

>  <REMARK>
 VINA RESULT:      -6.8      3.970      7.817
  Name = 
  5 active torsions:
  status: ('A' for Active; 'I' for Inactive)
    1  A    between atoms: C_1  and  C_24
    2  A    between atoms: N_9  and  C_23
    3  A    between atoms: C_15  and  C_23
    4  A    between atoms: C_19  and  C_22
    5  A    between atoms: C_19  and  C_24
                            x       y       z     vdW  Elec       q    Type
                         _______ _______ _______ _____ _____    ______ ____

>  <TORSDO>
F 5

$$$$
=
 OpenBabel11052422223D

 31 34  0  0  1  0  0  0  0  0999 V2000
  161.1930  202.1760  150.8780 C   0  0  0  0  0  0  0  0  0  0  0  0
  161.7740  205.1800  148.6670 C   0  0  0  0  0  0  0  0  0  0  0  0
  161.6550  204.8470  147.2540 C   0  0  0  0  0  0  0  0  0  0  0  0
  160.3040  203.5940  145.6090 C   0  0  0  0  0  3  0  0  0  0  0  0
  161.3720  204.3410  149.8190 C   0  0  0  0  0  0  0  0  0  0  0  0
  160.6610  202.7630  151.9830 N   0  0  0  0  0  0  0  0  0  0  0  0
  161.3130  203.5050  146.7030 C   0  0  0  0  0  2  0  0  0  0  0  0
  161.6640  207.3120  151.0620 C   0  0  1  0  0  3  0  0  0  0  0  0
  161.4030  200.4380  150.8270 Cl  0  0  0  0  0  0  0  0  0  0  0  0
  162.6260  206.9510  147.4260 C   0  0  0  0  0  3  0  0  0  0  0  0
  160.4540  204.3270  144.5020 C   0  0  0  0  0  3  0  0  0  0  0  0
  160.4490  206.3790  151.0140 C   0  0  0  0  0  2  0  0  0  0  0  0
  162.3200  206.3860  148.7710 C   0  0  2  0  0  3  0  0  0  0  0  0
  161.5590  202.9560  149.7790 C   0  0  0  0  0  3  0  0  0  0  0  0
  161.5580  205.2070  144.2290 N   0  0  0  0  0  0  0  0  0  0  0  0
  160.8080  204.9240  150.9720 C   0  0  0  0  0  0  0  0  0  0  0  0
  160.4590  204.1070  152.0490 C   0  0  0  0  0  3  0  0  0  0  0  0
  162.7840  206.9930  150.0630 C   0  0  0  0  0  2  0  0  0  0  0  0
  162.1330  205.8550  146.5370 C   0  0  0  0  0  0  0  0  0  0  0  0
  162.2870  205.8810  145.0730 C   0  0  0  0  0  3  0  0  0  0  0  0
  161.2100  208.7520  150.8850 C   0  0  0  0  0  2  0  0  0  0  0  0
  160.0890  208.7200  153.4640 O   0  0  0  0  0  0  0  0  0  0  0  0
  162.7970  210.3320  151.8280 O   0  0  0  0  0  1  0  0  0  0  0  0
  161.6870  209.5740  151.9910 N   0  0  0  0  0  0  0  0  0  0  0  0
  161.0300  209.5360  153.2620 C   0  0  0  0  0  0  0  0  0  0  0  0
  162.0670  209.7170  155.3800 O   0  0  0  0  0  1  0  0  0  0  0  0
  161.4690  210.4590  154.3610 C   0  0  2  0  0  3  0  0  0  0  0  0
  160.2930  211.2500  154.9310 C   0  0  0  0  0  2  0  0  0  0  0  0
  159.5080  211.9280  153.8510 C   0  0  0  0  0  0  0  0  0  0  0  0
  158.0200  211.8720  153.8730 C   0  0  0  0  0  1  0  0  0  0  0  0
  160.0810  212.5180  152.9480 O   0  0  0  0  0  0  0  0  0  0  0  0
  1  6  1  0  0  0  0
  2 13  1  0  0  0  0
  2  5  1  0  0  0  0
  3  2  2  0  0  0  0
  4  7  1  0  0  0  0
  5 16  2  0  0  0  0
  6 17  2  0  0  0  0
  7  3  1  0  0  0  0
  8 21  1  6  0  0  0
  9  1  1  0  0  0  0
 11  4  2  0  0  0  0
 12  8  1  0  0  0  0
 13 10  1  6  0  0  0
 13 18  1  0  0  0  0
 14  5  1  0  0  0  0
 14  1  2  0  0  0  0
 15 11  1  0  0  0  0
 15 20  2  0  0  0  0
 16 12  1  0  0  0  0
 16 17  1  0  0  0  0
 18  8  1  0  0  0  0
 19  3  1  0  0  0  0
 19 10  2  0  0  0  0
 20 19  1  0  0  0  0
 21 24  1  0  0  0  0
 23 24  1  0  0  0  0
 24 25  1  0  0  0  0
 25 22  2  0  0  0  0
 25 27  1  0  0  0  0
 27 28  1  0  0  0  0
 27 26  1  1  0  0  0
 29 30  1  0  0  0  0
 29 28  1  0  0  0  0
 31 29  2  0  0  0  0
M  END
>  <MODEL>
6

>  <REMARK>
 VINA RESULT:      -6.6      4.193      8.783
  Name = 
  5 active torsions:
  status: ('A' for Active; 'I' for Inactive)
    1  A    between atoms: C_1  and  C_24
    2  A    between atoms: N_9  and  C_23
    3  A    between atoms: C_15  and  C_23
    4  A    between atoms: C_19  and  C_22
    5  A    between atoms: C_19  and  C_24
                            x       y       z     vdW  Elec       q    Type
                         _______ _______ _______ _____ _____    ______ ____

>  <TORSDO>
F 5

$$$$
=
 OpenBabel11052422223D

 31 34  0  0  1  0  0  0  0  0999 V2000
  161.3580  207.2380  151.4580 C   0  0  0  0  0  0  0  0  0  0  0  0
  160.6500  210.7070  152.7700 C   0  0  0  0  0  0  0  0  0  0  0  0
  160.7680  210.7750  154.2200 C   0  0  2  0  0  3  0  0  0  0  0  0
  162.1480  210.0660  156.1430 C   0  0  0  0  0  3  0  0  0  0  0  0
  161.0920  209.6020  151.8890 C   0  0  0  0  0  0  0  0  0  0  0  0
  161.8780  207.5220  150.2340 N   0  0  0  0  0  0  0  0  0  0  0  0
  161.1530  209.6470  155.1150 C   0  0  0  0  0  2  0  0  0  0  0  0
  160.7060  212.1110  149.8860 C   0  0  1  0  0  3  0  0  0  0  0  0
  161.2090  205.5730  151.9800 Cl  0  0  0  0  0  0  0  0  0  0  0  0
  159.7240  212.7160  153.4840 C   0  0  0  0  0  3  0  0  0  0  0  0
  161.9620  211.0660  157.0080 C   0  0  0  0  0  3  0  0  0  0  0  0
  161.9530  211.2710  150.1850 C   0  0  0  0  0  2  0  0  0  0  0  0
  160.0630  211.8180  152.3430 C   0  0  0  0  0  0  0  0  0  0  0  0
  160.9540  208.2730  152.3040 C   0  0  0  0  0  3  0  0  0  0  0  0
  160.8250  211.9460  157.0340 N   0  0  0  0  0  0  0  0  0  0  0  0
  161.6450  209.8700  150.6200 C   0  0  0  0  0  0  0  0  0  0  0  0
  162.0330  208.8040  149.8060 C   0  0  0  0  0  3  0  0  0  0  0  0
  159.5890  212.0340  150.9350 C   0  0  0  0  0  2  0  0  0  0  0  0
  160.2480  211.9210  154.6360 C   0  0  0  0  0  0  0  0  0  0  0  0
  160.0800  212.3380  156.0390 C   0  0  0  0  0  3  0  0  0  0  0  0
  161.1070  213.5600  149.6640 C   0  0  0  0  0  2  0  0  0  0  0  0
  159.1330  213.8600  147.6840 O   0  0  0  0  0  0  0  0  0  0  0  0
  162.6780  213.9890  147.8600 O   0  0  0  0  0  1  0  0  0  0  0  0
  161.3960  213.7960  148.2550 N   0  0  0  0  0  0  0  0  0  0  0  0
  160.3350  213.8900  147.3000 C   0  0  0  0  0  0  0  0  0  0  0  0
  159.5060  214.4510  145.1570 O   0  0  0  0  0  1  0  0  0  0  0  0
  160.6490  214.0340  145.8390 C   0  0  2  0  0  3  0  0  0  0  0  0
  161.1480  212.7200  145.2410 C   0  0  0  0  0  2  0  0  0  0  0  0
  161.9830  212.9510  144.0210 C   0  0  0  0  0  0  0  0  0  0  0  0
  163.3990  213.3880  144.1680 C   0  0  0  0  0  1  0  0  0  0  0  0
  161.5080  212.7920  142.9070 O   0  0  0  0  0  0  0  0  0  0  0  0
  1  9  1  0  0  0  0
  1 14  1  0  0  0  0
  2  3  1  0  0  0  0
  3 19  1  0  0  0  0
  3  7  1  1  0  0  0
  4 11  2  0  0  0  0
  5 14  2  0  0  0  0
  5  2  1  0  0  0  0
  6  1  2  0  0  0  0
  7  4  1  0  0  0  0
  8 21  1  1  0  0  0
  8 12  1  0  0  0  0
  8 18  1  0  0  0  0
 10 19  2  0  0  0  0
 11 15  1  0  0  0  0
 12 16  1  0  0  0  0
 13  2  2  0  0  0  0
 13 10  1  0  0  0  0
 16  5  1  0  0  0  0
 17  6  1  0  0  0  0
 17 16  2  0  0  0  0
 18 13  1  0  0  0  0
 19 20  1  0  0  0  0
 20 15  2  0  0  0  0
 23 24  1  0  0  0  0
 24 21  1  0  0  0  0
 25 22  2  0  0  0  0
 25 24  1  0  0  0  0
 27 26  1  6  0  0  0
 27 25  1  0  0  0  0
 28 27  1  0  0  0  0
 29 30  1  0  0  0  0
 29 28  1  0  0  0  0
 31 29  2  0  0  0  0
M  END
>  <MODEL>
7

>  <REMARK>
 VINA RESULT:      -6.4      5.490      7.680
  Name = 
  5 active torsions:
  status: ('A' for Active; 'I' for Inactive)
    1  A    between atoms: C_1  and  C_24
    2  A    between atoms: N_9  and  C_23
    3  A    between atoms: C_15  and  C_23
    4  A    between atoms: C_19  and  C_22
    5  A    between atoms: C_19  and  C_24
                            x       y       z     vdW  Elec       q    Type
                         _______ _______ _______ _____ _____    ______ ____

>  <TORSDO>
F 5

$$$$
=
 OpenBabel11052422223D

 31 34  0  0  1  0  0  0  0  0999 V2000
  160.9940  206.6620  146.6060 C   0  0  0  0  0  0  0  0  0  0  0  0
  160.8790  204.6180  149.7770 C   0  0  0  0  0  0  0  0  0  0  0  0
  160.8360  203.1880  149.5020 C   0  0  0  0  0  0  0  0  0  0  0  0
  161.7990  201.3990  148.0960 C   0  0  0  0  0  3  0  0  0  0  0  0
  161.1810  205.7030  148.8170 C   0  0  0  0  0  0  0  0  0  0  0  0
  161.7030  207.7460  147.0190 N   0  0  0  0  0  0  0  0  0  0  0  0
  160.8670  202.5620  148.1500 C   0  0  0  0  0  2  0  0  0  0  0  0
  161.5690  207.0770  151.7180 C   0  0  1  0  0  3  0  0  0  0  0  0
  160.4380  206.5600  144.9480 Cl  0  0  0  0  0  0  0  0  0  0  0  0
  160.3180  203.5120  151.7440 C   0  0  0  0  0  3  0  0  0  0  0  0
  161.7260  200.3360  148.9010 C   0  0  0  0  0  3  0  0  0  0  0  0
  162.5680  206.9030  150.5680 C   0  0  0  0  0  2  0  0  0  0  0  0
  160.5930  204.8080  151.0600 C   0  0  2  0  0  3  0  0  0  0  0  0
  160.7190  205.6240  147.4990 C   0  0  0  0  0  3  0  0  0  0  0  0
  160.8040  200.1800  149.9940 N   0  0  0  0  0  0  0  0  0  0  0  0
  161.9240  206.8330  149.2160 C   0  0  0  0  0  0  0  0  0  0  0  0
  162.1730  207.8480  148.2920 C   0  0  0  0  0  3  0  0  0  0  0  0
  160.3450  206.1530  151.6770 C   0  0  0  0  0  2  0  0  0  0  0  0
  160.5230  202.5480  150.6200 C   0  0  0  0  0  0  0  0  0  0  0  0
  160.2810  201.1020  150.7520 C   0  0  0  0  0  3  0  0  0  0  0  0
  162.2890  206.9220  153.0480 C   0  0  0  0  0  2  0  0  0  0  0  0
  161.5810  209.6360  153.2580 O   0  0  0  0  0  0  0  0  0  0  0  0
  160.9370  206.6370  155.0480 O   0  0  0  0  0  1  0  0  0  0  0  0
  161.4800  207.4720  154.1290 N   0  0  0  0  0  0  0  0  0  0  0  0
  161.2040  208.8750  154.1910 C   0  0  0  0  0  0  0  0  0  0  0  0
  159.2500  209.9880  154.9210 O   0  0  0  0  0  1  0  0  0  0  0  0
  160.4560  209.4420  155.3620 C   0  0  2  0  0  3  0  0  0  0  0  0
  161.2690  210.5170  156.0800 C   0  0  0  0  0  2  0  0  0  0  0  0
  162.4650  209.9370  156.7670 C   0  0  0  0  0  0  0  0  0  0  0  0
  163.7280  210.7230  156.8400 C   0  0  0  0  0  1  0  0  0  0  0  0
  162.4140  208.8210  157.2610 O   0  0  0  0  0  0  0  0  0  0  0  0
  1  6  2  0  0  0  0
  1 14  1  0  0  0  0
  2 13  1  0  0  0  0
  3  2  2  0  0  0  0
  3 19  1  0  0  0  0
  4  7  1  0  0  0  0
  4 11  2  0  0  0  0
  5 16  1  0  0  0  0
  5  2  1  0  0  0  0
  6 17  1  0  0  0  0
  7  3  1  0  0  0  0
  8 21  1  1  0  0  0
  9  1  1  0  0  0  0
 11 15  1  0  0  0  0
 12  8  1  0  0  0  0
 13 18  1  6  0  0  0
 13 10  1  0  0  0  0
 14  5  2  0  0  0  0
 15 20  2  0  0  0  0
 16 12  1  0  0  0  0
 17 16  2  0  0  0  0
 18  8  1  0  0  0  0
 19 20  1  0  0  0  0
 19 10  2  0  0  0  0
 21 24  1  0  0  0  0
 22 25  2  0  0  0  0
 24 25  1  0  0  0  0
 24 23  1  0  0  0  0
 25 27  1  0  0  0  0
 27 26  1  6  0  0  0
 27 28  1  0  0  0  0
 28 29  1  0  0  0  0
 29 30  1  0  0  0  0
 29 31  2  0  0  0  0
M  END
>  <MODEL>
8

>  <REMARK>
 VINA RESULT:      -6.4      3.728      8.157
  Name = 
  5 active torsions:
  status: ('A' for Active; 'I' for Inactive)
    1  A    between atoms: C_1  and  C_24
    2  A    between atoms: N_9  and  C_23
    3  A    between atoms: C_15  and  C_23
    4  A    between atoms: C_19  and  C_22
    5  A    between atoms: C_19  and  C_24
                            x       y       z     vdW  Elec       q    Type
                         _______ _______ _______ _____ _____    ______ ____

>  <TORSDO>
F 5

$$$$
