=
 OpenBabel11062408503D

 55 60  0  0  1  0  0  0  0  0999 V2000
  160.2690  213.7080  142.8310 C   0  0  2  0  0  3  0  0  0  0  0  0
  158.3870  213.4950  147.1390 C   0  0  0  0  0  2  0  0  0  0  0  0
  156.0010  212.4450  145.5800 O   0  0  0  0  0  0  0  0  0  0  0  0
  154.2440  214.2250  142.6260 C   0  0  0  0  0  2  0  0  0  0  0  0
  159.7880  212.0850  139.4240 C   0  0  0  0  0  3  0  0  0  0  0  0
  153.1320  214.0690  141.5670 C   0  0  0  0  0  2  0  0  0  0  0  0
  155.7460  213.4740  140.7040 C   0  0  2  0  0  3  0  0  0  0  0  0
  154.8070  214.1540  139.7570 C   0  0  0  0  0  3  0  0  0  0  0  0
  156.6640  214.2960  144.3240 N   0  0  0  0  0  2  0  0  0  0  0  0
  153.5720  214.4530  140.1770 C   0  0  0  0  0  3  0  0  0  0  0  0
  162.5490  214.3790  143.6650 C   0  0  0  0  0  3  0  0  0  0  0  0
  155.6790  214.2010  142.0640 C   0  0  2  0  0  3  0  0  0  0  0  0
  162.1250  213.0910  146.1100 C   0  0  0  0  0  0  0  0  0  0  0  0
  159.0490  213.2180  143.3430 O   0  0  0  0  0  0  0  0  0  0  0  0
  161.1470  213.0390  145.1110 C   0  0  0  0  0  3  0  0  0  0  0  0
  162.1790  212.2650  139.8160 C   0  0  0  0  0  0  0  0  0  0  0  0
  158.1060  212.8150  141.1630 C   0  0  2  0  0  3  0  0  0  0  0  0
  160.5990  213.0250  141.5130 C   0  0  0  0  0  0  0  0  0  0  0  0
  158.9850  214.1120  148.3090 N   0  0  0  0  0  2  0  0  0  0  0  0
  157.1680  213.4550  140.1390 C   0  0  0  0  0  2  0  0  0  0  0  0
  157.0740  214.1770  146.8090 C   0  0  0  0  0  2  0  0  0  0  0  0
  161.9150  212.8400  141.0710 C   0  0  0  0  0  3  0  0  0  0  0  0
  156.5270  213.5890  145.5560 C   0  0  0  0  0  0  0  0  0  0  0  0
  163.5330  214.4220  144.6580 C   0  0  0  0  0  3  0  0  0  0  0  0
  159.9300  213.1470  148.8650 C   0  0  1  0  0  3  0  0  0  0  0  0
  161.3560  213.6730  143.8770 C   0  0  0  0  0  0  0  0  0  0  0  0
  156.6690  213.5820  143.0550 C   0  0  1  0  0  3  0  0  0  0  0  0
  161.1050  211.8870  139.0010 C   0  0  0  0  0  3  0  0  0  0  0  0
  158.0640  213.6540  142.4470 C   0  0  1  0  0  3  0  0  0  0  0  0
  161.3370  213.5230  148.4050 C   0  0  0  0  0  2  0  0  0  0  0  0
  159.5260  212.6780  140.6650 C   0  0  0  0  0  0  0  0  0  0  0  0
  161.8600  212.4740  147.4390 C   0  0  0  0  0  2  0  0  0  0  0  0
  163.3190  213.7820  145.8810 C   0  0  0  0  0  3  0  0  0  0  0  0
  163.5660  212.0590  139.3480 C   0  0  0  0  0  0  0  0  0  0  0  0
  164.3950  213.0810  139.1730 C   0  0  0  0  0  2  0  0  0  0  0  0
  164.0300  210.7450  139.0570 N   0  0  0  0  0  1  0  0  0  0  0  0
  160.3470  214.4190  150.8260 C   0  0  0  0  0  1  0  0  0  0  0  0
  159.8440  213.1440  150.3310 N   0  0  0  0  0  0  0  0  0  0  0  0
  160.7740  212.1430  150.8370 C   0  0  0  0  0  2  0  0  0  0  0  0
  160.1280  211.3400  151.9610 C   0  0  1  0  0  3  0  0  0  0  0  0
  160.8620  210.1850  152.2320 O   0  0  0  0  0  1  0  0  0  0  0  0
  159.9230  212.1700  153.2330 C   0  0  2  0  0  3  0  0  0  0  0  0
  160.6130  211.5510  154.2750 O   0  0  0  0  0  1  0  0  0  0  0  0
  157.7190  213.4070  152.7430 C   0  0  0  0  0  1  0  0  0  0  0  0
  158.4530  212.4240  153.6590 C   0  0  2  0  0  3  0  0  0  0  0  0
  159.1250  214.0540  155.4020 C   0  0  0  0  0  1  0  0  0  0  0  0
  158.2750  212.8120  155.1570 C   0  0  2  0  0  0  0  0  0  0  0  0
  158.5090  210.3400  155.7730 N   0  0  0  0  0  2  0  0  0  0  0  0
  158.9800  209.2550  156.6180 C   0  0  0  0  0  1  0  0  0  0  0  0
  158.7450  211.7130  156.1010 C   0  0  0  0  0  0  0  0  0  0  0  0
  159.4070  212.0020  157.1360 O   0  0  0  0  0  0  0  0  0  0  0  0
  156.8240  213.2610  155.4400 C   0  0  0  0  0  2  0  0  0  0  0  0
  155.8350  212.1670  155.7220 C   0  0  0  0  0  0  0  0  0  0  0  0
  155.1610  212.1750  156.7840 O   0  0  0  0  0  1  0  0  0  0  0  0
  155.6440  211.1560  154.7910 O   0  0  0  0  0  0  0  0  0  0  0  0
  1 18  1  6  0  0  0
  1 14  1  0  0  0  0
  1 26  1  0  0  0  0
  2 19  1  0  0  0  0
  5 31  1  0  0  0  0
  6  4  1  0  0  0  0
  7  8  1  6  0  0  0
  7 12  1  0  0  0  0
  8 10  2  0  0  0  0
  9 23  1  0  0  0  0
 10  6  1  0  0  0  0
 11 26  2  0  0  0  0
 11 24  1  0  0  0  0
 12  4  1  1  0  0  0
 12 27  1  0  0  0  0
 13 32  1  0  0  0  0
 15 13  2  0  0  0  0
 16 22  2  0  0  0  0
 17 20  1  6  0  0  0
 17 29  1  0  0  0  0
 19 25  1  0  0  0  0
 20  7  1  0  0  0  0
 21  2  1  0  0  0  0
 22 18  1  0  0  0  0
 23  3  2  0  0  0  0
 23 21  1  0  0  0  0
 24 33  2  0  0  0  0
 25 38  1  1  0  0  0
 26 15  1  0  0  0  0
 27  9  1  1  0  0  0
 28  5  2  0  0  0  0
 28 16  1  0  0  0  0
 29 27  1  0  0  0  0
 29 14  1  1  0  0  0
 30 25  1  0  0  0  0
 31 17  1  0  0  0  0
 31 18  2  0  0  0  0
 32 30  1  0  0  0  0
 33 13  1  0  0  0  0
 34 16  1  0  0  0  0
 35 34  2  0  0  0  0
 36 34  1  0  0  0  0
 38 37  1  0  0  0  0
 38 39  1  0  0  0  0
 39 40  1  0  0  0  0
 40 41  1  1  0  0  0
 40 42  1  0  0  0  0
 42 45  1  0  0  0  0
 42 43  1  1  0  0  0
 45 44  1  6  0  0  0
 45 47  1  0  0  0  0
 47 46  1  1  0  0  0
 47 52  1  0  0  0  0
 47 50  1  0  0  0  0
 48 50  1  0  0  0  0
 48 49  1  0  0  0  0
 50 51  2  0  0  0  0
 52 53  1  0  0  0  0
 53 54  1  0  0  0  0
 55 53  2  0  0  0  0
M  END
>  <MODEL>
1

>  <REMARK>
 VINA RESULT:       0.4      0.000      0.000
  Name = 
  10 active torsions:
  status: ('A' for Active; 'I' for Inactive)
    1  A    between atoms: C_1  and  C_53
    2  A    between atoms: C_6  and  C_14
    3  A    between atoms: C_6  and  C_20
    4  A    between atoms: N_8  and  C_22
    5  A    between atoms: N_8  and  C_43
    6  A    between atoms: C_10  and  C_32
    7  A    between atoms: C_14  and  C_38
    8  A    between atoms: C_20  and  C_22
    9  A    between atoms: C_29  and  C_38
   10  A    between atoms: C_38  and  C_53
                            x       y       z     vdW  Elec       q    Type
                         _______ _______ _______ _____ _____    ______ ____

>  <TORSDO>
F 10

$$$$
=
 OpenBabel11062408503D

 55 60  0  0  1  0  0  0  0  0999 V2000
  160.0540  213.6930  142.5030 C   0  0  2  0  0  3  0  0  0  0  0  0
  158.0670  213.7600  146.7690 C   0  0  0  0  0  2  0  0  0  0  0  0
  155.6930  212.6830  145.2100 O   0  0  0  0  0  0  0  0  0  0  0  0
  154.0500  214.3420  142.1210 C   0  0  0  0  0  2  0  0  0  0  0  0
  159.6120  211.8980  139.1770 C   0  0  0  0  0  3  0  0  0  0  0  0
  152.9600  214.1550  141.0460 C   0  0  0  0  0  2  0  0  0  0  0  0
  155.5770  213.4520  140.2800 C   0  0  2  0  0  3  0  0  0  0  0  0
  154.6790  214.1010  139.2760 C   0  0  0  0  0  3  0  0  0  0  0  0
  156.4310  214.4470  143.8730 N   0  0  0  0  0  2  0  0  0  0  0  0
  153.4420  214.4520  139.6480 C   0  0  0  0  0  3  0  0  0  0  0  0
  162.3300  214.3530  143.3550 C   0  0  0  0  0  3  0  0  0  0  0  0
  155.4970  214.2530  141.5970 C   0  0  2  0  0  3  0  0  0  0  0  0
  161.8170  213.2100  145.8550 C   0  0  0  0  0  0  0  0  0  0  0  0
  158.8110  213.2600  143.0100 O   0  0  0  0  0  0  0  0  0  0  0  0
  160.8620  213.1280  144.8370 C   0  0  0  0  0  3  0  0  0  0  0  0
  161.9970  212.0430  139.6180 C   0  0  0  0  0  0  0  0  0  0  0  0
  157.9090  212.7620  140.8320 C   0  0  2  0  0  3  0  0  0  0  0  0
  160.3980  212.9310  141.2320 C   0  0  0  0  0  0  0  0  0  0  0  0
  158.6530  214.4240  147.9180 N   0  0  0  0  0  2  0  0  0  0  0  0
  157.0110  213.3680  139.7520 C   0  0  0  0  0  2  0  0  0  0  0  0
  156.7800  214.4530  146.3690 C   0  0  0  0  0  2  0  0  0  0  0  0
  161.7180  212.6910  140.8330 C   0  0  0  0  0  3  0  0  0  0  0  0
  156.2480  213.8110  145.1370 C   0  0  0  0  0  0  0  0  0  0  0  0
  163.2910  214.4270  144.3690 C   0  0  0  0  0  3  0  0  0  0  0  0
  159.5600  213.4690  148.5480 C   0  0  1  0  0  3  0  0  0  0  0  0
  161.1150  213.6890  143.5750 C   0  0  0  0  0  0  0  0  0  0  0  0
  156.4480  213.6650  142.6450 C   0  0  1  0  0  3  0  0  0  0  0  0
  160.9330  211.6470  138.7980 C   0  0  0  0  0  3  0  0  0  0  0  0
  157.8580  213.6710  142.0680 C   0  0  1  0  0  3  0  0  0  0  0  0
  160.9860  213.7850  148.1040 C   0  0  0  0  0  2  0  0  0  0  0  0
  159.3360  212.5640  140.3780 C   0  0  0  0  0  0  0  0  0  0  0  0
  161.5060  212.6730  147.2080 C   0  0  0  0  0  2  0  0  0  0  0  0
  163.0330  213.8590  145.6190 C   0  0  0  0  0  3  0  0  0  0  0  0
  163.3890  211.7780  139.1960 C   0  0  0  0  0  0  0  0  0  0  0  0
  163.9650  212.4870  138.2330 C   0  0  0  0  0  2  0  0  0  0  0  0
  164.1320  210.7320  139.8120 N   0  0  0  0  0  1  0  0  0  0  0  0
  160.7260  213.9580  150.5570 C   0  0  0  0  0  1  0  0  0  0  0  0
  159.4400  213.5470  150.0090 N   0  0  0  0  0  0  0  0  0  0  0  0
  159.2190  212.2010  150.5190 C   0  0  0  0  0  2  0  0  0  0  0  0
  160.4270  211.7340  151.3250 C   0  0  1  0  0  3  0  0  0  0  0  0
  160.4950  212.4000  152.5490 O   0  0  0  0  0  1  0  0  0  0  0  0
  160.4480  210.2160  151.5250 C   0  0  2  0  0  3  0  0  0  0  0  0
  159.9390  209.9350  152.7930 O   0  0  0  0  0  1  0  0  0  0  0  0
  162.7740  210.2810  150.4240 C   0  0  0  0  0  1  0  0  0  0  0  0
  161.8220  209.5170  151.3470 C   0  0  2  0  0  3  0  0  0  0  0  0
  163.0200  207.3470  151.4180 C   0  0  0  0  0  1  0  0  0  0  0  0
  161.7330  208.0150  150.9450 C   0  0  2  0  0  0  0  0  0  0  0  0
  160.7370  206.8250  148.9110 N   0  0  0  0  0  2  0  0  0  0  0  0
  160.5570  206.6360  147.4820 C   0  0  0  0  0  1  0  0  0  0  0  0
  161.6180  207.8230  149.4390 C   0  0  0  0  0  0  0  0  0  0  0  0
  162.2380  208.5860  148.6500 O   0  0  0  0  0  0  0  0  0  0  0  0
  160.6060  207.3020  151.7260 C   0  0  0  0  0  2  0  0  0  0  0  0
  161.0350  206.1960  152.6460 C   0  0  0  0  0  0  0  0  0  0  0  0
  161.1610  205.0210  152.2140 O   0  0  0  0  0  0  0  0  0  0  0  0
  161.3220  206.4790  153.9740 O   0  0  0  0  0  1  0  0  0  0  0  0
  1 18  1  6  0  0  0
  1 14  1  0  0  0  0
  1 26  1  0  0  0  0
  2 19  1  0  0  0  0
  5 31  1  0  0  0  0
  6  4  1  0  0  0  0
  7  8  1  6  0  0  0
  7 12  1  0  0  0  0
  8 10  2  0  0  0  0
  9 23  1  0  0  0  0
 10  6  1  0  0  0  0
 11 26  2  0  0  0  0
 11 24  1  0  0  0  0
 12  4  1  1  0  0  0
 12 27  1  0  0  0  0
 13 32  1  0  0  0  0
 15 13  2  0  0  0  0
 16 22  2  0  0  0  0
 17 20  1  6  0  0  0
 17 29  1  0  0  0  0
 19 25  1  0  0  0  0
 20  7  1  0  0  0  0
 21  2  1  0  0  0  0
 22 18  1  0  0  0  0
 23  3  2  0  0  0  0
 23 21  1  0  0  0  0
 24 33  2  0  0  0  0
 25 38  1  1  0  0  0
 26 15  1  0  0  0  0
 27  9  1  1  0  0  0
 28  5  2  0  0  0  0
 28 16  1  0  0  0  0
 29 27  1  0  0  0  0
 29 14  1  1  0  0  0
 30 25  1  0  0  0  0
 31 17  1  0  0  0  0
 31 18  2  0  0  0  0
 32 30  1  0  0  0  0
 33 13  1  0  0  0  0
 34 16  1  0  0  0  0
 34 36  1  0  0  0  0
 35 34  2  0  0  0  0
 38 39  1  0  0  0  0
 38 37  1  0  0  0  0
 39 40  1  0  0  0  0
 40 42  1  0  0  0  0
 40 41  1  1  0  0  0
 42 43  1  1  0  0  0
 45 44  1  6  0  0  0
 45 42  1  0  0  0  0
 47 45  1  0  0  0  0
 47 46  1  1  0  0  0
 47 52  1  0  0  0  0
 48 50  1  0  0  0  0
 49 48  1  0  0  0  0
 50 47  1  0  0  0  0
 51 50  2  0  0  0  0
 52 53  1  0  0  0  0
 53 55  1  0  0  0  0
 54 53  2  0  0  0  0
M  END
>  <MODEL>
2

>  <REMARK>
 VINA RESULT:       0.7      2.492      3.909
  Name = 
  10 active torsions:
  status: ('A' for Active; 'I' for Inactive)
    1  A    between atoms: C_1  and  C_53
    2  A    between atoms: C_6  and  C_14
    3  A    between atoms: C_6  and  C_20
    4  A    between atoms: N_8  and  C_22
    5  A    between atoms: N_8  and  C_43
    6  A    between atoms: C_10  and  C_32
    7  A    between atoms: C_14  and  C_38
    8  A    between atoms: C_20  and  C_22
    9  A    between atoms: C_29  and  C_38
   10  A    between atoms: C_38  and  C_53
                            x       y       z     vdW  Elec       q    Type
                         _______ _______ _______ _____ _____    ______ ____

>  <TORSDO>
F 10

$$$$
=
 OpenBabel11062408503D

 55 60  0  0  1  0  0  0  0  0999 V2000
  160.0070  213.6520  142.1490 C   0  0  2  0  0  3  0  0  0  0  0  0
  158.6250  213.7510  146.6470 C   0  0  0  0  0  2  0  0  0  0  0  0
  156.0510  212.6870  145.4330 O   0  0  0  0  0  0  0  0  0  0  0  0
  154.0130  214.3470  142.5920 C   0  0  0  0  0  2  0  0  0  0  0  0
  159.1000  211.8480  138.9240 C   0  0  0  0  0  3  0  0  0  0  0  0
  152.7840  214.1650  141.6770 C   0  0  0  0  0  2  0  0  0  0  0  0
  155.2660  213.4380  140.5630 C   0  0  2  0  0  3  0  0  0  0  0  0
  154.2430  214.0900  139.6880 C   0  0  0  0  0  3  0  0  0  0  0  0
  156.6120  214.4400  143.9990 N   0  0  0  0  0  2  0  0  0  0  0  0
  153.0720  214.4530  140.2250 C   0  0  0  0  0  3  0  0  0  0  0  0
  162.3830  214.2980  142.6770 C   0  0  0  0  0  3  0  0  0  0  0  0
  155.3730  214.2450  141.8740 C   0  0  2  0  0  3  0  0  0  0  0  0
  162.2100  213.1690  145.2300 C   0  0  0  0  0  0  0  0  0  0  0  0
  158.8420  213.2310  142.8240 O   0  0  0  0  0  0  0  0  0  0  0  0
  161.1230  213.0900  144.3520 C   0  0  0  0  0  3  0  0  0  0  0  0
  161.5240  211.9760  139.0330 C   0  0  0  0  0  0  0  0  0  0  0  0
  157.6460  212.7320  140.7930 C   0  0  2  0  0  3  0  0  0  0  0  0
  160.1680  212.8830  140.8470 C   0  0  0  0  0  0  0  0  0  0  0  0
  159.3690  214.4160  147.7010 N   0  0  0  0  0  2  0  0  0  0  0  0
  156.6130  213.3410  139.8430 C   0  0  0  0  0  2  0  0  0  0  0  0
  157.3000  214.4530  146.4240 C   0  0  0  0  0  2  0  0  0  0  0  0
  161.4190  212.6310  140.2710 C   0  0  0  0  0  3  0  0  0  0  0  0
  156.6000  213.8110  145.2800 C   0  0  0  0  0  0  0  0  0  0  0  0
  163.4750  214.3680  143.5490 C   0  0  0  0  0  3  0  0  0  0  0  0
  160.3460  213.4560  148.2050 C   0  0  1  0  0  3  0  0  0  0  0  0
  161.2050  213.6440  143.0650 C   0  0  0  0  0  0  0  0  0  0  0  0
  156.4550  213.6530  142.7840 C   0  0  1  0  0  3  0  0  0  0  0  0
  160.3540  211.5850  138.3690 C   0  0  0  0  0  3  0  0  0  0  0  0
  157.7720  213.6460  142.0190 C   0  0  1  0  0  3  0  0  0  0  0  0
  161.7000  213.7590  147.5680 C   0  0  0  0  0  2  0  0  0  0  0  0
  158.9960  212.5210  140.1480 C   0  0  0  0  0  0  0  0  0  0  0  0
  162.0840  212.6400  146.6150 C   0  0  0  0  0  2  0  0  0  0  0  0
  163.3860  213.8070  144.8260 C   0  0  0  0  0  3  0  0  0  0  0  0
  162.8420  211.6980  138.4250 C   0  0  0  0  0  0  0  0  0  0  0  0
  163.8700  212.5210  138.6010 C   0  0  0  0  0  2  0  0  0  0  0  0
  163.0230  210.5410  137.6170 N   0  0  0  0  0  1  0  0  0  0  0  0
  161.8030  213.8580  150.0370 C   0  0  0  0  0  1  0  0  0  0  0  0
  160.4280  213.5410  149.6690 N   0  0  0  0  0  0  0  0  0  0  0  0
  160.1830  212.2130  150.2150 C   0  0  0  0  0  2  0  0  0  0  0  0
  160.6080  212.1540  151.6790 C   0  0  1  0  0  3  0  0  0  0  0  0
  159.6600  212.7680  152.4970 O   0  0  0  0  0  1  0  0  0  0  0  0
  160.8950  210.7240  152.1490 C   0  0  2  0  0  3  0  0  0  0  0  0
  161.1020  209.9270  151.0230 O   0  0  0  0  0  1  0  0  0  0  0  0
  158.5870  210.9540  153.2680 C   0  0  0  0  0  1  0  0  0  0  0  0
  159.8220  210.0720  153.0610 C   0  0  2  0  0  3  0  0  0  0  0  0
  159.2110  208.8390  155.1240 C   0  0  0  0  0  1  0  0  0  0  0  0
  160.3680  209.5410  154.4190 C   0  0  2  0  0  0  0  0  0  0  0  0
  159.9970  211.2470  156.2890 N   0  0  0  0  0  2  0  0  0  0  0  0
  160.4440  212.2840  157.2030 C   0  0  0  0  0  1  0  0  0  0  0  0
  160.8720  210.6600  155.3200 C   0  0  0  0  0  0  0  0  0  0  0  0
  162.0780  211.0260  155.2680 O   0  0  0  0  0  0  0  0  0  0  0  0
  161.4240  208.4360  154.1930 C   0  0  0  0  0  2  0  0  0  0  0  0
  160.9800  207.0290  154.4720 C   0  0  0  0  0  0  0  0  0  0  0  0
  160.5360  206.3050  153.5440 O   0  0  0  0  0  0  0  0  0  0  0  0
  161.0890  206.5150  155.7570 O   0  0  0  0  0  1  0  0  0  0  0  0
  1 18  1  6  0  0  0
  1 14  1  0  0  0  0
  1 26  1  0  0  0  0
  2 19  1  0  0  0  0
  5 31  1  0  0  0  0
  6  4  1  0  0  0  0
  7  8  1  6  0  0  0
  7 12  1  0  0  0  0
  8 10  2  0  0  0  0
  9 23  1  0  0  0  0
 10  6  1  0  0  0  0
 11 26  2  0  0  0  0
 11 24  1  0  0  0  0
 12  4  1  1  0  0  0
 12 27  1  0  0  0  0
 13 32  1  0  0  0  0
 15 13  2  0  0  0  0
 16 22  2  0  0  0  0
 17 20  1  6  0  0  0
 17 29  1  0  0  0  0
 19 25  1  0  0  0  0
 20  7  1  0  0  0  0
 21  2  1  0  0  0  0
 22 18  1  0  0  0  0
 23  3  2  0  0  0  0
 23 21  1  0  0  0  0
 24 33  2  0  0  0  0
 25 38  1  1  0  0  0
 26 15  1  0  0  0  0
 27  9  1  1  0  0  0
 28  5  2  0  0  0  0
 28 16  1  0  0  0  0
 29 27  1  0  0  0  0
 29 14  1  1  0  0  0
 30 25  1  0  0  0  0
 31 17  1  0  0  0  0
 31 18  2  0  0  0  0
 32 30  1  0  0  0  0
 33 13  1  0  0  0  0
 34 35  2  0  0  0  0
 34 16  1  0  0  0  0
 36 34  1  0  0  0  0
 38 37  1  0  0  0  0
 38 39  1  0  0  0  0
 39 40  1  0  0  0  0
 40 42  1  0  0  0  0
 40 41  1  1  0  0  0
 42 43  1  6  0  0  0
 42 45  1  0  0  0  0
 45 44  1  1  0  0  0
 45 47  1  0  0  0  0
 47 46  1  1  0  0  0
 47 50  1  0  0  0  0
 48 49  1  0  0  0  0
 50 48  1  0  0  0  0
 51 50  2  0  0  0  0
 52 47  1  0  0  0  0
 52 53  1  0  0  0  0
 53 55  1  0  0  0  0
 54 53  2  0  0  0  0
M  END
>  <MODEL>
3

>  <REMARK>
 VINA RESULT:       0.7      1.764      2.599
  Name = 
  10 active torsions:
  status: ('A' for Active; 'I' for Inactive)
    1  A    between atoms: C_1  and  C_53
    2  A    between atoms: C_6  and  C_14
    3  A    between atoms: C_6  and  C_20
    4  A    between atoms: N_8  and  C_22
    5  A    between atoms: N_8  and  C_43
    6  A    between atoms: C_10  and  C_32
    7  A    between atoms: C_14  and  C_38
    8  A    between atoms: C_20  and  C_22
    9  A    between atoms: C_29  and  C_38
   10  A    between atoms: C_38  and  C_53
                            x       y       z     vdW  Elec       q    Type
                         _______ _______ _______ _____ _____    ______ ____

>  <TORSDO>
F 10

$$$$
=
 OpenBabel11062408503D

 55 60  0  0  1  0  0  0  0  0999 V2000
  160.0070  213.6520  142.1490 C   0  0  2  0  0  3  0  0  0  0  0  0
  158.6250  213.7510  146.6470 C   0  0  0  0  0  2  0  0  0  0  0  0
  156.0510  212.6870  145.4330 O   0  0  0  0  0  0  0  0  0  0  0  0
  154.0130  214.3470  142.5920 C   0  0  0  0  0  2  0  0  0  0  0  0
  159.1000  211.8480  138.9240 C   0  0  0  0  0  3  0  0  0  0  0  0
  152.7840  214.1650  141.6770 C   0  0  0  0  0  2  0  0  0  0  0  0
  155.2660  213.4380  140.5630 C   0  0  2  0  0  3  0  0  0  0  0  0
  154.2430  214.0900  139.6880 C   0  0  0  0  0  3  0  0  0  0  0  0
  156.6120  214.4400  143.9990 N   0  0  0  0  0  2  0  0  0  0  0  0
  153.0720  214.4530  140.2250 C   0  0  0  0  0  3  0  0  0  0  0  0
  162.3830  214.2980  142.6770 C   0  0  0  0  0  3  0  0  0  0  0  0
  155.3730  214.2450  141.8740 C   0  0  2  0  0  3  0  0  0  0  0  0
  162.2100  213.1690  145.2300 C   0  0  0  0  0  0  0  0  0  0  0  0
  158.8420  213.2310  142.8240 O   0  0  0  0  0  0  0  0  0  0  0  0
  161.1230  213.0900  144.3520 C   0  0  0  0  0  3  0  0  0  0  0  0
  161.5240  211.9760  139.0330 C   0  0  0  0  0  0  0  0  0  0  0  0
  157.6460  212.7320  140.7930 C   0  0  2  0  0  3  0  0  0  0  0  0
  160.1680  212.8830  140.8470 C   0  0  0  0  0  0  0  0  0  0  0  0
  159.3690  214.4160  147.7010 N   0  0  0  0  0  2  0  0  0  0  0  0
  156.6130  213.3410  139.8430 C   0  0  0  0  0  2  0  0  0  0  0  0
  157.3000  214.4530  146.4240 C   0  0  0  0  0  2  0  0  0  0  0  0
  161.4190  212.6310  140.2710 C   0  0  0  0  0  3  0  0  0  0  0  0
  156.6000  213.8110  145.2800 C   0  0  0  0  0  0  0  0  0  0  0  0
  163.4750  214.3680  143.5490 C   0  0  0  0  0  3  0  0  0  0  0  0
  160.3460  213.4560  148.2050 C   0  0  1  0  0  3  0  0  0  0  0  0
  161.2050  213.6440  143.0650 C   0  0  0  0  0  0  0  0  0  0  0  0
  156.4550  213.6530  142.7840 C   0  0  1  0  0  3  0  0  0  0  0  0
  160.3540  211.5850  138.3690 C   0  0  0  0  0  3  0  0  0  0  0  0
  157.7720  213.6460  142.0190 C   0  0  1  0  0  3  0  0  0  0  0  0
  161.7000  213.7590  147.5680 C   0  0  0  0  0  2  0  0  0  0  0  0
  158.9960  212.5210  140.1480 C   0  0  0  0  0  0  0  0  0  0  0  0
  162.0840  212.6400  146.6150 C   0  0  0  0  0  2  0  0  0  0  0  0
  163.3860  213.8070  144.8260 C   0  0  0  0  0  3  0  0  0  0  0  0
  162.8420  211.6980  138.4250 C   0  0  0  0  0  0  0  0  0  0  0  0
  163.9670  211.8650  139.1110 C   0  0  0  0  0  2  0  0  0  0  0  0
  162.9240  211.2630  137.0730 N   0  0  0  0  0  1  0  0  0  0  0  0
  161.7270  214.0960  150.0270 C   0  0  0  0  0  1  0  0  0  0  0  0
  160.4280  213.5410  149.6690 N   0  0  0  0  0  0  0  0  0  0  0  0
  160.4320  212.1850  150.2030 C   0  0  0  0  0  2  0  0  0  0  0  0
  160.9650  212.1790  151.6320 C   0  0  1  0  0  3  0  0  0  0  0  0
  159.9940  212.6300  152.5260 O   0  0  0  0  0  1  0  0  0  0  0  0
  161.5020  210.8070  152.0510 C   0  0  2  0  0  3  0  0  0  0  0  0
  162.1370  210.2310  150.9510 O   0  0  0  0  0  1  0  0  0  0  0  0
  159.0920  210.4420  152.8780 C   0  0  0  0  0  1  0  0  0  0  0  0
  160.4660  209.8110  152.6370 C   0  0  2  0  0  3  0  0  0  0  0  0
  162.4560  209.2970  154.0240 C   0  0  0  0  0  1  0  0  0  0  0  0
  160.9590  209.0360  153.8950 C   0  0  2  0  0  0  0  0  0  0  0  0
  161.7310  206.7180  153.1370 N   0  0  0  0  0  2  0  0  0  0  0  0
  161.5920  205.2750  153.0380 C   0  0  0  0  0  1  0  0  0  0  0  0
  160.7410  207.5340  153.7730 C   0  0  0  0  0  0  0  0  0  0  0  0
  159.7280  206.9920  154.2920 O   0  0  0  0  0  0  0  0  0  0  0  0
  160.3390  209.6260  155.1810 C   0  0  0  0  0  2  0  0  0  0  0  0
  161.1240  210.7150  155.8550 C   0  0  0  0  0  0  0  0  0  0  0  0
  160.5980  211.8350  156.0780 O   0  0  0  0  0  0  0  0  0  0  0  0
  162.4290  210.4720  156.2600 O   0  0  0  0  0  1  0  0  0  0  0  0
  1 18  1  6  0  0  0
  1 14  1  0  0  0  0
  1 26  1  0  0  0  0
  2 19  1  0  0  0  0
  5 31  1  0  0  0  0
  6  4  1  0  0  0  0
  7  8  1  6  0  0  0
  7 12  1  0  0  0  0
  8 10  2  0  0  0  0
  9 23  1  0  0  0  0
 10  6  1  0  0  0  0
 11 26  2  0  0  0  0
 11 24  1  0  0  0  0
 12  4  1  1  0  0  0
 12 27  1  0  0  0  0
 13 32  1  0  0  0  0
 15 13  2  0  0  0  0
 16 22  2  0  0  0  0
 17 20  1  6  0  0  0
 17 29  1  0  0  0  0
 19 25  1  0  0  0  0
 20  7  1  0  0  0  0
 21  2  1  0  0  0  0
 22 18  1  0  0  0  0
 23  3  2  0  0  0  0
 23 21  1  0  0  0  0
 24 33  2  0  0  0  0
 25 38  1  1  0  0  0
 26 15  1  0  0  0  0
 27  9  1  1  0  0  0
 28  5  2  0  0  0  0
 28 16  1  0  0  0  0
 29 27  1  0  0  0  0
 29 14  1  1  0  0  0
 30 25  1  0  0  0  0
 31 17  1  0  0  0  0
 31 18  2  0  0  0  0
 32 30  1  0  0  0  0
 33 13  1  0  0  0  0
 34 16  1  0  0  0  0
 34 35  2  0  0  0  0
 36 34  1  0  0  0  0
 38 37  1  0  0  0  0
 38 39  1  0  0  0  0
 39 40  1  0  0  0  0
 40 42  1  0  0  0  0
 40 41  1  1  0  0  0
 42 43  1  6  0  0  0
 42 45  1  0  0  0  0
 45 44  1  1  0  0  0
 45 47  1  0  0  0  0
 47 46  1  1  0  0  0
 47 52  1  0  0  0  0
 48 50  1  0  0  0  0
 49 48  1  0  0  0  0
 50 47  1  0  0  0  0
 50 51  2  0  0  0  0
 52 53  1  0  0  0  0
 53 54  2  0  0  0  0
 53 55  1  0  0  0  0
M  END
>  <MODEL>
4

>  <REMARK>
 VINA RESULT:       1.0      2.011      2.702
  Name = 
  10 active torsions:
  status: ('A' for Active; 'I' for Inactive)
    1  A    between atoms: C_1  and  C_53
    2  A    between atoms: C_6  and  C_14
    3  A    between atoms: C_6  and  C_20
    4  A    between atoms: N_8  and  C_22
    5  A    between atoms: N_8  and  C_43
    6  A    between atoms: C_10  and  C_32
    7  A    between atoms: C_14  and  C_38
    8  A    between atoms: C_20  and  C_22
    9  A    between atoms: C_29  and  C_38
   10  A    between atoms: C_38  and  C_53
                            x       y       z     vdW  Elec       q    Type
                         _______ _______ _______ _____ _____    ______ ____

>  <TORSDO>
F 10

$$$$
=
 OpenBabel11062408503D

 55 60  0  0  1  0  0  0  0  0999 V2000
  161.3150  210.6350  150.5720 C   0  0  2  0  0  3  0  0  0  0  0  0
  160.5940  206.4980  152.6980 C   0  0  0  0  0  2  0  0  0  0  0  0
  158.7630  208.1920  154.4310 O   0  0  0  0  0  0  0  0  0  0  0  0
  159.7730  211.3840  156.3750 C   0  0  0  0  0  2  0  0  0  0  0  0
  159.5370  213.9700  150.1430 C   0  0  0  0  0  3  0  0  0  0  0  0
  159.2250  212.5230  157.2600 C   0  0  0  0  0  2  0  0  0  0  0  0
  159.5200  213.1240  154.5240 C   0  0  2  0  0  3  0  0  0  0  0  0
  159.8210  214.1850  155.5360 C   0  0  0  0  0  3  0  0  0  0  0  0
  160.6960  209.4920  154.2980 N   0  0  0  0  0  2  0  0  0  0  0  0
  159.6990  213.8900  156.8360 C   0  0  0  0  0  3  0  0  0  0  0  0
  162.7340  209.6490  148.7400 C   0  0  0  0  0  3  0  0  0  0  0  0
  160.2180  211.8190  154.9640 C   0  0  2  0  0  3  0  0  0  0  0  0
  161.4420  207.1790  148.9540 C   0  0  0  0  0  0  0  0  0  0  0  0
  160.4570  210.2010  151.6050 O   0  0  0  0  0  0  0  0  0  0  0  0
  161.0390  208.2530  149.7540 C   0  0  0  0  0  3  0  0  0  0  0  0
  160.5200  213.3860  148.0000 C   0  0  0  0  0  0  0  0  0  0  0  0
  159.7040  212.4270  152.1380 C   0  0  2  0  0  3  0  0  0  0  0  0
  160.7490  211.8780  149.9040 C   0  0  0  0  0  0  0  0  0  0  0  0
  161.4060  205.3190  152.4580 N   0  0  0  0  0  2  0  0  0  0  0  0
  159.9660  213.5630  153.1280 C   0  0  0  0  0  2  0  0  0  0  0  0
  160.7860  206.9790  154.1220 C   0  0  0  0  0  2  0  0  0  0  0  0
  161.0050  212.1950  148.5640 C   0  0  0  0  0  3  0  0  0  0  0  0
  160.0170  208.2370  154.3150 C   0  0  0  0  0  0  0  0  0  0  0  0
  163.1310  208.5800  147.9310 C   0  0  0  0  0  3  0  0  0  0  0  0
  160.8300  204.6300  151.3070 C   0  0  1  0  0  3  0  0  0  0  0  0
  161.6750  209.5000  149.6460 C   0  0  0  0  0  0  0  0  0  0  0  0
  159.9930  210.7120  153.9290 C   0  0  1  0  0  3  0  0  0  0  0  0
  159.7820  214.2670  148.8010 C   0  0  0  0  0  3  0  0  0  0  0  0
  160.5140  211.2030  152.5840 C   0  0  1  0  0  3  0  0  0  0  0  0
  161.6440  204.9880  150.0660 C   0  0  0  0  0  2  0  0  0  0  0  0
  160.0390  212.7930  150.7110 C   0  0  0  0  0  0  0  0  0  0  0  0
  160.8070  205.8440  149.1310 C   0  0  0  0  0  2  0  0  0  0  0  0
  162.4880  207.3440  148.0410 C   0  0  0  0  0  3  0  0  0  0  0  0
  160.7790  213.7210  146.5840 C   0  0  0  0  0  0  0  0  0  0  0  0
  159.7980  213.7440  145.6890 C   0  0  0  0  0  2  0  0  0  0  0  0
  162.1040  214.0090  146.1520 N   0  0  0  0  0  1  0  0  0  0  0  0
  161.5540  202.9070  152.7720 C   0  0  0  0  0  1  0  0  0  0  0  0
  160.8360  203.1790  151.5330 N   0  0  0  0  0  0  0  0  0  0  0  0
  161.6350  202.5590  150.4850 C   0  0  0  0  0  2  0  0  0  0  0  0
  160.7740  201.6180  149.6490 C   0  0  1  0  0  3  0  0  0  0  0  0
  159.4180  201.8530  149.8720 O   0  0  0  0  0  1  0  0  0  0  0  0
  161.1040  201.6930  148.1540 C   0  0  2  0  0  3  0  0  0  0  0  0
  162.1600  202.5890  147.9840 O   0  0  0  0  0  1  0  0  0  0  0  0
  158.6360  201.3300  147.5200 C   0  0  0  0  0  1  0  0  0  0  0  0
  159.9350  202.0780  147.2090 C   0  0  2  0  0  3  0  0  0  0  0  0
  159.0620  202.5040  144.9280 C   0  0  0  0  0  1  0  0  0  0  0  0
  160.2810  201.9990  145.6930 C   0  0  2  0  0  0  0  0  0  0  0  0
  161.4400  199.7420  146.0200 N   0  0  0  0  0  2  0  0  0  0  0  0
  161.7170  198.3640  145.6530 C   0  0  0  0  0  1  0  0  0  0  0  0
  160.5790  200.5770  145.2380 C   0  0  0  0  0  0  0  0  0  0  0  0
  160.0140  200.1040  144.2140 O   0  0  0  0  0  0  0  0  0  0  0  0
  161.4120  202.9890  145.3350 C   0  0  0  0  0  2  0  0  0  0  0  0
  160.9990  204.4170  145.1200 C   0  0  0  0  0  0  0  0  0  0  0  0
  160.8930  205.2040  146.0950 O   0  0  0  0  0  1  0  0  0  0  0  0
  160.7610  204.8770  143.8320 O   0  0  0  0  0  0  0  0  0  0  0  0
  1 26  1  6  0  0  0
  1 14  1  0  0  0  0
  2 21  1  0  0  0  0
  4  6  1  0  0  0  0
  5 31  1  0  0  0  0
  7 20  1  6  0  0  0
  7 12  1  0  0  0  0
  7  8  1  0  0  0  0
  8 10  2  0  0  0  0
  9 23  1  0  0  0  0
 10  6  1  0  0  0  0
 11 26  1  0  0  0  0
 12  4  1  1  0  0  0
 13 32  1  0  0  0  0
 13 15  1  0  0  0  0
 16 22  2  0  0  0  0
 16 28  1  0  0  0  0
 17 29  1  0  0  0  0
 17 20  1  1  0  0  0
 18  1  1  0  0  0  0
 18 31  2  0  0  0  0
 19  2  1  0  0  0  0
 21 23  1  0  0  0  0
 22 18  1  0  0  0  0
 23  3  2  0  0  0  0
 24 33  1  0  0  0  0
 24 11  2  0  0  0  0
 25 38  1  1  0  0  0
 25 19  1  0  0  0  0
 26 15  2  0  0  0  0
 27  9  1  1  0  0  0
 27 12  1  0  0  0  0
 28  5  2  0  0  0  0
 29 14  1  6  0  0  0
 29 27  1  0  0  0  0
 30 25  1  0  0  0  0
 31 17  1  0  0  0  0
 32 30  1  0  0  0  0
 33 13  2  0  0  0  0
 34 16  1  0  0  0  0
 35 34  2  0  0  0  0
 36 34  1  0  0  0  0
 38 37  1  0  0  0  0
 39 38  1  0  0  0  0
 40 41  1  6  0  0  0
 40 39  1  0  0  0  0
 42 43  1  1  0  0  0
 42 40  1  0  0  0  0
 45 44  1  6  0  0  0
 45 42  1  0  0  0  0
 47 46  1  6  0  0  0
 47 45  1  0  0  0  0
 49 48  1  0  0  0  0
 50 47  1  0  0  0  0
 50 48  1  0  0  0  0
 51 50  2  0  0  0  0
 52 47  1  0  0  0  0
 53 52  1  0  0  0  0
 53 54  1  0  0  0  0
 55 53  2  0  0  0  0
M  END
>  <MODEL>
5

>  <REMARK>
 VINA RESULT:       1.6      6.650     11.629
  Name = 
  10 active torsions:
  status: ('A' for Active; 'I' for Inactive)
    1  A    between atoms: C_1  and  C_53
    2  A    between atoms: C_6  and  C_14
    3  A    between atoms: C_6  and  C_20
    4  A    between atoms: N_8  and  C_22
    5  A    between atoms: N_8  and  C_43
    6  A    between atoms: C_10  and  C_32
    7  A    between atoms: C_14  and  C_38
    8  A    between atoms: C_20  and  C_22
    9  A    between atoms: C_29  and  C_38
   10  A    between atoms: C_38  and  C_53
                            x       y       z     vdW  Elec       q    Type
                         _______ _______ _______ _____ _____    ______ ____

>  <TORSDO>
F 10

$$$$
=
 OpenBabel11062408503D

 55 60  0  0  1  0  0  0  0  0999 V2000
  159.0320  213.1530  141.5660 C   0  0  2  0  0  3  0  0  0  0  0  0
  156.5360  213.6730  145.5220 C   0  0  0  0  0  2  0  0  0  0  0  0
  154.2850  212.7190  143.7190 O   0  0  0  0  0  0  0  0  0  0  0  0
  153.2190  214.3180  140.3590 C   0  0  0  0  0  2  0  0  0  0  0  0
  158.8430  211.1970  138.3090 C   0  0  0  0  0  3  0  0  0  0  0  0
  152.2620  214.1630  139.1590 C   0  0  0  0  0  2  0  0  0  0  0  0
  154.8730  213.1770  138.7850 C   0  0  2  0  0  3  0  0  0  0  0  0
  154.1780  213.8400  137.6380 C   0  0  0  0  0  3  0  0  0  0  0  0
  155.3570  214.3190  142.4030 N   0  0  0  0  0  2  0  0  0  0  0  0
  152.9450  214.3250  137.8250 C   0  0  0  0  0  3  0  0  0  0  0  0
  161.2360  213.6580  142.6780 C   0  0  0  0  0  3  0  0  0  0  0  0
  154.7060  214.0650  140.0360 C   0  0  2  0  0  3  0  0  0  0  0  0
  160.2990  212.7280  145.1430 C   0  0  0  0  0  0  0  0  0  0  0  0
  157.6990  212.8680  141.9260 O   0  0  0  0  0  0  0  0  0  0  0  0
  159.4780  212.6680  144.0130 C   0  0  0  0  0  3  0  0  0  0  0  0
  161.1550  211.1520  139.0540 C   0  0  0  0  0  0  0  0  0  0  0  0
  157.0360  212.3160  139.6760 C   0  0  2  0  0  3  0  0  0  0  0  0
  159.4590  212.2830  140.3940 C   0  0  0  0  0  0  0  0  0  0  0  0
  157.0340  214.3540  146.7030 N   0  0  0  0  0  2  0  0  0  0  0  0
  156.3470  212.9300  138.4570 C   0  0  0  0  0  2  0  0  0  0  0  0
  155.3840  214.4530  144.9200 C   0  0  0  0  0  2  0  0  0  0  0  0
  160.7890  211.9000  140.1860 C   0  0  0  0  0  3  0  0  0  0  0  0
  154.9530  213.7850  143.6630 C   0  0  0  0  0  0  0  0  0  0  0  0
  162.0630  213.7080  143.8050 C   0  0  0  0  0  3  0  0  0  0  0  0
  157.7550  213.3630  147.4960 C   0  0  1  0  0  3  0  0  0  0  0  0
  159.9430  213.1220  142.7690 C   0  0  0  0  0  0  0  0  0  0  0  0
  155.4530  213.4610  141.2300 C   0  0  1  0  0  3  0  0  0  0  0  0
  160.1700  210.8030  138.1220 C   0  0  0  0  0  3  0  0  0  0  0  0
  156.9190  213.3030  140.8450 C   0  0  1  0  0  3  0  0  0  0  0  0
  159.2500  213.5190  147.2290 C   0  0  0  0  0  2  0  0  0  0  0  0
  158.4830  211.9600  139.4260 C   0  0  0  0  0  0  0  0  0  0  0  0
  159.7670  212.3100  146.4690 C   0  0  0  0  0  2  0  0  0  0  0  0
  161.5930  213.2480  145.0380 C   0  0  0  0  0  3  0  0  0  0  0  0
  162.5570  210.7360  138.8350 C   0  0  0  0  0  0  0  0  0  0  0  0
  163.3500  210.4190  139.8520 C   0  0  0  0  0  2  0  0  0  0  0  0
  163.0860  210.6870  137.5150 N   0  0  0  0  0  1  0  0  0  0  0  0
  156.2160  214.2990  149.0440 C   0  0  0  0  0  1  0  0  0  0  0  0
  157.4580  213.5450  148.9220 N   0  0  0  0  0  0  0  0  0  0  0  0
  158.4850  214.4060  149.4930 C   0  0  0  0  0  2  0  0  0  0  0  0
  158.5490  214.2240  151.0060 C   0  0  1  0  0  3  0  0  0  0  0  0
  157.3000  213.8740  151.5180 O   0  0  0  0  0  1  0  0  0  0  0  0
  159.6180  213.2110  151.4300 C   0  0  2  0  0  3  0  0  0  0  0  0
  160.5320  213.0770  150.3850 O   0  0  0  0  0  1  0  0  0  0  0  0
  157.5820  211.7290  151.9650 C   0  0  0  0  0  1  0  0  0  0  0  0
  159.1080  211.8100  151.8590 C   0  0  2  0  0  3  0  0  0  0  0  0
  160.6100  212.3720  153.7500 C   0  0  0  0  0  1  0  0  0  0  0  0
  159.7920  211.2400  153.1380 C   0  0  2  0  0  0  0  0  0  0  0  0
  160.4510  208.7770  153.3470 N   0  0  0  0  0  2  0  0  0  0  0  0
  161.2900  207.6310  153.0400 C   0  0  0  0  0  1  0  0  0  0  0  0
  160.7300  210.0820  152.8270 C   0  0  0  0  0  0  0  0  0  0  0  0
  161.7120  210.2470  152.0530 O   0  0  0  0  0  0  0  0  0  0  0  0
  158.7390  210.8840  154.2120 C   0  0  0  0  0  2  0  0  0  0  0  0
  158.6920  211.7810  155.4150 C   0  0  0  0  0  0  0  0  0  0  0  0
  157.7520  212.6040  155.5600 O   0  0  0  0  0  0  0  0  0  0  0  0
  159.6780  211.6800  156.3870 O   0  0  0  0  0  1  0  0  0  0  0  0
  1 18  1  6  0  0  0
  1 14  1  0  0  0  0
  1 26  1  0  0  0  0
  2 19  1  0  0  0  0
  5 31  1  0  0  0  0
  6  4  1  0  0  0  0
  7  8  1  6  0  0  0
  7 12  1  0  0  0  0
  8 10  2  0  0  0  0
  9 23  1  0  0  0  0
 10  6  1  0  0  0  0
 11 26  2  0  0  0  0
 11 24  1  0  0  0  0
 12  4  1  1  0  0  0
 12 27  1  0  0  0  0
 13 32  1  0  0  0  0
 15 13  2  0  0  0  0
 16 22  2  0  0  0  0
 17 20  1  6  0  0  0
 17 29  1  0  0  0  0
 19 25  1  0  0  0  0
 20  7  1  0  0  0  0
 21  2  1  0  0  0  0
 22 18  1  0  0  0  0
 23  3  2  0  0  0  0
 23 21  1  0  0  0  0
 24 33  2  0  0  0  0
 25 38  1  1  0  0  0
 26 15  1  0  0  0  0
 27  9  1  1  0  0  0
 28  5  2  0  0  0  0
 28 16  1  0  0  0  0
 29 27  1  0  0  0  0
 29 14  1  1  0  0  0
 30 25  1  0  0  0  0
 31 17  1  0  0  0  0
 31 18  2  0  0  0  0
 32 30  1  0  0  0  0
 33 13  1  0  0  0  0
 34 16  1  0  0  0  0
 34 35  2  0  0  0  0
 36 34  1  0  0  0  0
 38 37  1  0  0  0  0
 38 39  1  0  0  0  0
 39 40  1  0  0  0  0
 40 42  1  0  0  0  0
 40 41  1  6  0  0  0
 42 43  1  6  0  0  0
 42 45  1  0  0  0  0
 45 44  1  1  0  0  0
 45 47  1  0  0  0  0
 47 46  1  1  0  0  0
 47 52  1  0  0  0  0
 49 48  1  0  0  0  0
 50 47  1  0  0  0  0
 50 48  1  0  0  0  0
 51 50  2  0  0  0  0
 52 53  1  0  0  0  0
 53 54  2  0  0  0  0
 53 55  1  0  0  0  0
M  END
>  <MODEL>
6

>  <REMARK>
 VINA RESULT:       1.7      1.801      2.773
  Name = 
  10 active torsions:
  status: ('A' for Active; 'I' for Inactive)
    1  A    between atoms: C_1  and  C_53
    2  A    between atoms: C_6  and  C_14
    3  A    between atoms: C_6  and  C_20
    4  A    between atoms: N_8  and  C_22
    5  A    between atoms: N_8  and  C_43
    6  A    between atoms: C_10  and  C_32
    7  A    between atoms: C_14  and  C_38
    8  A    between atoms: C_20  and  C_22
    9  A    between atoms: C_29  and  C_38
   10  A    between atoms: C_38  and  C_53
                            x       y       z     vdW  Elec       q    Type
                         _______ _______ _______ _____ _____    ______ ____

>  <TORSDO>
F 10

$$$$
=
 OpenBabel11062408503D

 55 60  0  0  1  0  0  0  0  0999 V2000
  161.3010  210.3300  150.5960 C   0  0  2  0  0  3  0  0  0  0  0  0
  160.6020  206.2590  152.8510 C   0  0  0  0  0  2  0  0  0  0  0  0
  158.8050  208.0090  154.5650 O   0  0  0  0  0  0  0  0  0  0  0  0
  159.8580  211.2510  156.3990 C   0  0  0  0  0  2  0  0  0  0  0  0
  159.5270  213.6590  150.1010 C   0  0  0  0  0  3  0  0  0  0  0  0
  159.3290  212.4170  157.2610 C   0  0  0  0  0  2  0  0  0  0  0  0
  159.5810  212.9380  154.5040 C   0  0  2  0  0  3  0  0  0  0  0  0
  159.9020  214.0270  155.4800 C   0  0  0  0  0  3  0  0  0  0  0  0
  160.7400  209.2970  154.3630 N   0  0  0  0  0  2  0  0  0  0  0  0
  159.8000  213.7700  156.7890 C   0  0  0  0  0  3  0  0  0  0  0  0
  162.6870  209.2870  148.7690 C   0  0  0  0  0  3  0  0  0  0  0  0
  160.2810  211.6440  154.9700 C   0  0  2  0  0  3  0  0  0  0  0  0
  161.3900  206.8290  149.0760 C   0  0  0  0  0  0  0  0  0  0  0  0
  160.4590  209.9300  151.6540 O   0  0  0  0  0  0  0  0  0  0  0  0
  161.0040  207.9270  149.8510 C   0  0  0  0  0  3  0  0  0  0  0  0
  160.4730  213.0100  147.9600 C   0  0  0  0  0  0  0  0  0  0  0  0
  159.7230  212.1730  152.1360 C   0  0  2  0  0  3  0  0  0  0  0  0
  160.7280  211.5550  149.9020 C   0  0  0  0  0  0  0  0  0  0  0  0
  161.4050  205.0700  152.6310 N   0  0  0  0  0  2  0  0  0  0  0  0
  160.0050  213.3360  153.0890 C   0  0  0  0  0  2  0  0  0  0  0  0
  160.8190  206.7790  154.2580 C   0  0  0  0  0  2  0  0  0  0  0  0
  160.9640  211.8330  148.5500 C   0  0  0  0  0  3  0  0  0  0  0  0
  160.0570  208.0450  154.4270 C   0  0  0  0  0  0  0  0  0  0  0  0
  163.0660  208.1930  147.9850 C   0  0  0  0  0  3  0  0  0  0  0  0
  160.8080  204.3510  151.5110 C   0  0  1  0  0  3  0  0  0  0  0  0
  161.6410  209.1680  149.6970 C   0  0  0  0  0  0  0  0  0  0  0  0
  160.0350  210.5090  153.9710 C   0  0  1  0  0  3  0  0  0  0  0  0
  159.7520  213.9160  148.7470 C   0  0  0  0  0  3  0  0  0  0  0  0
  160.5360  210.9580  152.6040 C   0  0  1  0  0  3  0  0  0  0  0  0
  161.6020  204.6700  150.2470 C   0  0  0  0  0  2  0  0  0  0  0  0
  160.0350  212.4960  150.6940 C   0  0  0  0  0  0  0  0  0  0  0  0
  160.7530  205.5020  149.3010 C   0  0  0  0  0  2  0  0  0  0  0  0
  162.4210  206.9640  148.1410 C   0  0  0  0  0  3  0  0  0  0  0  0
  160.7100  213.3030  146.5300 C   0  0  0  0  0  0  0  0  0  0  0  0
  159.7780  213.8820  145.7810 C   0  0  0  0  0  2  0  0  0  0  0  0
  161.9480  212.9470  145.9270 N   0  0  0  0  0  1  0  0  0  0  0  0
  161.4590  202.6770  153.0640 C   0  0  0  0  0  1  0  0  0  0  0  0
  160.8120  202.9070  151.7780 N   0  0  0  0  0  0  0  0  0  0  0  0
  161.6760  202.2660  150.7960 C   0  0  0  0  0  2  0  0  0  0  0  0
  160.9070  201.1910  150.0340 C   0  0  1  0  0  3  0  0  0  0  0  0
  160.0110  200.5310  150.8740 O   0  0  0  0  0  1  0  0  0  0  0  0
  160.1930  201.7470  148.7980 C   0  0  2  0  0  3  0  0  0  0  0  0
  158.8250  201.7960  149.0690 O   0  0  0  0  0  1  0  0  0  0  0  0
  161.6010  200.0010  147.5340 C   0  0  0  0  0  1  0  0  0  0  0  0
  160.4340  200.9900  147.4650 C   0  0  2  0  0  3  0  0  0  0  0  0
  160.9240  201.0190  145.0350 C   0  0  0  0  0  1  0  0  0  0  0  0
  160.5500  201.9110  146.2140 C   0  0  2  0  0  0  0  0  0  0  0  0
  162.0980  203.6930  145.2280 N   0  0  0  0  0  2  0  0  0  0  0  0
  163.0910  204.7480  145.3360 C   0  0  0  0  0  1  0  0  0  0  0  0
  161.6270  202.9750  146.3740 C   0  0  0  0  0  0  0  0  0  0  0  0
  162.0580  203.2790  147.5200 O   0  0  0  0  0  0  0  0  0  0  0  0
  159.1740  202.5070  145.8410 C   0  0  0  0  0  2  0  0  0  0  0  0
  159.1580  203.4570  144.6780 C   0  0  0  0  0  0  0  0  0  0  0  0
  158.2960  203.3370  143.7690 O   0  0  0  0  0  0  0  0  0  0  0  0
  160.0810  204.4920  144.6230 O   0  0  0  0  0  1  0  0  0  0  0  0
  1 26  1  6  0  0  0
  1 14  1  0  0  0  0
  2 21  1  0  0  0  0
  4  6  1  0  0  0  0
  5 31  1  0  0  0  0
  7 20  1  6  0  0  0
  7 12  1  0  0  0  0
  7  8  1  0  0  0  0
  8 10  2  0  0  0  0
  9 23  1  0  0  0  0
 10  6  1  0  0  0  0
 11 26  1  0  0  0  0
 12  4  1  1  0  0  0
 13 32  1  0  0  0  0
 13 15  1  0  0  0  0
 16 22  2  0  0  0  0
 16 28  1  0  0  0  0
 17 29  1  0  0  0  0
 17 20  1  1  0  0  0
 18  1  1  0  0  0  0
 18 31  2  0  0  0  0
 19  2  1  0  0  0  0
 21 23  1  0  0  0  0
 22 18  1  0  0  0  0
 23  3  2  0  0  0  0
 24 33  1  0  0  0  0
 24 11  2  0  0  0  0
 25 38  1  1  0  0  0
 25 19  1  0  0  0  0
 26 15  2  0  0  0  0
 27  9  1  1  0  0  0
 27 12  1  0  0  0  0
 28  5  2  0  0  0  0
 29 14  1  6  0  0  0
 29 27  1  0  0  0  0
 30 25  1  0  0  0  0
 31 17  1  0  0  0  0
 32 30  1  0  0  0  0
 33 13  2  0  0  0  0
 34 16  1  0  0  0  0
 35 34  2  0  0  0  0
 36 34  1  0  0  0  0
 38 37  1  0  0  0  0
 39 38  1  0  0  0  0
 40 39  1  0  0  0  0
 40 41  1  1  0  0  0
 42 43  1  1  0  0  0
 42 40  1  0  0  0  0
 45 44  1  1  0  0  0
 45 42  1  0  0  0  0
 47 46  1  6  0  0  0
 47 50  1  0  0  0  0
 47 45  1  0  0  0  0
 48 49  1  0  0  0  0
 48 50  1  0  0  0  0
 50 51  2  0  0  0  0
 52 47  1  0  0  0  0
 53 52  1  0  0  0  0
 54 53  2  0  0  0  0
 55 53  1  0  0  0  0
M  END
>  <MODEL>
7

>  <REMARK>
 VINA RESULT:       2.6      6.426     11.567
  Name = 
  10 active torsions:
  status: ('A' for Active; 'I' for Inactive)
    1  A    between atoms: C_1  and  C_53
    2  A    between atoms: C_6  and  C_14
    3  A    between atoms: C_6  and  C_20
    4  A    between atoms: N_8  and  C_22
    5  A    between atoms: N_8  and  C_43
    6  A    between atoms: C_10  and  C_32
    7  A    between atoms: C_14  and  C_38
    8  A    between atoms: C_20  and  C_22
    9  A    between atoms: C_29  and  C_38
   10  A    between atoms: C_38  and  C_53
                            x       y       z     vdW  Elec       q    Type
                         _______ _______ _______ _____ _____    ______ ____

>  <TORSDO>
F 10

$$$$
