=
 OpenBabel11062410463D

 32 36  0  0  1  0  0  0  0  0999 V2000
  161.2360  202.2010  149.7680 N   0  0  0  0  0  0  0  0  0  0  0  0
  161.2130  206.6580  152.2050 C   0  0  0  0  0  0  0  0  0  0  0  0
  162.1780  210.0040  148.8130 C   0  0  0  0  0  3  0  0  0  0  0  0
  161.9950  210.9740  149.7460 N   0  0  0  0  0  0  0  0  0  0  0  0
  161.2310  204.2980  151.6780 C   0  0  0  0  0  0  0  0  0  0  0  0
  161.7210  205.9140  149.9440 C   0  0  0  0  0  3  0  0  0  0  0  0
  161.6690  203.5040  149.4350 N   0  0  0  0  0  2  0  0  0  0  0  0
  162.0420  208.6610  149.1630 C   0  0  0  0  0  3  0  0  0  0  0  0
  161.5580  206.9650  150.8660 C   0  0  0  0  0  0  0  0  0  0  0  0
  161.7140  208.3130  150.4810 C   0  0  0  0  0  0  0  0  0  0  0  0
  161.2140  209.0180  152.7750 C   0  0  0  0  0  0  0  0  0  0  0  0
  161.5570  201.9170  151.1780 C   0  0  0  0  0  2  0  0  0  0  0  0
  161.5480  204.5920  150.3550 C   0  0  0  0  0  0  0  0  0  0  0  0
  161.0970  202.9600  152.0470 O   0  0  0  0  0  0  0  0  0  0  0  0
  161.6810  210.6750  151.0340 C   0  0  0  0  0  3  0  0  0  0  0  0
  161.5360  209.3400  151.4410 C   0  0  0  0  0  0  0  0  0  0  0  0
  161.0500  205.3260  152.6040 C   0  0  0  0  0  3  0  0  0  0  0  0
  161.0420  207.6790  153.1370 C   0  0  0  0  0  3  0  0  0  0  0  0
  159.7880  202.1480  149.6070 C   0  0  0  0  0  2  0  0  0  0  0  0
  159.4380  201.5150  148.2720 C   0  0  0  0  0  2  0  0  0  0  0  0
  160.6560  201.2190  147.5380 N   0  0  0  0  0  2  0  0  0  0  0  0
  161.2100  202.9200  145.9040 C   0  0  0  0  0  1  0  0  0  0  0  0
  160.4360  201.6440  146.1670 C   0  0  0  0  0  2  0  0  0  0  0  0
  161.0220  210.1000  153.8140 C   0  0  0  0  0  2  0  0  0  0  0  0
  159.3080  211.9230  153.7780 C   0  0  1  0  0  3  0  0  0  0  0  0
  159.1390  210.1250  155.3890 C   0  0  2  0  0  3  0  0  0  0  0  0
  157.8620  210.8830  155.6480 C   0  0  0  0  0  2  0  0  0  0  0  0
  158.1130  212.5520  155.0010 S   0  0  0  0  0  0  0  0  0  0  0  0
  160.1280  210.4270  156.5130 C   0  0  0  0  0  1  0  0  0  0  0  0
  159.6220  210.5130  154.0570 N   0  0  0  0  0  0  0  0  0  0  0  0
  158.6890  212.0530  152.3970 C   0  0  0  0  0  2  0  0  0  0  0  0
  159.3800  213.0010  151.6440 O   0  0  0  0  0  1  0  0  0  0  0  0
  1 12  1  0  0  0  0
  2 17  2  0  0  0  0
  2 18  1  0  0  0  0
  3  8  2  0  0  0  0
  3  4  1  0  0  0  0
  4 15  2  0  0  0  0
  5 14  1  0  0  0  0
  5 17  1  0  0  0  0
  6 13  1  0  0  0  0
  6  9  2  0  0  0  0
  7  1  1  0  0  0  0
  7 13  1  0  0  0  0
  8 10  1  0  0  0  0
  9  2  1  0  0  0  0
 10  9  1  0  0  0  0
 10 16  2  0  0  0  0
 11 18  2  0  0  0  0
 11 24  1  0  0  0  0
 12 14  1  0  0  0  0
 13  5  2  0  0  0  0
 15 16  1  0  0  0  0
 16 11  1  0  0  0  0
 19  1  1  0  0  0  0
 20 19  1  0  0  0  0
 21 20  1  0  0  0  0
 22 23  1  0  0  0  0
 23 21  1  0  0  0  0
 24 30  1  0  0  0  0
 25 31  1  6  0  0  0
 25 30  1  0  0  0  0
 25 28  1  0  0  0  0
 26 27  1  0  0  0  0
 26 29  1  1  0  0  0
 28 27  1  0  0  0  0
 30 26  1  0  0  0  0
 32 31  1  0  0  0  0
M  END
>  <MODEL>
1

>  <REMARK>
 VINA RESULT:      -6.5      0.000      0.000
  Name = 
  7 active torsions:
  status: ('A' for Active; 'I' for Inactive)
    1  A    between atoms: N_1  and  C_10
    2  A    between atoms: N_1  and  C_20
    3  A    between atoms: N_2  and  C_24
    4  A    between atoms: C_6  and  C_7
    5  A    between atoms: C_10  and  C_24
    6  A    between atoms: C_16  and  C_27
    7  A    between atoms: C_27  and  N_32
                            x       y       z     vdW  Elec       q    Type
                         _______ _______ _______ _____ _____    ______ ____

>  <TORSDO>
F 7

$$$$
=
 OpenBabel11062410463D

 32 36  0  0  1  0  0  0  0  0999 V2000
  160.5370  209.8980  155.3950 N   0  0  0  0  0  0  0  0  0  0  0  0
  161.7510  207.3230  151.1880 C   0  0  0  0  0  0  0  0  0  0  0  0
  160.4950  202.7100  152.0740 C   0  0  0  0  0  3  0  0  0  0  0  0
  160.8420  202.3920  150.8000 N   0  0  0  0  0  0  0  0  0  0  0  0
  161.5470  209.0260  152.8920 C   0  0  0  0  0  0  0  0  0  0  0  0
  160.9060  206.7470  153.3970 C   0  0  0  0  0  3  0  0  0  0  0  0
  160.6570  208.5240  155.0850 N   0  0  0  0  0  2  0  0  0  0  0  0
  160.6290  204.0210  152.5300 C   0  0  0  0  0  3  0  0  0  0  0  0
  161.2610  206.3500  152.0950 C   0  0  0  0  0  0  0  0  0  0  0  0
  161.1230  205.0120  151.6690 C   0  0  0  0  0  0  0  0  0  0  0  0
  161.9950  205.6300  149.4640 C   0  0  0  0  0  0  0  0  0  0  0  0
  161.6130  210.6520  154.7290 C   0  0  0  0  0  2  0  0  0  0  0  0
  161.0440  208.0810  153.7820 C   0  0  0  0  0  0  0  0  0  0  0  0
  161.6950  210.3410  153.3320 O   0  0  0  0  0  0  0  0  0  0  0  0
  161.3280  203.3240  149.9390 C   0  0  0  0  0  3  0  0  0  0  0  0
  161.4880  204.6560  150.3470 C   0  0  0  0  0  0  0  0  0  0  0  0
  161.8920  208.6550  151.5910 C   0  0  0  0  0  3  0  0  0  0  0  0
  162.1070  206.9570  149.8920 C   0  0  0  0  0  3  0  0  0  0  0  0
  159.2580  210.3700  154.8780 C   0  0  0  0  0  2  0  0  0  0  0  0
  159.1170  211.8610  155.1280 C   0  0  0  0  0  2  0  0  0  0  0  0
  158.3040  212.4570  154.0820 N   0  0  0  0  0  2  0  0  0  0  0  0
  159.3550  212.6690  151.9090 C   0  0  0  0  0  1  0  0  0  0  0  0
  158.6120  211.7460  152.8530 C   0  0  0  0  0  2  0  0  0  0  0  0
  162.3920  205.2700  148.0490 C   0  0  0  0  0  2  0  0  0  0  0  0
  161.6030  204.1570  145.9510 C   0  0  1  0  0  3  0  0  0  0  0  0
  160.5410  206.1890  146.7230 C   0  0  2  0  0  3  0  0  0  0  0  0
  159.6760  205.8270  145.5430 C   0  0  0  0  0  2  0  0  0  0  0  0
  160.6620  204.7280  144.5000 S   0  0  0  0  0  0  0  0  0  0  0  0
  161.4480  207.3540  146.3300 C   0  0  0  0  0  1  0  0  0  0  0  0
  161.2730  204.9810  147.1240 N   0  0  0  0  0  0  0  0  0  0  0  0
  161.2370  202.7070  146.2160 C   0  0  0  0  0  2  0  0  0  0  0  0
  160.5140  202.1870  145.1430 O   0  0  0  0  0  1  0  0  0  0  0  0
  2 17  2  0  0  0  0
  2  9  1  0  0  0  0
  3  8  1  0  0  0  0
  4  3  2  0  0  0  0
  5 14  1  0  0  0  0
  5 13  2  0  0  0  0
  6 13  1  0  0  0  0
  7  1  1  0  0  0  0
  9  6  2  0  0  0  0
 10  9  1  0  0  0  0
 10  8  2  0  0  0  0
 11 18  2  0  0  0  0
 11 16  1  0  0  0  0
 12  1  1  0  0  0  0
 13  7  1  0  0  0  0
 14 12  1  0  0  0  0
 15 16  2  0  0  0  0
 15  4  1  0  0  0  0
 16 10  1  0  0  0  0
 17  5  1  0  0  0  0
 18  2  1  0  0  0  0
 19 20  1  0  0  0  0
 19  1  1  0  0  0  0
 21 20  1  0  0  0  0
 22 23  1  0  0  0  0
 23 21  1  0  0  0  0
 24 11  1  0  0  0  0
 25 31  1  1  0  0  0
 25 30  1  0  0  0  0
 26 29  1  6  0  0  0
 26 30  1  0  0  0  0
 27 26  1  0  0  0  0
 28 27  1  0  0  0  0
 28 25  1  0  0  0  0
 30 24  1  0  0  0  0
 32 31  1  0  0  0  0
M  END
>  <MODEL>
2

>  <REMARK>
 VINA RESULT:      -6.0      3.288      8.771
  Name = 
  7 active torsions:
  status: ('A' for Active; 'I' for Inactive)
    1  A    between atoms: N_1  and  C_10
    2  A    between atoms: N_1  and  C_20
    3  A    between atoms: N_2  and  C_24
    4  A    between atoms: C_6  and  C_7
    5  A    between atoms: C_10  and  C_24
    6  A    between atoms: C_16  and  C_27
    7  A    between atoms: C_27  and  N_32
                            x       y       z     vdW  Elec       q    Type
                         _______ _______ _______ _____ _____    ______ ____

>  <TORSDO>
F 7

$$$$
=
 OpenBabel11062410463D

 32 36  0  0  1  0  0  0  0  0999 V2000
  162.1930  205.8670  151.3380 N   0  0  0  0  0  0  0  0  0  0  0  0
  160.3150  210.2710  153.0350 C   0  0  0  0  0  0  0  0  0  0  0  0
  160.8540  213.4180  149.3680 C   0  0  0  0  0  3  0  0  0  0  0  0
  160.1990  214.3550  150.1020 N   0  0  0  0  0  0  0  0  0  0  0  0
  161.1630  208.0120  152.8820 C   0  0  0  0  0  0  0  0  0  0  0  0
  161.4650  209.5310  151.0220 C   0  0  0  0  0  3  0  0  0  0  0  0
  162.2600  207.2030  150.8830 N   0  0  0  0  0  2  0  0  0  0  0  0
  161.0720  212.1440  149.8920 C   0  0  0  0  0  3  0  0  0  0  0  0
  160.8070  210.5490  151.7350 C   0  0  0  0  0  0  0  0  0  0  0  0
  160.6130  211.8310  151.1800 C   0  0  0  0  0  0  0  0  0  0  0  0
  159.4770  212.5420  153.2320 C   0  0  0  0  0  0  0  0  0  0  0  0
  162.3000  205.8380  152.8070 C   0  0  0  0  0  2  0  0  0  0  0  0
  161.6300  208.2700  151.5960 C   0  0  0  0  0  0  0  0  0  0  0  0
  161.3780  206.7460  153.4250 O   0  0  0  0  0  0  0  0  0  0  0  0
  159.7450  214.0900  151.3550 C   0  0  0  0  0  3  0  0  0  0  0  0
  159.9410  212.8260  151.9320 C   0  0  0  0  0  0  0  0  0  0  0  0
  160.4960  209.0040  153.6010 C   0  0  0  0  0  3  0  0  0  0  0  0
  159.6580  211.2610  153.7620 C   0  0  0  0  0  3  0  0  0  0  0  0
  160.8930  205.3230  150.9620 C   0  0  0  0  0  2  0  0  0  0  0  0
  160.7440  205.3360  149.4510 C   0  0  0  0  0  2  0  0  0  0  0  0
  161.0290  204.0140  148.9200 N   0  0  0  0  0  2  0  0  0  0  0  0
  160.2030  201.7600  149.2430 C   0  0  0  0  0  1  0  0  0  0  0  0
  160.5970  203.0560  149.9220 C   0  0  0  0  0  2  0  0  0  0  0  0
  158.7600  213.5910  154.0510 C   0  0  0  0  0  2  0  0  0  0  0  0
  156.3870  214.2960  154.4200 C   0  0  1  0  0  3  0  0  0  0  0  0
  157.3850  212.6020  155.8300 C   0  0  2  0  0  3  0  0  0  0  0  0
  155.9600  212.6010  156.3200 C   0  0  0  0  0  2  0  0  0  0  0  0
  155.2470  214.1900  155.8370 S   0  0  0  0  0  0  0  0  0  0  0  0
  158.2590  213.3210  156.8560 C   0  0  0  0  0  1  0  0  0  0  0  0
  157.3960  213.2300  154.5020 N   0  0  0  0  0  0  0  0  0  0  0  0
  155.5760  214.1460  153.1440 C   0  0  0  0  0  2  0  0  0  0  0  0
  154.2120  214.2150  153.4270 O   0  0  0  0  0  1  0  0  0  0  0  0
  1 12  1  0  0  0  0
  2 17  2  0  0  0  0
  2 18  1  0  0  0  0
  3  8  2  0  0  0  0
  3  4  1  0  0  0  0
  4 15  2  0  0  0  0
  5 14  1  0  0  0  0
  5 17  1  0  0  0  0
  6 13  1  0  0  0  0
  6  9  2  0  0  0  0
  7  1  1  0  0  0  0
  7 13  1  0  0  0  0
  8 10  1  0  0  0  0
  9  2  1  0  0  0  0
 10  9  1  0  0  0  0
 10 16  2  0  0  0  0
 11 18  2  0  0  0  0
 11 24  1  0  0  0  0
 12 14  1  0  0  0  0
 13  5  2  0  0  0  0
 15 16  1  0  0  0  0
 16 11  1  0  0  0  0
 19  1  1  0  0  0  0
 20 19  1  0  0  0  0
 21 20  1  0  0  0  0
 21 23  1  0  0  0  0
 22 23  1  0  0  0  0
 24 30  1  0  0  0  0
 25 31  1  6  0  0  0
 25 30  1  0  0  0  0
 25 28  1  0  0  0  0
 26 27  1  0  0  0  0
 26 29  1  1  0  0  0
 28 27  1  0  0  0  0
 30 26  1  0  0  0  0
 31 32  1  0  0  0  0
M  END
>  <MODEL>
3

>  <REMARK>
 VINA RESULT:      -5.7      2.512      3.850
  Name = 
  7 active torsions:
  status: ('A' for Active; 'I' for Inactive)
    1  A    between atoms: N_1  and  C_10
    2  A    between atoms: N_1  and  C_20
    3  A    between atoms: N_2  and  C_24
    4  A    between atoms: C_6  and  C_7
    5  A    between atoms: C_10  and  C_24
    6  A    between atoms: C_16  and  C_27
    7  A    between atoms: C_27  and  N_32
                            x       y       z     vdW  Elec       q    Type
                         _______ _______ _______ _____ _____    ______ ____

>  <TORSDO>
F 7

$$$$
=
 OpenBabel11062410463D

 32 36  0  0  1  0  0  0  0  0999 V2000
  161.4750  203.1640  150.5770 N   0  0  0  0  0  0  0  0  0  0  0  0
  160.9460  207.9180  152.2890 C   0  0  0  0  0  0  0  0  0  0  0  0
  162.2030  210.7900  148.5730 C   0  0  0  0  0  3  0  0  0  0  0  0
  161.8580  211.8720  149.3190 N   0  0  0  0  0  0  0  0  0  0  0  0
  161.1320  205.5120  152.1320 C   0  0  0  0  0  0  0  0  0  0  0  0
  161.7760  206.8870  150.2470 C   0  0  0  0  0  3  0  0  0  0  0  0
  161.8920  204.4300  150.1060 N   0  0  0  0  0  2  0  0  0  0  0  0
  162.0790  209.5060  149.1030 C   0  0  0  0  0  3  0  0  0  0  0  0
  161.4490  208.0480  150.9710 C   0  0  0  0  0  0  0  0  0  0  0  0
  161.5970  209.3330  150.4090 C   0  0  0  0  0  0  0  0  0  0  0  0
  160.7740  210.3320  152.4900 C   0  0  0  0  0  0  0  0  0  0  0  0
  161.6210  203.1080  152.0420 C   0  0  0  0  0  2  0  0  0  0  0  0
  161.6060  205.6300  150.8290 C   0  0  0  0  0  0  0  0  0  0  0  0
  161.0080  204.2360  152.6810 O   0  0  0  0  0  0  0  0  0  0  0  0
  161.3920  211.7440  150.5890 C   0  0  0  0  0  3  0  0  0  0  0  0
  161.2530  210.4760  151.1720 C   0  0  0  0  0  0  0  0  0  0  0  0
  160.7890  206.6510  152.8630 C   0  0  0  0  0  3  0  0  0  0  0  0
  160.6120  209.0510  153.0280 C   0  0  0  0  0  3  0  0  0  0  0  0
  160.0640  203.0000  150.2500 C   0  0  0  0  0  2  0  0  0  0  0  0
  159.8940  201.8850  149.2340 C   0  0  0  0  0  2  0  0  0  0  0  0
  161.0740  201.0370  149.2380 N   0  0  0  0  0  2  0  0  0  0  0  0
  160.9080  201.6540  146.9010 C   0  0  0  0  0  1  0  0  0  0  0  0
  161.2460  200.5490  147.8820 C   0  0  0  0  0  2  0  0  0  0  0  0
  160.4020  211.5390  153.3220 C   0  0  0  0  0  2  0  0  0  0  0  0
  161.5180  210.2730  155.1700 C   0  0  1  0  0  3  0  0  0  0  0  0
  159.5900  211.6580  155.6350 C   0  0  2  0  0  3  0  0  0  0  0  0
  159.9850  211.2170  157.0210 C   0  0  0  0  0  2  0  0  0  0  0  0
  160.9820  209.7220  156.8220 S   0  0  0  0  0  0  0  0  0  0  0  0
  158.3510  210.8750  155.2040 C   0  0  0  0  0  1  0  0  0  0  0  0
  160.7500  211.4580  154.7580 N   0  0  0  0  0  0  0  0  0  0  0  0
  162.9980  210.6100  155.2380 C   0  0  0  0  0  2  0  0  0  0  0  0
  163.4170  210.6840  156.5660 O   0  0  0  0  0  1  0  0  0  0  0  0
  1 12  1  0  0  0  0
  2 17  2  0  0  0  0
  2 18  1  0  0  0  0
  3  8  2  0  0  0  0
  3  4  1  0  0  0  0
  4 15  2  0  0  0  0
  5 14  1  0  0  0  0
  5 17  1  0  0  0  0
  6 13  1  0  0  0  0
  6  9  2  0  0  0  0
  7  1  1  0  0  0  0
  7 13  1  0  0  0  0
  8 10  1  0  0  0  0
  9  2  1  0  0  0  0
 10  9  1  0  0  0  0
 10 16  2  0  0  0  0
 11 18  2  0  0  0  0
 11 24  1  0  0  0  0
 12 14  1  0  0  0  0
 13  5  2  0  0  0  0
 15 16  1  0  0  0  0
 16 11  1  0  0  0  0
 19  1  1  0  0  0  0
 20 21  1  0  0  0  0
 20 19  1  0  0  0  0
 22 23  1  0  0  0  0
 23 21  1  0  0  0  0
 24 30  1  0  0  0  0
 25 31  1  1  0  0  0
 25 28  1  0  0  0  0
 26 29  1  6  0  0  0
 26 27  1  0  0  0  0
 28 27  1  0  0  0  0
 30 25  1  0  0  0  0
 30 26  1  0  0  0  0
 31 32  1  0  0  0  0
M  END
>  <MODEL>
4

>  <REMARK>
 VINA RESULT:      -5.4      1.829      2.255
  Name = 
  7 active torsions:
  status: ('A' for Active; 'I' for Inactive)
    1  A    between atoms: N_1  and  C_10
    2  A    between atoms: N_1  and  C_20
    3  A    between atoms: N_2  and  C_24
    4  A    between atoms: C_6  and  C_7
    5  A    between atoms: C_10  and  C_24
    6  A    between atoms: C_16  and  C_27
    7  A    between atoms: C_27  and  N_32
                            x       y       z     vdW  Elec       q    Type
                         _______ _______ _______ _____ _____    ______ ____

>  <TORSDO>
F 7

$$$$
=
 OpenBabel11062410463D

 32 36  0  0  1  0  0  0  0  0999 V2000
  161.3180  205.2580  147.2420 N   0  0  0  0  0  0  0  0  0  0  0  0
  161.2480  208.5600  151.1020 C   0  0  0  0  0  0  0  0  0  0  0  0
  160.7890  205.8620  155.1190 C   0  0  0  0  0  3  0  0  0  0  0  0
  160.9080  206.9900  155.8670 N   0  0  0  0  0  0  0  0  0  0  0  0
  161.1960  207.5540  148.9040 C   0  0  0  0  0  0  0  0  0  0  0  0
  160.9610  206.1550  150.8650 C   0  0  0  0  0  3  0  0  0  0  0  0
  160.9750  205.1620  148.6100 N   0  0  0  0  0  2  0  0  0  0  0  0
  160.8340  205.9350  153.7280 C   0  0  0  0  0  3  0  0  0  0  0  0
  161.0630  207.2870  151.6950 C   0  0  0  0  0  0  0  0  0  0  0  0
  161.0030  207.1780  153.1000 C   0  0  0  0  0  0  0  0  0  0  0  0
  161.2760  209.6060  153.2930 C   0  0  0  0  0  0  0  0  0  0  0  0
  160.8340  206.5390  146.6980 C   0  0  0  0  0  2  0  0  0  0  0  0
  161.0370  206.2970  149.4790 C   0  0  0  0  0  0  0  0  0  0  0  0
  161.2360  207.6480  147.5130 O   0  0  0  0  0  0  0  0  0  0  0  0
  161.0670  208.2120  155.2940 C   0  0  0  0  0  3  0  0  0  0  0  0
  161.1140  208.3430  153.8980 C   0  0  0  0  0  0  0  0  0  0  0  0
  161.3140  208.6870  149.7090 C   0  0  0  0  0  3  0  0  0  0  0  0
  161.3550  209.6970  151.9000 C   0  0  0  0  0  3  0  0  0  0  0  0
  162.7720  205.2340  147.1360 C   0  0  0  0  0  2  0  0  0  0  0  0
  163.1900  204.3860  145.9470 C   0  0  0  0  0  2  0  0  0  0  0  0
  162.0090  203.8800  145.2690 N   0  0  0  0  0  2  0  0  0  0  0  0
  160.4250  202.0460  145.2620 C   0  0  0  0  0  1  0  0  0  0  0  0
  161.5800  202.6980  145.9960 C   0  0  0  0  0  2  0  0  0  0  0  0
  161.3950  210.8610  154.1270 C   0  0  0  0  0  2  0  0  0  0  0  0
  159.7950  212.7860  154.0840 C   0  0  1  0  0  3  0  0  0  0  0  0
  159.9700  211.3930  156.0550 C   0  0  2  0  0  3  0  0  0  0  0  0
  158.8290  212.3040  156.4290 C   0  0  0  0  0  2  0  0  0  0  0  0
  158.9710  213.7670  155.3780 S   0  0  0  0  0  0  0  0  0  0  0  0
  161.2210  211.8330  156.8140 C   0  0  0  0  0  1  0  0  0  0  0  0
  160.1170  211.4440  154.5940 N   0  0  0  0  0  0  0  0  0  0  0  0
  158.8540  212.6770  152.8960 C   0  0  0  0  0  2  0  0  0  0  0  0
  158.1900  211.4510  152.9150 O   0  0  0  0  0  1  0  0  0  0  0  0
  1  7  1  0  0  0  0
  2  9  1  0  0  0  0
  2 18  1  0  0  0  0
  3  4  1  0  0  0  0
  5 13  2  0  0  0  0
  5 17  1  0  0  0  0
  6  9  2  0  0  0  0
  7 13  1  0  0  0  0
  8  3  2  0  0  0  0
  9 10  1  0  0  0  0
 10  8  1  0  0  0  0
 10 16  2  0  0  0  0
 11 16  1  0  0  0  0
 11 24  1  0  0  0  0
 12  1  1  0  0  0  0
 12 14  1  0  0  0  0
 13  6  1  0  0  0  0
 14  5  1  0  0  0  0
 15  4  2  0  0  0  0
 16 15  1  0  0  0  0
 17  2  2  0  0  0  0
 18 11  2  0  0  0  0
 19  1  1  0  0  0  0
 20 19  1  0  0  0  0
 21 20  1  0  0  0  0
 21 23  1  0  0  0  0
 22 23  1  0  0  0  0
 24 30  1  0  0  0  0
 25 31  1  6  0  0  0
 25 30  1  0  0  0  0
 25 28  1  0  0  0  0
 26 27  1  0  0  0  0
 26 29  1  1  0  0  0
 28 27  1  0  0  0  0
 30 26  1  0  0  0  0
 31 32  1  0  0  0  0
M  END
>  <MODEL>
5

>  <REMARK>
 VINA RESULT:      -5.3      2.389      3.688
  Name = 
  7 active torsions:
  status: ('A' for Active; 'I' for Inactive)
    1  A    between atoms: N_1  and  C_10
    2  A    between atoms: N_1  and  C_20
    3  A    between atoms: N_2  and  C_24
    4  A    between atoms: C_6  and  C_7
    5  A    between atoms: C_10  and  C_24
    6  A    between atoms: C_16  and  C_27
    7  A    between atoms: C_27  and  N_32
                            x       y       z     vdW  Elec       q    Type
                         _______ _______ _______ _____ _____    ______ ____

>  <TORSDO>
F 7

$$$$
=
 OpenBabel11062410463D

 32 36  0  0  1  0  0  0  0  0999 V2000
  160.1980  208.5260  156.6130 N   0  0  0  0  0  0  0  0  0  0  0  0
  161.4750  207.0080  151.9370 C   0  0  0  0  0  0  0  0  0  0  0  0
  161.7760  211.0710  149.2840 C   0  0  0  0  0  3  0  0  0  0  0  0
  162.2020  210.3280  148.2300 N   0  0  0  0  0  0  0  0  0  0  0  0
  160.7530  207.0690  154.2440 C   0  0  0  0  0  0  0  0  0  0  0  0
  160.8810  209.1270  152.9760 C   0  0  0  0  0  3  0  0  0  0  0  0
  160.2090  209.1520  155.3470 N   0  0  0  0  0  2  0  0  0  0  0  0
  161.4700  210.4560  150.4970 C   0  0  0  0  0  3  0  0  0  0  0  0
  161.3130  208.4130  151.8440 C   0  0  0  0  0  0  0  0  0  0  0  0
  161.6030  209.0660  150.6280 C   0  0  0  0  0  0  0  0  0  0  0  0
  162.1750  206.9090  149.6140 C   0  0  0  0  0  0  0  0  0  0  0  0
  159.7310  207.1350  156.4740 C   0  0  0  0  0  2  0  0  0  0  0  0
  160.6130  208.4510  154.1670 C   0  0  0  0  0  0  0  0  0  0  0  0
  160.4450  206.4350  155.4470 O   0  0  0  0  0  0  0  0  0  0  0  0
  162.3390  208.9790  148.3170 C   0  0  0  0  0  3  0  0  0  0  0  0
  162.0400  208.3080  149.5130 C   0  0  0  0  0  0  0  0  0  0  0  0
  161.1940  206.3430  153.1360 C   0  0  0  0  0  3  0  0  0  0  0  0
  161.9040  206.2770  150.8310 C   0  0  0  0  0  3  0  0  0  0  0  0
  161.5650  208.5020  157.1210 C   0  0  0  0  0  2  0  0  0  0  0  0
  162.1280  209.9120  157.1560 C   0  0  0  0  0  2  0  0  0  0  0  0
  161.0410  210.8690  157.2600 N   0  0  0  0  0  2  0  0  0  0  0  0
  160.5290  213.2320  157.0880 C   0  0  0  0  0  1  0  0  0  0  0  0
  161.5790  212.1610  156.8690 C   0  0  0  0  0  2  0  0  0  0  0  0
  162.6380  206.0830  148.4350 C   0  0  0  0  0  2  0  0  0  0  0  0
  161.7130  203.8190  147.9030 C   0  0  1  0  0  3  0  0  0  0  0  0
  161.3990  205.6560  146.3590 C   0  0  2  0  0  3  0  0  0  0  0  0
  160.5850  204.5700  145.7040 C   0  0  0  0  0  2  0  0  0  0  0  0
  161.1990  203.0000  146.3590 S   0  0  0  0  0  0  0  0  0  0  0  0
  162.7040  205.8280  145.5850 C   0  0  0  0  0  1  0  0  0  0  0  0
  161.5910  205.2790  147.7650 N   0  0  0  0  0  0  0  0  0  0  0  0
  160.8140  203.3270  149.0240 C   0  0  0  0  0  2  0  0  0  0  0  0
  161.4980  203.3530  150.2390 O   0  0  0  0  0  1  0  0  0  0  0  0
  1 19  1  0  0  0  0
  2 17  1  0  0  0  0
  3  8  1  0  0  0  0
  4 15  1  0  0  0  0
  4  3  2  0  0  0  0
  5 14  1  0  0  0  0
  6 13  2  0  0  0  0
  7  1  1  0  0  0  0
  8 10  2  0  0  0  0
  9  2  2  0  0  0  0
  9  6  1  0  0  0  0
 10  9  1  0  0  0  0
 11 18  2  0  0  0  0
 12  1  1  0  0  0  0
 13  5  1  0  0  0  0
 13  7  1  0  0  0  0
 14 12  1  0  0  0  0
 15 16  2  0  0  0  0
 16 11  1  0  0  0  0
 16 10  1  0  0  0  0
 17  5  2  0  0  0  0
 18  2  1  0  0  0  0
 19 20  1  0  0  0  0
 20 21  1  0  0  0  0
 23 22  1  0  0  0  0
 23 21  1  0  0  0  0
 24 11  1  0  0  0  0
 25 31  1  1  0  0  0
 26 29  1  6  0  0  0
 26 30  1  0  0  0  0
 27 28  1  0  0  0  0
 27 26  1  0  0  0  0
 28 25  1  0  0  0  0
 30 25  1  0  0  0  0
 30 24  1  0  0  0  0
 31 32  1  0  0  0  0
M  END
>  <MODEL>
6

>  <REMARK>
 VINA RESULT:      -5.2      3.435      8.391
  Name = 
  7 active torsions:
  status: ('A' for Active; 'I' for Inactive)
    1  A    between atoms: N_1  and  C_10
    2  A    between atoms: N_1  and  C_20
    3  A    between atoms: N_2  and  C_24
    4  A    between atoms: C_6  and  C_7
    5  A    between atoms: C_10  and  C_24
    6  A    between atoms: C_16  and  C_27
    7  A    between atoms: C_27  and  N_32
                            x       y       z     vdW  Elec       q    Type
                         _______ _______ _______ _____ _____    ______ ____

>  <TORSDO>
F 7

$$$$
=
 OpenBabel11062410463D

 32 36  0  0  1  0  0  0  0  0999 V2000
  161.1860  213.3970  149.3510 N   0  0  0  0  0  0  0  0  0  0  0  0
  161.9290  208.3740  149.2150 C   0  0  0  0  0  0  0  0  0  0  0  0
  160.8880  206.7790  153.6880 C   0  0  0  0  0  3  0  0  0  0  0  0
  161.0830  205.5060  153.2580 N   0  0  0  0  0  0  0  0  0  0  0  0
  161.9000  210.7330  148.6880 C   0  0  0  0  0  0  0  0  0  0  0  0
  161.3740  210.0040  150.9350 C   0  0  0  0  0  3  0  0  0  0  0  0
  161.2960  212.3940  150.3400 N   0  0  0  0  0  2  0  0  0  0  0  0
  161.0490  207.8490  152.8080 C   0  0  0  0  0  3  0  0  0  0  0  0
  161.5740  208.6640  150.5560 C   0  0  0  0  0  0  0  0  0  0  0  0
  161.4140  207.6060  151.4750 C   0  0  0  0  0  0  0  0  0  0  0  0
  161.9950  205.9990  149.7190 C   0  0  0  0  0  0  0  0  0  0  0  0
  162.1560  213.1390  148.2730 C   0  0  0  0  0  2  0  0  0  0  0  0
  161.5300  211.0250  149.9970 C   0  0  0  0  0  0  0  0  0  0  0  0
  162.0730  211.7910  147.7950 O   0  0  0  0  0  0  0  0  0  0  0  0
  161.4410  205.2320  151.9760 C   0  0  0  0  0  3  0  0  0  0  0  0
  161.6210  206.2710  151.0500 C   0  0  0  0  0  0  0  0  0  0  0  0
  162.0900  209.4100  148.2880 C   0  0  0  0  0  3  0  0  0  0  0  0
  162.1310  207.0560  148.8120 C   0  0  0  0  0  3  0  0  0  0  0  0
  159.8430  213.3320  148.7850 C   0  0  0  0  0  2  0  0  0  0  0  0
  159.6810  214.3950  147.7130 C   0  0  0  0  0  2  0  0  0  0  0  0
  159.2480  213.7750  146.4730 N   0  0  0  0  0  2  0  0  0  0  0  0
  157.1960  212.4990  146.2860 C   0  0  0  0  0  1  0  0  0  0  0  0
  157.8000  213.8820  146.4310 C   0  0  0  0  0  2  0  0  0  0  0  0
  162.2240  204.5810  149.2460 C   0  0  0  0  0  2  0  0  0  0  0  0
  161.1750  202.6310  148.0800 C   0  0  1  0  0  3  0  0  0  0  0  0
  161.5040  204.7190  146.9020 C   0  0  2  0  0  3  0  0  0  0  0  0
  160.7490  203.9110  145.8780 C   0  0  0  0  0  2  0  0  0  0  0  0
  160.9660  202.1740  146.3280 S   0  0  0  0  0  0  0  0  0  0  0  0
  162.9750  204.7830  146.4920 C   0  0  0  0  0  1  0  0  0  0  0  0
  161.2840  204.0920  148.2120 N   0  0  0  0  0  0  0  0  0  0  0  0
  159.9660  202.1280  148.8500 C   0  0  0  0  0  2  0  0  0  0  0  0
  160.3450  201.7060  150.1230 O   0  0  0  0  0  1  0  0  0  0  0  0
  1  7  1  0  0  0  0
  2  9  1  0  0  0  0
  4  3  1  0  0  0  0
  5 13  1  0  0  0  0
  8  3  2  0  0  0  0
  9  6  1  0  0  0  0
  9 10  2  0  0  0  0
 10  8  1  0  0  0  0
 11 16  2  0  0  0  0
 12  1  1  0  0  0  0
 13  7  1  0  0  0  0
 13  6  2  0  0  0  0
 14 12  1  0  0  0  0
 14  5  1  0  0  0  0
 15  4  2  0  0  0  0
 16 10  1  0  0  0  0
 16 15  1  0  0  0  0
 17  5  2  0  0  0  0
 17  2  1  0  0  0  0
 18  2  2  0  0  0  0
 18 11  1  0  0  0  0
 19  1  1  0  0  0  0
 20 19  1  0  0  0  0
 21 20  1  0  0  0  0
 22 23  1  0  0  0  0
 23 21  1  0  0  0  0
 24 11  1  0  0  0  0
 25 30  1  0  0  0  0
 25 31  1  1  0  0  0
 26 29  1  6  0  0  0
 26 30  1  0  0  0  0
 27 28  1  0  0  0  0
 27 26  1  0  0  0  0
 28 25  1  0  0  0  0
 30 24  1  0  0  0  0
 31 32  1  0  0  0  0
M  END
>  <MODEL>
7

>  <REMARK>
 VINA RESULT:      -5.2      3.686      8.978
  Name = 
  7 active torsions:
  status: ('A' for Active; 'I' for Inactive)
    1  A    between atoms: N_1  and  C_10
    2  A    between atoms: N_1  and  C_20
    3  A    between atoms: N_2  and  C_24
    4  A    between atoms: C_6  and  C_7
    5  A    between atoms: C_10  and  C_24
    6  A    between atoms: C_16  and  C_27
    7  A    between atoms: C_27  and  N_32
                            x       y       z     vdW  Elec       q    Type
                         _______ _______ _______ _____ _____    ______ ____

>  <TORSDO>
F 7

$$$$
=
 OpenBabel11062410463D

 32 36  0  0  1  0  0  0  0  0999 V2000
  162.0640  204.5970  145.9600 N   0  0  0  0  0  0  0  0  0  0  0  0
  161.2030  207.2680  150.1950 C   0  0  0  0  0  0  0  0  0  0  0  0
  161.9870  211.9120  148.9900 C   0  0  0  0  0  3  0  0  0  0  0  0
  161.5880  212.2820  150.2340 N   0  0  0  0  0  0  0  0  0  0  0  0
  161.5970  205.4800  148.6150 C   0  0  0  0  0  0  0  0  0  0  0  0
  162.0080  207.7720  147.9540 C   0  0  0  0  0  3  0  0  0  0  0  0
  162.3380  205.9260  146.3560 N   0  0  0  0  0  2  0  0  0  0  0  0
  162.0090  210.5650  148.6320 C   0  0  0  0  0  3  0  0  0  0  0  0
  161.6190  208.2190  149.2300 C   0  0  0  0  0  0  0  0  0  0  0  0
  161.6190  209.5890  149.5620 C   0  0  0  0  0  0  0  0  0  0  0  0
  160.8260  209.0370  151.8140 C   0  0  0  0  0  0  0  0  0  0  0  0
  162.2960  203.6850  147.0940 C   0  0  0  0  0  2  0  0  0  0  0  0
  161.9860  206.4090  147.6550 C   0  0  0  0  0  0  0  0  0  0  0  0
  161.6200  204.1270  148.2780 O   0  0  0  0  0  0  0  0  0  0  0  0
  161.2070  211.3660  151.1630 C   0  0  0  0  0  3  0  0  0  0  0  0
  161.2160  209.9960  150.8580 C   0  0  0  0  0  0  0  0  0  0  0  0
  161.1940  205.9040  149.8830 C   0  0  0  0  0  3  0  0  0  0  0  0
  160.8110  207.6830  151.4650 C   0  0  0  0  0  3  0  0  0  0  0  0
  160.6570  204.5150  145.5860 C   0  0  0  0  0  2  0  0  0  0  0  0
  160.4560  203.4110  144.5640 C   0  0  0  0  0  2  0  0  0  0  0  0
  159.4950  202.4470  145.0690 N   0  0  0  0  0  2  0  0  0  0  0  0
  160.8300  200.7310  146.1400 C   0  0  0  0  0  1  0  0  0  0  0  0
  160.0810  201.1310  144.8840 C   0  0  0  0  0  2  0  0  0  0  0  0
  160.3940  209.4510  153.2030 C   0  0  0  0  0  2  0  0  0  0  0  0
  161.0270  208.3850  155.3780 C   0  0  1  0  0  3  0  0  0  0  0  0
  161.9240  210.5510  154.7770 C   0  0  2  0  0  3  0  0  0  0  0  0
  162.6620  210.2640  156.0600 C   0  0  0  0  0  2  0  0  0  0  0  0
  161.6890  209.0270  156.9490 S   0  0  0  0  0  0  0  0  0  0  0  0
  160.8370  211.5870  155.0560 C   0  0  0  0  0  1  0  0  0  0  0  0
  161.4070  209.2740  154.2680 N   0  0  0  0  0  0  0  0  0  0  0  0
  161.6010  206.9970  155.1510 C   0  0  0  0  0  2  0  0  0  0  0  0
  160.7850  206.2710  154.2850 O   0  0  0  0  0  1  0  0  0  0  0  0
  1  7  1  0  0  0  0
  1 12  1  0  0  0  0
  2 18  1  0  0  0  0
  3  4  1  0  0  0  0
  4 15  2  0  0  0  0
  5 17  1  0  0  0  0
  6  9  2  0  0  0  0
  7 13  1  0  0  0  0
  8  3  2  0  0  0  0
  8 10  1  0  0  0  0
  9 10  1  0  0  0  0
  9  2  1  0  0  0  0
 10 16  2  0  0  0  0
 11 24  1  0  0  0  0
 12 14  1  0  0  0  0
 13  6  1  0  0  0  0
 13  5  2  0  0  0  0
 14  5  1  0  0  0  0
 16 15  1  0  0  0  0
 16 11  1  0  0  0  0
 17  2  2  0  0  0  0
 18 11  2  0  0  0  0
 19  1  1  0  0  0  0
 20 21  1  0  0  0  0
 20 19  1  0  0  0  0
 23 21  1  0  0  0  0
 23 22  1  0  0  0  0
 24 30  1  0  0  0  0
 25 31  1  6  0  0  0
 25 28  1  0  0  0  0
 26 29  1  1  0  0  0
 26 27  1  0  0  0  0
 27 28  1  0  0  0  0
 30 26  1  0  0  0  0
 30 25  1  0  0  0  0
 32 31  1  0  0  0  0
M  END
>  <MODEL>
8

>  <REMARK>
 VINA RESULT:      -4.9      2.795      3.436
  Name = 
  7 active torsions:
  status: ('A' for Active; 'I' for Inactive)
    1  A    between atoms: N_1  and  C_10
    2  A    between atoms: N_1  and  C_20
    3  A    between atoms: N_2  and  C_24
    4  A    between atoms: C_6  and  C_7
    5  A    between atoms: C_10  and  C_24
    6  A    between atoms: C_16  and  C_27
    7  A    between atoms: C_27  and  N_32
                            x       y       z     vdW  Elec       q    Type
                         _______ _______ _______ _____ _____    ______ ____

>  <TORSDO>
F 7

$$$$
=
 OpenBabel11062410463D

 32 36  0  0  1  0  0  0  0  0999 V2000
  161.0790  209.5880  154.2600 N   0  0  0  0  0  0  0  0  0  0  0  0
  161.3230  206.4740  150.2540 C   0  0  0  0  0  0  0  0  0  0  0  0
  160.8270  201.9860  152.0580 C   0  0  0  0  0  3  0  0  0  0  0  0
  160.8360  201.4970  150.7910 N   0  0  0  0  0  0  0  0  0  0  0  0
  161.4340  208.4030  151.7080 C   0  0  0  0  0  0  0  0  0  0  0  0
  161.1880  206.1950  152.6680 C   0  0  0  0  0  3  0  0  0  0  0  0
  161.2430  208.1920  154.1100 N   0  0  0  0  0  2  0  0  0  0  0  0
  160.9520  203.3570  152.2810 C   0  0  0  0  0  3  0  0  0  0  0  0
  161.2030  205.6240  151.3830 C   0  0  0  0  0  0  0  0  0  0  0  0
  161.0860  204.2320  151.1930 C   0  0  0  0  0  0  0  0  0  0  0  0
  161.2440  204.5540  148.7690 C   0  0  0  0  0  0  0  0  0  0  0  0
  161.8470  210.2920  153.2190 C   0  0  0  0  0  2  0  0  0  0  0  0
  161.2950  207.5780  152.8200 C   0  0  0  0  0  0  0  0  0  0  0  0
  161.5670  209.7760  151.9120 O   0  0  0  0  0  0  0  0  0  0  0  0
  160.9690  202.3130  149.7120 C   0  0  0  0  0  3  0  0  0  0  0  0
  161.1020  203.6990  149.8800 C   0  0  0  0  0  0  0  0  0  0  0  0
  161.4380  207.8580  150.4230 C   0  0  0  0  0  3  0  0  0  0  0  0
  161.3390  205.9350  148.9700 C   0  0  0  0  0  3  0  0  0  0  0  0
  159.6660  209.9010  154.0790 C   0  0  0  0  0  2  0  0  0  0  0  0
  159.1320  210.6180  155.3060 C   0  0  0  0  0  2  0  0  0  0  0  0
  159.0550  212.0440  155.0430 N   0  0  0  0  0  2  0  0  0  0  0  0
  156.7150  212.3480  154.4930 C   0  0  0  0  0  1  0  0  0  0  0  0
  158.1220  212.2200  153.9440 C   0  0  0  0  0  2  0  0  0  0  0  0
  161.2650  204.0060  147.3600 C   0  0  0  0  0  2  0  0  0  0  0  0
  160.6150  204.8340  145.0900 C   0  0  1  0  0  3  0  0  0  0  0  0
  162.8630  205.1810  145.9130 C   0  0  2  0  0  3  0  0  0  0  0  0
  162.8990  205.9380  144.6100 C   0  0  0  0  0  2  0  0  0  0  0  0
  161.5550  205.2820  143.5950 S   0  0  0  0  0  0  0  0  0  0  0  0
  163.6200  203.8650  145.7380 C   0  0  0  0  0  1  0  0  0  0  0  0
  161.4540  205.0070  146.2850 N   0  0  0  0  0  0  0  0  0  0  0  0
  159.3970  205.7390  145.1740 C   0  0  0  0  0  2  0  0  0  0  0  0
  159.6250  206.7730  146.0810 O   0  0  0  0  0  1  0  0  0  0  0  0
  2 17  2  0  0  0  0
  2  9  1  0  0  0  0
  3  8  1  0  0  0  0
  4  3  2  0  0  0  0
  5 14  1  0  0  0  0
  5 13  2  0  0  0  0
  6 13  1  0  0  0  0
  7  1  1  0  0  0  0
  9  6  2  0  0  0  0
 10  9  1  0  0  0  0
 10  8  2  0  0  0  0
 11 18  2  0  0  0  0
 11 16  1  0  0  0  0
 12  1  1  0  0  0  0
 13  7  1  0  0  0  0
 14 12  1  0  0  0  0
 15 16  2  0  0  0  0
 15  4  1  0  0  0  0
 16 10  1  0  0  0  0
 17  5  1  0  0  0  0
 18  2  1  0  0  0  0
 19  1  1  0  0  0  0
 19 20  1  0  0  0  0
 21 20  1  0  0  0  0
 23 22  1  0  0  0  0
 23 21  1  0  0  0  0
 24 11  1  0  0  0  0
 25 31  1  1  0  0  0
 25 30  1  0  0  0  0
 26 29  1  6  0  0  0
 26 30  1  0  0  0  0
 27 26  1  0  0  0  0
 28 27  1  0  0  0  0
 28 25  1  0  0  0  0
 30 24  1  0  0  0  0
 31 32  1  0  0  0  0
M  END
>  <MODEL>
9

>  <REMARK>
 VINA RESULT:      -4.9      3.362      8.950
  Name = 
  7 active torsions:
  status: ('A' for Active; 'I' for Inactive)
    1  A    between atoms: N_1  and  C_10
    2  A    between atoms: N_1  and  C_20
    3  A    between atoms: N_2  and  C_24
    4  A    between atoms: C_6  and  C_7
    5  A    between atoms: C_10  and  C_24
    6  A    between atoms: C_16  and  C_27
    7  A    between atoms: C_27  and  N_32
                            x       y       z     vdW  Elec       q    Type
                         _______ _______ _______ _____ _____    ______ ____

>  <TORSDO>
F 7

$$$$
