=
 OpenBabel11062410103D

 43 47  0  0  1  0  0  0  0  0999 V2000
  161.5630  203.9310  146.2680 C   0  0  0  0  0  0  0  0  0  0  0  0
  161.2610  206.2750  150.7540 C   0  0  0  0  0  0  0  0  0  0  0  0
  161.8090  208.9910  150.2850 C   0  0  0  0  0  0  0  0  0  0  0  0
  161.3040  204.4340  148.6260 C   0  0  0  0  0  0  0  0  0  0  0  0
  161.7990  205.2810  146.0020 C   0  0  0  0  0  3  0  0  0  0  0  0
  161.5810  203.0300  145.2570 F   0  0  0  0  0  0  0  0  0  0  0  0
  161.5380  205.8050  148.3650 C   0  0  0  0  0  0  0  0  0  0  0  0
  161.3170  203.5080  147.5780 C   0  0  0  0  0  3  0  0  0  0  0  0
  161.7880  206.2130  147.0430 C   0  0  0  0  0  3  0  0  0  0  0  0
  161.7890  208.0880  149.2180 C   0  0  0  0  0  3  0  0  0  0  0  0
  161.5270  206.7290  149.4350 C   0  0  0  0  0  0  0  0  0  0  0  0
  161.0490  204.9110  150.9840 C   0  0  0  0  0  3  0  0  0  0  0  0
  161.2510  207.1990  151.8250 C   0  0  0  0  0  0  0  0  0  0  0  0
  161.5410  208.5430  151.5800 C   0  0  0  0  0  3  0  0  0  0  0  0
  161.0660  203.9990  149.9300 C   0  0  0  0  0  3  0  0  0  0  0  0
  162.0920  210.4370  150.0540 C   0  0  2  0  0  3  0  0  0  0  0  0
  161.3320  211.2050  150.9180 F   0  0  0  0  0  0  0  0  0  0  0  0
  161.8030  210.8100  148.6040 C   0  0  0  0  0  2  0  0  0  0  0  0
  161.6480  213.2570  147.8520 N   0  0  0  0  0  2  0  0  0  0  0  0
  162.4340  212.1160  148.2360 C   0  0  0  0  0  0  0  0  0  0  0  0
  163.6880  212.2120  148.2400 O   0  0  0  0  0  0  0  0  0  0  0  0
  160.2390  213.3030  147.7820 N   0  0  0  0  0  0  0  0  0  0  0  0
  159.7320  214.0670  148.9170 C   0  0  0  0  0  2  0  0  0  0  0  0
  156.9900  213.9900  148.9120 S   0  0  0  0  0  1  0  0  0  0  0  0
  158.5610  213.3460  149.5600 C   0  0  0  0  0  2  0  0  0  0  0  0
  159.8460  213.9750  146.5480 C   0  0  0  0  0  2  0  0  0  0  0  0
  159.4970  212.9630  145.5040 C   0  0  0  0  0  0  0  0  0  0  0  0
  158.4140  212.3270  145.6180 O   0  0  0  0  0  0  0  0  0  0  0  0
  160.4010  212.6950  144.3680 C   0  0  0  0  0  0  0  0  0  0  0  0
  162.6040  212.8610  143.3490 C   0  0  0  0  0  3  0  0  0  0  0  0
  160.8100  211.7450  142.1670 C   0  0  0  0  0  3  0  0  0  0  0  0
  162.1380  212.1720  142.2260 C   0  0  0  0  0  3  0  0  0  0  0  0
  159.9460  212.0040  143.2340 C   0  0  0  0  0  3  0  0  0  0  0  0
  161.7380  213.1210  144.4160 C   0  0  0  0  0  3  0  0  0  0  0  0
  160.9810  206.8080  153.1440 O   0  0  0  0  0  0  0  0  0  0  0  0
  160.2600  208.1680  156.5340 C   0  0  0  0  0  3  0  0  0  0  0  0
  160.2160  209.5440  156.2580 C   0  0  0  0  0  0  0  0  0  0  0  0
  160.6810  209.0710  153.9220 C   0  0  0  0  0  3  0  0  0  0  0  0
  160.5150  207.2510  155.5100 C   0  0  0  0  0  3  0  0  0  0  0  0
  160.7340  207.7000  154.1970 C   0  0  0  0  0  0  0  0  0  0  0  0
  160.4250  209.9860  154.9470 C   0  0  0  0  0  3  0  0  0  0  0  0
  159.9680  210.4860  157.2590 O   0  0  0  0  0  0  0  0  0  0  0  0
  158.8790  211.3960  157.2060 C   0  0  0  0  0  1  0  0  0  0  0  0
  1  8  1  0  0  0  0
  2 12  1  0  0  0  0
  2 13  1  0  0  0  0
  3 14  1  0  0  0  0
  4 15  1  0  0  0  0
  5  1  2  0  0  0  0
  5  9  1  0  0  0  0
  6  1  1  0  0  0  0
  7  4  1  0  0  0  0
  7 11  1  0  0  0  0
  8  4  2  0  0  0  0
  9  7  2  0  0  0  0
 10 11  1  0  0  0  0
 10  3  2  0  0  0  0
 11  2  2  0  0  0  0
 13 35  1  0  0  0  0
 14 13  2  0  0  0  0
 15 12  2  0  0  0  0
 16  3  1  0  0  0  0
 16 17  1  1  0  0  0
 18 16  1  0  0  0  0
 19 20  1  0  0  0  0
 20 21  2  0  0  0  0
 20 18  1  0  0  0  0
 22 19  1  0  0  0  0
 22 23  1  0  0  0  0
 23 25  1  0  0  0  0
 24 25  1  0  0  0  0
 26 22  1  0  0  0  0
 27 28  2  0  0  0  0
 27 26  1  0  0  0  0
 29 34  1  0  0  0  0
 29 27  1  0  0  0  0
 30 34  2  0  0  0  0
 31 32  2  0  0  0  0
 31 33  1  0  0  0  0
 32 30  1  0  0  0  0
 33 29  2  0  0  0  0
 35 40  1  0  0  0  0
 37 36  1  0  0  0  0
 37 42  1  0  0  0  0
 38 40  2  0  0  0  0
 38 41  1  0  0  0  0
 39 36  2  0  0  0  0
 40 39  1  0  0  0  0
 41 37  2  0  0  0  0
 43 42  1  0  0  0  0
M  END
>  <MODEL>
1

>  <REMARK>
 VINA RESULT:      -9.6      0.000      0.000
  Name = 
  12 active torsions:
  status: ('A' for Active; 'I' for Inactive)
    1  A    between atoms: O_1  and  C_34
    2  A    between atoms: O_1  and  C_35
    3  A    between atoms: C_2  and  C_6
    4  A    between atoms: C_2  and  C_13
    5  A    between atoms: N_3  and  N_4
    6  A    between atoms: N_4  and  C_15
    7  A    between atoms: N_4  and  C_22
    8  A    between atoms: C_6  and  C_12
    9  A    between atoms: C_11  and  C_14
   10  A    between atoms: C_14  and  C_22
   11  A    between atoms: C_15  and  C_42
   12  A    between atoms: C_19  and  O_25
                            x       y       z     vdW  Elec       q    Type
                         _______ _______ _______ _____ _____    ______ ____

>  <TORSDO>
F 12

$$$$
=
 OpenBabel11062410103D

 43 47  0  0  1  0  0  0  0  0999 V2000
  160.8390  202.5730  149.9110 C   0  0  0  0  0  0  0  0  0  0  0  0
  161.4120  207.1890  151.9310 C   0  0  0  0  0  0  0  0  0  0  0  0
  161.7550  208.9710  149.7870 C   0  0  0  0  0  0  0  0  0  0  0  0
  161.0670  204.4380  151.4440 C   0  0  0  0  0  0  0  0  0  0  0  0
  160.9680  203.4430  148.8270 C   0  0  0  0  0  3  0  0  0  0  0  0
  160.6740  201.2460  149.6970 F   0  0  0  0  0  0  0  0  0  0  0  0
  161.1940  205.3280  150.3510 C   0  0  0  0  0  0  0  0  0  0  0  0
  160.8900  203.0690  151.2180 C   0  0  0  0  0  3  0  0  0  0  0  0
  161.1450  204.8110  149.0440 C   0  0  0  0  0  3  0  0  0  0  0  0
  161.5420  207.6130  149.5370 C   0  0  0  0  0  3  0  0  0  0  0  0
  161.3780  206.7080  150.5950 C   0  0  0  0  0  0  0  0  0  0  0  0
  161.2990  206.2820  152.9920 C   0  0  0  0  0  3  0  0  0  0  0  0
  161.5960  208.5690  152.1760 C   0  0  0  0  0  0  0  0  0  0  0  0
  161.7830  209.4420  151.1010 C   0  0  0  0  0  3  0  0  0  0  0  0
  161.1250  204.9210  152.7520 C   0  0  0  0  0  3  0  0  0  0  0  0
  161.9340  209.9340  148.6600 C   0  0  2  0  0  3  0  0  0  0  0  0
  163.0990  209.6380  147.9760 F   0  0  0  0  0  0  0  0  0  0  0  0
  161.9630  211.3650  149.1840 C   0  0  0  0  0  2  0  0  0  0  0  0
  161.8970  213.2440  147.4390 N   0  0  0  0  0  2  0  0  0  0  0  0
  162.6380  212.2890  148.2190 C   0  0  0  0  0  0  0  0  0  0  0  0
  163.8830  212.2120  148.0680 O   0  0  0  0  0  0  0  0  0  0  0  0
  160.5010  213.4390  147.4820 N   0  0  0  0  0  0  0  0  0  0  0  0
  160.1840  214.3740  148.5560 C   0  0  0  0  0  2  0  0  0  0  0  0
  159.6260  213.7340  151.1640 S   0  0  0  0  0  1  0  0  0  0  0  0
  159.0770  213.8190  149.4340 C   0  0  0  0  0  2  0  0  0  0  0  0
  160.0610  214.0110  146.2140 C   0  0  0  0  0  2  0  0  0  0  0  0
  159.6770  212.9200  145.2670 C   0  0  0  0  0  0  0  0  0  0  0  0
  158.6220  212.2670  145.4930 O   0  0  0  0  0  0  0  0  0  0  0  0
  160.5160  212.5940  144.0960 C   0  0  0  0  0  0  0  0  0  0  0  0
  160.7780  211.5130  141.9320 C   0  0  0  0  0  3  0  0  0  0  0  0
  162.6220  212.7570  142.8890 C   0  0  0  0  0  3  0  0  0  0  0  0
  162.0910  211.9850  141.8540 C   0  0  0  0  0  3  0  0  0  0  0  0
  161.8360  213.0620  144.0050 C   0  0  0  0  0  3  0  0  0  0  0  0
  159.9930  211.8170  143.0500 C   0  0  0  0  0  3  0  0  0  0  0  0
  161.6240  209.0990  153.4730 O   0  0  0  0  0  0  0  0  0  0  0  0
  159.1750  210.2860  156.0140 C   0  0  0  0  0  3  0  0  0  0  0  0
  158.3580  211.1080  155.2210 C   0  0  0  0  0  0  0  0  0  0  0  0
  159.7280  210.5770  153.2890 C   0  0  0  0  0  3  0  0  0  0  0  0
  160.2620  209.6160  155.4450 C   0  0  0  0  0  3  0  0  0  0  0  0
  160.5490  209.7640  154.0780 C   0  0  0  0  0  0  0  0  0  0  0  0
  158.6400  211.2450  153.8580 C   0  0  0  0  0  3  0  0  0  0  0  0
  157.2660  211.7940  155.7590 O   0  0  0  0  0  0  0  0  0  0  0  0
  157.2610  212.3190  157.0790 C   0  0  0  0  0  1  0  0  0  0  0  0
  1  8  1  0  0  0  0
  2 13  1  0  0  0  0
  2 12  1  0  0  0  0
  3 14  1  0  0  0  0
  4 15  1  0  0  0  0
  5  9  1  0  0  0  0
  5  1  2  0  0  0  0
  6  1  1  0  0  0  0
  7 11  1  0  0  0  0
  7  4  1  0  0  0  0
  8  4  2  0  0  0  0
  9  7  2  0  0  0  0
 10  3  2  0  0  0  0
 10 11  1  0  0  0  0
 11  2  2  0  0  0  0
 13 35  1  0  0  0  0
 14 13  2  0  0  0  0
 15 12  2  0  0  0  0
 16 17  1  1  0  0  0
 16 18  1  0  0  0  0
 16  3  1  0  0  0  0
 19 22  1  0  0  0  0
 19 20  1  0  0  0  0
 20 18  1  0  0  0  0
 21 20  2  0  0  0  0
 22 23  1  0  0  0  0
 23 25  1  0  0  0  0
 25 24  1  0  0  0  0
 26 22  1  0  0  0  0
 27 28  2  0  0  0  0
 27 26  1  0  0  0  0
 29 27  1  0  0  0  0
 30 34  1  0  0  0  0
 31 33  2  0  0  0  0
 32 30  2  0  0  0  0
 32 31  1  0  0  0  0
 33 29  1  0  0  0  0
 34 29  2  0  0  0  0
 35 40  1  0  0  0  0
 37 42  1  0  0  0  0
 37 36  2  0  0  0  0
 38 41  2  0  0  0  0
 38 40  1  0  0  0  0
 39 36  1  0  0  0  0
 40 39  2  0  0  0  0
 41 37  1  0  0  0  0
 42 43  1  0  0  0  0
M  END
>  <MODEL>
2

>  <REMARK>
 VINA RESULT:      -9.4      1.671      2.231
  Name = 
  12 active torsions:
  status: ('A' for Active; 'I' for Inactive)
    1  A    between atoms: O_1  and  C_34
    2  A    between atoms: O_1  and  C_35
    3  A    between atoms: C_2  and  C_6
    4  A    between atoms: C_2  and  C_13
    5  A    between atoms: N_3  and  N_4
    6  A    between atoms: N_4  and  C_15
    7  A    between atoms: N_4  and  C_22
    8  A    between atoms: C_6  and  C_12
    9  A    between atoms: C_11  and  C_14
   10  A    between atoms: C_14  and  C_22
   11  A    between atoms: C_15  and  C_42
   12  A    between atoms: C_19  and  O_25
                            x       y       z     vdW  Elec       q    Type
                         _______ _______ _______ _____ _____    ______ ____

>  <TORSDO>
F 12

$$$$
=
 OpenBabel11062410103D

 43 47  0  0  1  0  0  0  0  0999 V2000
  160.8780  202.4390  148.1830 C   0  0  0  0  0  0  0  0  0  0  0  0
  161.9110  207.3590  148.8410 C   0  0  0  0  0  0  0  0  0  0  0  0
  161.4020  207.9370  151.5430 C   0  0  0  0  0  0  0  0  0  0  0  0
  161.4930  204.7600  147.8460 C   0  0  0  0  0  0  0  0  0  0  0  0
  160.6560  202.6900  149.5380 C   0  0  0  0  0  3  0  0  0  0  0  0
  160.6810  201.1940  147.6850 F   0  0  0  0  0  0  0  0  0  0  0  0
  161.2740  205.0230  149.2190 C   0  0  0  0  0  0  0  0  0  0  0  0
  161.2950  203.4720  147.3380 C   0  0  0  0  0  3  0  0  0  0  0  0
  160.8510  203.9730  150.0540 C   0  0  0  0  0  3  0  0  0  0  0  0
  161.2340  206.6350  151.0640 C   0  0  0  0  0  3  0  0  0  0  0  0
  161.4740  206.3300  149.7180 C   0  0  0  0  0  0  0  0  0  0  0  0
  162.1030  207.0720  147.4840 C   0  0  0  0  0  3  0  0  0  0  0  0
  162.1100  208.6680  149.3380 C   0  0  0  0  0  0  0  0  0  0  0  0
  161.8370  208.9450  150.6800 C   0  0  0  0  0  3  0  0  0  0  0  0
  161.9000  205.7850  146.9920 C   0  0  0  0  0  3  0  0  0  0  0  0
  161.1420  208.2610  152.9760 C   0  0  2  0  0  3  0  0  0  0  0  0
  160.2590  207.3390  153.5090 F   0  0  0  0  0  0  0  0  0  0  0  0
  160.5920  209.6760  153.1100 C   0  0  0  0  0  2  0  0  0  0  0  0
  160.8910  211.2340  155.1250 N   0  0  0  0  0  2  0  0  0  0  0  0
  161.4450  210.5140  154.0100 C   0  0  0  0  0  0  0  0  0  0  0  0
  162.6750  210.6110  153.7710 O   0  0  0  0  0  0  0  0  0  0  0  0
  159.5350  211.2400  155.5120 N   0  0  0  0  0  0  0  0  0  0  0  0
  159.3810  210.4350  156.7180 C   0  0  0  0  0  2  0  0  0  0  0  0
  160.4840  207.9290  156.8970 S   0  0  0  0  0  1  0  0  0  0  0  0
  160.6830  209.7290  157.0540 C   0  0  0  0  0  2  0  0  0  0  0  0
  159.1300  212.6100  155.8060 C   0  0  0  0  0  2  0  0  0  0  0  0
  157.8430  212.9230  155.1120 C   0  0  0  0  0  0  0  0  0  0  0  0
  156.7640  212.7940  155.7530 O   0  0  0  0  0  0  0  0  0  0  0  0
  157.8220  213.3600  153.7020 C   0  0  0  0  0  0  0  0  0  0  0  0
  158.9900  213.7520  151.6040 C   0  0  0  0  0  3  0  0  0  0  0  0
  156.6120  214.1800  151.7570 C   0  0  0  0  0  3  0  0  0  0  0  0
  157.7930  214.1650  151.0130 C   0  0  0  0  0  3  0  0  0  0  0  0
  156.6260  213.7770  153.0960 C   0  0  0  0  0  3  0  0  0  0  0  0
  159.0040  213.3510  152.9440 C   0  0  0  0  0  3  0  0  0  0  0  0
  162.5520  209.7170  148.5220 O   0  0  0  0  0  0  0  0  0  0  0  0
  161.3820  213.2300  148.9140 C   0  0  0  0  0  3  0  0  0  0  0  0
  160.4000  213.2890  147.9130 C   0  0  0  0  0  0  0  0  0  0  0  0
  160.8690  210.9770  147.3410 C   0  0  0  0  0  3  0  0  0  0  0  0
  162.1040  212.0510  149.1240 C   0  0  0  0  0  3  0  0  0  0  0  0
  161.8560  210.9180  148.3320 C   0  0  0  0  0  0  0  0  0  0  0  0
  160.1470  212.1550  147.1330 C   0  0  0  0  0  3  0  0  0  0  0  0
  159.6630  214.4530  147.6760 O   0  0  0  0  0  0  0  0  0  0  0  0
  158.2810  214.4350  147.3470 C   0  0  0  0  0  1  0  0  0  0  0  0
  1  5  1  0  0  0  0
  2 13  2  0  0  0  0
  2 11  1  0  0  0  0
  3 16  1  0  0  0  0
  4  7  2  0  0  0  0
  5  9  2  0  0  0  0
  6  1  1  0  0  0  0
  7 11  1  0  0  0  0
  7  9  1  0  0  0  0
  8  4  1  0  0  0  0
  8  1  2  0  0  0  0
 10  3  1  0  0  0  0
 11 10  2  0  0  0  0
 12  2  1  0  0  0  0
 13 14  1  0  0  0  0
 14  3  2  0  0  0  0
 15 12  2  0  0  0  0
 15  4  1  0  0  0  0
 16 18  1  0  0  0  0
 16 17  1  6  0  0  0
 18 20  1  0  0  0  0
 19 22  1  0  0  0  0
 20 19  1  0  0  0  0
 21 20  2  0  0  0  0
 22 26  1  0  0  0  0
 22 23  1  0  0  0  0
 23 25  1  0  0  0  0
 24 25  1  0  0  0  0
 27 28  2  0  0  0  0
 27 26  1  0  0  0  0
 29 27  1  0  0  0  0
 30 34  1  0  0  0  0
 31 33  2  0  0  0  0
 32 30  2  0  0  0  0
 32 31  1  0  0  0  0
 33 29  1  0  0  0  0
 34 29  2  0  0  0  0
 35 13  1  0  0  0  0
 36 39  1  0  0  0  0
 37 36  2  0  0  0  0
 38 40  1  0  0  0  0
 40 35  1  0  0  0  0
 40 39  2  0  0  0  0
 41 38  2  0  0  0  0
 41 37  1  0  0  0  0
 42 37  1  0  0  0  0
 43 42  1  0  0  0  0
M  END
>  <MODEL>
3

>  <REMARK>
 VINA RESULT:      -8.6      3.293      7.047
  Name = 
  12 active torsions:
  status: ('A' for Active; 'I' for Inactive)
    1  A    between atoms: O_1  and  C_34
    2  A    between atoms: O_1  and  C_35
    3  A    between atoms: C_2  and  C_6
    4  A    between atoms: C_2  and  C_13
    5  A    between atoms: N_3  and  N_4
    6  A    between atoms: N_4  and  C_15
    7  A    between atoms: N_4  and  C_22
    8  A    between atoms: C_6  and  C_12
    9  A    between atoms: C_11  and  C_14
   10  A    between atoms: C_14  and  C_22
   11  A    between atoms: C_15  and  C_42
   12  A    between atoms: C_19  and  O_25
                            x       y       z     vdW  Elec       q    Type
                         _______ _______ _______ _____ _____    ______ ____

>  <TORSDO>
F 12

$$$$
=
 OpenBabel11062410103D

 43 47  0  0  1  0  0  0  0  0999 V2000
  155.6410  212.4170  156.0530 C   0  0  0  0  0  0  0  0  0  0  0  0
  158.8620  212.9310  152.1710 C   0  0  0  0  0  0  0  0  0  0  0  0
  160.7910  210.9080  152.4490 C   0  0  0  0  0  0  0  0  0  0  0  0
  156.7920  213.1840  154.0610 C   0  0  0  0  0  0  0  0  0  0  0  0
  156.5630  211.3780  156.1920 C   0  0  0  0  0  3  0  0  0  0  0  0
  154.6380  212.5560  156.9540 F   0  0  0  0  0  0  0  0  0  0  0  0
  157.7300  212.1310  154.1920 C   0  0  0  0  0  0  0  0  0  0  0  0
  155.7550  213.3190  154.9910 C   0  0  0  0  0  3  0  0  0  0  0  0
  157.6020  211.2360  155.2690 C   0  0  0  0  0  3  0  0  0  0  0  0
  159.7410  211.0020  153.3670 C   0  0  0  0  0  3  0  0  0  0  0  0
  158.7760  212.0100  153.2490 C   0  0  0  0  0  0  0  0  0  0  0  0
  157.9290  213.9710  152.0770 C   0  0  0  0  0  3  0  0  0  0  0  0
  159.9080  212.8110  151.2270 C   0  0  0  0  0  0  0  0  0  0  0  0
  160.8700  211.8110  151.3870 C   0  0  0  0  0  3  0  0  0  0  0  0
  156.9020  214.0950  153.0110 C   0  0  0  0  0  3  0  0  0  0  0  0
  161.8210  209.8360  152.5770 C   0  0  2  0  0  3  0  0  0  0  0  0
  163.0610  210.3370  152.2230 F   0  0  0  0  0  0  0  0  0  0  0  0
  161.4540  208.6390  151.7080 C   0  0  0  0  0  2  0  0  0  0  0  0
  161.0360  206.1300  152.0420 N   0  0  0  0  0  2  0  0  0  0  0  0
  160.9920  207.4800  152.5360 C   0  0  0  0  0  0  0  0  0  0  0  0
  160.5310  207.6950  153.6860 O   0  0  0  0  0  0  0  0  0  0  0  0
  161.5080  205.7300  150.7740 N   0  0  0  0  0  0  0  0  0  0  0  0
  161.7500  204.2920  150.7890 C   0  0  0  0  0  2  0  0  0  0  0  0
  160.5790  202.0440  149.7420 S   0  0  0  0  0  1  0  0  0  0  0  0
  160.4360  203.5320  150.7750 C   0  0  0  0  0  2  0  0  0  0  0  0
  160.4890  206.0260  149.7730 C   0  0  0  0  0  2  0  0  0  0  0  0
  161.1280  206.5900  148.5450 C   0  0  0  0  0  0  0  0  0  0  0  0
  161.6630  207.7310  148.6120 O   0  0  0  0  0  0  0  0  0  0  0  0
  161.1240  205.8450  147.2700 C   0  0  0  0  0  0  0  0  0  0  0  0
  161.7450  203.8760  145.9830 C   0  0  0  0  0  3  0  0  0  0  0  0
  160.4770  205.6510  144.9330 C   0  0  0  0  0  3  0  0  0  0  0  0
  161.1060  204.4060  144.8600 C   0  0  0  0  0  3  0  0  0  0  0  0
  160.4860  206.3670  146.1340 C   0  0  0  0  0  3  0  0  0  0  0  0
  161.7550  204.5930  147.1840 C   0  0  0  0  0  3  0  0  0  0  0  0
  160.0330  213.6830  150.1380 O   0  0  0  0  0  0  0  0  0  0  0  0
  158.0660  213.0930  147.0320 C   0  0  0  0  0  3  0  0  0  0  0  0
  159.0770  212.6490  146.1660 C   0  0  0  0  0  0  0  0  0  0  0  0
  160.6970  212.9010  147.9550 C   0  0  0  0  0  3  0  0  0  0  0  0
  158.3710  213.4410  148.3510 C   0  0  0  0  0  3  0  0  0  0  0  0
  159.6930  213.3540  148.8190 C   0  0  0  0  0  0  0  0  0  0  0  0
  160.3900  212.5520  146.6370 C   0  0  0  0  0  3  0  0  0  0  0  0
  158.8050  212.2970  144.8410 O   0  0  0  0  0  0  0  0  0  0  0  0
  159.8110  212.2330  143.8400 C   0  0  0  0  0  1  0  0  0  0  0  0
  1  5  1  0  0  0  0
  1  6  1  0  0  0  0
  2 11  1  0  0  0  0
  3 16  1  0  0  0  0
  3 10  1  0  0  0  0
  4  7  2  0  0  0  0
  4  8  1  0  0  0  0
  7  9  1  0  0  0  0
  8  1  2  0  0  0  0
  9  5  2  0  0  0  0
 11 10  2  0  0  0  0
 11  7  1  0  0  0  0
 12  2  1  0  0  0  0
 12 15  2  0  0  0  0
 13 14  1  0  0  0  0
 13  2  2  0  0  0  0
 14  3  2  0  0  0  0
 15  4  1  0  0  0  0
 16 17  1  6  0  0  0
 18 20  1  0  0  0  0
 18 16  1  0  0  0  0
 19 20  1  0  0  0  0
 20 21  2  0  0  0  0
 22 23  1  0  0  0  0
 22 19  1  0  0  0  0
 24 25  1  0  0  0  0
 25 23  1  0  0  0  0
 26 22  1  0  0  0  0
 27 28  2  0  0  0  0
 27 26  1  0  0  0  0
 29 27  1  0  0  0  0
 30 34  2  0  0  0  0
 31 33  1  0  0  0  0
 32 31  2  0  0  0  0
 32 30  1  0  0  0  0
 33 29  2  0  0  0  0
 34 29  1  0  0  0  0
 35 13  1  0  0  0  0
 36 39  1  0  0  0  0
 37 41  1  0  0  0  0
 37 36  2  0  0  0  0
 38 40  1  0  0  0  0
 39 40  2  0  0  0  0
 40 35  1  0  0  0  0
 41 38  2  0  0  0  0
 42 37  1  0  0  0  0
 43 42  1  0  0  0  0
M  END
>  <MODEL>
4

>  <REMARK>
 VINA RESULT:      -8.5      3.682      9.206
  Name = 
  12 active torsions:
  status: ('A' for Active; 'I' for Inactive)
    1  A    between atoms: O_1  and  C_34
    2  A    between atoms: O_1  and  C_35
    3  A    between atoms: C_2  and  C_6
    4  A    between atoms: C_2  and  C_13
    5  A    between atoms: N_3  and  N_4
    6  A    between atoms: N_4  and  C_15
    7  A    between atoms: N_4  and  C_22
    8  A    between atoms: C_6  and  C_12
    9  A    between atoms: C_11  and  C_14
   10  A    between atoms: C_14  and  C_22
   11  A    between atoms: C_15  and  C_42
   12  A    between atoms: C_19  and  O_25
                            x       y       z     vdW  Elec       q    Type
                         _______ _______ _______ _____ _____    ______ ____

>  <TORSDO>
F 12

$$$$
=
 OpenBabel11062410103D

 43 47  0  0  1  0  0  0  0  0999 V2000
  161.5230  204.1330  145.9680 C   0  0  0  0  0  0  0  0  0  0  0  0
  161.4320  206.4300  150.4880 C   0  0  0  0  0  0  0  0  0  0  0  0
  161.9570  209.1500  150.0220 C   0  0  0  0  0  0  0  0  0  0  0  0
  161.3750  204.6110  148.3410 C   0  0  0  0  0  0  0  0  0  0  0  0
  161.7480  205.4860  145.7050 C   0  0  0  0  0  3  0  0  0  0  0  0
  161.4940  203.2420  144.9480 F   0  0  0  0  0  0  0  0  0  0  0  0
  161.5970  205.9850  148.0830 C   0  0  0  0  0  0  0  0  0  0  0  0
  161.3390  203.6960  147.2830 C   0  0  0  0  0  3  0  0  0  0  0  0
  161.7850  206.4060  146.7550 C   0  0  0  0  0  3  0  0  0  0  0  0
  161.8880  208.2590  148.9480 C   0  0  0  0  0  3  0  0  0  0  0  0
  161.6360  206.8970  149.1620 C   0  0  0  0  0  0  0  0  0  0  0  0
  161.2300  205.0630  150.7120 C   0  0  0  0  0  3  0  0  0  0  0  0
  161.4710  207.3420  151.5680 C   0  0  0  0  0  0  0  0  0  0  0  0
  161.7500  208.6890  151.3230 C   0  0  0  0  0  3  0  0  0  0  0  0
  161.1980  204.1620  149.6500 C   0  0  0  0  0  3  0  0  0  0  0  0
  162.2300  210.5990  149.7930 C   0  0  2  0  0  3  0  0  0  0  0  0
  161.5500  211.3550  150.7310 F   0  0  0  0  0  0  0  0  0  0  0  0
  161.8230  210.9990  148.3790 C   0  0  0  0  0  2  0  0  0  0  0  0
  161.9370  213.3510  147.3620 N   0  0  0  0  0  2  0  0  0  0  0  0
  162.5930  212.1910  147.9020 C   0  0  0  0  0  0  0  0  0  0  0  0
  163.8490  212.1680  147.9530 O   0  0  0  0  0  0  0  0  0  0  0  0
  160.5430  213.5220  147.2230 N   0  0  0  0  0  0  0  0  0  0  0  0
  160.1160  212.9330  145.9590 C   0  0  0  0  0  2  0  0  0  0  0  0
  161.5780  212.8320  143.6400 S   0  0  0  0  0  1  0  0  0  0  0  0
  160.5600  213.8000  144.7940 C   0  0  0  0  0  2  0  0  0  0  0  0
  159.8680  212.8320  148.3170 C   0  0  0  0  0  2  0  0  0  0  0  0
  159.5390  213.8000  149.4070 C   0  0  0  0  0  0  0  0  0  0  0  0
  160.4780  214.4520  149.9400 O   0  0  0  0  0  0  0  0  0  0  0  0
  158.1490  213.9860  149.8700 C   0  0  0  0  0  0  0  0  0  0  0  0
  155.7740  214.1700  149.3740 C   0  0  0  0  0  3  0  0  0  0  0  0
  156.5400  214.2980  151.6670 C   0  0  0  0  0  3  0  0  0  0  0  0
  155.4990  214.3150  150.7360 C   0  0  0  0  0  3  0  0  0  0  0  0
  157.8590  214.1320  151.2350 C   0  0  0  0  0  3  0  0  0  0  0  0
  157.0950  214.0060  148.9420 C   0  0  0  0  0  3  0  0  0  0  0  0
  161.2630  206.9380  152.8930 O   0  0  0  0  0  0  0  0  0  0  0  0
  160.2600  208.2150  156.2440 C   0  0  0  0  0  3  0  0  0  0  0  0
  159.9490  209.5480  155.9310 C   0  0  0  0  0  0  0  0  0  0  0  0
  160.5170  209.1160  153.6100 C   0  0  0  0  0  3  0  0  0  0  0  0
  160.6990  207.3410  155.2450 C   0  0  0  0  0  3  0  0  0  0  0  0
  160.8370  207.7900  153.9210 C   0  0  0  0  0  0  0  0  0  0  0  0
  160.0780  209.9890  154.6090 C   0  0  0  0  0  3  0  0  0  0  0  0
  159.5120  210.4480  156.9060 O   0  0  0  0  0  0  0  0  0  0  0  0
  160.1650  211.6840  157.1610 C   0  0  0  0  0  1  0  0  0  0  0  0
  1  8  1  0  0  0  0
  2 12  1  0  0  0  0
  2 13  1  0  0  0  0
  3 14  1  0  0  0  0
  4 15  1  0  0  0  0
  5  1  2  0  0  0  0
  5  9  1  0  0  0  0
  6  1  1  0  0  0  0
  7  4  1  0  0  0  0
  7 11  1  0  0  0  0
  8  4  2  0  0  0  0
  9  7  2  0  0  0  0
 10 11  1  0  0  0  0
 10  3  2  0  0  0  0
 11  2  2  0  0  0  0
 13 35  1  0  0  0  0
 14 13  2  0  0  0  0
 15 12  2  0  0  0  0
 16  3  1  0  0  0  0
 16 17  1  1  0  0  0
 18 16  1  0  0  0  0
 19 20  1  0  0  0  0
 20 21  2  0  0  0  0
 20 18  1  0  0  0  0
 22 19  1  0  0  0  0
 22 26  1  0  0  0  0
 23 22  1  0  0  0  0
 24 25  1  0  0  0  0
 25 23  1  0  0  0  0
 26 27  1  0  0  0  0
 27 29  1  0  0  0  0
 27 28  2  0  0  0  0
 29 33  1  0  0  0  0
 30 32  2  0  0  0  0
 32 31  1  0  0  0  0
 33 31  2  0  0  0  0
 34 30  1  0  0  0  0
 34 29  2  0  0  0  0
 35 40  1  0  0  0  0
 37 36  1  0  0  0  0
 37 42  1  0  0  0  0
 38 40  2  0  0  0  0
 38 41  1  0  0  0  0
 39 36  2  0  0  0  0
 40 39  1  0  0  0  0
 41 37  2  0  0  0  0
 42 43  1  0  0  0  0
M  END
>  <MODEL>
5

>  <REMARK>
 VINA RESULT:      -8.3      1.716      3.781
  Name = 
  12 active torsions:
  status: ('A' for Active; 'I' for Inactive)
    1  A    between atoms: O_1  and  C_34
    2  A    between atoms: O_1  and  C_35
    3  A    between atoms: C_2  and  C_6
    4  A    between atoms: C_2  and  C_13
    5  A    between atoms: N_3  and  N_4
    6  A    between atoms: N_4  and  C_15
    7  A    between atoms: N_4  and  C_22
    8  A    between atoms: C_6  and  C_12
    9  A    between atoms: C_11  and  C_14
   10  A    between atoms: C_14  and  C_22
   11  A    between atoms: C_15  and  C_42
   12  A    between atoms: C_19  and  O_25
                            x       y       z     vdW  Elec       q    Type
                         _______ _______ _______ _____ _____    ______ ____

>  <TORSDO>
F 12

$$$$
=
 OpenBabel11062410103D

 43 47  0  0  1  0  0  0  0  0999 V2000
  160.9990  203.6070  148.4630 C   0  0  0  0  0  0  0  0  0  0  0  0
  162.1470  208.3810  149.7280 C   0  0  0  0  0  0  0  0  0  0  0  0
  161.2830  208.7450  152.3760 C   0  0  0  0  0  0  0  0  0  0  0  0
  161.7600  205.9090  148.4390 C   0  0  0  0  0  0  0  0  0  0  0  0
  160.5970  203.7490  149.7930 C   0  0  0  0  0  3  0  0  0  0  0  0
  160.8200  202.4250  147.8260 F   0  0  0  0  0  0  0  0  0  0  0  0
  161.3590  206.0610  149.7880 C   0  0  0  0  0  0  0  0  0  0  0  0
  161.5790  204.6850  147.7870 C   0  0  0  0  0  3  0  0  0  0  0  0
  160.7740  204.9680  150.4510 C   0  0  0  0  0  3  0  0  0  0  0  0
  161.1270  207.5030  151.7560 C   0  0  0  0  0  3  0  0  0  0  0  0
  161.5430  207.3060  150.4320 C   0  0  0  0  0  0  0  0  0  0  0  0
  162.5190  208.2050  148.3890 C   0  0  0  0  0  3  0  0  0  0  0  0
  162.3310  209.6270  150.3710 C   0  0  0  0  0  0  0  0  0  0  0  0
  161.8810  209.7990  151.6830 C   0  0  0  0  0  3  0  0  0  0  0  0
  162.3300  206.9800  147.7520 C   0  0  0  0  0  3  0  0  0  0  0  0
  160.8350  208.9550  153.7840 C   0  0  2  0  0  3  0  0  0  0  0  0
  159.9680  207.9420  154.1530 F   0  0  0  0  0  0  0  0  0  0  0  0
  160.1680  210.3180  153.9320 C   0  0  0  0  0  2  0  0  0  0  0  0
  160.1810  212.1970  155.6770 N   0  0  0  0  0  2  0  0  0  0  0  0
  160.8670  211.1630  154.9500 C   0  0  0  0  0  0  0  0  0  0  0  0
  162.0930  210.9820  155.1590 O   0  0  0  0  0  0  0  0  0  0  0  0
  158.8160  212.5330  155.5450 N   0  0  0  0  0  0  0  0  0  0  0  0
  158.3170  213.0080  156.8300 C   0  0  0  0  0  2  0  0  0  0  0  0
  155.8230  211.8690  156.8810 S   0  0  0  0  0  1  0  0  0  0  0  0
  156.8450  213.3640  156.7290 C   0  0  0  0  0  2  0  0  0  0  0  0
  158.6830  213.6030  154.5630 C   0  0  0  0  0  2  0  0  0  0  0  0
  157.9530  213.1030  153.3580 C   0  0  0  0  0  0  0  0  0  0  0  0
  156.9970  212.2960  153.5220 O   0  0  0  0  0  0  0  0  0  0  0  0
  158.3440  213.5240  151.9980 C   0  0  0  0  0  0  0  0  0  0  0  0
  160.0800  213.9890  150.3580 C   0  0  0  0  0  3  0  0  0  0  0  0
  157.7490  214.2300  149.7470 C   0  0  0  0  0  3  0  0  0  0  0  0
  159.1030  214.3010  149.4090 C   0  0  0  0  0  3  0  0  0  0  0  0
  157.3720  213.8410  151.0360 C   0  0  0  0  0  3  0  0  0  0  0  0
  159.7020  213.6020  151.6480 C   0  0  0  0  0  3  0  0  0  0  0  0
  162.9320  210.7170  149.7280 O   0  0  0  0  0  0  0  0  0  0  0  0
  162.3310  213.2990  147.1140 C   0  0  0  0  0  3  0  0  0  0  0  0
  161.0540  212.9230  146.6670 C   0  0  0  0  0  0  0  0  0  0  0  0
  161.0550  211.0930  148.2620 C   0  0  0  0  0  3  0  0  0  0  0  0
  162.9650  212.5740  148.1270 C   0  0  0  0  0  3  0  0  0  0  0  0
  162.3310  211.4600  148.7030 C   0  0  0  0  0  0  0  0  0  0  0  0
  160.4220  211.8190  147.2500 C   0  0  0  0  0  3  0  0  0  0  0  0
  160.3950  213.6240  145.6540 O   0  0  0  0  0  0  0  0  0  0  0  0
  160.5570  213.3200  144.2760 C   0  0  0  0  0  1  0  0  0  0  0  0
  1  5  1  0  0  0  0
  2 13  2  0  0  0  0
  2 11  1  0  0  0  0
  3 16  1  0  0  0  0
  4  7  2  0  0  0  0
  5  9  2  0  0  0  0
  6  1  1  0  0  0  0
  7 11  1  0  0  0  0
  7  9  1  0  0  0  0
  8  4  1  0  0  0  0
  8  1  2  0  0  0  0
 10  3  1  0  0  0  0
 11 10  2  0  0  0  0
 12  2  1  0  0  0  0
 13 14  1  0  0  0  0
 14  3  2  0  0  0  0
 15 12  2  0  0  0  0
 15  4  1  0  0  0  0
 16 18  1  0  0  0  0
 16 17  1  6  0  0  0
 18 20  1  0  0  0  0
 20 21  2  0  0  0  0
 20 19  1  0  0  0  0
 22 19  1  0  0  0  0
 22 23  1  0  0  0  0
 25 23  1  0  0  0  0
 25 24  1  0  0  0  0
 26 22  1  0  0  0  0
 27 28  2  0  0  0  0
 27 26  1  0  0  0  0
 29 27  1  0  0  0  0
 30 34  2  0  0  0  0
 31 33  1  0  0  0  0
 32 31  2  0  0  0  0
 32 30  1  0  0  0  0
 33 29  2  0  0  0  0
 34 29  1  0  0  0  0
 35 13  1  0  0  0  0
 36 39  1  0  0  0  0
 37 36  2  0  0  0  0
 37 41  1  0  0  0  0
 38 40  1  0  0  0  0
 39 40  2  0  0  0  0
 40 35  1  0  0  0  0
 41 38  2  0  0  0  0
 42 37  1  0  0  0  0
 43 42  1  0  0  0  0
M  END
>  <MODEL>
6

>  <REMARK>
 VINA RESULT:      -8.2      2.877      6.808
  Name = 
  12 active torsions:
  status: ('A' for Active; 'I' for Inactive)
    1  A    between atoms: O_1  and  C_34
    2  A    between atoms: O_1  and  C_35
    3  A    between atoms: C_2  and  C_6
    4  A    between atoms: C_2  and  C_13
    5  A    between atoms: N_3  and  N_4
    6  A    between atoms: N_4  and  C_15
    7  A    between atoms: N_4  and  C_22
    8  A    between atoms: C_6  and  C_12
    9  A    between atoms: C_11  and  C_14
   10  A    between atoms: C_14  and  C_22
   11  A    between atoms: C_15  and  C_42
   12  A    between atoms: C_19  and  O_25
                            x       y       z     vdW  Elec       q    Type
                         _______ _______ _______ _____ _____    ______ ____

>  <TORSDO>
F 12

$$$$
=
 OpenBabel11062410103D

 43 47  0  0  1  0  0  0  0  0999 V2000
  160.8220  201.3960  146.1790 C   0  0  0  0  0  0  0  0  0  0  0  0
  161.1880  204.6690  150.0340 C   0  0  0  0  0  0  0  0  0  0  0  0
  161.7110  207.1890  148.9070 C   0  0  0  0  0  0  0  0  0  0  0  0
  160.9030  202.4100  148.3800 C   0  0  0  0  0  0  0  0  0  0  0  0
  161.0420  202.6440  145.5920 C   0  0  0  0  0  3  0  0  0  0  0  0
  160.6840  200.2970  145.3990 F   0  0  0  0  0  0  0  0  0  0  0  0
  161.1220  203.6790  147.7930 C   0  0  0  0  0  0  0  0  0  0  0  0
  160.7540  201.2790  147.5710 C   0  0  0  0  0  3  0  0  0  0  0  0
  161.1920  203.7780  146.3920 C   0  0  0  0  0  3  0  0  0  0  0  0
  161.5280  206.0790  148.0790 C   0  0  0  0  0  3  0  0  0  0  0  0
  161.2760  204.8130  148.6240 C   0  0  0  0  0  0  0  0  0  0  0  0
  160.9860  203.3990  150.5860 C   0  0  0  0  0  3  0  0  0  0  0  0
  161.3420  205.8030  150.8660 C   0  0  0  0  0  0  0  0  0  0  0  0
  161.6190  207.0470  150.2930 C   0  0  0  0  0  3  0  0  0  0  0  0
  160.8420  202.2800  149.7680 C   0  0  0  0  0  3  0  0  0  0  0  0
  161.9840  208.5360  148.3260 C   0  0  2  0  0  3  0  0  0  0  0  0
  163.3380  208.8070  148.3940 F   0  0  0  0  0  0  0  0  0  0  0  0
  161.1820  209.6040  149.0610 C   0  0  0  0  0  2  0  0  0  0  0  0
  161.9090  211.9930  149.6450 N   0  0  0  0  0  2  0  0  0  0  0  0
  162.0760  210.5710  149.7730 C   0  0  0  0  0  0  0  0  0  0  0  0
  163.0140  210.1270  150.4820 O   0  0  0  0  0  0  0  0  0  0  0  0
  160.9200  212.6430  148.8780 N   0  0  0  0  0  0  0  0  0  0  0  0
  160.2970  213.6830  149.6880 C   0  0  0  0  0  2  0  0  0  0  0  0
  158.1810  213.9650  151.4110 S   0  0  0  0  0  1  0  0  0  0  0  0
  159.7050  213.0860  150.9530 C   0  0  0  0  0  2  0  0  0  0  0  0
  161.5490  213.2630  147.7170 C   0  0  0  0  0  2  0  0  0  0  0  0
  160.8190  212.8760  146.4710 C   0  0  0  0  0  0  0  0  0  0  0  0
  159.6330  212.4580  146.5710 O   0  0  0  0  0  0  0  0  0  0  0  0
  161.4690  212.9600  145.1480 C   0  0  0  0  0  0  0  0  0  0  0  0
  163.4220  213.4770  143.7930 C   0  0  0  0  0  3  0  0  0  0  0  0
  161.4030  212.6620  142.7340 C   0  0  0  0  0  3  0  0  0  0  0  0
  162.7240  213.1050  142.6410 C   0  0  0  0  0  3  0  0  0  0  0  0
  160.7790  212.5890  143.9830 C   0  0  0  0  0  3  0  0  0  0  0  0
  162.7960  213.4050  145.0420 C   0  0  0  0  0  3  0  0  0  0  0  0
  161.2520  205.7210  152.2620 O   0  0  0  0  0  0  0  0  0  0  0  0
  160.6010  207.7820  155.2940 C   0  0  0  0  0  3  0  0  0  0  0  0
  160.6040  209.0700  154.7370 C   0  0  0  0  0  0  0  0  0  0  0  0
  161.0370  208.1050  152.5520 C   0  0  0  0  0  3  0  0  0  0  0  0
  160.8170  206.6630  154.4830 C   0  0  0  0  0  3  0  0  0  0  0  0
  161.0440  206.8200  153.1060 C   0  0  0  0  0  0  0  0  0  0  0  0
  160.8200  209.2230  153.3630 C   0  0  0  0  0  3  0  0  0  0  0  0
  160.3960  210.2090  155.5200 O   0  0  0  0  0  0  0  0  0  0  0  0
  159.6840  211.3450  155.0510 C   0  0  0  0  0  1  0  0  0  0  0  0
  1  8  1  0  0  0  0
  2 12  1  0  0  0  0
  2 13  1  0  0  0  0
  3 14  1  0  0  0  0
  4 15  1  0  0  0  0
  5  1  2  0  0  0  0
  5  9  1  0  0  0  0
  6  1  1  0  0  0  0
  7  4  1  0  0  0  0
  7 11  1  0  0  0  0
  8  4  2  0  0  0  0
  9  7  2  0  0  0  0
 10 11  1  0  0  0  0
 10  3  2  0  0  0  0
 11  2  2  0  0  0  0
 13 35  1  0  0  0  0
 14 13  2  0  0  0  0
 15 12  2  0  0  0  0
 16 17  1  1  0  0  0
 16  3  1  0  0  0  0
 16 18  1  0  0  0  0
 18 20  1  0  0  0  0
 19 20  1  0  0  0  0
 20 21  2  0  0  0  0
 22 19  1  0  0  0  0
 22 23  1  0  0  0  0
 23 25  1  0  0  0  0
 25 24  1  0  0  0  0
 26 22  1  0  0  0  0
 27 28  2  0  0  0  0
 27 26  1  0  0  0  0
 29 27  1  0  0  0  0
 30 34  2  0  0  0  0
 31 33  1  0  0  0  0
 32 31  2  0  0  0  0
 32 30  1  0  0  0  0
 33 29  2  0  0  0  0
 34 29  1  0  0  0  0
 35 40  1  0  0  0  0
 37 36  1  0  0  0  0
 37 42  1  0  0  0  0
 38 40  2  0  0  0  0
 38 41  1  0  0  0  0
 39 36  2  0  0  0  0
 40 39  1  0  0  0  0
 41 37  2  0  0  0  0
 43 42  1  0  0  0  0
M  END
>  <MODEL>
7

>  <REMARK>
 VINA RESULT:      -8.0      1.562      2.029
  Name = 
  12 active torsions:
  status: ('A' for Active; 'I' for Inactive)
    1  A    between atoms: O_1  and  C_34
    2  A    between atoms: O_1  and  C_35
    3  A    between atoms: C_2  and  C_6
    4  A    between atoms: C_2  and  C_13
    5  A    between atoms: N_3  and  N_4
    6  A    between atoms: N_4  and  C_15
    7  A    between atoms: N_4  and  C_22
    8  A    between atoms: C_6  and  C_12
    9  A    between atoms: C_11  and  C_14
   10  A    between atoms: C_14  and  C_22
   11  A    between atoms: C_15  and  C_42
   12  A    between atoms: C_19  and  O_25
                            x       y       z     vdW  Elec       q    Type
                         _______ _______ _______ _____ _____    ______ ____

>  <TORSDO>
F 12

$$$$
=
 OpenBabel11062410103D

 43 47  0  0  1  0  0  0  0  0999 V2000
  159.1990  211.8570  155.9620 C   0  0  0  0  0  0  0  0  0  0  0  0
  161.3430  208.4140  152.9200 C   0  0  0  0  0  0  0  0  0  0  0  0
  161.6490  209.6350  150.4080 C   0  0  0  0  0  0  0  0  0  0  0  0
  160.1710  209.8320  155.0500 C   0  0  0  0  0  0  0  0  0  0  0  0
  159.3750  212.5000  154.7350 C   0  0  0  0  0  3  0  0  0  0  0  0
  158.6340  212.5230  156.9990 F   0  0  0  0  0  0  0  0  0  0  0  0
  160.3580  210.4770  153.8040 C   0  0  0  0  0  0  0  0  0  0  0  0
  159.5940  210.5250  156.1190 C   0  0  0  0  0  3  0  0  0  0  0  0
  159.9500  211.8150  153.6620 C   0  0  0  0  0  3  0  0  0  0  0  0
  161.1050  210.3580  151.4730 C   0  0  0  0  0  3  0  0  0  0  0  0
  160.9370  209.7620  152.7310 C   0  0  0  0  0  0  0  0  0  0  0  0
  161.1310  207.7980  154.1590 C   0  0  0  0  0  3  0  0  0  0  0  0
  161.9220  207.6980  151.8470 C   0  0  0  0  0  0  0  0  0  0  0  0
  162.0520  208.3120  150.5980 C   0  0  0  0  0  3  0  0  0  0  0  0
  160.5540  208.5010  155.2160 C   0  0  0  0  0  3  0  0  0  0  0  0
  161.8240  210.2690  149.0690 C   0  0  2  0  0  3  0  0  0  0  0  0
  162.8860  209.6770  148.4080 F   0  0  0  0  0  0  0  0  0  0  0  0
  162.0480  211.7690  149.2160 C   0  0  0  0  0  2  0  0  0  0  0  0
  161.8340  213.0780  147.0210 N   0  0  0  0  0  2  0  0  0  0  0  0
  162.6370  212.3610  147.9740 C   0  0  0  0  0  0  0  0  0  0  0  0
  163.8640  212.2070  147.7460 O   0  0  0  0  0  0  0  0  0  0  0  0
  160.4480  213.3200  147.1250 N   0  0  0  0  0  0  0  0  0  0  0  0
  160.2150  214.3040  148.1760 C   0  0  0  0  0  2  0  0  0  0  0  0
  158.9080  214.3880  150.5860 S   0  0  0  0  0  1  0  0  0  0  0  0
  158.8410  214.1070  148.7920 C   0  0  0  0  0  2  0  0  0  0  0  0
  159.9630  213.8580  145.8590 C   0  0  0  0  0  2  0  0  0  0  0  0
  159.8190  212.7580  144.8570 C   0  0  0  0  0  0  0  0  0  0  0  0
  158.9440  211.8710  145.0560 O   0  0  0  0  0  0  0  0  0  0  0  0
  160.6870  212.6930  143.6640 C   0  0  0  0  0  0  0  0  0  0  0  0
  161.3100  211.6150  141.5740 C   0  0  0  0  0  3  0  0  0  0  0  0
  162.5090  213.5810  142.3210 C   0  0  0  0  0  3  0  0  0  0  0  0
  162.3130  212.5680  141.3800 C   0  0  0  0  0  3  0  0  0  0  0  0
  161.6980  213.6440  143.4570 C   0  0  0  0  0  3  0  0  0  0  0  0
  160.5000  211.6770  142.7130 C   0  0  0  0  0  3  0  0  0  0  0  0
  162.3530  206.3720  151.9810 O   0  0  0  0  0  0  0  0  0  0  0  0
  160.8550  203.0320  151.2990 C   0  0  0  0  0  3  0  0  0  0  0  0
  160.6450  203.1200  149.9140 C   0  0  0  0  0  0  0  0  0  0  0  0
  161.5730  205.3630  149.9350 C   0  0  0  0  0  3  0  0  0  0  0  0
  161.4190  204.1040  151.9960 C   0  0  0  0  0  3  0  0  0  0  0  0
  161.7750  205.2820  151.3170 C   0  0  0  0  0  0  0  0  0  0  0  0
  161.0100  204.2900  149.2390 C   0  0  0  0  0  3  0  0  0  0  0  0
  160.0800  202.0680  149.1890 O   0  0  0  0  0  0  0  0  0  0  0  0
  160.8020  201.3320  148.2110 C   0  0  0  0  0  1  0  0  0  0  0  0
  1  8  1  0  0  0  0
  1  6  1  0  0  0  0
  2 12  1  0  0  0  0
  3 14  2  0  0  0  0
  3 10  1  0  0  0  0
  4 15  1  0  0  0  0
  4  8  2  0  0  0  0
  5  1  2  0  0  0  0
  7  4  1  0  0  0  0
  9  7  2  0  0  0  0
  9  5  1  0  0  0  0
 10 11  2  0  0  0  0
 11  2  1  0  0  0  0
 11  7  1  0  0  0  0
 12 15  2  0  0  0  0
 13 35  1  0  0  0  0
 13  2  2  0  0  0  0
 14 13  1  0  0  0  0
 16 17  1  1  0  0  0
 16 18  1  0  0  0  0
 16  3  1  0  0  0  0
 19 22  1  0  0  0  0
 19 20  1  0  0  0  0
 20 18  1  0  0  0  0
 21 20  2  0  0  0  0
 22 23  1  0  0  0  0
 23 25  1  0  0  0  0
 25 24  1  0  0  0  0
 26 22  1  0  0  0  0
 27 28  2  0  0  0  0
 27 26  1  0  0  0  0
 29 27  1  0  0  0  0
 30 34  1  0  0  0  0
 31 33  2  0  0  0  0
 32 30  2  0  0  0  0
 32 31  1  0  0  0  0
 33 29  1  0  0  0  0
 34 29  2  0  0  0  0
 36 39  1  0  0  0  0
 37 36  2  0  0  0  0
 38 40  1  0  0  0  0
 40 35  1  0  0  0  0
 40 39  2  0  0  0  0
 41 37  1  0  0  0  0
 41 38  2  0  0  0  0
 42 37  1  0  0  0  0
 43 42  1  0  0  0  0
M  END
>  <MODEL>
8

>  <REMARK>
 VINA RESULT:      -8.0      2.129      6.136
  Name = 
  12 active torsions:
  status: ('A' for Active; 'I' for Inactive)
    1  A    between atoms: O_1  and  C_34
    2  A    between atoms: O_1  and  C_35
    3  A    between atoms: C_2  and  C_6
    4  A    between atoms: C_2  and  C_13
    5  A    between atoms: N_3  and  N_4
    6  A    between atoms: N_4  and  C_15
    7  A    between atoms: N_4  and  C_22
    8  A    between atoms: C_6  and  C_12
    9  A    between atoms: C_11  and  C_14
   10  A    between atoms: C_14  and  C_22
   11  A    between atoms: C_15  and  C_42
   12  A    between atoms: C_19  and  O_25
                            x       y       z     vdW  Elec       q    Type
                         _______ _______ _______ _____ _____    ______ ____

>  <TORSDO>
F 12

$$$$
=
 OpenBabel11062410103D

 43 47  0  0  1  0  0  0  0  0999 V2000
  155.4510  212.6480  156.1810 C   0  0  0  0  0  0  0  0  0  0  0  0
  158.5440  213.2040  152.2010 C   0  0  0  0  0  0  0  0  0  0  0  0
  160.4460  211.1430  152.3620 C   0  0  0  0  0  0  0  0  0  0  0  0
  156.5460  213.4450  154.1690 C   0  0  0  0  0  0  0  0  0  0  0  0
  156.3600  211.5910  156.2620 C   0  0  0  0  0  3  0  0  0  0  0  0
  154.4840  212.7810  157.1190 F   0  0  0  0  0  0  0  0  0  0  0  0
  157.4690  212.3740  154.2410 C   0  0  0  0  0  0  0  0  0  0  0  0
  155.5450  213.5740  155.1370 C   0  0  0  0  0  3  0  0  0  0  0  0
  157.3640  211.4550  155.3000 C   0  0  0  0  0  3  0  0  0  0  0  0
  159.4310  211.2320  153.3180 C   0  0  0  0  0  3  0  0  0  0  0  0
  158.4790  212.2590  153.2590 C   0  0  0  0  0  0  0  0  0  0  0  0
  157.6260  214.2620  152.1650 C   0  0  0  0  0  3  0  0  0  0  0  0
  159.5540  213.0910  151.2180 C   0  0  0  0  0  0  0  0  0  0  0  0
  160.5040  212.0710  151.3200 C   0  0  0  0  0  3  0  0  0  0  0  0
  156.6350  214.3790  153.1370 C   0  0  0  0  0  3  0  0  0  0  0  0
  161.4610  210.0520  152.4280 C   0  0  2  0  0  3  0  0  0  0  0  0
  162.5090  210.3380  151.5720 F   0  0  0  0  0  0  0  0  0  0  0  0
  160.8250  208.7120  152.0750 C   0  0  0  0  0  2  0  0  0  0  0  0
  161.1440  206.3060  152.9040 N   0  0  0  0  0  2  0  0  0  0  0  0
  161.0060  207.7120  153.1740 C   0  0  0  0  0  0  0  0  0  0  0  0
  161.0130  208.1080  154.3670 O   0  0  0  0  0  0  0  0  0  0  0  0
  161.1400  205.7060  151.6270 N   0  0  0  0  0  0  0  0  0  0  0  0
  161.7090  206.6400  150.6620 C   0  0  0  0  0  2  0  0  0  0  0  0
  161.8010  207.3540  148.0150 S   0  0  0  0  0  1  0  0  0  0  0  0
  160.8410  206.7100  149.4180 C   0  0  0  0  0  2  0  0  0  0  0  0
  161.9650  204.5040  151.6640 C   0  0  0  0  0  2  0  0  0  0  0  0
  161.1250  203.2980  151.3920 C   0  0  0  0  0  0  0  0  0  0  0  0
  160.3960  202.8480  152.3180 O   0  0  0  0  0  0  0  0  0  0  0  0
  161.1520  202.6290  150.0760 C   0  0  0  0  0  0  0  0  0  0  0  0
  161.2000  202.7670  147.6470 C   0  0  0  0  0  3  0  0  0  0  0  0
  161.2140  200.6020  148.7320 C   0  0  0  0  0  3  0  0  0  0  0  0
  161.2270  201.3720  147.5670 C   0  0  0  0  0  3  0  0  0  0  0  0
  161.1790  201.2290  149.9810 C   0  0  0  0  0  3  0  0  0  0  0  0
  161.1630  203.3930  148.8970 C   0  0  0  0  0  3  0  0  0  0  0  0
  159.6560  213.9870  150.1460 O   0  0  0  0  0  0  0  0  0  0  0  0
  158.8730  213.0200  146.6370 C   0  0  0  0  0  3  0  0  0  0  0  0
  160.1660  212.8030  146.1330 C   0  0  0  0  0  0  0  0  0  0  0  0
  161.0880  213.3770  148.3040 C   0  0  0  0  0  3  0  0  0  0  0  0
  158.6920  213.4150  147.9660 C   0  0  0  0  0  3  0  0  0  0  0  0
  159.8020  213.6030  148.8060 C   0  0  0  0  0  0  0  0  0  0  0  0
  161.2690  212.9810  146.9760 C   0  0  0  0  0  3  0  0  0  0  0  0
  160.3810  212.4120  144.8090 O   0  0  0  0  0  0  0  0  0  0  0  0
  159.4880  212.7390  143.7550 C   0  0  0  0  0  1  0  0  0  0  0  0
  1  5  1  0  0  0  0
  1  6  1  0  0  0  0
  2 11  1  0  0  0  0
  3 16  1  0  0  0  0
  3 10  1  0  0  0  0
  4  7  2  0  0  0  0
  4  8  1  0  0  0  0
  7  9  1  0  0  0  0
  8  1  2  0  0  0  0
  9  5  2  0  0  0  0
 11 10  2  0  0  0  0
 11  7  1  0  0  0  0
 12  2  1  0  0  0  0
 12 15  2  0  0  0  0
 13 14  1  0  0  0  0
 13  2  2  0  0  0  0
 14  3  2  0  0  0  0
 15  4  1  0  0  0  0
 16 17  1  6  0  0  0
 18 16  1  0  0  0  0
 18 20  1  0  0  0  0
 19 20  1  0  0  0  0
 20 21  2  0  0  0  0
 22 26  1  0  0  0  0
 22 19  1  0  0  0  0
 23 22  1  0  0  0  0
 24 25  1  0  0  0  0
 25 23  1  0  0  0  0
 27 26  1  0  0  0  0
 27 28  2  0  0  0  0
 29 27  1  0  0  0  0
 30 34  1  0  0  0  0
 31 33  2  0  0  0  0
 32 30  2  0  0  0  0
 32 31  1  0  0  0  0
 33 29  1  0  0  0  0
 34 29  2  0  0  0  0
 35 13  1  0  0  0  0
 36 39  1  0  0  0  0
 37 36  2  0  0  0  0
 37 41  1  0  0  0  0
 38 40  1  0  0  0  0
 39 40  2  0  0  0  0
 40 35  1  0  0  0  0
 41 38  2  0  0  0  0
 42 37  1  0  0  0  0
 43 42  1  0  0  0  0
M  END
>  <MODEL>
9

>  <REMARK>
 VINA RESULT:      -7.8      3.560      9.975
  Name = 
  12 active torsions:
  status: ('A' for Active; 'I' for Inactive)
    1  A    between atoms: O_1  and  C_34
    2  A    between atoms: O_1  and  C_35
    3  A    between atoms: C_2  and  C_6
    4  A    between atoms: C_2  and  C_13
    5  A    between atoms: N_3  and  N_4
    6  A    between atoms: N_4  and  C_15
    7  A    between atoms: N_4  and  C_22
    8  A    between atoms: C_6  and  C_12
    9  A    between atoms: C_11  and  C_14
   10  A    between atoms: C_14  and  C_22
   11  A    between atoms: C_15  and  C_42
   12  A    between atoms: C_19  and  O_25
                            x       y       z     vdW  Elec       q    Type
                         _______ _______ _______ _____ _____    ______ ____

>  <TORSDO>
F 12

$$$$
