=
 OpenBabel11052423143D

 27 31  0  0  1  0  0  0  0  0999 V2000
  159.9620  205.3170  148.0320 N   0  0  0  0  0  2  0  0  0  0  0  0
  161.1110  205.8870  150.1090 C   0  0  0  0  0  0  0  0  0  0  0  0
  161.4690  207.7870  148.5820 N   0  0  0  0  0  2  0  0  0  0  0  0
  161.6070  208.4850  153.4510 C   0  0  0  0  0  3  0  0  0  0  0  0
  161.7010  209.8650  153.2480 C   0  0  0  0  0  0  0  0  0  0  0  0
  160.8050  205.3680  151.5030 C   0  0  0  0  0  2  0  0  0  0  0  0
  161.4910  209.5320  150.8590 C   0  0  0  0  0  3  0  0  0  0  0  0
  163.1070  205.2540  146.3070 C   0  0  0  0  0  0  0  0  0  0  0  0
  161.6390  210.3880  151.9550 C   0  0  0  0  0  3  0  0  0  0  0  0
  164.2260  204.7370  146.0550 O   0  0  0  0  0  0  0  0  0  0  0  0
  161.3900  208.1460  151.0530 C   0  0  0  0  0  0  0  0  0  0  0  0
  161.0280  204.9250  148.9460 C   0  0  1  0  0  3  0  0  0  0  0  0
  161.8550  210.7150  154.3340 O   0  0  0  0  0  1  0  0  0  0  0  0
  161.4420  207.6300  152.3560 C   0  0  0  0  0  0  0  0  0  0  0  0
  160.4610  206.1900  146.9590 C   0  0  2  0  0  3  0  0  0  0  0  0
  161.3120  207.2170  149.8990 C   0  0  0  0  0  0  0  0  0  0  0  0
  163.0290  206.3720  147.3030 C   0  0  0  0  0  2  0  0  0  0  0  0
  161.3480  206.2240  152.5510 N   0  0  0  0  0  2  0  0  0  0  0  0
  161.9560  204.7040  145.7380 O   0  0  0  0  0  0  0  0  0  0  0  0
  160.7220  205.4110  145.6770 C   0  0  0  0  0  2  0  0  0  0  0  0
  161.6680  207.0830  147.3180 C   0  0  2  0  0  3  0  0  0  0  0  0
  160.7600  200.7510  149.9520 C   0  0  0  0  0  3  0  0  0  0  0  0
  160.9220  203.4730  149.3140 C   0  0  0  0  0  0  0  0  0  0  0  0
  160.8770  202.5140  148.2970 C   0  0  0  0  0  3  0  0  0  0  0  0
  160.7940  201.1550  148.6150 C   0  0  0  0  0  3  0  0  0  0  0  0
  160.8100  201.7050  150.9730 C   0  0  0  0  0  3  0  0  0  0  0  0
  160.8940  203.0640  150.6560 C   0  0  0  0  0  3  0  0  0  0  0  0
  1 12  1  0  0  0  0
  2  6  1  0  0  0  0
  3 16  1  0  0  0  0
  5  4  1  0  0  0  0
  5 13  1  0  0  0  0
  6 18  1  0  0  0  0
  7 11  2  0  0  0  0
  7  9  1  0  0  0  0
  8 17  1  0  0  0  0
  9  5  2  0  0  0  0
 10  8  2  0  0  0  0
 11 14  1  0  0  0  0
 12 23  1  1  0  0  0
 12  2  1  0  0  0  0
 14 18  1  0  0  0  0
 14  4  2  0  0  0  0
 15 20  1  6  0  0  0
 15 21  1  0  0  0  0
 15  1  1  0  0  0  0
 16  2  2  0  0  0  0
 16 11  1  0  0  0  0
 19  8  1  0  0  0  0
 20 19  1  0  0  0  0
 21 17  1  1  0  0  0
 21  3  1  0  0  0  0
 22 26  1  0  0  0  0
 23 27  1  0  0  0  0
 24 25  1  0  0  0  0
 24 23  2  0  0  0  0
 25 22  2  0  0  0  0
 27 26  2  0  0  0  0
M  END
>  <MODEL>
1

>  <REMARK>
 VINA RESULT:      -7.6      0.000      0.000
  Name = 
  1 active torsions:
  status: ('A' for Active; 'I' for Inactive)
    1  A    between atoms: C_9  and  C_15
                            x       y       z     vdW  Elec       q    Type
                         _______ _______ _______ _____ _____    ______ ____

>  <TORSDO>
F 1

$$$$
=
 OpenBabel11052423143D

 27 31  0  0  1  0  0  0  0  0999 V2000
  161.7220  210.7580  155.1820 N   0  0  0  0  0  2  0  0  0  0  0  0
  159.4280  210.8730  154.3550 C   0  0  0  0  0  0  0  0  0  0  0  0
  159.3020  211.2490  156.7870 N   0  0  0  0  0  2  0  0  0  0  0  0
  155.8050  213.0560  153.8330 C   0  0  0  0  0  3  0  0  0  0  0  0
  155.2410  213.7340  154.9180 C   0  0  0  0  0  0  0  0  0  0  0  0
  158.9720  211.2270  152.9510 C   0  0  0  0  0  2  0  0  0  0  0  0
  157.0410  212.9590  156.3410 C   0  0  0  0  0  3  0  0  0  0  0  0
  160.8910  207.8360  157.0890 C   0  0  0  0  0  0  0  0  0  0  0  0
  155.8610  213.6890  156.1700 C   0  0  0  0  0  3  0  0  0  0  0  0
  160.5930  206.6160  157.1820 O   0  0  0  0  0  0  0  0  0  0  0  0
  157.6170  212.2810  155.2570 C   0  0  0  0  0  0  0  0  0  0  0  0
  160.6590  210.0110  154.5190 C   0  0  1  0  0  3  0  0  0  0  0  0
  154.0650  214.4520  154.7510 O   0  0  0  0  0  1  0  0  0  0  0  0
  156.9950  212.3410  154.0010 C   0  0  0  0  0  0  0  0  0  0  0  0
  161.6910  210.5660  156.6390 C   0  0  2  0  0  3  0  0  0  0  0  0
  158.8250  211.4390  155.4370 C   0  0  0  0  0  0  0  0  0  0  0  0
  159.7930  208.8570  157.1100 C   0  0  0  0  0  2  0  0  0  0  0  0
  157.5760  211.6450  152.9040 N   0  0  0  0  0  2  0  0  0  0  0  0
  162.2200  208.1990  156.8600 O   0  0  0  0  0  0  0  0  0  0  0  0
  162.7010  209.5190  157.0890 C   0  0  0  0  0  2  0  0  0  0  0  0
  160.3030  210.2970  157.2590 C   0  0  2  0  0  3  0  0  0  0  0  0
  162.0370  208.0880  150.9260 C   0  0  0  0  0  3  0  0  0  0  0  0
  161.1580  209.3520  153.2660 C   0  0  0  0  0  0  0  0  0  0  0  0
  160.8470  208.0080  153.0330 C   0  0  0  0  0  3  0  0  0  0  0  0
  161.2870  207.3760  151.8660 C   0  0  0  0  0  3  0  0  0  0  0  0
  162.3460  209.4330  151.1510 C   0  0  0  0  0  3  0  0  0  0  0  0
  161.9060  210.0660  152.3170 C   0  0  0  0  0  3  0  0  0  0  0  0
  1 15  1  0  0  0  0
  2 12  1  0  0  0  0
  2 16  2  0  0  0  0
  3 21  1  0  0  0  0
  4 14  2  0  0  0  0
  4  5  1  0  0  0  0
  5  9  2  0  0  0  0
  6  2  1  0  0  0  0
  8 17  1  0  0  0  0
  8 10  2  0  0  0  0
  9  7  1  0  0  0  0
 11 16  1  0  0  0  0
 11  7  2  0  0  0  0
 12 23  1  6  0  0  0
 12  1  1  0  0  0  0
 13  5  1  0  0  0  0
 14 11  1  0  0  0  0
 15 20  1  6  0  0  0
 15 21  1  0  0  0  0
 16  3  1  0  0  0  0
 18  6  1  0  0  0  0
 18 14  1  0  0  0  0
 19 20  1  0  0  0  0
 19  8  1  0  0  0  0
 21 17  1  6  0  0  0
 22 26  2  0  0  0  0
 22 25  1  0  0  0  0
 24 23  1  0  0  0  0
 25 24  2  0  0  0  0
 26 27  1  0  0  0  0
 27 23  2  0  0  0  0
M  END
>  <MODEL>
2

>  <REMARK>
 VINA RESULT:      -7.1      5.398      8.676
  Name = 
  1 active torsions:
  status: ('A' for Active; 'I' for Inactive)
    1  A    between atoms: C_9  and  C_15
                            x       y       z     vdW  Elec       q    Type
                         _______ _______ _______ _____ _____    ______ ____

>  <TORSDO>
F 1

$$$$
=
 OpenBabel11052423143D

 27 31  0  0  1  0  0  0  0  0999 V2000
  160.9710  212.1410  138.4610 N   0  0  0  0  0  2  0  0  0  0  0  0
  160.1910  212.1170  140.7740 C   0  0  0  0  0  0  0  0  0  0  0  0
  162.5900  211.5610  140.8520 N   0  0  0  0  0  2  0  0  0  0  0  0
  160.4140  213.6260  144.7530 C   0  0  0  0  0  3  0  0  0  0  0  0
  161.6580  213.7500  145.3790 C   0  0  0  0  0  0  0  0  0  0  0  0
  159.0000  212.8610  141.3520 C   0  0  0  0  0  2  0  0  0  0  0  0
  162.7430  212.8650  143.4040 C   0  0  0  0  0  3  0  0  0  0  0  0
  161.6690  208.6280  138.6580 C   0  0  0  0  0  0  0  0  0  0  0  0
  162.8220  213.3740  144.7040 C   0  0  0  0  0  3  0  0  0  0  0  0
  161.3070  207.4240  138.7250 O   0  0  0  0  0  0  0  0  0  0  0  0
  161.5000  212.7420  142.7660 C   0  0  0  0  0  0  0  0  0  0  0  0
  160.0580  211.4990  139.4010 C   0  0  1  0  0  3  0  0  0  0  0  0
  161.7370  214.2480  146.6720 O   0  0  0  0  0  1  0  0  0  0  0  0
  160.3380  213.1330  143.4470 C   0  0  0  0  0  0  0  0  0  0  0  0
  162.2580  211.4350  138.3880 C   0  0  2  0  0  3  0  0  0  0  0  0
  161.3900  212.1320  141.4180 C   0  0  0  0  0  0  0  0  0  0  0  0
  162.0350  209.3500  139.9200 C   0  0  0  0  0  2  0  0  0  0  0  0
  159.0770  213.0010  142.8020 N   0  0  0  0  0  2  0  0  0  0  0  0
  161.6170  209.2900  137.4280 O   0  0  0  0  0  0  0  0  0  0  0  0
  162.3210  210.5040  137.1850 C   0  0  0  0  0  2  0  0  0  0  0  0
  162.7070  210.7070  139.6740 C   0  0  2  0  0  3  0  0  0  0  0  0
  156.0790  211.3620  137.7710 C   0  0  0  0  0  3  0  0  0  0  0  0
  158.6630  211.4410  138.8500 C   0  0  0  0  0  0  0  0  0  0  0  0
  158.1800  212.5200  138.1020 C   0  0  0  0  0  3  0  0  0  0  0  0
  156.8900  212.4820  137.5660 C   0  0  0  0  0  3  0  0  0  0  0  0
  156.5590  210.2780  138.5120 C   0  0  0  0  0  3  0  0  0  0  0  0
  157.8500  210.3150  139.0490 C   0  0  0  0  0  3  0  0  0  0  0  0
  1 12  1  0  0  0  0
  2  6  1  0  0  0  0
  2 16  2  0  0  0  0
  3 16  1  0  0  0  0
  4  5  1  0  0  0  0
  5 13  1  0  0  0  0
  6 18  1  0  0  0  0
  7  9  1  0  0  0  0
  8 10  2  0  0  0  0
  8 17  1  0  0  0  0
  9  5  2  0  0  0  0
 11  7  2  0  0  0  0
 11 14  1  0  0  0  0
 12 23  1  6  0  0  0
 12  2  1  0  0  0  0
 14  4  2  0  0  0  0
 15 20  1  6  0  0  0
 15  1  1  0  0  0  0
 15 21  1  0  0  0  0
 16 11  1  0  0  0  0
 18 14  1  0  0  0  0
 19  8  1  0  0  0  0
 20 19  1  0  0  0  0
 21 17  1  1  0  0  0
 21  3  1  0  0  0  0
 22 26  1  0  0  0  0
 23 27  1  0  0  0  0
 24 23  2  0  0  0  0
 25 22  2  0  0  0  0
 25 24  1  0  0  0  0
 26 27  2  0  0  0  0
M  END
>  <MODEL>
3

>  <REMARK>
 VINA RESULT:      -7.0      9.466     11.254
  Name = 
  1 active torsions:
  status: ('A' for Active; 'I' for Inactive)
    1  A    between atoms: C_9  and  C_15
                            x       y       z     vdW  Elec       q    Type
                         _______ _______ _______ _____ _____    ______ ____

>  <TORSDO>
F 1

$$$$
=
 OpenBabel11052423143D

 27 31  0  0  1  0  0  0  0  0999 V2000
  162.2650  203.2390  148.8290 N   0  0  0  0  0  2  0  0  0  0  0  0
  161.1940  205.2630  149.6760 C   0  0  0  0  0  0  0  0  0  0  0  0
  161.0900  203.6130  151.5030 N   0  0  0  0  0  2  0  0  0  0  0  0
  161.0300  208.4260  152.5270 C   0  0  0  0  0  3  0  0  0  0  0  0
  161.1160  208.1350  153.8910 C   0  0  0  0  0  0  0  0  0  0  0  0
  161.4250  206.6900  149.2130 C   0  0  0  0  0  2  0  0  0  0  0  0
  161.2890  205.7740  153.3800 C   0  0  0  0  0  3  0  0  0  0  0  0
  159.1440  201.4870  149.0620 C   0  0  0  0  0  0  0  0  0  0  0  0
  161.2500  206.8110  154.3180 C   0  0  0  0  0  3  0  0  0  0  0  0
  157.9670  201.2550  148.6790 O   0  0  0  0  0  0  0  0  0  0  0  0
  161.2070  206.0570  152.0080 C   0  0  0  0  0  0  0  0  0  0  0  0
  161.1540  204.1640  148.6380 C   0  0  1  0  0  3  0  0  0  0  0  0
  161.0700  209.1630  154.8230 O   0  0  0  0  0  1  0  0  0  0  0  0
  161.0850  207.3900  151.5890 C   0  0  0  0  0  0  0  0  0  0  0  0
  161.8870  202.1080  149.6870 C   0  0  2  0  0  3  0  0  0  0  0  0
  161.1680  204.9660  151.0040 C   0  0  0  0  0  0  0  0  0  0  0  0
  159.3630  202.4100  150.2220 C   0  0  0  0  0  2  0  0  0  0  0  0
  160.9950  207.6750  150.1980 N   0  0  0  0  0  2  0  0  0  0  0  0
  160.2150  200.9660  148.3320 O   0  0  0  0  0  0  0  0  0  0  0  0
  161.5310  200.8750  148.8680 C   0  0  0  0  0  2  0  0  0  0  0  0
  160.8040  202.3950  150.7500 C   0  0  2  0  0  3  0  0  0  0  0  0
  160.9030  205.4270  144.5330 C   0  0  0  0  0  3  0  0  0  0  0  0
  161.0690  204.6250  147.2120 C   0  0  0  0  0  0  0  0  0  0  0  0
  161.5810  203.8070  146.1990 C   0  0  0  0  0  3  0  0  0  0  0  0
  161.5010  204.2070  144.8620 C   0  0  0  0  0  3  0  0  0  0  0  0
  160.3840  206.2470  145.5400 C   0  0  0  0  0  3  0  0  0  0  0  0
  160.4650  205.8470  146.8770 C   0  0  0  0  0  3  0  0  0  0  0  0
  1 15  1  0  0  0  0
  2 16  2  0  0  0  0
  4  5  1  0  0  0  0
  5  9  2  0  0  0  0
  5 13  1  0  0  0  0
  6  2  1  0  0  0  0
  6 18  1  0  0  0  0
  7  9  1  0  0  0  0
  8 17  1  0  0  0  0
 10  8  2  0  0  0  0
 11  7  2  0  0  0  0
 12 23  1  6  0  0  0
 12  1  1  0  0  0  0
 12  2  1  0  0  0  0
 14 11  1  0  0  0  0
 14  4  2  0  0  0  0
 15 20  1  6  0  0  0
 15 21  1  0  0  0  0
 16  3  1  0  0  0  0
 16 11  1  0  0  0  0
 18 14  1  0  0  0  0
 19 20  1  0  0  0  0
 19  8  1  0  0  0  0
 21 17  1  6  0  0  0
 21  3  1  0  0  0  0
 22 25  2  0  0  0  0
 22 26  1  0  0  0  0
 24 23  2  0  0  0  0
 25 24  1  0  0  0  0
 26 27  2  0  0  0  0
 27 23  1  0  0  0  0
M  END
>  <MODEL>
4

>  <REMARK>
 VINA RESULT:      -6.8      2.128      4.395
  Name = 
  1 active torsions:
  status: ('A' for Active; 'I' for Inactive)
    1  A    between atoms: C_9  and  C_15
                            x       y       z     vdW  Elec       q    Type
                         _______ _______ _______ _____ _____    ______ ____

>  <TORSDO>
F 1

$$$$
=
 OpenBabel11052423143D

 27 31  0  0  1  0  0  0  0  0999 V2000
  160.1340  212.1970  155.5240 N   0  0  0  0  0  2  0  0  0  0  0  0
  160.4910  211.0620  153.3920 C   0  0  0  0  0  0  0  0  0  0  0  0
  159.0820  213.0220  152.9000 N   0  0  0  0  0  2  0  0  0  0  0  0
  161.9560  211.1140  149.3910 C   0  0  0  0  0  3  0  0  0  0  0  0
  161.6290  212.1790  148.5460 C   0  0  0  0  0  0  0  0  0  0  0  0
  161.6470  210.1540  153.0150 C   0  0  0  0  0  2  0  0  0  0  0  0
  160.3290  213.1910  150.3210 C   0  0  0  0  0  3  0  0  0  0  0  0
  156.6250  211.4820  155.3200 C   0  0  0  0  0  0  0  0  0  0  0  0
  160.8200  213.2190  149.0120 C   0  0  0  0  0  3  0  0  0  0  0  0
  155.6480  210.6900  155.3600 O   0  0  0  0  0  0  0  0  0  0  0  0
  160.6560  212.1290  151.1770 C   0  0  0  0  0  0  0  0  0  0  0  0
  159.9160  210.9580  154.7870 C   0  0  1  0  0  3  0  0  0  0  0  0
  162.1100  212.2040  147.2440 O   0  0  0  0  0  1  0  0  0  0  0  0
  161.4780  211.0960  150.7050 C   0  0  0  0  0  0  0  0  0  0  0  0
  158.9960  213.1170  155.3860 C   0  0  2  0  0  3  0  0  0  0  0  0
  160.0810  212.0430  152.5420 C   0  0  0  0  0  0  0  0  0  0  0  0
  157.2050  211.8580  153.9900 C   0  0  0  0  0  2  0  0  0  0  0  0
  161.8030  210.0150  151.5720 N   0  0  0  0  0  2  0  0  0  0  0  0
  157.2120  211.9040  156.5160 O   0  0  0  0  0  0  0  0  0  0  0  0
  158.0650  213.0420  156.5880 C   0  0  0  0  0  2  0  0  0  0  0  0
  158.2030  213.0220  154.0650 C   0  0  2  0  0  3  0  0  0  0  0  0
  161.2100  207.5800  157.1150 C   0  0  0  0  0  3  0  0  0  0  0  0
  160.3630  209.7660  155.5830 C   0  0  0  0  0  0  0  0  0  0  0  0
  161.4490  209.8970  156.4540 C   0  0  0  0  0  3  0  0  0  0  0  0
  161.8740  208.8060  157.2180 C   0  0  0  0  0  3  0  0  0  0  0  0
  160.1200  207.4450  156.2490 C   0  0  0  0  0  3  0  0  0  0  0  0
  159.6950  208.5350  155.4860 C   0  0  0  0  0  3  0  0  0  0  0  0
  2 12  1  0  0  0  0
  3 21  1  0  0  0  0
  4 14  1  0  0  0  0
  5  9  1  0  0  0  0
  5  4  2  0  0  0  0
  6  2  1  0  0  0  0
  7 11  1  0  0  0  0
  8 10  2  0  0  0  0
  8 19  1  0  0  0  0
  9  7  2  0  0  0  0
 11 16  1  0  0  0  0
 12  1  1  0  0  0  0
 12 23  1  1  0  0  0
 13  5  1  0  0  0  0
 14 11  2  0  0  0  0
 14 18  1  0  0  0  0
 15  1  1  0  0  0  0
 15 20  1  1  0  0  0
 16  3  1  0  0  0  0
 16  2  2  0  0  0  0
 17  8  1  0  0  0  0
 18  6  1  0  0  0  0
 19 20  1  0  0  0  0
 21 17  1  1  0  0  0
 21 15  1  0  0  0  0
 22 25  1  0  0  0  0
 23 24  1  0  0  0  0
 24 25  2  0  0  0  0
 26 22  2  0  0  0  0
 27 23  2  0  0  0  0
 27 26  1  0  0  0  0
M  END
>  <MODEL>
5

>  <REMARK>
 VINA RESULT:      -6.6      5.931      8.838
  Name = 
  1 active torsions:
  status: ('A' for Active; 'I' for Inactive)
    1  A    between atoms: C_9  and  C_15
                            x       y       z     vdW  Elec       q    Type
                         _______ _______ _______ _____ _____    ______ ____

>  <TORSDO>
F 1

$$$$
=
 OpenBabel11052423143D

 27 31  0  0  1  0  0  0  0  0999 V2000
  160.8330  211.8450  138.1320 N   0  0  0  0  0  2  0  0  0  0  0  0
  158.8020  210.8580  139.0620 C   0  0  0  0  0  0  0  0  0  0  0  0
  158.7620  213.2390  139.6950 N   0  0  0  0  0  2  0  0  0  0  0  0
  154.5500  210.7240  139.3060 C   0  0  0  0  0  3  0  0  0  0  0  0
  153.8290  211.9070  139.4960 C   0  0  0  0  0  0  0  0  0  0  0  0
  158.0710  209.6220  138.5700 C   0  0  0  0  0  2  0  0  0  0  0  0
  155.8970  213.1640  139.5460 C   0  0  0  0  0  3  0  0  0  0  0  0
  162.0280  212.5140  141.4470 C   0  0  0  0  0  0  0  0  0  0  0  0
  154.5010  213.1260  139.6120 C   0  0  0  0  0  3  0  0  0  0  0  0
  162.4880  212.1440  142.5590 O   0  0  0  0  0  0  0  0  0  0  0  0
  156.6290  211.9830  139.3500 C   0  0  0  0  0  0  0  0  0  0  0  0
  160.3140  210.8490  139.0630 C   0  0  1  0  0  3  0  0  0  0  0  0
  152.4430  211.8690  139.5690 O   0  0  0  0  0  1  0  0  0  0  0  0
  155.9450  210.7660  139.2230 C   0  0  0  0  0  0  0  0  0  0  0  0
  161.0810  213.1320  138.7970 C   0  0  2  0  0  3  0  0  0  0  0  0
  158.1120  211.9940  139.3560 C   0  0  0  0  0  0  0  0  0  0  0  0
  160.5570  212.7650  141.3140 C   0  0  0  0  0  2  0  0  0  0  0  0
  156.6890  209.5680  139.0330 N   0  0  0  0  0  2  0  0  0  0  0  0
  162.8810  212.5750  140.3420 O   0  0  0  0  0  0  0  0  0  0  0  0
  162.5500  213.3010  139.1620 C   0  0  0  0  0  2  0  0  0  0  0  0
  160.1720  213.4600  140.0010 C   0  0  2  0  0  3  0  0  0  0  0  0
  162.1180  206.9890  138.4700 C   0  0  0  0  0  3  0  0  0  0  0  0
  160.9530  209.5100  138.8380 C   0  0  0  0  0  0  0  0  0  0  0  0
  161.3510  208.7510  139.9440 C   0  0  0  0  0  3  0  0  0  0  0  0
  161.9340  207.4930  139.7610 C   0  0  0  0  0  3  0  0  0  0  0  0
  161.7170  207.7410  137.3610 C   0  0  0  0  0  3  0  0  0  0  0  0
  161.1340  208.9990  137.5440 C   0  0  0  0  0  3  0  0  0  0  0  0
  1 15  1  0  0  0  0
  1 12  1  0  0  0  0
  2 12  1  0  0  0  0
  2 16  2  0  0  0  0
  3 21  1  0  0  0  0
  4  5  1  0  0  0  0
  5 13  1  0  0  0  0
  5  9  2  0  0  0  0
  6 18  1  0  0  0  0
  6  2  1  0  0  0  0
  7  9  1  0  0  0  0
  8 10  2  0  0  0  0
 11 16  1  0  0  0  0
 11  7  2  0  0  0  0
 12 23  1  6  0  0  0
 14  4  2  0  0  0  0
 14 11  1  0  0  0  0
 15 20  1  1  0  0  0
 15 21  1  0  0  0  0
 16  3  1  0  0  0  0
 17  8  1  0  0  0  0
 18 14  1  0  0  0  0
 19  8  1  0  0  0  0
 20 19  1  0  0  0  0
 21 17  1  1  0  0  0
 22 25  1  0  0  0  0
 23 24  1  0  0  0  0
 25 24  2  0  0  0  0
 26 27  1  0  0  0  0
 26 22  2  0  0  0  0
 27 23  2  0  0  0  0
M  END
>  <MODEL>
6

>  <REMARK>
 VINA RESULT:      -6.3     10.504     12.624
  Name = 
  1 active torsions:
  status: ('A' for Active; 'I' for Inactive)
    1  A    between atoms: C_9  and  C_15
                            x       y       z     vdW  Elec       q    Type
                         _______ _______ _______ _____ _____    ______ ____

>  <TORSDO>
F 1

$$$$
=
 OpenBabel11052423143D

 27 31  0  0  1  0  0  0  0  0999 V2000
  160.6100  214.2710  140.2330 N   0  0  0  0  0  2  0  0  0  0  0  0
  160.1680  212.9910  142.2650 C   0  0  0  0  0  0  0  0  0  0  0  0
  162.6150  213.2370  142.1270 N   0  0  0  0  0  2  0  0  0  0  0  0
  160.4510  212.5840  146.4970 C   0  0  0  0  0  3  0  0  0  0  0  0
  161.6760  212.8020  147.1340 C   0  0  0  0  0  0  0  0  0  0  0  0
  158.8980  212.9920  143.0950 C   0  0  0  0  0  2  0  0  0  0  0  0
  162.7110  213.2620  144.9940 C   0  0  0  0  0  3  0  0  0  0  0  0
  162.3030  211.4430  138.8170 C   0  0  0  0  0  0  0  0  0  0  0  0
  162.8040  213.1440  146.3850 C   0  0  0  0  0  3  0  0  0  0  0  0
  162.3120  210.2860  138.3200 O   0  0  0  0  0  0  0  0  0  0  0  0
  161.4850  213.0510  144.3470 C   0  0  0  0  0  0  0  0  0  0  0  0
  160.0460  213.0330  140.7580 C   0  0  1  0  0  3  0  0  0  0  0  0
  161.7720  212.6770  148.5140 O   0  0  0  0  0  1  0  0  0  0  0  0
  160.3550  212.7190  145.1090 C   0  0  0  0  0  0  0  0  0  0  0  0
  162.0260  214.1100  139.8710 C   0  0  2  0  0  3  0  0  0  0  0  0
  161.3840  213.0950  142.8670 C   0  0  0  0  0  0  0  0  0  0  0  0
  162.6030  211.6100  140.2760 C   0  0  0  0  0  2  0  0  0  0  0  0
  159.1130  212.4970  144.4500 N   0  0  0  0  0  2  0  0  0  0  0  0
  161.9090  212.5250  138.0250 O   0  0  0  0  0  0  0  0  0  0  0  0
  162.1990  213.8730  138.3770 C   0  0  0  0  0  2  0  0  0  0  0  0
  162.8220  213.0720  140.6900 C   0  0  2  0  0  3  0  0  0  0  0  0
  156.1000  212.2780  139.2180 C   0  0  0  0  0  3  0  0  0  0  0  0
  158.6680  212.7900  140.2140 C   0  0  0  0  0  0  0  0  0  0  0  0
  158.3720  211.5510  139.6370 C   0  0  0  0  0  3  0  0  0  0  0  0
  157.0910  211.2960  139.1370 C   0  0  0  0  0  3  0  0  0  0  0  0
  156.3890  213.5170  139.7990 C   0  0  0  0  0  3  0  0  0  0  0  0
  157.6690  213.7730  140.2990 C   0  0  0  0  0  3  0  0  0  0  0  0
  1 12  1  0  0  0  0
  2 16  2  0  0  0  0
  2  6  1  0  0  0  0
  3 16  1  0  0  0  0
  4  5  1  0  0  0  0
  5 13  1  0  0  0  0
  6 18  1  0  0  0  0
  7  9  1  0  0  0  0
  8 17  1  0  0  0  0
  9  5  2  0  0  0  0
 10  8  2  0  0  0  0
 11  7  2  0  0  0  0
 11 14  1  0  0  0  0
 12 23  1  1  0  0  0
 12  2  1  0  0  0  0
 14  4  2  0  0  0  0
 15 20  1  6  0  0  0
 15  1  1  0  0  0  0
 15 21  1  0  0  0  0
 16 11  1  0  0  0  0
 18 14  1  0  0  0  0
 19 20  1  0  0  0  0
 19  8  1  0  0  0  0
 21 17  1  6  0  0  0
 21  3  1  0  0  0  0
 22 26  1  0  0  0  0
 23 27  1  0  0  0  0
 24 23  2  0  0  0  0
 25 22  2  0  0  0  0
 25 24  1  0  0  0  0
 26 27  2  0  0  0  0
M  END
>  <MODEL>
7

>  <REMARK>
 VINA RESULT:      -6.2      8.643     10.915
  Name = 
  1 active torsions:
  status: ('A' for Active; 'I' for Inactive)
    1  A    between atoms: C_9  and  C_15
                            x       y       z     vdW  Elec       q    Type
                         _______ _______ _______ _____ _____    ______ ____

>  <TORSDO>
F 1

$$$$
=
 OpenBabel11052423143D

 27 31  0  0  1  0  0  0  0  0999 V2000
  160.8440  211.4320  154.4290 N   0  0  0  0  0  2  0  0  0  0  0  0
  160.7400  211.0320  152.0230 C   0  0  0  0  0  0  0  0  0  0  0  0
  159.6720  213.2190  152.4020 N   0  0  0  0  0  2  0  0  0  0  0  0
  161.7250  212.2060  148.0460 C   0  0  0  0  0  3  0  0  0  0  0  0
  161.5070  213.5250  147.6390 C   0  0  0  0  0  0  0  0  0  0  0  0
  161.6570  210.1490  151.1950 C   0  0  0  0  0  2  0  0  0  0  0  0
  160.6270  214.0600  149.8300 C   0  0  0  0  0  3  0  0  0  0  0  0
  157.2640  211.3180  154.6060 C   0  0  0  0  0  0  0  0  0  0  0  0
  160.9620  214.4530  148.5310 C   0  0  0  0  0  3  0  0  0  0  0  0
  156.1670  210.7010  154.5620 O   0  0  0  0  0  0  0  0  0  0  0  0
  160.8460  212.7400  150.2500 C   0  0  0  0  0  0  0  0  0  0  0  0
  160.3180  210.5510  153.3930 C   0  0  1  0  0  3  0  0  0  0  0  0
  161.8330  213.9140  146.3470 O   0  0  0  0  0  1  0  0  0  0  0  0
  161.4040  211.8190  149.3510 C   0  0  0  0  0  0  0  0  0  0  0  0
  159.8890  212.4940  154.7740 C   0  0  2  0  0  3  0  0  0  0  0  0
  160.4250  212.2860  151.5980 C   0  0  0  0  0  0  0  0  0  0  0  0
  157.7480  212.0300  153.3780 C   0  0  0  0  0  2  0  0  0  0  0  0
  161.6190  210.4770  149.7750 N   0  0  0  0  0  2  0  0  0  0  0  0
  158.0510  211.2340  155.7570 O   0  0  0  0  0  0  0  0  0  0  0  0
  159.1020  212.1540  156.0320 C   0  0  0  0  0  2  0  0  0  0  0  0
  158.9460  212.9530  153.6410 C   0  0  2  0  0  3  0  0  0  0  0  0
  161.1550  206.4320  154.3100 C   0  0  0  0  0  3  0  0  0  0  0  0
  160.6240  209.1130  153.6960 C   0  0  0  0  0  0  0  0  0  0  0  0
  160.6740  208.6930  155.0290 C   0  0  0  0  0  3  0  0  0  0  0  0
  160.9420  207.3560  155.3370 C   0  0  0  0  0  3  0  0  0  0  0  0
  161.1010  206.8440  152.9750 C   0  0  0  0  0  3  0  0  0  0  0  0
  160.8340  208.1820  152.6670 C   0  0  0  0  0  3  0  0  0  0  0  0
  1 15  1  0  0  0  0
  2 12  1  0  0  0  0
  3 21  1  0  0  0  0
  4 14  1  0  0  0  0
  5  4  2  0  0  0  0
  5  9  1  0  0  0  0
  6  2  1  0  0  0  0
  7 11  1  0  0  0  0
  8 19  1  0  0  0  0
  9  7  2  0  0  0  0
 10  8  2  0  0  0  0
 11 16  1  0  0  0  0
 12 23  1  1  0  0  0
 12  1  1  0  0  0  0
 13  5  1  0  0  0  0
 14 18  1  0  0  0  0
 14 11  2  0  0  0  0
 15 20  1  1  0  0  0
 16  2  2  0  0  0  0
 16  3  1  0  0  0  0
 17  8  1  0  0  0  0
 18  6  1  0  0  0  0
 19 20  1  0  0  0  0
 21 17  1  6  0  0  0
 21 15  1  0  0  0  0
 22 25  1  0  0  0  0
 23 24  1  0  0  0  0
 24 25  2  0  0  0  0
 26 22  2  0  0  0  0
 27 26  1  0  0  0  0
 27 23  2  0  0  0  0
M  END
>  <MODEL>
8

>  <REMARK>
 VINA RESULT:      -6.1      5.151      8.133
  Name = 
  1 active torsions:
  status: ('A' for Active; 'I' for Inactive)
    1  A    between atoms: C_9  and  C_15
                            x       y       z     vdW  Elec       q    Type
                         _______ _______ _______ _____ _____    ______ ____

>  <TORSDO>
F 1

$$$$
=
 OpenBabel11052423143D

 27 31  0  0  1  0  0  0  0  0999 V2000
  159.5910  209.9180  153.1400 N   0  0  0  0  0  2  0  0  0  0  0  0
  160.9230  208.3040  151.8810 C   0  0  0  0  0  0  0  0  0  0  0  0
  160.7100  207.3910  154.1590 N   0  0  0  0  0  2  0  0  0  0  0  0
  161.4560  204.3620  150.3540 C   0  0  0  0  0  3  0  0  0  0  0  0
  161.2760  203.2610  151.1970 C   0  0  0  0  0  0  0  0  0  0  0  0
  160.9260  208.0860  150.3790 C   0  0  0  0  0  2  0  0  0  0  0  0
  160.7690  204.7510  153.0380 C   0  0  0  0  0  3  0  0  0  0  0  0
  162.4020  210.5810  155.2670 C   0  0  0  0  0  0  0  0  0  0  0  0
  160.9290  203.4550  152.5370 C   0  0  0  0  0  3  0  0  0  0  0  0
  163.5440  211.0660  155.4820 O   0  0  0  0  0  0  0  0  0  0  0  0
  160.9430  205.8610  152.1980 C   0  0  0  0  0  0  0  0  0  0  0  0
  160.8350  209.7200  152.4050 C   0  0  1  0  0  3  0  0  0  0  0  0
  161.4420  201.9750  150.7030 O   0  0  0  0  0  1  0  0  0  0  0  0
  161.2790  205.6560  150.8520 C   0  0  0  0  0  0  0  0  0  0  0  0
  159.7630  209.6560  154.5760 C   0  0  2  0  0  3  0  0  0  0  0  0
  160.8540  207.2420  152.7310 C   0  0  0  0  0  0  0  0  0  0  0  0
  162.2820  209.1270  154.9250 C   0  0  0  0  0  2  0  0  0  0  0  0
  161.4630  206.7840  150.0030 N   0  0  0  0  0  2  0  0  0  0  0  0
  161.2920  211.4300  155.2450 O   0  0  0  0  0  0  0  0  0  0  0  0
  159.9590  210.9440  155.3630 C   0  0  0  0  0  2  0  0  0  0  0  0
  160.8360  208.6110  154.9520 C   0  0  2  0  0  3  0  0  0  0  0  0
  161.4320  212.7750  149.4350 C   0  0  0  0  0  3  0  0  0  0  0  0
  161.0410  210.8010  151.3840 C   0  0  0  0  0  0  0  0  0  0  0  0
  161.9610  210.5960  150.3510 C   0  0  0  0  0  3  0  0  0  0  0  0
  162.1590  211.5820  149.3790 C   0  0  0  0  0  3  0  0  0  0  0  0
  160.5070  212.9820  150.4620 C   0  0  0  0  0  3  0  0  0  0  0  0
  160.3080  211.9970  151.4340 C   0  0  0  0  0  3  0  0  0  0  0  0
  1 15  1  0  0  0  0
  2 12  1  0  0  0  0
  2 16  2  0  0  0  0
  3 21  1  0  0  0  0
  4 14  2  0  0  0  0
  4  5  1  0  0  0  0
  5  9  2  0  0  0  0
  6  2  1  0  0  0  0
  8 10  2  0  0  0  0
  9  7  1  0  0  0  0
 11 16  1  0  0  0  0
 11  7  2  0  0  0  0
 12 23  1  6  0  0  0
 12  1  1  0  0  0  0
 13  5  1  0  0  0  0
 14 11  1  0  0  0  0
 15 21  1  0  0  0  0
 15 20  1  1  0  0  0
 16  3  1  0  0  0  0
 17  8  1  0  0  0  0
 18  6  1  0  0  0  0
 18 14  1  0  0  0  0
 19  8  1  0  0  0  0
 19 20  1  0  0  0  0
 21 17  1  6  0  0  0
 22 26  1  0  0  0  0
 23 27  1  0  0  0  0
 24 23  2  0  0  0  0
 25 22  2  0  0  0  0
 25 24  1  0  0  0  0
 26 27  2  0  0  0  0
M  END
>  <MODEL>
9

>  <REMARK>
 VINA RESULT:      -5.7      2.841      7.917
  Name = 
  1 active torsions:
  status: ('A' for Active; 'I' for Inactive)
    1  A    between atoms: C_9  and  C_15
                            x       y       z     vdW  Elec       q    Type
                         _______ _______ _______ _____ _____    ______ ____

>  <TORSDO>
F 1

$$$$
