=
 OpenBabel11062409263D

 34 38  0  0  1  0  0  0  0  0999 V2000
  161.1210  206.4850  150.1660 C   0  0  0  0  0  0  0  0  0  0  0  0
  161.6640  203.6850  147.7980 C   0  0  0  0  0  3  0  0  0  0  0  0
  161.2090  203.6880  150.0420 N   0  0  0  0  0  2  0  0  0  0  0  0
  161.0450  207.3090  153.2350 C   0  0  0  0  0  0  0  0  0  0  0  0
  160.9970  207.7370  150.2480 O   0  0  0  0  0  0  0  0  0  0  0  0
  161.0030  206.0160  152.6200 N   0  0  0  0  0  0  0  0  0  0  0  0
  160.8990  204.8940  153.3240 N   0  0  0  0  0  0  0  0  0  0  0  0
  160.2530  207.5770  154.1760 O   0  0  0  0  0  0  0  0  0  0  0  0
  161.0950  204.3400  151.2200 C   0  0  0  0  0  0  0  0  0  0  0  0
  161.1220  205.6910  151.3160 C   0  0  0  0  0  0  0  0  0  0  0  0
  160.9560  203.8270  152.4880 C   0  0  0  0  0  3  0  0  0  0  0  0
  162.1420  204.2410  146.5020 C   0  0  0  0  0  2  0  0  0  0  0  0
  161.1260  205.0930  145.8320 C   0  0  0  0  0  0  0  0  0  0  0  0
  160.6660  206.1920  146.4230 C   0  0  0  0  0  3  0  0  0  0  0  0
  161.3200  204.3950  148.8780 C   0  0  0  0  0  0  0  0  0  0  0  0
  160.9020  206.5940  147.8220 C   0  0  0  0  0  3  0  0  0  0  0  0
  161.1750  205.8320  148.9020 C   0  0  0  0  0  0  0  0  0  0  0  0
  160.7610  204.8030  144.4340 C   0  0  0  0  0  0  0  0  0  0  0  0
  161.3420  205.5270  143.3980 O   0  0  0  0  0  0  0  0  0  0  0  0
  159.9290  203.8980  144.1600 O   0  0  0  0  0  1  0  0  0  0  0  0
  162.3120  208.5030  152.7980 S   0  0  0  0  0  0  0  0  0  0  0  0
  160.8680  211.4790  155.1960 C   0  0  0  0  0  3  0  0  0  0  0  0
  160.3280  210.4250  152.6210 C   0  0  0  0  0  3  0  0  0  0  0  0
  159.0570  213.0460  154.7690 N   0  0  0  0  0  0  0  0  0  0  0  0
  159.8520  212.0110  154.4020 C   0  0  0  0  0  0  0  0  0  0  0  0
  158.3350  212.3360  152.4390 S   0  0  0  0  0  0  0  0  0  0  0  0
  159.5980  211.4880  153.1440 C   0  0  0  0  0  0  0  0  0  0  0  0
  158.1600  213.3360  153.7940 C   0  0  0  0  0  0  0  0  0  0  0  0
  161.3490  209.8770  153.4130 C   0  0  0  0  0  0  0  0  0  0  0  0
  161.6190  210.4030  154.6920 C   0  0  0  0  0  3  0  0  0  0  0  0
  157.1730  214.4530  153.8820 C   0  0  1  0  0  3  0  0  0  0  0  0
  156.3080  214.4310  152.7860 O   0  0  0  0  0  1  0  0  0  0  0  0
  156.3850  214.3970  155.1850 C   0  0  0  0  0  2  0  0  0  0  0  0
  155.6110  213.2360  155.2460 O   0  0  0  0  0  1  0  0  0  0  0  0
  1  5  2  0  0  0  0
  1 10  1  0  0  0  0
  2 15  2  0  0  0  0
  3  9  1  0  0  0  0
  4  8  2  0  0  0  0
  6  4  1  0  0  0  0
  6  7  1  0  0  0  0
  9 10  2  0  0  0  0
  9 11  1  0  0  0  0
 10  6  1  0  0  0  0
 11  7  2  0  0  0  0
 12  2  1  0  0  0  0
 13 14  2  0  0  0  0
 13 12  1  0  0  0  0
 14 16  1  0  0  0  0
 15 17  1  0  0  0  0
 15  3  1  0  0  0  0
 16 17  2  0  0  0  0
 17  1  1  0  0  0  0
 18 13  1  0  0  0  0
 19 18  2  0  0  0  0
 20 18  1  0  0  0  0
 21  4  1  0  0  0  0
 21 29  1  0  0  0  0
 23 27  2  0  0  0  0
 23 29  1  0  0  0  0
 25 24  1  0  0  0  0
 25 22  2  0  0  0  0
 26 27  1  0  0  0  0
 26 28  1  0  0  0  0
 27 25  1  0  0  0  0
 28 31  1  0  0  0  0
 28 24  2  0  0  0  0
 29 30  2  0  0  0  0
 30 22  1  0  0  0  0
 31 32  1  6  0  0  0
 31 33  1  0  0  0  0
 33 34  1  0  0  0  0
M  END
>  <MODEL>
1

>  <REMARK>
 VINA RESULT:      -8.3      0.000      0.000
  Name = 
  5 active torsions:
  status: ('A' for Active; 'I' for Inactive)
    1  A    between atoms: C_3  and  C_25
    2  A    between atoms: C_7  and  C_11
    3  A    between atoms: C_7  and  C_29
    4  A    between atoms: C_8  and  S_18
    5  A    between atoms: S_18  and  C_30
                            x       y       z     vdW  Elec       q    Type
                         _______ _______ _______ _____ _____    ______ ____

>  <TORSDO>
F 5

$$$$
=
 OpenBabel11062409263D

 34 38  0  0  1  0  0  0  0  0999 V2000
  161.2420  206.8800  153.3710 C   0  0  0  0  0  0  0  0  0  0  0  0
  160.9620  205.9010  149.8070 C   0  0  0  0  0  3  0  0  0  0  0  0
  161.7240  207.8280  150.7800 N   0  0  0  0  0  2  0  0  0  0  0  0
  161.5850  209.3280  155.3700 C   0  0  0  0  0  0  0  0  0  0  0  0
  161.1130  206.4610  154.5540 O   0  0  0  0  0  0  0  0  0  0  0  0
  161.8070  209.2450  153.9570 N   0  0  0  0  0  0  0  0  0  0  0  0
  162.2440  210.2760  153.2410 N   0  0  0  0  0  0  0  0  0  0  0  0
  162.4300  209.9080  156.1000 O   0  0  0  0  0  0  0  0  0  0  0  0
  161.8670  208.6250  151.8620 C   0  0  0  0  0  0  0  0  0  0  0  0
  161.5730  208.2140  153.1190 C   0  0  0  0  0  0  0  0  0  0  0  0
  162.2910  209.9310  151.9300 C   0  0  0  0  0  3  0  0  0  0  0  0
  160.1980  204.6260  149.7200 C   0  0  0  0  0  2  0  0  0  0  0  0
  160.9060  203.4860  150.3560 C   0  0  0  0  0  0  0  0  0  0  0  0
  161.2070  203.5120  151.6520 C   0  0  0  0  0  3  0  0  0  0  0  0
  161.3020  206.5370  150.9330 C   0  0  0  0  0  0  0  0  0  0  0  0
  161.0950  204.6750  152.5500 C   0  0  0  0  0  3  0  0  0  0  0  0
  161.1450  205.9930  152.2610 C   0  0  0  0  0  0  0  0  0  0  0  0
  161.1190  202.2530  149.5770 C   0  0  0  0  0  0  0  0  0  0  0  0
  161.1970  201.0250  150.2250 O   0  0  0  0  0  1  0  0  0  0  0  0
  161.2270  202.2950  148.3220 O   0  0  0  0  0  0  0  0  0  0  0  0
  160.0480  208.7610  156.1010 S   0  0  0  0  0  0  0  0  0  0  0  0
  157.6430  212.0570  155.8860 C   0  0  0  0  0  3  0  0  0  0  0  0
  159.1770  210.4710  154.1060 C   0  0  0  0  0  3  0  0  0  0  0  0
  157.0310  213.3820  153.9390 N   0  0  0  0  0  0  0  0  0  0  0  0
  157.6880  212.3490  154.5230 C   0  0  0  0  0  0  0  0  0  0  0  0
  158.3020  212.1690  152.1040 S   0  0  0  0  0  0  0  0  0  0  0  0
  158.4430  211.5670  153.6620 C   0  0  0  0  0  0  0  0  0  0  0  0
  157.2620  213.4080  152.6040 C   0  0  0  0  0  0  0  0  0  0  0  0
  159.1340  210.1630  155.4750 C   0  0  0  0  0  0  0  0  0  0  0  0
  158.3730  210.9540  156.3600 C   0  0  0  0  0  3  0  0  0  0  0  0
  156.7100  214.4520  151.6880 C   0  0  1  0  0  3  0  0  0  0  0  0
  157.2620  214.3250  150.4120 O   0  0  0  0  0  1  0  0  0  0  0  0
  155.1900  214.3850  151.6220 C   0  0  0  0  0  2  0  0  0  0  0  0
  154.7670  213.9340  150.3700 O   0  0  0  0  0  1  0  0  0  0  0  0
  1  5  2  0  0  0  0
  2 15  2  0  0  0  0
  3 15  1  0  0  0  0
  3  9  1  0  0  0  0
  4  8  2  0  0  0  0
  4 21  1  0  0  0  0
  6  4  1  0  0  0  0
  7  6  1  0  0  0  0
  9 11  1  0  0  0  0
  9 10  2  0  0  0  0
 10  1  1  0  0  0  0
 10  6  1  0  0  0  0
 11  7  2  0  0  0  0
 12  2  1  0  0  0  0
 12 13  1  0  0  0  0
 13 14  2  0  0  0  0
 14 16  1  0  0  0  0
 15 17  1  0  0  0  0
 17 16  2  0  0  0  0
 17  1  1  0  0  0  0
 18 19  1  0  0  0  0
 18 13  1  0  0  0  0
 20 18  2  0  0  0  0
 22 30  1  0  0  0  0
 23 29  1  0  0  0  0
 24 25  1  0  0  0  0
 25 22  2  0  0  0  0
 26 28  1  0  0  0  0
 26 27  1  0  0  0  0
 27 23  2  0  0  0  0
 27 25  1  0  0  0  0
 28 24  2  0  0  0  0
 29 21  1  0  0  0  0
 29 30  2  0  0  0  0
 31 32  1  6  0  0  0
 31 28  1  0  0  0  0
 33 31  1  0  0  0  0
 34 33  1  0  0  0  0
M  END
>  <MODEL>
2

>  <REMARK>
 VINA RESULT:      -7.7      2.904      4.026
  Name = 
  5 active torsions:
  status: ('A' for Active; 'I' for Inactive)
    1  A    between atoms: C_3  and  C_25
    2  A    between atoms: C_7  and  C_11
    3  A    between atoms: C_7  and  C_29
    4  A    between atoms: C_8  and  S_18
    5  A    between atoms: S_18  and  C_30
                            x       y       z     vdW  Elec       q    Type
                         _______ _______ _______ _____ _____    ______ ____

>  <TORSDO>
F 5

$$$$
=
 OpenBabel11062409263D

 34 38  0  0  1  0  0  0  0  0999 V2000
  161.1040  206.1270  150.1970 C   0  0  0  0  0  0  0  0  0  0  0  0
  161.7440  203.5730  147.5880 C   0  0  0  0  0  3  0  0  0  0  0  0
  161.2690  203.3570  149.8170 N   0  0  0  0  0  2  0  0  0  0  0  0
  160.9780  206.6620  153.3280 C   0  0  0  0  0  0  0  0  0  0  0  0
  160.9440  207.3630  150.3930 O   0  0  0  0  0  0  0  0  0  0  0  0
  160.9770  205.4310  152.5960 N   0  0  0  0  0  0  0  0  0  0  0  0
  160.8970  204.2460  153.1920 N   0  0  0  0  0  0  0  0  0  0  0  0
  160.1710  206.8210  154.2810 O   0  0  0  0  0  0  0  0  0  0  0  0
  161.1270  203.8940  151.0480 C   0  0  0  0  0  0  0  0  0  0  0  0
  161.1160  205.2310  151.2690 C   0  0  0  0  0  0  0  0  0  0  0  0
  160.9910  203.2620  152.2620 C   0  0  0  0  0  3  0  0  0  0  0  0
  162.2170  204.2590  146.3530 C   0  0  0  0  0  2  0  0  0  0  0  0
  161.1850  205.1420  145.7530 C   0  0  0  0  0  0  0  0  0  0  0  0
  160.6890  206.1690  146.4380 C   0  0  0  0  0  3  0  0  0  0  0  0
  161.3710  204.1720  148.7240 C   0  0  0  0  0  0  0  0  0  0  0  0
  160.9020  206.4470  147.8700 C   0  0  0  0  0  3  0  0  0  0  0  0
  161.1870  205.5960  148.8790 C   0  0  0  0  0  0  0  0  0  0  0  0
  160.8400  204.9730  144.3310 C   0  0  0  0  0  0  0  0  0  0  0  0
  161.4590  205.7620  143.3660 O   0  0  0  0  0  0  0  0  0  0  0  0
  159.9900  204.1150  143.9710 O   0  0  0  0  0  1  0  0  0  0  0  0
  162.2150  207.9240  153.0170 S   0  0  0  0  0  0  0  0  0  0  0  0
  159.5190  210.9890  152.8460 C   0  0  0  0  0  3  0  0  0  0  0  0
  160.9590  209.5830  154.8420 C   0  0  0  0  0  3  0  0  0  0  0  0
  158.5800  212.3060  154.6630 N   0  0  0  0  0  0  0  0  0  0  0  0
  159.3840  211.3200  154.1940 C   0  0  0  0  0  0  0  0  0  0  0  0
  159.7160  211.2450  156.6730 S   0  0  0  0  0  0  0  0  0  0  0  0
  160.0920  210.6240  155.1620 C   0  0  0  0  0  0  0  0  0  0  0  0
  158.6630  212.3950  156.0140 C   0  0  0  0  0  0  0  0  0  0  0  0
  161.1070  209.2460  153.4870 C   0  0  0  0  0  0  0  0  0  0  0  0
  160.3890  209.9430  152.4960 C   0  0  0  0  0  3  0  0  0  0  0  0
  157.8650  213.3580  156.8310 C   0  0  1  0  0  3  0  0  0  0  0  0
  158.6490  214.4530  157.2010 O   0  0  0  0  0  1  0  0  0  0  0  0
  156.6200  213.8210  156.0850 C   0  0  0  0  0  2  0  0  0  0  0  0
  155.7280  214.4520  156.9550 O   0  0  0  0  0  1  0  0  0  0  0  0
  1  5  2  0  0  0  0
  1 10  1  0  0  0  0
  2 15  2  0  0  0  0
  3  9  1  0  0  0  0
  4  8  2  0  0  0  0
  6  7  1  0  0  0  0
  6  4  1  0  0  0  0
  9 10  2  0  0  0  0
  9 11  1  0  0  0  0
 10  6  1  0  0  0  0
 11  7  2  0  0  0  0
 12  2  1  0  0  0  0
 13 12  1  0  0  0  0
 13 14  2  0  0  0  0
 14 16  1  0  0  0  0
 15 17  1  0  0  0  0
 15  3  1  0  0  0  0
 16 17  2  0  0  0  0
 17  1  1  0  0  0  0
 18 13  1  0  0  0  0
 19 18  2  0  0  0  0
 20 18  1  0  0  0  0
 21  4  1  0  0  0  0
 21 29  1  0  0  0  0
 22 25  1  0  0  0  0
 23 27  1  0  0  0  0
 24 28  2  0  0  0  0
 25 24  1  0  0  0  0
 25 27  2  0  0  0  0
 27 26  1  0  0  0  0
 28 26  1  0  0  0  0
 28 31  1  0  0  0  0
 29 23  2  0  0  0  0
 30 22  2  0  0  0  0
 30 29  1  0  0  0  0
 31 32  1  6  0  0  0
 33 31  1  0  0  0  0
 33 34  1  0  0  0  0
M  END
>  <MODEL>
3

>  <REMARK>
 VINA RESULT:      -7.6      1.378      1.708
  Name = 
  5 active torsions:
  status: ('A' for Active; 'I' for Inactive)
    1  A    between atoms: C_3  and  C_25
    2  A    between atoms: C_7  and  C_11
    3  A    between atoms: C_7  and  C_29
    4  A    between atoms: C_8  and  S_18
    5  A    between atoms: S_18  and  C_30
                            x       y       z     vdW  Elec       q    Type
                         _______ _______ _______ _____ _____    ______ ____

>  <TORSDO>
F 5

$$$$
=
 OpenBabel11062409263D

 34 38  0  0  1  0  0  0  0  0999 V2000
  160.9910  209.5490  152.8190 C   0  0  0  0  0  0  0  0  0  0  0  0
  158.9690  209.9770  155.8960 C   0  0  0  0  0  3  0  0  0  0  0  0
  160.1550  208.1810  155.1150 N   0  0  0  0  0  2  0  0  0  0  0  0
  162.3290  207.4250  150.8680 C   0  0  0  0  0  0  0  0  0  0  0  0
  161.4520  210.1540  151.8120 O   0  0  0  0  0  0  0  0  0  0  0  0
  161.8250  207.2730  152.2000 N   0  0  0  0  0  0  0  0  0  0  0  0
  161.8750  206.1180  152.8560 N   0  0  0  0  0  0  0  0  0  0  0  0
  163.4380  206.9130  150.5600 O   0  0  0  0  0  0  0  0  0  0  0  0
  160.8310  207.5550  154.1270 C   0  0  0  0  0  0  0  0  0  0  0  0
  161.1850  208.1740  152.9750 C   0  0  0  0  0  0  0  0  0  0  0  0
  161.2620  206.2510  154.0590 C   0  0  0  0  0  3  0  0  0  0  0  0
  158.2330  211.2690  155.8080 C   0  0  0  0  0  2  0  0  0  0  0  0
  159.1360  212.4470  155.7990 C   0  0  0  0  0  0  0  0  0  0  0  0
  160.0370  212.6040  154.8320 C   0  0  0  0  0  3  0  0  0  0  0  0
  159.8340  209.5040  154.9920 C   0  0  0  0  0  0  0  0  0  0  0  0
  160.4090  211.6040  153.8150 C   0  0  0  0  0  3  0  0  0  0  0  0
  160.3400  210.2570  153.8680 C   0  0  0  0  0  0  0  0  0  0  0  0
  158.9100  213.5280  156.7740 C   0  0  0  0  0  0  0  0  0  0  0  0
  159.9650  214.3460  157.1650 O   0  0  0  0  0  0  0  0  0  0  0  0
  157.7640  213.7280  157.2600 O   0  0  0  0  0  1  0  0  0  0  0  0
  161.3400  208.1940  149.5850 S   0  0  0  0  0  0  0  0  0  0  0  0
  162.0040  205.8100  146.3330 C   0  0  0  0  0  3  0  0  0  0  0  0
  161.1100  205.4970  149.0050 C   0  0  0  0  0  3  0  0  0  0  0  0
  161.6930  203.4080  146.1070 N   0  0  0  0  0  0  0  0  0  0  0  0
  161.6470  204.5560  146.8270 C   0  0  0  0  0  0  0  0  0  0  0  0
  160.8660  202.8010  148.4310 S   0  0  0  0  0  0  0  0  0  0  0  0
  161.2120  204.4150  148.1360 C   0  0  0  0  0  0  0  0  0  0  0  0
  161.2810  202.3530  146.8520 C   0  0  0  0  0  0  0  0  0  0  0  0
  161.4610  206.7660  148.5170 C   0  0  0  0  0  0  0  0  0  0  0  0
  161.9090  206.9200  147.1900 C   0  0  0  0  0  3  0  0  0  0  0  0
  161.2570  200.9450  146.3530 C   0  0  1  0  0  3  0  0  0  0  0  0
  161.2200  200.0470  147.4210 O   0  0  0  0  0  1  0  0  0  0  0  0
  160.0810  200.7080  145.4140 C   0  0  0  0  0  2  0  0  0  0  0  0
  159.7110  201.8940  144.7750 O   0  0  0  0  0  1  0  0  0  0  0  0
  1 10  1  0  0  0  0
  1 17  1  0  0  0  0
  4  6  1  0  0  0  0
  5  1  2  0  0  0  0
  6  7  1  0  0  0  0
  6 10  1  0  0  0  0
  7 11  2  0  0  0  0
  8  4  2  0  0  0  0
  9  3  1  0  0  0  0
 10  9  2  0  0  0  0
 11  9  1  0  0  0  0
 12  2  1  0  0  0  0
 13 12  1  0  0  0  0
 13 18  1  0  0  0  0
 14 13  2  0  0  0  0
 15  3  1  0  0  0  0
 15  2  2  0  0  0  0
 16 17  2  0  0  0  0
 16 14  1  0  0  0  0
 17 15  1  0  0  0  0
 18 19  2  0  0  0  0
 18 20  1  0  0  0  0
 21  4  1  0  0  0  0
 22 25  2  0  0  0  0
 22 30  1  0  0  0  0
 24 25  1  0  0  0  0
 24 28  2  0  0  0  0
 25 27  1  0  0  0  0
 27 26  1  0  0  0  0
 27 23  2  0  0  0  0
 28 26  1  0  0  0  0
 29 23  1  0  0  0  0
 29 21  1  0  0  0  0
 30 29  2  0  0  0  0
 31 28  1  0  0  0  0
 31 32  1  1  0  0  0
 33 31  1  0  0  0  0
 34 33  1  0  0  0  0
M  END
>  <MODEL>
4

>  <REMARK>
 VINA RESULT:      -6.9      2.694     10.311
  Name = 
  5 active torsions:
  status: ('A' for Active; 'I' for Inactive)
    1  A    between atoms: C_3  and  C_25
    2  A    between atoms: C_7  and  C_11
    3  A    between atoms: C_7  and  C_29
    4  A    between atoms: C_8  and  S_18
    5  A    between atoms: S_18  and  C_30
                            x       y       z     vdW  Elec       q    Type
                         _______ _______ _______ _____ _____    ______ ____

>  <TORSDO>
F 5

$$$$
=
 OpenBabel11062409263D

 34 38  0  0  1  0  0  0  0  0999 V2000
  161.1320  207.4080  150.8330 C   0  0  0  0  0  0  0  0  0  0  0  0
  161.4410  203.9850  152.2220 C   0  0  0  0  0  3  0  0  0  0  0  0
  161.0680  205.9960  153.2510 N   0  0  0  0  0  2  0  0  0  0  0  0
  161.2110  210.5080  151.5310 C   0  0  0  0  0  0  0  0  0  0  0  0
  161.0770  208.0690  149.7600 O   0  0  0  0  0  0  0  0  0  0  0  0
  161.0780  209.3670  152.3870 N   0  0  0  0  0  0  0  0  0  0  0  0
  160.9410  209.4750  153.7040 N   0  0  0  0  0  0  0  0  0  0  0  0
  160.4680  211.5100  151.7090 O   0  0  0  0  0  0  0  0  0  0  0  0
  161.0320  207.3460  153.2200 C   0  0  0  0  0  0  0  0  0  0  0  0
  161.1330  208.0570  152.0700 C   0  0  0  0  0  0  0  0  0  0  0  0
  160.9120  208.2380  154.2600 C   0  0  0  0  0  3  0  0  0  0  0  0
  161.9000  203.0700  151.1410 C   0  0  0  0  0  2  0  0  0  0  0  0
  160.9070  202.9300  150.0450 C   0  0  0  0  0  0  0  0  0  0  0  0
  160.5270  203.9890  149.3350 C   0  0  0  0  0  3  0  0  0  0  0  0
  161.1740  205.2890  152.0870 C   0  0  0  0  0  0  0  0  0  0  0  0
  160.8340  205.3990  149.6370 C   0  0  0  0  0  3  0  0  0  0  0  0
  161.1060  205.9850  150.8230 C   0  0  0  0  0  0  0  0  0  0  0  0
  160.4770  201.5800  149.6400 C   0  0  0  0  0  0  0  0  0  0  0  0
  159.2200  201.3900  149.0740 O   0  0  0  0  0  0  0  0  0  0  0  0
  161.2390  200.5880  149.7930 O   0  0  0  0  0  1  0  0  0  0  0  0
  162.5210  210.6040  150.3100 S   0  0  0  0  0  0  0  0  0  0  0  0
  160.4710  213.9030  149.0420 C   0  0  0  0  0  3  0  0  0  0  0  0
  161.2910  211.4120  147.9650 C   0  0  0  0  0  3  0  0  0  0  0  0
  159.4660  214.3400  146.8700 N   0  0  0  0  0  0  0  0  0  0  0  0
  160.1610  213.5520  147.7280 C   0  0  0  0  0  0  0  0  0  0  0  0
  160.0530  212.2060  145.6210 S   0  0  0  0  0  0  0  0  0  0  0  0
  160.5680  212.3320  147.2120 C   0  0  0  0  0  0  0  0  0  0  0  0
  159.3150  213.7290  145.6680 C   0  0  0  0  0  0  0  0  0  0  0  0
  161.6040  211.7510  149.2910 C   0  0  0  0  0  0  0  0  0  0  0  0
  161.1990  212.9910  149.8240 C   0  0  0  0  0  3  0  0  0  0  0  0
  158.6290  214.3580  144.5000 C   0  0  1  0  0  3  0  0  0  0  0  0
  158.9070  213.6500  143.3290 O   0  0  0  0  0  1  0  0  0  0  0  0
  157.1250  214.4530  144.7230 C   0  0  0  0  0  2  0  0  0  0  0  0
  156.7030  213.5070  145.6590 O   0  0  0  0  0  1  0  0  0  0  0  0
  1 10  1  0  0  0  0
  4  8  2  0  0  0  0
  4  6  1  0  0  0  0
  5  1  2  0  0  0  0
  6  7  1  0  0  0  0
  7 11  2  0  0  0  0
  9  3  1  0  0  0  0
  9 11  1  0  0  0  0
 10  6  1  0  0  0  0
 10  9  2  0  0  0  0
 12  2  1  0  0  0  0
 13 12  1  0  0  0  0
 14 16  1  0  0  0  0
 14 13  2  0  0  0  0
 15  2  2  0  0  0  0
 15  3  1  0  0  0  0
 16 17  2  0  0  0  0
 17  1  1  0  0  0  0
 17 15  1  0  0  0  0
 18 20  1  0  0  0  0
 18 13  1  0  0  0  0
 19 18  2  0  0  0  0
 21  4  1  0  0  0  0
 22 30  1  0  0  0  0
 23 29  1  0  0  0  0
 24 25  1  0  0  0  0
 25 22  2  0  0  0  0
 26 28  1  0  0  0  0
 26 27  1  0  0  0  0
 27 25  1  0  0  0  0
 27 23  2  0  0  0  0
 28 24  2  0  0  0  0
 29 30  2  0  0  0  0
 29 21  1  0  0  0  0
 31 32  1  6  0  0  0
 31 33  1  0  0  0  0
 31 28  1  0  0  0  0
 33 34  1  0  0  0  0
M  END
>  <MODEL>
5

>  <REMARK>
 VINA RESULT:      -6.6      4.696      5.802
  Name = 
  5 active torsions:
  status: ('A' for Active; 'I' for Inactive)
    1  A    between atoms: C_3  and  C_25
    2  A    between atoms: C_7  and  C_11
    3  A    between atoms: C_7  and  C_29
    4  A    between atoms: C_8  and  S_18
    5  A    between atoms: S_18  and  C_30
                            x       y       z     vdW  Elec       q    Type
                         _______ _______ _______ _____ _____    ______ ____

>  <TORSDO>
F 5

$$$$
=
 OpenBabel11062409263D

 34 38  0  0  1  0  0  0  0  0999 V2000
  161.2940  204.4720  149.4050 C   0  0  0  0  0  0  0  0  0  0  0  0
  161.2230  200.7970  148.9210 C   0  0  0  0  0  3  0  0  0  0  0  0
  160.8260  202.0760  150.7780 N   0  0  0  0  0  2  0  0  0  0  0  0
  161.4490  206.8020  151.5610 C   0  0  0  0  0  0  0  0  0  0  0  0
  161.4210  205.5740  148.8050 O   0  0  0  0  0  0  0  0  0  0  0  0
  161.1390  205.4120  151.7170 N   0  0  0  0  0  0  0  0  0  0  0  0
  160.8310  204.8770  152.8940 N   0  0  0  0  0  0  0  0  0  0  0  0
  160.7460  207.6660  152.1480 O   0  0  0  0  0  0  0  0  0  0  0  0
  160.8690  203.2630  151.4220 C   0  0  0  0  0  0  0  0  0  0  0  0
  161.1630  204.4270  150.7950 C   0  0  0  0  0  0  0  0  0  0  0  0
  160.6590  203.5390  152.7530 C   0  0  0  0  0  3  0  0  0  0  0  0
  161.7720  200.4820  147.5730 C   0  0  0  0  0  2  0  0  0  0  0  0
  160.9300  201.0100  146.4700 C   0  0  0  0  0  0  0  0  0  0  0  0
  160.7080  202.3170  146.3530 C   0  0  0  0  0  3  0  0  0  0  0  0
  161.0490  202.0210  149.4310 C   0  0  0  0  0  0  0  0  0  0  0  0
  161.0500  203.3530  147.3440 C   0  0  0  0  0  3  0  0  0  0  0  0
  161.1910  203.2480  148.6830 C   0  0  0  0  0  0  0  0  0  0  0  0
  160.4850  200.0910  145.4080 C   0  0  0  0  0  0  0  0  0  0  0  0
  160.9190  198.7690  145.4050 O   0  0  0  0  0  1  0  0  0  0  0  0
  159.7070  200.4850  144.4990 O   0  0  0  0  0  0  0  0  0  0  0  0
  162.9160  207.3310  150.6740 S   0  0  0  0  0  0  0  0  0  0  0  0
  161.3020  211.0200  151.3640 C   0  0  0  0  0  3  0  0  0  0  0  0
  162.2390  209.5330  149.1400 C   0  0  0  0  0  3  0  0  0  0  0  0
  160.7940  212.7910  149.7750 N   0  0  0  0  0  0  0  0  0  0  0  0
  161.2630  211.5550  150.0770 C   0  0  0  0  0  0  0  0  0  0  0  0
  161.5540  211.7260  147.5970 S   0  0  0  0  0  0  0  0  0  0  0  0
  161.7250  210.8190  148.9970 C   0  0  0  0  0  0  0  0  0  0  0  0
  160.8780  213.0280  148.4430 C   0  0  0  0  0  0  0  0  0  0  0  0
  162.2770  208.9820  150.4310 C   0  0  0  0  0  0  0  0  0  0  0  0
  161.8140  209.7230  151.5360 C   0  0  0  0  0  3  0  0  0  0  0  0
  160.4780  214.3180  147.8040 C   0  0  1  0  0  3  0  0  0  0  0  0
  161.0460  214.4320  146.5330 O   0  0  0  0  0  1  0  0  0  0  0  0
  158.9630  214.4530  147.7270 C   0  0  0  0  0  2  0  0  0  0  0  0
  158.3710  213.2280  147.4100 O   0  0  0  0  0  1  0  0  0  0  0  0
  1 10  1  0  0  0  0
  2 15  2  0  0  0  0
  3  9  1  0  0  0  0
  4  6  1  0  0  0  0
  4  8  2  0  0  0  0
  5  1  2  0  0  0  0
  6  7  1  0  0  0  0
  9 11  1  0  0  0  0
 10  9  2  0  0  0  0
 10  6  1  0  0  0  0
 11  7  2  0  0  0  0
 12  2  1  0  0  0  0
 13 12  1  0  0  0  0
 14 13  2  0  0  0  0
 14 16  1  0  0  0  0
 15  3  1  0  0  0  0
 16 17  2  0  0  0  0
 17  1  1  0  0  0  0
 17 15  1  0  0  0  0
 18 13  1  0  0  0  0
 19 18  1  0  0  0  0
 20 18  2  0  0  0  0
 21  4  1  0  0  0  0
 22 30  1  0  0  0  0
 23 29  1  0  0  0  0
 24 25  1  0  0  0  0
 25 22  2  0  0  0  0
 26 28  1  0  0  0  0
 26 27  1  0  0  0  0
 27 23  2  0  0  0  0
 27 25  1  0  0  0  0
 28 24  2  0  0  0  0
 29 21  1  0  0  0  0
 29 30  2  0  0  0  0
 31 32  1  6  0  0  0
 31 28  1  0  0  0  0
 33 31  1  0  0  0  0
 34 33  1  0  0  0  0
M  END
>  <MODEL>
6

>  <REMARK>
 VINA RESULT:      -6.2      3.570      4.318
  Name = 
  5 active torsions:
  status: ('A' for Active; 'I' for Inactive)
    1  A    between atoms: C_3  and  C_25
    2  A    between atoms: C_7  and  C_11
    3  A    between atoms: C_7  and  C_29
    4  A    between atoms: C_8  and  S_18
    5  A    between atoms: S_18  and  C_30
                            x       y       z     vdW  Elec       q    Type
                         _______ _______ _______ _____ _____    ______ ____

>  <TORSDO>
F 5

$$$$
=
 OpenBabel11062409263D

 34 38  0  0  1  0  0  0  0  0999 V2000
  159.6150  211.4730  152.6650 C   0  0  0  0  0  0  0  0  0  0  0  0
  157.8880  214.3580  154.2250 C   0  0  0  0  0  3  0  0  0  0  0  0
  158.8990  214.1380  152.1840 N   0  0  0  0  0  2  0  0  0  0  0  0
  161.6190  210.5840  150.3630 C   0  0  0  0  0  0  0  0  0  0  0  0
  159.8870  210.2500  152.8120 O   0  0  0  0  0  0  0  0  0  0  0  0
  160.8890  211.8040  150.5380 N   0  0  0  0  0  0  0  0  0  0  0  0
  160.9510  212.8050  149.6670 N   0  0  0  0  0  0  0  0  0  0  0  0
  161.6560  210.0380  149.2290 O   0  0  0  0  0  0  0  0  0  0  0  0
  159.6890  213.4520  151.3280 C   0  0  0  0  0  0  0  0  0  0  0  0
  160.1090  212.1870  151.5710 C   0  0  0  0  0  0  0  0  0  0  0  0
  160.2210  213.8530  150.1240 C   0  0  0  0  0  3  0  0  0  0  0  0
  157.6060  214.0320  155.6510 C   0  0  0  0  0  2  0  0  0  0  0  0
  156.6490  212.9080  155.8070 C   0  0  0  0  0  0  0  0  0  0  0  0
  156.9360  211.7010  155.3240 C   0  0  0  0  0  3  0  0  0  0  0  0
  158.4590  213.5430  153.3320 C   0  0  0  0  0  0  0  0  0  0  0  0
  158.0610  211.3620  154.4340 C   0  0  0  0  0  3  0  0  0  0  0  0
  158.7270  212.1410  153.5550 C   0  0  0  0  0  0  0  0  0  0  0  0
  155.4560  213.0970  156.6500 C   0  0  0  0  0  0  0  0  0  0  0  0
  154.8360  211.9980  157.2370 O   0  0  0  0  0  1  0  0  0  0  0  0
  154.9880  214.2490  156.8550 O   0  0  0  0  0  0  0  0  0  0  0  0
  162.6140  209.9010  151.6910 S   0  0  0  0  0  0  0  0  0  0  0  0
  161.1660  206.1110  152.1760 C   0  0  0  0  0  3  0  0  0  0  0  0
  162.0980  207.7340  150.0470 C   0  0  0  0  0  3  0  0  0  0  0  0
  160.8260  204.3760  150.5040 N   0  0  0  0  0  0  0  0  0  0  0  0
  161.2110  205.6240  150.8690 C   0  0  0  0  0  0  0  0  0  0  0  0
  161.5960  205.5700  148.3970 S   0  0  0  0  0  0  0  0  0  0  0  0
  161.6670  206.4280  149.8360 C   0  0  0  0  0  0  0  0  0  0  0  0
  160.9900  204.1910  149.1710 C   0  0  0  0  0  0  0  0  0  0  0  0
  162.0630  208.2330  151.3590 C   0  0  0  0  0  0  0  0  0  0  0  0
  161.5970  207.4270  152.4160 C   0  0  0  0  0  3  0  0  0  0  0  0
  160.6160  202.9320  148.4570 C   0  0  1  0  0  3  0  0  0  0  0  0
  161.3590  202.7970  147.2820 O   0  0  0  0  0  1  0  0  0  0  0  0
  160.8010  201.7120  149.3500 C   0  0  0  0  0  2  0  0  0  0  0  0
  161.4170  200.6730  148.6480 O   0  0  0  0  0  1  0  0  0  0  0  0
  1  5  2  0  0  0  0
  1 17  1  0  0  0  0
  2 12  1  0  0  0  0
  3 15  1  0  0  0  0
  4  6  1  0  0  0  0
  4 21  1  0  0  0  0
  6 10  1  0  0  0  0
  7 11  2  0  0  0  0
  7  6  1  0  0  0  0
  8  4  2  0  0  0  0
  9 10  2  0  0  0  0
  9  3  1  0  0  0  0
 10  1  1  0  0  0  0
 11  9  1  0  0  0  0
 12 13  1  0  0  0  0
 13 18  1  0  0  0  0
 14 13  2  0  0  0  0
 15 17  1  0  0  0  0
 15  2  2  0  0  0  0
 16 14  1  0  0  0  0
 17 16  2  0  0  0  0
 18 20  2  0  0  0  0
 18 19  1  0  0  0  0
 22 30  1  0  0  0  0
 23 29  1  0  0  0  0
 24 25  1  0  0  0  0
 25 22  2  0  0  0  0
 26 28  1  0  0  0  0
 26 27  1  0  0  0  0
 27 23  2  0  0  0  0
 27 25  1  0  0  0  0
 28 24  2  0  0  0  0
 29 21  1  0  0  0  0
 29 30  2  0  0  0  0
 31 32  1  6  0  0  0
 31 28  1  0  0  0  0
 31 33  1  0  0  0  0
 34 33  1  0  0  0  0
M  END
>  <MODEL>
7

>  <REMARK>
 VINA RESULT:      -6.1      2.650     10.264
  Name = 
  5 active torsions:
  status: ('A' for Active; 'I' for Inactive)
    1  A    between atoms: C_3  and  C_25
    2  A    between atoms: C_7  and  C_11
    3  A    between atoms: C_7  and  C_29
    4  A    between atoms: C_8  and  S_18
    5  A    between atoms: S_18  and  C_30
                            x       y       z     vdW  Elec       q    Type
                         _______ _______ _______ _____ _____    ______ ____

>  <TORSDO>
F 5

$$$$
=
 OpenBabel11062409263D

 34 38  0  0  1  0  0  0  0  0999 V2000
  161.5270  203.5970  148.9310 C   0  0  0  0  0  0  0  0  0  0  0  0
  160.6910  202.3910  145.5260 C   0  0  0  0  0  3  0  0  0  0  0  0
  161.3950  204.4410  146.2630 N   0  0  0  0  0  2  0  0  0  0  0  0
  161.9550  206.1780  150.7360 C   0  0  0  0  0  0  0  0  0  0  0  0
  161.6730  203.2350  150.1300 O   0  0  0  0  0  0  0  0  0  0  0  0
  161.9150  206.0380  149.3110 N   0  0  0  0  0  0  0  0  0  0  0  0
  162.0850  207.0670  148.4880 N   0  0  0  0  0  0  0  0  0  0  0  0
  162.8510  206.8860  151.2670 O   0  0  0  0  0  0  0  0  0  0  0  0
  161.6480  205.3090  147.2670 C   0  0  0  0  0  0  0  0  0  0  0  0
  161.6470  204.9420  148.5720 C   0  0  0  0  0  0  0  0  0  0  0  0
  161.9220  206.6550  147.2050 C   0  0  0  0  0  3  0  0  0  0  0  0
  160.0780  201.0380  145.6360 C   0  0  0  0  0  2  0  0  0  0  0  0
  161.0210  200.0190  146.1620 C   0  0  0  0  0  0  0  0  0  0  0  0
  161.5570  200.1510  147.3720 C   0  0  0  0  0  3  0  0  0  0  0  0
  161.1620  203.1230  146.5410 C   0  0  0  0  0  0  0  0  0  0  0  0
  161.4830  201.3450  148.2330 C   0  0  0  0  0  3  0  0  0  0  0  0
  161.3240  202.6420  147.8930 C   0  0  0  0  0  0  0  0  0  0  0  0
  161.2230  198.7740  145.4010 C   0  0  0  0  0  0  0  0  0  0  0  0
  160.1280  198.0780  144.9000 O   0  0  0  0  0  0  0  0  0  0  0  0
  162.3830  198.3280  145.1900 O   0  0  0  0  0  1  0  0  0  0  0  0
  160.6610  205.4920  151.7720 S   0  0  0  0  0  0  0  0  0  0  0  0
  161.2090  207.6840  155.1770 C   0  0  0  0  0  3  0  0  0  0  0  0
  160.4070  208.1510  152.4980 C   0  0  0  0  0  3  0  0  0  0  0  0
  160.8860  210.0690  155.5310 N   0  0  0  0  0  0  0  0  0  0  0  0
  160.8670  208.9650  154.7440 C   0  0  0  0  0  0  0  0  0  0  0  0
  160.1400  210.8100  153.2180 S   0  0  0  0  0  0  0  0  0  0  0  0
  160.4770  209.1810  153.4310 C   0  0  0  0  0  0  0  0  0  0  0  0
  160.4980  211.1650  154.8330 C   0  0  0  0  0  0  0  0  0  0  0  0
  160.7430  206.8560  152.9240 C   0  0  0  0  0  0  0  0  0  0  0  0
  161.1450  206.6250  154.2550 C   0  0  0  0  0  3  0  0  0  0  0  0
  160.4550  212.5420  155.4120 C   0  0  1  0  0  3  0  0  0  0  0  0
  159.4920  213.3160  154.7620 O   0  0  0  0  0  1  0  0  0  0  0  0
  160.1890  212.5060  156.9110 C   0  0  0  0  0  2  0  0  0  0  0  0
  158.8730  212.1190  157.1720 O   0  0  0  0  0  1  0  0  0  0  0  0
  1  5  2  0  0  0  0
  2 12  1  0  0  0  0
  2 15  2  0  0  0  0
  3 15  1  0  0  0  0
  3  9  1  0  0  0  0
  4  8  2  0  0  0  0
  4 21  1  0  0  0  0
  6  4  1  0  0  0  0
  7  6  1  0  0  0  0
  9 10  2  0  0  0  0
 10  1  1  0  0  0  0
 10  6  1  0  0  0  0
 11  9  1  0  0  0  0
 11  7  2  0  0  0  0
 12 13  1  0  0  0  0
 13 14  2  0  0  0  0
 14 16  1  0  0  0  0
 15 17  1  0  0  0  0
 17 16  2  0  0  0  0
 17  1  1  0  0  0  0
 18 13  1  0  0  0  0
 19 18  2  0  0  0  0
 20 18  1  0  0  0  0
 21 29  1  0  0  0  0
 23 29  2  0  0  0  0
 23 27  1  0  0  0  0
 25 22  1  0  0  0  0
 25 24  1  0  0  0  0
 26 27  1  0  0  0  0
 26 28  1  0  0  0  0
 27 25  2  0  0  0  0
 28 31  1  0  0  0  0
 28 24  2  0  0  0  0
 29 30  1  0  0  0  0
 30 22  2  0  0  0  0
 31 32  1  6  0  0  0
 31 33  1  0  0  0  0
 33 34  1  0  0  0  0
M  END
>  <MODEL>
8

>  <REMARK>
 VINA RESULT:      -6.1      3.017      4.249
  Name = 
  5 active torsions:
  status: ('A' for Active; 'I' for Inactive)
    1  A    between atoms: C_3  and  C_25
    2  A    between atoms: C_7  and  C_11
    3  A    between atoms: C_7  and  C_29
    4  A    between atoms: C_8  and  S_18
    5  A    between atoms: S_18  and  C_30
                            x       y       z     vdW  Elec       q    Type
                         _______ _______ _______ _____ _____    ______ ____

>  <TORSDO>
F 5

$$$$
=
 OpenBabel11062409263D

 34 38  0  0  1  0  0  0  0  0999 V2000
  161.4250  209.0090  149.8850 C   0  0  0  0  0  0  0  0  0  0  0  0
  161.4380  206.1820  152.2820 C   0  0  0  0  0  3  0  0  0  0  0  0
  160.9470  208.3980  152.5760 N   0  0  0  0  0  2  0  0  0  0  0  0
  161.4550  212.1760  149.6080 C   0  0  0  0  0  0  0  0  0  0  0  0
  161.5560  209.3110  148.6670 O   0  0  0  0  0  0  0  0  0  0  0  0
  161.1640  211.3460  150.7380 N   0  0  0  0  0  0  0  0  0  0  0  0
  160.8200  211.8450  151.9220 N   0  0  0  0  0  0  0  0  0  0  0  0
  160.7140  213.1620  149.3530 O   0  0  0  0  0  0  0  0  0  0  0  0
  160.9430  209.6730  152.1290 C   0  0  0  0  0  0  0  0  0  0  0  0
  161.2410  210.0030  150.8500 C   0  0  0  0  0  0  0  0  0  0  0  0
  160.6770  210.8350  152.8160 C   0  0  0  0  0  3  0  0  0  0  0  0
  162.0450  204.9950  151.6170 C   0  0  0  0  0  2  0  0  0  0  0  0
  161.2370  204.4990  150.4740 C   0  0  0  0  0  0  0  0  0  0  0  0
  160.9970  205.2810  149.4240 C   0  0  0  0  0  3  0  0  0  0  0  0
  161.2230  207.3730  151.7150 C   0  0  0  0  0  0  0  0  0  0  0  0
  161.2810  206.7240  149.3270 C   0  0  0  0  0  3  0  0  0  0  0  0
  161.3720  207.6500  150.3050 C   0  0  0  0  0  0  0  0  0  0  0  0
  160.8500  203.0780  150.4360 C   0  0  0  0  0  0  0  0  0  0  0  0
  160.4850  202.4880  149.2300 O   0  0  0  0  0  0  0  0  0  0  0  0
  160.8490  202.3820  151.4870 O   0  0  0  0  0  1  0  0  0  0  0  0
  162.9450  211.9340  148.6390 S   0  0  0  0  0  0  0  0  0  0  0  0
  160.0850  212.4180  145.7620 C   0  0  0  0  0  3  0  0  0  0  0  0
  162.8510  212.9600  146.0700 C   0  0  0  0  0  3  0  0  0  0  0  0
  160.3020  213.3650  143.5310 N   0  0  0  0  0  0  0  0  0  0  0  0
  160.8200  213.0060  144.7320 C   0  0  0  0  0  0  0  0  0  0  0  0
  162.7680  213.9770  143.4980 S   0  0  0  0  0  0  0  0  0  0  0  0
  162.1710  213.2680  144.8950 C   0  0  0  0  0  0  0  0  0  0  0  0
  161.2580  213.9050  142.7360 C   0  0  0  0  0  0  0  0  0  0  0  0
  162.1230  212.3610  147.1110 C   0  0  0  0  0  0  0  0  0  0  0  0
  160.7480  212.0950  146.9580 C   0  0  0  0  0  3  0  0  0  0  0  0
  160.9910  214.4360  141.3650 C   0  0  1  0  0  3  0  0  0  0  0  0
  162.1050  214.2500  140.5430 O   0  0  0  0  0  1  0  0  0  0  0  0
  159.7580  213.7880  140.7490 C   0  0  0  0  0  2  0  0  0  0  0  0
  160.1110  212.6640  139.9990 O   0  0  0  0  0  1  0  0  0  0  0  0
  1 17  1  0  0  0  0
  1 10  1  0  0  0  0
  4  6  1  0  0  0  0
  5  1  2  0  0  0  0
  6 10  1  0  0  0  0
  6  7  1  0  0  0  0
  7 11  2  0  0  0  0
  8  4  2  0  0  0  0
  9  3  1  0  0  0  0
  9 11  1  0  0  0  0
 10  9  2  0  0  0  0
 12  2  1  0  0  0  0
 13 12  1  0  0  0  0
 14 13  2  0  0  0  0
 15  2  2  0  0  0  0
 15  3  1  0  0  0  0
 16 14  1  0  0  0  0
 16 17  2  0  0  0  0
 17 15  1  0  0  0  0
 18 13  1  0  0  0  0
 18 20  1  0  0  0  0
 19 18  2  0  0  0  0
 21  4  1  0  0  0  0
 22 30  1  0  0  0  0
 23 29  1  0  0  0  0
 24 25  1  0  0  0  0
 25 27  1  0  0  0  0
 25 22  2  0  0  0  0
 26 27  1  0  0  0  0
 27 23  2  0  0  0  0
 28 26  1  0  0  0  0
 28 24  2  0  0  0  0
 29 21  1  0  0  0  0
 30 29  2  0  0  0  0
 31 32  1  6  0  0  0
 31 28  1  0  0  0  0
 33 31  1  0  0  0  0
 34 33  1  0  0  0  0
M  END
>  <MODEL>
9

>  <REMARK>
 VINA RESULT:      -5.9      5.675      8.063
  Name = 
  5 active torsions:
  status: ('A' for Active; 'I' for Inactive)
    1  A    between atoms: C_3  and  C_25
    2  A    between atoms: C_7  and  C_11
    3  A    between atoms: C_7  and  C_29
    4  A    between atoms: C_8  and  S_18
    5  A    between atoms: S_18  and  C_30
                            x       y       z     vdW  Elec       q    Type
                         _______ _______ _______ _____ _____    ______ ____

>  <TORSDO>
F 5

$$$$
