=
 OpenBabel11062409473D

 34 39  0  0  0  0  0  0  0  0999 V2000
  159.7830  210.6910  154.2190 C   0  0  0  0  0  0  0  0  0  0  0  0
  157.5800  211.7550  157.2610 C   0  0  0  0  0  2  0  0  0  0  0  0
  160.0730  211.4990  156.9410 C   0  0  0  0  0  3  0  0  0  0  0  0
  161.1800  209.7290  152.4120 C   0  0  0  0  0  0  0  0  0  0  0  0
  159.8440  210.0530  153.0390 C   0  0  0  0  0  3  0  0  0  0  0  0
  162.2500  210.6220  154.3870 C   0  0  0  0  0  0  0  0  0  0  0  0
  163.1410  210.7000  155.3820 C   0  0  0  0  0  3  0  0  0  0  0  0
  162.3370  209.9670  153.0780 C   0  0  0  0  0  3  0  0  0  0  0  0
  161.1450  211.3190  156.1700 C   0  0  0  0  0  0  0  0  0  0  0  0
  161.0010  211.0690  154.8140 N   0  0  0  0  0  0  0  0  0  0  0  0
  162.4800  211.1880  156.5330 O   0  0  0  0  0  0  0  0  0  0  0  0
  156.1540  211.5700  156.7540 C   0  0  0  0  0  2  0  0  0  0  0  0
  155.9130  212.4300  155.5960 N   0  0  0  0  0  0  0  0  0  0  0  0
  156.4220  212.0320  154.2820 C   0  0  0  0  0  2  0  0  0  0  0  0
  158.7080  211.3860  156.3200 C   0  0  0  0  0  0  0  0  0  0  0  0
  157.2280  210.7410  154.3530 C   0  0  0  0  0  2  0  0  0  0  0  0
  158.5580  210.9660  155.0130 C   0  0  0  0  0  0  0  0  0  0  0  0
  160.7170  205.3880  151.4990 C   0  0  0  0  0  3  0  0  0  0  0  0
  161.4400  207.2490  149.5810 N   0  0  0  0  0  0  0  0  0  0  0  0
  161.1950  203.2240  148.5300 C   0  0  0  0  0  0  0  0  0  0  0  0
  160.9140  203.6270  149.8440 C   0  0  0  0  0  3  0  0  0  0  0  0
  160.9960  204.9750  150.1980 C   0  0  0  0  0  0  0  0  0  0  0  0
  161.2660  209.0810  151.1350 N   0  0  0  0  0  2  0  0  0  0  0  0
  161.6410  205.5380  147.9250 C   0  0  0  0  0  3  0  0  0  0  0  0
  161.3610  205.9380  149.2330 C   0  0  0  0  0  0  0  0  0  0  0  0
  161.5570  204.1870  147.5750 C   0  0  0  0  0  3  0  0  0  0  0  0
  161.1800  207.6760  150.8490 C   0  0  0  0  0  0  0  0  0  0  0  0
  160.8070  206.7420  151.8260 C   0  0  0  0  0  3  0  0  0  0  0  0
  161.1070  201.8020  148.1610 C   0  0  0  0  0  0  0  0  0  0  0  0
  161.2140  200.9060  149.0400 O   0  0  0  0  0  1  0  0  0  0  0  0
  160.9040  201.4350  146.8360 O   0  0  0  0  0  0  0  0  0  0  0  0
  155.2270  213.6890  155.7430 C   0  0  0  0  0  0  0  0  0  0  0  0
  154.9150  214.3240  157.2230 S   0  0  0  0  0  0  0  0  0  0  0  0
  154.7710  214.4530  154.5460 C   0  0  0  0  0  1  0  0  0  0  0  0
  1 10  1  0  0  0  0
  1 17  1  0  0  0  0
  4  5  1  0  0  0  0
  4  8  2  0  0  0  0
  5  1  2  0  0  0  0
  6 10  1  0  0  0  0
  6  7  2  0  0  0  0
  7 11  1  0  0  0  0
  8  6  1  0  0  0  0
  9 11  1  0  0  0  0
  9  3  2  0  0  0  0
 10  9  1  0  0  0  0
 12  2  1  0  0  0  0
 13 32  1  0  0  0  0
 13 12  1  0  0  0  0
 14 16  1  0  0  0  0
 14 13  1  0  0  0  0
 15  3  1  0  0  0  0
 15  2  1  0  0  0  0
 16 17  1  0  0  0  0
 17 15  2  0  0  0  0
 18 28  2  0  0  0  0
 19 27  2  0  0  0  0
 20 21  1  0  0  0  0
 21 22  2  0  0  0  0
 22 18  1  0  0  0  0
 23  4  1  0  0  0  0
 24 25  2  0  0  0  0
 25 19  1  0  0  0  0
 25 22  1  0  0  0  0
 26 24  1  0  0  0  0
 26 20  2  0  0  0  0
 27 23  1  0  0  0  0
 27 28  1  0  0  0  0
 29 20  1  0  0  0  0
 29 30  1  0  0  0  0
 31 29  2  0  0  0  0
 32 33  2  0  0  0  0
 34 32  1  0  0  0  0
M  END
>  <MODEL>
1

>  <REMARK>
 VINA RESULT:      -8.7      0.000      0.000
  Name = 
  3 active torsions:
  status: ('A' for Active; 'I' for Inactive)
    1  A    between atoms: C_3  and  N_25
    2  A    between atoms: C_7  and  C_11
    3  A    between atoms: C_8  and  N_18
                            x       y       z     vdW  Elec       q    Type
                         _______ _______ _______ _____ _____    ______ ____

>  <TORSDO>
F 3

$$$$
=
 OpenBabel11062409473D

 34 39  0  0  0  0  0  0  0  0999 V2000
  159.6480  210.3390  155.5020 C   0  0  0  0  0  0  0  0  0  0  0  0
  157.4210  213.3550  156.5890 C   0  0  0  0  0  2  0  0  0  0  0  0
  159.8590  212.7940  156.9420 C   0  0  0  0  0  3  0  0  0  0  0  0
  161.0060  208.3060  155.0940 C   0  0  0  0  0  0  0  0  0  0  0  0
  159.6950  209.0570  155.1040 C   0  0  0  0  0  3  0  0  0  0  0  0
  162.0540  210.2530  156.0710 C   0  0  0  0  0  0  0  0  0  0  0  0
  162.8700  210.9460  156.8740 C   0  0  0  0  0  3  0  0  0  0  0  0
  162.1330  208.8680  155.5960 C   0  0  0  0  0  3  0  0  0  0  0  0
  160.9430  212.0620  156.6890 C   0  0  0  0  0  0  0  0  0  0  0  0
  160.8630  210.9470  155.8680 N   0  0  0  0  0  0  0  0  0  0  0  0
  162.2100  212.1370  157.2560 O   0  0  0  0  0  0  0  0  0  0  0  0
  156.0260  212.9590  156.1200 C   0  0  0  0  0  2  0  0  0  0  0  0
  156.0100  212.7820  154.6690 N   0  0  0  0  0  0  0  0  0  0  0  0
  156.5460  211.5500  154.0850 C   0  0  0  0  0  2  0  0  0  0  0  0
  158.5440  212.3660  156.3530 C   0  0  0  0  0  0  0  0  0  0  0  0
  157.1310  210.6260  155.1460 C   0  0  0  0  0  2  0  0  0  0  0  0
  158.4270  211.1650  155.6810 C   0  0  0  0  0  0  0  0  0  0  0  0
  161.2760  206.8270  150.8950 C   0  0  0  0  0  3  0  0  0  0  0  0
  161.0280  205.1260  153.0650 N   0  0  0  0  0  0  0  0  0  0  0  0
  161.1320  203.5260  149.2180 C   0  0  0  0  0  0  0  0  0  0  0  0
  161.2210  204.9130  149.4070 C   0  0  0  0  0  3  0  0  0  0  0  0
  161.1860  205.4510  150.6950 C   0  0  0  0  0  0  0  0  0  0  0  0
  161.0830  206.9480  154.6390 N   0  0  0  0  0  2  0  0  0  0  0  0
  160.9740  203.2180  151.6270 C   0  0  0  0  0  3  0  0  0  0  0  0
  161.0620  204.5990  151.8130 C   0  0  0  0  0  0  0  0  0  0  0  0
  161.0100  202.6840  150.3350 C   0  0  0  0  0  3  0  0  0  0  0  0
  161.1060  206.4680  153.2850 C   0  0  0  0  0  0  0  0  0  0  0  0
  161.2380  207.3380  152.1930 C   0  0  0  0  0  3  0  0  0  0  0  0
  161.1700  202.9630  147.8590 C   0  0  0  0  0  0  0  0  0  0  0  0
  161.6000  203.6510  146.8940 O   0  0  0  0  0  0  0  0  0  0  0  0
  160.7310  201.6650  147.6270 O   0  0  0  0  0  1  0  0  0  0  0  0
  155.5230  213.8270  153.8040 C   0  0  0  0  0  0  0  0  0  0  0  0
  156.4130  214.3720  152.5380 S   0  0  0  0  0  0  0  0  0  0  0  0
  154.1900  214.4530  154.0400 C   0  0  0  0  0  1  0  0  0  0  0  0
  1 17  1  0  0  0  0
  1 10  1  0  0  0  0
  4  5  1  0  0  0  0
  4  8  2  0  0  0  0
  5  1  2  0  0  0  0
  6  7  2  0  0  0  0
  7 11  1  0  0  0  0
  8  6  1  0  0  0  0
  9  3  2  0  0  0  0
  9 11  1  0  0  0  0
 10  6  1  0  0  0  0
 10  9  1  0  0  0  0
 12  2  1  0  0  0  0
 13 12  1  0  0  0  0
 14 13  1  0  0  0  0
 14 16  1  0  0  0  0
 15  2  1  0  0  0  0
 15  3  1  0  0  0  0
 16 17  1  0  0  0  0
 17 15  2  0  0  0  0
 18 28  2  0  0  0  0
 19 27  2  0  0  0  0
 20 21  2  0  0  0  0
 20 26  1  0  0  0  0
 21 22  1  0  0  0  0
 22 18  1  0  0  0  0
 22 25  2  0  0  0  0
 23  4  1  0  0  0  0
 24 25  1  0  0  0  0
 25 19  1  0  0  0  0
 26 24  2  0  0  0  0
 27 23  1  0  0  0  0
 28 27  1  0  0  0  0
 29 20  1  0  0  0  0
 30 29  2  0  0  0  0
 31 29  1  0  0  0  0
 32 34  1  0  0  0  0
 32 13  1  0  0  0  0
 33 32  2  0  0  0  0
M  END
>  <MODEL>
2

>  <REMARK>
 VINA RESULT:      -8.7      1.811      2.250
  Name = 
  3 active torsions:
  status: ('A' for Active; 'I' for Inactive)
    1  A    between atoms: C_3  and  N_25
    2  A    between atoms: C_7  and  C_11
    3  A    between atoms: C_8  and  N_18
                            x       y       z     vdW  Elec       q    Type
                         _______ _______ _______ _____ _____    ______ ____

>  <TORSDO>
F 3

$$$$
=
 OpenBabel11062409473D

 34 39  0  0  0  0  0  0  0  0999 V2000
  161.1100  209.1740  152.0990 C   0  0  0  0  0  0  0  0  0  0  0  0
  160.5040  212.7960  150.7730 C   0  0  0  0  0  2  0  0  0  0  0  0
  160.5490  211.7910  153.0910 C   0  0  0  0  0  3  0  0  0  0  0  0
  161.1850  206.8470  152.9470 C   0  0  0  0  0  0  0  0  0  0  0  0
  161.1090  207.8590  151.8280 C   0  0  0  0  0  3  0  0  0  0  0  0
  161.0890  208.6770  154.5230 C   0  0  0  0  0  0  0  0  0  0  0  0
  160.7290  209.3390  155.6290 C   0  0  0  0  0  3  0  0  0  0  0  0
  161.1360  207.2390  154.2440 C   0  0  0  0  0  3  0  0  0  0  0  0
  160.8070  210.7890  153.9310 C   0  0  0  0  0  0  0  0  0  0  0  0
  161.2200  209.5570  153.4480 N   0  0  0  0  0  0  0  0  0  0  0  0
  160.5830  210.7070  155.3010 O   0  0  0  0  0  0  0  0  0  0  0  0
  160.5130  212.6300  149.2590 C   0  0  0  0  0  2  0  0  0  0  0  0
  161.8050  212.1100  148.8130 N   0  0  0  0  0  0  0  0  0  0  0  0
  162.1000  210.6830  148.9620 C   0  0  0  0  0  2  0  0  0  0  0  0
  160.6780  211.5470  151.6130 C   0  0  0  0  0  0  0  0  0  0  0  0
  160.9690  209.9400  149.6620 C   0  0  0  0  0  2  0  0  0  0  0  0
  160.9190  210.2780  151.1240 C   0  0  0  0  0  0  0  0  0  0  0  0
  161.2680  204.8120  148.9780 C   0  0  0  0  0  3  0  0  0  0  0  0
  161.0760  203.4240  151.3660 N   0  0  0  0  0  0  0  0  0  0  0  0
  161.0030  201.3210  147.7680 C   0  0  0  0  0  0  0  0  0  0  0  0
  161.1230  202.7180  147.7650 C   0  0  0  0  0  3  0  0  0  0  0  0
  161.1470  203.4240  148.9690 C   0  0  0  0  0  0  0  0  0  0  0  0
  161.2220  205.4380  152.6760 N   0  0  0  0  0  2  0  0  0  0  0  0
  160.9340  201.3420  150.2010 C   0  0  0  0  0  3  0  0  0  0  0  0
  161.0520  202.7330  150.1950 C   0  0  0  0  0  0  0  0  0  0  0  0
  160.9100  200.6390  148.9920 C   0  0  0  0  0  3  0  0  0  0  0  0
  161.1840  204.7810  151.4000 C   0  0  0  0  0  0  0  0  0  0  0  0
  161.2890  205.4940  150.1960 C   0  0  0  0  0  3  0  0  0  0  0  0
  160.9790  200.5790  146.4970 C   0  0  0  0  0  0  0  0  0  0  0  0
  161.5230  199.4460  146.4080 O   0  0  0  0  0  1  0  0  0  0  0  0
  160.3530  201.1230  145.3810 O   0  0  0  0  0  0  0  0  0  0  0  0
  162.8100  212.9930  148.2790 C   0  0  0  0  0  0  0  0  0  0  0  0
  162.4140  214.4530  147.6430 S   0  0  0  0  0  0  0  0  0  0  0  0
  164.2490  212.6020  148.2820 C   0  0  0  0  0  1  0  0  0  0  0  0
  1 10  1  0  0  0  0
  2 15  1  0  0  0  0
  3  9  2  0  0  0  0
  4  8  2  0  0  0  0
  5  1  2  0  0  0  0
  5  4  1  0  0  0  0
  6  7  2  0  0  0  0
  8  6  1  0  0  0  0
  9 11  1  0  0  0  0
 10  9  1  0  0  0  0
 10  6  1  0  0  0  0
 11  7  1  0  0  0  0
 12  2  1  0  0  0  0
 13 14  1  0  0  0  0
 13 12  1  0  0  0  0
 14 16  1  0  0  0  0
 15  3  1  0  0  0  0
 16 17  1  0  0  0  0
 17 15  2  0  0  0  0
 17  1  1  0  0  0  0
 18 28  2  0  0  0  0
 19 27  2  0  0  0  0
 20 26  1  0  0  0  0
 21 20  2  0  0  0  0
 21 22  1  0  0  0  0
 22 18  1  0  0  0  0
 22 25  2  0  0  0  0
 23  4  1  0  0  0  0
 25 24  1  0  0  0  0
 25 19  1  0  0  0  0
 26 24  2  0  0  0  0
 27 23  1  0  0  0  0
 28 27  1  0  0  0  0
 29 20  1  0  0  0  0
 30 29  1  0  0  0  0
 31 29  2  0  0  0  0
 32 34  1  0  0  0  0
 32 13  1  0  0  0  0
 33 32  2  0  0  0  0
M  END
>  <MODEL>
3

>  <REMARK>
 VINA RESULT:      -7.1      3.599      5.314
  Name = 
  3 active torsions:
  status: ('A' for Active; 'I' for Inactive)
    1  A    between atoms: C_3  and  N_25
    2  A    between atoms: C_7  and  C_11
    3  A    between atoms: C_8  and  N_18
                            x       y       z     vdW  Elec       q    Type
                         _______ _______ _______ _____ _____    ______ ____

>  <TORSDO>
F 3

$$$$
=
 OpenBabel11062409473D

 34 39  0  0  0  0  0  0  0  0999 V2000
  160.3260  209.8160  154.5120 C   0  0  0  0  0  0  0  0  0  0  0  0
  158.4640  213.2460  154.5520 C   0  0  0  0  0  2  0  0  0  0  0  0
  160.3400  212.2840  155.9440 C   0  0  0  0  0  3  0  0  0  0  0  0
  161.3120  207.5510  154.7120 C   0  0  0  0  0  0  0  0  0  0  0  0
  160.3000  208.5220  154.1510 C   0  0  0  0  0  3  0  0  0  0  0  0
  162.1690  209.3400  156.0930 C   0  0  0  0  0  0  0  0  0  0  0  0
  162.6610  209.9300  157.1900 C   0  0  0  0  0  3  0  0  0  0  0  0
  162.1860  207.9350  155.6760 C   0  0  0  0  0  3  0  0  0  0  0  0
  161.2640  211.3560  156.1870 C   0  0  0  0  0  0  0  0  0  0  0  0
  161.3450  210.2210  155.3940 N   0  0  0  0  0  0  0  0  0  0  0  0
  162.1400  211.2420  157.2610 O   0  0  0  0  0  0  0  0  0  0  0  0
  157.3720  213.0750  153.5030 C   0  0  0  0  0  2  0  0  0  0  0  0
  157.9660  212.8070  152.1930 N   0  0  0  0  0  0  0  0  0  0  0  0
  158.4610  211.4630  151.8850 C   0  0  0  0  0  2  0  0  0  0  0  0
  159.3650  212.0590  154.8220 C   0  0  0  0  0  0  0  0  0  0  0  0
  158.3300  210.5230  153.0770 C   0  0  0  0  0  2  0  0  0  0  0  0
  159.3320  210.8560  154.1450 C   0  0  0  0  0  0  0  0  0  0  0  0
  161.3690  205.8920  150.5720 C   0  0  0  0  0  3  0  0  0  0  0  0
  161.1450  204.2920  152.8200 N   0  0  0  0  0  0  0  0  0  0  0  0
  161.0440  202.5340  149.0430 C   0  0  0  0  0  0  0  0  0  0  0  0
  161.1890  203.9230  149.1690 C   0  0  0  0  0  3  0  0  0  0  0  0
  161.2220  204.5140  150.4340 C   0  0  0  0  0  0  0  0  0  0  0  0
  161.3240  206.1730  154.3120 N   0  0  0  0  0  2  0  0  0  0  0  0
  160.9680  202.3300  151.4660 C   0  0  0  0  0  3  0  0  0  0  0  0
  161.1120  203.7130  151.5900 C   0  0  0  0  0  0  0  0  0  0  0  0
  160.9350  201.7430  150.1980 C   0  0  0  0  0  3  0  0  0  0  0  0
  161.2780  205.6380  152.9800 C   0  0  0  0  0  0  0  0  0  0  0  0
  161.3990  206.4580  151.8480 C   0  0  0  0  0  3  0  0  0  0  0  0
  161.0100  201.9150  147.7080 C   0  0  0  0  0  0  0  0  0  0  0  0
  160.8740  202.6260  146.6770 O   0  0  0  0  0  0  0  0  0  0  0  0
  161.1280  200.5360  147.5730 O   0  0  0  0  0  1  0  0  0  0  0  0
  158.1180  213.8610  151.2230 C   0  0  0  0  0  0  0  0  0  0  0  0
  156.8300  214.4530  150.3960 S   0  0  0  0  0  0  0  0  0  0  0  0
  159.4590  214.4460  150.9340 C   0  0  0  0  0  1  0  0  0  0  0  0
  1 10  1  0  0  0  0
  2 15  1  0  0  0  0
  3  9  2  0  0  0  0
  4  8  2  0  0  0  0
  5  1  2  0  0  0  0
  5  4  1  0  0  0  0
  6  7  2  0  0  0  0
  7 11  1  0  0  0  0
  8  6  1  0  0  0  0
  9 11  1  0  0  0  0
 10  6  1  0  0  0  0
 10  9  1  0  0  0  0
 12  2  1  0  0  0  0
 13 12  1  0  0  0  0
 14 13  1  0  0  0  0
 14 16  1  0  0  0  0
 15  3  1  0  0  0  0
 16 17  1  0  0  0  0
 17  1  1  0  0  0  0
 17 15  2  0  0  0  0
 18 28  2  0  0  0  0
 19 27  2  0  0  0  0
 20 21  2  0  0  0  0
 20 26  1  0  0  0  0
 21 22  1  0  0  0  0
 22 18  1  0  0  0  0
 22 25  2  0  0  0  0
 23  4  1  0  0  0  0
 24 25  1  0  0  0  0
 25 19  1  0  0  0  0
 26 24  2  0  0  0  0
 27 23  1  0  0  0  0
 28 27  1  0  0  0  0
 29 20  1  0  0  0  0
 30 29  2  0  0  0  0
 31 29  1  0  0  0  0
 32 13  1  0  0  0  0
 33 32  2  0  0  0  0
 34 32  1  0  0  0  0
M  END
>  <MODEL>
4

>  <REMARK>
 VINA RESULT:      -7.0      2.515      3.059
  Name = 
  3 active torsions:
  status: ('A' for Active; 'I' for Inactive)
    1  A    between atoms: C_3  and  N_25
    2  A    between atoms: C_7  and  C_11
    3  A    between atoms: C_8  and  N_18
                            x       y       z     vdW  Elec       q    Type
                         _______ _______ _______ _____ _____    ______ ____

>  <TORSDO>
F 3

$$$$
=
 OpenBabel11062409473D

 34 39  0  0  0  0  0  0  0  0999 V2000
  160.8780  210.4500  151.8070 C   0  0  0  0  0  0  0  0  0  0  0  0
  160.0610  213.7820  149.9460 C   0  0  0  0  0  2  0  0  0  0  0  0
  159.9440  213.0870  152.3720 C   0  0  0  0  0  3  0  0  0  0  0  0
  161.0930  208.2700  152.9670 C   0  0  0  0  0  0  0  0  0  0  0  0
  161.0420  209.1200  151.7180 C   0  0  0  0  0  3  0  0  0  0  0  0
  160.6310  210.2590  154.2610 C   0  0  0  0  0  0  0  0  0  0  0  0
  160.0830  211.0080  155.2250 C   0  0  0  0  0  3  0  0  0  0  0  0
  160.8560  208.8120  154.1870 C   0  0  0  0  0  3  0  0  0  0  0  0
  160.2050  212.2340  153.3620 C   0  0  0  0  0  0  0  0  0  0  0  0
  160.7940  211.0070  153.0950 N   0  0  0  0  0  0  0  0  0  0  0  0
  159.8360  212.2980  154.7010 O   0  0  0  0  0  0  0  0  0  0  0  0
  160.2600  213.4320  148.4760 C   0  0  0  0  0  2  0  0  0  0  0  0
  161.6400  213.0140  148.2370 N   0  0  0  0  0  0  0  0  0  0  0  0
  162.0600  211.6600  148.6070 C   0  0  0  0  0  2  0  0  0  0  0  0
  160.2640  212.6770  150.9610 C   0  0  0  0  0  0  0  0  0  0  0  0
  160.9380  210.8830  149.2860 C   0  0  0  0  0  2  0  0  0  0  0  0
  160.6880  211.3940  150.6760 C   0  0  0  0  0  0  0  0  0  0  0  0
  160.9920  205.6540  149.3560 C   0  0  0  0  0  3  0  0  0  0  0  0
  161.2970  204.6530  151.9180 N   0  0  0  0  0  0  0  0  0  0  0  0
  161.0980  202.0090  148.7020 C   0  0  0  0  0  0  0  0  0  0  0  0
  161.0100  203.3920  148.4840 C   0  0  0  0  0  3  0  0  0  0  0  0
  161.0760  204.2790  149.5610 C   0  0  0  0  0  0  0  0  0  0  0  0
  161.3030  206.8530  152.8960 N   0  0  0  0  0  2  0  0  0  0  0  0
  161.3220  202.4100  151.0920 C   0  0  0  0  0  3  0  0  0  0  0  0
  161.2330  203.7860  150.8730 C   0  0  0  0  0  0  0  0  0  0  0  0
  161.2560  201.5260  150.0110 C   0  0  0  0  0  3  0  0  0  0  0  0
  161.2080  206.0010  151.7440 C   0  0  0  0  0  0  0  0  0  0  0  0
  161.0600  206.5190  150.4490 C   0  0  0  0  0  3  0  0  0  0  0  0
  161.0290  201.0770  147.5650 C   0  0  0  0  0  0  0  0  0  0  0  0
  161.4610  199.8990  147.6780 O   0  0  0  0  0  1  0  0  0  0  0  0
  160.4850  201.4890  146.3550 O   0  0  0  0  0  0  0  0  0  0  0  0
  162.6050  213.9340  147.6900 C   0  0  0  0  0  0  0  0  0  0  0  0
  162.5160  214.4390  146.1320 S   0  0  0  0  0  0  0  0  0  0  0  0
  163.7250  214.4530  148.5270 C   0  0  0  0  0  1  0  0  0  0  0  0
  1 10  1  0  0  0  0
  2 15  1  0  0  0  0
  3  9  2  0  0  0  0
  4  8  2  0  0  0  0
  5  1  2  0  0  0  0
  5  4  1  0  0  0  0
  6  7  2  0  0  0  0
  8  6  1  0  0  0  0
  9 11  1  0  0  0  0
 10  9  1  0  0  0  0
 10  6  1  0  0  0  0
 11  7  1  0  0  0  0
 12  2  1  0  0  0  0
 13 12  1  0  0  0  0
 13 14  1  0  0  0  0
 14 16  1  0  0  0  0
 15  3  1  0  0  0  0
 16 17  1  0  0  0  0
 17 15  2  0  0  0  0
 17  1  1  0  0  0  0
 18 22  1  0  0  0  0
 18 28  2  0  0  0  0
 20 26  1  0  0  0  0
 21 20  2  0  0  0  0
 21 22  1  0  0  0  0
 22 25  2  0  0  0  0
 23  4  1  0  0  0  0
 25 24  1  0  0  0  0
 25 19  1  0  0  0  0
 26 24  2  0  0  0  0
 27 19  2  0  0  0  0
 27 23  1  0  0  0  0
 28 27  1  0  0  0  0
 29 30  1  0  0  0  0
 29 20  1  0  0  0  0
 31 29  2  0  0  0  0
 32 13  1  0  0  0  0
 32 34  1  0  0  0  0
 33 32  2  0  0  0  0
M  END
>  <MODEL>
5

>  <REMARK>
 VINA RESULT:      -7.0      3.693      5.353
  Name = 
  3 active torsions:
  status: ('A' for Active; 'I' for Inactive)
    1  A    between atoms: C_3  and  N_25
    2  A    between atoms: C_7  and  C_11
    3  A    between atoms: C_8  and  N_18
                            x       y       z     vdW  Elec       q    Type
                         _______ _______ _______ _____ _____    ______ ____

>  <TORSDO>
F 3

$$$$
=
 OpenBabel11062409473D

 34 39  0  0  0  0  0  0  0  0999 V2000
  160.4420  209.3790  152.9780 C   0  0  0  0  0  0  0  0  0  0  0  0
  159.8570  212.5850  155.1260 C   0  0  0  0  0  2  0  0  0  0  0  0
  160.7880  212.2060  152.8080 C   0  0  0  0  0  3  0  0  0  0  0  0
  161.1070  207.3500  151.7200 C   0  0  0  0  0  0  0  0  0  0  0  0
  160.6060  208.0460  152.9640 C   0  0  0  0  0  3  0  0  0  0  0  0
  161.3730  209.5220  150.6910 C   0  0  0  0  0  0  0  0  0  0  0  0
  161.9490  210.4790  149.9540 C   0  0  0  0  0  3  0  0  0  0  0  0
  161.5140  208.0630  150.6400 C   0  0  0  0  0  3  0  0  0  0  0  0
  161.0270  211.4310  151.7520 C   0  0  0  0  0  0  0  0  0  0  0  0
  160.7210  210.0790  151.7910 N   0  0  0  0  0  0  0  0  0  0  0  0
  161.7100  211.7250  150.5770 O   0  0  0  0  0  0  0  0  0  0  0  0
  159.3710  212.0390  156.4630 C   0  0  0  0  0  2  0  0  0  0  0  0
  158.1300  211.2860  156.2820 N   0  0  0  0  0  0  0  0  0  0  0  0
  158.1840  209.9210  155.7540 C   0  0  0  0  0  2  0  0  0  0  0  0
  160.2200  211.5810  154.0520 C   0  0  0  0  0  0  0  0  0  0  0  0
  159.6050  209.5070  155.3930 C   0  0  0  0  0  2  0  0  0  0  0  0
  160.0780  210.2110  154.1530 C   0  0  0  0  0  0  0  0  0  0  0  0
  161.1800  204.7160  148.1210 C   0  0  0  0  0  3  0  0  0  0  0  0
  161.2230  203.7190  150.7040 N   0  0  0  0  0  0  0  0  0  0  0  0
  161.1650  201.0650  147.4910 C   0  0  0  0  0  0  0  0  0  0  0  0
  161.1610  202.4490  147.2620 C   0  0  0  0  0  3  0  0  0  0  0  0
  161.1800  203.3390  148.3370 C   0  0  0  0  0  0  0  0  0  0  0  0
  161.2540  205.9240  151.6710 N   0  0  0  0  0  2  0  0  0  0  0  0
  161.2090  201.4720  149.8900 C   0  0  0  0  0  3  0  0  0  0  0  0
  161.2040  202.8490  149.6600 C   0  0  0  0  0  0  0  0  0  0  0  0
  161.1900  200.5840  148.8100 C   0  0  0  0  0  3  0  0  0  0  0  0
  161.2140  205.0690  150.5180 C   0  0  0  0  0  0  0  0  0  0  0  0
  161.1980  205.5850  149.2140 C   0  0  0  0  0  3  0  0  0  0  0  0
  161.1450  200.1290  146.3550 C   0  0  0  0  0  0  0  0  0  0  0  0
  161.7500  199.0260  146.4260 O   0  0  0  0  0  1  0  0  0  0  0  0
  160.4570  200.4540  145.1920 O   0  0  0  0  0  0  0  0  0  0  0  0
  156.8540  211.8900  156.5670 C   0  0  0  0  0  0  0  0  0  0  0  0
  156.7460  213.3770  157.2540 S   0  0  0  0  0  0  0  0  0  0  0  0
  155.5830  211.1750  156.2520 C   0  0  0  0  0  1  0  0  0  0  0  0
  1 17  1  0  0  0  0
  2 12  1  0  0  0  0
  3 15  1  0  0  0  0
  4  5  1  0  0  0  0
  5  1  2  0  0  0  0
  6 10  1  0  0  0  0
  7 11  1  0  0  0  0
  7  6  2  0  0  0  0
  8  6  1  0  0  0  0
  8  4  2  0  0  0  0
  9 10  1  0  0  0  0
  9  3  2  0  0  0  0
 10  1  1  0  0  0  0
 11  9  1  0  0  0  0
 13 12  1  0  0  0  0
 13 32  1  0  0  0  0
 14 13  1  0  0  0  0
 15 17  2  0  0  0  0
 15  2  1  0  0  0  0
 16 14  1  0  0  0  0
 17 16  1  0  0  0  0
 18 22  1  0  0  0  0
 18 28  2  0  0  0  0
 20 26  1  0  0  0  0
 21 20  2  0  0  0  0
 21 22  1  0  0  0  0
 22 25  2  0  0  0  0
 23  4  1  0  0  0  0
 25 24  1  0  0  0  0
 25 19  1  0  0  0  0
 26 24  2  0  0  0  0
 27 19  2  0  0  0  0
 27 23  1  0  0  0  0
 28 27  1  0  0  0  0
 29 30  1  0  0  0  0
 29 20  1  0  0  0  0
 31 29  2  0  0  0  0
 32 33  2  0  0  0  0
 34 32  1  0  0  0  0
M  END
>  <MODEL>
6

>  <REMARK>
 VINA RESULT:      -6.4      2.077      3.318
  Name = 
  3 active torsions:
  status: ('A' for Active; 'I' for Inactive)
    1  A    between atoms: C_3  and  N_25
    2  A    between atoms: C_7  and  C_11
    3  A    between atoms: C_8  and  N_18
                            x       y       z     vdW  Elec       q    Type
                         _______ _______ _______ _____ _____    ______ ____

>  <TORSDO>
F 3

$$$$
