=
 OpenBabel11052422083D

 25 28  0  0  1  0  0  0  0  0999 V2000
  160.9490  205.4790  150.4010 C   0  0  0  0  0  0  0  0  0  0  0  0
  161.2090  206.6200  151.1650 C   0  0  0  0  0  0  0  0  0  0  0  0
  161.1950  206.7080  148.3570 C   0  0  0  0  0  3  0  0  0  0  0  0
  160.5690  204.1000  150.8100 C   0  0  1  0  0  3  0  0  0  0  0  0
  161.2090  201.3380  150.2950 C   0  0  0  0  0  3  0  0  0  0  0  0
  161.4540  207.8270  149.0910 N   0  0  0  0  0  0  0  0  0  0  0  0
  160.4650  203.4560  149.4510 C   0  0  0  0  0  0  0  0  0  0  0  0
  160.5650  202.0000  149.3250 C   0  0  0  0  0  3  0  0  0  0  0  0
  161.6100  209.1600  151.1730 C   0  0  2  0  0  3  0  0  0  0  0  0
  162.7060  210.0040  150.5480 C   0  0  0  0  0  1  0  0  0  0  0  0
  161.2050  206.5070  152.9650 S   0  0  0  0  0  0  0  0  0  0  0  0
  161.8420  202.0690  151.4260 C   0  0  0  0  0  3  0  0  0  0  0  0
  160.9220  205.5280  149.0330 C   0  0  0  0  0  0  0  0  0  0  0  0
  160.6600  204.2600  148.4530 N   0  0  0  0  0  0  0  0  0  0  0  0
  161.8680  209.0350  152.6040 N   0  0  0  0  0  2  0  0  0  0  0  0
  161.6000  203.3740  151.6360 C   0  0  0  0  0  3  0  0  0  0  0  0
  160.7960  208.2530  153.1990 C   0  0  2  0  0  3  0  0  0  0  0  0
  161.4840  207.8260  150.4620 C   0  0  0  0  0  0  0  0  0  0  0  0
  160.7120  208.5400  154.6220 N   0  0  0  0  0  2  0  0  0  0  0  0
  160.1510  209.7530  155.1290 C   0  0  0  0  0  0  0  0  0  0  0  0
  159.6580  210.6030  154.3390 O   0  0  0  0  0  0  0  0  0  0  0  0
  161.1990  210.6940  157.0200 F   0  0  0  0  0  0  0  0  0  0  0  0
  160.0880  209.9820  156.6060 C   0  0  0  0  0  0  0  0  0  0  0  0
  160.0610  208.7630  157.2570 F   0  0  0  0  0  0  0  0  0  0  0  0
  158.9500  210.6980  156.9290 F   0  0  0  0  0  0  0  0  0  0  0  0
  1  4  1  0  0  0  0
  1  2  1  0  0  0  0
  2 11  1  0  0  0  0
  3 13  1  0  0  0  0
  3  6  2  0  0  0  0
  4 16  1  1  0  0  0
  5 12  1  0  0  0  0
  6 18  1  0  0  0  0
  7  4  1  0  0  0  0
  8  7  1  0  0  0  0
  8  5  2  0  0  0  0
  9 10  1  6  0  0  0
  9 15  1  0  0  0  0
 11 17  1  0  0  0  0
 12 16  2  0  0  0  0
 13  1  2  0  0  0  0
 14 13  1  0  0  0  0
 14  7  2  0  0  0  0
 15 17  1  0  0  0  0
 17 19  1  1  0  0  0
 18  2  2  0  0  0  0
 18  9  1  0  0  0  0
 19 20  1  0  0  0  0
 20 23  1  0  0  0  0
 21 20  2  0  0  0  0
 23 25  1  0  0  0  0
 23 22  1  0  0  0  0
 23 24  1  0  0  0  0
M  END
>  <MODEL>
1

>  <REMARK>
 VINA RESULT:      -8.0      0.000      0.000
  Name = 
  2 active torsions:
  status: ('A' for Active; 'I' for Inactive)
    1  A    between atoms: N_6  and  C_23
    2  A    between atoms: C_7  and  C_15
                            x       y       z     vdW  Elec       q    Type
                         _______ _______ _______ _____ _____    ______ ____

>  <TORSDO>
F 2

$$$$
=
 OpenBabel11052422083D

 25 28  0  0  1  0  0  0  0  0999 V2000
  161.3450  206.6340  151.8690 C   0  0  0  0  0  0  0  0  0  0  0  0
  161.2980  207.9920  151.5440 C   0  0  0  0  0  0  0  0  0  0  0  0
  160.7720  207.0890  154.1520 C   0  0  0  0  0  3  0  0  0  0  0  0
  161.7260  205.4510  151.0500 C   0  0  1  0  0  3  0  0  0  0  0  0
  160.8550  202.7800  150.4070 C   0  0  0  0  0  3  0  0  0  0  0  0
  160.7180  208.4160  153.8470 N   0  0  0  0  0  0  0  0  0  0  0  0
  161.5300  204.3650  152.0770 C   0  0  0  0  0  0  0  0  0  0  0  0
  161.3330  202.9790  151.6430 C   0  0  0  0  0  3  0  0  0  0  0  0
  161.0380  210.4030  152.4020 C   0  0  2  0  0  3  0  0  0  0  0  0
  159.8860  211.0980  153.1060 C   0  0  0  0  0  1  0  0  0  0  0  0
  161.6440  208.5180  149.8530 S   0  0  0  0  0  0  0  0  0  0  0  0
  160.4930  203.9300  149.5370 C   0  0  0  0  0  3  0  0  0  0  0  0
  161.1090  206.1970  153.1440 C   0  0  0  0  0  0  0  0  0  0  0  0
  161.1880  204.7850  153.2540 N   0  0  0  0  0  0  0  0  0  0  0  0
  161.0550  210.8180  151.0030 N   0  0  0  0  0  2  0  0  0  0  0  0
  160.8380  205.1870  149.8610 C   0  0  0  0  0  3  0  0  0  0  0  0
  162.1800  210.1740  150.3450 C   0  0  2  0  0  3  0  0  0  0  0  0
  160.9540  208.9000  152.5850 C   0  0  0  0  0  0  0  0  0  0  0  0
  162.5530  210.9280  149.1590 N   0  0  0  0  0  2  0  0  0  0  0  0
  161.9040  212.1480  148.7900 C   0  0  0  0  0  0  0  0  0  0  0  0
  161.0050  212.6380  149.5270 O   0  0  0  0  0  0  0  0  0  0  0  0
  161.4420  212.6570  146.5340 F   0  0  0  0  0  0  0  0  0  0  0  0
  162.3420  212.8790  147.5610 C   0  0  0  0  0  0  0  0  0  0  0  0
  163.5890  212.4250  147.1780 F   0  0  0  0  0  0  0  0  0  0  0  0
  162.4080  214.2380  147.8130 F   0  0  0  0  0  0  0  0  0  0  0  0
  1 13  1  0  0  0  0
  2  1  2  0  0  0  0
  2 18  1  0  0  0  0
  4 16  1  6  0  0  0
  4  1  1  0  0  0  0
  4  7  1  0  0  0  0
  5  8  2  0  0  0  0
  6  3  1  0  0  0  0
  7 14  2  0  0  0  0
  8  7  1  0  0  0  0
  9 18  1  0  0  0  0
  9 10  1  1  0  0  0
 11 17  1  0  0  0  0
 11  2  1  0  0  0  0
 12 16  2  0  0  0  0
 12  5  1  0  0  0  0
 13 14  1  0  0  0  0
 13  3  2  0  0  0  0
 15  9  1  0  0  0  0
 17 19  1  6  0  0  0
 17 15  1  0  0  0  0
 18  6  2  0  0  0  0
 20 19  1  0  0  0  0
 20 21  2  0  0  0  0
 22 23  1  0  0  0  0
 23 25  1  0  0  0  0
 23 20  1  0  0  0  0
 24 23  1  0  0  0  0
M  END
>  <MODEL>
2

>  <REMARK>
 VINA RESULT:      -7.5      4.241      5.519
  Name = 
  2 active torsions:
  status: ('A' for Active; 'I' for Inactive)
    1  A    between atoms: N_6  and  C_23
    2  A    between atoms: C_7  and  C_15
                            x       y       z     vdW  Elec       q    Type
                         _______ _______ _______ _____ _____    ______ ____

>  <TORSDO>
F 2

$$$$
=
 OpenBabel11052422083D

 25 28  0  0  1  0  0  0  0  0999 V2000
  161.4660  208.0110  153.0430 C   0  0  0  0  0  0  0  0  0  0  0  0
  161.2960  207.1490  151.9570 C   0  0  0  0  0  0  0  0  0  0  0  0
  162.1690  209.7960  151.6050 C   0  0  0  0  0  3  0  0  0  0  0  0
  161.3360  207.7710  154.5060 C   0  0  1  0  0  3  0  0  0  0  0  0
  160.1840  208.9180  156.8850 C   0  0  0  0  0  3  0  0  0  0  0  0
  162.0020  208.9660  150.5370 N   0  0  0  0  0  0  0  0  0  0  0  0
  161.6690  209.1500  155.0160 C   0  0  0  0  0  0  0  0  0  0  0  0
  161.2370  209.5550  156.3560 C   0  0  0  0  0  3  0  0  0  0  0  0
  161.5850  206.7910  149.4270 C   0  0  2  0  0  3  0  0  0  0  0  0
  160.9820  207.5160  148.2370 C   0  0  0  0  0  1  0  0  0  0  0  0
  160.7330  205.4580  152.2400 S   0  0  0  0  0  0  0  0  0  0  0  0
  159.4560  207.8770  156.1120 C   0  0  0  0  0  3  0  0  0  0  0  0
  161.9110  209.2950  152.8720 C   0  0  0  0  0  0  0  0  0  0  0  0
  161.9960  210.0040  154.0980 N   0  0  0  0  0  0  0  0  0  0  0  0
  160.8880  205.5210  149.6070 N   0  0  0  0  0  2  0  0  0  0  0  0
  159.9540  207.3820  154.9670 C   0  0  0  0  0  3  0  0  0  0  0  0
  161.4930  204.8190  150.7280 C   0  0  2  0  0  3  0  0  0  0  0  0
  161.5650  207.6720  150.6610 C   0  0  0  0  0  0  0  0  0  0  0  0
  161.2200  203.3950  150.6200 N   0  0  0  0  0  2  0  0  0  0  0  0
  161.0930  202.7320  149.3590 C   0  0  0  0  0  0  0  0  0  0  0  0
  161.2680  203.3690  148.2860 O   0  0  0  0  0  0  0  0  0  0  0  0
  161.4450  200.6960  148.2220 F   0  0  0  0  0  0  0  0  0  0  0  0
  160.8200  201.2620  149.3190 C   0  0  0  0  0  0  0  0  0  0  0  0
  159.4580  201.0530  149.2230 F   0  0  0  0  0  0  0  0  0  0  0  0
  161.2950  200.6570  150.4680 F   0  0  0  0  0  0  0  0  0  0  0  0
  1  4  1  0  0  0  0
  2 11  1  0  0  0  0
  2  1  2  0  0  0  0
  3 13  2  0  0  0  0
  4 16  1  6  0  0  0
  4  7  1  0  0  0  0
  6 18  2  0  0  0  0
  6  3  1  0  0  0  0
  7  8  1  0  0  0  0
  8  5  2  0  0  0  0
  9 10  1  6  0  0  0
  9 15  1  0  0  0  0
  9 18  1  0  0  0  0
 12  5  1  0  0  0  0
 13  1  1  0  0  0  0
 13 14  1  0  0  0  0
 14  7  2  0  0  0  0
 15 17  1  0  0  0  0
 16 12  2  0  0  0  0
 17 19  1  6  0  0  0
 17 11  1  0  0  0  0
 18  2  1  0  0  0  0
 20 19  1  0  0  0  0
 21 20  2  0  0  0  0
 22 23  1  0  0  0  0
 23 20  1  0  0  0  0
 23 25  1  0  0  0  0
 24 23  1  0  0  0  0
M  END
>  <MODEL>
3

>  <REMARK>
 VINA RESULT:      -7.2      4.631      7.461
  Name = 
  2 active torsions:
  status: ('A' for Active; 'I' for Inactive)
    1  A    between atoms: N_6  and  C_23
    2  A    between atoms: C_7  and  C_15
                            x       y       z     vdW  Elec       q    Type
                         _______ _______ _______ _____ _____    ______ ____

>  <TORSDO>
F 2

$$$$
=
 OpenBabel11052422083D

 25 28  0  0  1  0  0  0  0  0999 V2000
  161.3710  204.3070  148.2230 C   0  0  0  0  0  0  0  0  0  0  0  0
  161.3310  204.8060  149.5270 C   0  0  0  0  0  0  0  0  0  0  0  0
  160.9520  202.0750  148.9900 C   0  0  0  0  0  3  0  0  0  0  0  0
  161.6750  204.9810  146.9320 C   0  0  1  0  0  3  0  0  0  0  0  0
  160.7120  205.2100  144.2260 C   0  0  0  0  0  3  0  0  0  0  0  0
  160.9060  202.5500  150.2670 N   0  0  0  0  0  0  0  0  0  0  0  0
  161.5230  203.8100  145.9960 C   0  0  0  0  0  0  0  0  0  0  0  0
  161.2700  204.0430  144.5720 C   0  0  0  0  0  3  0  0  0  0  0  0
  161.1750  204.2630  152.0360 C   0  0  2  0  0  3  0  0  0  0  0  0
  160.0840  203.5910  152.8500 C   0  0  0  0  0  1  0  0  0  0  0  0
  161.5810  206.5690  149.8160 S   0  0  0  0  0  0  0  0  0  0  0  0
  160.3190  206.2030  145.2600 C   0  0  0  0  0  3  0  0  0  0  0  0
  161.2060  202.9720  147.9650 C   0  0  0  0  0  0  0  0  0  0  0  0
  161.2640  202.6800  146.5780 N   0  0  0  0  0  0  0  0  0  0  0  0
  161.1130  205.7040  152.2630 N   0  0  0  0  0  2  0  0  0  0  0  0
  160.7090  206.0710  146.5390 C   0  0  0  0  0  3  0  0  0  0  0  0
  162.1810  206.3360  151.5060 C   0  0  2  0  0  3  0  0  0  0  0  0
  161.0720  203.8770  150.5730 C   0  0  0  0  0  0  0  0  0  0  0  0
  162.4940  207.6310  152.0870 N   0  0  0  0  0  2  0  0  0  0  0  0
  161.5030  208.6420  152.2880 C   0  0  0  0  0  0  0  0  0  0  0  0
  160.2950  208.4120  152.0070 O   0  0  0  0  0  0  0  0  0  0  0  0
  160.9610  210.9200  152.5670 F   0  0  0  0  0  0  0  0  0  0  0  0
  161.8910  209.9510  152.8980 C   0  0  0  0  0  0  0  0  0  0  0  0
  163.1310  210.3280  152.4210 F   0  0  0  0  0  0  0  0  0  0  0  0
  161.9480  209.8360  154.2760 F   0  0  0  0  0  0  0  0  0  0  0  0
  1  2  1  0  0  0  0
  2 11  1  0  0  0  0
  2 18  2  0  0  0  0
  3  6  2  0  0  0  0
  4 16  1  6  0  0  0
  4  1  1  0  0  0  0
  5  8  2  0  0  0  0
  5 12  1  0  0  0  0
  6 18  1  0  0  0  0
  7 14  2  0  0  0  0
  7  4  1  0  0  0  0
  8  7  1  0  0  0  0
  9 15  1  0  0  0  0
  9 10  1  1  0  0  0
 11 17  1  0  0  0  0
 12 16  2  0  0  0  0
 13  1  2  0  0  0  0
 13  3  1  0  0  0  0
 14 13  1  0  0  0  0
 17 19  1  1  0  0  0
 17 15  1  0  0  0  0
 18  9  1  0  0  0  0
 19 20  1  0  0  0  0
 20 23  1  0  0  0  0
 21 20  2  0  0  0  0
 22 23  1  0  0  0  0
 23 25  1  0  0  0  0
 24 23  1  0  0  0  0
M  END
>  <MODEL>
4

>  <REMARK>
 VINA RESULT:      -7.2      2.779      4.580
  Name = 
  2 active torsions:
  status: ('A' for Active; 'I' for Inactive)
    1  A    between atoms: N_6  and  C_23
    2  A    between atoms: C_7  and  C_15
                            x       y       z     vdW  Elec       q    Type
                         _______ _______ _______ _____ _____    ______ ____

>  <TORSDO>
F 2

$$$$
=
 OpenBabel11052422083D

 25 28  0  0  1  0  0  0  0  0999 V2000
  161.7270  208.3790  151.3160 C   0  0  0  0  0  0  0  0  0  0  0  0
  161.4160  207.3230  150.4550 C   0  0  0  0  0  0  0  0  0  0  0  0
  162.2640  209.8160  149.4730 C   0  0  0  0  0  3  0  0  0  0  0  0
  161.7750  208.4410  152.8020 C   0  0  1  0  0  3  0  0  0  0  0  0
  160.9340  210.0790  155.0190 C   0  0  0  0  0  3  0  0  0  0  0  0
  161.9600  208.7950  148.6220 N   0  0  0  0  0  0  0  0  0  0  0  0
  162.1810  209.8820  152.9790 C   0  0  0  0  0  0  0  0  0  0  0  0
  161.9200  210.5610  154.2500 C   0  0  0  0  0  3  0  0  0  0  0  0
  161.3890  206.4570  148.0340 C   0  0  2  0  0  3  0  0  0  0  0  0
  160.6520  206.9500  146.8010 C   0  0  0  0  0  1  0  0  0  0  0  0
  160.8770  205.7440  151.1390 S   0  0  0  0  0  0  0  0  0  0  0  0
  160.1070  208.9300  154.5640 C   0  0  0  0  0  3  0  0  0  0  0  0
  162.1590  209.5870  150.8370 C   0  0  0  0  0  0  0  0  0  0  0  0
  162.4010  210.5240  151.8740 N   0  0  0  0  0  0  0  0  0  0  0  0
  160.7080  205.2740  148.5490 N   0  0  0  0  0  2  0  0  0  0  0  0
  160.4560  208.1990  153.4920 C   0  0  0  0  0  3  0  0  0  0  0  0
  161.4390  204.7900  149.7090 C   0  0  2  0  0  3  0  0  0  0  0  0
  161.5300  207.5670  149.0580 C   0  0  0  0  0  0  0  0  0  0  0  0
  161.1420  203.3830  149.9240 N   0  0  0  0  0  2  0  0  0  0  0  0
  161.1380  202.4280  148.8600 C   0  0  0  0  0  0  0  0  0  0  0  0
  161.4480  202.7800  147.6900 O   0  0  0  0  0  0  0  0  0  0  0  0
  161.2060  200.2030  148.0810 F   0  0  0  0  0  0  0  0  0  0  0  0
  160.8310  200.9930  149.1520 C   0  0  0  0  0  0  0  0  0  0  0  0
  159.4740  200.8510  149.3690 F   0  0  0  0  0  0  0  0  0  0  0  0
  161.5200  200.5780  150.2780 F   0  0  0  0  0  0  0  0  0  0  0  0
  1  4  1  0  0  0  0
  2 11  1  0  0  0  0
  2  1  2  0  0  0  0
  3 13  2  0  0  0  0
  4  7  1  0  0  0  0
  4 16  1  1  0  0  0
  6 18  2  0  0  0  0
  6  3  1  0  0  0  0
  7  8  1  0  0  0  0
  8  5  2  0  0  0  0
  9 10  1  6  0  0  0
  9 15  1  0  0  0  0
  9 18  1  0  0  0  0
 12  5  1  0  0  0  0
 13  1  1  0  0  0  0
 13 14  1  0  0  0  0
 14  7  2  0  0  0  0
 15 17  1  0  0  0  0
 16 12  2  0  0  0  0
 17 19  1  1  0  0  0
 17 11  1  0  0  0  0
 18  2  1  0  0  0  0
 20 23  1  0  0  0  0
 20 19  1  0  0  0  0
 21 20  2  0  0  0  0
 22 23  1  0  0  0  0
 23 24  1  0  0  0  0
 23 25  1  0  0  0  0
M  END
>  <MODEL>
5

>  <REMARK>
 VINA RESULT:      -7.1      4.818      7.565
  Name = 
  2 active torsions:
  status: ('A' for Active; 'I' for Inactive)
    1  A    between atoms: N_6  and  C_23
    2  A    between atoms: C_7  and  C_15
                            x       y       z     vdW  Elec       q    Type
                         _______ _______ _______ _____ _____    ______ ____

>  <TORSDO>
F 2

$$$$
=
 OpenBabel11052422083D

 25 28  0  0  1  0  0  0  0  0999 V2000
  161.0620  203.7670  147.3860 C   0  0  0  0  0  0  0  0  0  0  0  0
  161.3450  204.7640  148.3230 C   0  0  0  0  0  0  0  0  0  0  0  0
  161.3650  205.2960  145.5650 C   0  0  0  0  0  3  0  0  0  0  0  0
  160.6390  202.3520  147.5680 C   0  0  1  0  0  3  0  0  0  0  0  0
  161.2080  199.6890  146.6260 C   0  0  0  0  0  3  0  0  0  0  0  0
  161.6480  206.2770  146.4680 N   0  0  0  0  0  0  0  0  0  0  0  0
  160.5330  201.9350  146.1240 C   0  0  0  0  0  0  0  0  0  0  0  0
  160.5930  200.5150  145.7690 C   0  0  0  0  0  3  0  0  0  0  0  0
  161.8160  207.2580  148.7370 C   0  0  2  0  0  3  0  0  0  0  0  0
  162.9430  208.1580  148.2620 C   0  0  0  0  0  1  0  0  0  0  0  0
  161.3180  204.3680  150.0830 S   0  0  0  0  0  0  0  0  0  0  0  0
  161.8480  200.2120  147.8620 C   0  0  0  0  0  3  0  0  0  0  0  0
  161.0520  204.0330  146.0430 C   0  0  0  0  0  0  0  0  0  0  0  0
  160.7610  202.8810  145.2670 N   0  0  0  0  0  0  0  0  0  0  0  0
  162.0550  206.9000  150.1320 N   0  0  0  0  0  2  0  0  0  0  0  0
  161.6400  201.4740  148.2750 C   0  0  0  0  0  3  0  0  0  0  0  0
  160.9550  206.0660  150.5880 C   0  0  2  0  0  3  0  0  0  0  0  0
  161.6620  206.0580  147.8230 C   0  0  0  0  0  0  0  0  0  0  0  0
  160.8630  206.1250  152.0380 N   0  0  0  0  0  2  0  0  0  0  0  0
  160.8310  207.3620  152.7550 C   0  0  0  0  0  0  0  0  0  0  0  0
  160.8310  208.4580  152.1310 O   0  0  0  0  0  0  0  0  0  0  0  0
  161.9140  206.9030  154.7990 F   0  0  0  0  0  0  0  0  0  0  0  0
  160.7280  207.3520  154.2470 C   0  0  0  0  0  0  0  0  0  0  0  0
  159.7010  206.5100  154.6290 F   0  0  0  0  0  0  0  0  0  0  0  0
  160.4700  208.6280  154.7150 F   0  0  0  0  0  0  0  0  0  0  0  0
  1  4  1  0  0  0  0
  1  2  1  0  0  0  0
  2 11  1  0  0  0  0
  3 13  1  0  0  0  0
  3  6  2  0  0  0  0
  4 16  1  1  0  0  0
  5 12  1  0  0  0  0
  6 18  1  0  0  0  0
  7  4  1  0  0  0  0
  8  7  1  0  0  0  0
  8  5  2  0  0  0  0
  9 10  1  6  0  0  0
  9 15  1  0  0  0  0
 11 17  1  0  0  0  0
 12 16  2  0  0  0  0
 13  1  2  0  0  0  0
 14 13  1  0  0  0  0
 14  7  2  0  0  0  0
 15 17  1  0  0  0  0
 17 19  1  1  0  0  0
 18  2  2  0  0  0  0
 18  9  1  0  0  0  0
 19 20  1  0  0  0  0
 20 23  1  0  0  0  0
 21 20  2  0  0  0  0
 23 24  1  0  0  0  0
 23 25  1  0  0  0  0
 23 22  1  0  0  0  0
M  END
>  <MODEL>
6

>  <REMARK>
 VINA RESULT:      -6.9      2.658      3.522
  Name = 
  2 active torsions:
  status: ('A' for Active; 'I' for Inactive)
    1  A    between atoms: N_6  and  C_23
    2  A    between atoms: C_7  and  C_15
                            x       y       z     vdW  Elec       q    Type
                         _______ _______ _______ _____ _____    ______ ____

>  <TORSDO>
F 2

$$$$
=
 OpenBabel11052422083D

 25 28  0  0  1  0  0  0  0  0999 V2000
  161.6040  205.8190  148.5970 C   0  0  0  0  0  0  0  0  0  0  0  0
  161.5530  206.9940  149.3510 C   0  0  0  0  0  0  0  0  0  0  0  0
  161.3560  204.4650  150.5590 C   0  0  0  0  0  3  0  0  0  0  0  0
  161.8370  205.6060  147.1420 C   0  0  1  0  0  3  0  0  0  0  0  0
  160.8100  204.1370  144.8860 C   0  0  0  0  0  3  0  0  0  0  0  0
  161.3010  205.6030  151.3070 N   0  0  0  0  0  0  0  0  0  0  0  0
  161.7490  204.1020  147.0930 C   0  0  0  0  0  0  0  0  0  0  0  0
  161.4550  203.4310  145.8250 C   0  0  0  0  0  3  0  0  0  0  0  0
  161.4820  208.0430  151.6980 C   0  0  2  0  0  3  0  0  0  0  0  0
  160.4560  207.9380  152.8120 C   0  0  0  0  0  1  0  0  0  0  0  0
  161.6850  208.5920  148.5250 S   0  0  0  0  0  0  0  0  0  0  0  0
  160.3680  205.5320  145.1520 C   0  0  0  0  0  3  0  0  0  0  0  0
  161.5290  204.5870  149.1890 C   0  0  0  0  0  0  0  0  0  0  0  0
  161.5800  203.5300  148.2440 N   0  0  0  0  0  0  0  0  0  0  0  0
  161.3240  209.3310  151.0310 N   0  0  0  0  0  2  0  0  0  0  0  0
  160.7900  206.2030  146.2360 C   0  0  0  0  0  3  0  0  0  0  0  0
  162.3310  209.4360  149.9870 C   0  0  2  0  0  3  0  0  0  0  0  0
  161.3790  206.8580  150.7570 C   0  0  0  0  0  0  0  0  0  0  0  0
  162.5630  210.8360  149.6690 N   0  0  0  0  0  2  0  0  0  0  0  0
  161.9850  211.4700  148.5260 C   0  0  0  0  0  0  0  0  0  0  0  0
  161.2000  210.8300  147.7740 O   0  0  0  0  0  0  0  0  0  0  0  0
  161.7420  213.2760  147.0290 F   0  0  0  0  0  0  0  0  0  0  0  0
  162.2590  212.9160  148.2610 C   0  0  0  0  0  0  0  0  0  0  0  0
  163.6230  213.1310  148.2610 F   0  0  0  0  0  0  0  0  0  0  0  0
  161.6730  213.6990  149.2390 F   0  0  0  0  0  0  0  0  0  0  0  0
  1 13  2  0  0  0  0
  1  2  1  0  0  0  0
  2 18  2  0  0  0  0
  3  6  2  0  0  0  0
  4 16  1  6  0  0  0
  4  1  1  0  0  0  0
  5 12  1  0  0  0  0
  5  8  2  0  0  0  0
  7  4  1  0  0  0  0
  7 14  2  0  0  0  0
  8  7  1  0  0  0  0
  9 10  1  1  0  0  0
 11  2  1  0  0  0  0
 11 17  1  0  0  0  0
 12 16  2  0  0  0  0
 13  3  1  0  0  0  0
 14 13  1  0  0  0  0
 15  9  1  0  0  0  0
 17 19  1  6  0  0  0
 17 15  1  0  0  0  0
 18  6  1  0  0  0  0
 18  9  1  0  0  0  0
 20 19  1  0  0  0  0
 21 20  2  0  0  0  0
 22 23  1  0  0  0  0
 23 20  1  0  0  0  0
 23 25  1  0  0  0  0
 24 23  1  0  0  0  0
M  END
>  <MODEL>
7

>  <REMARK>
 VINA RESULT:      -6.9      4.229      5.526
  Name = 
  2 active torsions:
  status: ('A' for Active; 'I' for Inactive)
    1  A    between atoms: N_6  and  C_23
    2  A    between atoms: C_7  and  C_15
                            x       y       z     vdW  Elec       q    Type
                         _______ _______ _______ _____ _____    ______ ____

>  <TORSDO>
F 2

$$$$
=
 OpenBabel11052422083D

 25 28  0  0  1  0  0  0  0  0999 V2000
  160.9680  207.0500  152.3580 C   0  0  0  0  0  0  0  0  0  0  0  0
  161.0610  206.2560  151.2120 C   0  0  0  0  0  0  0  0  0  0  0  0
  160.8270  205.1190  153.7710 C   0  0  0  0  0  3  0  0  0  0  0  0
  160.8870  208.5280  152.5130 C   0  0  1  0  0  3  0  0  0  0  0  0
  162.0020  210.6990  154.0450 C   0  0  0  0  0  3  0  0  0  0  0  0
  160.9220  204.3320  152.6620 N   0  0  0  0  0  0  0  0  0  0  0  0
  160.8100  208.6170  154.0160 C   0  0  0  0  0  0  0  0  0  0  0  0
  161.1750  209.8650  154.6910 C   0  0  0  0  0  3  0  0  0  0  0  0
  160.9700  203.8820  150.2260 C   0  0  2  0  0  3  0  0  0  0  0  0
  161.8390  202.6610  150.4710 C   0  0  0  0  0  1  0  0  0  0  0  0
  161.2080  207.0370  149.5940 S   0  0  0  0  0  0  0  0  0  0  0  0
  162.5640  210.3370  152.7170 C   0  0  0  0  0  3  0  0  0  0  0  0
  160.8340  206.4950  153.6020 C   0  0  0  0  0  0  0  0  0  0  0  0
  160.7760  207.4750  154.6270 N   0  0  0  0  0  0  0  0  0  0  0  0
  161.3510  204.4830  148.9520 N   0  0  0  0  0  2  0  0  0  0  0  0
  162.0950  209.2860  152.0230 C   0  0  0  0  0  3  0  0  0  0  0  0
  160.4930  205.6320  148.7100 C   0  0  2  0  0  3  0  0  0  0  0  0
  161.0500  204.8440  151.3960 C   0  0  0  0  0  0  0  0  0  0  0  0
  160.4590  205.9270  147.2860 N   0  0  0  0  0  2  0  0  0  0  0  0
  161.1190  205.1090  146.3170 C   0  0  0  0  0  0  0  0  0  0  0  0
  161.7190  204.0590  146.6740 O   0  0  0  0  0  0  0  0  0  0  0  0
  160.5830  204.3810  144.1390 F   0  0  0  0  0  0  0  0  0  0  0  0
  161.0370  205.4660  144.8660 C   0  0  0  0  0  0  0  0  0  0  0  0
  162.2920  205.8250  144.4130 F   0  0  0  0  0  0  0  0  0  0  0  0
  160.1650  206.5250  144.6840 F   0  0  0  0  0  0  0  0  0  0  0  0
  1  4  1  0  0  0  0
  1 13  1  0  0  0  0
  2 18  1  0  0  0  0
  2  1  2  0  0  0  0
  4 16  1  1  0  0  0
  4  7  1  0  0  0  0
  5  8  2  0  0  0  0
  6  3  1  0  0  0  0
  7 14  2  0  0  0  0
  7  8  1  0  0  0  0
  9 10  1  1  0  0  0
  9 18  1  0  0  0  0
 11  2  1  0  0  0  0
 12  5  1  0  0  0  0
 13  3  2  0  0  0  0
 13 14  1  0  0  0  0
 15  9  1  0  0  0  0
 16 12  2  0  0  0  0
 17 19  1  6  0  0  0
 17 15  1  0  0  0  0
 17 11  1  0  0  0  0
 18  6  2  0  0  0  0
 20 21  2  0  0  0  0
 20 19  1  0  0  0  0
 22 23  1  0  0  0  0
 23 20  1  0  0  0  0
 24 23  1  0  0  0  0
 25 23  1  0  0  0  0
M  END
>  <MODEL>
8

>  <REMARK>
 VINA RESULT:      -6.5      5.386      8.123
  Name = 
  2 active torsions:
  status: ('A' for Active; 'I' for Inactive)
    1  A    between atoms: N_6  and  C_23
    2  A    between atoms: C_7  and  C_15
                            x       y       z     vdW  Elec       q    Type
                         _______ _______ _______ _____ _____    ______ ____

>  <TORSDO>
F 2

$$$$
=
 OpenBabel11052422083D

 25 28  0  0  1  0  0  0  0  0999 V2000
  161.0310  206.7600  151.5470 C   0  0  0  0  0  0  0  0  0  0  0  0
  161.1780  205.5130  150.9330 C   0  0  0  0  0  0  0  0  0  0  0  0
  161.0600  205.7680  153.7290 C   0  0  0  0  0  3  0  0  0  0  0  0
  160.8310  208.1140  150.9620 C   0  0  1  0  0  3  0  0  0  0  0  0
  161.7790  210.8270  151.1810 C   0  0  0  0  0  3  0  0  0  0  0  0
  161.2090  204.5470  153.1440 N   0  0  0  0  0  0  0  0  0  0  0  0
  160.7600  208.9250  152.2300 C   0  0  0  0  0  0  0  0  0  0  0  0
  161.0280  210.3650  152.1910 C   0  0  0  0  0  3  0  0  0  0  0  0
  161.2740  202.9620  151.2410 C   0  0  2  0  0  3  0  0  0  0  0  0
  162.2410  202.0800  152.0110 C   0  0  0  0  0  1  0  0  0  0  0  0
  161.2490  205.4060  149.1340 S   0  0  0  0  0  0  0  0  0  0  0  0
  162.3570  209.8970  150.1750 C   0  0  0  0  0  3  0  0  0  0  0  0
  160.9520  206.8810  152.9080 C   0  0  0  0  0  0  0  0  0  0  0  0
  160.8230  208.2310  153.3240 N   0  0  0  0  0  0  0  0  0  0  0  0
  161.5930  202.8820  149.8190 N   0  0  0  0  0  2  0  0  0  0  0  0
  161.9690  208.6120  150.1070 C   0  0  0  0  0  3  0  0  0  0  0  0
  160.6430  203.7030  149.0860 C   0  0  2  0  0  3  0  0  0  0  0  0
  161.2850  204.3770  151.7840 C   0  0  0  0  0  0  0  0  0  0  0  0
  160.5730  203.2580  147.7040 N   0  0  0  0  0  2  0  0  0  0  0  0
  160.6670  201.8790  147.3360 C   0  0  0  0  0  0  0  0  0  0  0  0
  160.7660  200.9900  148.2250 O   0  0  0  0  0  0  0  0  0  0  0  0
  161.2050  200.2700  145.6980 F   0  0  0  0  0  0  0  0  0  0  0  0
  160.5800  201.4880  145.8950 C   0  0  0  0  0  0  0  0  0  0  0  0
  161.2040  202.4480  145.1220 F   0  0  0  0  0  0  0  0  0  0  0  0
  159.2560  201.3810  145.5090 F   0  0  0  0  0  0  0  0  0  0  0  0
  1 13  1  0  0  0  0
  2  1  2  0  0  0  0
  2 18  1  0  0  0  0
  4 16  1  6  0  0  0
  4  1  1  0  0  0  0
  4  7  1  0  0  0  0
  5  8  2  0  0  0  0
  6  3  1  0  0  0  0
  7 14  2  0  0  0  0
  8  7  1  0  0  0  0
  9 18  1  0  0  0  0
  9 10  1  1  0  0  0
 11  2  1  0  0  0  0
 12  5  1  0  0  0  0
 13 14  1  0  0  0  0
 13  3  2  0  0  0  0
 15  9  1  0  0  0  0
 16 12  2  0  0  0  0
 17 19  1  6  0  0  0
 17 11  1  0  0  0  0
 17 15  1  0  0  0  0
 18  6  2  0  0  0  0
 20 19  1  0  0  0  0
 20 21  2  0  0  0  0
 22 23  1  0  0  0  0
 23 20  1  0  0  0  0
 24 23  1  0  0  0  0
 25 23  1  0  0  0  0
M  END
>  <MODEL>
9

>  <REMARK>
 VINA RESULT:      -6.1      5.783      8.509
  Name = 
  2 active torsions:
  status: ('A' for Active; 'I' for Inactive)
    1  A    between atoms: N_6  and  C_23
    2  A    between atoms: C_7  and  C_15
                            x       y       z     vdW  Elec       q    Type
                         _______ _______ _______ _____ _____    ______ ____

>  <TORSDO>
F 2

$$$$
