=
 OpenBabel11052422333D

 31 34  0  0  1  0  0  0  0  0999 V2000
  160.1390  209.7530  156.2940 C   0  0  0  0  0  0  0  0  0  0  0  0
  160.5420  209.4530  152.5320 C   0  0  0  0  0  0  0  0  0  0  0  0
  160.5810  209.1740  153.9900 C   0  0  0  0  0  0  0  0  0  0  0  0
  160.7240  208.5920  156.6940 N   0  0  0  0  0  0  0  0  0  0  0  0
  161.0820  207.1180  152.1070 C   0  0  1  0  0  3  0  0  0  0  0  0
  159.6090  210.6510  157.2610 N   0  0  0  0  0  1  0  0  0  0  0  0
  161.8280  207.0630  153.4440 C   0  0  0  0  0  2  0  0  0  0  0  0
  160.8360  208.5010  151.6930 N   0  0  0  0  0  0  0  0  0  0  0  0
  160.0630  210.0680  154.9350 C   0  0  0  0  0  3  0  0  0  0  0  0
  161.1770  207.9810  154.4300 C   0  0  0  0  0  0  0  0  0  0  0  0
  161.2480  207.7110  155.7990 C   0  0  0  0  0  3  0  0  0  0  0  0
  160.2310  210.8020  152.0100 C   0  0  0  0  0  0  0  0  0  0  0  0
  158.5610  212.6910  151.8030 C   0  0  0  0  0  2  0  0  0  0  0  0
  159.0840  211.5420  152.6560 C   0  0  0  0  0  2  0  0  0  0  0  0
  159.7320  213.5570  151.3770 C   0  0  0  0  0  2  0  0  0  0  0  0
  160.6530  212.7390  150.4800 C   0  0  0  0  0  2  0  0  0  0  0  0
  161.0040  211.3930  151.0640 C   0  0  0  0  0  0  0  0  0  0  0  0
  162.1990  210.7000  150.4790 C   0  0  0  0  0  2  0  0  0  0  0  0
  162.0730  209.1870  148.6300 O   0  0  0  0  0  1  0  0  0  0  0  0
  162.0650  210.5400  148.9720 C   0  0  0  0  0  2  0  0  0  0  0  0
  161.8580  206.3890  151.0220 C   0  0  0  0  0  2  0  0  0  0  0  0
  160.0960  206.7080  149.4760 O   0  0  0  0  0  0  0  0  0  0  0  0
  160.9380  205.8990  149.9480 C   0  0  0  0  0  0  0  0  0  0  0  0
  161.1680  201.8110  148.6140 C   0  0  0  0  0  0  0  0  0  0  0  0
  160.7660  203.4500  150.3410 C   0  0  0  0  0  3  0  0  0  0  0  0
  161.6780  205.2100  147.0740 C   0  0  0  0  0  1  0  0  0  0  0  0
  161.2410  200.3940  148.1760 C   0  0  0  0  0  1  0  0  0  0  0  0
  160.8330  202.1180  149.9310 C   0  0  0  0  0  3  0  0  0  0  0  0
  161.3690  204.1770  148.1050 C   0  0  0  0  0  0  0  0  0  0  0  0
  161.0290  204.5010  149.4440 C   0  0  0  0  0  0  0  0  0  0  0  0
  161.4350  202.8370  147.7060 C   0  0  0  0  0  3  0  0  0  0  0  0
  1  4  1  0  0  0  0
  1  6  1  0  0  0  0
  2  3  1  0  0  0  0
  3 10  2  0  0  0  0
  3  9  1  0  0  0  0
  5 21  1  6  0  0  0
  5  7  1  0  0  0  0
  7 10  1  0  0  0  0
  8  5  1  0  0  0  0
  8  2  2  0  0  0  0
  9  1  2  0  0  0  0
 10 11  1  0  0  0  0
 11  4  2  0  0  0  0
 12  2  1  0  0  0  0
 12 14  1  0  0  0  0
 13 14  1  0  0  0  0
 15 13  1  0  0  0  0
 16 17  1  0  0  0  0
 16 15  1  0  0  0  0
 17 12  2  0  0  0  0
 18 17  1  0  0  0  0
 19 20  1  0  0  0  0
 20 18  1  0  0  0  0
 22 23  2  0  0  0  0
 23 21  1  0  0  0  0
 24 28  1  0  0  0  0
 26 29  1  0  0  0  0
 27 24  1  0  0  0  0
 28 25  2  0  0  0  0
 29 30  2  0  0  0  0
 30 23  1  0  0  0  0
 30 25  1  0  0  0  0
 31 29  1  0  0  0  0
 31 24  2  0  0  0  0
M  END
>  <MODEL>
1

>  <REMARK>
 VINA RESULT:      -8.3      0.000      0.000
  Name = 
  6 active torsions:
  status: ('A' for Active; 'I' for Inactive)
    1  A    between atoms: C_4  and  C_5
    2  A    between atoms: C_9  and  C_22
    3  A    between atoms: C_9  and  C_23
    4  A    between atoms: C_15  and  C_23
    5  A    between atoms: C_29  and  C_31
    6  A    between atoms: C_30  and  C_31
                            x       y       z     vdW  Elec       q    Type
                         _______ _______ _______ _____ _____    ______ ____

>  <TORSDO>
F 6

$$$$
=
 OpenBabel11052422333D

 31 34  0  0  1  0  0  0  0  0999 V2000
  162.1960  210.7260  149.2920 C   0  0  0  0  0  0  0  0  0  0  0  0
  160.8990  208.4770  152.0600 C   0  0  0  0  0  0  0  0  0  0  0  0
  161.3880  208.9780  150.7510 C   0  0  0  0  0  0  0  0  0  0  0  0
  162.2580  209.8360  148.2660 N   0  0  0  0  0  0  0  0  0  0  0  0
  161.2320  206.1980  151.2740 C   0  0  1  0  0  3  0  0  0  0  0  0
  162.5770  212.0800  149.0820 N   0  0  0  0  0  1  0  0  0  0  0  0
  160.9800  206.6720  149.8390 C   0  0  0  0  0  2  0  0  0  0  0  0
  160.7820  207.1930  152.2490 N   0  0  0  0  0  0  0  0  0  0  0  0
  161.7540  210.3140  150.5520 C   0  0  0  0  0  3  0  0  0  0  0  0
  161.4640  208.0790  149.6740 C   0  0  0  0  0  0  0  0  0  0  0  0
  161.8960  208.5350  148.4270 C   0  0  0  0  0  3  0  0  0  0  0  0
  160.4890  209.4030  153.1390 C   0  0  0  0  0  0  0  0  0  0  0  0
  159.8000  211.7410  153.8150 C   0  0  0  0  0  2  0  0  0  0  0  0
  159.7920  210.6770  152.7250 C   0  0  0  0  0  2  0  0  0  0  0  0
  159.3010  211.1220  155.1070 C   0  0  0  0  0  2  0  0  0  0  0  0
  160.2810  210.0440  155.5510 C   0  0  0  0  0  2  0  0  0  0  0  0
  160.6360  209.0770  154.4480 C   0  0  0  0  0  0  0  0  0  0  0  0
  161.2460  207.7740  154.8710 C   0  0  0  0  0  2  0  0  0  0  0  0
  160.3310  206.8230  156.8670 O   0  0  0  0  0  1  0  0  0  0  0  0
  161.3320  207.6680  156.3870 C   0  0  0  0  0  2  0  0  0  0  0  0
  160.5370  204.8720  151.5370 C   0  0  0  0  0  2  0  0  0  0  0  0
  162.1840  203.1960  151.8060 O   0  0  0  0  0  0  0  0  0  0  0  0
  161.3560  203.7300  151.0220 C   0  0  0  0  0  0  0  0  0  0  0  0
  160.8960  202.4100  146.9490 C   0  0  0  0  0  0  0  0  0  0  0  0
  161.4990  204.0970  148.5680 C   0  0  0  0  0  3  0  0  0  0  0  0
  160.3350  200.9340  150.3690 C   0  0  0  0  0  1  0  0  0  0  0  0
  160.7450  201.9760  145.5370 C   0  0  0  0  0  1  0  0  0  0  0  0
  161.3590  203.6920  147.2400 C   0  0  0  0  0  3  0  0  0  0  0  0
  160.7100  201.9300  149.3220 C   0  0  0  0  0  0  0  0  0  0  0  0
  161.1820  203.2320  149.6300 C   0  0  0  0  0  0  0  0  0  0  0  0
  160.5730  201.5340  147.9870 C   0  0  0  0  0  3  0  0  0  0  0  0
  1  9  1  0  0  0  0
  2  8  2  0  0  0  0
  2 12  1  0  0  0  0
  3  2  1  0  0  0  0
  4 11  1  0  0  0  0
  4  1  2  0  0  0  0
  5 21  1  1  0  0  0
  5  8  1  0  0  0  0
  6  1  1  0  0  0  0
  7  5  1  0  0  0  0
  9  3  2  0  0  0  0
 10  7  1  0  0  0  0
 10  3  1  0  0  0  0
 11 10  2  0  0  0  0
 12 17  2  0  0  0  0
 13 15  1  0  0  0  0
 14 12  1  0  0  0  0
 14 13  1  0  0  0  0
 15 16  1  0  0  0  0
 17 18  1  0  0  0  0
 17 16  1  0  0  0  0
 18 20  1  0  0  0  0
 20 19  1  0  0  0  0
 23 21  1  0  0  0  0
 23 22  2  0  0  0  0
 24 28  2  0  0  0  0
 24 31  1  0  0  0  0
 25 30  2  0  0  0  0
 27 24  1  0  0  0  0
 28 25  1  0  0  0  0
 29 30  1  0  0  0  0
 29 26  1  0  0  0  0
 30 23  1  0  0  0  0
 31 29  2  0  0  0  0
M  END
>  <MODEL>
2

>  <REMARK>
 VINA RESULT:      -8.1      2.368      4.714
  Name = 
  6 active torsions:
  status: ('A' for Active; 'I' for Inactive)
    1  A    between atoms: C_4  and  C_5
    2  A    between atoms: C_9  and  C_22
    3  A    between atoms: C_9  and  C_23
    4  A    between atoms: C_15  and  C_23
    5  A    between atoms: C_29  and  C_31
    6  A    between atoms: C_30  and  C_31
                            x       y       z     vdW  Elec       q    Type
                         _______ _______ _______ _____ _____    ______ ____

>  <TORSDO>
F 6

$$$$
=
 OpenBabel11052422333D

 31 34  0  0  1  0  0  0  0  0999 V2000
  161.3250  200.6510  148.2060 C   0  0  0  0  0  0  0  0  0  0  0  0
  161.1540  204.3840  148.8670 C   0  0  0  0  0  0  0  0  0  0  0  0
  161.1470  202.9100  149.0440 C   0  0  0  0  0  0  0  0  0  0  0  0
  161.0820  200.1730  149.4560 N   0  0  0  0  0  0  0  0  0  0  0  0
  161.3180  204.6390  151.2830 C   0  0  1  0  0  3  0  0  0  0  0  0
  161.5430  199.7480  147.1300 N   0  0  0  0  0  1  0  0  0  0  0  0
  160.5720  203.3120  151.4570 C   0  0  0  0  0  2  0  0  0  0  0  0
  161.1730  205.1530  149.9190 N   0  0  0  0  0  0  0  0  0  0  0  0
  161.3550  202.0290  147.9770 C   0  0  0  0  0  3  0  0  0  0  0  0
  160.9000  202.3890  150.3250 C   0  0  0  0  0  0  0  0  0  0  0  0
  160.8620  201.0050  150.5090 C   0  0  0  0  0  3  0  0  0  0  0  0
  161.0860  205.0040  147.5250 C   0  0  0  0  0  0  0  0  0  0  0  0
  161.3520  204.7390  145.0230 C   0  0  0  0  0  2  0  0  0  0  0  0
  160.9830  204.0710  146.3410 C   0  0  0  0  0  2  0  0  0  0  0  0
  160.5720  206.0350  144.8960 C   0  0  0  0  0  2  0  0  0  0  0  0
  161.0110  206.9880  146.0000 C   0  0  0  0  0  2  0  0  0  0  0  0
  161.0140  206.3490  147.3670 C   0  0  0  0  0  0  0  0  0  0  0  0
  161.0250  207.2820  148.5420 C   0  0  0  0  0  2  0  0  0  0  0  0
  161.9650  209.4820  148.5750 O   0  0  0  0  0  1  0  0  0  0  0  0
  162.2920  208.1250  148.5670 C   0  0  0  0  0  2  0  0  0  0  0  0
  160.8200  205.6750  152.2760 C   0  0  0  0  0  2  0  0  0  0  0  0
  162.8530  206.7760  151.7760 O   0  0  0  0  0  0  0  0  0  0  0  0
  161.6980  206.8870  152.2670 C   0  0  0  0  0  0  0  0  0  0  0  0
  160.3050  210.7010  153.7000 C   0  0  0  0  0  0  0  0  0  0  0  0
  161.1000  209.2740  151.9210 C   0  0  0  0  0  3  0  0  0  0  0  0
  160.9490  207.3030  155.1910 C   0  0  0  0  0  1  0  0  0  0  0  0
  159.8260  212.0260  154.1710 C   0  0  0  0  0  1  0  0  0  0  0  0
  160.6500  210.5200  152.3620 C   0  0  0  0  0  3  0  0  0  0  0  0
  160.8590  208.3830  154.1650 C   0  0  0  0  0  0  0  0  0  0  0  0
  161.2120  208.1860  152.8050 C   0  0  0  0  0  0  0  0  0  0  0  0
  160.4090  209.6370  154.5960 C   0  0  0  0  0  3  0  0  0  0  0  0
  1  4  1  0  0  0  0
  2  3  1  0  0  0  0
  2  8  2  0  0  0  0
  3 10  2  0  0  0  0
  4 11  2  0  0  0  0
  5  7  1  0  0  0  0
  5 21  1  1  0  0  0
  6  1  1  0  0  0  0
  8  5  1  0  0  0  0
  9  1  2  0  0  0  0
  9  3  1  0  0  0  0
 10 11  1  0  0  0  0
 10  7  1  0  0  0  0
 12  2  1  0  0  0  0
 13 14  1  0  0  0  0
 14 12  1  0  0  0  0
 15 13  1  0  0  0  0
 15 16  1  0  0  0  0
 16 17  1  0  0  0  0
 17 12  2  0  0  0  0
 17 18  1  0  0  0  0
 18 20  1  0  0  0  0
 20 19  1  0  0  0  0
 22 23  2  0  0  0  0
 23 21  1  0  0  0  0
 23 30  1  0  0  0  0
 24 27  1  0  0  0  0
 24 31  1  0  0  0  0
 25 28  1  0  0  0  0
 25 30  2  0  0  0  0
 28 24  2  0  0  0  0
 29 31  2  0  0  0  0
 29 26  1  0  0  0  0
 30 29  1  0  0  0  0
M  END
>  <MODEL>
3

>  <REMARK>
 VINA RESULT:      -8.1      2.842      8.081
  Name = 
  6 active torsions:
  status: ('A' for Active; 'I' for Inactive)
    1  A    between atoms: C_4  and  C_5
    2  A    between atoms: C_9  and  C_22
    3  A    between atoms: C_9  and  C_23
    4  A    between atoms: C_15  and  C_23
    5  A    between atoms: C_29  and  C_31
    6  A    between atoms: C_30  and  C_31
                            x       y       z     vdW  Elec       q    Type
                         _______ _______ _______ _____ _____    ______ ____

>  <TORSDO>
F 6

$$$$
=
 OpenBabel11052422333D

 31 34  0  0  1  0  0  0  0  0999 V2000
  160.8950  208.5560  154.4170 C   0  0  0  0  0  0  0  0  0  0  0  0
  161.5490  207.6830  150.7820 C   0  0  0  0  0  0  0  0  0  0  0  0
  161.2930  208.4340  152.0370 C   0  0  0  0  0  0  0  0  0  0  0  0
  160.7840  209.9080  154.3250 N   0  0  0  0  0  0  0  0  0  0  0  0
  162.1690  209.7730  149.6990 C   0  0  1  0  0  3  0  0  0  0  0  0
  160.7510  207.9160  155.6780 N   0  0  0  0  0  1  0  0  0  0  0  0
  161.2270  210.5250  150.6450 C   0  0  0  0  0  2  0  0  0  0  0  0
  161.8920  208.3350  149.7070 N   0  0  0  0  0  0  0  0  0  0  0  0
  161.1450  207.7940  153.2730 C   0  0  0  0  0  3  0  0  0  0  0  0
  161.1760  209.8320  151.9710 C   0  0  0  0  0  0  0  0  0  0  0  0
  160.9090  210.5560  153.1350 C   0  0  0  0  0  3  0  0  0  0  0  0
  161.3700  206.2160  150.7070 C   0  0  0  0  0  0  0  0  0  0  0  0
  161.8990  203.9370  151.6700 C   0  0  0  0  0  2  0  0  0  0  0  0
  161.6890  205.4200  151.9500 C   0  0  0  0  0  2  0  0  0  0  0  0
  160.7270  203.4220  150.8540 C   0  0  0  0  0  2  0  0  0  0  0  0
  160.7200  204.1200  149.5000 C   0  0  0  0  0  2  0  0  0  0  0  0
  160.8440  205.6200  149.6080 C   0  0  0  0  0  0  0  0  0  0  0  0
  160.4400  206.4130  148.4000 C   0  0  0  0  0  2  0  0  0  0  0  0
  162.3120  206.3550  146.9110 O   0  0  0  0  0  1  0  0  0  0  0  0
  161.0380  205.8290  147.1280 C   0  0  0  0  0  2  0  0  0  0  0  0
  162.0530  210.3080  148.2810 C   0  0  0  0  0  2  0  0  0  0  0  0
  163.0020  212.4420  148.6570 O   0  0  0  0  0  0  0  0  0  0  0  0
  161.9840  211.8030  148.2810 C   0  0  0  0  0  0  0  0  0  0  0  0
  158.4330  213.7830  146.8630 C   0  0  0  0  0  0  0  0  0  0  0  0
  160.2560  212.2320  146.5460 C   0  0  0  0  0  3  0  0  0  0  0  0
  160.5040  213.8300  150.0080 C   0  0  0  0  0  1  0  0  0  0  0  0
  157.2090  214.4530  146.3530 C   0  0  0  0  0  1  0  0  0  0  0  0
  159.1070  212.8600  146.0650 C   0  0  0  0  0  3  0  0  0  0  0  0
  160.0600  213.4520  148.6340 C   0  0  0  0  0  0  0  0  0  0  0  0
  160.7540  212.5100  147.8310 C   0  0  0  0  0  0  0  0  0  0  0  0
  158.9080  214.0760  148.1410 C   0  0  0  0  0  3  0  0  0  0  0  0
  1  6  1  0  0  0  0
  2  3  1  0  0  0  0
  3  9  1  0  0  0  0
  4  1  1  0  0  0  0
  5 21  1  6  0  0  0
  5  8  1  0  0  0  0
  5  7  1  0  0  0  0
  7 10  1  0  0  0  0
  8  2  2  0  0  0  0
  9  1  2  0  0  0  0
 10  3  2  0  0  0  0
 10 11  1  0  0  0  0
 11  4  2  0  0  0  0
 12  2  1  0  0  0  0
 12 14  1  0  0  0  0
 13 14  1  0  0  0  0
 15 13  1  0  0  0  0
 16 17  1  0  0  0  0
 16 15  1  0  0  0  0
 17 12  2  0  0  0  0
 18 17  1  0  0  0  0
 19 20  1  0  0  0  0
 20 18  1  0  0  0  0
 23 21  1  0  0  0  0
 23 22  2  0  0  0  0
 24 31  1  0  0  0  0
 25 30  2  0  0  0  0
 27 24  1  0  0  0  0
 28 25  1  0  0  0  0
 28 24  2  0  0  0  0
 29 26  1  0  0  0  0
 30 23  1  0  0  0  0
 30 29  1  0  0  0  0
 31 29  2  0  0  0  0
M  END
>  <MODEL>
4

>  <REMARK>
 VINA RESULT:      -8.0      2.317      7.220
  Name = 
  6 active torsions:
  status: ('A' for Active; 'I' for Inactive)
    1  A    between atoms: C_4  and  C_5
    2  A    between atoms: C_9  and  C_22
    3  A    between atoms: C_9  and  C_23
    4  A    between atoms: C_15  and  C_23
    5  A    between atoms: C_29  and  C_31
    6  A    between atoms: C_30  and  C_31
                            x       y       z     vdW  Elec       q    Type
                         _______ _______ _______ _____ _____    ______ ____

>  <TORSDO>
F 6

$$$$
=
 OpenBabel11052422333D

 31 34  0  0  1  0  0  0  0  0999 V2000
  161.5840  212.4810  149.2880 C   0  0  0  0  0  0  0  0  0  0  0  0
  161.1530  209.8390  151.9770 C   0  0  0  0  0  0  0  0  0  0  0  0
  161.4580  210.5210  150.6940 C   0  0  0  0  0  0  0  0  0  0  0  0
  162.0150  211.7080  148.2550 N   0  0  0  0  0  0  0  0  0  0  0  0
  162.3570  207.8790  151.1810 C   0  0  1  0  0  3  0  0  0  0  0  0
  161.4260  213.8830  149.1070 N   0  0  0  0  0  1  0  0  0  0  0  0
  161.9900  208.2570  149.7420 C   0  0  0  0  0  2  0  0  0  0  0  0
  161.5290  208.6030  152.1480 N   0  0  0  0  0  0  0  0  0  0  0  0
  161.2910  211.9010  150.5240 C   0  0  0  0  0  3  0  0  0  0  0  0
  161.9060  209.7460  149.6120 C   0  0  0  0  0  0  0  0  0  0  0  0
  162.1730  210.3630  148.3880 C   0  0  0  0  0  3  0  0  0  0  0  0
  160.3860  210.5110  153.0490 C   0  0  0  0  0  0  0  0  0  0  0  0
  158.3610  211.8800  153.7040 C   0  0  0  0  0  2  0  0  0  0  0  0
  158.9380  210.8320  152.7610 C   0  0  0  0  0  2  0  0  0  0  0  0
  158.6610  211.4690  155.1340 C   0  0  0  0  0  2  0  0  0  0  0  0
  160.1700  211.4810  155.3480 C   0  0  0  0  0  2  0  0  0  0  0  0
  160.9240  210.7370  154.2740 C   0  0  0  0  0  0  0  0  0  0  0  0
  162.3350  210.3410  154.5990 C   0  0  0  0  0  2  0  0  0  0  0  0
  162.3300  209.0710  156.6260 O   0  0  0  0  0  1  0  0  0  0  0  0
  162.5770  210.3400  156.1010 C   0  0  0  0  0  2  0  0  0  0  0  0
  162.2120  206.3820  151.4020 C   0  0  0  0  0  2  0  0  0  0  0  0
  159.9940  206.5640  150.5980 O   0  0  0  0  0  0  0  0  0  0  0  0
  161.0290  205.8470  150.6580 C   0  0  0  0  0  0  0  0  0  0  0  0
  161.1630  201.9370  148.8590 C   0  0  0  0  0  0  0  0  0  0  0  0
  160.9240  203.3680  150.7900 C   0  0  0  0  0  3  0  0  0  0  0  0
  161.4750  205.4950  147.6640 C   0  0  0  0  0  1  0  0  0  0  0  0
  161.2060  200.5780  148.2610 C   0  0  0  0  0  1  0  0  0  0  0  0
  160.9640  202.0900  150.2300 C   0  0  0  0  0  3  0  0  0  0  0  0
  161.2860  204.3480  148.6000 C   0  0  0  0  0  0  0  0  0  0  0  0
  161.0820  204.5160  149.9940 C   0  0  0  0  0  0  0  0  0  0  0  0
  161.3240  203.0620  148.0500 C   0  0  0  0  0  3  0  0  0  0  0  0
  1  9  1  0  0  0  0
  2  8  2  0  0  0  0
  2 12  1  0  0  0  0
  3  2  1  0  0  0  0
  4 11  1  0  0  0  0
  4  1  2  0  0  0  0
  5 21  1  6  0  0  0
  5  8  1  0  0  0  0
  6  1  1  0  0  0  0
  7  5  1  0  0  0  0
  9  3  2  0  0  0  0
 10  7  1  0  0  0  0
 10  3  1  0  0  0  0
 11 10  2  0  0  0  0
 12 17  2  0  0  0  0
 13 15  1  0  0  0  0
 14 12  1  0  0  0  0
 14 13  1  0  0  0  0
 15 16  1  0  0  0  0
 17 18  1  0  0  0  0
 17 16  1  0  0  0  0
 18 20  1  0  0  0  0
 20 19  1  0  0  0  0
 22 23  2  0  0  0  0
 23 21  1  0  0  0  0
 24 28  1  0  0  0  0
 26 29  1  0  0  0  0
 27 24  1  0  0  0  0
 28 25  2  0  0  0  0
 29 30  2  0  0  0  0
 30 23  1  0  0  0  0
 30 25  1  0  0  0  0
 31 29  1  0  0  0  0
 31 24  2  0  0  0  0
M  END
>  <MODEL>
5

>  <REMARK>
 VINA RESULT:      -7.9      2.283      4.275
  Name = 
  6 active torsions:
  status: ('A' for Active; 'I' for Inactive)
    1  A    between atoms: C_4  and  C_5
    2  A    between atoms: C_9  and  C_22
    3  A    between atoms: C_9  and  C_23
    4  A    between atoms: C_15  and  C_23
    5  A    between atoms: C_29  and  C_31
    6  A    between atoms: C_30  and  C_31
                            x       y       z     vdW  Elec       q    Type
                         _______ _______ _______ _____ _____    ______ ____

>  <TORSDO>
F 6

$$$$
=
 OpenBabel11052422333D

 31 34  0  0  1  0  0  0  0  0999 V2000
  161.0700  204.5090  149.0530 C   0  0  0  0  0  0  0  0  0  0  0  0
  161.5220  207.9150  150.6640 C   0  0  0  0  0  0  0  0  0  0  0  0
  161.5110  206.7980  149.6850 C   0  0  0  0  0  0  0  0  0  0  0  0
  161.5600  204.7620  147.8090 N   0  0  0  0  0  0  0  0  0  0  0  0
  161.8960  209.4720  148.8310 C   0  0  1  0  0  3  0  0  0  0  0  0
  160.5890  203.2100  149.3750 N   0  0  0  0  0  1  0  0  0  0  0  0
  162.6110  208.3610  148.0540 C   0  0  0  0  0  2  0  0  0  0  0  0
  161.7610  209.1260  150.2480 N   0  0  0  0  0  0  0  0  0  0  0  0
  161.0430  205.5210  150.0150 C   0  0  0  0  0  3  0  0  0  0  0  0
  162.0100  207.0330  148.3940 C   0  0  0  0  0  0  0  0  0  0  0  0
  162.0350  205.9900  147.4660 C   0  0  0  0  0  3  0  0  0  0  0  0
  161.3200  207.6790  152.1110 C   0  0  0  0  0  0  0  0  0  0  0  0
  161.1730  206.0200  154.0150 C   0  0  0  0  0  2  0  0  0  0  0  0
  161.7920  206.3550  152.6640 C   0  0  0  0  0  2  0  0  0  0  0  0
  161.3470  207.2080  154.9420 C   0  0  0  0  0  2  0  0  0  0  0  0
  160.5600  208.3890  154.3890 C   0  0  0  0  0  2  0  0  0  0  0  0
  160.8290  208.6460  152.9260 C   0  0  0  0  0  0  0  0  0  0  0  0
  160.4400  209.9960  152.4010 C   0  0  0  0  0  2  0  0  0  0  0  0
  159.9600  212.2450  153.0620 O   0  0  0  0  0  1  0  0  0  0  0  0
  160.5960  211.0710  153.4670 C   0  0  0  0  0  2  0  0  0  0  0  0
  162.6370  210.7920  148.6950 C   0  0  0  0  0  2  0  0  0  0  0  0
  161.1820  212.3190  149.7660 O   0  0  0  0  0  0  0  0  0  0  0  0
  161.6780  211.9400  148.6720 C   0  0  0  0  0  0  0  0  0  0  0  0
  160.5920  213.8210  144.9530 C   0  0  0  0  0  0  0  0  0  0  0  0
  160.3110  212.0780  146.6000 C   0  0  0  0  0  3  0  0  0  0  0  0
  163.0980  214.4520  147.6930 C   0  0  0  0  0  1  0  0  0  0  0  0
  160.2000  214.4530  143.6670 C   0  0  0  0  0  1  0  0  0  0  0  0
  159.9410  212.6700  145.3920 C   0  0  0  0  0  3  0  0  0  0  0  0
  161.9920  213.7950  146.9370 C   0  0  0  0  0  0  0  0  0  0  0  0
  161.3350  212.6230  147.3940 C   0  0  0  0  0  0  0  0  0  0  0  0
  161.6130  214.3800  145.7230 C   0  0  0  0  0  3  0  0  0  0  0  0
  1  6  1  0  0  0  0
  1  9  1  0  0  0  0
  2 12  1  0  0  0  0
  3  9  2  0  0  0  0
  3  2  1  0  0  0  0
  4  1  2  0  0  0  0
  5 21  1  1  0  0  0
  5  8  1  0  0  0  0
  7 10  1  0  0  0  0
  7  5  1  0  0  0  0
  8  2  2  0  0  0  0
 10  3  1  0  0  0  0
 11  4  1  0  0  0  0
 11 10  2  0  0  0  0
 12 14  1  0  0  0  0
 12 17  2  0  0  0  0
 13 15  1  0  0  0  0
 14 13  1  0  0  0  0
 16 15  1  0  0  0  0
 17 16  1  0  0  0  0
 18 17  1  0  0  0  0
 18 20  1  0  0  0  0
 19 20  1  0  0  0  0
 23 21  1  0  0  0  0
 23 22  2  0  0  0  0
 24 28  2  0  0  0  0
 24 31  1  0  0  0  0
 25 30  2  0  0  0  0
 27 24  1  0  0  0  0
 28 25  1  0  0  0  0
 29 30  1  0  0  0  0
 29 26  1  0  0  0  0
 30 23  1  0  0  0  0
 31 29  2  0  0  0  0
M  END
>  <MODEL>
6

>  <REMARK>
 VINA RESULT:      -7.9      3.177      7.797
  Name = 
  6 active torsions:
  status: ('A' for Active; 'I' for Inactive)
    1  A    between atoms: C_4  and  C_5
    2  A    between atoms: C_9  and  C_22
    3  A    between atoms: C_9  and  C_23
    4  A    between atoms: C_15  and  C_23
    5  A    between atoms: C_29  and  C_31
    6  A    between atoms: C_30  and  C_31
                            x       y       z     vdW  Elec       q    Type
                         _______ _______ _______ _____ _____    ______ ____

>  <TORSDO>
F 6

$$$$
=
 OpenBabel11052422333D

 31 34  0  0  1  0  0  0  0  0999 V2000
  160.9860  205.0670  149.0690 C   0  0  0  0  0  0  0  0  0  0  0  0
  161.4890  208.3930  150.8260 C   0  0  0  0  0  0  0  0  0  0  0  0
  161.4710  207.3170  149.8030 C   0  0  0  0  0  0  0  0  0  0  0  0
  161.5080  205.3570  147.8470 N   0  0  0  0  0  0  0  0  0  0  0  0
  161.9400  210.0120  149.0650 C   0  0  1  0  0  3  0  0  0  0  0  0
  160.4660  203.7690  149.3300 N   0  0  0  0  0  1  0  0  0  0  0  0
  162.6430  208.9150  148.2580 C   0  0  0  0  0  2  0  0  0  0  0  0
  161.7670  209.6130  150.4640 N   0  0  0  0  0  0  0  0  0  0  0  0
  160.9640  206.0400  150.0710 C   0  0  0  0  0  3  0  0  0  0  0  0
  162.0020  207.5900  148.5320 C   0  0  0  0  0  0  0  0  0  0  0  0
  162.0200  206.5850  147.5630 C   0  0  0  0  0  3  0  0  0  0  0  0
  161.2510  208.1040  152.2580 C   0  0  0  0  0  0  0  0  0  0  0  0
  161.1990  206.3970  154.1230 C   0  0  0  0  0  2  0  0  0  0  0  0
  161.8370  206.8250  152.8080 C   0  0  0  0  0  2  0  0  0  0  0  0
  161.2070  207.5760  155.0790 C   0  0  0  0  0  2  0  0  0  0  0  0
  160.3240  208.6800  154.5110 C   0  0  0  0  0  2  0  0  0  0  0  0
  160.6270  208.9960  153.0680 C   0  0  0  0  0  0  0  0  0  0  0  0
  160.1200  210.3100  152.5490 C   0  0  0  0  0  2  0  0  0  0  0  0
  159.7000  212.5800  153.1770 O   0  0  0  0  0  1  0  0  0  0  0  0
  160.4390  211.4440  153.5120 C   0  0  0  0  0  2  0  0  0  0  0  0
  162.7160  211.3170  148.9970 C   0  0  0  0  0  2  0  0  0  0  0  0
  162.7380  212.6230  147.0240 O   0  0  0  0  0  0  0  0  0  0  0  0
  162.0750  212.2670  148.0350 C   0  0  0  0  0  0  0  0  0  0  0  0
  158.1010  213.7300  148.8130 C   0  0  0  0  0  0  0  0  0  0  0  0
  160.3630  213.2770  149.5270 C   0  0  0  0  0  3  0  0  0  0  0  0
  159.9160  212.2060  145.8860 C   0  0  0  0  0  1  0  0  0  0  0  0
  156.7360  214.2400  149.1040 C   0  0  0  0  0  1  0  0  0  0  0  0
  159.0810  213.7570  149.8020 C   0  0  0  0  0  3  0  0  0  0  0  0
  159.6820  212.7390  147.2600 C   0  0  0  0  0  0  0  0  0  0  0  0
  160.6900  212.7620  148.2600 C   0  0  0  0  0  0  0  0  0  0  0  0
  158.4010  213.2230  147.5480 C   0  0  0  0  0  3  0  0  0  0  0  0
  1  6  1  0  0  0  0
  1  9  1  0  0  0  0
  2 12  1  0  0  0  0
  3  9  2  0  0  0  0
  3  2  1  0  0  0  0
  4  1  2  0  0  0  0
  5 21  1  1  0  0  0
  5  8  1  0  0  0  0
  7 10  1  0  0  0  0
  7  5  1  0  0  0  0
  8  2  2  0  0  0  0
 10  3  1  0  0  0  0
 11  4  1  0  0  0  0
 11 10  2  0  0  0  0
 12 14  1  0  0  0  0
 12 17  2  0  0  0  0
 13 15  1  0  0  0  0
 14 13  1  0  0  0  0
 16 15  1  0  0  0  0
 17 16  1  0  0  0  0
 18 17  1  0  0  0  0
 18 20  1  0  0  0  0
 19 20  1  0  0  0  0
 22 23  2  0  0  0  0
 23 30  1  0  0  0  0
 23 21  1  0  0  0  0
 24 27  1  0  0  0  0
 24 28  1  0  0  0  0
 25 28  2  0  0  0  0
 26 29  1  0  0  0  0
 29 31  1  0  0  0  0
 29 30  2  0  0  0  0
 30 25  1  0  0  0  0
 31 24  2  0  0  0  0
M  END
>  <MODEL>
7

>  <REMARK>
 VINA RESULT:      -7.7      2.840      7.612
  Name = 
  6 active torsions:
  status: ('A' for Active; 'I' for Inactive)
    1  A    between atoms: C_4  and  C_5
    2  A    between atoms: C_9  and  C_22
    3  A    between atoms: C_9  and  C_23
    4  A    between atoms: C_15  and  C_23
    5  A    between atoms: C_29  and  C_31
    6  A    between atoms: C_30  and  C_31
                            x       y       z     vdW  Elec       q    Type
                         _______ _______ _______ _____ _____    ______ ____

>  <TORSDO>
F 6

$$$$
=
 OpenBabel11052422333D

 31 34  0  0  1  0  0  0  0  0999 V2000
  161.3340  200.7340  148.4730 C   0  0  0  0  0  0  0  0  0  0  0  0
  161.2080  204.5270  148.5020 C   0  0  0  0  0  0  0  0  0  0  0  0
  161.1660  203.1020  148.9190 C   0  0  0  0  0  0  0  0  0  0  0  0
  161.0330  200.4720  149.7730 N   0  0  0  0  0  0  0  0  0  0  0  0
  161.2800  205.1760  150.8460 C   0  0  1  0  0  3  0  0  0  0  0  0
  161.5790  199.6620  147.5710 N   0  0  0  0  0  1  0  0  0  0  0  0
  160.5020  203.9050  151.2050 C   0  0  0  0  0  2  0  0  0  0  0  0
  161.1990  205.4590  149.4120 N   0  0  0  0  0  0  0  0  0  0  0  0
  161.4000  202.0540  148.0210 C   0  0  0  0  0  3  0  0  0  0  0  0
  160.8580  202.8040  150.2560 C   0  0  0  0  0  0  0  0  0  0  0  0
  160.7870  201.4700  150.6650 C   0  0  0  0  0  3  0  0  0  0  0  0
  161.2060  204.9160  147.0740 C   0  0  0  0  0  0  0  0  0  0  0  0
  161.7280  204.2920  144.6780 C   0  0  0  0  0  2  0  0  0  0  0  0
  161.3040  203.8030  146.0570 C   0  0  0  0  0  2  0  0  0  0  0  0
  160.8420  205.4570  144.2790 C   0  0  0  0  0  2  0  0  0  0  0  0
  161.0820  206.6150  145.2390 C   0  0  0  0  0  2  0  0  0  0  0  0
  161.0190  206.2030  146.6890 C   0  0  0  0  0  0  0  0  0  0  0  0
  160.8310  207.3050  147.6900 C   0  0  0  0  0  2  0  0  0  0  0  0
  161.9810  208.8890  149.0660 O   0  0  0  0  0  1  0  0  0  0  0  0
  162.1490  207.9970  148.0060 C   0  0  0  0  0  2  0  0  0  0  0  0
  160.7620  206.3690  151.6330 C   0  0  0  0  0  2  0  0  0  0  0  0
  162.5500  205.8280  153.0850 O   0  0  0  0  0  0  0  0  0  0  0  0
  161.5160  206.5280  152.9160 C   0  0  0  0  0  0  0  0  0  0  0  0
  160.1740  209.2280  155.9910 C   0  0  0  0  0  0  0  0  0  0  0  0
  160.5170  206.9920  155.1440 C   0  0  0  0  0  3  0  0  0  0  0  0
  161.7150  209.5480  152.5690 C   0  0  0  0  0  1  0  0  0  0  0  0
  159.7050  210.1400  157.0650 C   0  0  0  0  0  1  0  0  0  0  0  0
  160.0760  207.8480  156.1550 C   0  0  0  0  0  3  0  0  0  0  0  0
  161.1600  208.9040  153.7950 C   0  0  0  0  0  0  0  0  0  0  0  0
  161.0650  207.4970  153.9520 C   0  0  0  0  0  0  0  0  0  0  0  0
  160.7140  209.7520  154.8150 C   0  0  0  0  0  3  0  0  0  0  0  0
  1  4  1  0  0  0  0
  2  3  1  0  0  0  0
  2  8  2  0  0  0  0
  3 10  2  0  0  0  0
  4 11  2  0  0  0  0
  5  7  1  0  0  0  0
  5 21  1  1  0  0  0
  6  1  1  0  0  0  0
  8  5  1  0  0  0  0
  9  1  2  0  0  0  0
  9  3  1  0  0  0  0
 10 11  1  0  0  0  0
 10  7  1  0  0  0  0
 12  2  1  0  0  0  0
 13 14  1  0  0  0  0
 14 12  1  0  0  0  0
 15 13  1  0  0  0  0
 15 16  1  0  0  0  0
 16 17  1  0  0  0  0
 17 12  2  0  0  0  0
 17 18  1  0  0  0  0
 18 20  1  0  0  0  0
 20 19  1  0  0  0  0
 21 23  1  0  0  0  0
 23 22  2  0  0  0  0
 23 30  1  0  0  0  0
 24 28  1  0  0  0  0
 24 27  1  0  0  0  0
 25 28  2  0  0  0  0
 26 29  1  0  0  0  0
 29 30  2  0  0  0  0
 29 31  1  0  0  0  0
 30 25  1  0  0  0  0
 31 24  2  0  0  0  0
M  END
>  <MODEL>
8

>  <REMARK>
 VINA RESULT:      -7.6      3.018      8.142
  Name = 
  6 active torsions:
  status: ('A' for Active; 'I' for Inactive)
    1  A    between atoms: C_4  and  C_5
    2  A    between atoms: C_9  and  C_22
    3  A    between atoms: C_9  and  C_23
    4  A    between atoms: C_15  and  C_23
    5  A    between atoms: C_29  and  C_31
    6  A    between atoms: C_30  and  C_31
                            x       y       z     vdW  Elec       q    Type
                         _______ _______ _______ _____ _____    ______ ____

>  <TORSDO>
F 6

$$$$
=
 OpenBabel11052422333D

 31 34  0  0  1  0  0  0  0  0999 V2000
  159.8850  212.3900  153.3220 C   0  0  0  0  0  0  0  0  0  0  0  0
  161.2820  208.8630  153.4170 C   0  0  0  0  0  0  0  0  0  0  0  0
  160.8280  210.1980  152.9500 C   0  0  0  0  0  0  0  0  0  0  0  0
  159.9720  212.6490  151.9890 N   0  0  0  0  0  0  0  0  0  0  0  0
  162.4070  208.5370  151.2830 C   0  0  1  0  0  3  0  0  0  0  0  0
  159.3600  213.3740  154.2030 N   0  0  0  0  0  1  0  0  0  0  0  0
  161.3670  209.4430  150.6150 C   0  0  0  0  0  2  0  0  0  0  0  0
  161.9560  208.0980  152.6060 N   0  0  0  0  0  0  0  0  0  0  0  0
  160.3050  211.1570  153.8250 C   0  0  0  0  0  3  0  0  0  0  0  0
  160.9090  210.4920  151.5790 C   0  0  0  0  0  0  0  0  0  0  0  0
  160.4630  211.7310  151.1140 C   0  0  0  0  0  3  0  0  0  0  0  0
  160.9420  208.3580  154.7660 C   0  0  0  0  0  0  0  0  0  0  0  0
  159.3590  207.0280  156.2230 C   0  0  0  0  0  2  0  0  0  0  0  0
  159.9800  207.1960  154.8420 C   0  0  0  0  0  2  0  0  0  0  0  0
  160.4660  207.0210  157.2610 C   0  0  0  0  0  2  0  0  0  0  0  0
  161.1540  208.3800  157.2610 C   0  0  0  0  0  2  0  0  0  0  0  0
  161.5450  208.8450  155.8800 C   0  0  0  0  0  0  0  0  0  0  0  0
  162.5680  209.9390  155.8060 C   0  0  0  0  0  2  0  0  0  0  0  0
  164.1480  211.1200  157.1600 O   0  0  0  0  0  1  0  0  0  0  0  0
  162.9160  210.4660  157.1910 C   0  0  0  0  0  2  0  0  0  0  0  0
  162.7070  207.3250  150.4170 C   0  0  0  0  0  2  0  0  0  0  0  0
  160.5530  207.5190  149.4570 O   0  0  0  0  0  0  0  0  0  0  0  0
  161.4440  206.7320  149.8750 C   0  0  0  0  0  0  0  0  0  0  0  0
  160.8800  202.4630  149.8460 C   0  0  0  0  0  0  0  0  0  0  0  0
  160.9850  204.5720  151.0170 C   0  0  0  0  0  3  0  0  0  0  0  0
  161.6280  205.1280  147.2910 C   0  0  0  0  0  1  0  0  0  0  0  0
  160.6820  200.9910  149.8600 C   0  0  0  0  0  1  0  0  0  0  0  0
  160.7980  203.1890  151.0320 C   0  0  0  0  0  3  0  0  0  0  0  0
  161.3370  204.5060  148.6170 C   0  0  0  0  0  0  0  0  0  0  0  0
  161.2560  205.2570  149.8190 C   0  0  0  0  0  0  0  0  0  0  0  0
  161.1490  203.1200  148.6440 C   0  0  0  0  0  3  0  0  0  0  0  0
  1  9  1  0  0  0  0
  1  6  1  0  0  0  0
  2 12  1  0  0  0  0
  3  2  1  0  0  0  0
  3  9  2  0  0  0  0
  4  1  2  0  0  0  0
  5 21  1  6  0  0  0
  5  8  1  0  0  0  0
  7  5  1  0  0  0  0
  7 10  1  0  0  0  0
  8  2  2  0  0  0  0
 10  3  1  0  0  0  0
 11 10  2  0  0  0  0
 11  4  1  0  0  0  0
 12 14  1  0  0  0  0
 12 17  2  0  0  0  0
 13 15  1  0  0  0  0
 14 13  1  0  0  0  0
 16 15  1  0  0  0  0
 17 16  1  0  0  0  0
 18 17  1  0  0  0  0
 18 20  1  0  0  0  0
 19 20  1  0  0  0  0
 22 23  2  0  0  0  0
 23 21  1  0  0  0  0
 24 27  1  0  0  0  0
 24 28  1  0  0  0  0
 25 28  2  0  0  0  0
 26 29  1  0  0  0  0
 29 31  1  0  0  0  0
 29 30  2  0  0  0  0
 30 23  1  0  0  0  0
 30 25  1  0  0  0  0
 31 24  2  0  0  0  0
M  END
>  <MODEL>
9

>  <REMARK>
 VINA RESULT:      -7.6      2.345      4.435
  Name = 
  6 active torsions:
  status: ('A' for Active; 'I' for Inactive)
    1  A    between atoms: C_4  and  C_5
    2  A    between atoms: C_9  and  C_22
    3  A    between atoms: C_9  and  C_23
    4  A    between atoms: C_15  and  C_23
    5  A    between atoms: C_29  and  C_31
    6  A    between atoms: C_30  and  C_31
                            x       y       z     vdW  Elec       q    Type
                         _______ _______ _______ _____ _____    ______ ____

>  <TORSDO>
F 6

$$$$
