=
 OpenBabel11052422013D

 30 34  0  0  1  0  0  0  0  0999 V2000
  160.8850  207.7800  154.1030 C   0  0  0  0  0  0  0  0  0  0  0  0
  159.0670  210.4290  156.1190 C   0  0  0  0  0  2  0  0  0  0  0  0
  162.1720  210.6390  153.7750 N   0  0  0  0  0  2  0  0  0  0  0  0
  161.1460  207.8210  152.7020 C   0  0  0  0  0  0  0  0  0  0  0  0
  160.8370  206.5570  154.7720 C   0  0  0  0  0  3  0  0  0  0  0  0
  160.8230  206.0370  148.2730 C   0  0  0  0  0  2  0  0  0  0  0  0
  161.3510  205.3670  152.7320 C   0  0  0  0  0  0  0  0  0  0  0  0
  161.3410  208.9850  150.4190 C   0  0  0  0  0  2  0  0  0  0  0  0
  163.2500  210.3780  151.7470 O   0  0  0  0  0  0  0  0  0  0  0  0
  161.0590  205.3640  154.0980 C   0  0  0  0  0  3  0  0  0  0  0  0
  161.4040  206.5860  152.0310 C   0  0  0  0  0  0  0  0  0  0  0  0
  159.7920  211.7300  156.2810 C   0  0  0  0  0  3  0  0  0  0  0  0
  162.2990  207.8610  150.0640 C   0  0  2  0  0  3  0  0  0  0  0  0
  161.3190  207.3890  147.7760 C   0  0  0  0  0  2  0  0  0  0  0  0
  159.4210  209.7340  154.8190 C   0  0  0  0  0  2  0  0  0  0  0  0
  161.9880  209.8660  154.9970 C   0  0  2  0  0  3  0  0  0  0  0  0
  161.0860  211.8400  156.3540 N   0  0  0  0  0  0  0  0  0  0  0  0
  160.7390  208.9910  154.9770 C   0  0  2  0  0  3  0  0  0  0  0  0
  159.9530  209.8010  152.1060 O   0  0  0  0  0  1  0  0  0  0  0  0
  162.2700  210.0580  152.4740 C   0  0  0  0  0  0  0  0  0  0  0  0
  161.1770  209.1550  151.9390 C   0  0  1  0  0  0  0  0  0  0  0  0
  162.5630  207.8170  148.5570 C   0  0  0  0  0  2  0  0  0  0  0  0
  160.4820  206.1210  149.7570 C   0  0  0  0  0  2  0  0  0  0  0  0
  162.0310  210.7760  156.1870 C   0  0  0  0  0  0  0  0  0  0  0  0
  163.0020  210.6860  156.9830 O   0  0  0  0  0  0  0  0  0  0  0  0
  161.7200  206.5350  150.5600 C   0  0  2  0  0  3  0  0  0  0  0  0
  161.5980  204.1660  152.0510 O   0  0  0  0  0  0  0  0  0  0  0  0
  160.6250  203.1370  151.8960 C   0  0  0  0  0  2  0  0  0  0  0  0
  161.1030  202.1150  150.8810 C   0  0  0  0  0  2  0  0  0  0  0  0
  160.4860  202.4190  149.5320 C   0  0  0  0  0  1  0  0  0  0  0  0
  1  5  1  0  0  0  0
  1 18  1  0  0  0  0
  2 12  1  0  0  0  0
  4  1  2  0  0  0  0
  6 23  1  0  0  0  0
  7 10  1  0  0  0  0
  8 21  1  0  0  0  0
  9 20  2  0  0  0  0
 10  5  2  0  0  0  0
 11  4  1  0  0  0  0
 11  7  2  0  0  0  0
 12 17  2  0  0  0  0
 13 22  1  6  0  0  0
 13  8  1  0  0  0  0
 13 26  1  0  0  0  0
 14  6  1  0  0  0  0
 14 22  1  0  0  0  0
 15  2  1  0  0  0  0
 16  3  1  6  0  0  0
 16 24  1  0  0  0  0
 18 15  1  6  0  0  0
 18 16  1  0  0  0  0
 20  3  1  0  0  0  0
 21 19  1  1  0  0  0
 21 20  1  0  0  0  0
 21  4  1  0  0  0  0
 24 17  1  0  0  0  0
 24 25  2  0  0  0  0
 26 23  1  6  0  0  0
 26 11  1  0  0  0  0
 27  7  1  0  0  0  0
 28 27  1  0  0  0  0
 29 28  1  0  0  0  0
 30 29  1  0  0  0  0
M  END
>  <MODEL>
1

>  <REMARK>
 VINA RESULT:      -8.1      0.000      0.000
  Name = 
  3 active torsions:
  status: ('A' for Active; 'I' for Inactive)
    1  A    between atoms: O_6  and  C_8
    2  A    between atoms: O_6  and  C_21
    3  A    between atoms: C_9  and  C_21
                            x       y       z     vdW  Elec       q    Type
                         _______ _______ _______ _____ _____    ______ ____

>  <TORSDO>
F 3

$$$$
=
 OpenBabel11052422013D

 30 34  0  0  1  0  0  0  0  0999 V2000
  161.3900  211.5170  149.5770 C   0  0  0  0  0  0  0  0  0  0  0  0
  162.9240  213.7960  146.9620 C   0  0  0  0  0  2  0  0  0  0  0  0
  159.2440  213.3430  148.1620 N   0  0  0  0  0  2  0  0  0  0  0  0
  160.5830  211.9250  150.6800 C   0  0  0  0  0  0  0  0  0  0  0  0
  162.0910  210.3130  149.6290 C   0  0  0  0  0  3  0  0  0  0  0  0
  159.6270  212.2070  155.3600 C   0  0  0  0  0  2  0  0  0  0  0  0
  161.2000  209.8340  151.8240 C   0  0  0  0  0  0  0  0  0  0  0  0
  159.1190  213.5860  151.9840 C   0  0  0  0  0  2  0  0  0  0  0  0
  157.5800  213.3470  149.7650 O   0  0  0  0  0  0  0  0  0  0  0  0
  162.0060  209.4830  150.7380 C   0  0  0  0  0  3  0  0  0  0  0  0
  160.4820  211.0440  151.7990 C   0  0  0  0  0  0  0  0  0  0  0  0
  161.9550  214.4510  146.0250 C   0  0  0  0  0  3  0  0  0  0  0  0
  158.5110  212.3540  152.6320 C   0  0  2  0  0  3  0  0  0  0  0  0
  158.5700  213.2440  155.0030 C   0  0  0  0  0  2  0  0  0  0  0  0
  162.3130  213.5300  148.3240 C   0  0  0  0  0  2  0  0  0  0  0  0
  160.1450  212.3710  147.5540 C   0  0  2  0  0  3  0  0  0  0  0  0
  160.8420  213.9080  145.6300 N   0  0  0  0  0  0  0  0  0  0  0  0
  161.4850  212.2550  148.2740 C   0  0  2  0  0  3  0  0  0  0  0  0
  160.7340  214.2980  150.4600 O   0  0  0  0  0  1  0  0  0  0  0  0
  158.8170  213.2890  149.5230 C   0  0  0  0  0  0  0  0  0  0  0  0
  159.8220  213.2610  150.6560 C   0  0  1  0  0  0  0  0  0  0  0  0
  157.6860  212.7300  153.8650 C   0  0  0  0  0  2  0  0  0  0  0  0
  160.4960  211.9070  154.1440 C   0  0  0  0  0  2  0  0  0  0  0  0
  160.3020  212.6640  146.0930 C   0  0  0  0  0  0  0  0  0  0  0  0
  159.8220  211.8540  145.2580 O   0  0  0  0  0  0  0  0  0  0  0  0
  159.6290  211.3770  152.9950 C   0  0  2  0  0  3  0  0  0  0  0  0
  161.0940  208.9880  152.9380 O   0  0  0  0  0  0  0  0  0  0  0  0
  160.9960  207.5710  152.8420 C   0  0  0  0  0  2  0  0  0  0  0  0
  160.8830  206.9600  154.2260 C   0  0  0  0  0  2  0  0  0  0  0  0
  160.6950  208.0620  155.2480 C   0  0  0  0  0  1  0  0  0  0  0  0
  1  5  2  0  0  0  0
  1  4  1  0  0  0  0
  2 15  1  0  0  0  0
  3 20  1  0  0  0  0
  4 11  2  0  0  0  0
  5 10  1  0  0  0  0
  7 27  1  0  0  0  0
 10  7  2  0  0  0  0
 11  7  1  0  0  0  0
 11 26  1  0  0  0  0
 12  2  1  0  0  0  0
 13  8  1  1  0  0  0
 13 26  1  0  0  0  0
 13 22  1  0  0  0  0
 14  6  1  0  0  0  0
 16 24  1  6  0  0  0
 16  3  1  0  0  0  0
 16 18  1  0  0  0  0
 17 12  2  0  0  0  0
 17 24  1  0  0  0  0
 18 15  1  1  0  0  0
 18  1  1  0  0  0  0
 20  9  2  0  0  0  0
 20 21  1  0  0  0  0
 21 19  1  6  0  0  0
 21  4  1  0  0  0  0
 21  8  1  0  0  0  0
 22 14  1  0  0  0  0
 23  6  1  0  0  0  0
 25 24  2  0  0  0  0
 26 23  1  1  0  0  0
 28 27  1  0  0  0  0
 28 29  1  0  0  0  0
 29 30  1  0  0  0  0
M  END
>  <MODEL>
2

>  <REMARK>
 VINA RESULT:      -5.3      4.256      7.498
  Name = 
  3 active torsions:
  status: ('A' for Active; 'I' for Inactive)
    1  A    between atoms: O_6  and  C_8
    2  A    between atoms: O_6  and  C_21
    3  A    between atoms: C_9  and  C_21
                            x       y       z     vdW  Elec       q    Type
                         _______ _______ _______ _____ _____    ______ ____

>  <TORSDO>
F 3

$$$$
