=
 OpenBabel11062408343D

 32 34  0  0  1  0  0  0  0  0999 V2000
  161.9720  206.9100  152.9900 C   0  0  0  0  0  2  0  0  0  0  0  0
  160.2320  208.1030  154.5640 C   0  0  2  0  0  3  0  0  0  0  0  0
  161.3060  207.3470  155.3200 C   0  0  0  0  0  2  0  0  0  0  0  0
  160.8100  206.8000  153.9940 C   0  0  2  0  0  3  0  0  0  0  0  0
  160.7210  209.3720  153.9040 C   0  0  0  0  0  0  0  0  0  0  0  0
  161.7690  209.9470  154.3080 O   0  0  0  0  0  0  0  0  0  0  0  0
  160.0070  209.9500  152.8450 O   0  0  0  0  0  0  0  0  0  0  0  0
  159.2360  211.1530  152.9370 C   0  0  1  0  0  3  0  0  0  0  0  0
  158.6750  211.3780  154.3390 C   0  0  0  0  0  2  0  0  0  0  0  0
  159.2280  212.6470  154.9600 C   0  0  2  0  0  3  0  0  0  0  0  0
  160.0830  212.3280  156.0150 O   0  0  0  0  0  1  0  0  0  0  0  0
  158.0800  213.4840  155.4820 C   0  0  0  0  0  1  0  0  0  0  0  0
  160.0520  212.3530  152.4710 C   0  0  0  0  0  2  0  0  0  0  0  0
  160.1720  213.2290  150.2570 O   0  0  0  0  0  0  0  0  0  0  0  0
  158.0620  213.2790  151.2260 N   0  0  0  0  0  1  0  0  0  0  0  0
  159.4490  212.9650  151.2530 C   0  0  0  0  0  0  0  0  0  0  0  0
  161.5830  206.7170  151.5790 N   0  0  0  0  0  0  0  0  0  0  0  0
  161.6920  205.3430  151.2340 N   0  0  0  0  0  0  0  0  0  0  0  0
  160.8430  204.5800  152.1610 C   0  0  0  0  0  2  0  0  0  0  0  0
  161.0400  201.9600  147.8230 C   0  0  0  0  0  3  0  0  0  0  0  0
  161.1030  205.1380  149.8980 C   0  0  0  0  0  2  0  0  0  0  0  0
  160.9640  201.3490  150.1660 C   0  0  0  0  0  3  0  0  0  0  0  0
  161.0110  202.6990  150.5230 C   0  0  0  0  0  0  0  0  0  0  0  0
  161.0680  203.0790  151.9730 C   0  0  0  0  0  2  0  0  0  0  0  0
  161.1010  203.6840  149.5210 C   0  0  0  0  0  0  0  0  0  0  0  0
  160.9760  200.9790  148.8170 C   0  0  0  0  0  3  0  0  0  0  0  0
  161.0980  203.3120  148.1750 C   0  0  0  0  0  3  0  0  0  0  0  0
  162.4620  207.5330  150.7280 C   0  0  0  0  0  2  0  0  0  0  0  0
  161.6750  208.6680  150.0950 C   0  0  1  0  0  3  0  0  0  0  0  0
  162.2420  210.0030  150.5430 C   0  0  0  0  0  1  0  0  0  0  0  0
  162.7440  207.6200  148.2350 O   0  0  0  0  0  1  0  0  0  0  0  0
  161.7640  208.5500  148.5850 C   0  0  0  0  0  2  0  0  0  0  0  0
  2  5  1  6  0  0  0
  2  3  1  0  0  0  0
  4  1  1  6  0  0  0
  4  2  1  0  0  0  0
  4  3  1  0  0  0  0
  5  6  2  0  0  0  0
  7  8  1  0  0  0  0
  7  5  1  0  0  0  0
  8 13  1  1  0  0  0
  8  9  1  0  0  0  0
  9 10  1  0  0  0  0
 10 12  1  1  0  0  0
 10 11  1  0  0  0  0
 14 16  2  0  0  0  0
 15 16  1  0  0  0  0
 16 13  1  0  0  0  0
 17  1  1  0  0  0  0
 18 17  1  0  0  0  0
 18 19  1  0  0  0  0
 20 27  2  0  0  0  0
 20 26  1  0  0  0  0
 21 18  1  0  0  0  0
 22 23  1  0  0  0  0
 23 24  1  0  0  0  0
 24 19  1  0  0  0  0
 25 21  1  0  0  0  0
 25 23  2  0  0  0  0
 26 22  2  0  0  0  0
 27 25  1  0  0  0  0
 28 17  1  0  0  0  0
 29 30  1  1  0  0  0
 29 28  1  0  0  0  0
 31 32  1  0  0  0  0
 32 29  1  0  0  0  0
M  END
>  <MODEL>
1

>  <REMARK>
 VINA RESULT:      -7.3      0.000      0.000
  Name = 
  13 active torsions:
  status: ('A' for Active; 'I' for Inactive)
    1  A    between atoms: C_1  and  N_5
    2  A    between atoms: C_1  and  C_30
    3  A    between atoms: N_2  and  N_5
    4  A    between atoms: C_3  and  C_8
    5  A    between atoms: C_3  and  C_20
    6  A    between atoms: C_4  and  C_24
    7  A    between atoms: N_5  and  C_14
    8  A    between atoms: C_13  and  C_14
    9  A    between atoms: C_13  and  C_29
   10  A    between atoms: C_15  and  C_20
   11  A    between atoms: C_15  and  C_26
   12  A    between atoms: O_16  and  C_20
   13  A    between atoms: O_16  and  C_24
                            x       y       z     vdW  Elec       q    Type
                         _______ _______ _______ _____ _____    ______ ____

>  <TORSDO>
F 13

$$$$
=
 OpenBabel11062408343D

 32 34  0  0  1  0  0  0  0  0999 V2000
  161.8960  206.8590  153.0780 C   0  0  0  0  0  2  0  0  0  0  0  0
  160.2140  207.9070  154.8100 C   0  0  2  0  0  3  0  0  0  0  0  0
  161.2220  206.9700  155.4450 C   0  0  0  0  0  2  0  0  0  0  0  0
  160.7130  206.6730  154.0450 C   0  0  2  0  0  3  0  0  0  0  0  0
  160.7980  209.2270  154.3630 C   0  0  0  0  0  0  0  0  0  0  0  0
  161.8680  209.6640  154.8690 O   0  0  0  0  0  0  0  0  0  0  0  0
  160.1500  210.0050  153.3920 O   0  0  0  0  0  0  0  0  0  0  0  0
  159.7020  211.3510  153.5860 C   0  0  1  0  0  3  0  0  0  0  0  0
  158.9380  211.8880  152.3780 C   0  0  0  0  0  2  0  0  0  0  0  0
  159.2190  213.3630  152.1580 C   0  0  2  0  0  3  0  0  0  0  0  0
  158.0330  214.0930  152.2530 O   0  0  0  0  0  1  0  0  0  0  0  0
  159.8130  213.5540  150.7800 C   0  0  0  0  0  1  0  0  0  0  0  0
  158.8720  211.4640  154.8590 C   0  0  0  0  0  2  0  0  0  0  0  0
  160.1440  211.7530  156.8550 O   0  0  0  0  0  0  0  0  0  0  0  0
  159.5680  213.7180  155.7580 N   0  0  0  0  0  1  0  0  0  0  0  0
  159.5720  212.3000  155.8760 C   0  0  0  0  0  0  0  0  0  0  0  0
  161.5550  206.6960  151.6520 N   0  0  0  0  0  0  0  0  0  0  0  0
  161.6710  205.3300  151.2820 N   0  0  0  0  0  0  0  0  0  0  0  0
  160.8280  204.5450  152.1980 C   0  0  0  0  0  2  0  0  0  0  0  0
  161.0350  202.0030  147.8140 C   0  0  0  0  0  3  0  0  0  0  0  0
  161.0820  205.1440  149.9440 C   0  0  0  0  0  2  0  0  0  0  0  0
  160.9660  201.3500  150.1460 C   0  0  0  0  0  3  0  0  0  0  0  0
  161.0050  202.6940  150.5270 C   0  0  0  0  0  0  0  0  0  0  0  0
  161.0620  203.0490  151.9830 C   0  0  0  0  0  2  0  0  0  0  0  0
  161.0870  203.6970  149.5420 C   0  0  0  0  0  0  0  0  0  0  0  0
  160.9780  201.0040  148.7910 C   0  0  0  0  0  3  0  0  0  0  0  0
  161.0850  203.3490  148.1890 C   0  0  0  0  0  3  0  0  0  0  0  0
  162.4630  207.5260  150.8470 C   0  0  0  0  0  2  0  0  0  0  0  0
  161.7170  208.7200  150.2750 C   0  0  1  0  0  3  0  0  0  0  0  0
  162.1860  209.9960  150.9520 C   0  0  0  0  0  1  0  0  0  0  0  0
  162.6480  207.6520  148.3540 O   0  0  0  0  0  1  0  0  0  0  0  0
  161.9810  208.8000  148.7830 C   0  0  0  0  0  2  0  0  0  0  0  0
  2  5  1  6  0  0  0
  2  3  1  0  0  0  0
  4  1  1  6  0  0  0
  4  2  1  0  0  0  0
  4  3  1  0  0  0  0
  5  6  2  0  0  0  0
  7  8  1  0  0  0  0
  7  5  1  0  0  0  0
  8  9  1  6  0  0  0
  8 13  1  0  0  0  0
 10 12  1  6  0  0  0
 10 11  1  0  0  0  0
 10  9  1  0  0  0  0
 13 16  1  0  0  0  0
 15 16  1  0  0  0  0
 16 14  2  0  0  0  0
 17  1  1  0  0  0  0
 18 17  1  0  0  0  0
 18 19  1  0  0  0  0
 20 27  2  0  0  0  0
 20 26  1  0  0  0  0
 21 18  1  0  0  0  0
 22 23  1  0  0  0  0
 23 24  1  0  0  0  0
 24 19  1  0  0  0  0
 25 21  1  0  0  0  0
 25 23  2  0  0  0  0
 26 22  2  0  0  0  0
 27 25  1  0  0  0  0
 28 17  1  0  0  0  0
 29 28  1  0  0  0  0
 29 30  1  1  0  0  0
 31 32  1  0  0  0  0
 32 29  1  0  0  0  0
M  END
>  <MODEL>
2

>  <REMARK>
 VINA RESULT:      -7.1      1.160      2.235
  Name = 
  13 active torsions:
  status: ('A' for Active; 'I' for Inactive)
    1  A    between atoms: C_1  and  N_5
    2  A    between atoms: C_1  and  C_30
    3  A    between atoms: N_2  and  N_5
    4  A    between atoms: C_3  and  C_8
    5  A    between atoms: C_3  and  C_20
    6  A    between atoms: C_4  and  C_24
    7  A    between atoms: N_5  and  C_14
    8  A    between atoms: C_13  and  C_14
    9  A    between atoms: C_13  and  C_29
   10  A    between atoms: C_15  and  C_20
   11  A    between atoms: C_15  and  C_26
   12  A    between atoms: O_16  and  C_20
   13  A    between atoms: O_16  and  C_24
                            x       y       z     vdW  Elec       q    Type
                         _______ _______ _______ _____ _____    ______ ____

>  <TORSDO>
F 13

$$$$
=
 OpenBabel11062408343D

 32 34  0  0  1  0  0  0  0  0999 V2000
  160.9180  205.3830  150.8860 C   0  0  0  0  0  2  0  0  0  0  0  0
  161.5720  202.8430  151.1070 C   0  0  2  0  0  3  0  0  0  0  0  0
  160.6030  203.3080  152.1760 C   0  0  0  0  0  2  0  0  0  0  0  0
  161.6550  204.2730  151.6590 C   0  0  2  0  0  3  0  0  0  0  0  0
  160.9560  202.7120  149.7330 C   0  0  0  0  0  0  0  0  0  0  0  0
  159.8030  202.2220  149.5860 O   0  0  0  0  0  0  0  0  0  0  0  0
  161.6640  203.1120  148.5900 O   0  0  0  0  0  0  0  0  0  0  0  0
  161.0630  203.5100  147.3530 C   0  0  1  0  0  3  0  0  0  0  0  0
  161.2260  205.0040  147.0820 C   0  0  0  0  0  2  0  0  0  0  0  0
  161.3350  205.2880  145.5960 C   0  0  2  0  0  3  0  0  0  0  0  0
  162.5680  205.8780  145.3140 O   0  0  0  0  0  1  0  0  0  0  0  0
  160.2250  206.2310  145.1890 C   0  0  0  0  0  1  0  0  0  0  0  0
  161.6060  202.6780  146.1980 C   0  0  0  0  0  2  0  0  0  0  0  0
  161.0010  200.4350  146.7350 O   0  0  0  0  0  0  0  0  0  0  0  0
  159.8090  201.3870  144.9830 N   0  0  0  0  0  1  0  0  0  0  0  0
  160.7950  201.4420  146.0070 C   0  0  0  0  0  0  0  0  0  0  0  0
  161.3820  206.7520  151.1860 N   0  0  0  0  0  0  0  0  0  0  0  0
  160.7860  207.2070  152.3920 N   0  0  0  0  0  0  0  0  0  0  0  0
  161.5550  206.6430  153.5130 C   0  0  0  0  0  2  0  0  0  0  0  0
  159.5770  211.0280  155.1200 C   0  0  0  0  0  3  0  0  0  0  0  0
  160.9600  208.6680  152.4890 C   0  0  0  0  0  2  0  0  0  0  0  0
  160.0040  208.8820  156.1620 C   0  0  0  0  0  3  0  0  0  0  0  0
  160.4520  208.3750  154.9390 C   0  0  0  0  0  0  0  0  0  0  0  0
  160.8500  206.9320  154.8380 C   0  0  0  0  0  2  0  0  0  0  0  0
  160.4360  209.1940  153.7940 C   0  0  0  0  0  0  0  0  0  0  0  0
  159.5700  210.2090  156.2530 C   0  0  0  0  0  3  0  0  0  0  0  0
  160.0140  210.5220  153.8930 C   0  0  0  0  0  3  0  0  0  0  0  0
  161.0180  207.6330  150.0670 C   0  0  0  0  0  2  0  0  0  0  0  0
  162.2560  208.3210  149.5160 C   0  0  1  0  0  3  0  0  0  0  0  0
  162.8540  207.4910  148.3940 C   0  0  0  0  0  1  0  0  0  0  0  0
  162.1850  210.6690  149.9400 O   0  0  0  0  0  1  0  0  0  0  0  0
  161.8690  209.6920  148.9940 C   0  0  0  0  0  2  0  0  0  0  0  0
  1 17  1  0  0  0  0
  2  5  1  6  0  0  0
  2  4  1  0  0  0  0
  2  3  1  0  0  0  0
  4  1  1  6  0  0  0
  4  3  1  0  0  0  0
  6  5  2  0  0  0  0
  7  5  1  0  0  0  0
  8 13  1  6  0  0  0
  8  7  1  0  0  0  0
  9  8  1  0  0  0  0
 10 12  1  1  0  0  0
 10  9  1  0  0  0  0
 11 10  1  0  0  0  0
 15 16  1  0  0  0  0
 16 13  1  0  0  0  0
 16 14  2  0  0  0  0
 17 18  1  0  0  0  0
 18 21  1  0  0  0  0
 18 19  1  0  0  0  0
 19 24  1  0  0  0  0
 20 26  1  0  0  0  0
 21 25  1  0  0  0  0
 22 26  2  0  0  0  0
 23 22  1  0  0  0  0
 24 23  1  0  0  0  0
 25 27  1  0  0  0  0
 25 23  2  0  0  0  0
 27 20  2  0  0  0  0
 28 17  1  0  0  0  0
 29 30  1  6  0  0  0
 29 28  1  0  0  0  0
 32 29  1  0  0  0  0
 32 31  1  0  0  0  0
M  END
>  <MODEL>
3

>  <REMARK>
 VINA RESULT:      -7.0      2.891      8.422
  Name = 
  13 active torsions:
  status: ('A' for Active; 'I' for Inactive)
    1  A    between atoms: C_1  and  N_5
    2  A    between atoms: C_1  and  C_30
    3  A    between atoms: N_2  and  N_5
    4  A    between atoms: C_3  and  C_8
    5  A    between atoms: C_3  and  C_20
    6  A    between atoms: C_4  and  C_24
    7  A    between atoms: N_5  and  C_14
    8  A    between atoms: C_13  and  C_14
    9  A    between atoms: C_13  and  C_29
   10  A    between atoms: C_15  and  C_20
   11  A    between atoms: C_15  and  C_26
   12  A    between atoms: O_16  and  C_20
   13  A    between atoms: O_16  and  C_24
                            x       y       z     vdW  Elec       q    Type
                         _______ _______ _______ _____ _____    ______ ____

>  <TORSDO>
F 13

$$$$
=
 OpenBabel11062408343D

 32 34  0  0  1  0  0  0  0  0999 V2000
  160.6370  208.6400  153.0180 C   0  0  0  0  0  2  0  0  0  0  0  0
  160.8500  211.2360  153.3970 C   0  0  2  0  0  3  0  0  0  0  0  0
  161.0440  210.8220  151.9520 C   0  0  0  0  0  2  0  0  0  0  0  0
  161.5230  209.8980  153.0570 C   0  0  2  0  0  3  0  0  0  0  0  0
  159.4200  211.1390  153.8780 C   0  0  0  0  0  0  0  0  0  0  0  0
  159.1540  210.6860  155.0240 O   0  0  0  0  0  0  0  0  0  0  0  0
  158.3580  211.5290  153.0490 O   0  0  0  0  0  0  0  0  0  0  0  0
  157.8210  212.8550  152.9760 C   0  0  1  0  0  3  0  0  0  0  0  0
  157.5230  213.4370  154.3570 C   0  0  0  0  0  2  0  0  0  0  0  0
  156.0570  213.2860  154.7160 C   0  0  2  0  0  3  0  0  0  0  0  0
  155.7950  211.9710  155.1020 O   0  0  0  0  0  1  0  0  0  0  0  0
  155.2130  213.6300  153.5090 C   0  0  0  0  0  1  0  0  0  0  0  0
  158.7450  213.7670  152.1800 C   0  0  0  0  0  2  0  0  0  0  0  0
  157.5310  213.1740  150.2160 O   0  0  0  0  0  0  0  0  0  0  0  0
  159.8040  213.5330  149.9010 N   0  0  0  0  0  1  0  0  0  0  0  0
  158.6420  213.4840  150.7200 C   0  0  0  0  0  0  0  0  0  0  0  0
  161.3770  207.3650  153.0970 N   0  0  0  0  0  0  0  0  0  0  0  0
  161.0090  206.5280  152.0110 N   0  0  0  0  0  0  0  0  0  0  0  0
  161.7810  206.9570  150.8330 C   0  0  0  0  0  2  0  0  0  0  0  0
  160.8220  202.0090  150.2630 C   0  0  0  0  0  3  0  0  0  0  0  0
  161.4560  205.1520  152.2950 C   0  0  0  0  0  2  0  0  0  0  0  0
  160.9620  203.8910  148.7430 C   0  0  0  0  0  3  0  0  0  0  0  0
  161.1740  204.7520  149.8240 C   0  0  0  0  0  0  0  0  0  0  0  0
  161.2890  206.2280  149.5820 C   0  0  0  0  0  2  0  0  0  0  0  0
  161.1820  204.2390  151.1350 C   0  0  0  0  0  0  0  0  0  0  0  0
  160.7890  202.5210  148.9620 C   0  0  0  0  0  3  0  0  0  0  0  0
  161.0230  202.8670  151.3480 C   0  0  0  0  0  3  0  0  0  0  0  0
  161.0660  206.7140  154.3780 C   0  0  0  0  0  2  0  0  0  0  0  0
  160.6150  207.7460  155.3970 C   0  0  1  0  0  3  0  0  0  0  0  0
  159.4240  207.2180  156.1770 C   0  0  0  0  0  1  0  0  0  0  0  0
  161.9300  209.4200  156.4770 O   0  0  0  0  0  1  0  0  0  0  0  0
  161.7620  208.0400  156.3450 C   0  0  0  0  0  2  0  0  0  0  0  0
  1 17  1  0  0  0  0
  2  5  1  1  0  0  0
  3  4  1  0  0  0  0
  3  2  1  0  0  0  0
  4  1  1  1  0  0  0
  4  2  1  0  0  0  0
  5  6  2  0  0  0  0
  7  5  1  0  0  0  0
  8 13  1  1  0  0  0
  8  7  1  0  0  0  0
  8  9  1  0  0  0  0
  9 10  1  0  0  0  0
 10 12  1  6  0  0  0
 10 11  1  0  0  0  0
 14 16  2  0  0  0  0
 15 16  1  0  0  0  0
 16 13  1  0  0  0  0
 17 28  1  0  0  0  0
 18 21  1  0  0  0  0
 18 17  1  0  0  0  0
 19 18  1  0  0  0  0
 20 27  1  0  0  0  0
 22 26  1  0  0  0  0
 22 23  2  0  0  0  0
 23 25  1  0  0  0  0
 24 23  1  0  0  0  0
 24 19  1  0  0  0  0
 25 27  2  0  0  0  0
 25 21  1  0  0  0  0
 26 20  2  0  0  0  0
 28 29  1  0  0  0  0
 29 30  1  1  0  0  0
 29 32  1  0  0  0  0
 32 31  1  0  0  0  0
M  END
>  <MODEL>
4

>  <REMARK>
 VINA RESULT:      -6.9      1.991      3.682
  Name = 
  13 active torsions:
  status: ('A' for Active; 'I' for Inactive)
    1  A    between atoms: C_1  and  N_5
    2  A    between atoms: C_1  and  C_30
    3  A    between atoms: N_2  and  N_5
    4  A    between atoms: C_3  and  C_8
    5  A    between atoms: C_3  and  C_20
    6  A    between atoms: C_4  and  C_24
    7  A    between atoms: N_5  and  C_14
    8  A    between atoms: C_13  and  C_14
    9  A    between atoms: C_13  and  C_29
   10  A    between atoms: C_15  and  C_20
   11  A    between atoms: C_15  and  C_26
   12  A    between atoms: O_16  and  C_20
   13  A    between atoms: O_16  and  C_24
                            x       y       z     vdW  Elec       q    Type
                         _______ _______ _______ _____ _____    ______ ____

>  <TORSDO>
F 13

$$$$
=
 OpenBabel11062408343D

 32 34  0  0  1  0  0  0  0  0999 V2000
  160.5960  208.7500  153.0600 C   0  0  0  0  0  2  0  0  0  0  0  0
  160.7640  211.3680  153.2740 C   0  0  2  0  0  3  0  0  0  0  0  0
  160.9520  210.8690  151.8560 C   0  0  0  0  0  2  0  0  0  0  0  0
  161.4590  210.0240  153.0110 C   0  0  2  0  0  3  0  0  0  0  0  0
  159.3410  211.2760  153.7750 C   0  0  0  0  0  0  0  0  0  0  0  0
  159.0750  210.6870  154.8580 O   0  0  0  0  0  0  0  0  0  0  0  0
  158.2830  211.8230  153.0340 O   0  0  0  0  0  0  0  0  0  0  0  0
  158.2030  213.1870  152.6060 C   0  0  1  0  0  3  0  0  0  0  0  0
  157.6710  213.3180  151.1800 C   0  0  0  0  0  2  0  0  0  0  0  0
  158.4970  214.2990  150.3700 C   0  0  2  0  0  3  0  0  0  0  0  0
  158.4840  213.9340  149.0240 O   0  0  0  0  0  1  0  0  0  0  0  0
  159.9220  214.2840  150.8780 C   0  0  0  0  0  1  0  0  0  0  0  0
  157.3710  214.0090  153.5830 C   0  0  0  0  0  2  0  0  0  0  0  0
  156.0840  212.4170  154.8040 O   0  0  0  0  0  0  0  0  0  0  0  0
  154.9040  213.6280  153.2110 N   0  0  0  0  0  1  0  0  0  0  0  0
  156.0980  213.3100  153.9160 C   0  0  0  0  0  0  0  0  0  0  0  0
  161.3640  207.4910  153.1170 N   0  0  0  0  0  0  0  0  0  0  0  0
  161.0030  206.6580  152.0240 N   0  0  0  0  0  0  0  0  0  0  0  0
  161.7850  207.0900  150.8550 C   0  0  0  0  0  2  0  0  0  0  0  0
  160.8180  202.1480  150.2570 C   0  0  0  0  0  3  0  0  0  0  0  0
  161.4430  205.2800  152.3070 C   0  0  0  0  0  2  0  0  0  0  0  0
  160.9760  204.0350  148.7460 C   0  0  0  0  0  3  0  0  0  0  0  0
  161.1810  204.8910  149.8320 C   0  0  0  0  0  0  0  0  0  0  0  0
  161.3020  206.3680  149.5970 C   0  0  0  0  0  2  0  0  0  0  0  0
  161.1770  204.3730  151.1410 C   0  0  0  0  0  0  0  0  0  0  0  0
  160.7970  202.6640  148.9580 C   0  0  0  0  0  3  0  0  0  0  0  0
  161.0120  203.0010  151.3480 C   0  0  0  0  0  3  0  0  0  0  0  0
  161.0800  206.8180  154.3920 C   0  0  0  0  0  2  0  0  0  0  0  0
  160.6360  207.8300  155.4340 C   0  0  1  0  0  3  0  0  0  0  0  0
  159.4460  207.2900  156.2070 C   0  0  0  0  0  1  0  0  0  0  0  0
  162.1670  209.4440  156.3020 O   0  0  0  0  0  1  0  0  0  0  0  0
  161.7880  208.1030  156.3840 C   0  0  0  0  0  2  0  0  0  0  0  0
  1 17  1  0  0  0  0
  2  5  1  1  0  0  0
  3  4  1  0  0  0  0
  3  2  1  0  0  0  0
  4  1  1  1  0  0  0
  4  2  1  0  0  0  0
  5  6  2  0  0  0  0
  7  5  1  0  0  0  0
  8  9  1  6  0  0  0
  8  7  1  0  0  0  0
  8 13  1  0  0  0  0
 10 12  1  1  0  0  0
 10  9  1  0  0  0  0
 11 10  1  0  0  0  0
 13 16  1  0  0  0  0
 15 16  1  0  0  0  0
 16 14  2  0  0  0  0
 17 28  1  0  0  0  0
 18 21  1  0  0  0  0
 18 17  1  0  0  0  0
 19 18  1  0  0  0  0
 20 27  1  0  0  0  0
 22 26  1  0  0  0  0
 22 23  2  0  0  0  0
 23 25  1  0  0  0  0
 24 23  1  0  0  0  0
 24 19  1  0  0  0  0
 25 27  2  0  0  0  0
 25 21  1  0  0  0  0
 26 20  2  0  0  0  0
 28 29  1  0  0  0  0
 29 30  1  1  0  0  0
 29 32  1  0  0  0  0
 31 32  1  0  0  0  0
M  END
>  <MODEL>
5

>  <REMARK>
 VINA RESULT:      -6.6      2.074      4.245
  Name = 
  13 active torsions:
  status: ('A' for Active; 'I' for Inactive)
    1  A    between atoms: C_1  and  N_5
    2  A    between atoms: C_1  and  C_30
    3  A    between atoms: N_2  and  N_5
    4  A    between atoms: C_3  and  C_8
    5  A    between atoms: C_3  and  C_20
    6  A    between atoms: C_4  and  C_24
    7  A    between atoms: N_5  and  C_14
    8  A    between atoms: C_13  and  C_14
    9  A    between atoms: C_13  and  C_29
   10  A    between atoms: C_15  and  C_20
   11  A    between atoms: C_15  and  C_26
   12  A    between atoms: O_16  and  C_20
   13  A    between atoms: O_16  and  C_24
                            x       y       z     vdW  Elec       q    Type
                         _______ _______ _______ _____ _____    ______ ____

>  <TORSDO>
F 13

$$$$
=
 OpenBabel11062408343D

 32 34  0  0  1  0  0  0  0  0999 V2000
  161.1920  208.0900  150.6260 C   0  0  0  0  0  2  0  0  0  0  0  0
  162.1340  210.1340  151.9920 C   0  0  2  0  0  3  0  0  0  0  0  0
  162.2330  210.3180  150.4910 C   0  0  0  0  0  2  0  0  0  0  0  0
  162.4010  208.9290  151.0780 C   0  0  2  0  0  3  0  0  0  0  0  0
  160.7270  210.2380  152.5330 C   0  0  0  0  0  0  0  0  0  0  0  0
  159.8650  210.9560  151.9560 O   0  0  0  0  0  0  0  0  0  0  0  0
  160.3560  209.5560  153.7010 O   0  0  0  0  0  0  0  0  0  0  0  0
  160.8600  209.8410  155.0100 C   0  0  1  0  0  3  0  0  0  0  0  0
  160.8750  211.3380  155.3130 C   0  0  0  0  0  2  0  0  0  0  0  0
  159.5240  211.8150  155.8110 C   0  0  2  0  0  3  0  0  0  0  0  0
  158.8810  212.5490  154.8130 O   0  0  0  0  0  1  0  0  0  0  0  0
  159.7260  212.6940  157.0260 C   0  0  0  0  0  1  0  0  0  0  0  0
  160.0770  209.0720  156.0680 C   0  0  0  0  0  2  0  0  0  0  0  0
  162.1810  208.3190  156.9000 O   0  0  0  0  0  0  0  0  0  0  0  0
  160.4050  206.8620  157.2430 N   0  0  0  0  0  1  0  0  0  0  0  0
  160.9520  208.0850  156.7620 C   0  0  0  0  0  0  0  0  0  0  0  0
  161.4530  206.6410  150.5230 N   0  0  0  0  0  0  0  0  0  0  0  0
  161.1750  206.1950  149.2040 N   0  0  0  0  0  0  0  0  0  0  0  0
  162.0540  206.9370  148.2850 C   0  0  0  0  0  2  0  0  0  0  0  0
  161.0940  202.4480  146.1280 C   0  0  0  0  0  3  0  0  0  0  0  0
  161.5780  204.7820  149.0820 C   0  0  0  0  0  2  0  0  0  0  0  0
  161.3910  204.7000  145.2860 C   0  0  0  0  0  3  0  0  0  0  0  0
  161.5150  205.1770  146.5950 C   0  0  0  0  0  0  0  0  0  0  0  0
  161.6680  206.6490  146.8340 C   0  0  0  0  0  2  0  0  0  0  0  0
  161.3990  204.2840  147.6770 C   0  0  0  0  0  0  0  0  0  0  0  0
  161.1840  203.3370  145.0530 C   0  0  0  0  0  3  0  0  0  0  0  0
  161.2060  202.9200  147.4390 C   0  0  0  0  0  3  0  0  0  0  0  0
  160.6050  205.9350  151.4950 C   0  0  0  0  0  2  0  0  0  0  0  0
  161.4660  205.1550  152.4740 C   0  0  1  0  0  3  0  0  0  0  0  0
  161.5850  205.9180  153.7810 C   0  0  0  0  0  1  0  0  0  0  0  0
  161.3870  202.8470  151.8720 O   0  0  0  0  0  1  0  0  0  0  0  0
  160.8290  203.8010  152.7240 C   0  0  0  0  0  2  0  0  0  0  0  0
  2  5  1  6  0  0  0
  3  4  1  0  0  0  0
  3  2  1  0  0  0  0
  4  1  1  6  0  0  0
  4  2  1  0  0  0  0
  5  7  1  0  0  0  0
  6  5  2  0  0  0  0
  7  8  1  0  0  0  0
  8  9  1  1  0  0  0
  8 13  1  0  0  0  0
  9 10  1  0  0  0  0
 10 12  1  1  0  0  0
 11 10  1  0  0  0  0
 13 16  1  0  0  0  0
 16 14  2  0  0  0  0
 16 15  1  0  0  0  0
 17  1  1  0  0  0  0
 17 28  1  0  0  0  0
 18 17  1  0  0  0  0
 19 18  1  0  0  0  0
 20 27  1  0  0  0  0
 21 18  1  0  0  0  0
 22 23  2  0  0  0  0
 23 24  1  0  0  0  0
 23 25  1  0  0  0  0
 24 19  1  0  0  0  0
 25 21  1  0  0  0  0
 26 22  1  0  0  0  0
 26 20  2  0  0  0  0
 27 25  2  0  0  0  0
 28 29  1  0  0  0  0
 29 32  1  0  0  0  0
 29 30  1  1  0  0  0
 31 32  1  0  0  0  0
M  END
>  <MODEL>
6

>  <REMARK>
 VINA RESULT:      -6.5      2.373      4.431
  Name = 
  13 active torsions:
  status: ('A' for Active; 'I' for Inactive)
    1  A    between atoms: C_1  and  N_5
    2  A    between atoms: C_1  and  C_30
    3  A    between atoms: N_2  and  N_5
    4  A    between atoms: C_3  and  C_8
    5  A    between atoms: C_3  and  C_20
    6  A    between atoms: C_4  and  C_24
    7  A    between atoms: N_5  and  C_14
    8  A    between atoms: C_13  and  C_14
    9  A    between atoms: C_13  and  C_29
   10  A    between atoms: C_15  and  C_20
   11  A    between atoms: C_15  and  C_26
   12  A    between atoms: O_16  and  C_20
   13  A    between atoms: O_16  and  C_24
                            x       y       z     vdW  Elec       q    Type
                         _______ _______ _______ _____ _____    ______ ____

>  <TORSDO>
F 13

$$$$
=
 OpenBabel11062408343D

 32 34  0  0  1  0  0  0  0  0999 V2000
  161.2140  207.7510  150.2930 C   0  0  0  0  0  2  0  0  0  0  0  0
  162.2450  209.4830  151.9860 C   0  0  2  0  0  3  0  0  0  0  0  0
  162.1090  210.0280  150.5780 C   0  0  0  0  0  2  0  0  0  0  0  0
  162.4340  208.5580  150.7750 C   0  0  2  0  0  3  0  0  0  0  0  0
  160.9300  209.3350  152.7170 C   0  0  0  0  0  0  0  0  0  0  0  0
  160.7890  208.4650  153.6200 O   0  0  0  0  0  0  0  0  0  0  0  0
  159.8330  210.1450  152.3910 O   0  0  0  0  0  0  0  0  0  0  0  0
  159.5230  211.3950  153.0170 C   0  0  1  0  0  3  0  0  0  0  0  0
  160.3310  211.6200  154.2940 C   0  0  0  0  0  2  0  0  0  0  0  0
  159.4250  211.8870  155.4810 C   0  0  2  0  0  3  0  0  0  0  0  0
  160.0600  211.5000  156.6620 O   0  0  0  0  0  1  0  0  0  0  0  0
  158.1470  211.0930  155.3180 C   0  0  0  0  0  1  0  0  0  0  0  0
  159.7050  212.5480  152.0390 C   0  0  0  0  0  2  0  0  0  0  0  0
  157.6290  213.3060  151.1450 O   0  0  0  0  0  0  0  0  0  0  0  0
  158.3710  214.4510  153.0240 N   0  0  0  0  0  1  0  0  0  0  0  0
  158.5080  213.4360  152.0370 C   0  0  0  0  0  0  0  0  0  0  0  0
  161.3860  206.2860  150.3510 N   0  0  0  0  0  0  0  0  0  0  0  0
  161.0440  205.7120  149.0980 N   0  0  0  0  0  0  0  0  0  0  0  0
  161.8850  206.3460  148.0710 C   0  0  0  0  0  2  0  0  0  0  0  0
  160.7940  201.6740  146.4260 C   0  0  0  0  0  3  0  0  0  0  0  0
  161.4310  204.2890  149.1020 C   0  0  0  0  0  2  0  0  0  0  0  0
  161.0700  203.8260  145.3470 C   0  0  0  0  0  3  0  0  0  0  0  0
  161.2570  204.4310  146.5930 C   0  0  0  0  0  0  0  0  0  0  0  0
  161.4310  205.9180  146.6750 C   0  0  0  0  0  2  0  0  0  0  0  0
  161.1840  203.6530  147.7650 C   0  0  0  0  0  0  0  0  0  0  0  0
  160.8410  202.4490  145.2630 C   0  0  0  0  0  3  0  0  0  0  0  0
  160.9700  202.2750  147.6760 C   0  0  0  0  0  3  0  0  0  0  0  0
  160.5260  205.7480  151.4150 C   0  0  0  0  0  2  0  0  0  0  0  0
  161.3580  204.9750  152.4250 C   0  0  1  0  0  3  0  0  0  0  0  0
  161.2100  205.5970  153.8020 C   0  0  0  0  0  1  0  0  0  0  0  0
  161.7180  202.7420  151.6630 O   0  0  0  0  0  1  0  0  0  0  0  0
  160.8860  203.5340  152.4570 C   0  0  0  0  0  2  0  0  0  0  0  0
  1 17  1  0  0  0  0
  2  5  1  1  0  0  0
  3  4  1  0  0  0  0
  3  2  1  0  0  0  0
  4  1  1  1  0  0  0
  4  2  1  0  0  0  0
  5  6  2  0  0  0  0
  7  5  1  0  0  0  0
  7  8  1  0  0  0  0
  8 13  1  6  0  0  0
  8  9  1  0  0  0  0
  9 10  1  0  0  0  0
 10 12  1  6  0  0  0
 10 11  1  0  0  0  0
 14 16  2  0  0  0  0
 16 13  1  0  0  0  0
 16 15  1  0  0  0  0
 17 28  1  0  0  0  0
 18 21  1  0  0  0  0
 18 17  1  0  0  0  0
 19 18  1  0  0  0  0
 20 27  1  0  0  0  0
 22 23  2  0  0  0  0
 23 24  1  0  0  0  0
 23 25  1  0  0  0  0
 24 19  1  0  0  0  0
 25 21  1  0  0  0  0
 26 22  1  0  0  0  0
 26 20  2  0  0  0  0
 27 25  2  0  0  0  0
 28 29  1  0  0  0  0
 29 32  1  0  0  0  0
 29 30  1  1  0  0  0
 31 32  1  0  0  0  0
M  END
>  <MODEL>
7

>  <REMARK>
 VINA RESULT:      -6.5      1.890      3.389
  Name = 
  13 active torsions:
  status: ('A' for Active; 'I' for Inactive)
    1  A    between atoms: C_1  and  N_5
    2  A    between atoms: C_1  and  C_30
    3  A    between atoms: N_2  and  N_5
    4  A    between atoms: C_3  and  C_8
    5  A    between atoms: C_3  and  C_20
    6  A    between atoms: C_4  and  C_24
    7  A    between atoms: N_5  and  C_14
    8  A    between atoms: C_13  and  C_14
    9  A    between atoms: C_13  and  C_29
   10  A    between atoms: C_15  and  C_20
   11  A    between atoms: C_15  and  C_26
   12  A    between atoms: O_16  and  C_20
   13  A    between atoms: O_16  and  C_24
                            x       y       z     vdW  Elec       q    Type
                         _______ _______ _______ _____ _____    ______ ____

>  <TORSDO>
F 13

$$$$
=
 OpenBabel11062408343D

 32 34  0  0  1  0  0  0  0  0999 V2000
  161.2050  207.9280  150.2020 C   0  0  0  0  0  2  0  0  0  0  0  0
  162.1490  209.7370  151.8640 C   0  0  2  0  0  3  0  0  0  0  0  0
  162.1330  210.1990  150.4200 C   0  0  0  0  0  2  0  0  0  0  0  0
  162.4040  208.7370  150.7270 C   0  0  2  0  0  3  0  0  0  0  0  0
  160.7810  209.6600  152.5000 C   0  0  0  0  0  0  0  0  0  0  0  0
  160.4710  208.6930  153.2480 O   0  0  0  0  0  0  0  0  0  0  0  0
  159.8190  210.6510  152.2540 O   0  0  0  0  0  0  0  0  0  0  0  0
  159.4670  211.6950  153.1680 C   0  0  1  0  0  3  0  0  0  0  0  0
  159.4480  213.0690  152.5000 C   0  0  0  0  0  2  0  0  0  0  0  0
  159.2330  212.9530  151.0030 C   0  0  2  0  0  3  0  0  0  0  0  0
  160.3430  213.4530  150.3220 O   0  0  0  0  0  1  0  0  0  0  0  0
  158.0080  213.7520  150.6150 C   0  0  0  0  0  1  0  0  0  0  0  0
  158.1360  211.3930  153.8460 C   0  0  0  0  0  2  0  0  0  0  0  0
  157.4230  211.4960  156.1180 O   0  0  0  0  0  0  0  0  0  0  0  0
  159.5370  210.5920  155.7870 N   0  0  0  0  0  1  0  0  0  0  0  0
  158.3250  211.1620  155.3060 C   0  0  0  0  0  0  0  0  0  0  0  0
  161.4130  206.4670  150.1770 N   0  0  0  0  0  0  0  0  0  0  0  0
  161.0550  205.9520  148.9030 N   0  0  0  0  0  0  0  0  0  0  0  0
  161.8590  206.6570  147.8920 C   0  0  0  0  0  2  0  0  0  0  0  0
  160.8260  202.0550  146.0270 C   0  0  0  0  0  3  0  0  0  0  0  0
  161.4710  204.5390  148.8240 C   0  0  0  0  0  2  0  0  0  0  0  0
  161.0320  204.2660  145.0580 C   0  0  0  0  0  3  0  0  0  0  0  0
  161.2350  204.8080  146.3300 C   0  0  0  0  0  0  0  0  0  0  0  0
  161.3810  206.2930  146.4860 C   0  0  0  0  0  2  0  0  0  0  0  0
  161.2060  203.9690  147.4600 C   0  0  0  0  0  0  0  0  0  0  0  0
  160.8300  202.8900  144.9060 C   0  0  0  0  0  3  0  0  0  0  0  0
  161.0180  202.5930  147.3030 C   0  0  0  0  0  3  0  0  0  0  0  0
  160.5930  205.8510  151.2300 C   0  0  0  0  0  2  0  0  0  0  0  0
  161.4690  205.0510  152.1790 C   0  0  1  0  0  3  0  0  0  0  0  0
  161.5810  205.7700  153.5120 C   0  0  0  0  0  1  0  0  0  0  0  0
  161.5720  202.7230  151.6620 O   0  0  0  0  0  1  0  0  0  0  0  0
  160.8550  203.6790  152.3830 C   0  0  0  0  0  2  0  0  0  0  0  0
  2  5  1  6  0  0  0
  3  4  1  0  0  0  0
  3  2  1  0  0  0  0
  4  1  1  6  0  0  0
  4  2  1  0  0  0  0
  5  6  2  0  0  0  0
  7  5  1  0  0  0  0
  7  8  1  0  0  0  0
  8  9  1  6  0  0  0
  8 13  1  0  0  0  0
 10 12  1  6  0  0  0
 10  9  1  0  0  0  0
 11 10  1  0  0  0  0
 13 16  1  0  0  0  0
 16 15  1  0  0  0  0
 16 14  2  0  0  0  0
 17  1  1  0  0  0  0
 17 28  1  0  0  0  0
 18 17  1  0  0  0  0
 19 18  1  0  0  0  0
 20 27  1  0  0  0  0
 21 18  1  0  0  0  0
 22 23  2  0  0  0  0
 23 24  1  0  0  0  0
 23 25  1  0  0  0  0
 24 19  1  0  0  0  0
 25 21  1  0  0  0  0
 26 22  1  0  0  0  0
 26 20  2  0  0  0  0
 27 25  2  0  0  0  0
 28 29  1  0  0  0  0
 29 32  1  0  0  0  0
 29 30  1  1  0  0  0
 31 32  1  0  0  0  0
M  END
>  <MODEL>
8

>  <REMARK>
 VINA RESULT:      -6.4      2.159      4.142
  Name = 
  13 active torsions:
  status: ('A' for Active; 'I' for Inactive)
    1  A    between atoms: C_1  and  N_5
    2  A    between atoms: C_1  and  C_30
    3  A    between atoms: N_2  and  N_5
    4  A    between atoms: C_3  and  C_8
    5  A    between atoms: C_3  and  C_20
    6  A    between atoms: C_4  and  C_24
    7  A    between atoms: N_5  and  C_14
    8  A    between atoms: C_13  and  C_14
    9  A    between atoms: C_13  and  C_29
   10  A    between atoms: C_15  and  C_20
   11  A    between atoms: C_15  and  C_26
   12  A    between atoms: O_16  and  C_20
   13  A    between atoms: O_16  and  C_24
                            x       y       z     vdW  Elec       q    Type
                         _______ _______ _______ _____ _____    ______ ____

>  <TORSDO>
F 13

$$$$
=
 OpenBabel11062408343D

 32 34  0  0  1  0  0  0  0  0999 V2000
  161.6770  208.6890  148.9320 C   0  0  0  0  0  2  0  0  0  0  0  0
  162.3350  206.5700  147.5150 C   0  0  2  0  0  3  0  0  0  0  0  0
  163.1510  206.7210  148.7840 C   0  0  0  0  0  2  0  0  0  0  0  0
  162.7030  207.9660  148.0400 C   0  0  2  0  0  3  0  0  0  0  0  0
  160.9040  206.1450  147.7500 C   0  0  0  0  0  0  0  0  0  0  0  0
  160.0310  206.2920  146.8510 O   0  0  0  0  0  0  0  0  0  0  0  0
  160.5120  205.5980  148.9810 O   0  0  0  0  0  0  0  0  0  0  0  0
  160.8330  204.2770  149.4290 C   0  0  1  0  0  3  0  0  0  0  0  0
  161.5570  203.4600  148.3600 C   0  0  0  0  0  2  0  0  0  0  0  0
  160.7350  202.2590  147.9310 C   0  0  2  0  0  3  0  0  0  0  0  0
  161.2180  201.1060  148.5500 O   0  0  0  0  0  1  0  0  0  0  0  0
  160.8360  202.1000  146.4300 C   0  0  0  0  0  1  0  0  0  0  0  0
  161.6360  204.3270  150.7230 C   0  0  0  0  0  2  0  0  0  0  0  0
  160.3200  203.4570  152.5110 O   0  0  0  0  0  0  0  0  0  0  0  0
  161.8430  201.9650  151.5890 N   0  0  0  0  0  1  0  0  0  0  0  0
  161.2150  203.2400  151.6520 C   0  0  0  0  0  0  0  0  0  0  0  0
  162.2130  209.8510  149.6660 N   0  0  0  0  0  0  0  0  0  0  0  0
  162.0910  209.6340  151.0640 N   0  0  0  0  0  0  0  0  0  0  0  0
  161.1990  210.6740  151.6020 C   0  0  0  0  0  2  0  0  0  0  0  0
  160.7110  206.6030  154.5870 C   0  0  0  0  0  3  0  0  0  0  0  0
  161.3910  208.3570  151.2900 C   0  0  0  0  0  2  0  0  0  0  0  0
  160.6980  208.9940  154.9730 C   0  0  0  0  0  3  0  0  0  0  0  0
  160.9720  209.2170  153.6210 C   0  0  0  0  0  0  0  0  0  0  0  0
  161.1810  210.6190  153.1300 C   0  0  0  0  0  2  0  0  0  0  0  0
  161.1430  208.1220  152.7530 C   0  0  0  0  0  0  0  0  0  0  0  0
  160.5650  207.6890  155.4560 C   0  0  0  0  0  3  0  0  0  0  0  0
  160.9960  206.8190  153.2360 C   0  0  0  0  0  3  0  0  0  0  0  0
  161.4680  211.0530  149.2640 C   0  0  0  0  0  2  0  0  0  0  0  0
  161.9700  211.5580  147.9220 C   0  0  1  0  0  3  0  0  0  0  0  0
  160.8320  212.2100  147.1560 C   0  0  0  0  0  1  0  0  0  0  0  0
  162.5710  213.8630  148.0680 O   0  0  0  0  0  1  0  0  0  0  0  0
  163.0790  212.5660  148.1540 C   0  0  0  0  0  2  0  0  0  0  0  0
  1 17  1  0  0  0  0
  2  5  1  1  0  0  0
  2  4  1  0  0  0  0
  2  3  1  0  0  0  0
  4  3  1  0  0  0  0
  4  1  1  1  0  0  0
  5  7  1  0  0  0  0
  6  5  2  0  0  0  0
  7  8  1  0  0  0  0
  8  9  1  6  0  0  0
  8 13  1  0  0  0  0
 10 12  1  6  0  0  0
 10  9  1  0  0  0  0
 10 11  1  0  0  0  0
 13 16  1  0  0  0  0
 15 16  1  0  0  0  0
 16 14  2  0  0  0  0
 17 18  1  0  0  0  0
 18 21  1  0  0  0  0
 18 19  1  0  0  0  0
 19 24  1  0  0  0  0
 20 26  1  0  0  0  0
 21 25  1  0  0  0  0
 22 26  2  0  0  0  0
 23 22  1  0  0  0  0
 24 23  1  0  0  0  0
 25 27  1  0  0  0  0
 25 23  2  0  0  0  0
 27 20  2  0  0  0  0
 28 17  1  0  0  0  0
 29 30  1  1  0  0  0
 29 32  1  0  0  0  0
 29 28  1  0  0  0  0
 31 32  1  0  0  0  0
M  END
>  <MODEL>
9

>  <REMARK>
 VINA RESULT:      -6.4      3.103      8.027
  Name = 
  13 active torsions:
  status: ('A' for Active; 'I' for Inactive)
    1  A    between atoms: C_1  and  N_5
    2  A    between atoms: C_1  and  C_30
    3  A    between atoms: N_2  and  N_5
    4  A    between atoms: C_3  and  C_8
    5  A    between atoms: C_3  and  C_20
    6  A    between atoms: C_4  and  C_24
    7  A    between atoms: N_5  and  C_14
    8  A    between atoms: C_13  and  C_14
    9  A    between atoms: C_13  and  C_29
   10  A    between atoms: C_15  and  C_20
   11  A    between atoms: C_15  and  C_26
   12  A    between atoms: O_16  and  C_20
   13  A    between atoms: O_16  and  C_24
                            x       y       z     vdW  Elec       q    Type
                         _______ _______ _______ _____ _____    ______ ____

>  <TORSDO>
F 13

$$$$
