=
 OpenBabel11062410383D

 32 37  0  0  1  0  0  0  0  0999 V2000
  160.2410  203.7940  149.7700 C   0  0  0  0  0  3  0  0  0  0  0  0
  161.3510  208.3510  151.7110 C   0  0  0  0  0  0  0  0  0  0  0  0
  160.2420  207.4020  156.4610 C   0  0  0  0  0  3  0  0  0  0  0  0
  160.0930  208.7140  156.6420 C   0  0  0  0  0  3  0  0  0  0  0  0
  160.6430  210.7380  151.2100 C   0  0  1  0  0  3  0  0  0  0  0  0
  161.5730  211.4090  150.1840 C   0  0  2  0  0  3  0  0  0  0  0  0
  161.4840  206.5870  150.0880 C   0  0  2  0  0  3  0  0  0  0  0  0
  161.2550  206.0530  152.5240 C   0  0  0  0  0  3  0  0  0  0  0  0
  159.7330  213.1210  151.7800 C   0  0  1  0  0  3  0  0  0  0  0  0
  160.3090  204.5490  150.8650 C   0  0  0  0  0  3  0  0  0  0  0  0
  160.9580  206.8570  155.2580 C   0  0  0  0  0  2  0  0  0  0  0  0
  161.2310  207.3630  152.8040 C   0  0  0  0  0  0  0  0  0  0  0  0
  161.0060  207.8250  154.1490 N   0  0  0  0  0  0  0  0  0  0  0  0
  161.4810  210.2330  153.4070 C   0  0  2  0  0  3  0  0  0  0  0  0
  160.1040  213.4290  150.3470 C   0  0  0  0  0  3  0  0  0  0  0  0
  161.7840  204.9530  148.2080 C   0  0  0  0  0  3  0  0  0  0  0  0
  161.4220  205.5040  151.1350 C   0  0  0  0  0  0  0  0  0  0  0  0
  160.9260  212.6520  149.6170 C   0  0  0  0  0  3  0  0  0  0  0  0
  161.7080  206.3020  148.8040 C   0  0  0  0  0  3  0  0  0  0  0  0
  161.1860  203.8280  148.6360 C   0  0  0  0  0  0  0  0  0  0  0  0
  160.5510  209.6680  155.6250 C   0  0  0  0  0  3  0  0  0  0  0  0
  160.9560  209.2430  154.4230 C   0  0  0  0  0  0  0  0  0  0  0  0
  160.7430  211.5370  153.4130 C   0  0  0  0  0  3  0  0  0  0  0  0
  161.4510  207.9640  150.4760 N   0  0  0  0  0  0  0  0  0  0  0  0
  161.9160  210.4780  149.0400 C   0  0  0  0  0  1  0  0  0  0  0  0
  158.3600  213.1480  151.9300 F   0  0  0  0  0  0  0  0  0  0  0  0
  161.3320  209.7480  152.0320 N   0  0  0  0  0  0  0  0  0  0  0  0
  160.2690  211.7860  152.2000 C   0  0  0  0  0  0  0  0  0  0  0  0
  161.3160  201.2690  148.4060 C   0  0  0  0  0  0  0  0  0  0  0  0
  161.3300  202.6080  147.8910 N   0  0  0  0  0  2  0  0  0  0  0  0
  161.1150  201.0360  149.6270 O   0  0  0  0  0  0  0  0  0  0  0  0
  161.5330  200.1310  147.4740 C   0  0  0  0  0  1  0  0  0  0  0  0
  1 10  1  0  0  0  0
  2 27  1  0  0  0  0
  2 12  1  0  0  0  0
  3  4  2  0  0  0  0
  5 27  1  0  0  0  0
  5 28  1  1  0  0  0
  6 25  1  6  0  0  0
  6  5  1  0  0  0  0
  7 19  1  1  0  0  0
  7 24  1  0  0  0  0
  7 17  1  0  0  0  0
  8 12  2  0  0  0  0
  9 26  1  6  0  0  0
  9 28  1  0  0  0  0
 10 17  2  0  0  0  0
 11  3  1  0  0  0  0
 12 13  1  0  0  0  0
 13 22  1  0  0  0  0
 13 11  1  0  0  0  0
 14 23  1  6  0  0  0
 14 22  1  0  0  0  0
 15  9  1  0  0  0  0
 16 20  1  0  0  0  0
 16 19  2  0  0  0  0
 17  8  1  0  0  0  0
 18  6  1  0  0  0  0
 18 15  2  0  0  0  0
 20  1  2  0  0  0  0
 21  4  1  0  0  0  0
 22 21  2  0  0  0  0
 24  2  2  0  0  0  0
 27 14  1  0  0  0  0
 28 23  2  0  0  0  0
 29 31  2  0  0  0  0
 30 29  1  0  0  0  0
 30 20  1  0  0  0  0
 32 29  1  0  0  0  0
M  END
>  <MODEL>
1

>  <REMARK>
 VINA RESULT:      -9.5      0.000      0.000
  Name = 
  1 active torsions:
  status: ('A' for Active; 'I' for Inactive)
    1  A    between atoms: N_10  and  C_24
                            x       y       z     vdW  Elec       q    Type
                         _______ _______ _______ _____ _____    ______ ____

>  <TORSDO>
F 1

$$$$
=
 OpenBabel11062410383D

 32 37  0  0  1  0  0  0  0  0999 V2000
  160.8250  205.3290  149.5090 C   0  0  0  0  0  3  0  0  0  0  0  0
  161.0270  209.5460  152.3270 C   0  0  0  0  0  0  0  0  0  0  0  0
  160.5420  207.4470  156.8040 C   0  0  0  0  0  3  0  0  0  0  0  0
  160.1150  208.6240  157.2610 C   0  0  0  0  0  3  0  0  0  0  0  0
  159.7600  211.7480  152.3590 C   0  0  1  0  0  3  0  0  0  0  0  0
  160.4300  212.8090  151.4690 C   0  0  2  0  0  3  0  0  0  0  0  0
  161.4260  208.2190  150.3660 C   0  0  2  0  0  3  0  0  0  0  0  0
  161.5180  207.1780  152.6420 C   0  0  0  0  0  3  0  0  0  0  0  0
  158.3840  213.6860  153.4450 C   0  0  1  0  0  3  0  0  0  0  0  0
  160.8080  205.8480  150.7350 C   0  0  0  0  0  3  0  0  0  0  0  0
  161.2650  207.3350  155.4920 C   0  0  0  0  0  2  0  0  0  0  0  0
  161.2200  208.3640  153.1920 C   0  0  0  0  0  0  0  0  0  0  0  0
  161.0050  208.4850  154.6100 N   0  0  0  0  0  0  0  0  0  0  0  0
  160.8620  211.0350  154.3740 C   0  0  2  0  0  3  0  0  0  0  0  0
  158.5600  214.3490  152.0970 C   0  0  0  0  0  3  0  0  0  0  0  0
  161.9370  207.1060  148.1780 C   0  0  0  0  0  3  0  0  0  0  0  0
  161.6930  206.9680  151.1650 C   0  0  0  0  0  0  0  0  0  0  0  0
  159.4760  213.9480  151.1960 C   0  0  0  0  0  3  0  0  0  0  0  0
  161.6050  208.2530  149.0450 C   0  0  0  0  0  3  0  0  0  0  0  0
  161.6450  205.8080  148.3780 C   0  0  0  0  0  0  0  0  0  0  0  0
  160.2640  209.8400  156.4530 C   0  0  0  0  0  3  0  0  0  0  0  0
  160.6570  209.7690  155.1760 C   0  0  0  0  0  0  0  0  0  0  0  0
  159.8520  212.0980  154.6770 C   0  0  0  0  0  3  0  0  0  0  0  0
  161.1130  209.4450  151.0350 N   0  0  0  0  0  0  0  0  0  0  0  0
  160.8820  212.2290  150.1440 C   0  0  0  0  0  1  0  0  0  0  0  0
  157.0560  213.3560  153.6390 F   0  0  0  0  0  0  0  0  0  0  0  0
  160.7180  210.8080  152.9340 N   0  0  0  0  0  0  0  0  0  0  0  0
  159.2390  212.4610  153.5580 C   0  0  0  0  0  0  0  0  0  0  0  0
  161.4780  204.7060  146.0600 C   0  0  0  0  0  0  0  0  0  0  0  0
  162.0000  204.8290  147.3910 N   0  0  0  0  0  2  0  0  0  0  0  0
  160.6450  205.5330  145.6030 O   0  0  0  0  0  0  0  0  0  0  0  0
  161.9390  203.5850  145.1990 C   0  0  0  0  0  1  0  0  0  0  0  0
  1 10  1  0  0  0  0
  2 27  1  0  0  0  0
  2 12  1  0  0  0  0
  3  4  2  0  0  0  0
  5 27  1  0  0  0  0
  5 28  1  1  0  0  0
  6 25  1  6  0  0  0
  6  5  1  0  0  0  0
  7 19  1  1  0  0  0
  7 24  1  0  0  0  0
  7 17  1  0  0  0  0
  8 12  2  0  0  0  0
  9 28  1  0  0  0  0
  9 26  1  6  0  0  0
 10 17  2  0  0  0  0
 11  3  1  0  0  0  0
 12 13  1  0  0  0  0
 13 22  1  0  0  0  0
 13 11  1  0  0  0  0
 14 23  1  1  0  0  0
 14 22  1  0  0  0  0
 15  9  1  0  0  0  0
 16 20  1  0  0  0  0
 16 19  2  0  0  0  0
 17  8  1  0  0  0  0
 18  6  1  0  0  0  0
 18 15  2  0  0  0  0
 20  1  2  0  0  0  0
 21  4  1  0  0  0  0
 22 21  2  0  0  0  0
 24  2  2  0  0  0  0
 27 14  1  0  0  0  0
 28 23  2  0  0  0  0
 29 30  1  0  0  0  0
 30 20  1  0  0  0  0
 31 29  2  0  0  0  0
 32 29  1  0  0  0  0
M  END
>  <MODEL>
2

>  <REMARK>
 VINA RESULT:      -9.0      1.904      2.205
  Name = 
  1 active torsions:
  status: ('A' for Active; 'I' for Inactive)
    1  A    between atoms: N_10  and  C_24
                            x       y       z     vdW  Elec       q    Type
                         _______ _______ _______ _____ _____    ______ ____

>  <TORSDO>
F 1

$$$$
=
 OpenBabel11062410383D

 32 37  0  0  1  0  0  0  0  0999 V2000
  155.9150  213.3610  153.4020 C   0  0  0  0  0  3  0  0  0  0  0  0
  160.1800  210.8190  152.3440 C   0  0  0  0  0  0  0  0  0  0  0  0
  161.3560  213.1160  148.0980 C   0  0  0  0  0  3  0  0  0  0  0  0
  162.0840  212.0480  147.7740 C   0  0  0  0  0  3  0  0  0  0  0  0
  160.7950  208.3670  152.0970 C   0  0  1  0  0  3  0  0  0  0  0  0
  161.2520  207.7530  153.4320 C   0  0  2  0  0  3  0  0  0  0  0  0
  158.4500  211.6640  153.7790 C   0  0  0  0  0  0  0  0  0  0  0  0
  159.2490  213.0120  151.8250 C   0  0  0  0  0  3  0  0  0  0  0  0
  161.8250  206.2790  150.9100 C   0  0  1  0  0  3  0  0  0  0  0  0
  156.9420  213.2110  152.5660 C   0  0  0  0  0  3  0  0  0  0  0  0
  160.9030  213.3520  149.5110 C   0  0  0  0  0  2  0  0  0  0  0  0
  160.1080  212.0350  151.5080 C   0  0  0  0  0  0  0  0  0  0  0  0
  160.9080  212.1170  150.3130 N   0  0  0  0  0  0  0  0  0  0  0  0
  162.1840  210.0070  151.0180 C   0  0  2  0  0  3  0  0  0  0  0  0
  161.5060  205.5810  152.2130 C   0  0  0  0  0  3  0  0  0  0  0  0
  156.7710  212.3610  155.5070 C   0  0  0  0  0  3  0  0  0  0  0  0
  158.3400  212.9630  153.0210 C   0  0  1  0  0  3  0  0  0  0  0  0
  161.2350  206.2440  153.3530 C   0  0  0  0  0  3  0  0  0  0  0  0
  157.7800  211.4610  154.9140 C   0  0  0  0  0  3  0  0  0  0  0  0
  155.9700  213.2350  154.8720 C   0  0  0  0  0  0  0  0  0  0  0  0
  162.3960  211.0210  148.7750 C   0  0  0  0  0  3  0  0  0  0  0  0
  161.8080  211.0370  149.9760 C   0  0  0  0  0  0  0  0  0  0  0  0
  162.4340  208.6460  150.4430 C   0  0  0  0  0  3  0  0  0  0  0  0
  159.3960  210.6720  153.3690 N   0  0  0  0  0  0  0  0  0  0  0  0
  160.3700  208.1870  154.5840 C   0  0  0  0  0  1  0  0  0  0  0  0
  161.0200  205.7860  149.9000 F   0  0  0  0  0  0  0  0  0  0  0  0
  161.1120  209.7880  151.9930 N   0  0  0  0  0  0  0  0  0  0  0  0
  161.6430  207.7610  151.0330 C   0  0  0  0  0  0  0  0  0  0  0  0
  154.1280  213.5160  156.6450 C   0  0  0  0  0  0  0  0  0  0  0  0
  155.0020  213.9940  155.6110 N   0  0  0  0  0  2  0  0  0  0  0  0
  154.1780  212.3250  157.0480 O   0  0  0  0  0  0  0  0  0  0  0  0
  153.1520  214.4530  157.2600 C   0  0  0  0  0  1  0  0  0  0  0  0
  1 20  1  0  0  0  0
  2 24  2  0  0  0  0
  3 11  1  0  0  0  0
  4  3  2  0  0  0  0
  4 21  1  0  0  0  0
  5 28  1  6  0  0  0
  5  6  1  0  0  0  0
  6 25  1  1  0  0  0
  7 19  2  0  0  0  0
  9 26  1  6  0  0  0
  9 28  1  0  0  0  0
  9 15  1  0  0  0  0
 10 17  1  0  0  0  0
 10  1  2  0  0  0  0
 11 13  1  0  0  0  0
 12  8  2  0  0  0  0
 12  2  1  0  0  0  0
 13 12  1  0  0  0  0
 14 23  1  6  0  0  0
 14 27  1  0  0  0  0
 15 18  2  0  0  0  0
 17  8  1  6  0  0  0
 17  7  1  0  0  0  0
 18  6  1  0  0  0  0
 19 16  1  0  0  0  0
 20 16  2  0  0  0  0
 20 30  1  0  0  0  0
 21 22  2  0  0  0  0
 22 13  1  0  0  0  0
 22 14  1  0  0  0  0
 23 28  2  0  0  0  0
 24  7  1  0  0  0  0
 27  5  1  0  0  0  0
 27  2  1  0  0  0  0
 29 31  2  0  0  0  0
 29 32  1  0  0  0  0
 30 29  1  0  0  0  0
M  END
>  <MODEL>
3

>  <REMARK>
 VINA RESULT:      -6.8      4.415      9.082
  Name = 
  1 active torsions:
  status: ('A' for Active; 'I' for Inactive)
    1  A    between atoms: N_10  and  C_24
                            x       y       z     vdW  Elec       q    Type
                         _______ _______ _______ _____ _____    ______ ____

>  <TORSDO>
F 1

$$$$
=
 OpenBabel11062410383D

 32 37  0  0  1  0  0  0  0  0999 V2000
  160.8070  211.2730  147.1410 C   0  0  0  0  0  3  0  0  0  0  0  0
  161.7800  208.4540  151.2480 C   0  0  0  0  0  0  0  0  0  0  0  0
  160.9950  203.9720  149.2510 C   0  0  0  0  0  3  0  0  0  0  0  0
  160.7870  203.5090  150.4830 C   0  0  0  0  0  3  0  0  0  0  0  0
  160.9170  208.4010  153.6370 C   0  0  1  0  0  3  0  0  0  0  0  0
  161.7510  209.3000  154.5680 C   0  0  2  0  0  3  0  0  0  0  0  0
  161.9150  210.4210  149.8790 C   0  0  0  0  0  0  0  0  0  0  0  0
  161.8540  208.1470  148.8300 C   0  0  0  0  0  2  0  0  0  0  0  0
  159.9160  207.2950  155.7830 C   0  0  1  0  0  3  0  0  0  0  0  0
  160.8970  210.0460  147.6510 C   0  0  0  0  0  3  0  0  0  0  0  0
  161.6710  205.2940  149.0190 C   0  0  0  0  0  2  0  0  0  0  0  0
  161.7750  207.5930  150.0480 C   0  0  0  0  0  0  0  0  0  0  0  0
  161.6030  206.1710  150.1990 N   0  0  0  0  0  0  0  0  0  0  0  0
  161.9050  206.4020  152.7360 C   0  0  2  0  0  3  0  0  0  0  0  0
  160.1870  208.6440  156.4100 C   0  0  0  0  0  3  0  0  0  0  0  0
  162.1950  212.6170  148.7010 C   0  0  0  0  0  3  0  0  0  0  0  0
  161.9700  209.6270  148.5980 C   0  0  0  0  0  0  0  0  0  0  0  0
  161.0070  209.5590  155.8580 C   0  0  0  0  0  3  0  0  0  0  0  0
  162.0800  211.7440  149.8860 C   0  0  0  0  0  3  0  0  0  0  0  0
  161.6830  212.4140  147.4740 C   0  0  0  0  0  0  0  0  0  0  0  0
  161.1350  204.3170  151.6570 C   0  0  0  0  0  3  0  0  0  0  0  0
  161.4930  205.5990  151.5220 C   0  0  0  0  0  0  0  0  0  0  0  0
  161.1000  206.0850  153.9590 C   0  0  0  0  0  3  0  0  0  0  0  0
  161.8300  209.7460  151.1380 N   0  0  0  0  0  0  0  0  0  0  0  0
  162.0770  210.6310  153.9230 C   0  0  0  0  0  1  0  0  0  0  0  0
  158.5540  207.0830  155.6890 F   0  0  0  0  0  0  0  0  0  0  0  0
  161.7050  207.8410  152.5430 N   0  0  0  0  0  0  0  0  0  0  0  0
  160.5450  207.1950  154.4260 C   0  0  0  0  0  0  0  0  0  0  0  0
  161.4110  213.3320  145.0870 C   0  0  0  0  0  0  0  0  0  0  0  0
  161.8490  213.4080  146.4510 N   0  0  0  0  0  2  0  0  0  0  0  0
  160.7580  212.3440  144.6610 O   0  0  0  0  0  0  0  0  0  0  0  0
  161.7240  214.4520  144.1600 C   0  0  0  0  0  1  0  0  0  0  0  0
  1 20  2  0  0  0  0
  1 10  1  0  0  0  0
  2 27  1  0  0  0  0
  3  4  2  0  0  0  0
  4 21  1  0  0  0  0
  5 28  1  1  0  0  0
  5  6  1  0  0  0  0
  6 25  1  6  0  0  0
  6 18  1  0  0  0  0
  7 19  1  0  0  0  0
  7 24  2  0  0  0  0
  8 12  1  0  0  0  0
  9 26  1  6  0  0  0
  9 15  1  0  0  0  0
 10 17  2  0  0  0  0
 11  3  1  0  0  0  0
 11 13  1  0  0  0  0
 12 13  1  0  0  0  0
 12  2  2  0  0  0  0
 13 22  1  0  0  0  0
 14 23  1  1  0  0  0
 16 19  2  0  0  0  0
 17  8  1  0  0  0  0
 17  7  1  0  0  0  0
 18 15  2  0  0  0  0
 20 16  1  0  0  0  0
 22 21  2  0  0  0  0
 22 14  1  0  0  0  0
 23 28  2  0  0  0  0
 24  2  1  0  0  0  0
 27 14  1  0  0  0  0
 27  5  1  0  0  0  0
 28  9  1  0  0  0  0
 29 30  1  0  0  0  0
 30 20  1  0  0  0  0
 31 29  2  0  0  0  0
 32 29  1  0  0  0  0
M  END
>  <MODEL>
4

>  <REMARK>
 VINA RESULT:      -6.7      3.283      7.035
  Name = 
  1 active torsions:
  status: ('A' for Active; 'I' for Inactive)
    1  A    between atoms: N_10  and  C_24
                            x       y       z     vdW  Elec       q    Type
                         _______ _______ _______ _____ _____    ______ ____

>  <TORSDO>
F 1

$$$$
=
 OpenBabel11062410383D

 32 37  0  0  1  0  0  0  0  0999 V2000
  161.2130  211.8300  147.1770 C   0  0  0  0  0  3  0  0  0  0  0  0
  160.4480  211.4650  152.1820 C   0  0  0  0  0  0  0  0  0  0  0  0
  161.7030  206.6920  152.7590 C   0  0  0  0  0  3  0  0  0  0  0  0
  160.9820  206.6850  153.8800 C   0  0  0  0  0  3  0  0  0  0  0  0
  158.5020  211.9510  153.7420 C   0  0  1  0  0  3  0  0  0  0  0  0
  158.5390  213.3950  154.2720 C   0  0  2  0  0  3  0  0  0  0  0  0
  160.8850  212.6280  150.1270 C   0  0  2  0  0  3  0  0  0  0  0  0
  161.8210  210.3370  150.5120 C   0  0  0  0  0  3  0  0  0  0  0  0
  156.7730  211.4190  155.6280 C   0  0  1  0  0  3  0  0  0  0  0  0
  161.2630  211.0490  148.2550 C   0  0  0  0  0  3  0  0  0  0  0  0
  162.1280  207.9810  152.1140 C   0  0  0  0  0  2  0  0  0  0  0  0
  161.2330  210.3040  151.7160 C   0  0  0  0  0  0  0  0  0  0  0  0
  161.2890  209.1180  152.5300 N   0  0  0  0  0  0  0  0  0  0  0  0
  160.1820  210.3890  154.4630 C   0  0  2  0  0  3  0  0  0  0  0  0
  156.4110  212.8800  155.4860 C   0  0  0  0  0  3  0  0  0  0  0  0
  161.2990  214.1130  148.1480 C   0  0  0  0  0  3  0  0  0  0  0  0
  161.7490  211.5170  149.5850 C   0  0  0  0  0  0  0  0  0  0  0  0
  157.2010  213.7750  154.8630 C   0  0  0  0  0  3  0  0  0  0  0  0
  160.7600  213.7900  149.4840 C   0  0  0  0  0  3  0  0  0  0  0  0
  161.5470  213.2670  147.1330 C   0  0  0  0  0  0  0  0  0  0  0  0
  160.5060  207.9390  154.4740 C   0  0  0  0  0  3  0  0  0  0  0  0
  160.6240  209.0960  153.8130 C   0  0  0  0  0  0  0  0  0  0  0  0
  158.9410  210.2430  155.2880 C   0  0  0  0  0  3  0  0  0  0  0  0
  160.2940  212.5090  151.4250 N   0  0  0  0  0  0  0  0  0  0  0  0
  158.8850  214.3880  153.1810 C   0  0  0  0  0  1  0  0  0  0  0  0
  155.7290  210.6280  155.1880 F   0  0  0  0  0  0  0  0  0  0  0  0
  159.8340  211.4150  153.4770 N   0  0  0  0  0  0  0  0  0  0  0  0
  158.0190  211.0960  154.8600 C   0  0  0  0  0  0  0  0  0  0  0  0
  161.2610  213.9640  144.6740 C   0  0  0  0  0  0  0  0  0  0  0  0
  162.0210  213.7710  145.8750 N   0  0  0  0  0  2  0  0  0  0  0  0
  160.0230  213.7390  144.6370 O   0  0  0  0  0  0  0  0  0  0  0  0
  161.9490  214.4530  143.4500 C   0  0  0  0  0  1  0  0  0  0  0  0
  1 10  1  0  0  0  0
  2 27  1  0  0  0  0
  3  4  2  0  0  0  0
  4 21  1  0  0  0  0
  5  6  1  0  0  0  0
  5 28  1  1  0  0  0
  6 25  1  6  0  0  0
  6 18  1  0  0  0  0
  7 19  1  1  0  0  0
  7 24  1  0  0  0  0
  8 12  2  0  0  0  0
  9 26  1  6  0  0  0
 10 17  2  0  0  0  0
 11 13  1  0  0  0  0
 11  3  1  0  0  0  0
 12  2  1  0  0  0  0
 12 13  1  0  0  0  0
 13 22  1  0  0  0  0
 14 23  1  6  0  0  0
 15  9  1  0  0  0  0
 16 19  2  0  0  0  0
 17  7  1  0  0  0  0
 17  8  1  0  0  0  0
 18 15  2  0  0  0  0
 20  1  2  0  0  0  0
 20 16  1  0  0  0  0
 22 14  1  0  0  0  0
 22 21  2  0  0  0  0
 24  2  2  0  0  0  0
 27  5  1  0  0  0  0
 27 14  1  0  0  0  0
 28 23  2  0  0  0  0
 28  9  1  0  0  0  0
 29 30  1  0  0  0  0
 30 20  1  0  0  0  0
 31 29  2  0  0  0  0
 32 29  1  0  0  0  0
M  END
>  <MODEL>
5

>  <REMARK>
 VINA RESULT:      -6.5      4.095      6.867
  Name = 
  1 active torsions:
  status: ('A' for Active; 'I' for Inactive)
    1  A    between atoms: N_10  and  C_24
                            x       y       z     vdW  Elec       q    Type
                         _______ _______ _______ _____ _____    ______ ____

>  <TORSDO>
F 1

$$$$
