=
 OpenBabel11052422303D

 31 36  0  0  1  0  0  0  0  0999 V2000
  160.8340  207.7380  154.5180 C   0  0  0  0  0  0  0  0  0  0  0  0
  161.3810  207.1640  150.8490 C   0  0  0  0  0  0  0  0  0  0  0  0
  161.2210  205.6860  150.6340 C   0  0  0  0  0  0  0  0  0  0  0  0
  161.2060  203.2950  151.6200 C   0  0  0  0  0  3  0  0  0  0  0  0
  161.2560  207.7950  152.1160 C   0  0  0  0  0  0  0  0  0  0  0  0
  160.9940  209.1220  154.5900 C   0  0  0  0  0  3  0  0  0  0  0  0
  161.3400  204.7240  151.7410 C   0  0  0  0  0  3  0  0  0  0  0  0
  161.7780  209.3670  149.8650 C   0  0  0  0  0  0  0  0  0  0  0  0
  160.5390  206.9940  155.6930 N   0  0  0  0  0  1  0  0  0  0  0  0
  160.8500  206.1820  148.1330 C   0  0  0  0  0  2  0  0  0  0  0  0
  160.9570  202.9700  150.3210 C   0  0  0  0  0  0  0  0  0  0  0  0
  161.6610  209.9330  151.0920 N   0  0  0  0  0  0  0  0  0  0  0  0
  161.6240  207.9780  149.7110 C   0  0  0  0  0  0  0  0  0  0  0  0
  160.9610  207.0830  153.2910 C   0  0  0  0  0  3  0  0  0  0  0  0
  160.6990  202.5140  149.0210 C   0  0  0  0  0  2  0  0  0  0  0  0
  161.4060  209.2000  152.2040 C   0  0  0  0  0  0  0  0  0  0  0  0
  161.2780  209.8520  153.4360 C   0  0  0  0  0  3  0  0  0  0  0  0
  161.8000  207.3550  148.3440 C   0  0  0  0  0  2  0  0  0  0  0  0
  160.9790  205.2440  149.2820 C   0  0  0  0  0  0  0  0  0  0  0  0
  160.8490  203.8970  149.2040 C   0  0  0  0  0  0  0  0  0  0  0  0
  162.0380  210.2540  148.6910 C   0  0  0  0  0  2  0  0  0  0  0  0
  161.0410  212.4490  149.3010 C   0  0  0  0  0  2  0  0  0  0  0  0
  162.3390  211.6730  149.1650 C   0  0  2  0  0  3  0  0  0  0  0  0
  161.9850  212.7790  148.1630 C   0  0  1  0  0  3  0  0  0  0  0  0
  161.3880  212.2940  146.8460 C   0  0  0  0  0  2  0  0  0  0  0  0
  160.0550  214.2900  145.6330 S   0  0  0  0  0  0  0  0  0  0  0  0
  161.4100  213.3930  145.8420 C   0  0  0  0  0  0  0  0  0  0  0  0
  162.5780  213.5590  145.0220 N   0  0  0  0  0  2  0  0  0  0  0  0
  162.6890  213.3430  143.6100 C   0  0  0  0  0  0  0  0  0  0  0  0
  161.9840  212.2880  142.9630 N   0  0  0  0  0  1  0  0  0  0  0  0
  163.4700  214.4500  142.6990 S   0  0  0  0  0  0  0  0  0  0  0  0
  1  6  1  0  0  0  0
  1  9  1  0  0  0  0
  2  5  1  0  0  0  0
  3  2  1  0  0  0  0
  3  7  1  0  0  0  0
  4  7  2  0  0  0  0
  5 16  2  0  0  0  0
  5 14  1  0  0  0  0
  8 12  2  0  0  0  0
 10 18  1  0  0  0  0
 10 19  1  0  0  0  0
 11  4  1  0  0  0  0
 12 16  1  0  0  0  0
 13  8  1  0  0  0  0
 13  2  2  0  0  0  0
 14  1  2  0  0  0  0
 15 20  1  0  0  0  0
 15 11  1  0  0  0  0
 16 17  1  0  0  0  0
 17  6  2  0  0  0  0
 18 13  1  0  0  0  0
 19  3  2  0  0  0  0
 20 19  1  0  0  0  0
 20 11  2  0  0  0  0
 21  8  1  0  0  0  0
 23 21  1  6  0  0  0
 23 22  1  0  0  0  0
 24 25  1  6  0  0  0
 24 23  1  0  0  0  0
 24 22  1  0  0  0  0
 26 27  2  0  0  0  0
 27 25  1  0  0  0  0
 28 27  1  0  0  0  0
 29 28  1  0  0  0  0
 30 29  1  0  0  0  0
 31 29  2  0  0  0  0
M  END
>  <MODEL>
1

>  <REMARK>
 VINA RESULT:      -9.8      0.000      0.000
  Name = 
  6 active torsions:
  status: ('A' for Active; 'I' for Inactive)
    1  A    between atoms: C_1  and  N_24
    2  A    between atoms: C_3  and  C_19
    3  A    between atoms: C_3  and  C_22
    4  A    between atoms: C_9  and  C_23
    5  A    between atoms: C_15  and  C_23
    6  A    between atoms: C_19  and  N_24
                            x       y       z     vdW  Elec       q    Type
                         _______ _______ _______ _____ _____    ______ ____

>  <TORSDO>
F 6

$$$$
=
 OpenBabel11052422303D

 31 36  0  0  1  0  0  0  0  0999 V2000
  160.6590  202.0790  150.6570 C   0  0  0  0  0  0  0  0  0  0  0  0
  161.4960  205.3840  149.0870 C   0  0  0  0  0  0  0  0  0  0  0  0
  161.4370  205.1620  147.6020 C   0  0  0  0  0  0  0  0  0  0  0  0
  161.4910  203.5190  145.6060 C   0  0  0  0  0  3  0  0  0  0  0  0
  161.2450  204.3670  150.0470 C   0  0  0  0  0  0  0  0  0  0  0  0
  160.7340  202.4090  152.0100 C   0  0  0  0  0  3  0  0  0  0  0  0
  161.5340  203.8170  147.0150 C   0  0  0  0  0  3  0  0  0  0  0  0
  161.8340  206.9520  150.9330 C   0  0  0  0  0  0  0  0  0  0  0  0
  160.3260  200.7530  150.2650 N   0  0  0  0  0  1  0  0  0  0  0  0
  161.2150  207.7150  147.3220 C   0  0  0  0  0  2  0  0  0  0  0  0
  161.3540  204.6750  144.9010 C   0  0  0  0  0  0  0  0  0  0  0  0
  161.5980  205.9520  151.8200 N   0  0  0  0  0  0  0  0  0  0  0  0
  161.7720  206.6970  149.5520 C   0  0  0  0  0  0  0  0  0  0  0  0
  160.9110  203.0510  149.6850 C   0  0  0  0  0  3  0  0  0  0  0  0
  161.2140  205.7950  144.0690 C   0  0  0  0  0  2  0  0  0  0  0  0
  161.3080  204.6890  151.4240 C   0  0  0  0  0  0  0  0  0  0  0  0
  161.0560  203.7110  152.3930 C   0  0  0  0  0  3  0  0  0  0  0  0
  162.0790  207.8100  148.5740 C   0  0  0  0  0  2  0  0  0  0  0  0
  161.3160  206.3350  146.7700 C   0  0  0  0  0  0  0  0  0  0  0  0
  161.2710  206.0200  145.4520 C   0  0  0  0  0  0  0  0  0  0  0  0
  162.1240  208.3190  151.4590 C   0  0  0  0  0  2  0  0  0  0  0  0
  161.1420  210.6020  151.3650 C   0  0  0  0  0  2  0  0  0  0  0  0
  160.8340  209.1280  151.5530 C   0  0  2  0  0  3  0  0  0  0  0  0
  160.7610  210.0950  152.7410 C   0  0  1  0  0  3  0  0  0  0  0  0
  161.9880  210.1020  153.6480 C   0  0  0  0  0  2  0  0  0  0  0  0
  162.5120  210.6820  156.2210 S   0  0  0  0  0  0  0  0  0  0  0  0
  161.5690  209.9920  155.0720 C   0  0  0  0  0  0  0  0  0  0  0  0
  160.4150  209.2000  155.3950 N   0  0  0  0  0  2  0  0  0  0  0  0
  160.3770  207.8010  155.7000 C   0  0  0  0  0  0  0  0  0  0  0  0
  160.4460  206.8160  154.6740 N   0  0  0  0  0  1  0  0  0  0  0  0
  160.4650  207.3280  157.2600 S   0  0  0  0  0  0  0  0  0  0  0  0
  1  6  1  0  0  0  0
  2 13  2  0  0  0  0
  2  5  1  0  0  0  0
  3  2  1  0  0  0  0
  4  7  2  0  0  0  0
  5 16  2  0  0  0  0
  6 17  2  0  0  0  0
  7  3  1  0  0  0  0
  8 21  1  0  0  0  0
  8 12  2  0  0  0  0
  9  1  1  0  0  0  0
 10 18  1  0  0  0  0
 11 20  2  0  0  0  0
 11  4  1  0  0  0  0
 13  8  1  0  0  0  0
 14  5  1  0  0  0  0
 14  1  2  0  0  0  0
 15 11  1  0  0  0  0
 15 20  1  0  0  0  0
 16 12  1  0  0  0  0
 16 17  1  0  0  0  0
 18 13  1  0  0  0  0
 19 10  1  0  0  0  0
 19  3  2  0  0  0  0
 20 19  1  0  0  0  0
 22 23  1  0  0  0  0
 22 24  1  0  0  0  0
 23 21  1  1  0  0  0
 23 24  1  0  0  0  0
 24 25  1  1  0  0  0
 25 27  1  0  0  0  0
 27 28  1  0  0  0  0
 27 26  2  0  0  0  0
 28 29  1  0  0  0  0
 29 31  2  0  0  0  0
 30 29  1  0  0  0  0
M  END
>  <MODEL>
2

>  <REMARK>
 VINA RESULT:      -9.2      4.869      7.112
  Name = 
  6 active torsions:
  status: ('A' for Active; 'I' for Inactive)
    1  A    between atoms: C_1  and  N_24
    2  A    between atoms: C_3  and  C_19
    3  A    between atoms: C_3  and  C_22
    4  A    between atoms: C_9  and  C_23
    5  A    between atoms: C_15  and  C_23
    6  A    between atoms: C_19  and  N_24
                            x       y       z     vdW  Elec       q    Type
                         _______ _______ _______ _____ _____    ______ ____

>  <TORSDO>
F 6

$$$$
=
 OpenBabel11052422303D

 31 36  0  0  1  0  0  0  0  0999 V2000
  161.6820  210.9490  149.6920 C   0  0  0  0  0  0  0  0  0  0  0  0
  161.4880  208.3640  152.4070 C   0  0  0  0  0  0  0  0  0  0  0  0
  161.1670  209.1140  153.6680 C   0  0  0  0  0  0  0  0  0  0  0  0
  161.1330  211.3510  154.9660 C   0  0  0  0  0  3  0  0  0  0  0  0
  161.6540  208.9860  151.1400 C   0  0  0  0  0  0  0  0  0  0  0  0
  161.9700  210.1450  148.5890 C   0  0  0  0  0  3  0  0  0  0  0  0
  161.4080  210.5590  153.7940 C   0  0  0  0  0  3  0  0  0  0  0  0
  161.8800  206.2060  151.3250 C   0  0  0  0  0  0  0  0  0  0  0  0
  161.5490  212.3560  149.5320 N   0  0  0  0  0  1  0  0  0  0  0  0
  160.3810  206.8810  154.6870 C   0  0  0  0  0  2  0  0  0  0  0  0
  160.6210  210.5520  155.9430 C   0  0  0  0  0  0  0  0  0  0  0  0
  162.0410  206.8370  150.1340 N   0  0  0  0  0  0  0  0  0  0  0  0
  161.5840  206.9490  152.4810 C   0  0  0  0  0  0  0  0  0  0  0  0
  161.5240  210.3730  150.9550 C   0  0  0  0  0  3  0  0  0  0  0  0
  160.0880  209.8340  157.0230 C   0  0  0  0  0  2  0  0  0  0  0  0
  161.9360  208.1820  150.0090 C   0  0  0  0  0  0  0  0  0  0  0  0
  162.0950  208.7650  148.7470 C   0  0  0  0  0  3  0  0  0  0  0  0
  161.4490  206.2390  153.8100 C   0  0  0  0  0  2  0  0  0  0  0  0
  160.6410  208.3440  154.7700 C   0  0  0  0  0  0  0  0  0  0  0  0
  160.3850  209.1190  155.8530 C   0  0  0  0  0  0  0  0  0  0  0  0
  161.9920  204.7170  151.3650 C   0  0  0  0  0  2  0  0  0  0  0  0
  160.7620  202.5860  151.0080 C   0  0  0  0  0  2  0  0  0  0  0  0
  160.6140  204.0850  151.1900 C   0  0  2  0  0  3  0  0  0  0  0  0
  160.3670  203.4400  149.8210 C   0  0  1  0  0  3  0  0  0  0  0  0
  161.5340  203.5280  148.8420 C   0  0  0  0  0  2  0  0  0  0  0  0
  161.1650  201.0400  147.8920 S   0  0  0  0  0  0  0  0  0  0  0  0
  161.2750  202.6590  147.6620 C   0  0  0  0  0  0  0  0  0  0  0  0
  161.2370  203.2570  146.3560 N   0  0  0  0  0  2  0  0  0  0  0  0
  161.8260  204.4970  145.9480 C   0  0  0  0  0  0  0  0  0  0  0  0
  163.2170  204.7490  146.1210 N   0  0  0  0  0  1  0  0  0  0  0  0
  160.9290  205.5530  145.0860 S   0  0  0  0  0  0  0  0  0  0  0  0
  1 14  1  0  0  0  0
  2 13  2  0  0  0  0
  2  3  1  0  0  0  0
  3  7  2  0  0  0  0
  3 19  1  0  0  0  0
  4 11  2  0  0  0  0
  5  2  1  0  0  0  0
  6 17  1  0  0  0  0
  6  1  2  0  0  0  0
  7  4  1  0  0  0  0
  8 21  1  0  0  0  0
  8 13  1  0  0  0  0
  9  1  1  0  0  0  0
 10 19  1  0  0  0  0
 11 15  1  0  0  0  0
 12  8  2  0  0  0  0
 13 18  1  0  0  0  0
 14  5  2  0  0  0  0
 16 12  1  0  0  0  0
 16  5  1  0  0  0  0
 17 16  2  0  0  0  0
 18 10  1  0  0  0  0
 19 20  2  0  0  0  0
 20 11  1  0  0  0  0
 20 15  1  0  0  0  0
 22 23  1  0  0  0  0
 23 21  1  6  0  0  0
 24 25  1  6  0  0  0
 24 22  1  0  0  0  0
 24 23  1  0  0  0  0
 27 26  2  0  0  0  0
 27 25  1  0  0  0  0
 28 27  1  0  0  0  0
 29 30  1  0  0  0  0
 29 28  1  0  0  0  0
 31 29  2  0  0  0  0
M  END
>  <MODEL>
3

>  <REMARK>
 VINA RESULT:      -9.1      3.790      7.586
  Name = 
  6 active torsions:
  status: ('A' for Active; 'I' for Inactive)
    1  A    between atoms: C_1  and  N_24
    2  A    between atoms: C_3  and  C_19
    3  A    between atoms: C_3  and  C_22
    4  A    between atoms: C_9  and  C_23
    5  A    between atoms: C_15  and  C_23
    6  A    between atoms: C_19  and  N_24
                            x       y       z     vdW  Elec       q    Type
                         _______ _______ _______ _____ _____    ______ ____

>  <TORSDO>
F 6

$$$$
=
 OpenBabel11052422303D

 31 36  0  0  1  0  0  0  0  0999 V2000
  160.1350  209.6350  155.9260 C   0  0  0  0  0  0  0  0  0  0  0  0
  161.0890  208.6180  152.4410 C   0  0  0  0  0  0  0  0  0  0  0  0
  161.0810  209.8790  151.6260 C   0  0  0  0  0  0  0  0  0  0  0  0
  160.2910  212.3250  151.3420 C   0  0  0  0  0  3  0  0  0  0  0  0
  160.7740  208.5710  153.8260 C   0  0  0  0  0  0  0  0  0  0  0  0
  160.1870  208.4030  156.5790 C   0  0  0  0  0  3  0  0  0  0  0  0
  160.3540  211.0800  152.0640 C   0  0  0  0  0  3  0  0  0  0  0  0
  161.5070  206.2090  152.5230 C   0  0  0  0  0  0  0  0  0  0  0  0
  159.7840  210.8080  156.6480 N   0  0  0  0  0  1  0  0  0  0  0  0
  162.5420  208.6580  149.8890 C   0  0  0  0  0  2  0  0  0  0  0  0
  161.0040  212.2170  150.1870 C   0  0  0  0  0  0  0  0  0  0  0  0
  161.1900  206.2030  153.8420 N   0  0  0  0  0  0  0  0  0  0  0  0
  161.4820  207.4140  151.7980 C   0  0  0  0  0  0  0  0  0  0  0  0
  160.4280  209.7160  154.5620 C   0  0  0  0  0  3  0  0  0  0  0  0
  161.7060  212.2260  148.9730 C   0  0  0  0  0  2  0  0  0  0  0  0
  160.8320  207.3290  154.5040 C   0  0  0  0  0  0  0  0  0  0  0  0
  160.5360  207.2530  155.8700 C   0  0  0  0  0  3  0  0  0  0  0  0
  161.7960  207.4000  150.3180 C   0  0  0  0  0  2  0  0  0  0  0  0
  161.7920  209.8510  150.3710 C   0  0  0  0  0  0  0  0  0  0  0  0
  161.7210  211.0390  149.7210 C   0  0  0  0  0  0  0  0  0  0  0  0
  161.9110  204.9230  151.8790 C   0  0  0  0  0  2  0  0  0  0  0  0
  161.2070  202.5680  151.5030 C   0  0  0  0  0  2  0  0  0  0  0  0
  160.7210  203.9700  151.8240 C   0  0  2  0  0  3  0  0  0  0  0  0
  160.4520  203.3490  150.4470 C   0  0  1  0  0  3  0  0  0  0  0  0
  161.4130  203.7790  149.3430 C   0  0  0  0  0  2  0  0  0  0  0  0
  160.9750  201.3080  148.3750 S   0  0  0  0  0  0  0  0  0  0  0  0
  161.2340  202.9100  148.1470 C   0  0  0  0  0  0  0  0  0  0  0  0
  161.3980  203.4870  146.8420 N   0  0  0  0  0  2  0  0  0  0  0  0
  162.0280  204.7300  146.5110 C   0  0  0  0  0  0  0  0  0  0  0  0
  163.3700  204.7790  146.0390 N   0  0  0  0  0  1  0  0  0  0  0  0
  161.1250  206.0900  146.4790 S   0  0  0  0  0  0  0  0  0  0  0  0
  1  6  1  0  0  0  0
  1  9  1  0  0  0  0
  2  5  1  0  0  0  0
  3  7  1  0  0  0  0
  3  2  1  0  0  0  0
  4  7  2  0  0  0  0
  5 16  2  0  0  0  0
  5 14  1  0  0  0  0
  8 12  2  0  0  0  0
 10 18  1  0  0  0  0
 10 19  1  0  0  0  0
 11  4  1  0  0  0  0
 12 16  1  0  0  0  0
 13  2  2  0  0  0  0
 13  8  1  0  0  0  0
 14  1  2  0  0  0  0
 15 20  1  0  0  0  0
 15 11  1  0  0  0  0
 16 17  1  0  0  0  0
 17  6  2  0  0  0  0
 18 13  1  0  0  0  0
 19  3  2  0  0  0  0
 20 11  2  0  0  0  0
 20 19  1  0  0  0  0
 21  8  1  0  0  0  0
 22 23  1  0  0  0  0
 23 21  1  6  0  0  0
 24 25  1  6  0  0  0
 24 22  1  0  0  0  0
 24 23  1  0  0  0  0
 27 26  2  0  0  0  0
 27 25  1  0  0  0  0
 28 27  1  0  0  0  0
 29 28  1  0  0  0  0
 30 29  1  0  0  0  0
 31 29  2  0  0  0  0
M  END
>  <MODEL>
4

>  <REMARK>
 VINA RESULT:      -8.8      3.680      7.069
  Name = 
  6 active torsions:
  status: ('A' for Active; 'I' for Inactive)
    1  A    between atoms: C_1  and  N_24
    2  A    between atoms: C_3  and  C_19
    3  A    between atoms: C_3  and  C_22
    4  A    between atoms: C_9  and  C_23
    5  A    between atoms: C_15  and  C_23
    6  A    between atoms: C_19  and  N_24
                            x       y       z     vdW  Elec       q    Type
                         _______ _______ _______ _____ _____    ______ ____

>  <TORSDO>
F 6

$$$$
=
 OpenBabel11052422303D

 31 36  0  0  1  0  0  0  0  0999 V2000
  160.8150  202.1040  150.6730 C   0  0  0  0  0  0  0  0  0  0  0  0
  161.3240  205.4050  148.9580 C   0  0  0  0  0  0  0  0  0  0  0  0
  161.3350  205.1070  147.4860 C   0  0  0  0  0  0  0  0  0  0  0  0
  161.6340  203.3870  145.5780 C   0  0  0  0  0  3  0  0  0  0  0  0
  161.1600  204.4120  149.9620 C   0  0  0  0  0  0  0  0  0  0  0  0
  160.8120  202.5050  152.0090 C   0  0  0  0  0  3  0  0  0  0  0  0
  161.6000  203.7560  146.9700 C   0  0  0  0  0  3  0  0  0  0  0  0
  161.4270  207.0870  150.7310 C   0  0  0  0  0  0  0  0  0  0  0  0
  160.6450  200.7330  150.3410 N   0  0  0  0  0  1  0  0  0  0  0  0
  160.8370  207.6020  147.0710 C   0  0  0  0  0  2  0  0  0  0  0  0
  161.3890  204.4860  144.8110 C   0  0  0  0  0  0  0  0  0  0  0  0
  161.2770  206.1110  151.6600 N   0  0  0  0  0  0  0  0  0  0  0  0
  161.4360  206.7620  149.3630 C   0  0  0  0  0  0  0  0  0  0  0  0
  160.9860  203.0520  149.6600 C   0  0  0  0  0  3  0  0  0  0  0  0
  161.1500  205.5420  143.9200 C   0  0  0  0  0  2  0  0  0  0  0  0
  161.1440  204.8050  151.3230 C   0  0  0  0  0  0  0  0  0  0  0  0
  160.9740  203.8520  152.3330 C   0  0  0  0  0  3  0  0  0  0  0  0
  161.6460  207.8540  148.3380 C   0  0  0  0  0  2  0  0  0  0  0  0
  161.1090  206.2180  146.5930 C   0  0  0  0  0  0  0  0  0  0  0  0
  161.1390  205.8370  145.2920 C   0  0  0  0  0  0  0  0  0  0  0  0
  161.5460  208.5020  151.1930 C   0  0  0  0  0  2  0  0  0  0  0  0
  160.4130  208.7000  153.3980 C   0  0  0  0  0  2  0  0  0  0  0  0
  161.7530  208.5420  152.7040 C   0  0  2  0  0  3  0  0  0  0  0  0
  161.3760  209.8700  153.3750 C   0  0  1  0  0  3  0  0  0  0  0  0
  160.8520  210.9470  152.4300 C   0  0  0  0  0  2  0  0  0  0  0  0
  159.0320  212.9250  152.3410 S   0  0  0  0  0  0  0  0  0  0  0  0
  160.0140  211.9200  153.1840 C   0  0  0  0  0  0  0  0  0  0  0  0
  160.1740  212.0130  154.6090 N   0  0  0  0  0  2  0  0  0  0  0  0
  159.3080  211.4820  155.6190 C   0  0  0  0  0  0  0  0  0  0  0  0
  157.9160  211.2970  155.3810 N   0  0  0  0  0  1  0  0  0  0  0  0
  159.9650  210.8880  156.9900 S   0  0  0  0  0  0  0  0  0  0  0  0
  1  6  1  0  0  0  0
  2 13  2  0  0  0  0
  2  5  1  0  0  0  0
  3  2  1  0  0  0  0
  4  7  2  0  0  0  0
  5 16  2  0  0  0  0
  6 17  2  0  0  0  0
  7  3  1  0  0  0  0
  8 21  1  0  0  0  0
  8 12  2  0  0  0  0
  9  1  1  0  0  0  0
 10 18  1  0  0  0  0
 11 20  2  0  0  0  0
 11  4  1  0  0  0  0
 13  8  1  0  0  0  0
 14  5  1  0  0  0  0
 14  1  2  0  0  0  0
 15 11  1  0  0  0  0
 15 20  1  0  0  0  0
 16 12  1  0  0  0  0
 16 17  1  0  0  0  0
 18 13  1  0  0  0  0
 19 10  1  0  0  0  0
 19  3  2  0  0  0  0
 20 19  1  0  0  0  0
 23 21  1  6  0  0  0
 23 24  1  0  0  0  0
 23 22  1  0  0  0  0
 24 25  1  6  0  0  0
 24 22  1  0  0  0  0
 25 27  1  0  0  0  0
 26 27  2  0  0  0  0
 27 28  1  0  0  0  0
 28 29  1  0  0  0  0
 29 31  2  0  0  0  0
 30 29  1  0  0  0  0
M  END
>  <MODEL>
5

>  <REMARK>
 VINA RESULT:      -8.6      4.363      6.638
  Name = 
  6 active torsions:
  status: ('A' for Active; 'I' for Inactive)
    1  A    between atoms: C_1  and  N_24
    2  A    between atoms: C_3  and  C_19
    3  A    between atoms: C_3  and  C_22
    4  A    between atoms: C_9  and  C_23
    5  A    between atoms: C_15  and  C_23
    6  A    between atoms: C_19  and  N_24
                            x       y       z     vdW  Elec       q    Type
                         _______ _______ _______ _____ _____    ______ ____

>  <TORSDO>
F 6

$$$$
=
 OpenBabel11052422303D

 31 36  0  0  1  0  0  0  0  0999 V2000
  162.0450  209.7960  149.3150 C   0  0  0  0  0  0  0  0  0  0  0  0
  161.1190  206.6360  151.1170 C   0  0  0  0  0  0  0  0  0  0  0  0
  161.1230  205.5520  150.0780 C   0  0  0  0  0  0  0  0  0  0  0  0
  161.0090  204.8760  147.5850 C   0  0  0  0  0  3  0  0  0  0  0  0
  161.4150  207.9980  150.8380 C   0  0  0  0  0  0  0  0  0  0  0  0
  162.0180  210.7120  150.3670 C   0  0  0  0  0  3  0  0  0  0  0  0
  161.0170  205.8530  148.6430 C   0  0  0  0  0  3  0  0  0  0  0  0
  160.8380  207.2480  153.4690 C   0  0  0  0  0  0  0  0  0  0  0  0
  162.3740  210.2300  148.0020 N   0  0  0  0  0  1  0  0  0  0  0  0
  161.3120  203.8410  151.9960 C   0  0  0  0  0  2  0  0  0  0  0  0
  161.1090  203.6270  148.1190 C   0  0  0  0  0  0  0  0  0  0  0  0
  161.1160  208.5400  153.1620 N   0  0  0  0  0  0  0  0  0  0  0  0
  160.8500  206.2660  152.4620 C   0  0  0  0  0  0  0  0  0  0  0  0
  161.7480  208.4510  149.5510 C   0  0  0  0  0  3  0  0  0  0  0  0
  161.2060  202.2970  148.5500 C   0  0  0  0  0  2  0  0  0  0  0  0
  161.4020  208.9370  151.8980 C   0  0  0  0  0  0  0  0  0  0  0  0
  161.6990  210.2830  151.6560 C   0  0  0  0  0  3  0  0  0  0  0  0
  160.4950  204.8380  152.8100 C   0  0  0  0  0  2  0  0  0  0  0  0
  161.2020  204.1920  150.5530 C   0  0  0  0  0  0  0  0  0  0  0  0
  161.2010  203.2970  149.5340 C   0  0  0  0  0  0  0  0  0  0  0  0
  160.5550  206.8970  154.8930 C   0  0  0  0  0  2  0  0  0  0  0  0
  160.9400  207.6170  157.2420 C   0  0  0  0  0  2  0  0  0  0  0  0
  161.4620  207.7020  155.8190 C   0  0  2  0  0  3  0  0  0  0  0  0
  160.8000  208.9180  156.4780 C   0  0  1  0  0  3  0  0  0  0  0  0
  159.3370  209.1390  156.1080 C   0  0  0  0  0  2  0  0  0  0  0  0
  160.3550  211.4580  155.2020 S   0  0  0  0  0  0  0  0  0  0  0  0
  159.1050  210.5740  155.7860 C   0  0  0  0  0  0  0  0  0  0  0  0
  157.8290  211.1570  156.0980 N   0  0  0  0  0  2  0  0  0  0  0  0
  156.7420  211.4060  155.1980 C   0  0  0  0  0  0  0  0  0  0  0  0
  155.6240  210.5270  155.1260 N   0  0  0  0  0  1  0  0  0  0  0  0
  156.6890  212.8260  154.3950 S   0  0  0  0  0  0  0  0  0  0  0  0
  1 14  2  0  0  0  0
  1  6  1  0  0  0  0
  2 13  1  0  0  0  0
  3 19  1  0  0  0  0
  3  2  1  0  0  0  0
  4 11  2  0  0  0  0
  4  7  1  0  0  0  0
  5  2  2  0  0  0  0
  5 16  1  0  0  0  0
  6 17  2  0  0  0  0
  7  3  2  0  0  0  0
  8 21  1  0  0  0  0
  9  1  1  0  0  0  0
 10 18  1  0  0  0  0
 11 15  1  0  0  0  0
 11 20  1  0  0  0  0
 12  8  1  0  0  0  0
 13 18  1  0  0  0  0
 13  8  2  0  0  0  0
 14  5  1  0  0  0  0
 15 20  1  0  0  0  0
 16 12  2  0  0  0  0
 17 16  1  0  0  0  0
 19 10  1  0  0  0  0
 20 19  2  0  0  0  0
 23 21  1  6  0  0  0
 23 24  1  0  0  0  0
 23 22  1  0  0  0  0
 24 25  1  6  0  0  0
 24 22  1  0  0  0  0
 26 27  2  0  0  0  0
 27 28  1  0  0  0  0
 27 25  1  0  0  0  0
 29 28  1  0  0  0  0
 30 29  1  0  0  0  0
 31 29  2  0  0  0  0
M  END
>  <MODEL>
6

>  <REMARK>
 VINA RESULT:      -8.6      3.809      7.119
  Name = 
  6 active torsions:
  status: ('A' for Active; 'I' for Inactive)
    1  A    between atoms: C_1  and  N_24
    2  A    between atoms: C_3  and  C_19
    3  A    between atoms: C_3  and  C_22
    4  A    between atoms: C_9  and  C_23
    5  A    between atoms: C_15  and  C_23
    6  A    between atoms: C_19  and  N_24
                            x       y       z     vdW  Elec       q    Type
                         _______ _______ _______ _____ _____    ______ ____

>  <TORSDO>
F 6

$$$$
=
 OpenBabel11052422303D

 31 36  0  0  1  0  0  0  0  0999 V2000
  160.8710  212.9760  150.0540 C   0  0  0  0  0  0  0  0  0  0  0  0
  161.6010  209.4490  151.1140 C   0  0  0  0  0  0  0  0  0  0  0  0
  161.3130  209.3930  152.5870 C   0  0  0  0  0  0  0  0  0  0  0  0
  161.0040  210.6420  154.8310 C   0  0  0  0  0  3  0  0  0  0  0  0
  161.4530  210.6220  150.3250 C   0  0  0  0  0  0  0  0  0  0  0  0
  161.1590  212.9010  148.6910 C   0  0  0  0  0  3  0  0  0  0  0  0
  161.2670  210.6080  153.4140 C   0  0  0  0  0  3  0  0  0  0  0  0
  162.2710  208.2520  149.0890 C   0  0  0  0  0  0  0  0  0  0  0  0
  160.4300  214.2020  150.6220 N   0  0  0  0  0  1  0  0  0  0  0  0
  161.1560  206.8300  152.3660 C   0  0  0  0  0  2  0  0  0  0  0  0
  160.8110  209.3740  155.2870 C   0  0  0  0  0  0  0  0  0  0  0  0
  162.1290  209.3940  148.3710 N   0  0  0  0  0  0  0  0  0  0  0  0
  161.9950  208.2470  150.4680 C   0  0  0  0  0  0  0  0  0  0  0  0
  161.0150  211.8450  150.8620 C   0  0  0  0  0  3  0  0  0  0  0  0
  160.5950  208.1180  155.8730 C   0  0  0  0  0  2  0  0  0  0  0  0
  161.7330  210.5600  148.9380 C   0  0  0  0  0  0  0  0  0  0  0  0
  161.5870  211.6960  148.1340 C   0  0  0  0  0  3  0  0  0  0  0  0
  162.1990  206.9780  151.2650 C   0  0  0  0  0  2  0  0  0  0  0  0
  161.1180  208.0860  153.1660 C   0  0  0  0  0  0  0  0  0  0  0  0
  160.8650  208.1520  154.4960 C   0  0  0  0  0  0  0  0  0  0  0  0
  162.6920  207.0080  148.3770 C   0  0  0  0  0  2  0  0  0  0  0  0
  160.3530  206.1960  148.1520 C   0  0  0  0  0  2  0  0  0  0  0  0
  161.6090  206.5790  147.3910 C   0  0  2  0  0  3  0  0  0  0  0  0
  161.1820  205.1100  147.4980 C   0  0  1  0  0  3  0  0  0  0  0  0
  161.9040  204.3010  148.5720 C   0  0  0  0  0  2  0  0  0  0  0  0
  160.7880  203.4490  150.8650 S   0  0  0  0  0  0  0  0  0  0  0  0
  160.9500  203.3710  149.2360 C   0  0  0  0  0  0  0  0  0  0  0  0
  160.2880  202.3750  148.4420 N   0  0  0  0  0  2  0  0  0  0  0  0
  160.8870  201.4500  147.5270 C   0  0  0  0  0  0  0  0  0  0  0  0
  161.5060  200.2510  147.9820 N   0  0  0  0  0  1  0  0  0  0  0  0
  160.6760  201.6740  145.9240 S   0  0  0  0  0  0  0  0  0  0  0  0
  1  9  1  0  0  0  0
  1 14  1  0  0  0  0
  2  3  1  0  0  0  0
  3 19  2  0  0  0  0
  3  7  1  0  0  0  0
  4 11  1  0  0  0  0
  5 14  2  0  0  0  0
  5  2  1  0  0  0  0
  6  1  2  0  0  0  0
  7  4  2  0  0  0  0
  8 13  1  0  0  0  0
 10 19  1  0  0  0  0
 11 15  1  0  0  0  0
 12 16  1  0  0  0  0
 12  8  2  0  0  0  0
 13  2  2  0  0  0  0
 13 18  1  0  0  0  0
 16  5  1  0  0  0  0
 17  6  1  0  0  0  0
 17 16  2  0  0  0  0
 18 10  1  0  0  0  0
 19 20  1  0  0  0  0
 20 11  2  0  0  0  0
 20 15  1  0  0  0  0
 21  8  1  0  0  0  0
 23 24  1  0  0  0  0
 23 22  1  0  0  0  0
 23 21  1  1  0  0  0
 24 22  1  0  0  0  0
 24 25  1  1  0  0  0
 25 27  1  0  0  0  0
 27 26  2  0  0  0  0
 28 27  1  0  0  0  0
 29 30  1  0  0  0  0
 29 28  1  0  0  0  0
 31 29  2  0  0  0  0
M  END
>  <MODEL>
7

>  <REMARK>
 VINA RESULT:      -8.3      4.140      7.523
  Name = 
  6 active torsions:
  status: ('A' for Active; 'I' for Inactive)
    1  A    between atoms: C_1  and  N_24
    2  A    between atoms: C_3  and  C_19
    3  A    between atoms: C_3  and  C_22
    4  A    between atoms: C_9  and  C_23
    5  A    between atoms: C_15  and  C_23
    6  A    between atoms: C_19  and  N_24
                            x       y       z     vdW  Elec       q    Type
                         _______ _______ _______ _____ _____    ______ ____

>  <TORSDO>
F 6

$$$$
=
 OpenBabel11052422303D

 31 36  0  0  1  0  0  0  0  0999 V2000
  161.1630  204.7910  150.7880 C   0  0  0  0  0  0  0  0  0  0  0  0
  161.2370  208.2470  152.2530 C   0  0  0  0  0  0  0  0  0  0  0  0
  161.0050  208.0750  153.7270 C   0  0  0  0  0  0  0  0  0  0  0  0
  160.1280  206.6170  155.6740 C   0  0  0  0  0  3  0  0  0  0  0  0
  161.2770  207.1670  151.3290 C   0  0  0  0  0  0  0  0  0  0  0  0
  161.3970  205.0750  149.4420 C   0  0  0  0  0  3  0  0  0  0  0  0
  160.3890  206.8590  154.2780 C   0  0  0  0  0  3  0  0  0  0  0  0
  161.7030  209.7670  150.3940 C   0  0  0  0  0  0  0  0  0  0  0  0
  160.9830  203.4460  151.2100 N   0  0  0  0  0  1  0  0  0  0  0  0
  162.0080  210.4250  154.0650 C   0  0  0  0  0  2  0  0  0  0  0  0
  160.5330  207.6920  156.4050 C   0  0  0  0  0  0  0  0  0  0  0  0
  161.7240  208.7120  149.5420 N   0  0  0  0  0  0  0  0  0  0  0  0
  161.4780  209.5590  151.7660 C   0  0  0  0  0  0  0  0  0  0  0  0
  161.1060  205.8290  151.7220 C   0  0  0  0  0  3  0  0  0  0  0  0
  160.9100  208.7360  157.2610 C   0  0  0  0  0  2  0  0  0  0  0  0
  161.5230  207.4390  149.9620 C   0  0  0  0  0  0  0  0  0  0  0  0
  161.5780  206.3960  149.0310 C   0  0  0  0  0  3  0  0  0  0  0  0
  161.4140  210.7480  152.6990 C   0  0  0  0  0  2  0  0  0  0  0  0
  161.3820  209.1760  154.5800 C   0  0  0  0  0  0  0  0  0  0  0  0
  161.1310  208.9140  155.8870 C   0  0  0  0  0  0  0  0  0  0  0  0
  161.9560  211.1330  149.8460 C   0  0  0  0  0  2  0  0  0  0  0  0
  163.0690  212.1800  147.8840 C   0  0  0  0  0  2  0  0  0  0  0  0
  162.1450  211.0630  148.3340 C   0  0  2  0  0  3  0  0  0  0  0  0
  161.5930  212.2640  147.5560 C   0  0  1  0  0  3  0  0  0  0  0  0
  160.9390  213.3450  148.4110 C   0  0  0  0  0  2  0  0  0  0  0  0
  159.0120  212.8680  146.5960 S   0  0  0  0  0  0  0  0  0  0  0  0
  159.5120  213.5090  148.0190 C   0  0  0  0  0  0  0  0  0  0  0  0
  158.6540  214.3100  148.8470 N   0  0  0  0  0  2  0  0  0  0  0  0
  157.6920  213.8510  149.8050 C   0  0  0  0  0  0  0  0  0  0  0  0
  156.3250  213.6640  149.4520 N   0  0  0  0  0  1  0  0  0  0  0  0
  158.2120  213.3390  151.2650 S   0  0  0  0  0  0  0  0  0  0  0  0
  1  9  1  0  0  0  0
  1 14  1  0  0  0  0
  2  3  1  0  0  0  0
  3  7  2  0  0  0  0
  3 19  1  0  0  0  0
  4 11  2  0  0  0  0
  5 14  2  0  0  0  0
  5  2  1  0  0  0  0
  6  1  2  0  0  0  0
  7  4  1  0  0  0  0
  8 13  1  0  0  0  0
 10 19  1  0  0  0  0
 11 15  1  0  0  0  0
 12 16  1  0  0  0  0
 12  8  2  0  0  0  0
 13  2  2  0  0  0  0
 13 18  1  0  0  0  0
 16  5  1  0  0  0  0
 17  6  1  0  0  0  0
 17 16  2  0  0  0  0
 18 10  1  0  0  0  0
 19 20  2  0  0  0  0
 20 11  1  0  0  0  0
 20 15  1  0  0  0  0
 21  8  1  0  0  0  0
 22 23  1  0  0  0  0
 23 21  1  1  0  0  0
 24 22  1  0  0  0  0
 24 23  1  0  0  0  0
 24 25  1  1  0  0  0
 26 27  2  0  0  0  0
 27 25  1  0  0  0  0
 27 28  1  0  0  0  0
 28 29  1  0  0  0  0
 29 31  2  0  0  0  0
 30 29  1  0  0  0  0
M  END
>  <MODEL>
8

>  <REMARK>
 VINA RESULT:      -7.9      2.608      5.319
  Name = 
  6 active torsions:
  status: ('A' for Active; 'I' for Inactive)
    1  A    between atoms: C_1  and  N_24
    2  A    between atoms: C_3  and  C_19
    3  A    between atoms: C_3  and  C_22
    4  A    between atoms: C_9  and  C_23
    5  A    between atoms: C_15  and  C_23
    6  A    between atoms: C_19  and  N_24
                            x       y       z     vdW  Elec       q    Type
                         _______ _______ _______ _____ _____    ______ ____

>  <TORSDO>
F 6

$$$$
=
 OpenBabel11052422303D

 31 36  0  0  1  0  0  0  0  0999 V2000
  160.8010  207.7650  154.5280 C   0  0  0  0  0  0  0  0  0  0  0  0
  161.2320  209.3700  151.1620 C   0  0  0  0  0  0  0  0  0  0  0  0
  160.7640  210.7890  151.3190 C   0  0  0  0  0  0  0  0  0  0  0  0
  159.3860  212.5310  152.6430 C   0  0  0  0  0  3  0  0  0  0  0  0
  161.2260  208.4160  152.2160 C   0  0  0  0  0  0  0  0  0  0  0  0
  161.2700  206.4780  154.2630 C   0  0  0  0  0  3  0  0  0  0  0  0
  159.8830  211.1970  152.4240 C   0  0  0  0  0  3  0  0  0  0  0  0
  162.2060  207.6600  149.7090 C   0  0  0  0  0  0  0  0  0  0  0  0
  160.3420  208.1000  155.8310 N   0  0  0  0  0  1  0  0  0  0  0  0
  162.0810  211.3630  149.1800 C   0  0  0  0  0  2  0  0  0  0  0  0
  159.8530  213.3560  151.6660 C   0  0  0  0  0  0  0  0  0  0  0  0
  162.1760  206.7760  150.7370 N   0  0  0  0  0  0  0  0  0  0  0  0
  161.7540  208.9780  149.9010 C   0  0  0  0  0  0  0  0  0  0  0  0
  160.7820  208.7240  153.5130 C   0  0  0  0  0  3  0  0  0  0  0  0
  160.2690  214.3000  150.7160 C   0  0  0  0  0  2  0  0  0  0  0  0
  161.7090  207.1090  151.9650 C   0  0  0  0  0  0  0  0  0  0  0  0
  161.7250  206.1520  152.9850 C   0  0  0  0  0  3  0  0  0  0  0  0
  161.7530  209.9430  148.7360 C   0  0  0  0  0  2  0  0  0  0  0  0
  161.1900  211.7320  150.3140 C   0  0  0  0  0  0  0  0  0  0  0  0
  160.7130  212.9790  150.5530 C   0  0  0  0  0  0  0  0  0  0  0  0
  162.7570  207.2120  148.3960 C   0  0  0  0  0  2  0  0  0  0  0  0
  160.4710  206.3510  147.9330 C   0  0  0  0  0  2  0  0  0  0  0  0
  161.6400  207.1310  147.3600 C   0  0  2  0  0  3  0  0  0  0  0  0
  161.3260  205.7170  146.8550 C   0  0  1  0  0  3  0  0  0  0  0  0
  162.1780  204.6070  147.4630 C   0  0  0  0  0  2  0  0  0  0  0  0
  161.0910  203.0230  145.5810 S   0  0  0  0  0  0  0  0  0  0  0  0
  161.6040  203.2780  147.1160 C   0  0  0  0  0  0  0  0  0  0  0  0
  161.4250  202.3070  148.1600 N   0  0  0  0  0  2  0  0  0  0  0  0
  160.4700  202.3410  149.2270 C   0  0  0  0  0  0  0  0  0  0  0  0
  159.3540  201.4570  149.2510 N   0  0  0  0  0  1  0  0  0  0  0  0
  160.7790  203.2650  150.5360 S   0  0  0  0  0  0  0  0  0  0  0  0
  1  9  1  0  0  0  0
  2  3  1  0  0  0  0
  2  5  1  0  0  0  0
  3  7  1  0  0  0  0
  5 14  1  0  0  0  0
  6  1  1  0  0  0  0
  7  4  2  0  0  0  0
  8 13  1  0  0  0  0
  8 12  2  0  0  0  0
 10 19  1  0  0  0  0
 11  4  1  0  0  0  0
 12 16  1  0  0  0  0
 13  2  2  0  0  0  0
 14  1  2  0  0  0  0
 15 11  1  0  0  0  0
 16  5  2  0  0  0  0
 16 17  1  0  0  0  0
 17  6  2  0  0  0  0
 18 10  1  0  0  0  0
 18 13  1  0  0  0  0
 19 20  1  0  0  0  0
 19  3  2  0  0  0  0
 20 15  1  0  0  0  0
 20 11  2  0  0  0  0
 21  8  1  0  0  0  0
 23 22  1  0  0  0  0
 23 21  1  1  0  0  0
 24 23  1  0  0  0  0
 24 25  1  1  0  0  0
 24 22  1  0  0  0  0
 26 27  2  0  0  0  0
 27 25  1  0  0  0  0
 27 28  1  0  0  0  0
 28 29  1  0  0  0  0
 29 30  1  0  0  0  0
 29 31  2  0  0  0  0
M  END
>  <MODEL>
9

>  <REMARK>
 VINA RESULT:      -7.3      4.204      7.401
  Name = 
  6 active torsions:
  status: ('A' for Active; 'I' for Inactive)
    1  A    between atoms: C_1  and  N_24
    2  A    between atoms: C_3  and  C_19
    3  A    between atoms: C_3  and  C_22
    4  A    between atoms: C_9  and  C_23
    5  A    between atoms: C_15  and  C_23
    6  A    between atoms: C_19  and  N_24
                            x       y       z     vdW  Elec       q    Type
                         _______ _______ _______ _____ _____    ______ ____

>  <TORSDO>
F 6

$$$$
