=
 OpenBabel11062410103D

 43 48  0  0  1  0  0  0  0  0999 V2000
  160.4380  207.4810  155.0270 C   0  0  0  0  0  0  0  0  0  0  0  0
  162.0510  207.7500  150.1990 C   0  0  0  0  0  0  0  0  0  0  0  0
  161.8600  210.5290  149.2370 C   0  0  0  0  0  0  0  0  0  0  0  0
  161.2210  206.9460  152.7670 C   0  0  0  0  0  0  0  0  0  0  0  0
  160.5560  208.7940  154.8290 C   0  0  0  0  0  3  0  0  0  0  0  0
  159.9620  207.0190  156.2070 F   0  0  0  0  0  0  0  0  0  0  0  0
  161.3520  208.3230  152.4750 C   0  0  0  0  0  0  0  0  0  0  0  0
  160.7990  206.5300  153.9650 C   0  0  0  0  0  3  0  0  0  0  0  0
  161.0920  209.3640  153.5430 C   0  0  0  0  0  3  0  0  0  0  0  0
  162.3820  210.4120  150.9520 S   0  0  0  0  0  0  0  0  0  0  0  0
  161.8100  208.7210  151.2010 C   0  0  0  0  0  0  0  0  0  0  0  0
  161.9540  206.3920  150.5330 C   0  0  0  0  0  3  0  0  0  0  0  0
  162.2770  208.0950  148.9130 C   0  0  2  0  0  3  0  0  0  0  0  0
  161.9930  209.4710  148.4360 C   0  0  0  0  0  3  0  0  0  0  0  0
  161.5480  205.9930  151.8040 C   0  0  0  0  0  3  0  0  0  0  0  0
  161.4130  211.7860  148.7060 N   0  0  0  0  0  0  0  0  0  0  0  0
  161.5460  212.1320  147.3360 C   0  0  0  0  0  3  0  0  0  0  0  0
  160.8260  212.8430  149.5220 C   0  0  0  0  0  2  0  0  0  0  0  0
  161.0910  213.3310  147.0380 C   0  0  0  0  0  0  0  0  0  0  0  0
  160.4540  214.2580  148.4240 S   0  0  0  0  0  0  0  0  0  0  0  0
  161.1830  213.9130  145.6670 C   0  0  0  0  0  2  0  0  0  0  0  0
  161.8780  212.9490  144.6980 C   0  0  2  0  0  3  0  0  0  0  0  0
  162.0930  214.1000  142.6360 O   0  0  0  0  0  0  0  0  0  0  0  0
  163.3140  213.3560  144.5560 C   0  0  0  0  0  2  0  0  0  0  0  0
  161.3710  213.0680  143.2640 C   0  0  1  0  0  0  0  0  0  0  0  0
  161.6220  211.8640  142.6010 O   0  0  0  0  0  1  0  0  0  0  0  0
  163.3400  214.1850  143.2880 C   0  0  0  0  0  2  0  0  0  0  0  0
  159.8670  213.3580  143.1940 C   0  0  0  0  0  2  0  0  0  0  0  0
  159.4600  213.6620  141.8320 N   0  0  0  0  0  0  0  0  0  0  0  0
  158.7370  212.5430  139.7360 C   0  0  0  0  0  2  0  0  0  0  0  0
  157.5300  214.4530  140.5010 C   0  0  0  0  0  2  0  0  0  0  0  0
  158.4200  213.9440  139.4550 N   0  0  0  0  0  2  0  0  0  0  0  0
  158.1110  214.2230  141.9040 C   0  0  0  0  0  2  0  0  0  0  0  0
  159.4050  212.3880  141.1120 C   0  0  0  0  0  2  0  0  0  0  0  0
  162.6260  207.0900  147.9920 O   0  0  0  0  0  0  0  0  0  0  0  0
  160.5460  206.5640  147.0970 O   0  0  0  0  0  0  0  0  0  0  0  0
  161.7350  206.2250  147.3440 C   0  0  0  0  0  0  0  0  0  0  0  0
  162.2080  204.8740  146.9290 C   0  0  0  0  0  2  0  0  0  0  0  0
  161.2050  202.4130  145.9430 F   0  0  0  0  0  0  0  0  0  0  0  0
  161.1080  202.6740  147.2730 C   0  0  0  0  0  0  0  0  0  0  0  0
  161.5850  203.8150  147.7830 C   0  0  0  0  0  3  0  0  0  0  0  0
  161.5310  200.7000  148.5960 N   0  0  0  0  0  1  0  0  0  0  0  0
  160.5110  201.6460  148.1750 C   0  0  0  0  0  2  0  0  0  0  0  0
  1  6  1  0  0  0  0
  2 12  2  0  0  0  0
  2 11  1  0  0  0  0
  3 10  1  0  0  0  0
  4  8  1  0  0  0  0
  5  1  1  0  0  0  0
  7  4  1  0  0  0  0
  7  9  1  0  0  0  0
  8  1  2  0  0  0  0
  9  5  2  0  0  0  0
 10 11  1  0  0  0  0
 11  7  2  0  0  0  0
 12 15  1  0  0  0  0
 13 35  1  6  0  0  0
 13  2  1  0  0  0  0
 14 13  1  0  0  0  0
 14  3  2  0  0  0  0
 15  4  2  0  0  0  0
 16  3  1  0  0  0  0
 16 18  1  0  0  0  0
 17 16  1  0  0  0  0
 19 17  2  0  0  0  0
 19 20  1  0  0  0  0
 20 18  1  0  0  0  0
 21 19  1  0  0  0  0
 22 21  1  1  0  0  0
 23 25  1  0  0  0  0
 23 27  1  0  0  0  0
 24 22  1  0  0  0  0
 25 26  1  6  0  0  0
 25 22  1  0  0  0  0
 27 24  1  0  0  0  0
 28 25  1  0  0  0  0
 29 33  1  0  0  0  0
 29 28  1  0  0  0  0
 30 34  1  0  0  0  0
 31 33  1  0  0  0  0
 32 30  1  0  0  0  0
 32 31  1  0  0  0  0
 34 29  1  0  0  0  0
 36 37  2  0  0  0  0
 37 35  1  0  0  0  0
 38 37  1  0  0  0  0
 38 41  1  0  0  0  0
 39 40  1  0  0  0  0
 40 41  2  0  0  0  0
 40 43  1  0  0  0  0
 43 42  1  0  0  0  0
M  END
>  <MODEL>
1

>  <REMARK>
 VINA RESULT:      -8.8      0.000      0.000
  Name = 
  10 active torsions:
  status: ('A' for Active; 'I' for Inactive)
    1  A    between atoms: O_1  and  C_34
    2  A    between atoms: O_1  and  C_35
    3  A    between atoms: N_2  and  C_13
    4  A    between atoms: C_3  and  C_4
    5  A    between atoms: C_3  and  C_12
    6  A    between atoms: N_11  and  C_14
    7  A    between atoms: C_14  and  C_22
    8  A    between atoms: C_19  and  C_37
    9  A    between atoms: C_28  and  C_35
   10  A    between atoms: C_28  and  C_39
                            x       y       z     vdW  Elec       q    Type
                         _______ _______ _______ _____ _____    ______ ____

>  <TORSDO>
F 10

$$$$
=
 OpenBabel11062410103D

 43 48  0  0  1  0  0  0  0  0999 V2000
  160.8240  202.4440  147.9100 C   0  0  0  0  0  0  0  0  0  0  0  0
  161.9280  207.1830  149.4260 C   0  0  0  0  0  0  0  0  0  0  0  0
  161.4230  207.4490  152.3170 C   0  0  0  0  0  0  0  0  0  0  0  0
  161.4200  204.8190  147.9820 C   0  0  0  0  0  0  0  0  0  0  0  0
  160.8160  202.3360  149.2390 C   0  0  0  0  0  3  0  0  0  0  0  0
  160.5040  201.3720  147.1470 F   0  0  0  0  0  0  0  0  0  0  0  0
  161.4120  204.7900  149.3950 C   0  0  0  0  0  0  0  0  0  0  0  0
  161.1530  203.7240  147.2660 C   0  0  0  0  0  3  0  0  0  0  0  0
  161.1770  203.4900  150.1360 C   0  0  0  0  0  3  0  0  0  0  0  0
  162.1190  205.8550  151.8680 S   0  0  0  0  0  0  0  0  0  0  0  0
  161.7100  205.9670  150.1150 C   0  0  0  0  0  0  0  0  0  0  0  0
  161.9730  207.1710  148.0250 C   0  0  0  0  0  3  0  0  0  0  0  0
  161.9990  208.3660  150.0750 C   0  0  2  0  0  3  0  0  0  0  0  0
  161.5600  208.4830  151.4870 C   0  0  0  0  0  3  0  0  0  0  0  0
  161.7270  206.0010  147.3100 C   0  0  0  0  0  3  0  0  0  0  0  0
  160.8270  207.6330  153.6110 N   0  0  0  0  0  0  0  0  0  0  0  0
  160.4210  208.9040  154.0940 C   0  0  0  0  0  3  0  0  0  0  0  0
  160.6250  206.5520  154.5680 C   0  0  0  0  0  2  0  0  0  0  0  0
  159.9080  208.8790  155.3070 C   0  0  0  0  0  0  0  0  0  0  0  0
  159.8800  207.2690  156.0760 S   0  0  0  0  0  0  0  0  0  0  0  0
  159.4680  210.1120  156.0240 C   0  0  0  0  0  2  0  0  0  0  0  0
  160.0410  211.3730  155.3680 C   0  0  2  0  0  3  0  0  0  0  0  0
  159.1740  213.2190  156.5790 O   0  0  0  0  0  0  0  0  0  0  0  0
  161.1460  211.9080  156.2290 C   0  0  0  0  0  2  0  0  0  0  0  0
  159.0590  212.5400  155.3500 C   0  0  1  0  0  0  0  0  0  0  0  0
  159.4160  213.4070  154.3130 O   0  0  0  0  0  1  0  0  0  0  0  0
  160.4820  212.9920  157.0530 C   0  0  0  0  0  2  0  0  0  0  0  0
  157.6110  212.0880  155.1300 C   0  0  0  0  0  2  0  0  0  0  0  0
  156.6780  213.0060  155.7640 N   0  0  0  0  0  0  0  0  0  0  0  0
  154.6620  214.3650  155.2630 C   0  0  0  0  0  2  0  0  0  0  0  0
  154.7080  213.0640  157.2610 C   0  0  0  0  0  2  0  0  0  0  0  0
  154.7110  214.4270  156.7240 N   0  0  0  0  0  2  0  0  0  0  0  0
  155.8240  212.2070  156.6430 C   0  0  0  0  0  2  0  0  0  0  0  0
  155.8560  213.5800  154.6980 C   0  0  0  0  0  2  0  0  0  0  0  0
  162.3340  209.5210  149.3440 O   0  0  0  0  0  0  0  0  0  0  0  0
  161.2830  211.0940  150.6950 O   0  0  0  0  0  0  0  0  0  0  0  0
  161.9680  210.8340  149.6690 C   0  0  0  0  0  0  0  0  0  0  0  0
  162.4060  211.9490  148.7840 C   0  0  0  0  0  2  0  0  0  0  0  0
  160.3790  213.9280  148.6590 F   0  0  0  0  0  0  0  0  0  0  0  0
  160.5030  213.0510  147.6290 C   0  0  0  0  0  0  0  0  0  0  0  0
  161.4570  212.1130  147.6380 C   0  0  0  0  0  3  0  0  0  0  0  0
  159.7910  212.0570  145.5470 N   0  0  0  0  0  1  0  0  0  0  0  0
  159.5940  213.1780  146.4520 C   0  0  0  0  0  2  0  0  0  0  0  0
  1  5  1  0  0  0  0
  2 13  1  0  0  0  0
  2 11  1  0  0  0  0
  3 16  1  0  0  0  0
  4  7  1  0  0  0  0
  5  9  2  0  0  0  0
  6  1  1  0  0  0  0
  7 11  2  0  0  0  0
  7  9  1  0  0  0  0
  8  1  2  0  0  0  0
  8  4  1  0  0  0  0
 10  3  1  0  0  0  0
 11 10  1  0  0  0  0
 12  2  2  0  0  0  0
 13 35  1  6  0  0  0
 13 14  1  0  0  0  0
 14  3  2  0  0  0  0
 15  4  2  0  0  0  0
 15 12  1  0  0  0  0
 16 17  1  0  0  0  0
 16 18  1  0  0  0  0
 17 19  2  0  0  0  0
 18 20  1  0  0  0  0
 19 21  1  0  0  0  0
 19 20  1  0  0  0  0
 22 21  1  1  0  0  0
 22 24  1  0  0  0  0
 23 27  1  0  0  0  0
 24 27  1  0  0  0  0
 25 26  1  6  0  0  0
 25 22  1  0  0  0  0
 25 23  1  0  0  0  0
 28 25  1  0  0  0  0
 28 29  1  0  0  0  0
 29 33  1  0  0  0  0
 30 32  1  0  0  0  0
 32 31  1  0  0  0  0
 33 31  1  0  0  0  0
 34 30  1  0  0  0  0
 34 29  1  0  0  0  0
 35 37  1  0  0  0  0
 37 36  2  0  0  0  0
 38 37  1  0  0  0  0
 40 41  2  0  0  0  0
 40 39  1  0  0  0  0
 41 38  1  0  0  0  0
 42 43  1  0  0  0  0
 43 40  1  0  0  0  0
M  END
>  <MODEL>
2

>  <REMARK>
 VINA RESULT:      -8.4      4.765     10.009
  Name = 
  10 active torsions:
  status: ('A' for Active; 'I' for Inactive)
    1  A    between atoms: O_1  and  C_34
    2  A    between atoms: O_1  and  C_35
    3  A    between atoms: N_2  and  C_13
    4  A    between atoms: C_3  and  C_4
    5  A    between atoms: C_3  and  C_12
    6  A    between atoms: N_11  and  C_14
    7  A    between atoms: C_14  and  C_22
    8  A    between atoms: C_19  and  C_37
    9  A    between atoms: C_28  and  C_35
   10  A    between atoms: C_28  and  C_39
                            x       y       z     vdW  Elec       q    Type
                         _______ _______ _______ _____ _____    ______ ____

>  <TORSDO>
F 10

$$$$
=
 OpenBabel11062410103D

 43 48  0  0  1  0  0  0  0  0999 V2000
  160.5500  203.3800  152.5710 C   0  0  0  0  0  0  0  0  0  0  0  0
  161.7740  205.9590  148.3480 C   0  0  0  0  0  0  0  0  0  0  0  0
  161.9740  208.8340  148.9580 C   0  0  0  0  0  0  0  0  0  0  0  0
  161.0380  204.0230  150.2580 C   0  0  0  0  0  0  0  0  0  0  0  0
  160.8700  204.5840  153.0450 C   0  0  0  0  0  3  0  0  0  0  0  0
  160.1040  202.4220  153.4170 F   0  0  0  0  0  0  0  0  0  0  0  0
  161.3750  205.3300  150.6810 C   0  0  0  0  0  0  0  0  0  0  0  0
  160.6550  203.0900  151.1330 C   0  0  0  0  0  3  0  0  0  0  0  0
  161.3850  205.6830  152.1530 C   0  0  0  0  0  3  0  0  0  0  0  0
  162.6110  207.7900  150.2740 S   0  0  0  0  0  0  0  0  0  0  0  0
  161.7850  206.2840  149.7250 C   0  0  0  0  0  0  0  0  0  0  0  0
  161.4780  204.6430  147.9640 C   0  0  0  0  0  3  0  0  0  0  0  0
  161.9460  206.8980  147.3930 C   0  0  2  0  0  3  0  0  0  0  0  0
  161.8590  208.3410  147.7250 C   0  0  0  0  0  3  0  0  0  0  0  0
  161.1190  203.6840  148.9080 C   0  0  0  0  0  3  0  0  0  0  0  0
  161.7030  210.2220  149.2110 N   0  0  0  0  0  0  0  0  0  0  0  0
  161.2490  210.6980  150.4680 C   0  0  0  0  0  3  0  0  0  0  0  0
  161.8200  211.2640  148.1970 C   0  0  0  0  0  2  0  0  0  0  0  0
  161.0400  211.9980  150.5070 C   0  0  0  0  0  0  0  0  0  0  0  0
  161.3360  212.8510  148.9670 S   0  0  0  0  0  0  0  0  0  0  0  0
  160.5110  212.6970  151.7140 C   0  0  0  0  0  2  0  0  0  0  0  0
  159.0960  212.2170  152.0590 C   0  0  2  0  0  3  0  0  0  0  0  0
  158.3980  213.4720  153.9470 O   0  0  0  0  0  0  0  0  0  0  0  0
  158.1080  213.2390  151.5830 C   0  0  0  0  0  2  0  0  0  0  0  0
  158.8210  212.1870  153.5600 C   0  0  1  0  0  0  0  0  0  0  0  0
  157.7930  211.2720  153.8060 O   0  0  0  0  0  1  0  0  0  0  0  0
  157.8110  214.0700  152.8140 C   0  0  0  0  0  2  0  0  0  0  0  0
  160.0500  211.7670  154.3750 C   0  0  0  0  0  2  0  0  0  0  0  0
  159.9050  210.4080  154.8710 N   0  0  0  0  0  0  0  0  0  0  0  0
  161.0250  208.1940  154.7940 C   0  0  0  0  0  2  0  0  0  0  0  0
  160.2440  209.0200  156.8910 C   0  0  0  0  0  2  0  0  0  0  0  0
  160.0430  207.9980  155.8610 N   0  0  0  0  0  2  0  0  0  0  0  0
  160.2340  210.4360  156.2960 C   0  0  0  0  0  2  0  0  0  0  0  0
  160.9000  209.5930  154.1710 C   0  0  0  0  0  2  0  0  0  0  0  0
  162.0420  206.4900  146.0500 O   0  0  0  0  0  0  0  0  0  0  0  0
  159.8100  206.3660  145.4100 O   0  0  0  0  0  0  0  0  0  0  0  0
  160.9980  205.9680  145.2730 C   0  0  0  0  0  0  0  0  0  0  0  0
  161.3040  204.9240  144.2560 C   0  0  0  0  0  2  0  0  0  0  0  0
  159.0310  203.2570  143.9470 F   0  0  0  0  0  0  0  0  0  0  0  0
  160.0740  202.8110  144.6950 C   0  0  0  0  0  0  0  0  0  0  0  0
  161.1730  203.5570  144.8510 C   0  0  0  0  0  3  0  0  0  0  0  0
  160.9130  201.3590  146.4310 N   0  0  0  0  0  1  0  0  0  0  0  0
  160.0050  201.4480  145.2990 C   0  0  0  0  0  2  0  0  0  0  0  0
  1  5  1  0  0  0  0
  1  6  1  0  0  0  0
  2 11  1  0  0  0  0
  3 16  1  0  0  0  0
  3 10  1  0  0  0  0
  4  7  1  0  0  0  0
  4  8  1  0  0  0  0
  7  9  1  0  0  0  0
  8  1  2  0  0  0  0
  9  5  2  0  0  0  0
 11 10  1  0  0  0  0
 11  7  2  0  0  0  0
 12  2  2  0  0  0  0
 12 15  1  0  0  0  0
 13 35  1  6  0  0  0
 13 14  1  0  0  0  0
 13  2  1  0  0  0  0
 14  3  2  0  0  0  0
 15  4  2  0  0  0  0
 16 17  1  0  0  0  0
 17 19  2  0  0  0  0
 18 20  1  0  0  0  0
 18 16  1  0  0  0  0
 19 21  1  0  0  0  0
 20 19  1  0  0  0  0
 22 21  1  1  0  0  0
 22 25  1  0  0  0  0
 24 22  1  0  0  0  0
 24 27  1  0  0  0  0
 25 26  1  1  0  0  0
 25 23  1  0  0  0  0
 25 28  1  0  0  0  0
 27 23  1  0  0  0  0
 28 29  1  0  0  0  0
 29 33  1  0  0  0  0
 30 32  1  0  0  0  0
 32 31  1  0  0  0  0
 33 31  1  0  0  0  0
 34 30  1  0  0  0  0
 34 29  1  0  0  0  0
 37 36  2  0  0  0  0
 37 35  1  0  0  0  0
 38 41  1  0  0  0  0
 38 37  1  0  0  0  0
 39 40  1  0  0  0  0
 40 41  2  0  0  0  0
 40 43  1  0  0  0  0
 43 42  1  0  0  0  0
M  END
>  <MODEL>
3

>  <REMARK>
 VINA RESULT:      -7.5      4.425      7.717
  Name = 
  10 active torsions:
  status: ('A' for Active; 'I' for Inactive)
    1  A    between atoms: O_1  and  C_34
    2  A    between atoms: O_1  and  C_35
    3  A    between atoms: N_2  and  C_13
    4  A    between atoms: C_3  and  C_4
    5  A    between atoms: C_3  and  C_12
    6  A    between atoms: N_11  and  C_14
    7  A    between atoms: C_14  and  C_22
    8  A    between atoms: C_19  and  C_37
    9  A    between atoms: C_28  and  C_35
   10  A    between atoms: C_28  and  C_39
                            x       y       z     vdW  Elec       q    Type
                         _______ _______ _______ _____ _____    ______ ____

>  <TORSDO>
F 10

$$$$
=
 OpenBabel11062410103D

 43 48  0  0  1  0  0  0  0  0999 V2000
  161.1720  213.5670  147.1120 C   0  0  0  0  0  0  0  0  0  0  0  0
  160.2020  212.2140  151.9300 C   0  0  0  0  0  0  0  0  0  0  0  0
  161.1300  209.4570  152.3980 C   0  0  0  0  0  0  0  0  0  0  0  0
  160.3780  213.4990  149.4290 C   0  0  0  0  0  0  0  0  0  0  0  0
  161.8750  212.4430  147.2490 C   0  0  0  0  0  3  0  0  0  0  0  0
  161.1370  214.1960  145.9140 F   0  0  0  0  0  0  0  0  0  0  0  0
  161.0820  212.2910  149.6460 C   0  0  0  0  0  0  0  0  0  0  0  0
  160.4150  214.1180  148.2460 C   0  0  0  0  0  3  0  0  0  0  0  0
  161.9620  211.7080  148.5600 C   0  0  0  0  0  3  0  0  0  0  0  0
  162.2290  210.3980  151.3330 S   0  0  0  0  0  0  0  0  0  0  0  0
  161.0260  211.6740  150.9140 C   0  0  0  0  0  0  0  0  0  0  0  0
  159.5520  213.4350  151.6990 C   0  0  0  0  0  3  0  0  0  0  0  0
  159.9500  211.5430  153.0740 C   0  0  2  0  0  3  0  0  0  0  0  0
  160.2760  210.1010  153.1940 C   0  0  0  0  0  3  0  0  0  0  0  0
  159.6430  214.0730  150.4640 C   0  0  0  0  0  3  0  0  0  0  0  0
  161.2530  208.0280  152.4740 N   0  0  0  0  0  0  0  0  0  0  0  0
  161.6120  207.2280  151.3580 C   0  0  0  0  0  3  0  0  0  0  0  0
  160.9790  207.2580  153.6810 C   0  0  0  0  0  2  0  0  0  0  0  0
  161.6610  205.9380  151.6150 C   0  0  0  0  0  0  0  0  0  0  0  0
  161.2290  205.4900  153.2870 S   0  0  0  0  0  0  0  0  0  0  0  0
  161.9650  204.9160  150.5710 C   0  0  0  0  0  2  0  0  0  0  0  0
  160.7490  204.0260  150.2920 C   0  0  2  0  0  3  0  0  0  0  0  0
  161.5920  201.8690  149.7800 O   0  0  0  0  0  0  0  0  0  0  0  0
  160.5050  203.1500  151.4850 C   0  0  0  0  0  2  0  0  0  0  0  0
  160.9950  202.9990  149.1910 C   0  0  1  0  0  0  0  0  0  0  0  0
  159.7630  202.6320  148.6400 O   0  0  0  0  0  1  0  0  0  0  0  0
  161.1780  201.8410  151.1280 C   0  0  0  0  0  2  0  0  0  0  0  0
  161.8860  203.5420  148.0690 C   0  0  0  0  0  2  0  0  0  0  0  0
  161.0930  204.2240  147.0590 N   0  0  0  0  0  0  0  0  0  0  0  0
  160.7800  206.4640  146.0350 C   0  0  0  0  0  2  0  0  0  0  0  0
  160.9100  204.5540  144.6130 C   0  0  0  0  0  2  0  0  0  0  0  0
  160.0260  205.6070  145.1190 N   0  0  0  0  0  2  0  0  0  0  0  0
  161.5930  203.7860  145.7560 C   0  0  0  0  0  2  0  0  0  0  0  0
  161.3550  205.6560  147.2100 C   0  0  0  0  0  2  0  0  0  0  0  0
  159.2200  212.1860  154.0910 O   0  0  0  0  0  0  0  0  0  0  0  0
  157.1420  211.1810  154.3660 O   0  0  0  0  0  0  0  0  0  0  0  0
  158.2150  211.6040  154.8750 C   0  0  0  0  0  0  0  0  0  0  0  0
  158.4260  211.4740  156.3440 C   0  0  0  0  0  2  0  0  0  0  0  0
  159.4450  208.8310  156.2220 F   0  0  0  0  0  0  0  0  0  0  0  0
  160.2790  209.8390  156.5880 C   0  0  0  0  0  0  0  0  0  0  0  0
  159.8450  211.1030  156.6400 C   0  0  0  0  0  3  0  0  0  0  0  0
  162.5760  210.3640  156.0640 N   0  0  0  0  0  1  0  0  0  0  0  0
  161.7100  209.5290  156.8800 C   0  0  0  0  0  2  0  0  0  0  0  0
  1  5  2  0  0  0  0
  1  8  1  0  0  0  0
  2 13  1  0  0  0  0
  3 16  1  0  0  0  0
  3 14  2  0  0  0  0
  4  7  1  0  0  0  0
  4 15  1  0  0  0  0
  5  9  1  0  0  0  0
  6  1  1  0  0  0  0
  7 11  1  0  0  0  0
  8  4  2  0  0  0  0
  9  7  2  0  0  0  0
 10  3  1  0  0  0  0
 11 10  1  0  0  0  0
 11  2  2  0  0  0  0
 12  2  1  0  0  0  0
 13 14  1  0  0  0  0
 13 35  1  6  0  0  0
 15 12  2  0  0  0  0
 16 18  1  0  0  0  0
 17 19  2  0  0  0  0
 17 16  1  0  0  0  0
 19 20  1  0  0  0  0
 20 18  1  0  0  0  0
 21 19  1  0  0  0  0
 22 21  1  1  0  0  0
 22 24  1  0  0  0  0
 23 27  1  0  0  0  0
 25 26  1  6  0  0  0
 25 23  1  0  0  0  0
 25 22  1  0  0  0  0
 27 24  1  0  0  0  0
 28 25  1  0  0  0  0
 29 34  1  0  0  0  0
 29 28  1  0  0  0  0
 30 34  1  0  0  0  0
 31 32  1  0  0  0  0
 31 33  1  0  0  0  0
 32 30  1  0  0  0  0
 33 29  1  0  0  0  0
 35 37  1  0  0  0  0
 36 37  2  0  0  0  0
 37 38  1  0  0  0  0
 38 41  1  0  0  0  0
 39 40  1  0  0  0  0
 40 41  2  0  0  0  0
 40 43  1  0  0  0  0
 42 43  1  0  0  0  0
M  END
>  <MODEL>
4

>  <REMARK>
 VINA RESULT:      -7.3      4.854      9.663
  Name = 
  10 active torsions:
  status: ('A' for Active; 'I' for Inactive)
    1  A    between atoms: O_1  and  C_34
    2  A    between atoms: O_1  and  C_35
    3  A    between atoms: N_2  and  C_13
    4  A    between atoms: C_3  and  C_4
    5  A    between atoms: C_3  and  C_12
    6  A    between atoms: N_11  and  C_14
    7  A    between atoms: C_14  and  C_22
    8  A    between atoms: C_19  and  C_37
    9  A    between atoms: C_28  and  C_35
   10  A    between atoms: C_28  and  C_39
                            x       y       z     vdW  Elec       q    Type
                         _______ _______ _______ _____ _____    ______ ____

>  <TORSDO>
F 10

$$$$
=
 OpenBabel11062410103D

 43 48  0  0  1  0  0  0  0  0999 V2000
  161.0350  213.4140  147.2510 C   0  0  0  0  0  0  0  0  0  0  0  0
  160.3510  211.9720  152.0910 C   0  0  0  0  0  0  0  0  0  0  0  0
  161.2250  209.1790  152.4330 C   0  0  0  0  0  0  0  0  0  0  0  0
  160.3970  213.3120  149.6140 C   0  0  0  0  0  0  0  0  0  0  0  0
  161.7110  212.2670  147.3140 C   0  0  0  0  0  3  0  0  0  0  0  0
  160.9380  214.0730  146.0720 F   0  0  0  0  0  0  0  0  0  0  0  0
  161.0770  212.0800  149.7550 C   0  0  0  0  0  0  0  0  0  0  0  0
  160.3720  213.9580  148.4450 C   0  0  0  0  0  3  0  0  0  0  0  0
  161.8640  211.4990  148.6000 C   0  0  0  0  0  3  0  0  0  0  0  0
  162.2770  210.1140  151.3180 S   0  0  0  0  0  0  0  0  0  0  0  0
  161.0870  211.4340  151.0100 C   0  0  0  0  0  0  0  0  0  0  0  0
  159.7240  213.2160  151.9330 C   0  0  0  0  0  3  0  0  0  0  0  0
  160.1560  211.2810  153.2350 C   0  0  2  0  0  3  0  0  0  0  0  0
  160.4460  209.8270  153.3010 C   0  0  0  0  0  3  0  0  0  0  0  0
  159.7500  213.8820  150.7090 C   0  0  0  0  0  3  0  0  0  0  0  0
  161.3100  207.7460  152.4690 N   0  0  0  0  0  0  0  0  0  0  0  0
  161.6920  206.9720  151.3420 C   0  0  0  0  0  3  0  0  0  0  0  0
  160.9700  206.9470  153.6400 C   0  0  0  0  0  2  0  0  0  0  0  0
  161.7000  205.6730  151.5610 C   0  0  0  0  0  0  0  0  0  0  0  0
  161.1920  205.1850  153.2000 S   0  0  0  0  0  0  0  0  0  0  0  0
  162.0190  204.6760  150.4970 C   0  0  0  0  0  2  0  0  0  0  0  0
  160.7960  203.8190  150.1520 C   0  0  2  0  0  3  0  0  0  0  0  0
  161.6220  201.6920  149.5030 O   0  0  0  0  0  0  0  0  0  0  0  0
  160.5350  202.8690  151.2820 C   0  0  0  0  0  2  0  0  0  0  0  0
  161.0400  202.8660  148.9860 C   0  0  1  0  0  0  0  0  0  0  0  0
  159.8080  202.5480  148.4050 O   0  0  0  0  0  1  0  0  0  0  0  0
  161.1980  201.5790  150.8430 C   0  0  0  0  0  2  0  0  0  0  0  0
  161.9440  203.4730  147.9090 C   0  0  0  0  0  2  0  0  0  0  0  0
  161.1660  204.2370  146.9470 N   0  0  0  0  0  0  0  0  0  0  0  0
  160.8120  206.5650  146.1610 C   0  0  0  0  0  2  0  0  0  0  0  0
  161.0640  204.8290  144.5460 C   0  0  0  0  0  2  0  0  0  0  0  0
  160.1250  205.7910  145.1270 N   0  0  0  0  0  2  0  0  0  0  0  0
  161.7300  203.9610  145.6260 C   0  0  0  0  0  2  0  0  0  0  0  0
  161.3710  205.6510  147.2640 C   0  0  0  0  0  2  0  0  0  0  0  0
  159.5160  211.9190  154.3130 O   0  0  0  0  0  0  0  0  0  0  0  0
  160.9670  211.7010  156.1160 O   0  0  0  0  0  0  0  0  0  0  0  0
  159.7870  211.7090  155.6720 C   0  0  0  0  0  0  0  0  0  0  0  0
  158.6530  211.4980  156.6140 C   0  0  0  0  0  2  0  0  0  0  0  0
  155.8250  211.4160  156.8020 F   0  0  0  0  0  0  0  0  0  0  0  0
  156.4430  212.6240  156.7300 C   0  0  0  0  0  0  0  0  0  0  0  0
  157.7760  212.7090  156.6590 C   0  0  0  0  0  3  0  0  0  0  0  0
  155.4780  214.4330  155.4550 N   0  0  0  0  0  1  0  0  0  0  0  0
  155.6180  213.8670  156.7870 C   0  0  0  0  0  2  0  0  0  0  0  0
  1  5  2  0  0  0  0
  1  8  1  0  0  0  0
  2 13  1  0  0  0  0
  3 16  1  0  0  0  0
  3 14  2  0  0  0  0
  4  7  1  0  0  0  0
  4 15  1  0  0  0  0
  5  9  1  0  0  0  0
  6  1  1  0  0  0  0
  7 11  1  0  0  0  0
  8  4  2  0  0  0  0
  9  7  2  0  0  0  0
 10  3  1  0  0  0  0
 11 10  1  0  0  0  0
 11  2  2  0  0  0  0
 12  2  1  0  0  0  0
 13 14  1  0  0  0  0
 13 35  1  6  0  0  0
 15 12  2  0  0  0  0
 16 18  1  0  0  0  0
 17 19  2  0  0  0  0
 17 16  1  0  0  0  0
 19 20  1  0  0  0  0
 20 18  1  0  0  0  0
 21 19  1  0  0  0  0
 22 21  1  1  0  0  0
 22 24  1  0  0  0  0
 23 27  1  0  0  0  0
 25 26  1  6  0  0  0
 25 23  1  0  0  0  0
 25 22  1  0  0  0  0
 27 24  1  0  0  0  0
 28 25  1  0  0  0  0
 29 34  1  0  0  0  0
 29 28  1  0  0  0  0
 30 34  1  0  0  0  0
 31 32  1  0  0  0  0
 31 33  1  0  0  0  0
 32 30  1  0  0  0  0
 33 29  1  0  0  0  0
 35 37  1  0  0  0  0
 37 36  2  0  0  0  0
 37 38  1  0  0  0  0
 38 41  1  0  0  0  0
 40 43  1  0  0  0  0
 40 39  1  0  0  0  0
 41 40  2  0  0  0  0
 42 43  1  0  0  0  0
M  END
>  <MODEL>
5

>  <REMARK>
 VINA RESULT:      -6.7      4.948     10.163
  Name = 
  10 active torsions:
  status: ('A' for Active; 'I' for Inactive)
    1  A    between atoms: O_1  and  C_34
    2  A    between atoms: O_1  and  C_35
    3  A    between atoms: N_2  and  C_13
    4  A    between atoms: C_3  and  C_4
    5  A    between atoms: C_3  and  C_12
    6  A    between atoms: N_11  and  C_14
    7  A    between atoms: C_14  and  C_22
    8  A    between atoms: C_19  and  C_37
    9  A    between atoms: C_28  and  C_35
   10  A    between atoms: C_28  and  C_39
                            x       y       z     vdW  Elec       q    Type
                         _______ _______ _______ _____ _____    ______ ____

>  <TORSDO>
F 10

$$$$
=
 OpenBabel11062410103D

 43 48  0  0  1  0  0  0  0  0999 V2000
  160.6830  207.4680  155.2900 C   0  0  0  0  0  0  0  0  0  0  0  0
  162.0370  206.9940  150.3990 C   0  0  0  0  0  0  0  0  0  0  0  0
  161.9560  209.6280  149.0820 C   0  0  0  0  0  0  0  0  0  0  0  0
  161.3050  206.5900  153.0890 C   0  0  0  0  0  0  0  0  0  0  0  0
  160.8660  208.7330  154.9120 C   0  0  0  0  0  3  0  0  0  0  0  0
  160.2470  207.1970  156.5430 F   0  0  0  0  0  0  0  0  0  0  0  0
  161.5010  207.9050  152.6080 C   0  0  0  0  0  0  0  0  0  0  0  0
  160.9280  206.3640  154.3500 C   0  0  0  0  0  3  0  0  0  0  0  0
  161.3620  209.0930  153.5370 C   0  0  0  0  0  3  0  0  0  0  0  0
  162.5650  209.7040  150.7700 S   0  0  0  0  0  0  0  0  0  0  0  0
  161.9090  208.1010  151.2710 C   0  0  0  0  0  0  0  0  0  0  0  0
  161.8800  205.7010  150.9170 C   0  0  0  0  0  3  0  0  0  0  0  0
  162.2110  207.1510  149.0690 C   0  0  2  0  0  3  0  0  0  0  0  0
  161.9810  208.4680  148.4250 C   0  0  0  0  0  3  0  0  0  0  0  0
  161.5230  205.5000  152.2490 C   0  0  0  0  0  3  0  0  0  0  0  0
  161.5540  210.8310  148.4090 N   0  0  0  0  0  0  0  0  0  0  0  0
  160.6670  210.8310  147.3010 C   0  0  0  0  0  3  0  0  0  0  0  0
  162.0490  212.1570  148.7620 C   0  0  0  0  0  2  0  0  0  0  0  0
  160.4250  212.0280  146.8060 C   0  0  0  0  0  0  0  0  0  0  0  0
  161.2960  213.3620  147.6100 S   0  0  0  0  0  0  0  0  0  0  0  0
  159.5640  212.2480  145.6080 C   0  0  0  0  0  2  0  0  0  0  0  0
  159.9140  213.5640  144.9040 C   0  0  2  0  0  3  0  0  0  0  0  0
  158.9660  213.4440  142.7330 O   0  0  0  0  0  0  0  0  0  0  0  0
  158.7020  214.4450  144.8910 C   0  0  0  0  0  2  0  0  0  0  0  0
  160.1970  213.3920  143.4140 C   0  0  1  0  0  0  0  0  0  0  0  0
  161.0010  214.4530  142.9880 O   0  0  0  0  0  1  0  0  0  0  0  0
  158.0910  214.2160  143.5240 C   0  0  0  0  0  2  0  0  0  0  0  0
  160.9190  212.0770  143.1000 C   0  0  0  0  0  2  0  0  0  0  0  0
  161.4160  212.0720  141.7340 N   0  0  0  0  0  0  0  0  0  0  0  0
  163.3840  211.3620  140.3960 C   0  0  0  0  0  2  0  0  0  0  0  0
  161.1980  210.8720  139.5810 C   0  0  0  0  0  2  0  0  0  0  0  0
  162.4050  211.6680  139.3530 N   0  0  0  0  0  2  0  0  0  0  0  0
  160.6560  211.0560  141.0070 C   0  0  0  0  0  2  0  0  0  0  0  0
  162.8200  211.6590  141.7950 C   0  0  0  0  0  2  0  0  0  0  0  0
  162.4480  206.0130  148.2770 O   0  0  0  0  0  0  0  0  0  0  0  0
  160.7810  206.3350  146.6890 O   0  0  0  0  0  0  0  0  0  0  0  0
  161.7950  205.6950  147.0790 C   0  0  0  0  0  0  0  0  0  0  0  0
  162.3180  204.5790  146.2420 C   0  0  0  0  0  2  0  0  0  0  0  0
  161.4740  202.3730  147.8110 F   0  0  0  0  0  0  0  0  0  0  0  0
  160.8580  202.6060  146.6230 C   0  0  0  0  0  0  0  0  0  0  0  0
  161.2120  203.6460  145.8600 C   0  0  0  0  0  3  0  0  0  0  0  0
  160.0820  201.0380  144.9600 N   0  0  0  0  0  1  0  0  0  0  0  0
  159.7370  201.7170  146.1980 C   0  0  0  0  0  2  0  0  0  0  0  0
  1  6  1  0  0  0  0
  2 12  2  0  0  0  0
  2 11  1  0  0  0  0
  3 10  1  0  0  0  0
  4  8  1  0  0  0  0
  5  1  1  0  0  0  0
  7  4  1  0  0  0  0
  7  9  1  0  0  0  0
  8  1  2  0  0  0  0
  9  5  2  0  0  0  0
 10 11  1  0  0  0  0
 11  7  2  0  0  0  0
 12 15  1  0  0  0  0
 13 35  1  6  0  0  0
 13  2  1  0  0  0  0
 14 13  1  0  0  0  0
 14  3  2  0  0  0  0
 15  4  2  0  0  0  0
 16 18  1  0  0  0  0
 16  3  1  0  0  0  0
 17 16  1  0  0  0  0
 19 17  2  0  0  0  0
 19 20  1  0  0  0  0
 20 18  1  0  0  0  0
 21 19  1  0  0  0  0
 22 21  1  6  0  0  0
 23 25  1  0  0  0  0
 23 27  1  0  0  0  0
 24 22  1  0  0  0  0
 25 26  1  6  0  0  0
 25 22  1  0  0  0  0
 27 24  1  0  0  0  0
 28 25  1  0  0  0  0
 29 34  1  0  0  0  0
 29 28  1  0  0  0  0
 30 34  1  0  0  0  0
 31 33  1  0  0  0  0
 32 31  1  0  0  0  0
 32 30  1  0  0  0  0
 33 29  1  0  0  0  0
 36 37  2  0  0  0  0
 37 35  1  0  0  0  0
 38 37  1  0  0  0  0
 40 39  1  0  0  0  0
 41 38  1  0  0  0  0
 41 40  2  0  0  0  0
 42 43  1  0  0  0  0
 43 40  1  0  0  0  0
M  END
>  <MODEL>
6

>  <REMARK>
 VINA RESULT:      -6.5      1.737      2.348
  Name = 
  10 active torsions:
  status: ('A' for Active; 'I' for Inactive)
    1  A    between atoms: O_1  and  C_34
    2  A    between atoms: O_1  and  C_35
    3  A    between atoms: N_2  and  C_13
    4  A    between atoms: C_3  and  C_4
    5  A    between atoms: C_3  and  C_12
    6  A    between atoms: N_11  and  C_14
    7  A    between atoms: C_14  and  C_22
    8  A    between atoms: C_19  and  C_37
    9  A    between atoms: C_28  and  C_35
   10  A    between atoms: C_28  and  C_39
                            x       y       z     vdW  Elec       q    Type
                         _______ _______ _______ _____ _____    ______ ____

>  <TORSDO>
F 10

$$$$
=
 OpenBabel11062410103D

 43 48  0  0  1  0  0  0  0  0999 V2000
  158.6010  213.2470  144.8090 C   0  0  0  0  0  0  0  0  0  0  0  0
  157.4740  213.9520  149.7290 C   0  0  0  0  0  0  0  0  0  0  0  0
  159.4730  212.5930  151.4150 C   0  0  0  0  0  0  0  0  0  0  0  0
  157.5050  213.8520  146.9150 C   0  0  0  0  0  0  0  0  0  0  0  0
  159.7070  212.8300  145.4260 C   0  0  0  0  0  3  0  0  0  0  0  0
  158.5060  213.1500  143.4620 F   0  0  0  0  0  0  0  0  0  0  0  0
  158.6350  213.4110  147.6420 C   0  0  0  0  0  0  0  0  0  0  0  0
  157.4740  213.7900  145.5810 C   0  0  0  0  0  3  0  0  0  0  0  0
  159.8740  212.9270  146.9190 C   0  0  0  0  0  3  0  0  0  0  0  0
  160.1860  213.3530  149.9520 S   0  0  0  0  0  0  0  0  0  0  0  0
  158.6320  213.5030  149.0500 C   0  0  0  0  0  0  0  0  0  0  0  0
  156.3880  214.4240  148.9800 C   0  0  0  0  0  3  0  0  0  0  0  0
  157.3510  213.8510  151.0710 C   0  0  2  0  0  3  0  0  0  0  0  0
  158.2830  213.0030  151.8550 C   0  0  0  0  0  3  0  0  0  0  0  0
  156.4040  214.3790  147.5870 C   0  0  0  0  0  3  0  0  0  0  0  0
  160.2310  211.6350  152.1690 N   0  0  0  0  0  0  0  0  0  0  0  0
  160.7520  210.4460  151.5950 C   0  0  0  0  0  3  0  0  0  0  0  0
  160.5000  211.7620  153.5970 C   0  0  0  0  0  2  0  0  0  0  0  0
  161.4090  209.6820  152.4440 C   0  0  0  0  0  0  0  0  0  0  0  0
  161.4580  210.2940  154.1200 S   0  0  0  0  0  0  0  0  0  0  0  0
  161.9900  208.3620  152.0620 C   0  0  0  0  0  2  0  0  0  0  0  0
  160.9100  207.2770  151.9920 C   0  0  2  0  0  3  0  0  0  0  0  0
  162.0460  205.1990  151.8560 O   0  0  0  0  0  0  0  0  0  0  0  0
  160.8020  206.6140  153.3320 C   0  0  0  0  0  2  0  0  0  0  0  0
  161.2910  206.1070  151.0900 C   0  0  1  0  0  0  0  0  0  0  0  0
  160.1190  205.4780  150.6570 O   0  0  0  0  0  1  0  0  0  0  0  0
  161.6500  205.3660  153.1990 C   0  0  0  0  0  2  0  0  0  0  0  0
  162.0880  206.5500  149.8580 C   0  0  0  0  0  2  0  0  0  0  0  0
  161.4670  206.0660  148.6360 N   0  0  0  0  0  0  0  0  0  0  0  0
  161.5660  206.3560  146.1710 C   0  0  0  0  0  2  0  0  0  0  0  0
  161.4660  204.1490  147.0700 C   0  0  0  0  0  2  0  0  0  0  0  0
  160.7350  205.1580  146.3010 N   0  0  0  0  0  2  0  0  0  0  0  0
  161.9570  204.7060  148.4150 C   0  0  0  0  0  2  0  0  0  0  0  0
  161.9440  206.9230  147.5490 C   0  0  0  0  0  2  0  0  0  0  0  0
  156.2270  214.4220  151.6940 O   0  0  0  0  0  0  0  0  0  0  0  0
  154.6620  213.8120  153.3010 O   0  0  0  0  0  0  0  0  0  0  0  0
  155.8240  214.2100  153.0190 C   0  0  0  0  0  0  0  0  0  0  0  0
  156.7990  214.4500  154.1200 C   0  0  0  0  0  2  0  0  0  0  0  0
  158.9850  213.3580  155.5570 F   0  0  0  0  0  0  0  0  0  0  0  0
  157.7330  212.8950  155.8150 C   0  0  0  0  0  0  0  0  0  0  0  0
  156.6720  213.3960  155.1740 C   0  0  0  0  0  3  0  0  0  0  0  0
  158.7280  211.0120  156.9520 N   0  0  0  0  0  1  0  0  0  0  0  0
  157.5460  211.8540  156.8680 C   0  0  0  0  0  2  0  0  0  0  0  0
  1  5  2  0  0  0  0
  1  8  1  0  0  0  0
  2 13  1  0  0  0  0
  3 14  2  0  0  0  0
  3 16  1  0  0  0  0
  4 15  1  0  0  0  0
  4  7  1  0  0  0  0
  5  9  1  0  0  0  0
  6  1  1  0  0  0  0
  7 11  1  0  0  0  0
  8  4  2  0  0  0  0
  9  7  2  0  0  0  0
 10  3  1  0  0  0  0
 11  2  2  0  0  0  0
 11 10  1  0  0  0  0
 12  2  1  0  0  0  0
 13 35  1  6  0  0  0
 13 14  1  0  0  0  0
 15 12  2  0  0  0  0
 16 18  1  0  0  0  0
 17 16  1  0  0  0  0
 17 19  2  0  0  0  0
 18 20  1  0  0  0  0
 19 20  1  0  0  0  0
 21 19  1  0  0  0  0
 22 21  1  1  0  0  0
 22 24  1  0  0  0  0
 23 27  1  0  0  0  0
 25 26  1  6  0  0  0
 25 23  1  0  0  0  0
 25 22  1  0  0  0  0
 27 24  1  0  0  0  0
 28 25  1  0  0  0  0
 29 28  1  0  0  0  0
 30 32  1  0  0  0  0
 30 34  1  0  0  0  0
 31 33  1  0  0  0  0
 32 31  1  0  0  0  0
 33 29  1  0  0  0  0
 34 29  1  0  0  0  0
 35 37  1  0  0  0  0
 37 36  2  0  0  0  0
 37 38  1  0  0  0  0
 38 41  1  0  0  0  0
 39 40  1  0  0  0  0
 40 43  1  0  0  0  0
 41 40  2  0  0  0  0
 43 42  1  0  0  0  0
M  END
>  <MODEL>
7

>  <REMARK>
 VINA RESULT:      -6.4      4.601     10.256
  Name = 
  10 active torsions:
  status: ('A' for Active; 'I' for Inactive)
    1  A    between atoms: O_1  and  C_34
    2  A    between atoms: O_1  and  C_35
    3  A    between atoms: N_2  and  C_13
    4  A    between atoms: C_3  and  C_4
    5  A    between atoms: C_3  and  C_12
    6  A    between atoms: N_11  and  C_14
    7  A    between atoms: C_14  and  C_22
    8  A    between atoms: C_19  and  C_37
    9  A    between atoms: C_28  and  C_35
   10  A    between atoms: C_28  and  C_39
                            x       y       z     vdW  Elec       q    Type
                         _______ _______ _______ _____ _____    ______ ____

>  <TORSDO>
F 10

$$$$
=
 OpenBabel11062410103D

 43 48  0  0  1  0  0  0  0  0999 V2000
  161.3210  201.3860  148.4260 C   0  0  0  0  0  0  0  0  0  0  0  0
  160.8820  204.9330  152.0610 C   0  0  0  0  0  0  0  0  0  0  0  0
  161.1810  207.6150  150.8780 C   0  0  0  0  0  0  0  0  0  0  0  0
  161.1160  202.5540  150.5710 C   0  0  0  0  0  0  0  0  0  0  0  0
  161.2000  202.5130  147.7240 C   0  0  0  0  0  3  0  0  0  0  0  0
  161.5240  200.2120  147.7840 F   0  0  0  0  0  0  0  0  0  0  0  0
  161.0010  203.7920  149.8970 C   0  0  0  0  0  0  0  0  0  0  0  0
  161.2600  201.4110  149.8950 C   0  0  0  0  0  3  0  0  0  0  0  0
  160.9590  203.8440  148.3840 C   0  0  0  0  0  3  0  0  0  0  0  0
  160.2740  206.4780  149.8240 S   0  0  0  0  0  0  0  0  0  0  0  0
  160.8410  204.9770  150.6470 C   0  0  0  0  0  0  0  0  0  0  0  0
  160.9530  203.6860  152.6990 C   0  0  0  0  0  3  0  0  0  0  0  0
  160.9520  206.0570  152.8070 C   0  0  2  0  0  3  0  0  0  0  0  0
  161.2840  207.3610  152.1830 C   0  0  0  0  0  3  0  0  0  0  0  0
  161.0640  202.5090  151.9620 C   0  0  0  0  0  3  0  0  0  0  0  0
  161.6890  208.8450  150.3390 N   0  0  0  0  0  0  0  0  0  0  0  0
  161.2410  209.3850  149.1050 C   0  0  0  0  0  3  0  0  0  0  0  0
  162.7390  209.6330  150.9750 C   0  0  0  0  0  2  0  0  0  0  0  0
  161.8310  210.5120  148.7660 C   0  0  0  0  0  0  0  0  0  0  0  0
  163.0790  211.0790  149.9090 S   0  0  0  0  0  0  0  0  0  0  0  0
  161.5480  211.2190  147.4820 C   0  0  0  0  0  2  0  0  0  0  0  0
  162.1210  212.6400  147.4910 C   0  0  2  0  0  3  0  0  0  0  0  0
  160.5010  214.0290  146.4540 O   0  0  0  0  0  0  0  0  0  0  0  0
  161.4440  213.4300  148.5710 C   0  0  0  0  0  2  0  0  0  0  0  0
  161.7630  213.4410  146.2420 C   0  0  1  0  0  0  0  0  0  0  0  0
  162.7160  214.4490  146.0700 O   0  0  0  0  0  1  0  0  0  0  0  0
  160.3510  214.1890  147.8470 C   0  0  0  0  0  2  0  0  0  0  0  0
  161.7360  212.5760  144.9770 C   0  0  0  0  0  2  0  0  0  0  0  0
  161.1730  213.3120  143.8560 N   0  0  0  0  0  0  0  0  0  0  0  0
  161.7200  214.0220  141.5410 C   0  0  0  0  0  2  0  0  0  0  0  0
  159.5680  213.0960  141.9860 C   0  0  0  0  0  2  0  0  0  0  0  0
  160.2880  214.3160  141.6160 N   0  0  0  0  0  2  0  0  0  0  0  0
  160.1360  212.4660  143.2670 C   0  0  0  0  0  2  0  0  0  0  0  0
  162.2510  213.4880  142.8810 C   0  0  0  0  0  2  0  0  0  0  0  0
  160.8710  205.9470  154.2070 O   0  0  0  0  0  0  0  0  0  0  0  0
  159.3650  206.8790  155.7130 O   0  0  0  0  0  0  0  0  0  0  0  0
  160.4580  206.9550  155.0880 C   0  0  0  0  0  0  0  0  0  0  0  0
  161.3360  208.1400  155.2970 C   0  0  0  0  0  2  0  0  0  0  0  0
  160.2900  210.1920  153.6430 F   0  0  0  0  0  0  0  0  0  0  0  0
  160.0790  210.2590  154.9840 C   0  0  0  0  0  0  0  0  0  0  0  0
  160.5380  209.3030  155.7980 C   0  0  0  0  0  3  0  0  0  0  0  0
  158.1880  211.7180  154.6320 N   0  0  0  0  0  1  0  0  0  0  0  0
  159.2760  211.3890  155.5380 C   0  0  0  0  0  2  0  0  0  0  0  0
  1  8  1  0  0  0  0
  2 12  1  0  0  0  0
  2 13  1  0  0  0  0
  3 14  2  0  0  0  0
  4 15  1  0  0  0  0
  5  9  1  0  0  0  0
  5  1  2  0  0  0  0
  6  1  1  0  0  0  0
  7  4  1  0  0  0  0
  7 11  1  0  0  0  0
  8  4  2  0  0  0  0
  9  7  2  0  0  0  0
 10 11  1  0  0  0  0
 10  3  1  0  0  0  0
 11  2  2  0  0  0  0
 13 35  1  1  0  0  0
 14 13  1  0  0  0  0
 15 12  2  0  0  0  0
 16  3  1  0  0  0  0
 16 18  1  0  0  0  0
 17 16  1  0  0  0  0
 19 17  2  0  0  0  0
 19 20  1  0  0  0  0
 20 18  1  0  0  0  0
 21 19  1  0  0  0  0
 22 21  1  6  0  0  0
 22 24  1  0  0  0  0
 23 27  1  0  0  0  0
 25 26  1  6  0  0  0
 25 23  1  0  0  0  0
 25 22  1  0  0  0  0
 27 24  1  0  0  0  0
 28 25  1  0  0  0  0
 29 28  1  0  0  0  0
 30 32  1  0  0  0  0
 30 34  1  0  0  0  0
 31 33  1  0  0  0  0
 32 31  1  0  0  0  0
 33 29  1  0  0  0  0
 34 29  1  0  0  0  0
 35 37  1  0  0  0  0
 37 38  1  0  0  0  0
 37 36  2  0  0  0  0
 38 41  1  0  0  0  0
 39 40  1  0  0  0  0
 40 43  1  0  0  0  0
 40 41  2  0  0  0  0
 42 43  1  0  0  0  0
M  END
>  <MODEL>
8

>  <REMARK>
 VINA RESULT:      -5.9      2.769      6.353
  Name = 
  10 active torsions:
  status: ('A' for Active; 'I' for Inactive)
    1  A    between atoms: O_1  and  C_34
    2  A    between atoms: O_1  and  C_35
    3  A    between atoms: N_2  and  C_13
    4  A    between atoms: C_3  and  C_4
    5  A    between atoms: C_3  and  C_12
    6  A    between atoms: N_11  and  C_14
    7  A    between atoms: C_14  and  C_22
    8  A    between atoms: C_19  and  C_37
    9  A    between atoms: C_28  and  C_35
   10  A    between atoms: C_28  and  C_39
                            x       y       z     vdW  Elec       q    Type
                         _______ _______ _______ _____ _____    ______ ____

>  <TORSDO>
F 10

$$$$
