=
 OpenBabel11062410513D

 32 36  0  0  0  0  0  0  0  0999 V2000
  161.5470  209.6390  152.8510 N   0  0  0  0  0  0  0  0  0  0  0  0
  161.3010  205.9570  149.3230 C   0  0  0  0  0  0  0  0  0  0  0  0
  161.6300  201.8920  151.9990 N   0  0  0  0  0  2  0  0  0  0  0  0
  160.7250  201.1950  151.0930 C   0  0  0  0  0  2  0  0  0  0  0  0
  161.0850  205.7180  146.8390 C   0  0  0  0  0  0  0  0  0  0  0  0
  160.9180  204.8750  145.7290 C   0  0  0  0  0  0  0  0  0  0  0  0
  161.5870  208.1010  150.4410 C   0  0  0  0  0  0  0  0  0  0  0  0
  161.4950  206.0900  151.7180 N   0  0  0  0  0  0  0  0  0  0  0  0
  161.8270  208.2020  152.9580 C   0  0  0  0  0  2  0  0  0  0  0  0
  161.2080  203.2890  152.0650 C   0  0  0  0  0  2  0  0  0  0  0  0
  161.3440  205.3330  150.5950 C   0  0  0  0  0  0  0  0  0  0  0  0
  161.2370  203.9410  150.7040 C   0  0  0  0  0  0  0  0  0  0  0  0
  161.0140  203.7620  148.2840 C   0  0  0  0  0  0  0  0  0  0  0  0
  162.1750  210.2120  151.6500 C   0  0  0  0  0  2  0  0  0  0  0  0
  161.5990  207.4430  151.6770 C   0  0  0  0  0  0  0  0  0  0  0  0
  161.6380  209.5930  150.3560 C   0  0  0  0  0  2  0  0  0  0  0  0
  160.9890  201.6500  149.6610 C   0  0  0  0  0  2  0  0  0  0  0  0
  161.0530  203.1550  149.5500 C   0  0  0  0  0  0  0  0  0  0  0  0
  160.8600  202.9840  147.1780 N   0  0  0  0  0  0  0  0  0  0  0  0
  161.4210  207.3530  149.2790 C   0  0  0  0  0  3  0  0  0  0  0  0
  161.1970  207.0890  146.6200 O   0  0  0  0  0  1  0  0  0  0  0  0
  161.1340  205.1690  148.1500 C   0  0  0  0  0  0  0  0  0  0  0  0
  160.8110  203.4940  145.9200 C   0  0  0  0  0  0  0  0  0  0  0  0
  160.6530  202.6480  144.8190 O   0  0  0  0  0  0  0  0  0  0  0  0
  160.0490  201.3690  144.9320 C   0  0  0  0  0  1  0  0  0  0  0  0
  162.2840  205.5010  143.7650 C   0  0  0  0  0  1  0  0  0  0  0  0
  160.8830  205.4460  144.3450 C   0  0  0  0  0  2  0  0  0  0  0  0
  160.1020  209.8580  152.8400 C   0  0  0  0  0  2  0  0  0  0  0  0
  159.7610  211.1020  153.6380 C   0  0  0  0  0  2  0  0  0  0  0  0
  160.1050  210.8930  155.0690 C   0  0  0  0  0  0  0  0  0  0  0  0
  159.6650  209.7550  155.7310 O   0  0  0  0  0  1  0  0  0  0  0  0
  160.7670  211.7640  155.6910 O   0  0  0  0  0  0  0  0  0  0  0  0
  1  9  1  0  0  0  0
  2 11  1  0  0  0  0
  3 10  1  0  0  0  0
  4  3  1  0  0  0  0
  5 22  1  0  0  0  0
  6 23  1  0  0  0  0
  6  5  2  0  0  0  0
  7 15  1  0  0  0  0
 11 12  2  0  0  0  0
 11  8  1  0  0  0  0
 12 10  1  0  0  0  0
 13 18  2  0  0  0  0
 14  1  1  0  0  0  0
 15  8  2  0  0  0  0
 15  9  1  0  0  0  0
 16  7  1  0  0  0  0
 16 14  1  0  0  0  0
 17  4  1  0  0  0  0
 18 17  1  0  0  0  0
 18 12  1  0  0  0  0
 19 13  1  0  0  0  0
 20  2  1  0  0  0  0
 20  7  2  0  0  0  0
 21  5  1  0  0  0  0
 22 13  1  0  0  0  0
 22  2  2  0  0  0  0
 23 19  2  0  0  0  0
 24 25  1  0  0  0  0
 24 23  1  0  0  0  0
 26 27  1  0  0  0  0
 27  6  1  0  0  0  0
 28  1  1  0  0  0  0
 28 29  1  0  0  0  0
 29 30  1  0  0  0  0
 30 32  2  0  0  0  0
 30 31  1  0  0  0  0
M  END
>  <MODEL>
1

>  <REMARK>
 VINA RESULT:      -7.1      0.000      0.000
  Name = 
  5 active torsions:
  status: ('A' for Active; 'I' for Inactive)
    1  A    between atoms: C_1  and  C_10
    2  A    between atoms: N_2  and  C_24
    3  A    between atoms: C_7  and  C_22
    4  A    between atoms: C_10  and  C_24
    5  A    between atoms: O_11  and  C_32
                            x       y       z     vdW  Elec       q    Type
                         _______ _______ _______ _____ _____    ______ ____

>  <TORSDO>
F 5

$$$$
=
 OpenBabel11062410513D

 32 36  0  0  0  0  0  0  0  0999 V2000
  161.7260  212.2400  149.8230 N   0  0  0  0  0  0  0  0  0  0  0  0
  161.6270  207.1800  149.1480 C   0  0  0  0  0  0  0  0  0  0  0  0
  161.4380  205.4980  153.7220 N   0  0  0  0  0  2  0  0  0  0  0  0
  160.5910  204.3870  153.3030 C   0  0  0  0  0  2  0  0  0  0  0  0
  161.6540  205.5130  147.2790 C   0  0  0  0  0  0  0  0  0  0  0  0
  161.5530  204.1740  146.8700 C   0  0  0  0  0  0  0  0  0  0  0  0
  161.9230  209.5740  148.8100 C   0  0  0  0  0  0  0  0  0  0  0  0
  161.5810  208.7100  151.0050 N   0  0  0  0  0  0  0  0  0  0  0  0
  161.9090  211.1500  150.7900 C   0  0  0  0  0  2  0  0  0  0  0  0
  161.0950  206.6560  152.9010 C   0  0  0  0  0  2  0  0  0  0  0  0
  161.5020  207.4320  150.5370 C   0  0  0  0  0  0  0  0  0  0  0  0
  161.3020  206.3740  151.4330 C   0  0  0  0  0  0  0  0  0  0  0  0
  161.3190  204.7930  149.5790 C   0  0  0  0  0  0  0  0  0  0  0  0
  162.5070  211.9990  148.6000 C   0  0  0  0  0  2  0  0  0  0  0  0
  161.7690  209.7760  150.1870 C   0  0  0  0  0  0  0  0  0  0  0  0
  162.0710  210.7260  147.8680 C   0  0  0  0  0  2  0  0  0  0  0  0
  161.0270  203.9080  151.9230 C   0  0  0  0  0  2  0  0  0  0  0  0
  161.1920  205.0550  150.9530 C   0  0  0  0  0  0  0  0  0  0  0  0
  161.2340  203.5100  149.1360 N   0  0  0  0  0  0  0  0  0  0  0  0
  161.8340  208.2800  148.3030 C   0  0  0  0  0  3  0  0  0  0  0  0
  161.8690  206.4880  146.3090 O   0  0  0  0  0  1  0  0  0  0  0  0
  161.5360  205.8490  148.6560 C   0  0  0  0  0  0  0  0  0  0  0  0
  161.3450  203.1740  147.8250 C   0  0  0  0  0  0  0  0  0  0  0  0
  161.2520  201.8380  147.4260 O   0  0  0  0  0  0  0  0  0  0  0  0
  161.2740  200.7690  148.3600 C   0  0  0  0  0  1  0  0  0  0  0  0
  160.4060  204.1170  144.6800 C   0  0  0  0  0  1  0  0  0  0  0  0
  161.6940  203.8130  145.4240 C   0  0  0  0  0  2  0  0  0  0  0  0
  160.3060  212.3910  149.5150 C   0  0  0  0  0  2  0  0  0  0  0  0
  160.0820  213.6570  148.7110 C   0  0  0  0  0  2  0  0  0  0  0  0
  159.3190  213.3390  147.4740 C   0  0  0  0  0  0  0  0  0  0  0  0
  159.9750  213.2670  146.2520 O   0  0  0  0  0  0  0  0  0  0  0  0
  158.0740  213.1680  147.5280 O   0  0  0  0  0  1  0  0  0  0  0  0
  1  9  1  0  0  0  0
  2 11  1  0  0  0  0
  4  3  1  0  0  0  0
  5 22  1  0  0  0  0
  6  5  2  0  0  0  0
  6 23  1  0  0  0  0
  7 15  1  0  0  0  0
 10  3  1  0  0  0  0
 11  8  1  0  0  0  0
 11 12  2  0  0  0  0
 12 10  1  0  0  0  0
 13 18  2  0  0  0  0
 14  1  1  0  0  0  0
 15  9  1  0  0  0  0
 15  8  2  0  0  0  0
 16 14  1  0  0  0  0
 16  7  1  0  0  0  0
 17  4  1  0  0  0  0
 18 12  1  0  0  0  0
 18 17  1  0  0  0  0
 19 13  1  0  0  0  0
 20  7  2  0  0  0  0
 20  2  1  0  0  0  0
 21  5  1  0  0  0  0
 22  2  2  0  0  0  0
 22 13  1  0  0  0  0
 23 19  2  0  0  0  0
 24 23  1  0  0  0  0
 24 25  1  0  0  0  0
 26 27  1  0  0  0  0
 27  6  1  0  0  0  0
 28  1  1  0  0  0  0
 29 28  1  0  0  0  0
 30 32  1  0  0  0  0
 30 29  1  0  0  0  0
 31 30  2  0  0  0  0
M  END
>  <MODEL>
2

>  <REMARK>
 VINA RESULT:      -7.0      2.940      3.880
  Name = 
  5 active torsions:
  status: ('A' for Active; 'I' for Inactive)
    1  A    between atoms: C_1  and  C_10
    2  A    between atoms: N_2  and  C_24
    3  A    between atoms: C_7  and  C_22
    4  A    between atoms: C_10  and  C_24
    5  A    between atoms: O_11  and  C_32
                            x       y       z     vdW  Elec       q    Type
                         _______ _______ _______ _____ _____    ______ ____

>  <TORSDO>
F 5

$$$$
=
 OpenBabel11062410513D

 32 36  0  0  0  0  0  0  0  0999 V2000
  161.1080  210.2330  156.6300 N   0  0  0  0  0  0  0  0  0  0  0  0
  161.1560  207.4190  152.3710 C   0  0  0  0  0  0  0  0  0  0  0  0
  161.6650  210.7820  148.8750 N   0  0  0  0  0  2  0  0  0  0  0  0
  162.4800  209.8680  148.0830 C   0  0  0  0  0  2  0  0  0  0  0  0
  160.9960  205.0160  151.6800 C   0  0  0  0  0  0  0  0  0  0  0  0
  161.0670  204.0600  150.6550 C   0  0  0  0  0  0  0  0  0  0  0  0
  160.8390  208.1750  154.6630 C   0  0  0  0  0  0  0  0  0  0  0  0
  161.3340  209.7500  152.9430 N   0  0  0  0  0  0  0  0  0  0  0  0
  160.9940  210.6390  155.2230 C   0  0  0  0  0  2  0  0  0  0  0  0
  161.9510  210.5270  150.2850 C   0  0  0  0  0  2  0  0  0  0  0  0
  161.3780  208.7680  151.9980 C   0  0  0  0  0  0  0  0  0  0  0  0
  161.6400  209.0990  150.6630 C   0  0  0  0  0  0  0  0  0  0  0  0
  161.4910  206.7470  150.0440 C   0  0  0  0  0  0  0  0  0  0  0  0
  160.2430  209.0800  156.9200 C   0  0  0  0  0  2  0  0  0  0  0  0
  161.0890  209.4910  154.2530 C   0  0  0  0  0  0  0  0  0  0  0  0
  160.6260  207.8400  156.1050 C   0  0  0  0  0  2  0  0  0  0  0  0
  161.9470  208.4480  148.2380 C   0  0  0  0  0  2  0  0  0  0  0  0
  161.7150  208.0870  149.6870 C   0  0  0  0  0  0  0  0  0  0  0  0
  161.5440  205.7850  149.0830 N   0  0  0  0  0  0  0  0  0  0  0  0
  160.8910  207.1520  153.7220 C   0  0  0  0  0  3  0  0  0  0  0  0
  160.7140  204.5830  152.9730 O   0  0  0  0  0  1  0  0  0  0  0  0
  161.2110  206.3910  151.3880 C   0  0  0  0  0  0  0  0  0  0  0  0
  161.3410  204.4690  149.3470 C   0  0  0  0  0  0  0  0  0  0  0  0
  161.4050  203.5230  148.3190 O   0  0  0  0  0  0  0  0  0  0  0  0
  161.5160  203.8980  146.9550 C   0  0  0  0  0  1  0  0  0  0  0  0
  162.0510  201.9990  151.6040 C   0  0  0  0  0  1  0  0  0  0  0  0
  160.8250  202.6130  150.9540 C   0  0  0  0  0  2  0  0  0  0  0  0
  162.5030  209.9320  156.9420 C   0  0  0  0  0  2  0  0  0  0  0  0
  163.2510  211.2130  157.2610 C   0  0  0  0  0  2  0  0  0  0  0  0
  164.3440  211.4170  156.2730 C   0  0  0  0  0  0  0  0  0  0  0  0
  165.5050  212.0800  156.6480 O   0  0  0  0  0  1  0  0  0  0  0  0
  164.2030  211.0210  155.0870 O   0  0  0  0  0  0  0  0  0  0  0  0
  1 14  1  0  0  0  0
  1 28  1  0  0  0  0
  2 20  1  0  0  0  0
  3 10  1  0  0  0  0
  4 17  1  0  0  0  0
  4  3  1  0  0  0  0
  5 21  1  0  0  0  0
  6 27  1  0  0  0  0
  6  5  2  0  0  0  0
  7 16  1  0  0  0  0
  8 15  2  0  0  0  0
  9  1  1  0  0  0  0
 10 12  1  0  0  0  0
 11  2  1  0  0  0  0
 11  8  1  0  0  0  0
 12 11  2  0  0  0  0
 13 22  1  0  0  0  0
 15  7  1  0  0  0  0
 15  9  1  0  0  0  0
 16 14  1  0  0  0  0
 17 18  1  0  0  0  0
 18 13  2  0  0  0  0
 18 12  1  0  0  0  0
 19 23  2  0  0  0  0
 19 13  1  0  0  0  0
 20  7  2  0  0  0  0
 22  5  1  0  0  0  0
 22  2  2  0  0  0  0
 23  6  1  0  0  0  0
 24 23  1  0  0  0  0
 25 24  1  0  0  0  0
 27 26  1  0  0  0  0
 28 29  1  0  0  0  0
 30 31  1  0  0  0  0
 30 29  1  0  0  0  0
 32 30  2  0  0  0  0
M  END
>  <MODEL>
3

>  <REMARK>
 VINA RESULT:      -6.8      2.628      5.410
  Name = 
  5 active torsions:
  status: ('A' for Active; 'I' for Inactive)
    1  A    between atoms: C_1  and  C_10
    2  A    between atoms: N_2  and  C_24
    3  A    between atoms: C_7  and  C_22
    4  A    between atoms: C_10  and  C_24
    5  A    between atoms: O_11  and  C_32
                            x       y       z     vdW  Elec       q    Type
                         _______ _______ _______ _____ _____    ______ ____

>  <TORSDO>
F 5

$$$$
=
 OpenBabel11062410513D

 32 36  0  0  0  0  0  0  0  0999 V2000
  161.4960  213.1380  149.0580 N   0  0  0  0  0  0  0  0  0  0  0  0
  161.5410  208.0520  149.4990 C   0  0  0  0  0  0  0  0  0  0  0  0
  161.6450  207.4010  154.3320 N   0  0  0  0  0  2  0  0  0  0  0  0
  160.8180  206.2070  154.2120 C   0  0  0  0  0  2  0  0  0  0  0  0
  161.5320  206.0180  148.0370 C   0  0  0  0  0  0  0  0  0  0  0  0
  161.4570  204.6210  147.9330 C   0  0  0  0  0  0  0  0  0  0  0  0
  161.7350  210.3210  148.6360 C   0  0  0  0  0  0  0  0  0  0  0  0
  161.5360  209.9480  150.9820 N   0  0  0  0  0  0  0  0  0  0  0  0
  161.7660  212.2890  150.2260 C   0  0  0  0  0  2  0  0  0  0  0  0
  161.2200  208.3450  153.3010 C   0  0  0  0  0  2  0  0  0  0  0  0
  161.4790  208.5970  150.8060 C   0  0  0  0  0  0  0  0  0  0  0  0
  161.3620  207.7550  151.9190 C   0  0  0  0  0  0  0  0  0  0  0  0
  161.3410  205.8090  150.4530 C   0  0  0  0  0  0  0  0  0  0  0  0
  162.2210  212.6550  147.8740 C   0  0  0  0  0  2  0  0  0  0  0  0
  161.6440  210.8140  149.9430 C   0  0  0  0  0  0  0  0  0  0  0  0
  161.7940  211.2430  147.4600 C   0  0  0  0  0  2  0  0  0  0  0  0
  161.2000  205.4490  152.9450 C   0  0  0  0  0  2  0  0  0  0  0  0
  161.2740  206.3610  151.7430 C   0  0  0  0  0  0  0  0  0  0  0  0
  161.2780  204.4580  150.3040 N   0  0  0  0  0  0  0  0  0  0  0  0
  161.6650  208.9460  148.4260 C   0  0  0  0  0  3  0  0  0  0  0  0
  161.6620  206.7640  146.8680 O   0  0  0  0  0  1  0  0  0  0  0  0
  161.4720  206.6430  149.3130 C   0  0  0  0  0  0  0  0  0  0  0  0
  161.3340  203.8480  149.0920 C   0  0  0  0  0  0  0  0  0  0  0  0
  161.2680  202.4550  148.9970 O   0  0  0  0  0  0  0  0  0  0  0  0
  160.0740  201.7370  149.2700 C   0  0  0  0  0  1  0  0  0  0  0  0
  162.9440  204.0670  146.0370 C   0  0  0  0  0  1  0  0  0  0  0  0
  161.5370  203.9570  146.5940 C   0  0  0  0  0  2  0  0  0  0  0  0
  160.0570  213.1850  148.8080 C   0  0  0  0  0  2  0  0  0  0  0  0
  159.7580  214.1600  147.6850 C   0  0  0  0  0  2  0  0  0  0  0  0
  158.4460  213.8300  147.0680 C   0  0  0  0  0  0  0  0  0  0  0  0
  158.1680  214.2320  145.7680 O   0  0  0  0  0  0  0  0  0  0  0  0
  157.5730  213.2160  147.7350 O   0  0  0  0  0  1  0  0  0  0  0  0
  1  9  1  0  0  0  0
  2 11  1  0  0  0  0
  4  3  1  0  0  0  0
  5 22  1  0  0  0  0
  6  5  2  0  0  0  0
  6 23  1  0  0  0  0
  7 15  1  0  0  0  0
 10  3  1  0  0  0  0
 11  8  1  0  0  0  0
 11 12  2  0  0  0  0
 12 10  1  0  0  0  0
 13 18  2  0  0  0  0
 14  1  1  0  0  0  0
 15  9  1  0  0  0  0
 15  8  2  0  0  0  0
 16 14  1  0  0  0  0
 16  7  1  0  0  0  0
 17  4  1  0  0  0  0
 18 12  1  0  0  0  0
 18 17  1  0  0  0  0
 19 13  1  0  0  0  0
 20  7  2  0  0  0  0
 20  2  1  0  0  0  0
 21  5  1  0  0  0  0
 22  2  2  0  0  0  0
 22 13  1  0  0  0  0
 23 19  2  0  0  0  0
 24 23  1  0  0  0  0
 24 25  1  0  0  0  0
 26 27  1  0  0  0  0
 27  6  1  0  0  0  0
 28  1  1  0  0  0  0
 29 28  1  0  0  0  0
 30 29  1  0  0  0  0
 30 32  1  0  0  0  0
 31 30  2  0  0  0  0
M  END
>  <MODEL>
4

>  <REMARK>
 VINA RESULT:      -6.3      3.203      4.784
  Name = 
  5 active torsions:
  status: ('A' for Active; 'I' for Inactive)
    1  A    between atoms: C_1  and  C_10
    2  A    between atoms: N_2  and  C_24
    3  A    between atoms: C_7  and  C_22
    4  A    between atoms: C_10  and  C_24
    5  A    between atoms: O_11  and  C_32
                            x       y       z     vdW  Elec       q    Type
                         _______ _______ _______ _____ _____    ______ ____

>  <TORSDO>
F 5

$$$$
=
 OpenBabel11062410513D

 32 36  0  0  0  0  0  0  0  0999 V2000
  161.3540  213.6290  147.4970 N   0  0  0  0  0  0  0  0  0  0  0  0
  160.8440  210.7980  151.7150 C   0  0  0  0  0  0  0  0  0  0  0  0
  158.4980  213.8140  154.7470 N   0  0  0  0  0  2  0  0  0  0  0  0
  157.7620  212.6970  155.3270 C   0  0  0  0  0  2  0  0  0  0  0  0
  161.4270  208.5100  152.5490 C   0  0  0  0  0  0  0  0  0  0  0  0
  161.3230  207.5440  153.5610 C   0  0  0  0  0  0  0  0  0  0  0  0
  161.5870  211.6700  149.5660 C   0  0  0  0  0  0  0  0  0  0  0  0
  160.2280  213.0100  150.9940 N   0  0  0  0  0  0  0  0  0  0  0  0
  160.9540  214.0150  148.8560 C   0  0  0  0  0  2  0  0  0  0  0  0
  158.7010  213.5280  153.3290 C   0  0  0  0  0  2  0  0  0  0  0  0
  160.1780  212.0290  151.9390 C   0  0  0  0  0  0  0  0  0  0  0  0
  159.4700  212.2450  153.1290 C   0  0  0  0  0  0  0  0  0  0  0  0
  160.0510  210.0040  153.8880 C   0  0  0  0  0  0  0  0  0  0  0  0
  162.5380  212.7570  147.5220 C   0  0  0  0  0  2  0  0  0  0  0  0
  160.8930  212.8590  149.8210 C   0  0  0  0  0  0  0  0  0  0  0  0
  162.2800  211.4400  148.2610 C   0  0  0  0  0  2  0  0  0  0  0  0
  158.6720  211.4750  155.4020 C   0  0  0  0  0  2  0  0  0  0  0  0
  159.3910  211.2260  154.0970 C   0  0  0  0  0  0  0  0  0  0  0  0
  159.9840  209.0390  154.8450 N   0  0  0  0  0  0  0  0  0  0  0  0
  161.5410  210.6460  150.5080 C   0  0  0  0  0  3  0  0  0  0  0  0
  162.1680  208.2000  151.4110 O   0  0  0  0  0  1  0  0  0  0  0  0
  160.7850  209.7690  152.6960 C   0  0  0  0  0  0  0  0  0  0  0  0
  160.5920  207.8310  154.7180 C   0  0  0  0  0  0  0  0  0  0  0  0
  160.4910  206.8770  155.7340 O   0  0  0  0  0  0  0  0  0  0  0  0
  160.1420  207.2280  157.0650 C   0  0  0  0  0  1  0  0  0  0  0  0
  161.1320  205.2520  152.6530 C   0  0  0  0  0  1  0  0  0  0  0  0
  162.0130  206.2220  153.4190 C   0  0  0  0  0  2  0  0  0  0  0  0
  160.2350  212.9740  146.8240 C   0  0  0  0  0  2  0  0  0  0  0  0
  158.9930  213.8400  146.9220 C   0  0  0  0  0  2  0  0  0  0  0  0
  157.8060  212.9880  147.2010 C   0  0  0  0  0  0  0  0  0  0  0  0
  157.2360  212.9820  148.4670 O   0  0  0  0  0  1  0  0  0  0  0  0
  157.3390  212.2450  146.2990 O   0  0  0  0  0  0  0  0  0  0  0  0
  1 14  1  0  0  0  0
  1  9  1  0  0  0  0
  2 11  1  0  0  0  0
  2 22  1  0  0  0  0
  3  4  1  0  0  0  0
  4 17  1  0  0  0  0
  5 22  1  0  0  0  0
  5  6  2  0  0  0  0
  6 23  1  0  0  0  0
  7 15  2  0  0  0  0
  7 20  1  0  0  0  0
  8 11  2  0  0  0  0
  9 15  1  0  0  0  0
 10  3  1  0  0  0  0
 11 12  1  0  0  0  0
 12 10  1  0  0  0  0
 12 18  2  0  0  0  0
 13 18  1  0  0  0  0
 13 19  1  0  0  0  0
 14 16  1  0  0  0  0
 15  8  1  0  0  0  0
 16  7  1  0  0  0  0
 18 17  1  0  0  0  0
 20  2  2  0  0  0  0
 21  5  1  0  0  0  0
 22 13  2  0  0  0  0
 23 19  2  0  0  0  0
 23 24  1  0  0  0  0
 24 25  1  0  0  0  0
 26 27  1  0  0  0  0
 27  6  1  0  0  0  0
 28 29  1  0  0  0  0
 28  1  1  0  0  0  0
 29 30  1  0  0  0  0
 30 31  1  0  0  0  0
 32 30  2  0  0  0  0
M  END
>  <MODEL>
5

>  <REMARK>
 VINA RESULT:      -6.2      4.944      8.497
  Name = 
  5 active torsions:
  status: ('A' for Active; 'I' for Inactive)
    1  A    between atoms: C_1  and  C_10
    2  A    between atoms: N_2  and  C_24
    3  A    between atoms: C_7  and  C_22
    4  A    between atoms: C_10  and  C_24
    5  A    between atoms: O_11  and  C_32
                            x       y       z     vdW  Elec       q    Type
                         _______ _______ _______ _____ _____    ______ ____

>  <TORSDO>
F 5

$$$$
=
 OpenBabel11062410513D

 32 36  0  0  0  0  0  0  0  0999 V2000
  162.2950  206.3290  151.4360 N   0  0  0  0  0  0  0  0  0  0  0  0
  159.8550  210.4520  153.2000 C   0  0  0  0  0  0  0  0  0  0  0  0
  160.8580  213.8160  149.8130 N   0  0  0  0  0  2  0  0  0  0  0  0
  159.5400  214.4140  149.9840 C   0  0  0  0  0  2  0  0  0  0  0  0
  158.4320  211.1290  155.1470 C   0  0  0  0  0  0  0  0  0  0  0  0
  157.6320  212.1050  155.7610 C   0  0  0  0  0  0  0  0  0  0  0  0
  160.9460  208.2820  153.0300 C   0  0  0  0  0  0  0  0  0  0  0  0
  161.2000  209.8870  151.2860 N   0  0  0  0  0  0  0  0  0  0  0  0
  162.3860  207.7350  151.0220 C   0  0  0  0  0  2  0  0  0  0  0  0
  160.7240  212.3740  150.0070 C   0  0  0  0  0  2  0  0  0  0  0  0
  160.4190  210.7900  151.9450 C   0  0  0  0  0  0  0  0  0  0  0  0
  160.1820  212.0480  151.3780 C   0  0  0  0  0  0  0  0  0  0  0  0
  158.7940  212.6530  153.2860 C   0  0  0  0  0  0  0  0  0  0  0  0
  162.3380  206.2050  152.9010 C   0  0  0  0  0  2  0  0  0  0  0  0
  161.4620  208.6510  151.7820 C   0  0  0  0  0  0  0  0  0  0  0  0
  161.1600  206.9090  153.5840 C   0  0  0  0  0  2  0  0  0  0  0  0
  159.1390  214.3510  151.4540 C   0  0  0  0  0  2  0  0  0  0  0  0
  159.3540  212.9750  152.0390 C   0  0  0  0  0  0  0  0  0  0  0  0
  158.0160  213.5710  153.9220 N   0  0  0  0  0  0  0  0  0  0  0  0
  160.1350  209.1790  153.7190 C   0  0  0  0  0  3  0  0  0  0  0  0
  158.6170  209.9140  155.8030 O   0  0  0  0  0  1  0  0  0  0  0  0
  159.0320  211.3890  153.8850 C   0  0  0  0  0  0  0  0  0  0  0  0
  157.4370  213.3360  155.1280 C   0  0  0  0  0  0  0  0  0  0  0  0
  156.6480  214.3160  155.7370 O   0  0  0  0  0  0  0  0  0  0  0  0
  155.2620  214.4470  155.4610 C   0  0  0  0  0  1  0  0  0  0  0  0
  155.6090  211.2910  156.9270 C   0  0  0  0  0  1  0  0  0  0  0  0
  157.0130  211.8430  157.0990 C   0  0  0  0  0  2  0  0  0  0  0  0
  161.0740  205.7370  150.8970 C   0  0  0  0  0  2  0  0  0  0  0  0
  161.1490  205.6840  149.3820 C   0  0  0  0  0  2  0  0  0  0  0  0
  161.1820  204.2680  148.9300 C   0  0  0  0  0  0  0  0  0  0  0  0
  161.6130  203.9580  147.6460 O   0  0  0  0  0  0  0  0  0  0  0  0
  160.7880  203.3520  149.6970 O   0  0  0  0  0  1  0  0  0  0  0  0
  1 14  1  0  0  0  0
  2 20  2  0  0  0  0
  2 22  1  0  0  0  0
  3  4  1  0  0  0  0
  3 10  1  0  0  0  0
  4 17  1  0  0  0  0
  5  6  2  0  0  0  0
  5 21  1  0  0  0  0
  6 27  1  0  0  0  0
  7 16  1  0  0  0  0
  7 20  1  0  0  0  0
  8 15  1  0  0  0  0
  8 11  2  0  0  0  0
  9  1  1  0  0  0  0
  9 15  1  0  0  0  0
 10 12  1  0  0  0  0
 11  2  1  0  0  0  0
 12 11  1  0  0  0  0
 12 18  2  0  0  0  0
 13 22  2  0  0  0  0
 13 19  1  0  0  0  0
 14 16  1  0  0  0  0
 15  7  2  0  0  0  0
 17 18  1  0  0  0  0
 18 13  1  0  0  0  0
 19 23  2  0  0  0  0
 22  5  1  0  0  0  0
 23 24  1  0  0  0  0
 23  6  1  0  0  0  0
 25 24  1  0  0  0  0
 26 27  1  0  0  0  0
 28  1  1  0  0  0  0
 29 28  1  0  0  0  0
 30 29  1  0  0  0  0
 30 32  1  0  0  0  0
 31 30  2  0  0  0  0
M  END
>  <MODEL>
6

>  <REMARK>
 VINA RESULT:      -5.9      3.034     10.070
  Name = 
  5 active torsions:
  status: ('A' for Active; 'I' for Inactive)
    1  A    between atoms: C_1  and  C_10
    2  A    between atoms: N_2  and  C_24
    3  A    between atoms: C_7  and  C_22
    4  A    between atoms: C_10  and  C_24
    5  A    between atoms: O_11  and  C_32
                            x       y       z     vdW  Elec       q    Type
                         _______ _______ _______ _____ _____    ______ ____

>  <TORSDO>
F 5

$$$$
=
 OpenBabel11062410513D

 32 36  0  0  0  0  0  0  0  0999 V2000
  161.8910  204.3730  146.0850 N   0  0  0  0  0  0  0  0  0  0  0  0
  161.5770  207.3480  150.2230 C   0  0  0  0  0  0  0  0  0  0  0  0
  162.4770  211.7880  148.4150 N   0  0  0  0  0  2  0  0  0  0  0  0
  161.5420  212.3870  149.3600 C   0  0  0  0  0  2  0  0  0  0  0  0
  161.1350  207.1440  152.6800 C   0  0  0  0  0  0  0  0  0  0  0  0
  160.9240  207.7790  153.9130 C   0  0  0  0  0  0  0  0  0  0  0  0
  161.8090  205.4300  148.7410 C   0  0  0  0  0  0  0  0  0  0  0  0
  161.9960  207.6410  147.8710 N   0  0  0  0  0  0  0  0  0  0  0  0
  162.2890  205.7730  146.2800 C   0  0  0  0  0  2  0  0  0  0  0  0
  161.9590  210.4730  148.0470 C   0  0  0  0  0  2  0  0  0  0  0  0
  161.7930  208.1890  149.1030 C   0  0  0  0  0  0  0  0  0  0  0  0
  161.8030  209.5820  149.2550 C   0  0  0  0  0  0  0  0  0  0  0  0
  161.3570  209.3310  151.6370 C   0  0  0  0  0  0  0  0  0  0  0  0
  162.3520  203.5320  147.2010 C   0  0  0  0  0  2  0  0  0  0  0  0
  161.9930  206.3010  147.6600 C   0  0  0  0  0  0  0  0  0  0  0  0
  161.7380  203.9490  148.5420 C   0  0  0  0  0  2  0  0  0  0  0  0
  161.6280  211.6540  150.6940 C   0  0  0  0  0  2  0  0  0  0  0  0
  161.5670  210.1550  150.5190 C   0  0  0  0  0  0  0  0  0  0  0  0
  161.1530  209.9020  152.8550 N   0  0  0  0  0  0  0  0  0  0  0  0
  161.5860  205.9620  150.0080 C   0  0  0  0  0  3  0  0  0  0  0  0
  161.1210  205.7520  152.6400 O   0  0  0  0  0  1  0  0  0  0  0  0
  161.3560  207.9180  151.5080 C   0  0  0  0  0  0  0  0  0  0  0  0
  160.9420  209.1750  153.9830 C   0  0  0  0  0  0  0  0  0  0  0  0
  160.7410  209.8150  155.2090 O   0  0  0  0  0  0  0  0  0  0  0  0
  161.7430  210.6190  155.8140 C   0  0  0  0  0  1  0  0  0  0  0  0
  159.3480  207.2750  155.7500 C   0  0  0  0  0  1  0  0  0  0  0  0
  160.7090  206.9690  155.1540 C   0  0  0  0  0  2  0  0  0  0  0  0
  160.4400  204.2920  145.9340 C   0  0  0  0  0  2  0  0  0  0  0  0
  160.0890  203.3510  144.7980 C   0  0  0  0  0  2  0  0  0  0  0  0
  160.0670  201.9490  145.2940 C   0  0  0  0  0  0  0  0  0  0  0  0
  160.0710  201.6950  146.6590 O   0  0  0  0  0  1  0  0  0  0  0  0
  160.0780  200.9920  144.4780 O   0  0  0  0  0  0  0  0  0  0  0  0
  1  9  1  0  0  0  0
  1 14  1  0  0  0  0
  2 22  1  0  0  0  0
  3  4  1  0  0  0  0
  4 17  1  0  0  0  0
  5  6  2  0  0  0  0
  6 23  1  0  0  0  0
  6 27  1  0  0  0  0
  7 20  1  0  0  0  0
  8 11  2  0  0  0  0
  9 15  1  0  0  0  0
 10  3  1  0  0  0  0
 10 12  1  0  0  0  0
 11 12  1  0  0  0  0
 11  2  1  0  0  0  0
 12 18  2  0  0  0  0
 13 19  1  0  0  0  0
 14 16  1  0  0  0  0
 15  8  1  0  0  0  0
 15  7  2  0  0  0  0
 16  7  1  0  0  0  0
 18 17  1  0  0  0  0
 18 13  1  0  0  0  0
 19 23  2  0  0  0  0
 20  2  2  0  0  0  0
 21  5  1  0  0  0  0
 22 13  2  0  0  0  0
 22  5  1  0  0  0  0
 23 24  1  0  0  0  0
 24 25  1  0  0  0  0
 27 26  1  0  0  0  0
 28  1  1  0  0  0  0
 29 30  1  0  0  0  0
 29 28  1  0  0  0  0
 30 31  1  0  0  0  0
 32 30  2  0  0  0  0
M  END
>  <MODEL>
7

>  <REMARK>
 VINA RESULT:      -5.5      2.334      8.999
  Name = 
  5 active torsions:
  status: ('A' for Active; 'I' for Inactive)
    1  A    between atoms: C_1  and  C_10
    2  A    between atoms: N_2  and  C_24
    3  A    between atoms: C_7  and  C_22
    4  A    between atoms: C_10  and  C_24
    5  A    between atoms: O_11  and  C_32
                            x       y       z     vdW  Elec       q    Type
                         _______ _______ _______ _____ _____    ______ ____

>  <TORSDO>
F 5

$$$$
=
 OpenBabel11062410513D

 32 36  0  0  0  0  0  0  0  0999 V2000
  161.4900  212.9130  148.8510 N   0  0  0  0  0  0  0  0  0  0  0  0
  161.4450  208.1500  150.6890 C   0  0  0  0  0  0  0  0  0  0  0  0
  161.1740  208.8680  155.5060 N   0  0  0  0  0  2  0  0  0  0  0  0
  160.3450  207.6780  155.6600 C   0  0  0  0  0  2  0  0  0  0  0  0
  161.5240  205.7910  149.8520 C   0  0  0  0  0  0  0  0  0  0  0  0
  161.4420  204.4190  150.1350 C   0  0  0  0  0  0  0  0  0  0  0  0
  161.7290  210.0920  149.2470 C   0  0  0  0  0  0  0  0  0  0  0  0
  161.3480  210.3830  151.5820 N   0  0  0  0  0  0  0  0  0  0  0  0
  161.6610  212.4250  150.2260 C   0  0  0  0  0  2  0  0  0  0  0  0
  160.8390  209.4840  154.2240 C   0  0  0  0  0  2  0  0  0  0  0  0
  161.2890  209.0360  151.7850 C   0  0  0  0  0  0  0  0  0  0  0  0
  161.0790  208.5350  153.0750 C   0  0  0  0  0  0  0  0  0  0  0  0
  161.1470  206.2580  152.2090 C   0  0  0  0  0  0  0  0  0  0  0  0
  162.2980  212.1270  147.9060 C   0  0  0  0  0  2  0  0  0  0  0  0
  161.5450  210.9280  150.3550 C   0  0  0  0  0  0  0  0  0  0  0  0
  161.8870  210.6520  147.8700 C   0  0  0  0  0  2  0  0  0  0  0  0
  160.8140  206.6020  154.6850 C   0  0  0  0  0  2  0  0  0  0  0  0
  160.9890  207.1460  153.2870 C   0  0  0  0  0  0  0  0  0  0  0  0
  161.0810  204.9180  152.4370 N   0  0  0  0  0  0  0  0  0  0  0  0
  161.6600  208.7120  149.4230 C   0  0  0  0  0  3  0  0  0  0  0  0
  161.7510  206.1840  148.5350 O   0  0  0  0  0  1  0  0  0  0  0  0
  161.3750  206.7440  150.8960 C   0  0  0  0  0  0  0  0  0  0  0  0
  161.2220  203.9960  151.4490 C   0  0  0  0  0  0  0  0  0  0  0  0
  161.1480  202.6310  151.7400 O   0  0  0  0  0  0  0  0  0  0  0  0
  162.2750  201.7750  151.6350 C   0  0  0  0  0  1  0  0  0  0  0  0
  160.2820  202.7690  148.7040 C   0  0  0  0  0  1  0  0  0  0  0  0
  161.6150  203.4100  149.0420 C   0  0  0  0  0  2  0  0  0  0  0  0
  160.0760  212.8730  148.4890 C   0  0  0  0  0  2  0  0  0  0  0  0
  159.8340  213.7140  147.2500 C   0  0  0  0  0  2  0  0  0  0  0  0
  159.0950  212.9150  146.2360 C   0  0  0  0  0  0  0  0  0  0  0  0
  159.7750  212.0070  145.4360 O   0  0  0  0  0  0  0  0  0  0  0  0
  157.8590  213.0870  146.0780 O   0  0  0  0  0  1  0  0  0  0  0  0
  1  9  1  0  0  0  0
  2 22  2  0  0  0  0
  2 11  1  0  0  0  0
  3  4  1  0  0  0  0
  5  6  2  0  0  0  0
  5 22  1  0  0  0  0
  6 23  1  0  0  0  0
  7 20  2  0  0  0  0
  7 15  1  0  0  0  0
  8 11  1  0  0  0  0
  9 15  1  0  0  0  0
 10  3  1  0  0  0  0
 11 12  2  0  0  0  0
 12 18  1  0  0  0  0
 12 10  1  0  0  0  0
 13 19  1  0  0  0  0
 13 18  2  0  0  0  0
 14  1  1  0  0  0  0
 15  8  2  0  0  0  0
 16 14  1  0  0  0  0
 16  7  1  0  0  0  0
 17  4  1  0  0  0  0
 18 17  1  0  0  0  0
 20  2  1  0  0  0  0
 21  5  1  0  0  0  0
 22 13  1  0  0  0  0
 23 24  1  0  0  0  0
 23 19  2  0  0  0  0
 25 24  1  0  0  0  0
 26 27  1  0  0  0  0
 27  6  1  0  0  0  0
 28  1  1  0  0  0  0
 29 28  1  0  0  0  0
 30 29  1  0  0  0  0
 31 30  2  0  0  0  0
 32 30  1  0  0  0  0
M  END
>  <MODEL>
8

>  <REMARK>
 VINA RESULT:      -5.1      3.389      5.793
  Name = 
  5 active torsions:
  status: ('A' for Active; 'I' for Inactive)
    1  A    between atoms: C_1  and  C_10
    2  A    between atoms: N_2  and  C_24
    3  A    between atoms: C_7  and  C_22
    4  A    between atoms: C_10  and  C_24
    5  A    between atoms: O_11  and  C_32
                            x       y       z     vdW  Elec       q    Type
                         _______ _______ _______ _____ _____    ______ ____

>  <TORSDO>
F 5

$$$$
=
 OpenBabel11062410513D

 32 36  0  0  0  0  0  0  0  0999 V2000
  162.4040  206.0010  149.3230 N   0  0  0  0  0  0  0  0  0  0  0  0
  160.7590  210.1580  151.7900 C   0  0  0  0  0  0  0  0  0  0  0  0
  161.7190  213.7330  148.6120 N   0  0  0  0  0  2  0  0  0  0  0  0
  160.5200  214.4530  149.0260 C   0  0  0  0  0  2  0  0  0  0  0  0
  159.7050  210.7770  153.9760 C   0  0  0  0  0  0  0  0  0  0  0  0
  159.1240  211.7650  154.7850 C   0  0  0  0  0  0  0  0  0  0  0  0
  161.5360  207.9100  151.2670 C   0  0  0  0  0  0  0  0  0  0  0  0
  161.7550  209.6550  149.6570 N   0  0  0  0  0  0  0  0  0  0  0  0
  162.6150  207.4250  149.0300 C   0  0  0  0  0  2  0  0  0  0  0  0
  161.4310  212.3030  148.6920 C   0  0  0  0  0  2  0  0  0  0  0  0
  161.1890  210.5640  150.5010 C   0  0  0  0  0  0  0  0  0  0  0  0
  161.0390  211.8950  150.0910 C   0  0  0  0  0  0  0  0  0  0  0  0
  160.0050  212.4430  152.2280 C   0  0  0  0  0  0  0  0  0  0  0  0
  162.6250  205.7170  150.7500 C   0  0  0  0  0  2  0  0  0  0  0  0
  161.9230  208.3510  149.9950 C   0  0  0  0  0  0  0  0  0  0  0  0
  161.6470  206.4710  151.6560 C   0  0  0  0  0  2  0  0  0  0  0  0
  160.3150  214.2780  150.5270 C   0  0  0  0  0  2  0  0  0  0  0  0
  160.4310  212.8320  150.9470 C   0  0  0  0  0  0  0  0  0  0  0  0
  159.4400  213.3680  153.0510 N   0  0  0  0  0  0  0  0  0  0  0  0
  160.9430  208.8140  152.1440 C   0  0  0  0  0  3  0  0  0  0  0  0
  159.8210  209.4860  154.4850 O   0  0  0  0  0  1  0  0  0  0  0  0
  160.1590  211.1030  152.6690 C   0  0  0  0  0  0  0  0  0  0  0  0
  159.0020  213.0710  154.3020 C   0  0  0  0  0  0  0  0  0  0  0  0
  158.4320  214.0620  155.1050 O   0  0  0  0  0  0  0  0  0  0  0  0
  157.0740  214.4530  154.9700 C   0  0  0  0  0  1  0  0  0  0  0  0
  159.7940  211.6160  157.1610 C   0  0  0  0  0  1  0  0  0  0  0  0
  158.6600  211.4310  156.1690 C   0  0  0  0  0  2  0  0  0  0  0  0
  161.0560  205.6110  148.9150 C   0  0  0  0  0  2  0  0  0  0  0  0
  161.0910  204.2480  148.2510 C   0  0  0  0  0  2  0  0  0  0  0  0
  161.4080  204.4000  146.8060 C   0  0  0  0  0  0  0  0  0  0  0  0
  161.5120  205.6670  146.2460 O   0  0  0  0  0  1  0  0  0  0  0  0
  161.5490  203.3810  146.0810 O   0  0  0  0  0  0  0  0  0  0  0  0
  1 14  1  0  0  0  0
  2 20  2  0  0  0  0
  2 22  1  0  0  0  0
  3 10  1  0  0  0  0
  3  4  1  0  0  0  0
  4 17  1  0  0  0  0
  5 21  1  0  0  0  0
  5  6  2  0  0  0  0
  6 27  1  0  0  0  0
  7 16  1  0  0  0  0
  7 20  1  0  0  0  0
  8 15  1  0  0  0  0
  8 11  2  0  0  0  0
  9  1  1  0  0  0  0
  9 15  1  0  0  0  0
 10 12  1  0  0  0  0
 11  2  1  0  0  0  0
 12 11  1  0  0  0  0
 12 18  2  0  0  0  0
 13 22  2  0  0  0  0
 13 19  1  0  0  0  0
 14 16  1  0  0  0  0
 15  7  2  0  0  0  0
 17 18  1  0  0  0  0
 18 13  1  0  0  0  0
 19 23  2  0  0  0  0
 22  5  1  0  0  0  0
 23  6  1  0  0  0  0
 23 24  1  0  0  0  0
 25 24  1  0  0  0  0
 27 26  1  0  0  0  0
 28  1  1  0  0  0  0
 29 28  1  0  0  0  0
 30 29  1  0  0  0  0
 31 30  1  0  0  0  0
 32 30  2  0  0  0  0
M  END
>  <MODEL>
9

>  <REMARK>
 VINA RESULT:      -4.4      2.582      9.788
  Name = 
  5 active torsions:
  status: ('A' for Active; 'I' for Inactive)
    1  A    between atoms: C_1  and  C_10
    2  A    between atoms: N_2  and  C_24
    3  A    between atoms: C_7  and  C_22
    4  A    between atoms: C_10  and  C_24
    5  A    between atoms: O_11  and  C_32
                            x       y       z     vdW  Elec       q    Type
                         _______ _______ _______ _____ _____    ______ ____

>  <TORSDO>
F 5

$$$$
