=
 OpenBabel11062409493D

 34 38  0  0  1  0  0  0  0  0999 V2000
  160.2790  204.7620  147.0860 C   0  0  1  0  0  3  0  0  0  0  0  0
  161.0860  203.0120  150.5720 C   0  0  1  0  0  3  0  0  0  0  0  0
  161.6780  205.1330  153.1190 C   0  0  0  0  0  1  0  0  0  0  0  0
  160.8600  202.0290  148.2300 C   0  0  0  0  0  2  0  0  0  0  0  0
  162.0130  206.5430  146.4570 C   0  0  2  0  0  3  0  0  0  0  0  0
  160.5350  206.2240  146.6930 C   0  0  0  0  0  2  0  0  0  0  0  0
  162.5050  204.0930  145.9180 C   0  0  2  0  0  3  0  0  0  0  0  0
  163.4870  203.7510  147.0330 C   0  0  0  0  0  1  0  0  0  0  0  0
  162.6550  205.5520  145.4830 C   0  0  0  0  0  2  0  0  0  0  0  0
  160.8860  202.3160  146.7500 C   0  0  0  0  0  0  0  0  0  0  0  0
  161.0380  203.7260  146.2250 C   0  0  1  0  0  3  0  0  0  0  0  0
  160.7980  201.3920  145.9630 O   0  0  0  0  0  0  0  0  0  0  0  0
  160.2810  204.1000  151.3170 C   0  0  1  0  0  3  0  0  0  0  0  0
  160.5110  205.3450  152.1760 C   0  0  2  0  0  3  0  0  0  0  0  0
  160.9910  205.3570  150.7680 C   0  0  2  0  0  3  0  0  0  0  0  0
  161.1340  203.2910  149.0430 C   0  0  1  0  0  3  0  0  0  0  0  0
  160.1260  205.6660  149.5570 C   0  0  0  0  0  2  0  0  0  0  0  0
  160.1860  204.4450  148.5940 C   0  0  1  0  0  3  0  0  0  0  0  0
  162.4790  202.7580  151.1360 C   0  0  0  0  0  2  0  0  0  0  0  0
  162.4410  201.6990  152.0240 F   0  0  0  0  0  0  0  0  0  0  0  0
  162.8040  206.6760  147.7560 C   0  0  0  0  0  2  0  0  0  0  0  0
  162.8430  208.1160  148.2530 C   0  0  0  0  0  2  0  0  0  0  0  0
  161.6630  208.4190  149.1610 C   0  0  0  0  0  2  0  0  0  0  0  0
  161.9170  211.0450  149.9150 C   0  0  0  0  0  1  0  0  0  0  0  0
  161.1100  209.3680  151.3480 C   0  0  2  0  0  3  0  0  0  0  0  0
  162.1470  208.6730  150.5910 C   0  0  2  0  0  3  0  0  0  0  0  0
  162.3200  210.1080  150.9600 N   0  0  0  0  0  0  0  0  0  0  0  0
  160.9600  209.9480  153.8010 C   0  0  0  0  0  0  0  0  0  0  0  0
  161.2000  209.0080  152.7540 N   0  0  0  0  0  2  0  0  0  0  0  0
  160.5800  211.1180  153.5340 O   0  0  0  0  0  0  0  0  0  0  0  0
  161.1680  209.5450  155.2210 C   0  0  0  0  0  2  0  0  0  0  0  0
  161.3040  208.0350  155.3540 C   0  0  0  0  0  2  0  0  0  0  0  0
  160.0170  207.4060  155.8670 C   0  0  0  0  0  2  0  0  0  0  0  0
  160.2200  206.8380  157.2580 C   0  0  0  0  0  1  0  0  0  0  0  0
  1  6  1  1  0  0  0
  1 18  1  0  0  0  0
  2 19  1  1  0  0  0
  2 13  1  0  0  0  0
  4 16  1  0  0  0  0
  5  6  1  0  0  0  0
  5 21  1  1  0  0  0
  7 11  1  0  0  0  0
  7  8  1  1  0  0  0
  9  7  1  0  0  0  0
  9  5  1  0  0  0  0
 10  4  1  0  0  0  0
 11 10  1  1  0  0  0
 11  1  1  0  0  0  0
 12 10  2  0  0  0  0
 13 14  1  0  0  0  0
 14  3  1  0  0  0  0
 15 13  1  0  0  0  0
 15 14  1  0  0  0  0
 16  2  1  0  0  0  0
 17 15  1  0  0  0  0
 18 16  1  0  0  0  0
 18 17  1  0  0  0  0
 19 20  1  0  0  0  0
 21 22  1  0  0  0  0
 22 23  1  0  0  0  0
 23 26  1  0  0  0  0
 24 27  1  0  0  0  0
 25 29  1  0  0  0  0
 26 27  1  0  0  0  0
 26 25  1  0  0  0  0
 27 25  1  0  0  0  0
 28 31  1  0  0  0  0
 29 28  1  0  0  0  0
 30 28  2  0  0  0  0
 31 32  1  0  0  0  0
 32 33  1  0  0  0  0
 33 34  1  0  0  0  0
M  END
>  <MODEL>
1

>  <REMARK>
 VINA RESULT:      -4.1      0.000      0.000
  Name = 
  9 active torsions:
  status: ('A' for Active; 'I' for Inactive)
    1  A    between atoms: C_2  and  C_13
    2  A    between atoms: C_6  and  C_28
    3  A    between atoms: C_6  and  C_30
    4  A    between atoms: C_7  and  C_29
    5  A    between atoms: C_8  and  C_18
    6  A    between atoms: C_11  and  C_15
    7  A    between atoms: C_11  and  C_29
    8  A    between atoms: N_14  and  C_16
    9  A    between atoms: C_18  and  C_30
                            x       y       z     vdW  Elec       q    Type
                         _______ _______ _______ _____ _____    ______ ____

>  <TORSDO>
F 9

$$$$
=
 OpenBabel11062409493D

 34 38  0  0  1  0  0  0  0  0999 V2000
  159.4830  213.3000  154.6340 C   0  0  1  0  0  3  0  0  0  0  0  0
  159.9400  210.3400  157.2600 C   0  0  1  0  0  3  0  0  0  0  0  0
  162.0500  207.9020  156.2920 C   0  0  0  0  0  1  0  0  0  0  0  0
  158.2980  212.2900  157.2210 C   0  0  0  0  0  2  0  0  0  0  0  0
  158.9350  212.4480  152.2790 C   0  0  2  0  0  3  0  0  0  0  0  0
  159.8650  213.2980  153.1470 C   0  0  0  0  0  2  0  0  0  0  0  0
  157.0380  212.7090  153.9730 C   0  0  2  0  0  3  0  0  0  0  0  0
  156.8230  211.2560  154.3820 C   0  0  0  0  0  1  0  0  0  0  0  0
  157.4650  212.8090  152.5070 C   0  0  0  0  0  2  0  0  0  0  0  0
  157.6240  213.3350  156.3670 C   0  0  0  0  0  0  0  0  0  0  0  0
  157.9750  213.5040  154.9070 C   0  0  1  0  0  3  0  0  0  0  0  0
  156.7690  214.0460  156.8630 O   0  0  0  0  0  0  0  0  0  0  0  0
  161.4440  210.2490  156.9110 C   0  0  1  0  0  3  0  0  0  0  0  0
  162.4110  209.3640  156.1250 C   0  0  2  0  0  3  0  0  0  0  0  0
  161.3350  210.0710  155.3810 C   0  0  2  0  0  3  0  0  0  0  0  0
  159.2210  211.4070  156.3860 C   0  0  1  0  0  3  0  0  0  0  0  0
  161.4040  211.5180  154.9210 C   0  0  0  0  0  2  0  0  0  0  0  0
  160.2000  212.2830  155.5460 C   0  0  1  0  0  3  0  0  0  0  0  0
  159.2030  209.0070  157.2310 C   0  0  0  0  0  2  0  0  0  0  0  0
  158.5560  208.8530  156.0180 F   0  0  0  0  0  0  0  0  0  0  0  0
  159.1940  210.9510  152.4250 C   0  0  0  0  0  2  0  0  0  0  0  0
  160.5970  210.5690  151.9660 C   0  0  0  0  0  2  0  0  0  0  0  0
  160.8670  209.0900  152.1910 C   0  0  0  0  0  2  0  0  0  0  0  0
  161.7900  206.5250  152.4990 C   0  0  0  0  0  1  0  0  0  0  0  0
  161.0160  207.3760  150.4510 C   0  0  2  0  0  3  0  0  0  0  0  0
  161.7000  208.5240  151.0380 C   0  0  2  0  0  3  0  0  0  0  0  0
  162.2280  207.1440  151.2510 N   0  0  0  0  0  0  0  0  0  0  0  0
  161.4590  206.0170  148.3700 C   0  0  0  0  0  0  0  0  0  0  0  0
  161.3470  207.2730  149.0390 N   0  0  0  0  0  2  0  0  0  0  0  0
  161.1910  204.9450  148.9740 O   0  0  0  0  0  0  0  0  0  0  0  0
  161.9020  205.9710  146.9470 C   0  0  0  0  0  2  0  0  0  0  0  0
  160.7360  206.2110  145.9970 C   0  0  0  0  0  2  0  0  0  0  0  0
  160.7320  205.1990  144.8610 C   0  0  0  0  0  2  0  0  0  0  0  0
  161.4780  203.9420  145.2640 C   0  0  0  0  0  1  0  0  0  0  0  0
  1  6  1  6  0  0  0
  1 11  1  0  0  0  0
  1 18  1  0  0  0  0
  2 19  1  6  0  0  0
  5 21  1  1  0  0  0
  5  9  1  0  0  0  0
  5  6  1  0  0  0  0
  7  8  1  1  0  0  0
  7 11  1  0  0  0  0
  9  7  1  0  0  0  0
 10 12  2  0  0  0  0
 10  4  1  0  0  0  0
 11 10  1  1  0  0  0
 13  2  1  0  0  0  0
 14  3  1  0  0  0  0
 14 13  1  0  0  0  0
 15 14  1  0  0  0  0
 15 13  1  0  0  0  0
 16  4  1  0  0  0  0
 16  2  1  0  0  0  0
 17 15  1  0  0  0  0
 17 18  1  0  0  0  0
 18 16  1  0  0  0  0
 20 19  1  0  0  0  0
 22 23  1  0  0  0  0
 22 21  1  0  0  0  0
 25 26  1  0  0  0  0
 25 27  1  0  0  0  0
 26 27  1  0  0  0  0
 26 23  1  0  0  0  0
 27 24  1  0  0  0  0
 28 30  2  0  0  0  0
 28 29  1  0  0  0  0
 29 25  1  0  0  0  0
 31 28  1  0  0  0  0
 32 31  1  0  0  0  0
 33 34  1  0  0  0  0
 33 32  1  0  0  0  0
M  END
>  <MODEL>
2

>  <REMARK>
 VINA RESULT:      -3.8      3.413      9.525
  Name = 
  9 active torsions:
  status: ('A' for Active; 'I' for Inactive)
    1  A    between atoms: C_2  and  C_13
    2  A    between atoms: C_6  and  C_28
    3  A    between atoms: C_6  and  C_30
    4  A    between atoms: C_7  and  C_29
    5  A    between atoms: C_8  and  C_18
    6  A    between atoms: C_11  and  C_15
    7  A    between atoms: C_11  and  C_29
    8  A    between atoms: N_14  and  C_16
    9  A    between atoms: C_18  and  C_30
                            x       y       z     vdW  Elec       q    Type
                         _______ _______ _______ _____ _____    ______ ____

>  <TORSDO>
F 9

$$$$
=
 OpenBabel11062409493D

 34 38  0  0  1  0  0  0  0  0999 V2000
  159.7610  209.2860  154.3420 C   0  0  1  0  0  3  0  0  0  0  0  0
  158.4230  211.9640  156.9690 C   0  0  1  0  0  3  0  0  0  0  0  0
  156.5300  214.4170  155.6510 C   0  0  0  0  0  1  0  0  0  0  0  0
  160.1200  210.0800  157.2330 C   0  0  0  0  0  2  0  0  0  0  0  0
  160.8930  210.3770  152.3180 C   0  0  2  0  0  3  0  0  0  0  0  0
  159.8080  209.4180  152.8140 C   0  0  0  0  0  2  0  0  0  0  0  0
  162.2550  210.0140  154.4500 C   0  0  2  0  0  3  0  0  0  0  0  0
  162.2650  211.4270  155.0220 C   0  0  0  0  0  1  0  0  0  0  0  0
  162.2600  210.0420  152.9200 C   0  0  0  0  0  2  0  0  0  0  0  0
  161.0630  209.1440  156.5210 C   0  0  0  0  0  0  0  0  0  0  0  0
  161.1430  209.1040  155.0120 C   0  0  1  0  0  3  0  0  0  0  0  0
  161.7860  208.4150  157.1760 O   0  0  0  0  0  0  0  0  0  0  0  0
  157.0730  212.0410  156.2190 C   0  0  1  0  0  3  0  0  0  0  0  0
  156.3140  212.9670  155.2680 C   0  0  2  0  0  3  0  0  0  0  0  0
  157.5930  212.3680  154.8020 C   0  0  2  0  0  3  0  0  0  0  0  0
  159.4160  211.0100  156.2480 C   0  0  1  0  0  3  0  0  0  0  0  0
  157.7380  210.9710  154.2230 C   0  0  0  0  0  2  0  0  0  0  0  0
  158.7610  210.1880  155.0960 C   0  0  1  0  0  3  0  0  0  0  0  0
  159.0620  213.3170  157.2610 C   0  0  0  0  0  2  0  0  0  0  0  0
  160.2200  213.4600  156.5190 F   0  0  0  0  0  0  0  0  0  0  0  0
  160.5180  211.8440  152.5080 C   0  0  0  0  0  2  0  0  0  0  0  0
  160.1180  212.5050  151.1940 C   0  0  0  0  0  2  0  0  0  0  0  0
  161.2920  212.5750  150.2320 C   0  0  0  0  0  2  0  0  0  0  0  0
  163.0240  212.8390  148.1210 C   0  0  0  0  0  1  0  0  0  0  0  0
  162.1980  210.7660  148.8560 C   0  0  2  0  0  3  0  0  0  0  0  0
  161.0520  211.6510  149.0350 C   0  0  2  0  0  3  0  0  0  0  0  0
  161.9790  211.8470  147.8830 N   0  0  0  0  0  0  0  0  0  0  0  0
  161.9380  208.2560  148.9440 C   0  0  0  0  0  0  0  0  0  0  0  0
  161.7630  209.5060  148.2760 N   0  0  0  0  0  2  0  0  0  0  0  0
  162.4110  208.2150  150.1100 O   0  0  0  0  0  0  0  0  0  0  0  0
  161.5640  206.9880  148.2550 C   0  0  0  0  0  2  0  0  0  0  0  0
  160.3940  206.3050  148.9500 C   0  0  0  0  0  2  0  0  0  0  0  0
  160.8340  205.0230  149.6420 C   0  0  0  0  0  2  0  0  0  0  0  0
  161.0970  205.2750  151.1130 C   0  0  0  0  0  1  0  0  0  0  0  0
  1  6  1  6  0  0  0
  1 11  1  0  0  0  0
  1 18  1  0  0  0  0
  2 19  1  6  0  0  0
  5 21  1  1  0  0  0
  5  6  1  0  0  0  0
  5  9  1  0  0  0  0
  7 11  1  0  0  0  0
  7  8  1  1  0  0  0
  9  7  1  0  0  0  0
 10 12  2  0  0  0  0
 10  4  1  0  0  0  0
 11 10  1  1  0  0  0
 13  2  1  0  0  0  0
 14  3  1  0  0  0  0
 14 13  1  0  0  0  0
 15 14  1  0  0  0  0
 15 13  1  0  0  0  0
 16  2  1  0  0  0  0
 16  4  1  0  0  0  0
 17 15  1  0  0  0  0
 17 18  1  0  0  0  0
 18 16  1  0  0  0  0
 20 19  1  0  0  0  0
 22 21  1  0  0  0  0
 23 22  1  0  0  0  0
 25 26  1  0  0  0  0
 26 23  1  0  0  0  0
 27 24  1  0  0  0  0
 27 25  1  0  0  0  0
 27 26  1  0  0  0  0
 28 30  2  0  0  0  0
 29 25  1  0  0  0  0
 29 28  1  0  0  0  0
 31 28  1  0  0  0  0
 31 32  1  0  0  0  0
 32 33  1  0  0  0  0
 33 34  1  0  0  0  0
M  END
>  <MODEL>
3

>  <REMARK>
 VINA RESULT:      -3.5      3.696      8.638
  Name = 
  9 active torsions:
  status: ('A' for Active; 'I' for Inactive)
    1  A    between atoms: C_2  and  C_13
    2  A    between atoms: C_6  and  C_28
    3  A    between atoms: C_6  and  C_30
    4  A    between atoms: C_7  and  C_29
    5  A    between atoms: C_8  and  C_18
    6  A    between atoms: C_11  and  C_15
    7  A    between atoms: C_11  and  C_29
    8  A    between atoms: N_14  and  C_16
    9  A    between atoms: C_18  and  C_30
                            x       y       z     vdW  Elec       q    Type
                         _______ _______ _______ _____ _____    ______ ____

>  <TORSDO>
F 9

$$$$
=
 OpenBabel11062409493D

 34 38  0  0  1  0  0  0  0  0999 V2000
  160.3030  204.7920  147.1810 C   0  0  1  0  0  3  0  0  0  0  0  0
  161.1220  203.1470  150.7150 C   0  0  1  0  0  3  0  0  0  0  0  0
  161.7130  205.3440  153.1970 C   0  0  0  0  0  1  0  0  0  0  0  0
  160.8930  202.0950  148.4040 C   0  0  0  0  0  2  0  0  0  0  0  0
  162.0310  206.5570  146.4960 C   0  0  2  0  0  3  0  0  0  0  0  0
  160.5550  206.2420  146.7440 C   0  0  0  0  0  2  0  0  0  0  0  0
  162.5290  204.0940  146.0290 C   0  0  2  0  0  3  0  0  0  0  0  0
  163.5140  203.7870  147.1510 C   0  0  0  0  0  1  0  0  0  0  0  0
  162.6750  205.5400  145.5510 C   0  0  0  0  0  2  0  0  0  0  0  0
  160.9160  202.3390  146.9160 C   0  0  0  0  0  0  0  0  0  0  0  0
  161.0630  203.7330  146.3490 C   0  0  1  0  0  3  0  0  0  0  0  0
  160.8290  201.3910  146.1570 O   0  0  0  0  0  0  0  0  0  0  0  0
  160.3150  204.2550  151.4300 C   0  0  1  0  0  3  0  0  0  0  0  0
  160.5440  205.5250  152.2510 C   0  0  2  0  0  3  0  0  0  0  0  0
  161.0210  205.4970  150.8420 C   0  0  2  0  0  3  0  0  0  0  0  0
  161.1660  203.3810  149.1790 C   0  0  1  0  0  3  0  0  0  0  0  0
  160.1530  205.7680  149.6240 C   0  0  0  0  0  2  0  0  0  0  0  0
  160.2140  204.5190  148.6970 C   0  0  1  0  0  3  0  0  0  0  0  0
  162.5160  202.9140  151.2840 C   0  0  0  0  0  2  0  0  0  0  0  0
  162.5460  201.7210  151.9830 F   0  0  0  0  0  0  0  0  0  0  0  0
  162.8240  206.7310  147.7890 C   0  0  0  0  0  2  0  0  0  0  0  0
  162.8410  208.1820  148.2570 C   0  0  0  0  0  2  0  0  0  0  0  0
  162.3290  208.3070  149.6830 C   0  0  0  0  0  2  0  0  0  0  0  0
  162.6020  209.7430  152.0040 C   0  0  0  0  0  1  0  0  0  0  0  0
  162.2830  210.7440  149.9020 C   0  0  2  0  0  3  0  0  0  0  0  0
  161.4470  209.5500  149.8210 C   0  0  2  0  0  3  0  0  0  0  0  0
  161.5820  210.2860  151.1120 N   0  0  0  0  0  0  0  0  0  0  0  0
  162.1090  212.6610  148.2680 C   0  0  0  0  0  0  0  0  0  0  0  0
  161.5760  211.8820  149.3400 N   0  0  0  0  0  2  0  0  0  0  0  0
  163.1910  212.3310  147.7160 O   0  0  0  0  0  0  0  0  0  0  0  0
  161.3830  213.8770  147.8030 C   0  0  0  0  0  2  0  0  0  0  0  0
  159.8790  213.7300  147.9910 C   0  0  0  0  0  2  0  0  0  0  0  0
  159.2510  212.9650  146.8360 C   0  0  0  0  0  2  0  0  0  0  0  0
  157.8220  212.5810  147.1650 C   0  0  0  0  0  1  0  0  0  0  0  0
  1  6  1  1  0  0  0
  1 18  1  0  0  0  0
  2 19  1  1  0  0  0
  2 13  1  0  0  0  0
  4 16  1  0  0  0  0
  5  6  1  0  0  0  0
  5 21  1  1  0  0  0
  7 11  1  0  0  0  0
  7  8  1  1  0  0  0
  9  7  1  0  0  0  0
  9  5  1  0  0  0  0
 10  4  1  0  0  0  0
 11 10  1  1  0  0  0
 11  1  1  0  0  0  0
 12 10  2  0  0  0  0
 13 14  1  0  0  0  0
 14  3  1  0  0  0  0
 15 13  1  0  0  0  0
 15 14  1  0  0  0  0
 16  2  1  0  0  0  0
 17 15  1  0  0  0  0
 18 16  1  0  0  0  0
 18 17  1  0  0  0  0
 19 20  1  0  0  0  0
 21 22  1  0  0  0  0
 22 23  1  0  0  0  0
 23 26  1  0  0  0  0
 25 27  1  0  0  0  0
 26 25  1  0  0  0  0
 26 27  1  0  0  0  0
 27 24  1  0  0  0  0
 28 29  1  0  0  0  0
 29 25  1  0  0  0  0
 30 28  2  0  0  0  0
 31 32  1  0  0  0  0
 31 28  1  0  0  0  0
 33 34  1  0  0  0  0
 33 32  1  0  0  0  0
M  END
>  <MODEL>
4

>  <REMARK>
 VINA RESULT:      -3.1      1.994      3.960
  Name = 
  9 active torsions:
  status: ('A' for Active; 'I' for Inactive)
    1  A    between atoms: C_2  and  C_13
    2  A    between atoms: C_6  and  C_28
    3  A    between atoms: C_6  and  C_30
    4  A    between atoms: C_7  and  C_29
    5  A    between atoms: C_8  and  C_18
    6  A    between atoms: C_11  and  C_15
    7  A    between atoms: C_11  and  C_29
    8  A    between atoms: N_14  and  C_16
    9  A    between atoms: C_18  and  C_30
                            x       y       z     vdW  Elec       q    Type
                         _______ _______ _______ _____ _____    ______ ____

>  <TORSDO>
F 9

$$$$
=
 OpenBabel11062409493D

 34 38  0  0  1  0  0  0  0  0999 V2000
  160.5040  209.2290  156.3020 C   0  0  1  0  0  3  0  0  0  0  0  0
  158.8490  212.8150  155.7880 C   0  0  1  0  0  3  0  0  0  0  0  0
  155.9310  212.8010  154.1090 C   0  0  0  0  0  1  0  0  0  0  0  0
  161.1490  212.1560  156.6710 C   0  0  0  0  0  2  0  0  0  0  0  0
  160.6730  207.9030  154.1150 C   0  0  2  0  0  3  0  0  0  0  0  0
  160.1670  207.9290  155.5590 C   0  0  0  0  0  2  0  0  0  0  0  0
  162.4950  209.6060  154.6710 C   0  0  2  0  0  3  0  0  0  0  0  0
  162.0900  210.7600  153.7610 C   0  0  0  0  0  1  0  0  0  0  0  0
  162.1590  208.2580  154.0310 C   0  0  0  0  0  2  0  0  0  0  0  0
  162.1990  211.0760  156.7260 C   0  0  0  0  0  0  0  0  0  0  0  0
  161.9610  209.7140  156.1150 C   0  0  1  0  0  3  0  0  0  0  0  0
  163.2680  211.3120  157.2610 O   0  0  0  0  0  0  0  0  0  0  0  0
  157.4450  212.2110  156.0130 C   0  0  1  0  0  3  0  0  0  0  0  0
  156.2040  211.8030  155.2160 C   0  0  2  0  0  3  0  0  0  0  0  0
  157.4820  211.0890  154.9520 C   0  0  2  0  0  3  0  0  0  0  0  0
  159.9500  211.7190  155.8320 C   0  0  1  0  0  3  0  0  0  0  0  0
  158.0190  209.9330  155.7800 C   0  0  0  0  0  2  0  0  0  0  0  0
  159.4250  210.3320  156.3160 C   0  0  1  0  0  3  0  0  0  0  0  0
  158.9730  213.6790  154.5380 C   0  0  0  0  0  2  0  0  0  0  0  0
  159.5840  212.9590  153.5280 F   0  0  0  0  0  0  0  0  0  0  0  0
  159.8190  208.7500  153.1740 C   0  0  0  0  0  2  0  0  0  0  0  0
  160.4510  208.8790  151.7930 C   0  0  0  0  0  2  0  0  0  0  0  0
  161.3640  207.7020  151.4920 C   0  0  0  0  0  2  0  0  0  0  0  0
  162.1950  207.5940  148.8800 C   0  0  0  0  0  1  0  0  0  0  0  0
  161.5970  205.6900  150.1190 C   0  0  2  0  0  3  0  0  0  0  0  0
  160.6470  206.6930  150.5910 C   0  0  2  0  0  3  0  0  0  0  0  0
  161.0860  206.6870  149.1660 N   0  0  0  0  0  0  0  0  0  0  0  0
  161.0550  203.3160  150.7880 C   0  0  0  0  0  0  0  0  0  0  0  0
  160.9120  204.4260  149.9020 N   0  0  0  0  0  2  0  0  0  0  0  0
  161.7290  203.4260  151.8470 O   0  0  0  0  0  0  0  0  0  0  0  0
  160.4090  202.0140  150.4570 C   0  0  0  0  0  2  0  0  0  0  0  0
  159.9790  201.9660  148.9970 C   0  0  0  0  0  2  0  0  0  0  0  0
  161.0550  201.3360  148.1240 C   0  0  0  0  0  2  0  0  0  0  0  0
  161.0440  201.9490  146.7380 C   0  0  0  0  0  1  0  0  0  0  0  0
  1  6  1  6  0  0  0
  1 18  1  0  0  0  0
  2 19  1  6  0  0  0
  2 16  1  0  0  0  0
  2 13  1  0  0  0  0
  3 14  1  0  0  0  0
  4 10  1  0  0  0  0
  5 21  1  6  0  0  0
  5  6  1  0  0  0  0
  7  8  1  6  0  0  0
  7 11  1  0  0  0  0
  9  5  1  0  0  0  0
  9  7  1  0  0  0  0
 10 12  2  0  0  0  0
 11  1  1  0  0  0  0
 11 10  1  6  0  0  0
 14 13  1  0  0  0  0
 15 14  1  0  0  0  0
 15 17  1  0  0  0  0
 15 13  1  0  0  0  0
 16 18  1  0  0  0  0
 16  4  1  0  0  0  0
 17 18  1  0  0  0  0
 20 19  1  0  0  0  0
 22 21  1  0  0  0  0
 23 22  1  0  0  0  0
 24 27  1  0  0  0  0
 25 26  1  0  0  0  0
 26 23  1  0  0  0  0
 27 25  1  0  0  0  0
 27 26  1  0  0  0  0
 28 30  2  0  0  0  0
 29 25  1  0  0  0  0
 29 28  1  0  0  0  0
 31 28  1  0  0  0  0
 32 31  1  0  0  0  0
 33 32  1  0  0  0  0
 34 33  1  0  0  0  0
M  END
>  <MODEL>
5

>  <REMARK>
 VINA RESULT:      -3.1      3.592      9.254
  Name = 
  9 active torsions:
  status: ('A' for Active; 'I' for Inactive)
    1  A    between atoms: C_2  and  C_13
    2  A    between atoms: C_6  and  C_28
    3  A    between atoms: C_6  and  C_30
    4  A    between atoms: C_7  and  C_29
    5  A    between atoms: C_8  and  C_18
    6  A    between atoms: C_11  and  C_15
    7  A    between atoms: C_11  and  C_29
    8  A    between atoms: N_14  and  C_16
    9  A    between atoms: C_18  and  C_30
                            x       y       z     vdW  Elec       q    Type
                         _______ _______ _______ _____ _____    ______ ____

>  <TORSDO>
F 9

$$$$
=
 OpenBabel11062409493D

 34 38  0  0  1  0  0  0  0  0999 V2000
  160.3940  206.2090  148.2000 C   0  0  1  0  0  3  0  0  0  0  0  0
  160.9190  202.2620  148.1040 C   0  0  1  0  0  3  0  0  0  0  0  0
  161.3330  200.8140  151.1150 C   0  0  0  0  0  1  0  0  0  0  0  0
  160.8630  203.9790  146.2190 C   0  0  0  0  0  2  0  0  0  0  0  0
  162.1850  207.4040  149.5910 C   0  0  2  0  0  3  0  0  0  0  0  0
  160.6910  207.1630  149.3650 C   0  0  0  0  0  2  0  0  0  0  0  0
  162.6960  206.8200  147.1550 C   0  0  2  0  0  3  0  0  0  0  0  0
  163.5880  205.5980  147.3390 C   0  0  0  0  0  1  0  0  0  0  0  0
  162.8910  207.8190  148.2980 C   0  0  0  0  0  2  0  0  0  0  0  0
  161.0040  205.4350  145.8570 C   0  0  0  0  0  0  0  0  0  0  0  0
  161.2070  206.4940  146.9160 C   0  0  1  0  0  3  0  0  0  0  0  0
  160.9680  205.7620  144.6840 O   0  0  0  0  0  0  0  0  0  0  0  0
  160.0690  202.1060  149.3850 C   0  0  1  0  0  3  0  0  0  0  0  0
  160.2440  201.8400  150.8810 C   0  0  2  0  0  3  0  0  0  0  0  0
  160.8290  203.0820  150.3100 C   0  0  2  0  0  3  0  0  0  0  0  0
  161.0860  203.7570  147.7130 C   0  0  1  0  0  3  0  0  0  0  0  0
  160.0610  204.3690  150.0580 C   0  0  0  0  0  2  0  0  0  0  0  0
  160.1840  204.7190  148.5460 C   0  0  1  0  0  3  0  0  0  0  0  0
  162.2630  201.5440  148.1460 C   0  0  0  0  0  2  0  0  0  0  0  0
  162.0760  200.1850  147.9690 F   0  0  0  0  0  0  0  0  0  0  0  0
  162.8760  206.2290  150.2790 C   0  0  0  0  0  2  0  0  0  0  0  0
  163.0790  206.4810  151.7690 C   0  0  0  0  0  2  0  0  0  0  0  0
  161.8760  206.0180  152.5750 C   0  0  0  0  0  2  0  0  0  0  0  0
  161.2130  206.8820  155.0930 C   0  0  0  0  0  1  0  0  0  0  0  0
  161.4310  208.3270  153.2530 C   0  0  2  0  0  3  0  0  0  0  0  0
  160.8330  207.1360  152.6580 C   0  0  2  0  0  3  0  0  0  0  0  0
  160.4570  207.5550  154.0400 N   0  0  0  0  0  0  0  0  0  0  0  0
  160.8310  210.7750  153.4060 C   0  0  0  0  0  0  0  0  0  0  0  0
  160.7860  209.5190  152.7280 N   0  0  0  0  0  2  0  0  0  0  0  0
  161.5100  210.9090  154.4580 O   0  0  0  0  0  0  0  0  0  0  0  0
  160.0640  211.9350  152.8700 C   0  0  0  0  0  2  0  0  0  0  0  0
  158.5810  211.6100  152.7520 C   0  0  0  0  0  2  0  0  0  0  0  0
  157.7860  212.2340  153.8890 C   0  0  0  0  0  2  0  0  0  0  0  0
  157.8680  211.3710  155.1320 C   0  0  0  0  0  1  0  0  0  0  0  0
  1 18  1  0  0  0  0
  1  6  1  1  0  0  0
  2 19  1  1  0  0  0
  2 13  1  0  0  0  0
  4 16  1  0  0  0  0
  5 21  1  6  0  0  0
  6  5  1  0  0  0  0
  7  8  1  1  0  0  0
  7  9  1  0  0  0  0
  9  5  1  0  0  0  0
 10  4  1  0  0  0  0
 11 10  1  6  0  0  0
 11  7  1  0  0  0  0
 11  1  1  0  0  0  0
 12 10  2  0  0  0  0
 13 15  1  0  0  0  0
 13 14  1  0  0  0  0
 14  3  1  0  0  0  0
 15 14  1  0  0  0  0
 16  2  1  0  0  0  0
 16 18  1  0  0  0  0
 17 15  1  0  0  0  0
 18 17  1  0  0  0  0
 20 19  1  0  0  0  0
 21 22  1  0  0  0  0
 22 23  1  0  0  0  0
 23 26  1  0  0  0  0
 25 27  1  0  0  0  0
 26 25  1  0  0  0  0
 26 27  1  0  0  0  0
 27 24  1  0  0  0  0
 28 30  2  0  0  0  0
 29 25  1  0  0  0  0
 29 28  1  0  0  0  0
 31 28  1  0  0  0  0
 32 31  1  0  0  0  0
 32 33  1  0  0  0  0
 33 34  1  0  0  0  0
M  END
>  <MODEL>
6

>  <REMARK>
 VINA RESULT:      -2.9      2.004      3.458
  Name = 
  9 active torsions:
  status: ('A' for Active; 'I' for Inactive)
    1  A    between atoms: C_2  and  C_13
    2  A    between atoms: C_6  and  C_28
    3  A    between atoms: C_6  and  C_30
    4  A    between atoms: C_7  and  C_29
    5  A    between atoms: C_8  and  C_18
    6  A    between atoms: C_11  and  C_15
    7  A    between atoms: C_11  and  C_29
    8  A    between atoms: N_14  and  C_16
    9  A    between atoms: C_18  and  C_30
                            x       y       z     vdW  Elec       q    Type
                         _______ _______ _______ _____ _____    ______ ____

>  <TORSDO>
F 9

$$$$
=
 OpenBabel11062409493D

 34 38  0  0  1  0  0  0  0  0999 V2000
  160.2430  205.1900  147.5670 C   0  0  1  0  0  3  0  0  0  0  0  0
  161.2080  203.6190  151.0980 C   0  0  1  0  0  3  0  0  0  0  0  0
  161.7900  205.8660  153.5370 C   0  0  0  0  0  1  0  0  0  0  0  0
  160.9540  202.5290  148.8060 C   0  0  0  0  0  2  0  0  0  0  0  0
  161.8920  207.0020  146.8160 C   0  0  2  0  0  3  0  0  0  0  0  0
  160.4340  206.6420  147.1070 C   0  0  0  0  0  2  0  0  0  0  0  0
  162.4590  204.5510  146.3650 C   0  0  2  0  0  3  0  0  0  0  0  0
  163.4830  204.2910  147.4640 C   0  0  0  0  0  1  0  0  0  0  0  0
  162.5440  205.9940  145.8660 C   0  0  0  0  0  2  0  0  0  0  0  0
  160.9300  202.7550  147.3160 C   0  0  0  0  0  0  0  0  0  0  0  0
  161.0150  204.1460  146.7290 C   0  0  1  0  0  3  0  0  0  0  0  0
  160.8540  201.7950  146.5700 O   0  0  0  0  0  0  0  0  0  0  0  0
  160.3830  204.7090  151.8200 C   0  0  1  0  0  3  0  0  0  0  0  0
  160.5910  205.9960  152.6190 C   0  0  2  0  0  3  0  0  0  0  0  0
  161.0320  205.9660  151.1990 C   0  0  2  0  0  3  0  0  0  0  0  0
  161.2040  203.8340  149.5580 C   0  0  1  0  0  3  0  0  0  0  0  0
  160.1230  206.1920  150.0020 C   0  0  0  0  0  2  0  0  0  0  0  0
  160.2020  204.9340  149.0890 C   0  0  1  0  0  3  0  0  0  0  0  0
  162.6230  203.4390  151.6320 C   0  0  0  0  0  2  0  0  0  0  0  0
  162.8200  202.1230  152.0100 F   0  0  0  0  0  0  0  0  0  0  0  0
  162.7130  207.2180  148.0850 C   0  0  0  0  0  2  0  0  0  0  0  0
  162.2580  208.4540  148.8530 C   0  0  0  0  0  2  0  0  0  0  0  0
  162.4520  209.7170  148.0310 C   0  0  0  0  0  2  0  0  0  0  0  0
  163.6510  212.1830  147.9380 C   0  0  0  0  0  1  0  0  0  0  0  0
  161.3460  211.8610  147.6230 C   0  0  2  0  0  3  0  0  0  0  0  0
  161.6700  210.8780  148.6520 C   0  0  2  0  0  3  0  0  0  0  0  0
  162.3650  212.1980  148.6290 N   0  0  0  0  0  0  0  0  0  0  0  0
  159.0620  212.7420  147.0020 C   0  0  0  0  0  0  0  0  0  0  0  0
  160.1020  212.5350  147.9590 N   0  0  0  0  0  2  0  0  0  0  0  0
  159.1610  212.2700  145.8390 O   0  0  0  0  0  0  0  0  0  0  0  0
  157.8540  213.5290  147.3790 C   0  0  0  0  0  2  0  0  0  0  0  0
  157.1770  212.9460  148.6120 C   0  0  0  0  0  2  0  0  0  0  0  0
  157.2250  213.9180  149.7810 C   0  0  0  0  0  2  0  0  0  0  0  0
  158.1330  213.3920  150.8750 C   0  0  0  0  0  1  0  0  0  0  0  0
  1  6  1  1  0  0  0
  1 18  1  0  0  0  0
  2 19  1  1  0  0  0
  2 13  1  0  0  0  0
  4 16  1  0  0  0  0
  5  6  1  0  0  0  0
  5 21  1  1  0  0  0
  7 11  1  0  0  0  0
  7  8  1  1  0  0  0
  9  7  1  0  0  0  0
  9  5  1  0  0  0  0
 10  4  1  0  0  0  0
 11 10  1  1  0  0  0
 11  1  1  0  0  0  0
 12 10  2  0  0  0  0
 13 14  1  0  0  0  0
 14  3  1  0  0  0  0
 15 13  1  0  0  0  0
 15 14  1  0  0  0  0
 16  2  1  0  0  0  0
 17 15  1  0  0  0  0
 18 16  1  0  0  0  0
 18 17  1  0  0  0  0
 19 20  1  0  0  0  0
 21 22  1  0  0  0  0
 23 26  1  0  0  0  0
 23 22  1  0  0  0  0
 24 27  1  0  0  0  0
 25 29  1  0  0  0  0
 25 27  1  0  0  0  0
 25 26  1  0  0  0  0
 27 26  1  0  0  0  0
 28 31  1  0  0  0  0
 28 29  1  0  0  0  0
 30 28  2  0  0  0  0
 31 32  1  0  0  0  0
 32 33  1  0  0  0  0
 33 34  1  0  0  0  0
M  END
>  <MODEL>
7

>  <REMARK>
 VINA RESULT:      -2.9      2.709      4.091
  Name = 
  9 active torsions:
  status: ('A' for Active; 'I' for Inactive)
    1  A    between atoms: C_2  and  C_13
    2  A    between atoms: C_6  and  C_28
    3  A    between atoms: C_6  and  C_30
    4  A    between atoms: C_7  and  C_29
    5  A    between atoms: C_8  and  C_18
    6  A    between atoms: C_11  and  C_15
    7  A    between atoms: C_11  and  C_29
    8  A    between atoms: N_14  and  C_16
    9  A    between atoms: C_18  and  C_30
                            x       y       z     vdW  Elec       q    Type
                         _______ _______ _______ _____ _____    ______ ____

>  <TORSDO>
F 9

$$$$
=
 OpenBabel11062409493D

 34 38  0  0  1  0  0  0  0  0999 V2000
  162.2400  202.1920  148.8230 C   0  0  1  0  0  3  0  0  0  0  0  0
  160.9390  203.2960  145.2240 C   0  0  1  0  0  3  0  0  0  0  0  0
  160.4520  206.6060  144.8480 C   0  0  0  0  0  1  0  0  0  0  0  0
  161.2050  200.9800  146.2580 C   0  0  0  0  0  2  0  0  0  0  0  0
  160.8200  203.1650  150.7220 C   0  0  2  0  0  3  0  0  0  0  0  0
  162.2180  203.0150  150.1190 C   0  0  0  0  0  2  0  0  0  0  0  0
  160.0390  201.0230  149.5670 C   0  0  2  0  0  3  0  0  0  0  0  0
  158.9370  201.5720  148.6680 C   0  0  0  0  0  1  0  0  0  0  0  0
  160.1230  201.8110  150.8750 C   0  0  0  0  0  2  0  0  0  0  0  0
  161.3310  200.1950  147.5390 C   0  0  0  0  0  0  0  0  0  0  0  0
  161.4140  200.8860  148.8810 C   0  0  1  0  0  3  0  0  0  0  0  0
  161.3510  198.9780  147.4910 O   0  0  0  0  0  0  0  0  0  0  0  0
  161.8270  204.5600  145.2790 C   0  0  1  0  0  3  0  0  0  0  0  0
  161.7050  206.0670  145.5080 C   0  0  2  0  0  3  0  0  0  0  0  0
  161.3390  205.1500  146.6210 C   0  0  2  0  0  3  0  0  0  0  0  0
  161.0460  202.4720  146.5390 C   0  0  1  0  0  3  0  0  0  0  0  0
  162.3280  204.5170  147.5860 C   0  0  0  0  0  2  0  0  0  0  0  0
  162.1740  202.9710  147.4930 C   0  0  1  0  0  3  0  0  0  0  0  0
  159.4860  203.5600  144.8480 C   0  0  0  0  0  2  0  0  0  0  0  0
  158.9810  202.4870  144.1370 F   0  0  0  0  0  0  0  0  0  0  0  0
  159.9580  204.1800  149.9740 C   0  0  0  0  0  2  0  0  0  0  0  0
  160.5680  205.5770  150.0040 C   0  0  0  0  0  2  0  0  0  0  0  0
  160.9690  205.9730  151.4160 C   0  0  0  0  0  2  0  0  0  0  0  0
  161.4390  206.9240  153.9460 C   0  0  0  0  0  1  0  0  0  0  0  0
  161.9580  208.1330  152.0000 C   0  0  2  0  0  3  0  0  0  0  0  0
  160.7110  207.4650  151.6400 C   0  0  2  0  0  3  0  0  0  0  0  0
  160.9300  207.9460  153.0360 N   0  0  0  0  0  0  0  0  0  0  0  0
  162.0580  209.8630  150.1630 C   0  0  0  0  0  0  0  0  0  0  0  0
  161.9290  209.5120  151.5410 N   0  0  0  0  0  2  0  0  0  0  0  0
  162.1220  208.9680  149.2790 O   0  0  0  0  0  0  0  0  0  0  0  0
  162.1230  211.2980  149.7650 C   0  0  0  0  0  2  0  0  0  0  0  0
  161.9550  211.4630  148.2610 C   0  0  0  0  0  2  0  0  0  0  0  0
  162.7130  212.6800  147.7510 C   0  0  0  0  0  2  0  0  0  0  0  0
  162.0510  213.2380  146.5070 C   0  0  0  0  0  1  0  0  0  0  0  0
  1 11  1  0  0  0  0
  1  6  1  1  0  0  0
  2 19  1  1  0  0  0
  2 13  1  0  0  0  0
  2 16  1  0  0  0  0
  3 14  1  0  0  0  0
  4 16  1  0  0  0  0
  4 10  1  0  0  0  0
  5 21  1  6  0  0  0
  5  9  1  0  0  0  0
  6  5  1  0  0  0  0
  7  8  1  6  0  0  0
  7  9  1  0  0  0  0
 11 10  1  6  0  0  0
 11  7  1  0  0  0  0
 12 10  2  0  0  0  0
 13 14  1  0  0  0  0
 13 15  1  0  0  0  0
 14 15  1  0  0  0  0
 15 17  1  0  0  0  0
 16 18  1  0  0  0  0
 18 17  1  0  0  0  0
 18  1  1  0  0  0  0
 20 19  1  0  0  0  0
 21 22  1  0  0  0  0
 22 23  1  0  0  0  0
 23 26  1  0  0  0  0
 25 27  1  0  0  0  0
 26 25  1  0  0  0  0
 26 27  1  0  0  0  0
 27 24  1  0  0  0  0
 28 29  1  0  0  0  0
 29 25  1  0  0  0  0
 30 28  2  0  0  0  0
 31 28  1  0  0  0  0
 32 31  1  0  0  0  0
 33 32  1  0  0  0  0
 34 33  1  0  0  0  0
M  END
>  <MODEL>
8

>  <REMARK>
 VINA RESULT:      -2.5      2.388      5.578
  Name = 
  9 active torsions:
  status: ('A' for Active; 'I' for Inactive)
    1  A    between atoms: C_2  and  C_13
    2  A    between atoms: C_6  and  C_28
    3  A    between atoms: C_6  and  C_30
    4  A    between atoms: C_7  and  C_29
    5  A    between atoms: C_8  and  C_18
    6  A    between atoms: C_11  and  C_15
    7  A    between atoms: C_11  and  C_29
    8  A    between atoms: N_14  and  C_16
    9  A    between atoms: C_18  and  C_30
                            x       y       z     vdW  Elec       q    Type
                         _______ _______ _______ _____ _____    ______ ____

>  <TORSDO>
F 9

$$$$
=
 OpenBabel11062409493D

 34 38  0  0  1  0  0  0  0  0999 V2000
  161.3540  214.2940  147.4340 C   0  0  1  0  0  3  0  0  0  0  0  0
  157.4840  213.7660  148.2170 C   0  0  1  0  0  3  0  0  0  0  0  0
  156.7810  212.9810  151.4150 C   0  0  0  0  0  1  0  0  0  0  0  0
  158.7070  214.0590  145.9990 C   0  0  0  0  0  2  0  0  0  0  0  0
  162.8000  212.3530  148.2760 C   0  0  2  0  0  3  0  0  0  0  0  0
  162.5490  213.8620  148.2940 C   0  0  0  0  0  2  0  0  0  0  0  0
  161.6440  212.1390  146.0060 C   0  0  2  0  0  3  0  0  0  0  0  0
  160.4780  211.2260  146.3680 C   0  0  0  0  0  1  0  0  0  0  0  0
  162.8790  211.8110  146.8460 C   0  0  0  0  0  2  0  0  0  0  0  0
  160.0320  213.9700  145.2860 C   0  0  0  0  0  0  0  0  0  0  0  0
  161.3070  213.6450  146.0310 C   0  0  1  0  0  3  0  0  0  0  0  0
  160.0730  214.1500  144.0820 O   0  0  0  0  0  0  0  0  0  0  0  0
  157.6580  214.4530  149.5910 C   0  0  1  0  0  3  0  0  0  0  0  0
  157.7490  214.0960  151.0750 C   0  0  2  0  0  3  0  0  0  0  0  0
  158.8060  213.5900  150.1590 C   0  0  2  0  0  3  0  0  0  0  0  0
  158.8400  213.6550  147.4650 C   0  0  1  0  0  3  0  0  0  0  0  0
  160.0150  214.3900  149.7020 C   0  0  0  0  0  2  0  0  0  0  0  0
  159.9940  214.4530  148.1470 C   0  0  1  0  0  3  0  0  0  0  0  0
  156.7640  212.4240  148.2680 C   0  0  0  0  0  2  0  0  0  0  0  0
  157.0430  211.6970  147.1250 F   0  0  0  0  0  0  0  0  0  0  0  0
  161.8050  211.5770  149.1360 C   0  0  0  0  0  2  0  0  0  0  0  0
  162.4930  210.5120  149.9830 C   0  0  0  0  0  2  0  0  0  0  0  0
  161.4920  209.5060  150.5240 C   0  0  0  0  0  2  0  0  0  0  0  0
  161.7150  208.2000  152.9260 C   0  0  0  0  0  1  0  0  0  0  0  0
  161.0880  207.1280  150.9330 C   0  0  2  0  0  3  0  0  0  0  0  0
  162.0820  208.0940  150.4790 C   0  0  2  0  0  3  0  0  0  0  0  0
  162.2350  207.4260  151.8040 N   0  0  0  0  0  0  0  0  0  0  0  0
  161.2460  205.7000  148.8560 C   0  0  0  0  0  0  0  0  0  0  0  0
  161.3050  205.8500  150.2750 N   0  0  0  0  0  2  0  0  0  0  0  0
  161.0780  206.7030  148.1140 O   0  0  0  0  0  0  0  0  0  0  0  0
  161.3760  204.3450  148.2480 C   0  0  0  0  0  2  0  0  0  0  0  0
  160.9560  203.2560  149.2260 C   0  0  0  0  0  2  0  0  0  0  0  0
  160.4780  202.0110  148.4950 C   0  0  0  0  0  2  0  0  0  0  0  0
  161.1890  200.7790  149.0170 C   0  0  0  0  0  1  0  0  0  0  0  0
  1 18  1  0  0  0  0
  1  6  1  1  0  0  0
  2 19  1  1  0  0  0
  2 13  1  0  0  0  0
  4 16  1  0  0  0  0
  5  6  1  0  0  0  0
  5 21  1  1  0  0  0
  7 11  1  0  0  0  0
  7  8  1  1  0  0  0
  7  9  1  0  0  0  0
  9  5  1  0  0  0  0
 10  4  1  0  0  0  0
 11 10  1  1  0  0  0
 11  1  1  0  0  0  0
 12 10  2  0  0  0  0
 13 15  1  0  0  0  0
 13 14  1  0  0  0  0
 14  3  1  0  0  0  0
 15 14  1  0  0  0  0
 16 18  1  0  0  0  0
 16  2  1  0  0  0  0
 17 15  1  0  0  0  0
 18 17  1  0  0  0  0
 20 19  1  0  0  0  0
 21 22  1  0  0  0  0
 22 23  1  0  0  0  0
 25 27  1  0  0  0  0
 26 23  1  0  0  0  0
 26 25  1  0  0  0  0
 26 27  1  0  0  0  0
 27 24  1  0  0  0  0
 28 29  1  0  0  0  0
 29 25  1  0  0  0  0
 30 28  2  0  0  0  0
 31 28  1  0  0  0  0
 31 32  1  0  0  0  0
 33 34  1  0  0  0  0
 33 32  1  0  0  0  0
M  END
>  <MODEL>
9

>  <REMARK>
 VINA RESULT:      -2.4      4.569      8.584
  Name = 
  9 active torsions:
  status: ('A' for Active; 'I' for Inactive)
    1  A    between atoms: C_2  and  C_13
    2  A    between atoms: C_6  and  C_28
    3  A    between atoms: C_6  and  C_30
    4  A    between atoms: C_7  and  C_29
    5  A    between atoms: C_8  and  C_18
    6  A    between atoms: C_11  and  C_15
    7  A    between atoms: C_11  and  C_29
    8  A    between atoms: N_14  and  C_16
    9  A    between atoms: C_18  and  C_30
                            x       y       z     vdW  Elec       q    Type
                         _______ _______ _______ _____ _____    ______ ____

>  <TORSDO>
F 9

$$$$
