=
 OpenBabel11062407453D

 34 38  0  0  1  0  0  0  0  0999 V2000
  161.1620  204.8190  151.5140 C   0  0  0  0  0  0  0  0  0  0  0  0
  160.8710  206.3060  149.5780 C   0  0  0  0  0  0  0  0  0  0  0  0
  161.1440  207.2240  151.9580 C   0  0  0  0  0  0  0  0  0  0  0  0
  161.0520  209.8430  152.1200 C   0  0  2  0  0  0  0  0  0  0  0  0
  161.3680  204.0150  149.1350 C   0  0  0  0  0  3  0  0  0  0  0  0
  163.0170  210.6840  156.1130 C   0  0  0  0  0  3  0  0  0  0  0  0
  161.7560  210.2510  155.5930 N   0  0  0  0  0  0  0  0  0  0  0  0
  161.1930  205.2250  148.6990 N   0  0  0  0  0  0  0  0  0  0  0  0
  162.3430  208.8200  150.3700 C   0  0  0  0  0  2  0  0  0  0  0  0
  161.1480  207.8720  155.7120 C   0  0  0  0  0  2  0  0  0  0  0  0
  161.0780  206.1410  151.0350 C   0  0  0  0  0  0  0  0  0  0  0  0
  161.2580  210.8210  154.4080 N   0  0  0  0  0  2  0  0  0  0  0  0
  161.2410  210.8840  151.0370 C   0  0  0  0  0  2  0  0  0  0  0  0
  161.1420  203.6410  150.5760 C   0  0  0  0  0  2  0  0  0  0  0  0
  161.0430  206.9120  153.3360 C   0  0  0  0  0  0  0  0  0  0  0  0
  160.9540  209.2600  156.3120 C   0  0  0  0  0  2  0  0  0  0  0  0
  161.1630  204.5780  152.8480 N   0  0  0  0  0  0  0  0  0  0  0  0
  160.3550  207.3510  149.1050 O   0  0  0  0  0  0  0  0  0  0  0  0
  159.7040  209.7890  152.4910 O   0  0  0  0  0  1  0  0  0  0  0  0
  161.9810  210.2170  153.2900 C   0  0  0  0  0  2  0  0  0  0  0  0
  160.8460  207.9410  154.2960 N   0  0  0  0  0  2  0  0  0  0  0  0
  162.3470  210.3250  150.1550 C   0  0  2  0  0  3  0  0  0  0  0  0
  163.4780  210.2020  157.1820 O   0  0  0  0  0  0  0  0  0  0  0  0
  161.4700  208.5760  151.5100 N   0  0  0  0  0  0  0  0  0  0  0  0
  161.0830  205.5800  153.7540 C   0  0  0  0  0  3  0  0  0  0  0  0
  162.1740  210.7020  148.6860 C   0  0  0  0  0  2  0  0  0  0  0  0
  162.2400  212.2070  148.4550 C   0  0  0  0  0  2  0  0  0  0  0  0
  160.6530  214.0420  149.9620 F   0  0  0  0  0  0  0  0  0  0  0  0
  160.9200  212.7140  147.9840 C   0  0  0  0  0  0  0  0  0  0  0  0
  160.1760  213.6100  148.7680 C   0  0  0  0  0  0  0  0  0  0  0  0
  158.4260  213.6240  147.0920 C   0  0  0  0  0  3  0  0  0  0  0  0
  159.1650  212.7290  146.3120 C   0  0  0  0  0  3  0  0  0  0  0  0
  160.4090  212.2740  146.7580 C   0  0  0  0  0  3  0  0  0  0  0  0
  158.9320  214.0630  148.3190 C   0  0  0  0  0  3  0  0  0  0  0  0
  1 17  1  0  0  0  0
  2 11  1  0  0  0  0
  3 15  2  0  0  0  0
  4 19  1  1  0  0  0
  4 20  1  0  0  0  0
  5 14  1  0  0  0  0
  6 23  2  0  0  0  0
  7  6  1  0  0  0  0
  7 16  1  0  0  0  0
  8  5  2  0  0  0  0
  8  2  1  0  0  0  0
  9 24  1  0  0  0  0
 10 16  1  0  0  0  0
 11  1  2  0  0  0  0
 11  3  1  0  0  0  0
 12  7  1  0  0  0  0
 13  4  1  0  0  0  0
 14  1  1  0  0  0  0
 15 25  1  0  0  0  0
 15 21  1  0  0  0  0
 17 25  2  0  0  0  0
 18  2  2  0  0  0  0
 20 12  1  0  0  0  0
 21 10  1  0  0  0  0
 22 26  1  6  0  0  0
 22  9  1  0  0  0  0
 22 13  1  0  0  0  0
 24  3  1  0  0  0  0
 24  4  1  0  0  0  0
 27 26  1  0  0  0  0
 29 27  1  0  0  0  0
 29 30  1  0  0  0  0
 30 28  1  0  0  0  0
 31 34  1  0  0  0  0
 32 33  1  0  0  0  0
 32 31  2  0  0  0  0
 33 29  2  0  0  0  0
 34 30  2  0  0  0  0
M  END
>  <MODEL>
1

>  <REMARK>
 VINA RESULT:      -8.7      0.000      0.000
  Name = 
  3 active torsions:
  status: ('A' for Active; 'I' for Inactive)
    1  A    between atoms: C_3  and  C_13
    2  A    between atoms: C_3  and  C_17
    3  A    between atoms: C_17  and  C_29
                            x       y       z     vdW  Elec       q    Type
                         _______ _______ _______ _____ _____    ______ ____

>  <TORSDO>
F 3

$$$$
=
 OpenBabel11062407453D

 34 38  0  0  1  0  0  0  0  0999 V2000
  160.5100  212.8600  149.9610 C   0  0  0  0  0  0  0  0  0  0  0  0
  161.9690  210.9050  150.2690 C   0  0  0  0  0  0  0  0  0  0  0  0
  160.4030  211.7280  152.1280 C   0  0  0  0  0  0  0  0  0  0  0  0
  160.5350  210.3310  154.3460 C   0  0  2  0  0  0  0  0  0  0  0  0
  161.6950  211.7300  148.0470 C   0  0  0  0  0  3  0  0  0  0  0  0
  156.6510  211.3670  156.4320 C   0  0  0  0  0  3  0  0  0  0  0  0
  157.9480  211.9290  156.2120 N   0  0  0  0  0  0  0  0  0  0  0  0
  162.1620  210.8270  148.8550 N   0  0  0  0  0  0  0  0  0  0  0  0
  160.4610  209.1800  152.2360 C   0  0  0  0  0  2  0  0  0  0  0  0
  158.2300  213.7140  154.5470 C   0  0  0  0  0  2  0  0  0  0  0  0
  160.9350  211.8190  150.8090 C   0  0  0  0  0  0  0  0  0  0  0  0
  159.0800  211.0950  156.2260 N   0  0  0  0  0  2  0  0  0  0  0  0
  161.0790  208.9370  154.5770 C   0  0  0  0  0  2  0  0  0  0  0  0
  161.0080  212.9730  148.5450 C   0  0  0  0  0  2  0  0  0  0  0  0
  159.6560  212.8340  152.6050 C   0  0  0  0  0  0  0  0  0  0  0  0
  158.1160  213.3710  156.0280 C   0  0  0  0  0  2  0  0  0  0  0  0
  159.7100  213.8440  150.4420 N   0  0  0  0  0  0  0  0  0  0  0  0
  162.7240  210.2490  151.0310 O   0  0  0  0  0  0  0  0  0  0  0  0
  161.4010  211.2740  154.9090 O   0  0  0  0  0  1  0  0  0  0  0  0
  159.1190  210.3820  154.9500 C   0  0  0  0  0  2  0  0  0  0  0  0
  159.3110  212.9310  153.9800 N   0  0  0  0  0  2  0  0  0  0  0  0
  160.6720  208.1540  153.3380 C   0  0  2  0  0  3  0  0  0  0  0  0
  155.6230  212.0950  156.4420 O   0  0  0  0  0  0  0  0  0  0  0  0
  160.4810  210.4840  152.8880 N   0  0  0  0  0  0  0  0  0  0  0  0
  159.3000  213.8640  151.7320 C   0  0  0  0  0  3  0  0  0  0  0  0
  161.6980  207.0910  152.9520 C   0  0  0  0  0  2  0  0  0  0  0  0
  161.1340  205.6770  153.0270 C   0  0  0  0  0  2  0  0  0  0  0  0
  160.6850  202.8930  152.5710 F   0  0  0  0  0  0  0  0  0  0  0  0
  161.0530  205.0820  151.6630 C   0  0  0  0  0  0  0  0  0  0  0  0
  160.8390  203.7050  151.4950 C   0  0  0  0  0  0  0  0  0  0  0  0
  160.9410  203.9830  149.0900 C   0  0  0  0  0  3  0  0  0  0  0  0
  161.1590  205.3540  149.2570 C   0  0  0  0  0  3  0  0  0  0  0  0
  161.2170  205.9020  150.5420 C   0  0  0  0  0  3  0  0  0  0  0  0
  160.7820  203.1600  150.2080 C   0  0  0  0  0  3  0  0  0  0  0  0
  1 17  2  0  0  0  0
  1 11  1  0  0  0  0
  2 11  1  0  0  0  0
  2 18  2  0  0  0  0
  3 15  1  0  0  0  0
  3 24  1  0  0  0  0
  4 13  1  0  0  0  0
  4 19  1  1  0  0  0
  4 20  1  0  0  0  0
  5 14  1  0  0  0  0
  5  8  2  0  0  0  0
  6 23  2  0  0  0  0
  7 12  1  0  0  0  0
  7  6  1  0  0  0  0
  8  2  1  0  0  0  0
  9 24  1  0  0  0  0
  9 22  1  0  0  0  0
 10 16  1  0  0  0  0
 11  3  2  0  0  0  0
 14  1  1  0  0  0  0
 15 21  1  0  0  0  0
 16  7  1  0  0  0  0
 17 25  1  0  0  0  0
 20 12  1  0  0  0  0
 21 10  1  0  0  0  0
 22 26  1  6  0  0  0
 22 13  1  0  0  0  0
 24  4  1  0  0  0  0
 25 15  2  0  0  0  0
 26 27  1  0  0  0  0
 29 27  1  0  0  0  0
 30 29  1  0  0  0  0
 30 28  1  0  0  0  0
 31 32  2  0  0  0  0
 31 34  1  0  0  0  0
 32 33  1  0  0  0  0
 33 29  2  0  0  0  0
 34 30  2  0  0  0  0
M  END
>  <MODEL>
2

>  <REMARK>
 VINA RESULT:      -8.7      3.370      6.890
  Name = 
  3 active torsions:
  status: ('A' for Active; 'I' for Inactive)
    1  A    between atoms: C_3  and  C_13
    2  A    between atoms: C_3  and  C_17
    3  A    between atoms: C_17  and  C_29
                            x       y       z     vdW  Elec       q    Type
                         _______ _______ _______ _____ _____    ______ ____

>  <TORSDO>
F 3

$$$$
=
 OpenBabel11062407453D

 34 38  0  0  1  0  0  0  0  0999 V2000
  161.1020  211.4250  150.1080 C   0  0  0  0  0  0  0  0  0  0  0  0
  162.2100  209.2810  150.5760 C   0  0  0  0  0  0  0  0  0  0  0  0
  160.8960  210.5450  152.3810 C   0  0  0  0  0  0  0  0  0  0  0  0
  160.8810  209.3670  154.7270 C   0  0  2  0  0  0  0  0  0  0  0  0
  161.9850  209.9220  148.2890 C   0  0  0  0  0  3  0  0  0  0  0  0
  157.3340  211.2760  156.7990 C   0  0  0  0  0  3  0  0  0  0  0  0
  158.6990  211.5740  156.4870 N   0  0  0  0  0  0  0  0  0  0  0  0
  162.3240  209.0330  149.1730 N   0  0  0  0  0  0  0  0  0  0  0  0
  160.5140  208.0500  152.7500 C   0  0  0  0  0  2  0  0  0  0  0  0
  159.2140  213.1100  154.6400 C   0  0  0  0  0  2  0  0  0  0  0  0
  161.3770  210.4110  151.0460 C   0  0  0  0  0  0  0  0  0  0  0  0
  159.6670  210.5560  156.5570 N   0  0  0  0  0  2  0  0  0  0  0  0
  161.1840  207.9280  155.0860 C   0  0  0  0  0  2  0  0  0  0  0  0
  161.5490  211.3100  148.6740 C   0  0  0  0  0  2  0  0  0  0  0  0
  160.3760  211.8070  152.7620 C   0  0  0  0  0  0  0  0  0  0  0  0
  159.1070  212.9380  156.1510 C   0  0  0  0  0  2  0  0  0  0  0  0
  160.5090  212.5770  150.5050 N   0  0  0  0  0  0  0  0  0  0  0  0
  162.8730  208.5770  151.3810 O   0  0  0  0  0  0  0  0  0  0  0  0
  161.9230  210.1910  155.1660 O   0  0  0  0  0  1  0  0  0  0  0  0
  159.5240  209.7280  155.3610 C   0  0  0  0  0  2  0  0  0  0  0  0
  160.1150  212.0960  154.1280 N   0  0  0  0  0  2  0  0  0  0  0  0
  160.5910  207.1140  153.9450 C   0  0  2  0  0  3  0  0  0  0  0  0
  156.4500  212.1730  156.7610 O   0  0  0  0  0  0  0  0  0  0  0  0
  160.7900  209.3860  153.2630 N   0  0  0  0  0  0  0  0  0  0  0  0
  160.1670  212.7950  151.7970 C   0  0  0  0  0  3  0  0  0  0  0  0
  161.3970  205.8530  153.6440 C   0  0  0  0  0  2  0  0  0  0  0  0
  161.9600  205.8400  152.2280 C   0  0  0  0  0  2  0  0  0  0  0  0
  160.8340  205.8910  149.6030 F   0  0  0  0  0  0  0  0  0  0  0  0
  161.5200  204.6100  151.5110 C   0  0  0  0  0  0  0  0  0  0  0  0
  160.9660  204.6920  150.2230 C   0  0  0  0  0  0  0  0  0  0  0  0
  160.6710  202.2860  150.1990 C   0  0  0  0  0  3  0  0  0  0  0  0
  161.2190  202.2050  151.4820 C   0  0  0  0  0  3  0  0  0  0  0  0
  161.6420  203.3650  152.1370 C   0  0  0  0  0  3  0  0  0  0  0  0
  160.5440  203.5290  149.5710 C   0  0  0  0  0  3  0  0  0  0  0  0
  1 17  2  0  0  0  0
  1 11  1  0  0  0  0
  2 11  1  0  0  0  0
  2 18  2  0  0  0  0
  3 15  1  0  0  0  0
  3 24  1  0  0  0  0
  4 13  1  0  0  0  0
  4 19  1  1  0  0  0
  4 20  1  0  0  0  0
  5 14  1  0  0  0  0
  5  8  2  0  0  0  0
  7 12  1  0  0  0  0
  7  6  1  0  0  0  0
  8  2  1  0  0  0  0
  9 24  1  0  0  0  0
  9 22  1  0  0  0  0
 10 16  1  0  0  0  0
 11  3  2  0  0  0  0
 14  1  1  0  0  0  0
 15 21  1  0  0  0  0
 16  7  1  0  0  0  0
 17 25  1  0  0  0  0
 20 12  1  0  0  0  0
 21 10  1  0  0  0  0
 22 26  1  6  0  0  0
 22 13  1  0  0  0  0
 23  6  2  0  0  0  0
 24  4  1  0  0  0  0
 25 15  2  0  0  0  0
 27 26  1  0  0  0  0
 28 30  1  0  0  0  0
 29 33  1  0  0  0  0
 29 27  1  0  0  0  0
 30 29  2  0  0  0  0
 31 32  1  0  0  0  0
 32 33  2  0  0  0  0
 34 31  2  0  0  0  0
 34 30  1  0  0  0  0
M  END
>  <MODEL>
3

>  <REMARK>
 VINA RESULT:      -7.4      2.738      6.589
  Name = 
  3 active torsions:
  status: ('A' for Active; 'I' for Inactive)
    1  A    between atoms: C_3  and  C_13
    2  A    between atoms: C_3  and  C_17
    3  A    between atoms: C_17  and  C_29
                            x       y       z     vdW  Elec       q    Type
                         _______ _______ _______ _____ _____    ______ ____

>  <TORSDO>
F 3

$$$$
=
 OpenBabel11062407453D

 34 38  0  0  1  0  0  0  0  0999 V2000
  161.2910  205.5230  149.3910 C   0  0  0  0  0  0  0  0  0  0  0  0
  161.7030  205.5120  151.8150 C   0  0  0  0  0  0  0  0  0  0  0  0
  161.5180  207.6980  150.4860 C   0  0  0  0  0  0  0  0  0  0  0  0
  161.8370  209.8670  151.9300 C   0  0  2  0  0  0  0  0  0  0  0  0
  161.0090  203.4610  150.8120 C   0  0  0  0  0  3  0  0  0  0  0  0
  159.9640  213.0880  149.3550 C   0  0  0  0  0  3  0  0  0  0  0  0
  161.1810  212.3410  149.4440 N   0  0  0  0  0  0  0  0  0  0  0  0
  161.2860  204.1460  151.8800 N   0  0  0  0  0  0  0  0  0  0  0  0
  160.4560  208.0890  152.7730 C   0  0  0  0  0  2  0  0  0  0  0  0
  161.5810  210.4830  147.8860 C   0  0  0  0  0  2  0  0  0  0  0  0
  161.4870  206.2760  150.5650 C   0  0  0  0  0  0  0  0  0  0  0  0
  161.7240  212.0410  150.7070 N   0  0  0  0  0  2  0  0  0  0  0  0
  161.7350  210.0520  153.4290 C   0  0  0  0  0  2  0  0  0  0  0  0
  161.2050  204.0200  149.4280 C   0  0  0  0  0  2  0  0  0  0  0  0
  161.5950  208.2770  149.1950 C   0  0  0  0  0  0  0  0  0  0  0  0
  161.8970  211.9330  148.2350 C   0  0  0  0  0  2  0  0  0  0  0  0
  161.2720  206.1380  148.1830 N   0  0  0  0  0  0  0  0  0  0  0  0
  162.3060  206.0180  152.7960 O   0  0  0  0  0  0  0  0  0  0  0  0
  163.1760  209.9540  151.5350 O   0  0  0  0  0  1  0  0  0  0  0  0
  160.9470  210.9370  151.2700 C   0  0  0  0  0  2  0  0  0  0  0  0
  161.8840  209.6590  149.0410 N   0  0  0  0  0  2  0  0  0  0  0  0
  160.5820  209.1540  153.8510 C   0  0  2  0  0  3  0  0  0  0  0  0
  159.4660  213.3840  148.2360 O   0  0  0  0  0  0  0  0  0  0  0  0
  161.3080  208.5230  151.6730 N   0  0  0  0  0  0  0  0  0  0  0  0
  161.4420  207.4760  148.0610 C   0  0  0  0  0  3  0  0  0  0  0  0
  160.7830  208.5520  155.2400 C   0  0  0  0  0  2  0  0  0  0  0  0
  159.7000  208.9760  156.2250 C   0  0  0  0  0  2  0  0  0  0  0  0
  157.6410  210.6900  155.2320 F   0  0  0  0  0  0  0  0  0  0  0  0
  159.7200  210.4550  156.4060 C   0  0  0  0  0  0  0  0  0  0  0  0
  158.6850  211.2530  155.8910 C   0  0  0  0  0  0  0  0  0  0  0  0
  159.7980  213.2360  156.7290 C   0  0  0  0  0  3  0  0  0  0  0  0
  160.8300  212.4420  157.2390 C   0  0  0  0  0  3  0  0  0  0  0  0
  160.7920  211.0550  157.0750 C   0  0  0  0  0  3  0  0  0  0  0  0
  158.7270  212.6410  156.0550 C   0  0  0  0  0  3  0  0  0  0  0  0
  1 14  1  0  0  0  0
  1 11  1  0  0  0  0
  2  8  1  0  0  0  0
  2 18  2  0  0  0  0
  3 11  2  0  0  0  0
  3 24  1  0  0  0  0
  4 19  1  6  0  0  0
  4 13  1  0  0  0  0
  5  8  2  0  0  0  0
  6  7  1  0  0  0  0
  7 12  1  0  0  0  0
  9 22  1  0  0  0  0
 10 16  1  0  0  0  0
 10 21  1  0  0  0  0
 11  2  1  0  0  0  0
 12 20  1  0  0  0  0
 13 22  1  0  0  0  0
 14  5  1  0  0  0  0
 15  3  1  0  0  0  0
 16  7  1  0  0  0  0
 17  1  2  0  0  0  0
 20  4  1  0  0  0  0
 21 15  1  0  0  0  0
 22 26  1  1  0  0  0
 23  6  2  0  0  0  0
 24  4  1  0  0  0  0
 24  9  1  0  0  0  0
 25 17  1  0  0  0  0
 25 15  2  0  0  0  0
 26 27  1  0  0  0  0
 27 29  1  0  0  0  0
 28 30  1  0  0  0  0
 29 33  1  0  0  0  0
 30 34  1  0  0  0  0
 30 29  2  0  0  0  0
 31 32  1  0  0  0  0
 33 32  2  0  0  0  0
 34 31  2  0  0  0  0
M  END
>  <MODEL>
4

>  <REMARK>
 VINA RESULT:      -6.4      2.614      6.134
  Name = 
  3 active torsions:
  status: ('A' for Active; 'I' for Inactive)
    1  A    between atoms: C_3  and  C_13
    2  A    between atoms: C_3  and  C_17
    3  A    between atoms: C_17  and  C_29
                            x       y       z     vdW  Elec       q    Type
                         _______ _______ _______ _____ _____    ______ ____

>  <TORSDO>
F 3

$$$$
=
 OpenBabel11062407453D

 34 38  0  0  1  0  0  0  0  0999 V2000
  160.9180  204.2180  151.9760 C   0  0  0  0  0  0  0  0  0  0  0  0
  162.0640  206.3910  151.8740 C   0  0  0  0  0  0  0  0  0  0  0  0
  161.4990  205.0610  149.7540 C   0  0  0  0  0  0  0  0  0  0  0  0
  162.2760  206.2060  147.5240 C   0  0  2  0  0  0  0  0  0  0  0  0
  161.0690  205.7730  153.9520 C   0  0  0  0  0  3  0  0  0  0  0  0
  159.7310  204.1570  144.3880 C   0  0  0  0  0  3  0  0  0  0  0  0
  160.9070  203.9070  145.1640 N   0  0  0  0  0  0  0  0  0  0  0  0
  161.6720  206.6610  153.2220 N   0  0  0  0  0  0  0  0  0  0  0  0
  161.2060  207.5370  149.2160 C   0  0  0  0  0  2  0  0  0  0  0  0
  160.7810  202.4120  147.1110 C   0  0  0  0  0  2  0  0  0  0  0  0
  161.4780  205.2270  151.1690 C   0  0  0  0  0  0  0  0  0  0  0  0
  161.8120  204.9540  145.4140 N   0  0  0  0  0  2  0  0  0  0  0  0
  162.6480  207.6490  147.2600 C   0  0  0  0  0  2  0  0  0  0  0  0
  160.8310  204.3660  153.4720 C   0  0  0  0  0  2  0  0  0  0  0  0
  161.1770  203.7780  149.2460 C   0  0  0  0  0  0  0  0  0  0  0  0
  161.2060  202.5620  145.6540 C   0  0  0  0  0  2  0  0  0  0  0  0
  160.5310  203.0420  151.4230 N   0  0  0  0  0  0  0  0  0  0  0  0
  162.9480  207.1050  151.3350 O   0  0  0  0  0  0  0  0  0  0  0  0
  163.4270  205.4110  147.4970 O   0  0  0  0  0  1  0  0  0  0  0  0
  161.2370  205.7940  146.4640 C   0  0  0  0  0  2  0  0  0  0  0  0
  161.4190  203.4620  147.8820 N   0  0  0  0  0  2  0  0  0  0  0  0
  161.6730  208.4590  148.1010 C   0  0  2  0  0  3  0  0  0  0  0  0
  158.9130  203.2320  144.1360 O   0  0  0  0  0  0  0  0  0  0  0  0
  161.6780  206.2040  148.8640 N   0  0  0  0  0  0  0  0  0  0  0  0
  160.6690  202.7960  150.0990 C   0  0  0  0  0  3  0  0  0  0  0  0
  162.2900  209.7500  148.6350 C   0  0  0  0  0  2  0  0  0  0  0  0
  161.2710  210.8750  148.7700 C   0  0  0  0  0  2  0  0  0  0  0  0
  163.6310  212.4250  148.3370 F   0  0  0  0  0  0  0  0  0  0  0  0
  161.4130  211.8360  147.6400 C   0  0  0  0  0  0  0  0  0  0  0  0
  162.5930  212.5790  147.4770 C   0  0  0  0  0  0  0  0  0  0  0  0
  161.6430  213.6600  145.5270 C   0  0  0  0  0  3  0  0  0  0  0  0
  160.4660  212.9230  145.6910 C   0  0  0  0  0  3  0  0  0  0  0  0
  160.3510  212.0140  146.7470 C   0  0  0  0  0  3  0  0  0  0  0  0
  162.7050  213.4880  146.4200 C   0  0  0  0  0  3  0  0  0  0  0  0
  1 14  1  0  0  0  0
  2  8  1  0  0  0  0
  3 11  1  0  0  0  0
  4 19  1  6  0  0  0
  4 24  1  0  0  0  0
  6  7  1  0  0  0  0
  7 12  1  0  0  0  0
  7 16  1  0  0  0  0
  8  5  2  0  0  0  0
 10 21  1  0  0  0  0
 11  2  1  0  0  0  0
 11  1  2  0  0  0  0
 12 20  1  0  0  0  0
 13  4  1  0  0  0  0
 13 22  1  0  0  0  0
 14  5  1  0  0  0  0
 15  3  2  0  0  0  0
 15 25  1  0  0  0  0
 16 10  1  0  0  0  0
 17  1  1  0  0  0  0
 18  2  2  0  0  0  0
 20  4  1  0  0  0  0
 21 15  1  0  0  0  0
 22 26  1  1  0  0  0
 22  9  1  0  0  0  0
 23  6  2  0  0  0  0
 24  9  1  0  0  0  0
 24  3  1  0  0  0  0
 25 17  2  0  0  0  0
 26 27  1  0  0  0  0
 29 27  1  0  0  0  0
 30 29  1  0  0  0  0
 30 28  1  0  0  0  0
 31 32  2  0  0  0  0
 31 34  1  0  0  0  0
 32 33  1  0  0  0  0
 33 29  2  0  0  0  0
 34 30  2  0  0  0  0
M  END
>  <MODEL>
5

>  <REMARK>
 VINA RESULT:      -5.8      2.845      6.493
  Name = 
  3 active torsions:
  status: ('A' for Active; 'I' for Inactive)
    1  A    between atoms: C_3  and  C_13
    2  A    between atoms: C_3  and  C_17
    3  A    between atoms: C_17  and  C_29
                            x       y       z     vdW  Elec       q    Type
                         _______ _______ _______ _____ _____    ______ ____

>  <TORSDO>
F 3

$$$$
