=
 OpenBabel11062409533D

 34 39  0  0  1  0  0  0  0  0999 V2000
  158.5730  212.7810  155.6530 C   0  0  0  0  0  0  0  0  0  0  0  0
  158.3330  209.9480  155.3660 C   0  0  0  0  0  3  0  0  0  0  0  0
  160.7280  212.2740  151.4480 C   0  0  0  0  0  0  0  0  0  0  0  0
  157.3770  212.2490  154.8890 C   0  0  1  0  0  0  0  0  0  0  0  0
  157.8250  211.8770  151.2710 O   0  0  0  0  0  1  0  0  0  0  0  0
  160.9350  209.0220  152.9770 C   0  0  1  0  0  3  0  0  0  0  0  0
  158.4340  212.2250  152.4790 C   0  0  2  0  0  3  0  0  0  0  0  0
  160.2660  213.4880  153.4020 F   0  0  0  0  0  0  0  0  0  0  0  0
  157.3710  212.8310  153.4320 C   0  0  2  0  0  3  0  0  0  0  0  0
  161.4790  208.7520  151.5840 C   0  0  1  0  0  0  0  0  0  0  0  0
  160.9180  210.4740  153.1780 N   0  0  2  0  0  0  0  0  0  0  0  0
  162.4950  207.6730  151.2720 C   0  0  0  0  0  1  0  0  0  0  0  0
  161.2230  211.0030  151.9090 N   0  0  0  0  0  0  0  0  0  0  0  0
  157.2510  214.3510  153.3190 C   0  0  0  0  0  1  0  0  0  0  0  0
  159.3600  214.1940  151.4830 F   0  0  0  0  0  0  0  0  0  0  0  0
  158.6710  214.0150  155.9000 O   0  0  0  0  0  0  0  0  0  0  0  0
  159.6390  208.5140  153.0780 O   0  0  0  0  0  1  0  0  0  0  0  0
  159.3890  210.4830  156.2840 C   0  0  1  0  0  3  0  0  0  0  0  0
  160.7170  209.7990  155.9990 C   0  0  1  0  0  3  0  0  0  0  0  0
  160.6960  209.1990  150.5100 O   0  0  0  0  0  0  0  0  0  0  0  0
  161.6890  210.8930  155.5320 C   0  0  1  0  0  3  0  0  0  0  0  0
  161.7400  210.0430  150.9520 C   0  0  2  0  0  3  0  0  0  0  0  0
  162.0610  210.7670  154.0470 C   0  0  0  0  0  2  0  0  0  0  0  0
  159.7010  213.0670  152.2180 C   0  0  0  0  0  0  0  0  0  0  0  0
  161.1550  212.7350  150.3550 O   0  0  0  0  0  0  0  0  0  0  0  0
  157.4390  210.7370  154.7570 C   0  0  0  0  0  3  0  0  0  0  0  0
  161.0060  212.2190  155.7990 C   0  0  0  0  0  2  0  0  0  0  0  0
  159.6200  211.8970  156.0540 N   0  0  0  0  0  0  0  0  0  0  0  0
  161.2310  209.0340  157.2230 C   0  0  1  0  0  3  0  0  0  0  0  0
  160.6670  207.7590  157.2610 O   0  0  0  0  0  1  0  0  0  0  0  0
  162.7480  208.9250  157.2610 C   0  0  0  0  0  1  0  0  0  0  0  0
  155.4090  211.2690  156.2840 C   0  0  0  0  0  2  0  0  0  0  0  0
  156.1040  212.5060  155.7460 C   0  0  0  0  0  3  0  0  0  0  0  0
  156.2740  212.1110  157.2040 C   0  0  0  0  0  2  0  0  0  0  0  0
  1 16  2  0  0  0  0
  1 28  1  0  0  0  0
  3 13  1  0  0  0  0
  3 24  1  0  0  0  0
  4  1  1  0  0  0  0
  4 33  1  1  0  0  0
  6 17  1  6  0  0  0
  6 11  1  0  0  0  0
  7  5  1  6  0  0  0
  7  9  1  0  0  0  0
  9 14  1  1  0  0  0
  9  4  1  0  0  0  0
 10 12  1  6  0  0  0
 10  6  1  0  0  0  0
 11 23  1  1  0  0  0
 13 11  1  0  0  0  0
 15 24  1  0  0  0  0
 18  2  1  6  0  0  0
 19 18  1  0  0  0  0
 19 29  1  1  0  0  0
 20 10  1  0  0  0  0
 21 23  1  6  0  0  0
 21 27  1  0  0  0  0
 21 19  1  0  0  0  0
 22 20  1  6  0  0  0
 22 10  1  0  0  0  0
 22 13  1  0  0  0  0
 24  7  1  0  0  0  0
 24  8  1  0  0  0  0
 25  3  2  0  0  0  0
 26  4  1  0  0  0  0
 26  2  2  0  0  0  0
 27 28  1  0  0  0  0
 28 18  1  0  0  0  0
 29 31  1  6  0  0  0
 29 30  1  0  0  0  0
 32 34  1  0  0  0  0
 33 32  1  0  0  0  0
 33 34  1  0  0  0  0
M  END
>  <MODEL>
1

>  <REMARK>
 VINA RESULT:       0.3      0.000      0.000
  Name = 
  2 active torsions:
  status: ('A' for Active; 'I' for Inactive)
    1  A    between atoms: C_3  and  C_25
    2  A    between atoms: C_5  and  C_19
                            x       y       z     vdW  Elec       q    Type
                         _______ _______ _______ _____ _____    ______ ____

>  <TORSDO>
F 2

$$$$
=
 OpenBabel11062409533D

 34 39  0  0  1  0  0  0  0  0999 V2000
  158.8970  212.4770  154.9620 C   0  0  0  0  0  0  0  0  0  0  0  0
  158.5550  209.7280  154.2610 C   0  0  0  0  0  3  0  0  0  0  0  0
  161.0980  212.5030  150.7500 C   0  0  0  0  0  0  0  0  0  0  0  0
  157.6940  212.1100  154.1160 C   0  0  1  0  0  0  0  0  0  0  0  0
  158.1850  212.2520  150.4870 O   0  0  0  0  0  1  0  0  0  0  0  0
  161.1570  209.0570  151.7880 C   0  0  1  0  0  3  0  0  0  0  0  0
  158.7880  212.3950  151.7390 C   0  0  2  0  0  3  0  0  0  0  0  0
  160.6520  213.4360  152.8550 F   0  0  0  0  0  0  0  0  0  0  0  0
  157.7340  212.8990  152.7600 C   0  0  2  0  0  3  0  0  0  0  0  0
  161.7130  208.9710  150.3770 C   0  0  1  0  0  0  0  0  0  0  0  0
  161.1920  210.4640  152.2000 N   0  0  2  0  0  0  0  0  0  0  0  0
  162.6910  207.9100  149.9200 C   0  0  0  0  0  1  0  0  0  0  0  0
  161.5370  211.1600  151.0250 N   0  0  0  0  0  0  0  0  0  0  0  0
  157.6740  214.4220  152.8700 C   0  0  0  0  0  1  0  0  0  0  0  0
  159.8030  214.4500  151.0510 F   0  0  0  0  0  0  0  0  0  0  0  0
  159.0390  213.6570  155.3870 O   0  0  0  0  0  0  0  0  0  0  0  0
  159.8420  208.5920  151.8000 O   0  0  0  0  0  1  0  0  0  0  0  0
  159.6150  210.0810  155.2580 C   0  0  1  0  0  3  0  0  0  0  0  0
  160.9210  209.3930  154.8890 C   0  0  1  0  0  3  0  0  0  0  0  0
  160.9640  209.6020  149.3710 O   0  0  0  0  0  0  0  0  0  0  0  0
  161.9410  210.5040  154.5970 C   0  0  1  0  0  3  0  0  0  0  0  0
  162.0320  210.3290  149.9430 C   0  0  2  0  0  3  0  0  0  0  0  0
  162.3320  210.5810  153.1140 C   0  0  0  0  0  2  0  0  0  0  0  0
  160.0900  213.2160  151.6170 C   0  0  0  0  0  0  0  0  0  0  0  0
  161.5600  213.1010  149.7400 O   0  0  0  0  0  0  0  0  0  0  0  0
  157.7010  210.6320  153.7650 C   0  0  0  0  0  3  0  0  0  0  0  0
  161.3050  211.8030  155.0480 C   0  0  0  0  0  2  0  0  0  0  0  0
  159.9040  211.5030  155.2400 N   0  0  0  0  0  0  0  0  0  0  0  0
  161.3860  208.4380  155.9930 C   0  0  1  0  0  3  0  0  0  0  0  0
  160.9060  208.8670  157.2290 O   0  0  0  0  0  1  0  0  0  0  0  0
  160.9600  206.9970  155.7490 C   0  0  0  0  0  1  0  0  0  0  0  0
  155.8060  211.0130  155.5340 C   0  0  0  0  0  2  0  0  0  0  0  0
  156.4190  212.2900  154.9890 C   0  0  0  0  0  3  0  0  0  0  0  0
  156.6300  211.9060  156.4440 C   0  0  0  0  0  2  0  0  0  0  0  0
  1 28  1  0  0  0  0
  1 16  2  0  0  0  0
  3 13  1  0  0  0  0
  3 24  1  0  0  0  0
  4  1  1  0  0  0  0
  4 33  1  1  0  0  0
  6 17  1  6  0  0  0
  6 11  1  0  0  0  0
  7  5  1  6  0  0  0
  7  9  1  0  0  0  0
  9 14  1  1  0  0  0
  9  4  1  0  0  0  0
 10 12  1  6  0  0  0
 10  6  1  0  0  0  0
 11 23  1  1  0  0  0
 13 11  1  0  0  0  0
 15 24  1  0  0  0  0
 18  2  1  6  0  0  0
 19 18  1  0  0  0  0
 19 29  1  1  0  0  0
 20 10  1  0  0  0  0
 21 23  1  6  0  0  0
 21 19  1  0  0  0  0
 21 27  1  0  0  0  0
 22 20  1  6  0  0  0
 22 10  1  0  0  0  0
 22 13  1  0  0  0  0
 24  7  1  0  0  0  0
 24  8  1  0  0  0  0
 25  3  2  0  0  0  0
 26  4  1  0  0  0  0
 26  2  2  0  0  0  0
 27 28  1  0  0  0  0
 28 18  1  0  0  0  0
 29 31  1  6  0  0  0
 29 30  1  0  0  0  0
 32 34  1  0  0  0  0
 33 32  1  0  0  0  0
 33 34  1  0  0  0  0
M  END
>  <MODEL>
2

>  <REMARK>
 VINA RESULT:       3.0      1.037      1.112
  Name = 
  2 active torsions:
  status: ('A' for Active; 'I' for Inactive)
    1  A    between atoms: C_3  and  C_25
    2  A    between atoms: C_5  and  C_19
                            x       y       z     vdW  Elec       q    Type
                         _______ _______ _______ _____ _____    ______ ____

>  <TORSDO>
F 2

$$$$
