=
 OpenBabel11062408133D

 34 38  0  0  1  0  0  0  0  0999 V2000
  161.2510  204.1210  151.0210 C   0  0  0  0  0  0  0  0  0  0  0  0
  160.7000  205.1640  148.9020 C   0  0  0  0  0  0  0  0  0  0  0  0
  161.2440  206.5740  150.9310 C   0  0  0  0  0  0  0  0  0  0  0  0
  161.4970  209.0040  151.0030 C   0  0  0  0  0  0  0  0  0  0  0  0
  161.2650  202.8700  150.3990 C   0  0  0  0  0  3  0  0  0  0  0  0
  160.7260  203.9060  148.2920 C   0  0  0  0  0  3  0  0  0  0  0  0
  162.1580  207.8060  148.8750 C   0  0  0  0  0  2  0  0  0  0  0  0
  161.0970  205.3130  150.2610 C   0  0  0  0  0  0  0  0  0  0  0  0
  162.8330  209.1180  148.4920 C   0  0  0  0  0  2  0  0  0  0  0  0
  161.8160  210.3370  150.3820 C   0  0  0  0  0  2  0  0  0  0  0  0
  161.0360  202.7670  149.0300 C   0  0  0  0  0  3  0  0  0  0  0  0
  161.1590  206.5930  152.3530 C   0  0  0  0  0  0  0  0  0  0  0  0
  161.3220  204.1710  152.4070 C   0  0  0  0  0  3  0  0  0  0  0  0
  160.1680  206.2180  148.1710 O   0  0  0  0  0  1  0  0  0  0  0  0
  161.2490  208.9780  152.3340 N   0  0  0  0  0  0  0  0  0  0  0  0
  161.0900  207.8290  153.0380 C   0  0  0  0  0  0  0  0  0  0  0  0
  161.9230  210.2730  148.8630 C   0  0  1  0  0  3  0  0  0  0  0  0
  161.5760  207.7940  150.2750 C   0  0  0  0  0  0  0  0  0  0  0  0
  161.2360  205.3890  153.0640 C   0  0  0  0  0  3  0  0  0  0  0  0
  161.1200  209.2300  156.5560 C   0  0  0  0  0  0  0  0  0  0  0  0
  160.4110  208.2550  157.2610 C   0  0  0  0  0  3  0  0  0  0  0  0
  160.8720  207.9460  154.5040 C   0  0  0  0  0  0  0  0  0  0  0  0
  159.9230  207.1300  156.5930 C   0  0  0  0  0  3  0  0  0  0  0  0
  161.3440  209.0790  155.1850 C   0  0  0  0  0  3  0  0  0  0  0  0
  160.1470  206.9800  155.2220 C   0  0  0  0  0  3  0  0  0  0  0  0
  161.5890  210.3250  157.2020 F   0  0  0  0  0  0  0  0  0  0  0  0
  162.5040  211.5670  148.3240 C   0  0  0  0  0  2  0  0  0  0  0  0
  161.4670  212.6750  148.3780 C   0  0  0  0  0  2  0  0  0  0  0  0
  161.3590  212.9760  146.0260 O   0  0  0  0  0  0  0  0  0  0  0  0
  157.2080  212.4220  146.1010 O   0  0  0  0  0  0  0  0  0  0  0  0
  158.4440  212.5950  145.9430 C   0  0  0  0  0  0  0  0  0  0  0  0
  159.3060  212.5560  147.0870 N   0  0  0  0  0  2  0  0  0  0  0  0
  160.7270  212.7370  147.0890 C   0  0  0  0  0  0  0  0  0  0  0  0
  158.9640  212.8350  144.5650 C   0  0  0  0  0  1  0  0  0  0  0  0
  1 13  1  0  0  0  0
  2  8  1  0  0  0  0
  3 12  1  0  0  0  0
  4 15  2  0  0  0  0
  5  1  1  0  0  0  0
  6  2  2  0  0  0  0
  6 11  1  0  0  0  0
  7 18  1  0  0  0  0
  8  3  1  0  0  0  0
  8  1  2  0  0  0  0
  9 17  1  0  0  0  0
  9  7  1  0  0  0  0
 10  4  1  0  0  0  0
 11  5  2  0  0  0  0
 12 16  2  0  0  0  0
 12 19  1  0  0  0  0
 13 19  2  0  0  0  0
 14  2  1  0  0  0  0
 15 16  1  0  0  0  0
 16 22  1  0  0  0  0
 17 27  1  1  0  0  0
 17 10  1  0  0  0  0
 18  3  2  0  0  0  0
 18  4  1  0  0  0  0
 20 26  1  0  0  0  0
 20 21  1  0  0  0  0
 22 24  1  0  0  0  0
 22 25  2  0  0  0  0
 23 21  2  0  0  0  0
 24 20  2  0  0  0  0
 25 23  1  0  0  0  0
 27 28  1  0  0  0  0
 29 33  2  0  0  0  0
 31 30  2  0  0  0  0
 31 32  1  0  0  0  0
 32 33  1  0  0  0  0
 33 28  1  0  0  0  0
 34 31  1  0  0  0  0
M  END
>  <MODEL>
1

>  <REMARK>
 VINA RESULT:     -10.6      0.000      0.000
  Name = 
  4 active torsions:
  status: ('A' for Active; 'I' for Inactive)
    1  A    between atoms: C_3  and  C_13
    2  A    between atoms: C_3  and  C_29
    3  A    between atoms: C_12  and  C_28
    4  A    between atoms: C_13  and  C_33
                            x       y       z     vdW  Elec       q    Type
                         _______ _______ _______ _____ _____    ______ ____

>  <TORSDO>
F 4

$$$$
=
 OpenBabel11062408133D

 34 38  0  0  1  0  0  0  0  0999 V2000
  160.5810  208.0110  155.2740 C   0  0  0  0  0  0  0  0  0  0  0  0
  161.8860  210.0020  154.8080 C   0  0  0  0  0  0  0  0  0  0  0  0
  161.2920  208.3860  152.9550 C   0  0  0  0  0  0  0  0  0  0  0  0
  161.7180  208.6760  150.5660 C   0  0  0  0  0  0  0  0  0  0  0  0
  160.3650  208.4600  156.5790 C   0  0  0  0  0  3  0  0  0  0  0  0
  161.6550  210.4410  156.1160 C   0  0  0  0  0  3  0  0  0  0  0  0
  161.2720  210.7450  151.9490 C   0  0  0  0  0  2  0  0  0  0  0  0
  161.2360  208.8350  154.3180 C   0  0  0  0  0  0  0  0  0  0  0  0
  161.1000  211.4540  150.6100 C   0  0  0  0  0  2  0  0  0  0  0  0
  161.9400  209.5140  149.3350 C   0  0  0  0  0  2  0  0  0  0  0  0
  160.8730  209.6900  156.9890 C   0  0  0  0  0  3  0  0  0  0  0  0
  161.0400  207.0090  152.6900 C   0  0  0  0  0  0  0  0  0  0  0  0
  160.2000  206.7160  154.9490 C   0  0  0  0  0  3  0  0  0  0  0  0
  162.8470  210.6760  154.0680 O   0  0  0  0  0  1  0  0  0  0  0  0
  161.6270  207.3350  150.3990 N   0  0  0  0  0  0  0  0  0  0  0  0
  161.2880  206.4830  151.3990 C   0  0  0  0  0  0  0  0  0  0  0  0
  162.1810  210.9840  149.6560 C   0  0  1  0  0  3  0  0  0  0  0  0
  161.4780  209.2480  151.8360 C   0  0  0  0  0  0  0  0  0  0  0  0
  160.4650  206.2090  153.6860 C   0  0  0  0  0  3  0  0  0  0  0  0
  160.9150  203.2990  149.3830 C   0  0  0  0  0  0  0  0  0  0  0  0
  161.0450  202.3180  150.3680 C   0  0  0  0  0  3  0  0  0  0  0  0
  161.1770  205.0380  151.0650 C   0  0  0  0  0  0  0  0  0  0  0  0
  161.2490  202.6890  151.6990 C   0  0  0  0  0  3  0  0  0  0  0  0
  160.9860  204.6510  149.7300 C   0  0  0  0  0  3  0  0  0  0  0  0
  161.3210  204.0410  152.0440 C   0  0  0  0  0  3  0  0  0  0  0  0
  160.7230  202.9400  148.0910 F   0  0  0  0  0  0  0  0  0  0  0  0
  162.1290  211.8130  148.3860 C   0  0  0  0  0  2  0  0  0  0  0  0
  161.2800  213.0530  148.5980 C   0  0  0  0  0  2  0  0  0  0  0  0
  158.9540  213.3070  148.1950 O   0  0  0  0  0  0  0  0  0  0  0  0
  159.4580  212.0520  144.2320 O   0  0  0  0  0  0  0  0  0  0  0  0
  159.1760  212.4500  145.3910 C   0  0  0  0  0  0  0  0  0  0  0  0
  160.2240  212.5690  146.3620 N   0  0  0  0  0  2  0  0  0  0  0  0
  160.0800  213.0000  147.7210 C   0  0  0  0  0  0  0  0  0  0  0  0
  157.7580  212.7850  145.7080 C   0  0  0  0  0  1  0  0  0  0  0  0
  1  5  2  0  0  0  0
  2  6  1  0  0  0  0
  3  8  1  0  0  0  0
  4 18  1  0  0  0  0
  5 11  1  0  0  0  0
  6 11  2  0  0  0  0
  8  2  2  0  0  0  0
  8  1  1  0  0  0  0
  9  7  1  0  0  0  0
 10 17  1  0  0  0  0
 10  4  1  0  0  0  0
 12  3  1  0  0  0  0
 12 19  1  0  0  0  0
 13  1  1  0  0  0  0
 14  2  1  0  0  0  0
 15  4  2  0  0  0  0
 15 16  1  0  0  0  0
 16 12  2  0  0  0  0
 17 27  1  6  0  0  0
 17  9  1  0  0  0  0
 18  7  1  0  0  0  0
 18  3  2  0  0  0  0
 19 13  2  0  0  0  0
 20 24  2  0  0  0  0
 20 21  1  0  0  0  0
 21 23  2  0  0  0  0
 22 16  1  0  0  0  0
 22 25  2  0  0  0  0
 23 25  1  0  0  0  0
 24 22  1  0  0  0  0
 26 20  1  0  0  0  0
 27 28  1  0  0  0  0
 30 31  2  0  0  0  0
 31 34  1  0  0  0  0
 31 32  1  0  0  0  0
 32 33  1  0  0  0  0
 33 29  2  0  0  0  0
 33 28  1  0  0  0  0
M  END
>  <MODEL>
2

>  <REMARK>
 VINA RESULT:      -9.5      2.695      5.461
  Name = 
  4 active torsions:
  status: ('A' for Active; 'I' for Inactive)
    1  A    between atoms: C_3  and  C_13
    2  A    between atoms: C_3  and  C_29
    3  A    between atoms: C_12  and  C_28
    4  A    between atoms: C_13  and  C_33
                            x       y       z     vdW  Elec       q    Type
                         _______ _______ _______ _____ _____    ______ ____

>  <TORSDO>
F 4

$$$$
=
 OpenBabel11062408133D

 34 38  0  0  1  0  0  0  0  0999 V2000
  160.8450  207.2000  153.4920 C   0  0  0  0  0  0  0  0  0  0  0  0
  161.9070  209.3660  153.7370 C   0  0  0  0  0  0  0  0  0  0  0  0
  161.4680  208.3970  151.4430 C   0  0  0  0  0  0  0  0  0  0  0  0
  161.8140  209.5060  149.2920 C   0  0  0  0  0  0  0  0  0  0  0  0
  160.6040  207.1650  154.8680 C   0  0  0  0  0  3  0  0  0  0  0  0
  161.6520  209.3200  155.1110 C   0  0  0  0  0  3  0  0  0  0  0  0
  161.1620  210.9380  151.2720 C   0  0  0  0  0  2  0  0  0  0  0  0
  161.3860  208.3610  152.8750 C   0  0  0  0  0  0  0  0  0  0  0  0
  160.8870  212.0250  150.2390 C   0  0  0  0  0  2  0  0  0  0  0  0
  161.9180  210.7230  148.4120 C   0  0  0  0  0  2  0  0  0  0  0  0
  160.9770  208.2390  155.6710 C   0  0  0  0  0  3  0  0  0  0  0  0
  161.3690  207.1660  150.7320 C   0  0  0  0  0  0  0  0  0  0  0  0
  160.6080  206.0500  152.7500 C   0  0  0  0  0  3  0  0  0  0  0  0
  162.7730  210.3510  153.2810 O   0  0  0  0  0  1  0  0  0  0  0  0
  161.8730  208.2950  148.6900 N   0  0  0  0  0  0  0  0  0  0  0  0
  161.6510  207.1280  149.3460 C   0  0  0  0  0  0  0  0  0  0  0  0
  161.9970  212.0220  149.2060 C   0  0  1  0  0  3  0  0  0  0  0  0
  161.5350  209.5960  150.6750 C   0  0  0  0  0  0  0  0  0  0  0  0
  160.9060  206.0230  151.3960 C   0  0  0  0  0  3  0  0  0  0  0  0
  162.4570  204.6850  146.5670 C   0  0  0  0  0  0  0  0  0  0  0  0
  161.8910  203.5030  147.0490 C   0  0  0  0  0  3  0  0  0  0  0  0
  161.6990  205.8720  148.5510 C   0  0  0  0  0  0  0  0  0  0  0  0
  161.2360  203.4960  148.2830 C   0  0  0  0  0  3  0  0  0  0  0  0
  162.3660  205.8610  147.3160 C   0  0  0  0  0  3  0  0  0  0  0  0
  161.1470  204.6730  149.0320 C   0  0  0  0  0  3  0  0  0  0  0  0
  163.0970  204.6910  145.3730 F   0  0  0  0  0  0  0  0  0  0  0  0
  161.8280  213.2130  148.2800 C   0  0  0  0  0  2  0  0  0  0  0  0
  160.5590  213.0680  147.4590 C   0  0  0  0  0  2  0  0  0  0  0  0
  160.0790  212.3080  145.2620 O   0  0  0  0  0  0  0  0  0  0  0  0
  163.8220  213.6380  143.9360 O   0  0  0  0  0  0  0  0  0  0  0  0
  162.6720  213.2060  144.2050 C   0  0  0  0  0  0  0  0  0  0  0  0
  162.1790  213.3200  145.5460 N   0  0  0  0  0  2  0  0  0  0  0  0
  160.9030  212.8790  146.0250 C   0  0  0  0  0  0  0  0  0  0  0  0
  161.8640  212.5890  143.1130 C   0  0  0  0  0  1  0  0  0  0  0  0
  1  5  2  0  0  0  0
  2  6  1  0  0  0  0
  3  8  1  0  0  0  0
  4 18  1  0  0  0  0
  5 11  1  0  0  0  0
  6 11  2  0  0  0  0
  8  1  1  0  0  0  0
  8  2  2  0  0  0  0
  9  7  1  0  0  0  0
 10 17  1  0  0  0  0
 10  4  1  0  0  0  0
 12 19  1  0  0  0  0
 12  3  1  0  0  0  0
 13  1  1  0  0  0  0
 14  2  1  0  0  0  0
 15  4  2  0  0  0  0
 15 16  1  0  0  0  0
 16 12  2  0  0  0  0
 17 27  1  6  0  0  0
 17  9  1  0  0  0  0
 18  7  1  0  0  0  0
 18  3  2  0  0  0  0
 19 13  2  0  0  0  0
 20 21  2  0  0  0  0
 20 24  1  0  0  0  0
 21 23  1  0  0  0  0
 22 25  1  0  0  0  0
 22 16  1  0  0  0  0
 23 25  2  0  0  0  0
 24 22  2  0  0  0  0
 26 20  1  0  0  0  0
 28 27  1  0  0  0  0
 29 33  2  0  0  0  0
 30 31  2  0  0  0  0
 31 32  1  0  0  0  0
 32 33  1  0  0  0  0
 33 28  1  0  0  0  0
 34 31  1  0  0  0  0
M  END
>  <MODEL>
3

>  <REMARK>
 VINA RESULT:      -9.0      3.078      5.871
  Name = 
  4 active torsions:
  status: ('A' for Active; 'I' for Inactive)
    1  A    between atoms: C_3  and  C_13
    2  A    between atoms: C_3  and  C_29
    3  A    between atoms: C_12  and  C_28
    4  A    between atoms: C_13  and  C_33
                            x       y       z     vdW  Elec       q    Type
                         _______ _______ _______ _____ _____    ______ ____

>  <TORSDO>
F 4

$$$$
=
 OpenBabel11062408133D

 34 38  0  0  1  0  0  0  0  0999 V2000
  161.2070  206.0510  149.3060 C   0  0  0  0  0  0  0  0  0  0  0  0
  161.8880  205.5400  151.5780 C   0  0  0  0  0  0  0  0  0  0  0  0
  161.5520  207.9360  150.8390 C   0  0  0  0  0  0  0  0  0  0  0  0
  161.6370  209.9310  152.2500 C   0  0  0  0  0  0  0  0  0  0  0  0
  161.0180  204.6890  149.0590 C   0  0  0  0  0  3  0  0  0  0  0  0
  161.6860  204.1820  151.3170 C   0  0  0  0  0  3  0  0  0  0  0  0
  160.8080  207.7790  153.2890 C   0  0  0  0  0  2  0  0  0  0  0  0
  161.5210  206.5190  150.6120 C   0  0  0  0  0  0  0  0  0  0  0  0
  160.3190  208.6630  154.4310 C   0  0  0  0  0  2  0  0  0  0  0  0
  161.5020  210.6490  153.5660 C   0  0  0  0  0  2  0  0  0  0  0  0
  161.2240  203.7590  150.0740 C   0  0  0  0  0  3  0  0  0  0  0  0
  161.6450  208.7970  149.7070 C   0  0  0  0  0  0  0  0  0  0  0  0
  161.1490  206.9310  148.2340 C   0  0  0  0  0  3  0  0  0  0  0  0
  162.5570  205.8750  152.7470 O   0  0  0  0  0  1  0  0  0  0  0  0
  161.8850  210.6820  151.1510 N   0  0  0  0  0  0  0  0  0  0  0  0
  161.8870  210.1790  149.8910 C   0  0  0  0  0  0  0  0  0  0  0  0
  161.3810  209.6970  154.7500 C   0  0  1  0  0  3  0  0  0  0  0  0
  161.3880  208.5450  152.1170 C   0  0  0  0  0  0  0  0  0  0  0  0
  161.4060  208.2800  148.4270 C   0  0  0  0  0  3  0  0  0  0  0  0
  161.2280  212.5190  146.9870 C   0  0  0  0  0  0  0  0  0  0  0  0
  162.5110  212.9880  146.6990 C   0  0  0  0  0  3  0  0  0  0  0  0
  162.1250  211.1280  148.7710 C   0  0  0  0  0  0  0  0  0  0  0  0
  163.6020  212.5390  147.4470 C   0  0  0  0  0  3  0  0  0  0  0  0
  161.0360  211.5990  148.0210 C   0  0  0  0  0  3  0  0  0  0  0  0
  163.4090  211.6190  148.4810 C   0  0  0  0  0  3  0  0  0  0  0  0
  160.1680  212.9580  146.2670 F   0  0  0  0  0  0  0  0  0  0  0  0
  160.9820  210.4620  155.9980 C   0  0  0  0  0  2  0  0  0  0  0  0
  160.3770  211.8040  155.6250 C   0  0  0  0  0  2  0  0  0  0  0  0
  158.7010  212.3820  157.2030 O   0  0  0  0  0  0  0  0  0  0  0  0
  155.7440  210.7440  154.7310 O   0  0  0  0  0  0  0  0  0  0  0  0
  156.5320  211.2750  155.5560 C   0  0  0  0  0  0  0  0  0  0  0  0
  157.9340  211.3090  155.2610 N   0  0  0  0  0  2  0  0  0  0  0  0
  158.9640  211.8660  156.0850 C   0  0  0  0  0  0  0  0  0  0  0  0
  155.9710  211.8520  156.8120 C   0  0  0  0  0  1  0  0  0  0  0  0
  1  8  1  0  0  0  0
  2 14  1  0  0  0  0
  3 18  1  0  0  0  0
  4 10  1  0  0  0  0
  5  1  2  0  0  0  0
  5 11  1  0  0  0  0
  6  2  1  0  0  0  0
  7  9  1  0  0  0  0
  8  3  1  0  0  0  0
  8  2  2  0  0  0  0
  9 17  1  0  0  0  0
 10 17  1  0  0  0  0
 11  6  2  0  0  0  0
 12 16  1  0  0  0  0
 12  3  2  0  0  0  0
 13 19  2  0  0  0  0
 13  1  1  0  0  0  0
 15  4  1  0  0  0  0
 16 15  2  0  0  0  0
 17 27  1  1  0  0  0
 18  4  2  0  0  0  0
 18  7  1  0  0  0  0
 19 12  1  0  0  0  0
 20 24  1  0  0  0  0
 21 20  2  0  0  0  0
 21 23  1  0  0  0  0
 22 16  1  0  0  0  0
 23 25  2  0  0  0  0
 24 22  2  0  0  0  0
 25 22  1  0  0  0  0
 26 20  1  0  0  0  0
 28 27  1  0  0  0  0
 28 33  1  0  0  0  0
 30 31  2  0  0  0  0
 31 34  1  0  0  0  0
 32 31  1  0  0  0  0
 32 33  1  0  0  0  0
 33 29  2  0  0  0  0
M  END
>  <MODEL>
4

>  <REMARK>
 VINA RESULT:      -9.0      3.823      7.036
  Name = 
  4 active torsions:
  status: ('A' for Active; 'I' for Inactive)
    1  A    between atoms: C_3  and  C_13
    2  A    between atoms: C_3  and  C_29
    3  A    between atoms: C_12  and  C_28
    4  A    between atoms: C_13  and  C_33
                            x       y       z     vdW  Elec       q    Type
                         _______ _______ _______ _____ _____    ______ ____

>  <TORSDO>
F 4

$$$$
=
 OpenBabel11062408133D

 34 38  0  0  1  0  0  0  0  0999 V2000
  160.8320  207.1600  153.4120 C   0  0  0  0  0  0  0  0  0  0  0  0
  161.8740  209.3330  153.6920 C   0  0  0  0  0  0  0  0  0  0  0  0
  161.4770  208.3800  151.3830 C   0  0  0  0  0  0  0  0  0  0  0  0
  161.8480  209.5100  149.2470 C   0  0  0  0  0  0  0  0  0  0  0  0
  160.5700  207.1120  154.7840 C   0  0  0  0  0  3  0  0  0  0  0  0
  161.5980  209.2730  155.0610 C   0  0  0  0  0  3  0  0  0  0  0  0
  161.1540  210.9200  151.2280 C   0  0  0  0  0  2  0  0  0  0  0  0
  161.3730  208.3310  152.8130 C   0  0  0  0  0  0  0  0  0  0  0  0
  160.8870  212.0140  150.2000 C   0  0  0  0  0  2  0  0  0  0  0  0
  161.9550  210.7350  148.3790 C   0  0  0  0  0  2  0  0  0  0  0  0
  160.9220  208.1820  155.6010 C   0  0  0  0  0  3  0  0  0  0  0  0
  161.3980  207.1540  150.6600 C   0  0  0  0  0  0  0  0  0  0  0  0
  160.6150  206.0150  152.6570 C   0  0  0  0  0  3  0  0  0  0  0  0
  162.7390  210.3280  153.2570 O   0  0  0  0  0  1  0  0  0  0  0  0
  161.9250  208.3040  148.6360 N   0  0  0  0  0  0  0  0  0  0  0  0
  161.7020  207.1300  149.2780 C   0  0  0  0  0  0  0  0  0  0  0  0
  162.0120  212.0280  149.1850 C   0  0  1  0  0  3  0  0  0  0  0  0
  161.5460  209.5850  150.6260 C   0  0  0  0  0  0  0  0  0  0  0  0
  160.9340  206.0020  151.3080 C   0  0  0  0  0  3  0  0  0  0  0  0
  161.2250  203.5220  148.2310 C   0  0  0  0  0  0  0  0  0  0  0  0
  161.7980  203.5130  146.9580 C   0  0  0  0  0  3  0  0  0  0  0  0
  161.7700  205.8810  148.4740 C   0  0  0  0  0  0  0  0  0  0  0  0
  162.3500  204.6850  146.4340 C   0  0  0  0  0  3  0  0  0  0  0  0
  161.2060  204.7000  148.9820 C   0  0  0  0  0  3  0  0  0  0  0  0
  162.3310  205.8630  147.1860 C   0  0  0  0  0  3  0  0  0  0  0  0
  160.6830  202.3880  148.7370 F   0  0  0  0  0  0  0  0  0  0  0  0
  161.8490  213.2250  148.2660 C   0  0  0  0  0  2  0  0  0  0  0  0
  162.5030  212.9530  146.9230 C   0  0  0  0  0  2  0  0  0  0  0  0
  161.8300  213.4010  144.6910 O   0  0  0  0  0  0  0  0  0  0  0  0
  157.8750  212.3990  145.6340 O   0  0  0  0  0  0  0  0  0  0  0  0
  159.0210  212.7150  145.2230 C   0  0  0  0  0  0  0  0  0  0  0  0
  160.1230  212.6900  146.1380 N   0  0  0  0  0  2  0  0  0  0  0  0
  161.4840  213.0230  145.8420 C   0  0  0  0  0  0  0  0  0  0  0  0
  159.1860  213.1020  143.7920 C   0  0  0  0  0  1  0  0  0  0  0  0
  1  5  2  0  0  0  0
  2  6  1  0  0  0  0
  3  8  1  0  0  0  0
  4 18  1  0  0  0  0
  5 11  1  0  0  0  0
  6 11  2  0  0  0  0
  8  1  1  0  0  0  0
  8  2  2  0  0  0  0
  9  7  1  0  0  0  0
 10 17  1  0  0  0  0
 10  4  1  0  0  0  0
 12 19  1  0  0  0  0
 12  3  1  0  0  0  0
 13  1  1  0  0  0  0
 14  2  1  0  0  0  0
 15  4  2  0  0  0  0
 15 16  1  0  0  0  0
 16 12  2  0  0  0  0
 17 27  1  6  0  0  0
 17  9  1  0  0  0  0
 18  7  1  0  0  0  0
 18  3  2  0  0  0  0
 19 13  2  0  0  0  0
 20 26  1  0  0  0  0
 20 24  1  0  0  0  0
 21 20  2  0  0  0  0
 22 24  2  0  0  0  0
 22 16  1  0  0  0  0
 23 21  1  0  0  0  0
 23 25  2  0  0  0  0
 25 22  1  0  0  0  0
 28 27  1  0  0  0  0
 29 33  2  0  0  0  0
 31 30  2  0  0  0  0
 31 32  1  0  0  0  0
 33 32  1  0  0  0  0
 33 28  1  0  0  0  0
 34 31  1  0  0  0  0
M  END
>  <MODEL>
5

>  <REMARK>
 VINA RESULT:      -8.7      2.689      5.595
  Name = 
  4 active torsions:
  status: ('A' for Active; 'I' for Inactive)
    1  A    between atoms: C_3  and  C_13
    2  A    between atoms: C_3  and  C_29
    3  A    between atoms: C_12  and  C_28
    4  A    between atoms: C_13  and  C_33
                            x       y       z     vdW  Elec       q    Type
                         _______ _______ _______ _____ _____    ______ ____

>  <TORSDO>
F 4

$$$$
=
 OpenBabel11062408133D

 34 38  0  0  1  0  0  0  0  0999 V2000
  161.4930  209.4460  155.1100 C   0  0  0  0  0  0  0  0  0  0  0  0
  160.4550  207.2540  155.0750 C   0  0  0  0  0  0  0  0  0  0  0  0
  161.2670  208.3310  152.9350 C   0  0  0  0  0  0  0  0  0  0  0  0
  161.3290  207.3130  150.7140 C   0  0  0  0  0  0  0  0  0  0  0  0
  161.4880  209.4240  156.5060 C   0  0  0  0  0  3  0  0  0  0  0  0
  160.4650  207.2430  156.4730 C   0  0  0  0  0  3  0  0  0  0  0  0
  161.6580  205.8050  152.7170 C   0  0  0  0  0  2  0  0  0  0  0  0
  161.0970  208.3040  154.3600 C   0  0  0  0  0  0  0  0  0  0  0  0
  162.1360  204.7690  151.7050 C   0  0  0  0  0  2  0  0  0  0  0  0
  161.4110  206.1350  149.7810 C   0  0  0  0  0  2  0  0  0  0  0  0
  161.0060  208.3090  157.1870 C   0  0  0  0  0  3  0  0  0  0  0  0
  161.4610  209.5930  152.3040 C   0  0  0  0  0  0  0  0  0  0  0  0
  161.8290  210.6310  154.4690 C   0  0  0  0  0  3  0  0  0  0  0  0
  159.7070  206.2770  154.4330 O   0  0  0  0  0  1  0  0  0  0  0  0
  161.3490  208.5490  150.1610 N   0  0  0  0  0  0  0  0  0  0  0  0
  161.4250  209.6890  150.8930 C   0  0  0  0  0  0  0  0  0  0  0  0
  161.2240  204.8010  150.4940 C   0  0  1  0  0  3  0  0  0  0  0  0
  161.3640  207.1670  152.1190 C   0  0  0  0  0  0  0  0  0  0  0  0
  161.7730  210.7130  153.0850 C   0  0  0  0  0  3  0  0  0  0  0  0
  162.3820  212.2820  148.3040 C   0  0  0  0  0  0  0  0  0  0  0  0
  161.5820  213.3650  148.6720 C   0  0  0  0  0  3  0  0  0  0  0  0
  161.4880  210.9780  150.1540 C   0  0  0  0  0  0  0  0  0  0  0  0
  160.7280  213.2590  149.7720 C   0  0  0  0  0  3  0  0  0  0  0  0
  162.3310  211.0930  149.0380 C   0  0  0  0  0  3  0  0  0  0  0  0
  160.6780  212.0700  150.5040 C   0  0  0  0  0  3  0  0  0  0  0  0
  163.2070  212.3810  147.2330 F   0  0  0  0  0  0  0  0  0  0  0  0
  161.5800  203.6550  149.5640 C   0  0  0  0  0  2  0  0  0  0  0  0
  160.4570  202.6340  149.5290 C   0  0  0  0  0  2  0  0  0  0  0  0
  161.3670  200.5670  148.7970 O   0  0  0  0  0  0  0  0  0  0  0  0
  160.0810  201.3340  144.8860 O   0  0  0  0  0  0  0  0  0  0  0  0
  160.5090  200.9820  146.0150 C   0  0  0  0  0  0  0  0  0  0  0  0
  160.3120  201.8510  147.1380 N   0  0  0  0  0  2  0  0  0  0  0  0
  160.7370  201.6120  148.4850 C   0  0  0  0  0  0  0  0  0  0  0  0
  161.2060  199.6690  146.1410 C   0  0  0  0  0  1  0  0  0  0  0  0
  1  5  2  0  0  0  0
  2  6  1  0  0  0  0
  3  8  1  0  0  0  0
  4 18  1  0  0  0  0
  5 11  1  0  0  0  0
  6 11  2  0  0  0  0
  8  2  2  0  0  0  0
  8  1  1  0  0  0  0
  9  7  1  0  0  0  0
 10 17  1  0  0  0  0
 10  4  1  0  0  0  0
 12  3  1  0  0  0  0
 12 19  1  0  0  0  0
 13  1  1  0  0  0  0
 14  2  1  0  0  0  0
 15  4  2  0  0  0  0
 15 16  1  0  0  0  0
 16 12  2  0  0  0  0
 17 27  1  6  0  0  0
 17  9  1  0  0  0  0
 18  7  1  0  0  0  0
 18  3  2  0  0  0  0
 19 13  2  0  0  0  0
 20 21  2  0  0  0  0
 20 24  1  0  0  0  0
 21 23  1  0  0  0  0
 22 25  1  0  0  0  0
 22 16  1  0  0  0  0
 23 25  2  0  0  0  0
 24 22  2  0  0  0  0
 26 20  1  0  0  0  0
 28 27  1  0  0  0  0
 30 31  2  0  0  0  0
 31 34  1  0  0  0  0
 31 32  1  0  0  0  0
 32 33  1  0  0  0  0
 33 29  2  0  0  0  0
 33 28  1  0  0  0  0
M  END
>  <MODEL>
6

>  <REMARK>
 VINA RESULT:      -8.2      3.743      7.923
  Name = 
  4 active torsions:
  status: ('A' for Active; 'I' for Inactive)
    1  A    between atoms: C_3  and  C_13
    2  A    between atoms: C_3  and  C_29
    3  A    between atoms: C_12  and  C_28
    4  A    between atoms: C_13  and  C_33
                            x       y       z     vdW  Elec       q    Type
                         _______ _______ _______ _____ _____    ______ ____

>  <TORSDO>
F 4

$$$$
=
 OpenBabel11062408133D

 34 38  0  0  1  0  0  0  0  0999 V2000
  162.2970  209.7440  148.9550 C   0  0  0  0  0  0  0  0  0  0  0  0
  161.2070  211.4130  150.3370 C   0  0  0  0  0  0  0  0  0  0  0  0
  161.4700  209.0330  151.1530 C   0  0  0  0  0  0  0  0  0  0  0  0
  160.9110  208.1750  153.3730 C   0  0  0  0  0  0  0  0  0  0  0  0
  162.6570  210.7390  148.0420 C   0  0  0  0  0  3  0  0  0  0  0  0
  161.5810  212.3980  149.4170 C   0  0  0  0  0  3  0  0  0  0  0  0
  161.6970  210.5720  153.1930 C   0  0  0  0  0  2  0  0  0  0  0  0
  161.6770  210.0770  150.1900 C   0  0  0  0  0  0  0  0  0  0  0  0
  161.8540  210.5050  154.7080 C   0  0  0  0  0  2  0  0  0  0  0  0
  160.7020  208.3270  154.8550 C   0  0  0  0  0  2  0  0  0  0  0  0
  162.3290  212.0680  148.2900 C   0  0  0  0  0  3  0  0  0  0  0  0
  161.5380  207.6820  150.7050 C   0  0  0  0  0  0  0  0  0  0  0  0
  162.4980  208.4170  148.5990 C   0  0  0  0  0  3  0  0  0  0  0  0
  160.2810  211.7650  151.3090 O   0  0  0  0  0  1  0  0  0  0  0  0
  160.8310  206.9260  152.8560 N   0  0  0  0  0  0  0  0  0  0  0  0
  161.1380  206.6330  151.5670 C   0  0  0  0  0  0  0  0  0  0  0  0
  160.6600  209.7840  155.3010 C   0  0  1  0  0  3  0  0  0  0  0  0
  161.3070  209.2550  152.5510 C   0  0  0  0  0  0  0  0  0  0  0  0
  162.0850  207.4000  149.4470 C   0  0  0  0  0  3  0  0  0  0  0  0
  160.8340  203.5720  149.3590 C   0  0  0  0  0  0  0  0  0  0  0  0
  160.9720  202.5350  150.2840 C   0  0  0  0  0  3  0  0  0  0  0  0
  161.0530  205.2100  151.1450 C   0  0  0  0  0  0  0  0  0  0  0  0
  161.1590  202.8280  151.6360 C   0  0  0  0  0  3  0  0  0  0  0  0
  160.8810  204.9020  149.7870 C   0  0  0  0  0  3  0  0  0  0  0  0
  161.2060  204.1580  152.0630 C   0  0  0  0  0  3  0  0  0  0  0  0
  160.6590  203.2890  148.0450 F   0  0  0  0  0  0  0  0  0  0  0  0
  160.7180  209.8710  156.8150 C   0  0  0  0  0  2  0  0  0  0  0  0
  160.7470  211.3220  157.2610 C   0  0  0  0  0  2  0  0  0  0  0  0
  159.7020  213.0940  156.0770 O   0  0  0  0  0  0  0  0  0  0  0  0
  155.9240  211.5150  156.9540 O   0  0  0  0  0  0  0  0  0  0  0  0
  156.9950  212.0830  156.6160 C   0  0  0  0  0  0  0  0  0  0  0  0
  158.2450  211.5180  157.0290 N   0  0  0  0  0  2  0  0  0  0  0  0
  159.5500  212.0340  156.7400 C   0  0  0  0  0  0  0  0  0  0  0  0
  156.9180  213.3260  155.7950 C   0  0  0  0  0  1  0  0  0  0  0  0
  1  8  1  0  0  0  0
  2 14  1  0  0  0  0
  3 18  1  0  0  0  0
  4 10  1  0  0  0  0
  5 11  2  0  0  0  0
  5  1  1  0  0  0  0
  6  2  2  0  0  0  0
  7  9  1  0  0  0  0
  8  2  1  0  0  0  0
  8  3  2  0  0  0  0
  9 17  1  0  0  0  0
 10 17  1  0  0  0  0
 11  6  1  0  0  0  0
 12  3  1  0  0  0  0
 12 16  1  0  0  0  0
 13  1  2  0  0  0  0
 13 19  1  0  0  0  0
 15  4  1  0  0  0  0
 16 15  2  0  0  0  0
 17 27  1  1  0  0  0
 18  7  1  0  0  0  0
 18  4  2  0  0  0  0
 19 12  2  0  0  0  0
 20 24  2  0  0  0  0
 20 21  1  0  0  0  0
 21 23  2  0  0  0  0
 22 16  1  0  0  0  0
 22 25  2  0  0  0  0
 23 25  1  0  0  0  0
 24 22  1  0  0  0  0
 26 20  1  0  0  0  0
 27 28  1  0  0  0  0
 29 33  2  0  0  0  0
 31 30  2  0  0  0  0
 31 32  1  0  0  0  0
 33 32  1  0  0  0  0
 33 28  1  0  0  0  0
 34 31  1  0  0  0  0
M  END
>  <MODEL>
7

>  <REMARK>
 VINA RESULT:      -8.1      3.948      7.377
  Name = 
  4 active torsions:
  status: ('A' for Active; 'I' for Inactive)
    1  A    between atoms: C_3  and  C_13
    2  A    between atoms: C_3  and  C_29
    3  A    between atoms: C_12  and  C_28
    4  A    between atoms: C_13  and  C_33
                            x       y       z     vdW  Elec       q    Type
                         _______ _______ _______ _____ _____    ______ ____

>  <TORSDO>
F 4

$$$$
=
 OpenBabel11062408133D

 34 38  0  0  1  0  0  0  0  0999 V2000
  160.4660  212.9390  150.6440 C   0  0  0  0  0  0  0  0  0  0  0  0
  161.9210  212.3290  148.8010 C   0  0  0  0  0  0  0  0  0  0  0  0
  161.3790  210.6610  150.6240 C   0  0  0  0  0  0  0  0  0  0  0  0
  162.0080  208.2990  150.6830 C   0  0  0  0  0  0  0  0  0  0  0  0
  160.1760  214.1500  150.0110 C   0  0  0  0  0  3  0  0  0  0  0  0
  161.6140  213.5420  148.1770 C   0  0  0  0  0  3  0  0  0  0  0  0
  161.5800  209.3540  148.4250 C   0  0  0  0  0  2  0  0  0  0  0  0
  161.2430  211.9420  149.9910 C   0  0  0  0  0  0  0  0  0  0  0  0
  161.5570  207.9240  147.8980 C   0  0  0  0  0  2  0  0  0  0  0  0
  162.3760  206.9930  150.0330 C   0  0  0  0  0  2  0  0  0  0  0  0
  160.7230  214.4370  148.7630 C   0  0  0  0  0  3  0  0  0  0  0  0
  161.0660  210.5580  152.0100 C   0  0  0  0  0  0  0  0  0  0  0  0
  160.0350  212.7560  151.9510 C   0  0  0  0  0  3  0  0  0  0  0  0
  162.9760  211.5920  148.2820 O   0  0  0  0  0  1  0  0  0  0  0  0
  161.8500  208.3040  152.0280 N   0  0  0  0  0  0  0  0  0  0  0  0
  161.3820  209.3750  152.7180 C   0  0  0  0  0  0  0  0  0  0  0  0
  162.6790  207.1370  148.5460 C   0  0  1  0  0  3  0  0  0  0  0  0
  161.7040  209.4580  149.9330 C   0  0  0  0  0  0  0  0  0  0  0  0
  160.3670  211.5980  152.6370 C   0  0  0  0  0  3  0  0  0  0  0  0
  160.2970  207.9780  156.0670 C   0  0  0  0  0  0  0  0  0  0  0  0
  160.9260  208.8490  156.9590 C   0  0  0  0  0  3  0  0  0  0  0  0
  161.2110  209.2260  154.1880 C   0  0  0  0  0  0  0  0  0  0  0  0
  161.7050  209.9020  156.4740 C   0  0  0  0  0  3  0  0  0  0  0  0
  160.4440  208.1630  154.6890 C   0  0  0  0  0  3  0  0  0  0  0  0
  161.8510  210.0850  155.0960 C   0  0  0  0  0  3  0  0  0  0  0  0
  159.5460  206.9530  156.5360 F   0  0  0  0  0  0  0  0  0  0  0  0
  162.7770  205.7690  147.8970 C   0  0  0  0  0  2  0  0  0  0  0  0
  161.3910  205.2180  147.6130 C   0  0  0  0  0  2  0  0  0  0  0  0
  161.1620  202.8560  147.6070 O   0  0  0  0  0  0  0  0  0  0  0  0
  160.8000  202.8360  151.7790 O   0  0  0  0  0  0  0  0  0  0  0  0
  160.9040  202.7060  150.5320 C   0  0  0  0  0  0  0  0  0  0  0  0
  161.0870  203.8740  149.7220 N   0  0  0  0  0  2  0  0  0  0  0  0
  161.2190  203.9090  148.2960 C   0  0  0  0  0  0  0  0  0  0  0  0
  160.8350  201.3360  149.9460 C   0  0  0  0  0  1  0  0  0  0  0  0
  1 13  1  0  0  0  0
  2  8  1  0  0  0  0
  3 12  1  0  0  0  0
  4 15  2  0  0  0  0
  5  1  1  0  0  0  0
  6 11  1  0  0  0  0
  6  2  2  0  0  0  0
  7 18  1  0  0  0  0
  8  3  1  0  0  0  0
  8  1  2  0  0  0  0
  9  7  1  0  0  0  0
  9 17  1  0  0  0  0
 10  4  1  0  0  0  0
 11  5  2  0  0  0  0
 12 19  1  0  0  0  0
 12 16  2  0  0  0  0
 13 19  2  0  0  0  0
 14  2  1  0  0  0  0
 15 16  1  0  0  0  0
 16 22  1  0  0  0  0
 17 27  1  6  0  0  0
 17 10  1  0  0  0  0
 18  3  2  0  0  0  0
 18  4  1  0  0  0  0
 20 26  1  0  0  0  0
 20 21  1  0  0  0  0
 22 24  1  0  0  0  0
 22 25  2  0  0  0  0
 23 21  2  0  0  0  0
 24 20  2  0  0  0  0
 25 23  1  0  0  0  0
 28 27  1  0  0  0  0
 28 33  1  0  0  0  0
 29 33  2  0  0  0  0
 31 30  2  0  0  0  0
 32 31  1  0  0  0  0
 33 32  1  0  0  0  0
 34 31  1  0  0  0  0
M  END
>  <MODEL>
8

>  <REMARK>
 VINA RESULT:      -7.9      2.530      6.833
  Name = 
  4 active torsions:
  status: ('A' for Active; 'I' for Inactive)
    1  A    between atoms: C_3  and  C_13
    2  A    between atoms: C_3  and  C_29
    3  A    between atoms: C_12  and  C_28
    4  A    between atoms: C_13  and  C_33
                            x       y       z     vdW  Elec       q    Type
                         _______ _______ _______ _____ _____    ______ ____

>  <TORSDO>
F 4

$$$$
=
 OpenBabel11062408133D

 34 38  0  0  1  0  0  0  0  0999 V2000
  160.4400  212.9220  149.9760 C   0  0  0  0  0  0  0  0  0  0  0  0
  162.1750  211.4470  149.1390 C   0  0  0  0  0  0  0  0  0  0  0  0
  160.9270  210.8930  151.2680 C   0  0  0  0  0  0  0  0  0  0  0  0
  161.1080  208.8390  152.5810 C   0  0  0  0  0  0  0  0  0  0  0  0
  160.5250  213.6820  148.8070 C   0  0  0  0  0  3  0  0  0  0  0  0
  162.2430  212.2140  147.9720 C   0  0  0  0  0  3  0  0  0  0  0  0
  161.4330  208.6770  150.0790 C   0  0  0  0  0  2  0  0  0  0  0  0
  161.1700  211.7090  150.1130 C   0  0  0  0  0  0  0  0  0  0  0  0
  161.2950  207.1720  150.2810 C   0  0  0  0  0  2  0  0  0  0  0  0
  161.3950  207.3700  152.7400 C   0  0  0  0  0  2  0  0  0  0  0  0
  161.4020  213.3080  147.7920 C   0  0  0  0  0  3  0  0  0  0  0  0
  160.2710  211.4870  152.3860 C   0  0  0  0  0  0  0  0  0  0  0  0
  159.6770  213.4110  151.0280 C   0  0  0  0  0  3  0  0  0  0  0  0
  163.1830  210.5170  149.3540 O   0  0  0  0  0  1  0  0  0  0  0  0
  160.6290  209.5010  153.6610 N   0  0  0  0  0  0  0  0  0  0  0  0
  160.1970  210.7870  153.6130 C   0  0  0  0  0  0  0  0  0  0  0  0
  162.0730  206.7640  151.5170 C   0  0  1  0  0  3  0  0  0  0  0  0
  161.2000  209.4960  151.3330 C   0  0  0  0  0  0  0  0  0  0  0  0
  159.6290  212.7220  152.2310 C   0  0  0  0  0  3  0  0  0  0  0  0
  157.7730  211.6650  156.3870 C   0  0  0  0  0  0  0  0  0  0  0  0
  158.5840  212.3950  157.2580 C   0  0  0  0  0  3  0  0  0  0  0  0
  159.6490  211.3760  154.8630 C   0  0  0  0  0  0  0  0  0  0  0  0
  159.9270  212.6120  156.9420 C   0  0  0  0  0  3  0  0  0  0  0  0
  158.3040  211.1530  155.2000 C   0  0  0  0  0  3  0  0  0  0  0  0
  160.4570  212.1000  155.7550 C   0  0  0  0  0  3  0  0  0  0  0  0
  156.4720  211.4480  156.6950 F   0  0  0  0  0  0  0  0  0  0  0  0
  162.0910  205.2500  151.6250 C   0  0  0  0  0  2  0  0  0  0  0  0
  160.7230  204.6800  151.2960 C   0  0  0  0  0  2  0  0  0  0  0  0
  160.9360  202.3300  151.0380 O   0  0  0  0  0  0  0  0  0  0  0  0
  161.2130  202.7650  146.8820 O   0  0  0  0  0  0  0  0  0  0  0  0
  161.1330  202.5010  148.1090 C   0  0  0  0  0  0  0  0  0  0  0  0
  160.9750  203.5730  149.0460 N   0  0  0  0  0  2  0  0  0  0  0  0
  160.8730  203.4530  150.4700 C   0  0  0  0  0  0  0  0  0  0  0  0
  161.2050  201.0740  148.5410 C   0  0  0  0  0  1  0  0  0  0  0  0
  1  8  2  0  0  0  0
  1 13  1  0  0  0  0
  2 14  1  0  0  0  0
  2  8  1  0  0  0  0
  3 18  2  0  0  0  0
  3 12  1  0  0  0  0
  4 10  1  0  0  0  0
  4 15  2  0  0  0  0
  5  1  1  0  0  0  0
  6  2  2  0  0  0  0
  7  9  1  0  0  0  0
  7 18  1  0  0  0  0
  8  3  1  0  0  0  0
  9 17  1  0  0  0  0
 11  6  1  0  0  0  0
 11  5  2  0  0  0  0
 12 16  2  0  0  0  0
 13 19  2  0  0  0  0
 16 15  1  0  0  0  0
 16 22  1  0  0  0  0
 17 27  1  1  0  0  0
 17 10  1  0  0  0  0
 18  4  1  0  0  0  0
 19 12  1  0  0  0  0
 20 26  1  0  0  0  0
 20 21  1  0  0  0  0
 22 24  1  0  0  0  0
 22 25  2  0  0  0  0
 23 21  2  0  0  0  0
 24 20  2  0  0  0  0
 25 23  1  0  0  0  0
 28 27  1  0  0  0  0
 30 31  2  0  0  0  0
 31 34  1  0  0  0  0
 31 32  1  0  0  0  0
 32 33  1  0  0  0  0
 33 29  2  0  0  0  0
 33 28  1  0  0  0  0
M  END
>  <MODEL>
9

>  <REMARK>
 VINA RESULT:      -7.8      2.929      7.134
  Name = 
  4 active torsions:
  status: ('A' for Active; 'I' for Inactive)
    1  A    between atoms: C_3  and  C_13
    2  A    between atoms: C_3  and  C_29
    3  A    between atoms: C_12  and  C_28
    4  A    between atoms: C_13  and  C_33
                            x       y       z     vdW  Elec       q    Type
                         _______ _______ _______ _____ _____    ______ ____

>  <TORSDO>
F 4

$$$$
