=
 OpenBabel11062409023D

 37 42  0  0  1  0  0  0  0  0999 V2000
  159.9030  212.2530  151.7770 C   0  0  0  0  0  2  0  0  0  0  0  0
  160.9680  208.2680  154.4530 C   0  0  1  0  0  3  0  0  0  0  0  0
  159.6770  212.8380  150.3700 C   0  0  2  0  0  3  0  0  0  0  0  0
  162.2590  208.5840  151.1610 C   0  0  0  0  0  3  0  0  0  0  0  0
  159.5240  210.0750  155.1930 O   0  0  0  0  0  0  0  0  0  0  0  0
  160.6330  208.8710  153.0850 C   0  0  2  0  0  3  0  0  0  0  0  0
  160.5730  209.2140  155.5890 C   0  0  1  0  0  3  0  0  0  0  0  0
  161.2820  208.0910  151.9510 C   0  0  0  0  0  0  0  0  0  0  0  0
  160.0890  208.3260  156.7210 C   0  0  0  0  0  2  0  0  0  0  0  0
  160.1230  211.8960  149.2380 C   0  0  0  0  0  2  0  0  0  0  0  0
  160.0170  211.0250  154.2590 C   0  0  2  0  0  3  0  0  0  0  0  0
  160.8870  205.7290  154.2330 C   0  0  0  0  0  2  0  0  0  0  0  0
  159.8360  206.9440  156.1430 C   0  0  0  0  0  2  0  0  0  0  0  0
  161.4800  211.2180  149.4940 C   0  0  2  0  0  3  0  0  0  0  0  0
  162.8300  209.9680  151.2470 C   0  0  0  0  0  2  0  0  0  0  0  0
  160.1550  207.0040  154.6650 C   0  0  1  0  0  3  0  0  0  0  0  0
  160.8290  210.3930  153.0930 C   0  0  2  0  0  3  0  0  0  0  0  0
  160.8830  206.6340  151.8360 C   0  0  2  0  0  3  0  0  0  0  0  0
  161.7930  211.0750  150.9880 C   0  0  2  0  0  3  0  0  0  0  0  0
  160.5410  210.9280  151.7480 N   0  0  2  0  0  0  0  0  0  0  0  0
  161.6250  205.8100  152.8890 C   0  0  0  0  0  2  0  0  0  0  0  0
  161.2540  204.6820  150.3060 C   0  0  0  0  0  3  0  0  0  0  0  0
  161.0320  206.0560  150.4530 C   0  0  0  0  0  0  0  0  0  0  0  0
  160.9140  206.8650  149.3100 C   0  0  0  0  0  3  0  0  0  0  0  0
  160.9240  207.0900  146.9400 F   0  0  0  0  0  0  0  0  0  0  0  0
  161.2630  204.9310  147.8970 C   0  0  0  0  0  3  0  0  0  0  0  0
  161.0310  206.3030  148.0370 C   0  0  0  0  0  0  0  0  0  0  0  0
  161.3720  204.1210  149.0290 C   0  0  0  0  0  3  0  0  0  0  0  0
  162.6120  211.8990  148.7330 C   0  0  0  0  0  2  0  0  0  0  0  0
  162.2390  212.1730  147.4150 O   0  0  0  0  0  1  0  0  0  0  0  0
  160.1560  214.4520  148.9320 C   0  0  0  0  0  1  0  0  0  0  0  0
  160.3320  214.0650  150.2600 O   0  0  0  0  0  0  0  0  0  0  0  0
  160.8270  212.1240  154.9460 C   0  0  0  0  0  2  0  0  0  0  0  0
  160.1680  212.5460  156.2540 C   0  0  0  0  0  2  0  0  0  0  0  0
  159.0610  213.5710  156.0370 C   0  0  2  0  0  3  0  0  0  0  0  0
  157.6960  212.9800  156.3450 C   0  0  0  0  0  1  0  0  0  0  0  0
  159.0890  214.0700  154.7330 O   0  0  0  0  0  1  0  0  0  0  0  0
  2 16  1  0  0  0  0
  2  7  1  0  0  0  0
  3  1  1  0  0  0  0
  4 15  1  0  0  0  0
  4  8  2  0  0  0  0
  5  7  1  0  0  0  0
  6 17  1  0  0  0  0
  6  2  1  0  0  0  0
  7  9  1  0  0  0  0
  8  6  1  0  0  0  0
 10 14  1  0  0  0  0
 10  3  1  0  0  0  0
 11 33  1  0  0  0  0
 11  5  1  0  0  0  0
 12 16  1  0  0  0  0
 13  9  1  0  0  0  0
 14 19  1  0  0  0  0
 16 13  1  0  0  0  0
 17 11  1  0  0  0  0
 18  8  1  0  0  0  0
 18 21  1  0  0  0  0
 19 15  1  0  0  0  0
 19 20  1  0  0  0  0
 20  1  1  0  0  0  0
 20 17  1  0  0  0  0
 21 12  1  0  0  0  0
 22 23  1  0  0  0  0
 23 18  1  0  0  0  0
 24 23  2  0  0  0  0
 25 27  1  0  0  0  0
 26 27  2  0  0  0  0
 26 28  1  0  0  0  0
 27 24  1  0  0  0  0
 28 22  2  0  0  0  0
 29 14  1  0  0  0  0
 30 29  1  0  0  0  0
 31 32  1  0  0  0  0
 32  3  1  0  0  0  0
 33 34  1  0  0  0  0
 35 34  1  0  0  0  0
 35 36  1  0  0  0  0
 37 35  1  0  0  0  0
M  END
>  <MODEL>
1

>  <REMARK>
 VINA RESULT:      -6.0      0.000      0.000
  Name = 
  6 active torsions:
  status: ('A' for Active; 'I' for Inactive)
    1  A    between atoms: C_3  and  C_21
    2  A    between atoms: C_5  and  O_23
    3  A    between atoms: C_6  and  C_31
    4  A    between atoms: C_11  and  C_26
    5  A    between atoms: C_20  and  C_25
    6  A    between atoms: C_21  and  C_25
                            x       y       z     vdW  Elec       q    Type
                         _______ _______ _______ _____ _____    ______ ____

>  <TORSDO>
F 6

$$$$
=
 OpenBabel11062409023D

 37 42  0  0  1  0  0  0  0  0999 V2000
  160.6380  204.7640  149.1510 C   0  0  0  0  0  2  0  0  0  0  0  0
  162.1580  209.2900  150.3200 C   0  0  1  0  0  3  0  0  0  0  0  0
  160.0400  203.4350  149.6520 C   0  0  2  0  0  3  0  0  0  0  0  0
  162.4080  206.6700  152.7030 C   0  0  0  0  0  3  0  0  0  0  0  0
  161.1490  208.6850  148.1960 O   0  0  0  0  0  0  0  0  0  0  0  0
  161.4700  207.9920  150.7530 C   0  0  2  0  0  3  0  0  0  0  0  0
  162.2000  209.4160  148.7960 C   0  0  1  0  0  3  0  0  0  0  0  0
  161.6820  207.7070  152.2330 C   0  0  0  0  0  0  0  0  0  0  0  0
  162.0170  210.8920  148.4950 C   0  0  0  0  0  2  0  0  0  0  0  0
  160.0480  203.3010  151.1840 C   0  0  0  0  0  2  0  0  0  0  0  0
  161.4070  207.2940  148.3220 C   0  0  2  0  0  3  0  0  0  0  0  0
  161.8200  211.0120  152.1710 C   0  0  0  0  0  2  0  0  0  0  0  0
  161.4950  211.5570  149.7570 C   0  0  0  0  0  2  0  0  0  0  0  0
  161.3620  203.7580  151.8400 C   0  0  2  0  0  3  0  0  0  0  0  0
  163.0820  205.6290  151.8610 C   0  0  0  0  0  2  0  0  0  0  0  0
  161.3530  210.4800  150.8110 C   0  0  1  0  0  3  0  0  0  0  0  0
  161.7750  206.8550  149.7680 C   0  0  2  0  0  3  0  0  0  0  0  0
  161.1570  208.7570  153.1910 C   0  0  2  0  0  3  0  0  0  0  0  0
  162.1030  204.8080  151.0040 C   0  0  2  0  0  3  0  0  0  0  0  0
  161.1330  205.6140  150.2440 N   0  0  2  0  0  0  0  0  0  0  0  0
  162.1180  209.9440  153.2340 C   0  0  0  0  0  2  0  0  0  0  0  0
  161.6590  208.5860  155.6410 C   0  0  0  0  0  3  0  0  0  0  0  0
  160.8340  208.2360  154.5670 C   0  0  0  0  0  0  0  0  0  0  0  0
  159.7000  207.4380  154.7960 C   0  0  0  0  0  3  0  0  0  0  0  0
  158.3160  206.2130  156.2960 F   0  0  0  0  0  0  0  0  0  0  0  0
  160.2410  207.3320  157.1520 C   0  0  0  0  0  3  0  0  0  0  0  0
  159.4060  206.9870  156.0840 C   0  0  0  0  0  0  0  0  0  0  0  0
  161.3640  208.1320  156.9330 C   0  0  0  0  0  3  0  0  0  0  0  0
  162.2590  202.5790  152.2060 C   0  0  0  0  0  2  0  0  0  0  0  0
  161.7610  201.3850  151.6780 O   0  0  0  0  0  1  0  0  0  0  0  0
  159.7750  201.3470  148.9640 C   0  0  0  0  0  1  0  0  0  0  0  0
  160.7220  202.3650  149.0730 O   0  0  0  0  0  0  0  0  0  0  0  0
  162.4680  206.8230  147.3300 C   0  0  0  0  0  2  0  0  0  0  0  0
  161.8200  206.2070  146.0950 C   0  0  0  0  0  2  0  0  0  0  0  0
  162.5130  204.9200  145.6620 C   0  0  2  0  0  3  0  0  0  0  0  0
  161.5760  203.7290  145.7630 C   0  0  0  0  0  1  0  0  0  0  0  0
  163.6670  204.6940  146.4170 O   0  0  0  0  0  1  0  0  0  0  0  0
  1  3  1  0  0  0  0
  1 20  1  0  0  0  0
  2  6  1  0  0  0  0
  2 16  1  0  0  0  0
  3 10  1  0  0  0  0
  5 11  1  0  0  0  0
  5  7  1  0  0  0  0
  6  8  1  0  0  0  0
  7  2  1  0  0  0  0
  8  4  2  0  0  0  0
  8 18  1  0  0  0  0
  9  7  1  0  0  0  0
  9 13  1  0  0  0  0
 10 14  1  0  0  0  0
 11 17  1  0  0  0  0
 12 21  1  0  0  0  0
 13 16  1  0  0  0  0
 14 29  1  0  0  0  0
 15  4  1  0  0  0  0
 16 12  1  0  0  0  0
 17 20  1  0  0  0  0
 17  6  1  0  0  0  0
 18 21  1  0  0  0  0
 18 23  1  0  0  0  0
 19 14  1  0  0  0  0
 19 15  1  0  0  0  0
 20 19  1  0  0  0  0
 22 28  1  0  0  0  0
 23 24  1  0  0  0  0
 23 22  2  0  0  0  0
 24 27  2  0  0  0  0
 27 25  1  0  0  0  0
 27 26  1  0  0  0  0
 28 26  2  0  0  0  0
 30 29  1  0  0  0  0
 31 32  1  0  0  0  0
 32  3  1  0  0  0  0
 33 11  1  0  0  0  0
 34 33  1  0  0  0  0
 35 36  1  0  0  0  0
 35 34  1  0  0  0  0
 35 37  1  0  0  0  0
M  END
>  <MODEL>
2

>  <REMARK>
 VINA RESULT:      -5.4      3.549      8.408
  Name = 
  6 active torsions:
  status: ('A' for Active; 'I' for Inactive)
    1  A    between atoms: C_3  and  C_21
    2  A    between atoms: C_5  and  O_23
    3  A    between atoms: C_6  and  C_31
    4  A    between atoms: C_11  and  C_26
    5  A    between atoms: C_20  and  C_25
    6  A    between atoms: C_21  and  C_25
                            x       y       z     vdW  Elec       q    Type
                         _______ _______ _______ _____ _____    ______ ____

>  <TORSDO>
F 6

$$$$
=
 OpenBabel11062409023D

 37 42  0  0  1  0  0  0  0  0999 V2000
  160.0590  212.2230  151.1110 C   0  0  0  0  0  2  0  0  0  0  0  0
  161.1120  208.1230  153.6110 C   0  0  1  0  0  3  0  0  0  0  0  0
  159.8650  212.8770  149.7300 C   0  0  2  0  0  3  0  0  0  0  0  0
  162.4950  208.6290  150.3790 C   0  0  0  0  0  3  0  0  0  0  0  0
  159.6160  209.8660  154.3970 O   0  0  0  0  0  0  0  0  0  0  0  0
  160.8070  208.7900  152.2660 C   0  0  2  0  0  3  0  0  0  0  0  0
  160.6680  209.0030  154.7810 C   0  0  1  0  0  3  0  0  0  0  0  0
  161.5030  208.0800  151.1130 C   0  0  0  0  0  0  0  0  0  0  0  0
  160.1660  208.0490  155.8500 C   0  0  0  0  0  2  0  0  0  0  0  0
  160.3600  212.0020  148.5650 C   0  0  0  0  0  2  0  0  0  0  0  0
  160.1210  210.8710  153.5300 C   0  0  2  0  0  3  0  0  0  0  0  0
  161.0810  205.5970  153.2590 C   0  0  0  0  0  2  0  0  0  0  0  0
  159.9540  206.6950  155.1960 C   0  0  0  0  0  2  0  0  0  0  0  0
  161.7200  211.3320  148.8270 C   0  0  2  0  0  3  0  0  0  0  0  0
  163.0390  210.0150  150.5540 C   0  0  0  0  0  2  0  0  0  0  0  0
  160.3140  206.8370  153.7330 C   0  0  1  0  0  3  0  0  0  0  0  0
  160.9770  210.3120  152.3580 C   0  0  2  0  0  3  0  0  0  0  0  0
  161.1320  206.6250  150.9110 C   0  0  2  0  0  3  0  0  0  0  0  0
  161.9910  211.1170  150.3210 C   0  0  2  0  0  3  0  0  0  0  0  0
  160.7200  210.9110  151.0340 N   0  0  2  0  0  0  0  0  0  0  0  0
  161.8570  205.7590  151.9430 C   0  0  0  0  0  2  0  0  0  0  0  0
  161.6190  207.0370  148.4870 C   0  0  0  0  0  3  0  0  0  0  0  0
  161.3320  206.1220  149.5060 C   0  0  0  0  0  0  0  0  0  0  0  0
  161.2740  204.7490  149.2090 C   0  0  0  0  0  3  0  0  0  0  0  0
  161.4220  202.9810  147.6230 F   0  0  0  0  0  0  0  0  0  0  0  0
  161.7640  205.2240  146.8870 C   0  0  0  0  0  3  0  0  0  0  0  0
  161.4880  204.3040  147.9030 C   0  0  0  0  0  0  0  0  0  0  0  0
  161.8320  206.5880  147.1780 C   0  0  0  0  0  3  0  0  0  0  0  0
  162.8630  212.0690  148.1370 C   0  0  0  0  0  2  0  0  0  0  0  0
  162.4610  212.5720  146.8960 O   0  0  0  0  0  1  0  0  0  0  0  0
  160.6010  214.4450  148.3510 C   0  0  0  0  0  1  0  0  0  0  0  0
  160.5010  214.1180  149.7030 O   0  0  0  0  0  0  0  0  0  0  0  0
  160.8910  211.9450  154.2960 C   0  0  0  0  0  2  0  0  0  0  0  0
  159.9630  212.7180  155.2250 C   0  0  0  0  0  2  0  0  0  0  0  0
  160.1070  212.2800  156.6780 C   0  0  2  0  0  3  0  0  0  0  0  0
  161.4340  211.5800  156.9130 C   0  0  0  0  0  1  0  0  0  0  0  0
  159.0480  211.4510  157.0580 O   0  0  0  0  0  1  0  0  0  0  0  0
  2 16  1  0  0  0  0
  2  7  1  0  0  0  0
  3  1  1  0  0  0  0
  4 15  1  0  0  0  0
  4  8  2  0  0  0  0
  5  7  1  0  0  0  0
  6 17  1  0  0  0  0
  6  2  1  0  0  0  0
  7  9  1  0  0  0  0
  8  6  1  0  0  0  0
 10 14  1  0  0  0  0
 10  3  1  0  0  0  0
 11 33  1  0  0  0  0
 11  5  1  0  0  0  0
 12 16  1  0  0  0  0
 13  9  1  0  0  0  0
 14 19  1  0  0  0  0
 16 13  1  0  0  0  0
 17 11  1  0  0  0  0
 18  8  1  0  0  0  0
 18 21  1  0  0  0  0
 19 15  1  0  0  0  0
 19 20  1  0  0  0  0
 20  1  1  0  0  0  0
 20 17  1  0  0  0  0
 21 12  1  0  0  0  0
 22 23  1  0  0  0  0
 23 18  1  0  0  0  0
 24 23  2  0  0  0  0
 25 27  1  0  0  0  0
 26 28  1  0  0  0  0
 26 27  2  0  0  0  0
 27 24  1  0  0  0  0
 28 22  2  0  0  0  0
 29 14  1  0  0  0  0
 30 29  1  0  0  0  0
 31 32  1  0  0  0  0
 32  3  1  0  0  0  0
 33 34  1  0  0  0  0
 34 35  1  0  0  0  0
 35 36  1  0  0  0  0
 35 37  1  0  0  0  0
M  END
>  <MODEL>
3

>  <REMARK>
 VINA RESULT:      -5.0      1.263      1.620
  Name = 
  6 active torsions:
  status: ('A' for Active; 'I' for Inactive)
    1  A    between atoms: C_3  and  C_21
    2  A    between atoms: C_5  and  O_23
    3  A    between atoms: C_6  and  C_31
    4  A    between atoms: C_11  and  C_26
    5  A    between atoms: C_20  and  C_25
    6  A    between atoms: C_21  and  C_25
                            x       y       z     vdW  Elec       q    Type
                         _______ _______ _______ _____ _____    ______ ____

>  <TORSDO>
F 6

$$$$
=
 OpenBabel11062409023D

 37 42  0  0  1  0  0  0  0  0999 V2000
  160.7450  207.8880  153.1840 C   0  0  0  0  0  2  0  0  0  0  0  0
  160.2780  212.5290  151.6300 C   0  0  1  0  0  3  0  0  0  0  0  0
  160.3110  206.8220  154.2080 C   0  0  2  0  0  3  0  0  0  0  0  0
  159.8460  211.7640  155.0700 C   0  0  0  0  0  3  0  0  0  0  0  0
  160.7280  210.6330  150.1810 O   0  0  0  0  0  0  0  0  0  0  0  0
  159.8000  211.4090  152.5600 C   0  0  2  0  0  3  0  0  0  0  0  0
  161.0900  211.9710  150.4590 C   0  0  1  0  0  3  0  0  0  0  0  0
  159.2570  211.9580  153.8710 C   0  0  0  0  0  0  0  0  0  0  0  0
  160.7470  212.8400  149.2630 C   0  0  0  0  0  2  0  0  0  0  0  0
  159.5380  207.4020  155.4040 C   0  0  0  0  0  2  0  0  0  0  0  0
  161.2040  209.7870  151.2180 C   0  0  2  0  0  3  0  0  0  0  0  0
  158.6110  214.4510  151.7950 C   0  0  0  0  0  2  0  0  0  0  0  0
  159.4950  213.6260  149.6110 C   0  0  0  0  0  2  0  0  0  0  0  0
  160.1500  208.6950  155.9700 C   0  0  2  0  0  3  0  0  0  0  0  0
  161.0910  210.9610  155.3060 C   0  0  0  0  0  2  0  0  0  0  0  0
  159.0780  213.2210  151.0090 C   0  0  1  0  0  3  0  0  0  0  0  0
  160.8420  210.2860  152.6460 C   0  0  2  0  0  3  0  0  0  0  0  0
  158.0700  212.8940  153.7570 C   0  0  2  0  0  3  0  0  0  0  0  0
  160.9450  209.4790  154.9190 C   0  0  2  0  0  3  0  0  0  0  0  0
  160.3650  209.2510  153.5850 N   0  0  2  0  0  0  0  0  0  0  0  0
  158.5460  214.2790  153.3190 C   0  0  0  0  0  2  0  0  0  0  0  0
  157.1630  214.1300  155.7400 C   0  0  0  0  0  3  0  0  0  0  0  0
  157.2040  212.9510  154.9870 C   0  0  0  0  0  0  0  0  0  0  0  0
  156.4080  211.8580  155.3690 C   0  0  0  0  0  3  0  0  0  0  0  0
  154.8350  210.8830  156.8650 F   0  0  0  0  0  0  0  0  0  0  0  0
  155.5650  213.1210  157.2540 C   0  0  0  0  0  3  0  0  0  0  0  0
  155.5930  211.9430  156.4990 C   0  0  0  0  0  0  0  0  0  0  0  0
  156.3470  214.2130  156.8740 C   0  0  0  0  0  3  0  0  0  0  0  0
  160.9680  208.4360  157.2310 C   0  0  0  0  0  2  0  0  0  0  0  0
  162.3350  208.3890  156.9450 O   0  0  0  0  0  1  0  0  0  0  0  0
  162.1750  205.8530  153.5060 C   0  0  0  0  0  1  0  0  0  0  0  0
  161.4290  206.1180  154.6550 O   0  0  0  0  0  0  0  0  0  0  0  0
  162.7060  209.5370  151.0990 C   0  0  0  0  0  2  0  0  0  0  0  0
  162.9810  208.1250  150.5970 C   0  0  0  0  0  2  0  0  0  0  0  0
  161.9920  207.6920  149.5210 C   0  0  2  0  0  3  0  0  0  0  0  0
  161.3740  206.3450  149.8510 C   0  0  0  0  0  1  0  0  0  0  0  0
  162.6040  207.6490  148.2650 O   0  0  0  0  0  1  0  0  0  0  0  0
  1 20  1  0  0  0  0
  1  3  1  0  0  0  0
  2  6  1  0  0  0  0
  3 32  1  0  0  0  0
  3 10  1  0  0  0  0
  4 15  1  0  0  0  0
  5  7  1  0  0  0  0
  5 11  1  0  0  0  0
  6 17  1  0  0  0  0
  6  8  1  0  0  0  0
  7  2  1  0  0  0  0
  8  4  2  0  0  0  0
  9 13  1  0  0  0  0
  9  7  1  0  0  0  0
 10 14  1  0  0  0  0
 11 17  1  0  0  0  0
 12 21  1  0  0  0  0
 13 16  1  0  0  0  0
 14 29  1  0  0  0  0
 16  2  1  0  0  0  0
 16 12  1  0  0  0  0
 17 20  1  0  0  0  0
 18  8  1  0  0  0  0
 18 23  1  0  0  0  0
 19 15  1  0  0  0  0
 19 14  1  0  0  0  0
 20 19  1  0  0  0  0
 21 18  1  0  0  0  0
 22 28  1  0  0  0  0
 23 24  1  0  0  0  0
 23 22  2  0  0  0  0
 24 27  2  0  0  0  0
 27 25  1  0  0  0  0
 27 26  1  0  0  0  0
 28 26  2  0  0  0  0
 30 29  1  0  0  0  0
 31 32  1  0  0  0  0
 33 11  1  0  0  0  0
 34 33  1  0  0  0  0
 35 36  1  0  0  0  0
 35 34  1  0  0  0  0
 37 35  1  0  0  0  0
M  END
>  <MODEL>
4

>  <REMARK>
 VINA RESULT:      -3.8      2.789      8.259
  Name = 
  6 active torsions:
  status: ('A' for Active; 'I' for Inactive)
    1  A    between atoms: C_3  and  C_21
    2  A    between atoms: C_5  and  O_23
    3  A    between atoms: C_6  and  C_31
    4  A    between atoms: C_11  and  C_26
    5  A    between atoms: C_20  and  C_25
    6  A    between atoms: C_21  and  C_25
                            x       y       z     vdW  Elec       q    Type
                         _______ _______ _______ _____ _____    ______ ____

>  <TORSDO>
F 6

$$$$
=
 OpenBabel11062409023D

 37 42  0  0  1  0  0  0  0  0999 V2000
  161.5610  211.9870  149.8650 C   0  0  0  0  0  2  0  0  0  0  0  0
  160.5260  208.5780  153.2530 C   0  0  1  0  0  3  0  0  0  0  0  0
  161.5940  213.4870  149.5140 C   0  0  2  0  0  3  0  0  0  0  0  0
  158.7000  211.6230  153.1920 C   0  0  0  0  0  3  0  0  0  0  0  0
  162.2930  208.3800  151.5990 O   0  0  0  0  0  0  0  0  0  0  0  0
  160.6750  210.0610  152.8960 C   0  0  2  0  0  3  0  0  0  0  0  0
  161.2370  207.6860  152.2330 C   0  0  1  0  0  3  0  0  0  0  0  0
  159.7380  210.9350  153.7150 C   0  0  0  0  0  0  0  0  0  0  0  0
  161.8080  206.5240  153.0240 C   0  0  0  0  0  2  0  0  0  0  0  0
  160.8360  214.3670  150.5210 C   0  0  0  0  0  2  0  0  0  0  0  0
  161.7560  209.3580  150.7190 C   0  0  2  0  0  3  0  0  0  0  0  0
  160.2530  208.4050  155.7830 C   0  0  0  0  0  2  0  0  0  0  0  0
  161.7790  206.9090  154.4930 C   0  0  0  0  0  2  0  0  0  0  0  0
  159.4760  213.7880  150.9500 C   0  0  2  0  0  3  0  0  0  0  0  0
  158.3290  211.6630  151.7390 C   0  0  0  0  0  2  0  0  0  0  0  0
  161.2040  208.3060  154.5840 C   0  0  1  0  0  3  0  0  0  0  0  0
  160.6720  210.2600  151.3740 C   0  0  2  0  0  3  0  0  0  0  0  0
  159.9270  210.8830  155.2180 C   0  0  2  0  0  3  0  0  0  0  0  0
  159.4280  212.2600  150.8440 C   0  0  2  0  0  3  0  0  0  0  0  0
  160.7710  211.7020  151.0730 N   0  0  2  0  0  0  0  0  0  0  0  0
  159.2960  209.6060  155.7730 C   0  0  0  0  0  2  0  0  0  0  0  0
  160.3810  213.1140  156.2690 C   0  0  0  0  0  3  0  0  0  0  0  0
  159.4560  212.1140  155.9460 C   0  0  0  0  0  0  0  0  0  0  0  0
  158.1000  212.2940  156.2710 C   0  0  0  0  0  3  0  0  0  0  0  0
  156.3760  213.6170  157.2410 F   0  0  0  0  0  0  0  0  0  0  0  0
  158.6130  214.4450  157.2540 C   0  0  0  0  0  3  0  0  0  0  0  0
  157.6820  213.4550  156.9240 C   0  0  0  0  0  0  0  0  0  0  0  0
  159.9600  214.2760  156.9260 C   0  0  0  0  0  3  0  0  0  0  0  0
  158.3150  214.4510  150.2160 C   0  0  0  0  0  2  0  0  0  0  0  0
  158.0000  213.7600  149.0430 O   0  0  0  0  0  1  0  0  0  0  0  0
  161.4170  212.5190  147.5300 C   0  0  0  0  0  1  0  0  0  0  0  0
  161.0860  213.6800  148.2290 O   0  0  0  0  0  0  0  0  0  0  0  0
  161.2280  208.7300  149.4310 C   0  0  0  0  0  2  0  0  0  0  0  0
  162.3010  207.8780  148.7630 C   0  0  0  0  0  2  0  0  0  0  0  0
  161.7870  206.4920  148.3900 C   0  0  2  0  0  3  0  0  0  0  0  0
  162.0070  206.2020  146.9150 C   0  0  0  0  0  1  0  0  0  0  0  0
  160.4340  206.3560  148.7130 O   0  0  0  0  0  1  0  0  0  0  0  0
  1 20  1  0  0  0  0
  2 16  1  0  0  0  0
  3  1  1  0  0  0  0
  3 10  1  0  0  0  0
  4  8  2  0  0  0  0
  5  7  1  0  0  0  0
  6  2  1  0  0  0  0
  6  8  1  0  0  0  0
  7  9  1  0  0  0  0
  7  2  1  0  0  0  0
  8 18  1  0  0  0  0
  9 13  1  0  0  0  0
 10 14  1  0  0  0  0
 11 17  1  0  0  0  0
 11  5  1  0  0  0  0
 13 16  1  0  0  0  0
 15  4  1  0  0  0  0
 16 12  1  0  0  0  0
 17  6  1  0  0  0  0
 18 21  1  0  0  0  0
 18 23  1  0  0  0  0
 19 14  1  0  0  0  0
 19 20  1  0  0  0  0
 19 15  1  0  0  0  0
 20 17  1  0  0  0  0
 21 12  1  0  0  0  0
 22 28  1  0  0  0  0
 23 22  2  0  0  0  0
 23 24  1  0  0  0  0
 24 27  2  0  0  0  0
 27 25  1  0  0  0  0
 27 26  1  0  0  0  0
 28 26  2  0  0  0  0
 29 14  1  0  0  0  0
 30 29  1  0  0  0  0
 31 32  1  0  0  0  0
 32  3  1  0  0  0  0
 33 11  1  0  0  0  0
 34 33  1  0  0  0  0
 35 37  1  0  0  0  0
 35 34  1  0  0  0  0
 36 35  1  0  0  0  0
M  END
>  <MODEL>
5

>  <REMARK>
 VINA RESULT:      -3.7      2.819      6.864
  Name = 
  6 active torsions:
  status: ('A' for Active; 'I' for Inactive)
    1  A    between atoms: C_3  and  C_21
    2  A    between atoms: C_5  and  O_23
    3  A    between atoms: C_6  and  C_31
    4  A    between atoms: C_11  and  C_26
    5  A    between atoms: C_20  and  C_25
    6  A    between atoms: C_21  and  C_25
                            x       y       z     vdW  Elec       q    Type
                         _______ _______ _______ _____ _____    ______ ____

>  <TORSDO>
F 6

$$$$
=
 OpenBabel11062409023D

 37 42  0  0  1  0  0  0  0  0999 V2000
  157.5230  210.4240  155.7510 C   0  0  0  0  0  2  0  0  0  0  0  0
  161.3950  208.7320  153.2390 C   0  0  1  0  0  3  0  0  0  0  0  0
  156.4090  211.4850  155.8430 C   0  0  2  0  0  3  0  0  0  0  0  0
  160.6270  212.1980  153.1810 C   0  0  0  0  0  3  0  0  0  0  0  0
  159.8650  207.3380  154.5090 O   0  0  0  0  0  0  0  0  0  0  0  0
  160.2110  209.7000  153.3150 C   0  0  2  0  0  3  0  0  0  0  0  0
  161.2290  207.5720  154.2230 C   0  0  1  0  0  3  0  0  0  0  0  0
  160.4950  210.9980  152.5740 C   0  0  0  0  0  0  0  0  0  0  0  0
  161.8100  206.3530  153.5300 C   0  0  0  0  0  2  0  0  0  0  0  0
  156.6130  212.6690  154.8830 C   0  0  0  0  0  2  0  0  0  0  0  0
  159.3600  208.3970  155.3110 C   0  0  2  0  0  3  0  0  0  0  0  0
  162.3560  208.8520  150.8800 C   0  0  0  0  0  2  0  0  0  0  0  0
  161.9530  206.6870  152.0560 C   0  0  0  0  0  2  0  0  0  0  0  0
  158.0610  213.1900  154.8380 C   0  0  2  0  0  3  0  0  0  0  0  0
  160.4840  212.4480  154.6520 C   0  0  0  0  0  2  0  0  0  0  0  0
  161.4470  208.1000  151.8600 C   0  0  1  0  0  3  0  0  0  0  0  0
  159.6860  209.8120  154.7530 C   0  0  2  0  0  3  0  0  0  0  0  0
  160.7860  210.8660  151.0930 C   0  0  2  0  0  3  0  0  0  0  0  0
  159.0860  212.1080  155.1970 C   0  0  2  0  0  3  0  0  0  0  0  0
  158.5780  210.7870  154.7920 N   0  0  2  0  0  0  0  0  0  0  0  0
  162.2210  210.3820  150.8910 C   0  0  0  0  0  2  0  0  0  0  0  0
  159.4220  212.9280  150.6750 C   0  0  0  0  0  3  0  0  0  0  0  0
  160.4830  212.1010  150.2880 C   0  0  0  0  0  0  0  0  0  0  0  0
  161.2690  212.4590  149.1790 C   0  0  0  0  0  3  0  0  0  0  0  0
  161.7430  213.9560  147.3900 F   0  0  0  0  0  0  0  0  0  0  0  0
  159.9170  214.4390  148.8480 C   0  0  0  0  0  3  0  0  0  0  0  0
  160.9860  213.6220  148.4620 C   0  0  0  0  0  0  0  0  0  0  0  0
  159.1380  214.0940  149.9540 C   0  0  0  0  0  3  0  0  0  0  0  0
  158.2410  214.4510  155.6770 C   0  0  0  0  0  2  0  0  0  0  0  0
  158.5020  214.1350  157.0130 O   0  0  0  0  0  1  0  0  0  0  0  0
  155.1210  212.6830  157.1880 C   0  0  0  0  0  1  0  0  0  0  0  0
  156.3040  211.9440  157.1560 O   0  0  0  0  0  0  0  0  0  0  0  0
  159.8150  208.2730  156.7640 C   0  0  0  0  0  2  0  0  0  0  0  0
  160.5680  209.5230  157.2040 C   0  0  0  0  0  2  0  0  0  0  0  0
  162.0750  209.2980  157.2600 C   0  0  2  0  0  3  0  0  0  0  0  0
  162.8170  210.3320  156.4310 C   0  0  0  0  0  1  0  0  0  0  0  0
  162.4050  208.0090  156.8350 O   0  0  0  0  0  1  0  0  0  0  0  0
  1  3  1  0  0  0  0
  2  6  1  0  0  0  0
  2  7  1  0  0  0  0
  3 32  1  0  0  0  0
  4 15  1  0  0  0  0
  5 11  1  0  0  0  0
  6 17  1  0  0  0  0
  7  5  1  0  0  0  0
  8  4  2  0  0  0  0
  8  6  1  0  0  0  0
  9  7  1  0  0  0  0
 10  3  1  0  0  0  0
 11 33  1  0  0  0  0
 12 21  1  0  0  0  0
 12 16  1  0  0  0  0
 13  9  1  0  0  0  0
 14 10  1  0  0  0  0
 14 19  1  0  0  0  0
 14 29  1  0  0  0  0
 15 19  1  0  0  0  0
 16 13  1  0  0  0  0
 16  2  1  0  0  0  0
 17 20  1  0  0  0  0
 17 11  1  0  0  0  0
 18  8  1  0  0  0  0
 20 19  1  0  0  0  0
 20  1  1  0  0  0  0
 21 18  1  0  0  0  0
 23 22  1  0  0  0  0
 23 18  1  0  0  0  0
 24 23  2  0  0  0  0
 25 27  1  0  0  0  0
 26 28  1  0  0  0  0
 27 26  2  0  0  0  0
 27 24  1  0  0  0  0
 28 22  2  0  0  0  0
 29 30  1  0  0  0  0
 32 31  1  0  0  0  0
 33 34  1  0  0  0  0
 34 35  1  0  0  0  0
 36 35  1  0  0  0  0
 37 35  1  0  0  0  0
M  END
>  <MODEL>
6

>  <REMARK>
 VINA RESULT:      -3.6      2.871      5.984
  Name = 
  6 active torsions:
  status: ('A' for Active; 'I' for Inactive)
    1  A    between atoms: C_3  and  C_21
    2  A    between atoms: C_5  and  O_23
    3  A    between atoms: C_6  and  C_31
    4  A    between atoms: C_11  and  C_26
    5  A    between atoms: C_20  and  C_25
    6  A    between atoms: C_21  and  C_25
                            x       y       z     vdW  Elec       q    Type
                         _______ _______ _______ _____ _____    ______ ____

>  <TORSDO>
F 6

$$$$
=
 OpenBabel11062409023D

 37 42  0  0  1  0  0  0  0  0999 V2000
  162.2870  203.9940  147.7990 C   0  0  0  0  0  2  0  0  0  0  0  0
  160.8530  206.3720  151.8550 C   0  0  1  0  0  3  0  0  0  0  0  0
  162.8420  204.1080  146.3660 C   0  0  2  0  0  3  0  0  0  0  0  0
  160.4900  207.9160  148.6780 C   0  0  0  0  0  3  0  0  0  0  0  0
  161.8910  204.1770  151.8430 O   0  0  0  0  0  0  0  0  0  0  0  0
  161.5000  206.4300  150.4680 C   0  0  2  0  0  3  0  0  0  0  0  0
  160.8450  204.9450  152.4060 C   0  0  1  0  0  3  0  0  0  0  0  0
  161.2500  207.7660  149.7840 C   0  0  0  0  0  0  0  0  0  0  0  0
  161.0700  205.0740  153.9010 C   0  0  0  0  0  2  0  0  0  0  0  0
  162.7990  205.5390  145.8060 C   0  0  0  0  0  2  0  0  0  0  0  0
  161.5970  203.9020  150.4810 C   0  0  2  0  0  3  0  0  0  0  0  0
  161.1930  208.6370  152.9750 C   0  0  0  0  0  2  0  0  0  0  0  0
  161.5810  206.4800  154.1680 C   0  0  0  0  0  2  0  0  0  0  0  0
  161.4830  206.2810  146.0980 C   0  0  2  0  0  3  0  0  0  0  0  0
  159.8090  206.8050  147.9360 C   0  0  0  0  0  2  0  0  0  0  0  0
  161.6760  207.1890  152.8340 C   0  0  1  0  0  3  0  0  0  0  0  0
  161.1880  205.1610  149.6640 C   0  0  2  0  0  3  0  0  0  0  0  0
  161.7810  208.9890  150.5060 C   0  0  2  0  0  3  0  0  0  0  0  0
  160.7850  205.7640  147.3620 C   0  0  2  0  0  3  0  0  0  0  0  0
  161.7900  205.2760  148.3210 N   0  0  2  0  0  0  0  0  0  0  0  0
  160.8470  209.3520  151.6610 C   0  0  0  0  0  2  0  0  0  0  0  0
  162.9010  209.9970  148.5020 C   0  0  0  0  0  3  0  0  0  0  0  0
  162.0620  210.1660  149.6100 C   0  0  0  0  0  0  0  0  0  0  0  0
  161.4670  211.4180  149.8430 C   0  0  0  0  0  3  0  0  0  0  0  0
  161.1510  213.6930  149.2200 F   0  0  0  0  0  0  0  0  0  0  0  0
  162.5700  212.3160  147.8850 C   0  0  0  0  0  3  0  0  0  0  0  0
  161.7220  212.4880  148.9840 C   0  0  0  0  0  0  0  0  0  0  0  0
  163.1570  211.0720  147.6420 C   0  0  0  0  0  3  0  0  0  0  0  0
  160.5510  206.2880  144.8900 C   0  0  0  0  0  2  0  0  0  0  0  0
  161.2060  205.8280  143.7450 O   0  0  0  0  0  1  0  0  0  0  0  0
  161.1030  202.7380  146.2990 C   0  0  0  0  0  1  0  0  0  0  0  0
  162.1460  203.2410  145.5220 O   0  0  0  0  0  0  0  0  0  0  0  0
  160.5450  202.8030  150.3400 C   0  0  0  0  0  2  0  0  0  0  0  0
  161.2030  201.4310  150.2580 C   0  0  0  0  0  2  0  0  0  0  0  0
  160.5760  200.5530  149.1810 C   0  0  2  0  0  3  0  0  0  0  0  0
  161.5810  200.2110  148.0960 C   0  0  0  0  0  1  0  0  0  0  0  0
  159.4530  201.1700  148.6240 O   0  0  0  0  0  1  0  0  0  0  0  0
  1 20  1  0  0  0  0
  2  7  1  0  0  0  0
  2 16  1  0  0  0  0
  3  1  1  0  0  0  0
  4  8  2  0  0  0  0
  5  7  1  0  0  0  0
  6  2  1  0  0  0  0
  7  9  1  0  0  0  0
  8  6  1  0  0  0  0
  8 18  1  0  0  0  0
  9 13  1  0  0  0  0
 10 14  1  0  0  0  0
 10  3  1  0  0  0  0
 11  5  1  0  0  0  0
 14 19  1  0  0  0  0
 15  4  1  0  0  0  0
 16 12  1  0  0  0  0
 16 13  1  0  0  0  0
 17  6  1  0  0  0  0
 17 11  1  0  0  0  0
 18 21  1  0  0  0  0
 19 15  1  0  0  0  0
 19 20  1  0  0  0  0
 20 17  1  0  0  0  0
 21 12  1  0  0  0  0
 22 23  1  0  0  0  0
 23 24  2  0  0  0  0
 23 18  1  0  0  0  0
 26 27  2  0  0  0  0
 27 25  1  0  0  0  0
 27 24  1  0  0  0  0
 28 26  1  0  0  0  0
 28 22  2  0  0  0  0
 29 14  1  0  0  0  0
 30 29  1  0  0  0  0
 32 31  1  0  0  0  0
 32  3  1  0  0  0  0
 33 11  1  0  0  0  0
 34 33  1  0  0  0  0
 35 34  1  0  0  0  0
 36 35  1  0  0  0  0
 37 35  1  0  0  0  0
M  END
>  <MODEL>
7

>  <REMARK>
 VINA RESULT:      -3.2      4.099      7.882
  Name = 
  6 active torsions:
  status: ('A' for Active; 'I' for Inactive)
    1  A    between atoms: C_3  and  C_21
    2  A    between atoms: C_5  and  O_23
    3  A    between atoms: C_6  and  C_31
    4  A    between atoms: C_11  and  C_26
    5  A    between atoms: C_20  and  C_25
    6  A    between atoms: C_21  and  C_25
                            x       y       z     vdW  Elec       q    Type
                         _______ _______ _______ _____ _____    ______ ____

>  <TORSDO>
F 6

$$$$
