=
 OpenBabel11062408143D

 32 37  0  0  1  0  0  0  0  0999 V2000
  160.0760  211.9240  153.8680 C   0  0  1  0  0  3  0  0  0  0  0  0
  160.9370  209.6760  154.2920 C   0  0  1  0  0  3  0  0  0  0  0  0
  158.8730  211.9120  154.8050 C   0  0  0  0  0  2  0  0  0  0  0  0
  161.2400  211.0940  154.4220 C   0  0  2  0  0  3  0  0  0  0  0  0
  161.4360  207.7200  155.6370 C   0  0  1  0  0  3  0  0  0  0  0  0
  161.8770  206.3790  150.6830 C   0  0  0  0  0  3  0  0  0  0  0  0
  161.0350  209.3840  152.8180 C   0  0  2  0  0  3  0  0  0  0  0  0
  161.2170  205.5370  152.8480 C   0  0  0  0  0  3  0  0  0  0  0  0
  160.9830  206.8400  153.3010 C   0  0  0  0  0  0  0  0  0  0  0  0
  161.5570  211.1370  155.8900 C   0  0  2  0  0  3  0  0  0  0  0  0
  160.4550  207.0020  154.6910 C   0  0  0  0  0  2  0  0  0  0  0  0
  162.1780  209.8910  156.1870 O   0  0  0  0  0  0  0  0  0  0  0  0
  160.2990  211.2960  156.7640 C   0  0  0  0  0  2  0  0  0  0  0  0
  159.8040  210.0530  152.1850 C   0  0  0  0  0  2  0  0  0  0  0  0
  159.7010  211.5070  152.4920 N   0  0  2  0  0  0  0  0  0  0  0  0
  161.1960  207.9350  152.4260 C   0  0  0  0  0  0  0  0  0  0  0  0
  161.9270  209.0320  155.1350 N   0  0  2  0  0  0  0  0  0  0  0  0
  159.3230  212.3280  156.2020 C   0  0  0  0  0  2  0  0  0  0  0  0
  161.6630  205.3050  151.5470 C   0  0  0  0  0  3  0  0  0  0  0  0
  161.6470  207.6850  151.1230 C   0  0  0  0  0  3  0  0  0  0  0  0
  158.5370  213.1210  149.2240 C   0  0  1  0  0  3  0  0  0  0  0  0
  161.8920  214.4530  149.3050 C   0  0  0  0  0  1  0  0  0  0  0  0
  157.1860  213.1980  148.5460 C   0  0  0  0  0  1  0  0  0  0  0  0
  161.1820  212.0400  149.0590 C   0  0  0  0  0  3  0  0  0  0  0  0
  160.4100  212.3380  151.5060 C   0  0  1  0  0  3  0  0  0  0  0  0
  159.5560  213.9430  148.4240 C   0  0  0  0  0  2  0  0  0  0  0  0
  160.9030  211.5680  150.2890 C   0  0  0  0  0  3  0  0  0  0  0  0
  158.4060  213.5670  150.6120 N   0  0  0  0  0  2  0  0  0  0  0  0
  159.7060  213.6840  151.2760 C   0  0  0  0  0  2  0  0  0  0  0  0
  161.0100  213.4580  148.5720 C   0  0  1  0  0  3  0  0  0  0  0  0
  160.8400  207.7700  157.0200 C   0  0  0  0  0  3  0  0  0  0  0  0
  159.7650  207.2410  157.2600 O   0  0  0  0  0  0  0  0  0  0  0  0
  1  4  1  0  0  0  0
  1  3  1  1  0  0  0
  2  4  1  0  0  0  0
  2 17  1  0  0  0  0
  3 18  1  0  0  0  0
  4 10  1  0  0  0  0
  5 31  1  0  0  0  0
  6 20  2  0  0  0  0
  6 19  1  0  0  0  0
  7  2  1  0  0  0  0
  8  9  1  0  0  0  0
  9 11  1  0  0  0  0
 10 12  1  0  0  0  0
 10 13  1  0  0  0  0
 11  5  1  0  0  0  0
 14 15  1  0  0  0  0
 14  7  1  0  0  0  0
 15  1  1  0  0  0  0
 16  7  1  0  0  0  0
 16  9  2  0  0  0  0
 17  5  1  0  0  0  0
 17 12  1  0  0  0  0
 18 13  1  0  0  0  0
 19  8  2  0  0  0  0
 20 16  1  0  0  0  0
 21 28  1  0  0  0  0
 23 21  1  0  0  0  0
 24 27  2  0  0  0  0
 25 15  1  0  0  0  0
 26 30  1  0  0  0  0
 26 21  1  0  0  0  0
 27 25  1  0  0  0  0
 28 29  1  0  0  0  0
 29 25  1  0  0  0  0
 30 24  1  0  0  0  0
 30 22  1  0  0  0  0
 31 32  2  0  0  0  0
M  END
>  <MODEL>
1

>  <REMARK>
 VINA RESULT:      -6.3      0.000      0.000
  Name = 
  2 active torsions:
  status: ('A' for Active; 'I' for Inactive)
    1  A    between atoms: C_6  and  C_13
    2  A    between atoms: C_16  and  N_27
                            x       y       z     vdW  Elec       q    Type
                         _______ _______ _______ _____ _____    ______ ____

>  <TORSDO>
F 2

$$$$
=
 OpenBabel11062408143D

 32 37  0  0  1  0  0  0  0  0999 V2000
  161.7150  208.5630  148.7020 C   0  0  1  0  0  3  0  0  0  0  0  0
  161.2140  207.2890  150.7270 C   0  0  1  0  0  3  0  0  0  0  0  0
  162.9970  207.8580  148.2730 C   0  0  0  0  0  2  0  0  0  0  0  0
  160.7360  207.6030  149.3880 C   0  0  2  0  0  3  0  0  0  0  0  0
  161.1230  205.3070  152.1230 C   0  0  1  0  0  3  0  0  0  0  0  0
  160.3710  209.4040  155.1530 C   0  0  0  0  0  3  0  0  0  0  0  0
  161.0080  208.5490  151.5260 C   0  0  2  0  0  3  0  0  0  0  0  0
  161.3540  207.1980  155.1170 C   0  0  0  0  0  3  0  0  0  0  0  0
  161.4530  207.2490  153.7220 C   0  0  0  0  0  0  0  0  0  0  0  0
  160.5660  206.2060  148.8610 C   0  0  2  0  0  3  0  0  0  0  0  0
  162.0910  206.0840  153.0330 C   0  0  0  0  0  2  0  0  0  0  0  0
  160.1520  205.4230  149.9750 O   0  0  0  0  0  0  0  0  0  0  0  0
  161.8720  205.6250  148.2900 C   0  0  0  0  0  2  0  0  0  0  0  0
  162.0670  209.5380  151.0120 C   0  0  0  0  0  2  0  0  0  0  0  0
  162.0020  209.7560  149.5390 N   0  0  2  0  0  0  0  0  0  0  0  0
  161.0070  208.4030  153.0290 C   0  0  0  0  0  0  0  0  0  0  0  0
  160.4110  206.1480  151.1220 N   0  0  2  0  0  0  0  0  0  0  0  0
  162.6370  206.6340  147.4360 C   0  0  0  0  0  2  0  0  0  0  0  0
  160.8140  208.2680  155.8300 C   0  0  0  0  0  3  0  0  0  0  0  0
  160.4650  209.4680  153.7610 C   0  0  0  0  0  3  0  0  0  0  0  0
  162.6770  213.3360  148.3660 C   0  0  1  0  0  3  0  0  0  0  0  0
  159.0770  213.3610  148.0960 C   0  0  0  0  0  1  0  0  0  0  0  0
  163.9530  214.0800  148.0360 C   0  0  0  0  0  1  0  0  0  0  0  0
  160.4790  213.1500  150.1890 C   0  0  0  0  0  3  0  0  0  0  0  0
  161.0920  210.8550  149.1770 C   0  0  1  0  0  3  0  0  0  0  0  0
  161.4710  214.2350  148.0660 C   0  0  0  0  0  2  0  0  0  0  0  0
  160.8690  211.8660  150.2920 C   0  0  0  0  0  3  0  0  0  0  0  0
  162.6500  212.0740  147.6240 N   0  0  0  0  0  2  0  0  0  0  0  0
  161.3650  211.3850  147.7620 C   0  0  0  0  0  2  0  0  0  0  0  0
  160.2260  213.9220  148.9160 C   0  0  1  0  0  3  0  0  0  0  0  0
  161.8430  204.1220  151.5350 C   0  0  0  0  0  3  0  0  0  0  0  0
  161.4590  202.9830  151.7520 O   0  0  0  0  0  0  0  0  0  0  0  0
  1  3  1  1  0  0  0
  1  4  1  0  0  0  0
  1 15  1  0  0  0  0
  2 17  1  0  0  0  0
  2  7  1  0  0  0  0
  4  2  1  0  0  0  0
  5 11  1  0  0  0  0
  6 19  1  0  0  0  0
  7 16  1  0  0  0  0
  8 19  2  0  0  0  0
  9  8  1  0  0  0  0
 10  4  1  0  0  0  0
 10 12  1  0  0  0  0
 11  9  1  0  0  0  0
 12 17  1  0  0  0  0
 13 10  1  0  0  0  0
 14  7  1  0  0  0  0
 15 14  1  0  0  0  0
 16  9  2  0  0  0  0
 16 20  1  0  0  0  0
 17  5  1  0  0  0  0
 18  3  1  0  0  0  0
 18 13  1  0  0  0  0
 20  6  2  0  0  0  0
 22 30  1  0  0  0  0
 23 21  1  0  0  0  0
 24 27  2  0  0  0  0
 25 15  1  0  0  0  0
 25 27  1  0  0  0  0
 26 21  1  0  0  0  0
 26 30  1  0  0  0  0
 28 29  1  0  0  0  0
 28 21  1  0  0  0  0
 29 25  1  0  0  0  0
 30 24  1  0  0  0  0
 31 32  2  0  0  0  0
 31  5  1  0  0  0  0
M  END
>  <MODEL>
2

>  <REMARK>
 VINA RESULT:      -5.4      2.814      5.394
  Name = 
  2 active torsions:
  status: ('A' for Active; 'I' for Inactive)
    1  A    between atoms: C_6  and  C_13
    2  A    between atoms: C_16  and  N_27
                            x       y       z     vdW  Elec       q    Type
                         _______ _______ _______ _____ _____    ______ ____

>  <TORSDO>
F 2

$$$$
=
 OpenBabel11062408143D

 32 37  0  0  1  0  0  0  0  0999 V2000
  161.7340  207.5550  150.7600 C   0  0  1  0  0  3  0  0  0  0  0  0
  161.2630  205.7710  149.1570 C   0  0  1  0  0  3  0  0  0  0  0  0
  163.0340  208.0880  150.1680 C   0  0  0  0  0  2  0  0  0  0  0  0
  160.7790  207.0420  149.6770 C   0  0  2  0  0  3  0  0  0  0  0  0
  161.2200  204.7230  146.9700 C   0  0  1  0  0  3  0  0  0  0  0  0
  160.3620  201.0610  150.4900 C   0  0  0  0  0  3  0  0  0  0  0  0
  161.0250  204.7760  150.2620 C   0  0  2  0  0  3  0  0  0  0  0  0
  161.4010  201.4560  148.3450 C   0  0  0  0  0  3  0  0  0  0  0  0
  161.5000  202.8230  148.6290 C   0  0  0  0  0  0  0  0  0  0  0  0
  160.6450  207.7940  148.3820 C   0  0  2  0  0  3  0  0  0  0  0  0
  162.1680  203.6910  147.6100 C   0  0  0  0  0  2  0  0  0  0  0  0
  160.2500  206.8270  147.4150 O   0  0  0  0  0  0  0  0  0  0  0  0
  161.9660  208.4460  147.9350 C   0  0  0  0  0  2  0  0  0  0  0  0
  162.0590  205.1140  151.3480 C   0  0  0  0  0  2  0  0  0  0  0  0
  161.9900  206.5310  151.8060 N   0  0  2  0  0  0  0  0  0  0  0  0
  161.0260  203.3180  149.8700 C   0  0  0  0  0  0  0  0  0  0  0  0
  160.4880  205.5750  147.9470 N   0  0  2  0  0  0  0  0  0  0  0  0
  162.7060  209.1180  149.0900 C   0  0  0  0  0  2  0  0  0  0  0  0
  160.8330  200.5780  149.2690 C   0  0  0  0  0  3  0  0  0  0  0  0
  160.4560  202.4230  150.7850 C   0  0  0  0  0  3  0  0  0  0  0  0
  161.7670  209.2120  154.5270 C   0  0  1  0  0  3  0  0  0  0  0  0
  158.8020  207.3380  155.3860 C   0  0  0  0  0  1  0  0  0  0  0  0
  162.5470  210.4850  154.7750 C   0  0  0  0  0  1  0  0  0  0  0  0
  161.2100  206.5780  155.5000 C   0  0  0  0  0  3  0  0  0  0  0  0
  161.0530  206.7110  152.9260 C   0  0  1  0  0  3  0  0  0  0  0  0
  160.6390  209.0960  155.5610 C   0  0  0  0  0  2  0  0  0  0  0  0
  161.5810  206.2060  154.2610 C   0  0  0  0  0  3  0  0  0  0  0  0
  161.2800  209.2060  153.1460 N   0  0  0  0  0  2  0  0  0  0  0  0
  160.3720  208.0860  152.8900 C   0  0  0  0  0  2  0  0  0  0  0  0
  160.2100  207.6490  155.8640 C   0  0  1  0  0  3  0  0  0  0  0  0
  161.9710  205.4950  145.9160 C   0  0  0  0  0  3  0  0  0  0  0  0
  161.6550  205.4190  144.7390 O   0  0  0  0  0  0  0  0  0  0  0  0
  1  3  1  6  0  0  0
  1 15  1  0  0  0  0
  2  4  1  0  0  0  0
  2  7  1  0  0  0  0
  4  1  1  0  0  0  0
  5 11  1  0  0  0  0
  5 17  1  0  0  0  0
  6 20  1  0  0  0  0
  7 14  1  0  0  0  0
  8  9  2  0  0  0  0
  8 19  1  0  0  0  0
  9 16  1  0  0  0  0
 10  4  1  0  0  0  0
 11  9  1  0  0  0  0
 12 17  1  0  0  0  0
 12 10  1  0  0  0  0
 13 10  1  0  0  0  0
 13 18  1  0  0  0  0
 14 15  1  0  0  0  0
 15 25  1  0  0  0  0
 16  7  1  0  0  0  0
 16 20  2  0  0  0  0
 17  2  1  0  0  0  0
 18  3  1  0  0  0  0
 19  6  2  0  0  0  0
 21 23  1  0  0  0  0
 21 26  1  0  0  0  0
 22 30  1  0  0  0  0
 24 30  1  0  0  0  0
 25 27  1  0  0  0  0
 26 30  1  0  0  0  0
 27 24  2  0  0  0  0
 28 21  1  0  0  0  0
 29 25  1  0  0  0  0
 29 28  1  0  0  0  0
 31  5  1  0  0  0  0
 32 31  2  0  0  0  0
M  END
>  <MODEL>
3

>  <REMARK>
 VINA RESULT:      -4.1      4.091      7.664
  Name = 
  2 active torsions:
  status: ('A' for Active; 'I' for Inactive)
    1  A    between atoms: C_6  and  C_13
    2  A    between atoms: C_16  and  N_27
                            x       y       z     vdW  Elec       q    Type
                         _______ _______ _______ _____ _____    ______ ____

>  <TORSDO>
F 2

$$$$
=
 OpenBabel11062408143D

 32 37  0  0  1  0  0  0  0  0999 V2000
  159.0310  213.3720  152.7210 C   0  0  1  0  0  3  0  0  0  0  0  0
  159.7650  211.5600  154.1870 C   0  0  1  0  0  3  0  0  0  0  0  0
  157.5840  213.4990  153.1840 C   0  0  0  0  0  2  0  0  0  0  0  0
  159.9650  212.9660  153.8660 C   0  0  2  0  0  3  0  0  0  0  0  0
  159.8400  210.2790  156.2450 C   0  0  1  0  0  3  0  0  0  0  0  0
  161.9600  207.4140  152.5270 C   0  0  0  0  0  3  0  0  0  0  0  0
  160.3620  210.8020  153.0310 C   0  0  2  0  0  3  0  0  0  0  0  0
  160.6360  207.2690  154.5410 C   0  0  0  0  0  3  0  0  0  0  0  0
  160.2260  208.5980  154.3840 C   0  0  0  0  0  0  0  0  0  0  0  0
  159.7680  213.5540  155.2350 C   0  0  2  0  0  3  0  0  0  0  0  0
  159.2570  209.1430  155.3860 C   0  0  0  0  0  2  0  0  0  0  0  0
  160.2900  212.5930  156.1450 O   0  0  0  0  0  0  0  0  0  0  0  0
  158.2860  213.8090  155.5630 C   0  0  0  0  0  2  0  0  0  0  0  0
  159.3960  211.0210  151.8550 C   0  0  0  0  0  2  0  0  0  0  0  0
  159.1530  212.4600  151.5540 N   0  0  2  0  0  0  0  0  0  0  0  0
  160.6880  209.3480  153.2730 C   0  0  0  0  0  0  0  0  0  0  0  0
  160.4320  211.3990  155.4650 N   0  0  2  0  0  0  0  0  0  0  0  0
  157.5250  214.4290  154.3920 C   0  0  0  0  0  2  0  0  0  0  0  0
  161.5010  206.6790  153.6200 C   0  0  0  0  0  3  0  0  0  0  0  0
  161.5580  208.7400  152.3580 C   0  0  0  0  0  3  0  0  0  0  0  0
  159.0050  212.8910  147.7540 C   0  0  1  0  0  3  0  0  0  0  0  0
  162.2080  214.4510  148.3390 C   0  0  0  0  0  1  0  0  0  0  0  0
  157.9090  212.6460  146.7400 C   0  0  0  0  0  1  0  0  0  0  0  0
  161.5710  212.0300  148.6850 C   0  0  0  0  0  3  0  0  0  0  0  0
  160.1260  213.0020  150.5930 C   0  0  1  0  0  3  0  0  0  0  0  0
  160.2220  213.5070  147.0520 C   0  0  0  0  0  2  0  0  0  0  0  0
  160.9410  211.9380  149.8720 C   0  0  0  0  0  3  0  0  0  0  0  0
  158.4830  213.7300  148.8340 N   0  0  0  0  0  2  0  0  0  0  0  0
  159.5360  214.1500  149.7610 C   0  0  0  0  0  2  0  0  0  0  0  0
  161.5640  213.2100  147.7450 C   0  0  1  0  0  3  0  0  0  0  0  0
  158.8130  210.7070  157.2610 C   0  0  0  0  0  3  0  0  0  0  0  0
  157.6650  210.9540  156.9260 O   0  0  0  0  0  0  0  0  0  0  0  0
  1  3  1  1  0  0  0
  1  4  1  0  0  0  0
  2 17  1  0  0  0  0
  3 18  1  0  0  0  0
  4  2  1  0  0  0  0
  4 10  1  0  0  0  0
  5 31  1  0  0  0  0
  6 19  1  0  0  0  0
  7 16  1  0  0  0  0
  7  2  1  0  0  0  0
  9  8  1  0  0  0  0
  9 11  1  0  0  0  0
 10 13  1  0  0  0  0
 10 12  1  0  0  0  0
 11  5  1  0  0  0  0
 14  7  1  0  0  0  0
 15 14  1  0  0  0  0
 15  1  1  0  0  0  0
 16  9  2  0  0  0  0
 17 12  1  0  0  0  0
 17  5  1  0  0  0  0
 18 13  1  0  0  0  0
 19  8  2  0  0  0  0
 20  6  2  0  0  0  0
 20 16  1  0  0  0  0
 21 28  1  0  0  0  0
 23 21  1  0  0  0  0
 24 27  2  0  0  0  0
 25 15  1  0  0  0  0
 26 30  1  0  0  0  0
 26 21  1  0  0  0  0
 27 25  1  0  0  0  0
 28 29  1  0  0  0  0
 29 25  1  0  0  0  0
 30 22  1  0  0  0  0
 30 24  1  0  0  0  0
 32 31  2  0  0  0  0
M  END
>  <MODEL>
4

>  <REMARK>
 VINA RESULT:      -3.8      1.746      2.317
  Name = 
  2 active torsions:
  status: ('A' for Active; 'I' for Inactive)
    1  A    between atoms: C_6  and  C_13
    2  A    between atoms: C_16  and  N_27
                            x       y       z     vdW  Elec       q    Type
                         _______ _______ _______ _____ _____    ______ ____

>  <TORSDO>
F 2

$$$$
=
 OpenBabel11062408143D

 32 37  0  0  1  0  0  0  0  0999 V2000
  161.4430  208.5440  151.3690 C   0  0  1  0  0  3  0  0  0  0  0  0
  161.7860  206.2310  150.6580 C   0  0  1  0  0  3  0  0  0  0  0  0
  160.2520  208.3460  152.3000 C   0  0  0  0  0  2  0  0  0  0  0  0
  162.3900  207.3390  151.3860 C   0  0  2  0  0  3  0  0  0  0  0  0
  161.8280  203.8210  150.9300 C   0  0  1  0  0  3  0  0  0  0  0  0
  162.0390  204.8420  145.8860 C   0  0  0  0  0  3  0  0  0  0  0  0
  161.8400  206.6340  149.2080 C   0  0  2  0  0  3  0  0  0  0  0  0
  161.1790  203.2520  147.4880 C   0  0  0  0  0  3  0  0  0  0  0  0
  161.2290  204.2200  148.4970 C   0  0  0  0  0  0  0  0  0  0  0  0
  162.6860  206.6400  152.6830 C   0  0  2  0  0  3  0  0  0  0  0  0
  160.7280  203.8290  149.8520 C   0  0  0  0  0  2  0  0  0  0  0  0
  163.0160  205.3010  152.3310 O   0  0  0  0  0  0  0  0  0  0  0  0
  161.4800  206.6290  153.6400 C   0  0  0  0  0  2  0  0  0  0  0  0
  160.7950  207.7500  149.0540 C   0  0  0  0  0  2  0  0  0  0  0  0
  161.0060  208.8900  149.9910 N   0  0  2  0  0  0  0  0  0  0  0  0
  161.6870  205.5270  148.1930 C   0  0  0  0  0  0  0  0  0  0  0  0
  162.6000  205.0900  151.0310 N   0  0  2  0  0  0  0  0  0  0  0  0
  160.7610  207.9760  153.6900 C   0  0  0  0  0  2  0  0  0  0  0  0
  161.5840  203.5590  146.1880 C   0  0  0  0  0  3  0  0  0  0  0  0
  162.0930  205.8170  146.8840 C   0  0  0  0  0  3  0  0  0  0  0  0
  160.6120  212.6820  149.6610 C   0  0  1  0  0  3  0  0  0  0  0  0
  163.9700  212.3850  148.3670 C   0  0  0  0  0  1  0  0  0  0  0  0
  159.5440  213.6430  150.1340 C   0  0  0  0  0  1  0  0  0  0  0  0
  161.8320  211.4780  147.3680 C   0  0  0  0  0  3  0  0  0  0  0  0
  161.8930  209.9190  149.4260 C   0  0  1  0  0  3  0  0  0  0  0  0
  161.7560  213.4700  149.0100 C   0  0  0  0  0  2  0  0  0  0  0  0
  161.5390  210.3280  148.0040 C   0  0  0  0  0  3  0  0  0  0  0  0
  161.0540  211.8590  150.7890 N   0  0  0  0  0  2  0  0  0  0  0  0
  162.2080  211.0270  150.4420 C   0  0  0  0  0  2  0  0  0  0  0  0
  162.5400  212.6790  147.9470 C   0  0  1  0  0  3  0  0  0  0  0  0
  161.2360  203.3510  152.2330 C   0  0  0  0  0  3  0  0  0  0  0  0
  160.0930  203.6460  152.5470 O   0  0  0  0  0  0  0  0  0  0  0  0
  1  4  1  0  0  0  0
  1  3  1  1  0  0  0
  2 17  1  0  0  0  0
  2  4  1  0  0  0  0
  3 18  1  0  0  0  0
  4 10  1  0  0  0  0
  5 17  1  0  0  0  0
  5 31  1  0  0  0  0
  6 19  2  0  0  0  0
  6 20  1  0  0  0  0
  7  2  1  0  0  0  0
  8  9  2  0  0  0  0
  9 11  1  0  0  0  0
 10 13  1  0  0  0  0
 11  5  1  0  0  0  0
 12 10  1  0  0  0  0
 13 18  1  0  0  0  0
 14  7  1  0  0  0  0
 14 15  1  0  0  0  0
 15  1  1  0  0  0  0
 16  9  1  0  0  0  0
 16  7  1  0  0  0  0
 17 12  1  0  0  0  0
 19  8  1  0  0  0  0
 20 16  2  0  0  0  0
 21 23  1  0  0  0  0
 21 28  1  0  0  0  0
 24 30  1  0  0  0  0
 24 27  2  0  0  0  0
 25 15  1  0  0  0  0
 25 29  1  0  0  0  0
 26 21  1  0  0  0  0
 27 25  1  0  0  0  0
 29 28  1  0  0  0  0
 30 22  1  0  0  0  0
 30 26  1  0  0  0  0
 31 32  2  0  0  0  0
M  END
>  <MODEL>
5

>  <REMARK>
 VINA RESULT:      -3.5      2.997      4.672
  Name = 
  2 active torsions:
  status: ('A' for Active; 'I' for Inactive)
    1  A    between atoms: C_6  and  C_13
    2  A    between atoms: C_16  and  N_27
                            x       y       z     vdW  Elec       q    Type
                         _______ _______ _______ _____ _____    ______ ____

>  <TORSDO>
F 2

$$$$
=
 OpenBabel11062408143D

 32 37  0  0  1  0  0  0  0  0999 V2000
  161.0140  211.5210  151.5710 C   0  0  1  0  0  3  0  0  0  0  0  0
  159.2940  213.0160  150.6890 C   0  0  1  0  0  3  0  0  0  0  0  0
  161.1050  210.5330  150.4130 C   0  0  0  0  0  2  0  0  0  0  0  0
  160.6920  212.9400  151.0890 C   0  0  2  0  0  3  0  0  0  0  0  0
  158.1040  214.2380  148.9640 C   0  0  1  0  0  3  0  0  0  0  0  0
  155.1670  214.2240  153.1950 C   0  0  0  0  0  3  0  0  0  0  0  0
  158.5110  212.9520  151.9730 C   0  0  2  0  0  3  0  0  0  0  0  0
  155.0580  214.1750  150.7830 C   0  0  0  0  0  3  0  0  0  0  0  0
  156.3620  213.6720  150.7190 C   0  0  0  0  0  0  0  0  0  0  0  0
  161.3290  213.4640  149.8330 C   0  0  2  0  0  3  0  0  0  0  0  0
  156.9120  213.3510  149.3650 C   0  0  0  0  0  2  0  0  0  0  0  0
  160.4270  214.4400  149.3230 O   0  0  0  0  0  0  0  0  0  0  0  0
  161.5420  212.3690  148.7730 C   0  0  0  0  0  2  0  0  0  0  0  0
  158.6440  211.5000  152.4620 C   0  0  0  0  0  2  0  0  0  0  0  0
  160.0590  211.0570  152.6110 N   0  0  2  0  0  0  0  0  0  0  0  0
  157.0810  213.4350  151.9180 C   0  0  0  0  0  0  0  0  0  0  0  0
  159.2120  214.2660  149.9570 N   0  0  2  0  0  0  0  0  0  0  0  0
  162.0820  211.0720  149.3730 C   0  0  0  0  0  2  0  0  0  0  0  0
  154.4620  214.4520  152.0130 C   0  0  0  0  0  3  0  0  0  0  0  0
  156.4690  213.7210  153.1450 C   0  0  0  0  0  3  0  0  0  0  0  0
  160.3560  208.8880  155.7500 C   0  0  1  0  0  3  0  0  0  0  0  0
  162.0280  211.8400  156.9860 C   0  0  0  0  0  1  0  0  0  0  0  0
  160.0450  207.4320  156.0190 C   0  0  0  0  0  1  0  0  0  0  0  0
  159.6020  211.5900  156.3210 C   0  0  0  0  0  3  0  0  0  0  0  0
  160.5960  211.3440  153.9500 C   0  0  1  0  0  3  0  0  0  0  0  0
  160.9830  209.5160  157.0010 C   0  0  0  0  0  2  0  0  0  0  0  0
  159.5320  211.6940  154.9810 C   0  0  0  0  0  3  0  0  0  0  0  0
  161.2160  208.9870  154.5690 N   0  0  0  0  0  2  0  0  0  0  0  0
  161.6970  210.3530  154.3530 C   0  0  0  0  0  2  0  0  0  0  0  0
  160.7500  211.0320  157.1290 C   0  0  1  0  0  3  0  0  0  0  0  0
  158.5350  213.8810  147.5650 C   0  0  0  0  0  3  0  0  0  0  0  0
  158.5320  212.7210  147.1840 O   0  0  0  0  0  0  0  0  0  0  0  0
  1  3  1  6  0  0  0
  1 15  1  0  0  0  0
  2  4  1  0  0  0  0
  2  7  1  0  0  0  0
  4  1  1  0  0  0  0
  5 11  1  0  0  0  0
  5 17  1  0  0  0  0
  7 14  1  0  0  0  0
  8 19  1  0  0  0  0
  9  8  2  0  0  0  0
  9 16  1  0  0  0  0
 10  4  1  0  0  0  0
 11  9  1  0  0  0  0
 12 10  1  0  0  0  0
 12 17  1  0  0  0  0
 13 18  1  0  0  0  0
 13 10  1  0  0  0  0
 14 15  1  0  0  0  0
 15 25  1  0  0  0  0
 16  7  1  0  0  0  0
 16 20  2  0  0  0  0
 17  2  1  0  0  0  0
 18  3  1  0  0  0  0
 19  6  2  0  0  0  0
 20  6  1  0  0  0  0
 21 23  1  0  0  0  0
 21 26  1  0  0  0  0
 22 30  1  0  0  0  0
 24 30  1  0  0  0  0
 25 29  1  0  0  0  0
 25 27  1  0  0  0  0
 26 30  1  0  0  0  0
 27 24  2  0  0  0  0
 28 21  1  0  0  0  0
 29 28  1  0  0  0  0
 31  5  1  0  0  0  0
 32 31  2  0  0  0  0
M  END
>  <MODEL>
6

>  <REMARK>
 VINA RESULT:      -3.4      3.090      7.808
  Name = 
  2 active torsions:
  status: ('A' for Active; 'I' for Inactive)
    1  A    between atoms: C_6  and  C_13
    2  A    between atoms: C_16  and  N_27
                            x       y       z     vdW  Elec       q    Type
                         _______ _______ _______ _____ _____    ______ ____

>  <TORSDO>
F 2

$$$$
