=
 OpenBabel11062407553D

 34 38  0  0  0  0  0  0  0  0999 V2000
  161.5090  212.2030  149.3650 C   0  0  0  0  0  0  0  0  0  0  0  0
  159.9220  213.0630  150.9880 C   0  0  0  0  0  0  0  0  0  0  0  0
  161.0540  210.8210  151.3390 C   0  0  0  0  0  0  0  0  0  0  0  0
  160.9620  209.4050  153.3070 C   0  0  0  0  0  0  0  0  0  0  0  0
  160.6550  214.4520  149.1400 C   0  0  0  0  0  3  0  0  0  0  0  0
  160.1490  205.5490  150.2670 C   0  0  0  0  0  2  0  0  0  0  0  0
  161.2270  204.5860  150.7520 C   0  0  0  0  0  2  0  0  0  0  0  0
  159.8800  214.2680  150.2810 C   0  0  0  0  0  3  0  0  0  0  0  0
  160.4390  211.6180  153.5990 N   0  0  0  0  0  0  0  0  0  0  0  0
  162.3640  207.3060  150.6580 N   0  0  0  0  0  0  0  0  0  0  0  0
  160.8320  212.0360  150.6060 C   0  0  0  0  0  0  0  0  0  0  0  0
  162.0020  205.2130  151.9050 C   0  0  0  0  0  2  0  0  0  0  0  0
  159.9520  211.9260  155.9790 N   0  0  0  0  0  2  0  0  0  0  0  0
  160.6460  209.4750  154.9530 S   0  0  0  0  0  0  0  0  0  0  0  0
  161.4440  213.4100  148.6680 C   0  0  0  0  0  3  0  0  0  0  0  0
  162.2800  209.9210  149.4250 C   0  0  0  0  0  3  0  0  0  0  0  0
  162.0430  206.9950  149.2680 C   0  0  0  0  0  2  0  0  0  0  0  0
  162.2160  211.1530  148.7910 C   0  0  0  0  0  3  0  0  0  0  0  0
  158.9740  212.8880  151.9860 O   0  0  0  0  0  1  0  0  0  0  0  0
  161.4570  208.3430  152.6370 N   0  0  0  0  0  0  0  0  0  0  0  0
  163.0170  206.2480  151.4220 C   0  0  0  0  0  2  0  0  0  0  0  0
  161.8200  208.4610  151.3300 C   0  0  0  0  0  0  0  0  0  0  0  0
  160.3090  211.1250  154.8540 C   0  0  0  0  0  0  0  0  0  0  0  0
  160.6160  206.4590  149.1240 C   0  0  0  0  0  2  0  0  0  0  0  0
  160.7720  210.6420  152.7150 C   0  0  0  0  0  0  0  0  0  0  0  0
  161.6940  209.7220  150.6780 C   0  0  0  0  0  0  0  0  0  0  0  0
  159.6800  213.3460  155.8460 C   0  0  0  0  0  2  0  0  0  0  0  0
  158.2300  213.6170  156.1850 C   0  0  0  0  0  2  0  0  0  0  0  0
  157.4930  213.9000  154.9650 N   0  0  0  0  0  2  0  0  0  0  0  0
  155.2490  213.2320  153.7490 O   0  0  0  0  0  0  0  0  0  0  0  0
  155.2240  213.3050  156.1970 O   0  0  0  0  0  0  0  0  0  0  0  0
  156.0470  212.9490  154.9900 S   0  0  0  0  0  0  0  0  0  0  0  0
  155.3210  210.4610  154.7330 O   0  0  0  0  0  1  0  0  0  0  0  0
  156.4520  211.2160  155.0410 C   0  0  0  0  0  2  0  0  0  0  0  0
  1 11  1  0  0  0  0
  2 19  1  0  0  0  0
  3 25  1  0  0  0  0
  4 14  1  0  0  0  0
  5  8  1  0  0  0  0
  6  7  1  0  0  0  0
  7 12  1  0  0  0  0
  8  2  2  0  0  0  0
  9 23  2  0  0  0  0
 10 22  1  0  0  0  0
 10 21  1  0  0  0  0
 11  2  1  0  0  0  0
 11  3  2  0  0  0  0
 15  5  2  0  0  0  0
 15  1  1  0  0  0  0
 16 26  2  0  0  0  0
 17 10  1  0  0  0  0
 18  1  2  0  0  0  0
 18 16  1  0  0  0  0
 20  4  1  0  0  0  0
 21 12  1  0  0  0  0
 22 20  2  0  0  0  0
 23 14  1  0  0  0  0
 23 13  1  0  0  0  0
 24 17  1  0  0  0  0
 24  6  1  0  0  0  0
 25  4  2  0  0  0  0
 25  9  1  0  0  0  0
 26 22  1  0  0  0  0
 26  3  1  0  0  0  0
 27 13  1  0  0  0  0
 27 28  1  0  0  0  0
 29 32  1  0  0  0  0
 29 28  1  0  0  0  0
 30 32  2  0  0  0  0
 32 34  1  0  0  0  0
 32 31  2  0  0  0  0
 33 34  1  0  0  0  0
M  END
>  <MODEL>
1

>  <REMARK>
 VINA RESULT:      -6.4      0.000      0.000
  Name = 
  5 active torsions:
  status: ('A' for Active; 'I' for Inactive)
    1  A    between atoms: C_3  and  C_13
    2  A    between atoms: C_3  and  N_17
    3  A    between atoms: C_13  and  N_33
    4  A    between atoms: C_14  and  S_34
    5  A    between atoms: N_33  and  S_34
                            x       y       z     vdW  Elec       q    Type
                         _______ _______ _______ _____ _____    ______ ____

>  <TORSDO>
F 5

$$$$
=
 OpenBabel11062407553D

 34 38  0  0  0  0  0  0  0  0999 V2000
  160.4480  212.7180  150.6500 C   0  0  0  0  0  0  0  0  0  0  0  0
  161.9050  211.5470  149.1020 C   0  0  0  0  0  0  0  0  0  0  0  0
  161.0860  210.4200  151.2210 C   0  0  0  0  0  0  0  0  0  0  0  0
  161.3690  208.1000  151.8710 C   0  0  0  0  0  0  0  0  0  0  0  0
  160.9910  213.7150  148.5170 C   0  0  0  0  0  3  0  0  0  0  0  0
  162.6920  209.7210  156.3870 C   0  0  0  0  0  2  0  0  0  0  0  0
  161.7540  208.8940  157.2610 C   0  0  0  0  0  2  0  0  0  0  0  0
  161.7840  212.6150  148.2080 C   0  0  0  0  0  3  0  0  0  0  0  0
  161.5890  208.5830  149.6410 N   0  0  0  0  0  0  0  0  0  0  0  0
  160.2600  209.8340  154.8970 N   0  0  0  0  0  0  0  0  0  0  0  0
  161.1410  211.5240  150.3050 C   0  0  0  0  0  0  0  0  0  0  0  0
  160.9010  207.9800  156.3870 C   0  0  0  0  0  2  0  0  0  0  0  0
  162.0310  206.4660  148.4940 N   0  0  0  0  0  2  0  0  0  0  0  0
  161.6730  206.5860  151.2150 S   0  0  0  0  0  0  0  0  0  0  0  0
  160.3490  213.7780  149.7480 C   0  0  0  0  0  3  0  0  0  0  0  0
  159.9910  211.8680  152.8580 C   0  0  0  0  0  3  0  0  0  0  0  0
  160.6200  211.0550  155.6130 C   0  0  0  0  0  2  0  0  0  0  0  0
  159.8880  212.8770  151.9120 C   0  0  0  0  0  3  0  0  0  0  0  0
  162.8680  210.5910  148.8110 O   0  0  0  0  0  1  0  0  0  0  0  0
  161.0210  208.3560  153.1500 N   0  0  0  0  0  0  0  0  0  0  0  0
  159.7560  208.7330  155.7110 C   0  0  0  0  0  2  0  0  0  0  0  0
  160.6440  209.6100  153.5240 C   0  0  0  0  0  0  0  0  0  0  0  0
  161.7840  207.2430  149.6640 C   0  0  0  0  0  0  0  0  0  0  0  0
  162.1060  211.0780  155.9800 C   0  0  0  0  0  2  0  0  0  0  0  0
  161.3890  209.0760  150.8910 C   0  0  0  0  0  0  0  0  0  0  0  0
  160.5990  210.6480  152.5490 C   0  0  0  0  0  0  0  0  0  0  0  0
  162.1100  207.0750  147.1780 C   0  0  0  0  0  2  0  0  0  0  0  0
  161.4630  206.1620  146.1600 C   0  0  0  0  0  2  0  0  0  0  0  0
  160.7330  205.1110  146.8470 N   0  0  0  0  0  2  0  0  0  0  0  0
  162.9300  203.8160  146.1730 O   0  0  0  0  0  0  0  0  0  0  0  0
  160.8240  203.0490  145.1870 O   0  0  0  0  0  0  0  0  0  0  0  0
  161.4660  203.5990  146.4290 S   0  0  0  0  0  0  0  0  0  0  0  0
  161.0760  203.1170  148.9590 O   0  0  0  0  0  1  0  0  0  0  0  0
  161.2730  202.4330  147.7610 C   0  0  0  0  0  2  0  0  0  0  0  0
  1 18  1  0  0  0  0
  2 11  1  0  0  0  0
  3 26  1  0  0  0  0
  4 20  2  0  0  0  0
  5 15  2  0  0  0  0
  6  7  1  0  0  0  0
  8  5  1  0  0  0  0
  8  2  2  0  0  0  0
  9 23  2  0  0  0  0
  9 25  1  0  0  0  0
 10 17  1  0  0  0  0
 10 21  1  0  0  0  0
 11  1  2  0  0  0  0
 11  3  1  0  0  0  0
 12  7  1  0  0  0  0
 13 23  1  0  0  0  0
 14  4  1  0  0  0  0
 15  1  1  0  0  0  0
 17 24  1  0  0  0  0
 18 16  2  0  0  0  0
 19  2  1  0  0  0  0
 20 22  1  0  0  0  0
 21 12  1  0  0  0  0
 22 10  1  0  0  0  0
 23 14  1  0  0  0  0
 24  6  1  0  0  0  0
 25  3  2  0  0  0  0
 25  4  1  0  0  0  0
 26 16  1  0  0  0  0
 26 22  2  0  0  0  0
 27 13  1  0  0  0  0
 28 29  1  0  0  0  0
 28 27  1  0  0  0  0
 30 32  2  0  0  0  0
 31 32  2  0  0  0  0
 32 29  1  0  0  0  0
 32 34  1  0  0  0  0
 34 33  1  0  0  0  0
M  END
>  <MODEL>
2

>  <REMARK>
 VINA RESULT:      -5.8      4.430      7.702
  Name = 
  5 active torsions:
  status: ('A' for Active; 'I' for Inactive)
    1  A    between atoms: C_3  and  C_13
    2  A    between atoms: C_3  and  N_17
    3  A    between atoms: C_13  and  N_33
    4  A    between atoms: C_14  and  S_34
    5  A    between atoms: N_33  and  S_34
                            x       y       z     vdW  Elec       q    Type
                         _______ _______ _______ _____ _____    ______ ____

>  <TORSDO>
F 5

$$$$
=
 OpenBabel11062407553D

 34 38  0  0  0  0  0  0  0  0999 V2000
  160.7680  207.7580  154.7970 C   0  0  0  0  0  0  0  0  0  0  0  0
  160.8950  207.4490  152.3920 C   0  0  0  0  0  0  0  0  0  0  0  0
  160.3110  209.7090  153.3840 C   0  0  0  0  0  0  0  0  0  0  0  0
  160.0690  211.8230  152.2180 C   0  0  0  0  0  0  0  0  0  0  0  0
  161.5870  205.6720  153.8900 C   0  0  0  0  0  3  0  0  0  0  0  0
  155.8760  212.5530  154.7980 C   0  0  0  0  0  2  0  0  0  0  0  0
  156.1410  213.9450  155.3620 C   0  0  0  0  0  2  0  0  0  0  0  0
  161.3860  206.1570  152.6020 C   0  0  0  0  0  3  0  0  0  0  0  0
  161.2770  210.1890  151.1570 N   0  0  0  0  0  0  0  0  0  0  0  0
  158.6270  212.3670  155.5370 N   0  0  0  0  0  0  0  0  0  0  0  0
  160.6810  208.3260  153.4940 C   0  0  0  0  0  0  0  0  0  0  0  0
  157.4950  214.4530  154.8770 C   0  0  0  0  0  2  0  0  0  0  0  0
  162.0530  211.1380  149.0380 N   0  0  0  0  0  2  0  0  0  0  0  0
  160.5260  212.5920  150.7990 S   0  0  0  0  0  0  0  0  0  0  0  0
  161.2500  206.4610  154.9840 C   0  0  0  0  0  3  0  0  0  0  0  0
  159.8110  209.7390  155.7770 C   0  0  0  0  0  3  0  0  0  0  0  0
  157.6890  211.6720  156.4130 C   0  0  0  0  0  2  0  0  0  0  0  0
  160.3340  208.4620  155.9120 C   0  0  0  0  0  3  0  0  0  0  0  0
  160.5330  207.7800  151.0940 O   0  0  0  0  0  1  0  0  0  0  0  0
  159.4510  212.3990  153.2700 N   0  0  0  0  0  0  0  0  0  0  0  0
  158.6560  213.8220  155.6450 C   0  0  0  0  0  2  0  0  0  0  0  0
  159.2750  211.7060  154.4290 C   0  0  0  0  0  0  0  0  0  0  0  0
  161.3430  211.2120  150.2720 C   0  0  0  0  0  0  0  0  0  0  0  0
  156.3460  211.4230  155.7220 C   0  0  0  0  0  2  0  0  0  0  0  0
  160.5280  210.5170  152.2410 C   0  0  0  0  0  0  0  0  0  0  0  0
  159.7680  210.3730  154.5320 C   0  0  0  0  0  0  0  0  0  0  0  0
  162.7490  209.9310  148.6310 C   0  0  0  0  0  2  0  0  0  0  0  0
  161.7410  208.8510  148.3080 C   0  0  0  0  0  2  0  0  0  0  0  0
  162.4080  207.5610  148.2730 N   0  0  0  0  0  2  0  0  0  0  0  0
  160.8020  206.9070  146.2840 O   0  0  0  0  0  0  0  0  0  0  0  0
  160.1250  206.2430  148.5420 O   0  0  0  0  0  0  0  0  0  0  0  0
  161.2950  206.4100  147.6140 S   0  0  0  0  0  0  0  0  0  0  0  0
  161.4170  203.8550  148.1020 O   0  0  0  0  0  1  0  0  0  0  0  0
  162.0990  204.8370  147.3870 C   0  0  0  0  0  2  0  0  0  0  0  0
  1 15  1  0  0  0  0
  1 18  1  0  0  0  0
  2  8  2  0  0  0  0
  2 11  1  0  0  0  0
  3 11  1  0  0  0  0
  3 26  1  0  0  0  0
  4 25  1  0  0  0  0
  4 20  2  0  0  0  0
  5 15  2  0  0  0  0
  6  7  1  0  0  0  0
  6 24  1  0  0  0  0
  8  5  1  0  0  0  0
  9 25  1  0  0  0  0
 10 21  1  0  0  0  0
 10 17  1  0  0  0  0
 11  1  2  0  0  0  0
 12  7  1  0  0  0  0
 12 21  1  0  0  0  0
 13 23  1  0  0  0  0
 14  4  1  0  0  0  0
 16 18  2  0  0  0  0
 19  2  1  0  0  0  0
 20 22  1  0  0  0  0
 22 26  2  0  0  0  0
 22 10  1  0  0  0  0
 23 14  1  0  0  0  0
 23  9  2  0  0  0  0
 24 17  1  0  0  0  0
 25  3  2  0  0  0  0
 26 16  1  0  0  0  0
 27 13  1  0  0  0  0
 28 27  1  0  0  0  0
 29 28  1  0  0  0  0
 30 32  2  0  0  0  0
 32 29  1  0  0  0  0
 32 31  2  0  0  0  0
 34 32  1  0  0  0  0
 34 33  1  0  0  0  0
M  END
>  <MODEL>
3

>  <REMARK>
 VINA RESULT:      -5.3      3.659      8.206
  Name = 
  5 active torsions:
  status: ('A' for Active; 'I' for Inactive)
    1  A    between atoms: C_3  and  C_13
    2  A    between atoms: C_3  and  N_17
    3  A    between atoms: C_13  and  N_33
    4  A    between atoms: C_14  and  S_34
    5  A    between atoms: N_33  and  S_34
                            x       y       z     vdW  Elec       q    Type
                         _______ _______ _______ _____ _____    ______ ____

>  <TORSDO>
F 5

$$$$
=
 OpenBabel11062407553D

 34 38  0  0  0  0  0  0  0  0999 V2000
  160.9970  204.7710  153.0590 C   0  0  0  0  0  0  0  0  0  0  0  0
  160.5570  204.8730  150.6730 C   0  0  0  0  0  0  0  0  0  0  0  0
  161.0720  206.9780  151.9920 C   0  0  0  0  0  0  0  0  0  0  0  0
  161.4480  209.2140  151.1300 C   0  0  0  0  0  0  0  0  0  0  0  0
  160.7770  202.7290  151.7840 C   0  0  0  0  0  3  0  0  0  0  0  0
  158.3970  210.8970  154.6840 C   0  0  0  0  0  2  0  0  0  0  0  0
  159.2710  211.9820  155.3040 C   0  0  0  0  0  2  0  0  0  0  0  0
  160.5460  203.4760  150.6330 C   0  0  0  0  0  3  0  0  0  0  0  0
  161.7250  207.4780  149.6590 N   0  0  0  0  0  0  0  0  0  0  0  0
  160.9530  209.6270  154.7320 N   0  0  0  0  0  0  0  0  0  0  0  0
  160.8980  205.5570  151.8760 C   0  0  0  0  0  0  0  0  0  0  0  0
  160.6040  212.0590  154.5670 C   0  0  0  0  0  2  0  0  0  0  0  0
  162.4060  208.4570  147.5210 N   0  0  0  0  0  2  0  0  0  0  0  0
  161.8980  210.0140  149.7260 S   0  0  0  0  0  0  0  0  0  0  0  0
  160.9720  203.3760  152.9990 C   0  0  0  0  0  3  0  0  0  0  0  0
  161.0660  206.7530  154.4270 C   0  0  0  0  0  3  0  0  0  0  0  0
  159.9970  209.1600  155.7320 C   0  0  0  0  0  2  0  0  0  0  0  0
  161.0750  205.3700  154.3090 C   0  0  0  0  0  3  0  0  0  0  0  0
  160.1190  205.5370  149.5360 O   0  0  0  0  0  1  0  0  0  0  0  0
  161.2990  209.7720  152.3500 N   0  0  0  0  0  0  0  0  0  0  0  0
  161.5550  210.9340  154.9730 C   0  0  0  0  0  2  0  0  0  0  0  0
  161.0860  208.9900  153.4440 C   0  0  0  0  0  0  0  0  0  0  0  0
  162.0150  208.5530  148.8890 C   0  0  0  0  0  0  0  0  0  0  0  0
  158.5600  209.5280  155.3560 C   0  0  0  0  0  2  0  0  0  0  0  0
  161.3690  207.8490  150.9160 C   0  0  0  0  0  0  0  0  0  0  0  0
  161.0420  207.5730  153.2950 C   0  0  0  0  0  0  0  0  0  0  0  0
  162.5010  207.1760  146.8450 C   0  0  0  0  0  2  0  0  0  0  0  0
  161.1140  206.6080  146.6410 C   0  0  0  0  0  2  0  0  0  0  0  0
  161.1090  205.7530  145.4660 N   0  0  0  0  0  2  0  0  0  0  0  0
  161.8620  204.1340  147.4090 O   0  0  0  0  0  0  0  0  0  0  0  0
  163.2350  204.1730  145.3810 O   0  0  0  0  0  0  0  0  0  0  0  0
  161.8290  204.2430  145.9100 S   0  0  0  0  0  0  0  0  0  0  0  0
  160.7790  201.8770  146.2000 O   0  0  0  0  0  1  0  0  0  0  0  0
  160.8800  202.8900  145.2480 C   0  0  0  0  0  2  0  0  0  0  0  0
  1 18  1  0  0  0  0
  2 11  1  0  0  0  0
  3 26  1  0  0  0  0
  4 20  2  0  0  0  0
  5 15  2  0  0  0  0
  6  7  1  0  0  0  0
  6 24  1  0  0  0  0
  8  2  2  0  0  0  0
  8  5  1  0  0  0  0
  9 25  1  0  0  0  0
 10 21  1  0  0  0  0
 10 17  1  0  0  0  0
 11  3  1  0  0  0  0
 11  1  2  0  0  0  0
 12 21  1  0  0  0  0
 12  7  1  0  0  0  0
 13 23  1  0  0  0  0
 14  4  1  0  0  0  0
 15  1  1  0  0  0  0
 18 16  2  0  0  0  0
 19  2  1  0  0  0  0
 20 22  1  0  0  0  0
 22 10  1  0  0  0  0
 23  9  2  0  0  0  0
 23 14  1  0  0  0  0
 24 17  1  0  0  0  0
 25  4  1  0  0  0  0
 25  3  2  0  0  0  0
 26 22  2  0  0  0  0
 26 16  1  0  0  0  0
 27 13  1  0  0  0  0
 28 27  1  0  0  0  0
 29 32  1  0  0  0  0
 29 28  1  0  0  0  0
 31 32  2  0  0  0  0
 32 30  2  0  0  0  0
 34 32  1  0  0  0  0
 34 33  1  0  0  0  0
M  END
>  <MODEL>
4

>  <REMARK>
 VINA RESULT:      -5.0      4.712      8.999
  Name = 
  5 active torsions:
  status: ('A' for Active; 'I' for Inactive)
    1  A    between atoms: C_3  and  C_13
    2  A    between atoms: C_3  and  N_17
    3  A    between atoms: C_13  and  N_33
    4  A    between atoms: C_14  and  S_34
    5  A    between atoms: N_33  and  S_34
                            x       y       z     vdW  Elec       q    Type
                         _______ _______ _______ _____ _____    ______ ____

>  <TORSDO>
F 5

$$$$
