=
 OpenBabel11062408523D

 55 60  0  0  1  0  0  0  0  0999 V2000
  162.9990  210.5430  152.1730 C   0  0  0  0  0  2  0  0  0  0  0  0
  161.9800  205.2330  153.2990 O   0  0  0  0  0  0  0  0  0  0  0  0
  160.1010  206.0370  155.3540 C   0  0  0  0  0  1  0  0  0  0  0  0
  160.9870  208.2310  155.0790 O   0  0  0  0  0  0  0  0  0  0  0  0
  162.8180  210.5120  149.6770 C   0  0  0  0  0  3  0  0  0  0  0  0
  161.1440  208.2720  149.7750 C   0  0  0  0  0  0  0  0  0  0  0  0
  161.9390  211.0040  152.9670 O   0  0  0  0  0  0  0  0  0  0  0  0
  161.6370  208.8330  150.9560 C   0  0  0  0  0  3  0  0  0  0  0  0
  162.2160  205.5210  151.9520 C   0  0  0  0  0  2  0  0  0  0  0  0
  162.1590  206.4450  153.9750 C   0  0  0  0  0  2  0  0  0  0  0  0
  160.8040  207.0120  154.4130 C   0  0  1  0  0  3  0  0  0  0  0  0
  162.3300  209.9480  148.4920 C   0  0  0  0  0  3  0  0  0  0  0  0
  160.9310  205.3590  151.1390 C   0  0  1  0  0  3  0  0  0  0  0  0
  162.4680  209.9570  150.9100 C   0  0  0  0  0  0  0  0  0  0  0  0
  160.7500  209.2290  154.1230 C   0  0  2  0  0  3  0  0  0  0  0  0
  161.9570  210.1810  154.1040 C   0  0  2  0  0  3  0  0  0  0  0  0
  161.1120  205.9170  149.8670 O   0  0  0  0  0  0  0  0  0  0  0  0
  160.2930  207.0500  149.8390 C   0  0  0  0  0  2  0  0  0  0  0  0
  161.4920  208.8260  148.5420 C   0  0  0  0  0  3  0  0  0  0  0  0
  158.7800  210.4730  153.0760 C   0  0  0  0  0  2  0  0  0  0  0  0
  159.4580  211.7740  152.6330 C   0  0  0  0  0  2  0  0  0  0  0  0
  159.5620  211.0580  155.4490 C   0  0  2  0  0  3  0  0  0  0  0  0
  158.8790  212.3740  155.0580 C   0  0  0  0  0  2  0  0  0  0  0  0
  159.3910  212.8710  153.7020 C   0  0  0  0  0  2  0  0  0  0  0  0
  159.4030  209.9450  154.3850 C   0  0  2  0  0  3  0  0  0  0  0  0
  159.0430  210.6140  156.6660 O   0  0  0  0  0  1  0  0  0  0  0  0
  159.1910  203.9230  150.4070 O   0  0  0  0  0  1  0  0  0  0  0  0
  160.4430  203.9020  151.0250 C   0  0  2  0  0  0  0  0  0  0  0  0
  160.2920  203.3610  152.2910 F   0  0  0  0  0  0  0  0  0  0  0  0
  161.4340  203.0410  150.2020 C   0  0  1  0  0  3  0  0  0  0  0  0
  162.3060  202.3600  151.0540 O   0  0  0  0  0  1  0  0  0  0  0  0
  160.8100  202.0750  149.1610 C   0  0  2  0  0  0  0  0  0  0  0  0
  159.4640  201.8640  149.4800 O   0  0  0  0  0  1  0  0  0  0  0  0
  160.9180  199.8480  150.0830 F   0  0  0  0  0  0  0  0  0  0  0  0
  161.5260  200.7190  149.1890 C   0  0  0  0  0  2  0  0  0  0  0  0
  160.8830  202.6650  147.7290 C   0  0  2  0  0  3  0  0  0  0  0  0
  160.9200  201.5910  146.6170 C   0  0  2  0  0  3  0  0  0  0  0  0
  161.1680  202.1930  145.3710 O   0  0  0  0  0  0  0  0  0  0  0  0
  159.8590  201.7320  145.5910 C   0  0  0  0  0  2  0  0  0  0  0  0
  161.9220  203.6020  147.6140 O   0  0  0  0  0  0  0  0  0  0  0  0
  160.6900  205.4330  147.0130 O   0  0  0  0  0  1  0  0  0  0  0  0
  161.5540  204.4350  146.5450 C   0  0  1  0  0  3  0  0  0  0  0  0
  162.6790  205.8660  144.9790 O   0  0  0  0  0  0  0  0  0  0  0  0
  162.7770  205.0380  145.9250 C   0  0  0  0  0  0  0  0  0  0  0  0
  164.0260  204.7060  146.4240 O   0  0  0  0  0  1  0  0  0  0  0  0
  162.0520  211.0190  155.3780 C   0  0  0  0  0  2  0  0  0  0  0  0
  163.8030  211.4820  157.1100 C   0  0  0  0  0  2  0  0  0  0  0  0
  166.0550  212.1130  156.2600 C   0  0  0  0  0  0  0  0  0  0  0  0
  164.4500  211.1440  154.6990 C   0  0  0  0  0  3  0  0  0  0  0  0
  165.7030  211.5240  154.9510 C   0  0  0  0  0  3  0  0  0  0  0  0
  165.1630  212.1120  157.2600 C   0  0  0  0  0  3  0  0  0  0  0  0
  163.4400  211.2950  155.7090 N   0  0  0  0  0  0  0  0  0  0  0  0
  167.4360  212.6760  156.4780 C   0  0  0  0  0  3  0  0  0  0  0  0
  167.5770  214.0210  155.7650 C   0  0  0  0  0  2  0  0  0  0  0  0
  167.3700  213.9800  157.2610 C   0  0  0  0  0  2  0  0  0  0  0  0
  1  7  1  0  0  0  0
  2 10  1  0  0  0  0
  5 14  1  0  0  0  0
  6 18  1  0  0  0  0
  6  8  1  0  0  0  0
  7 16  1  0  0  0  0
  9  2  1  0  0  0  0
 10 11  1  0  0  0  0
 11  4  1  0  0  0  0
 11  3  1  1  0  0  0
 12 19  1  0  0  0  0
 12  5  2  0  0  0  0
 13 28  1  6  0  0  0
 13  9  1  0  0  0  0
 14  8  2  0  0  0  0
 14  1  1  0  0  0  0
 15 25  1  0  0  0  0
 15  4  1  1  0  0  0
 16 15  1  0  0  0  0
 16 46  1  1  0  0  0
 17 13  1  0  0  0  0
 18 17  1  0  0  0  0
 19  6  2  0  0  0  0
 21 20  1  0  0  0  0
 21 24  1  0  0  0  0
 22 26  1  1  0  0  0
 23 22  1  0  0  0  0
 24 23  1  0  0  0  0
 25 20  1  6  0  0  0
 25 22  1  0  0  0  0
 28 27  1  6  0  0  0
 28 29  1  0  0  0  0
 30 28  1  0  0  0  0
 30 31  1  1  0  0  0
 32 35  1  0  0  0  0
 32 33  1  1  0  0  0
 32 30  1  0  0  0  0
 35 34  1  0  0  0  0
 36 40  1  1  0  0  0
 36 32  1  0  0  0  0
 37 36  1  1  0  0  0
 38 39  1  0  0  0  0
 38 37  1  0  0  0  0
 39 37  1  0  0  0  0
 42 41  1  1  0  0  0
 42 40  1  0  0  0  0
 43 44  2  0  0  0  0
 44 45  1  0  0  0  0
 44 42  1  0  0  0  0
 46 52  1  0  0  0  0
 47 51  1  0  0  0  0
 48 53  1  0  0  0  0
 48 51  2  0  0  0  0
 49 50  2  0  0  0  0
 49 52  1  0  0  0  0
 50 48  1  0  0  0  0
 52 47  1  0  0  0  0
 53 55  1  0  0  0  0
 54 53  1  0  0  0  0
 54 55  1  0  0  0  0
M  END
>  <MODEL>
1

>  <REMARK>
 VINA RESULT:      -1.3      0.000      0.000
  Name = 
  13 active torsions:
  status: ('A' for Active; 'I' for Inactive)
    1  A    between atoms: C_1  and  C_53
    2  A    between atoms: C_6  and  C_14
    3  A    between atoms: C_6  and  C_20
    4  A    between atoms: C_6  and  C_53
    5  A    between atoms: C_8  and  C_20
    6  A    between atoms: C_8  and  C_43
    7  A    between atoms: C_10  and  C_32
    8  A    between atoms: C_11  and  C_29
    9  A    between atoms: C_11  and  O_38
   10  A    between atoms: C_26  and  C_45
   11  A    between atoms: C_33  and  C_49
   12  A    between atoms: C_33  and  N_52
   13  A    between atoms: O_38  and  C_53
                            x       y       z     vdW  Elec       q    Type
                         _______ _______ _______ _____ _____    ______ ____

>  <TORSDO>
F 13

$$$$
=
 OpenBabel11062408523D

 55 60  0  0  1  0  0  0  0  0999 V2000
  162.9250  210.5720  152.3400 C   0  0  0  0  0  2  0  0  0  0  0  0
  162.0550  205.2190  153.3830 O   0  0  0  0  0  0  0  0  0  0  0  0
  160.1340  205.9380  155.4310 C   0  0  0  0  0  1  0  0  0  0  0  0
  160.9560  208.1620  155.1940 O   0  0  0  0  0  0  0  0  0  0  0  0
  162.7690  210.5700  149.8420 C   0  0  0  0  0  3  0  0  0  0  0  0
  161.1610  208.2800  149.8930 C   0  0  0  0  0  0  0  0  0  0  0  0
  161.8450  210.9910  153.1300 O   0  0  0  0  0  0  0  0  0  0  0  0
  161.6270  208.8390  151.0860 C   0  0  0  0  0  3  0  0  0  0  0  0
  162.2950  205.5330  152.0430 C   0  0  0  0  0  2  0  0  0  0  0  0
  162.1910  206.4270  154.0780 C   0  0  0  0  0  2  0  0  0  0  0  0
  160.8160  206.9470  154.5110 C   0  0  1  0  0  3  0  0  0  0  0  0
  162.3080  210.0090  148.6450 C   0  0  0  0  0  3  0  0  0  0  0  0
  161.0230  205.3440  151.2150 C   0  0  1  0  0  3  0  0  0  0  0  0
  162.4230  209.9880  151.0640 C   0  0  0  0  0  0  0  0  0  0  0  0
  160.6980  209.1650  154.2500 C   0  0  2  0  0  3  0  0  0  0  0  0
  161.8770  210.1530  154.2560 C   0  0  2  0  0  3  0  0  0  0  0  0
  161.1990  205.9240  149.9530 O   0  0  0  0  0  0  0  0  0  0  0  0
  160.3460  207.0330  149.9330 C   0  0  0  0  0  2  0  0  0  0  0  0
  161.5040  208.8620  148.6710 C   0  0  0  0  0  3  0  0  0  0  0  0
  158.6690  210.3010  153.1930 C   0  0  0  0  0  2  0  0  0  0  0  0
  159.2920  211.6120  152.7020 C   0  0  0  0  0  2  0  0  0  0  0  0
  159.4570  210.9870  155.5370 C   0  0  2  0  0  3  0  0  0  0  0  0
  158.7200  212.2630  155.1160 C   0  0  0  0  0  2  0  0  0  0  0  0
  159.1960  212.7380  153.7380 C   0  0  0  0  0  2  0  0  0  0  0  0
  159.3290  209.8370  154.5080 C   0  0  2  0  0  3  0  0  0  0  0  0
  158.9720  210.5610  156.7740 O   0  0  0  0  0  1  0  0  0  0  0  0
  159.3440  203.8660  150.4270 O   0  0  0  0  0  1  0  0  0  0  0  0
  160.5800  203.8750  151.0770 C   0  0  2  0  0  0  0  0  0  0  0  0
  160.4110  203.3190  152.3340 F   0  0  0  0  0  0  0  0  0  0  0  0
  161.6160  203.0500  150.2730 C   0  0  1  0  0  3  0  0  0  0  0  0
  162.3650  202.2450  151.1340 O   0  0  0  0  0  1  0  0  0  0  0  0
  161.0660  202.2230  149.0810 C   0  0  2  0  0  0  0  0  0  0  0  0
  159.7030  201.9780  149.2830 O   0  0  0  0  0  1  0  0  0  0  0  0
  161.0400  199.9560  148.2580 F   0  0  0  0  0  0  0  0  0  0  0  0
  161.7860  200.8730  148.9850 C   0  0  0  0  0  2  0  0  0  0  0  0
  161.2280  202.9880  147.7420 C   0  0  2  0  0  3  0  0  0  0  0  0
  161.5780  204.4840  147.9220 C   0  0  2  0  0  3  0  0  0  0  0  0
  161.5580  205.1370  146.6770 O   0  0  0  0  0  0  0  0  0  0  0  0
  162.8240  204.9090  147.2410 C   0  0  0  0  0  2  0  0  0  0  0  0
  160.1230  202.7850  146.9000 O   0  0  0  0  0  0  0  0  0  0  0  0
  160.2240  201.0710  145.3890 O   0  0  0  0  0  1  0  0  0  0  0  0
  160.6630  202.3700  145.6720 C   0  0  1  0  0  3  0  0  0  0  0  0
  161.0370  204.2250  144.1930 O   0  0  0  0  0  1  0  0  0  0  0  0
  160.2520  203.3200  144.5890 C   0  0  0  0  0  0  0  0  0  0  0  0
  159.0100  203.1750  143.9930 O   0  0  0  0  0  0  0  0  0  0  0  0
  161.9350  210.9760  155.5410 C   0  0  0  0  0  2  0  0  0  0  0  0
  163.6300  211.8000  157.1940 C   0  0  0  0  0  2  0  0  0  0  0  0
  165.8670  212.3900  156.2780 C   0  0  0  0  0  0  0  0  0  0  0  0
  164.3380  211.1020  154.8800 C   0  0  0  0  0  3  0  0  0  0  0  0
  165.5670  211.5780  155.0800 C   0  0  0  0  0  3  0  0  0  0  0  0
  164.9560  212.5100  157.2540 C   0  0  0  0  0  3  0  0  0  0  0  0
  163.3030  211.3690  155.8390 N   0  0  0  0  0  0  0  0  0  0  0  0
  167.2160  213.0470  156.4160 C   0  0  0  0  0  3  0  0  0  0  0  0
  167.2920  214.2900  155.5300 C   0  0  0  0  0  2  0  0  0  0  0  0
  167.0800  214.4380  157.0180 C   0  0  0  0  0  2  0  0  0  0  0  0
  1  7  1  0  0  0  0
  2 10  1  0  0  0  0
  5 14  1  0  0  0  0
  6 18  1  0  0  0  0
  6  8  1  0  0  0  0
  7 16  1  0  0  0  0
  9  2  1  0  0  0  0
 10 11  1  0  0  0  0
 11  4  1  0  0  0  0
 11  3  1  1  0  0  0
 12 19  1  0  0  0  0
 12  5  2  0  0  0  0
 13 28  1  6  0  0  0
 13  9  1  0  0  0  0
 14  8  2  0  0  0  0
 14  1  1  0  0  0  0
 15 16  1  0  0  0  0
 15 25  1  0  0  0  0
 15  4  1  1  0  0  0
 16 46  1  1  0  0  0
 17 13  1  0  0  0  0
 18 17  1  0  0  0  0
 19  6  2  0  0  0  0
 21 20  1  0  0  0  0
 21 24  1  0  0  0  0
 22 26  1  1  0  0  0
 23 22  1  0  0  0  0
 24 23  1  0  0  0  0
 25 20  1  6  0  0  0
 25 22  1  0  0  0  0
 28 27  1  6  0  0  0
 28 29  1  0  0  0  0
 30 28  1  0  0  0  0
 30 31  1  1  0  0  0
 32 33  1  1  0  0  0
 32 30  1  0  0  0  0
 34 35  1  0  0  0  0
 35 32  1  0  0  0  0
 36 40  1  1  0  0  0
 36 32  1  0  0  0  0
 37 36  1  6  0  0  0
 38 39  1  0  0  0  0
 38 37  1  0  0  0  0
 39 37  1  0  0  0  0
 42 41  1  6  0  0  0
 42 40  1  0  0  0  0
 43 44  1  0  0  0  0
 44 42  1  0  0  0  0
 45 44  2  0  0  0  0
 46 52  1  0  0  0  0
 47 51  1  0  0  0  0
 48 53  1  0  0  0  0
 48 51  2  0  0  0  0
 49 50  2  0  0  0  0
 49 52  1  0  0  0  0
 50 48  1  0  0  0  0
 52 47  1  0  0  0  0
 53 55  1  0  0  0  0
 54 53  1  0  0  0  0
 54 55  1  0  0  0  0
M  END
>  <MODEL>
2

>  <REMARK>
 VINA RESULT:      -0.1      0.791      1.546
  Name = 
  13 active torsions:
  status: ('A' for Active; 'I' for Inactive)
    1  A    between atoms: C_1  and  C_53
    2  A    between atoms: C_6  and  C_14
    3  A    between atoms: C_6  and  C_20
    4  A    between atoms: C_6  and  C_53
    5  A    between atoms: C_8  and  C_20
    6  A    between atoms: C_8  and  C_43
    7  A    between atoms: C_10  and  C_32
    8  A    between atoms: C_11  and  C_29
    9  A    between atoms: C_11  and  O_38
   10  A    between atoms: C_26  and  C_45
   11  A    between atoms: C_33  and  C_49
   12  A    between atoms: C_33  and  N_52
   13  A    between atoms: O_38  and  C_53
                            x       y       z     vdW  Elec       q    Type
                         _______ _______ _______ _____ _____    ______ ____

>  <TORSDO>
F 13

$$$$
