=
 OpenBabel11052422233D

 31 35  0  0  0  0  0  0  0  0999 V2000
  160.8430  207.7940  154.2300 C   0  0  0  0  0  0  0  0  0  0  0  0
  161.3560  207.0260  150.5740 C   0  0  0  0  0  0  0  0  0  0  0  0
  161.1950  205.6070  150.4370 C   0  0  0  0  0  0  0  0  0  0  0  0
  160.5250  203.3180  151.3470 C   0  0  0  0  0  3  0  0  0  0  0  0
  161.2510  207.7280  151.8190 C   0  0  0  0  0  0  0  0  0  0  0  0
  161.0500  209.1710  154.2440 C   0  0  0  0  0  3  0  0  0  0  0  0
  161.0710  204.6890  151.6400 C   0  0  0  0  0  2  0  0  0  0  0  0
  161.8260  209.1860  149.4710 C   0  0  0  0  0  0  0  0  0  0  0  0
  160.4590  206.9500  155.7140 Cl  0  0  0  0  0  0  0  0  0  0  0  0
  161.5460  205.7910  148.0330 C   0  0  0  0  0  3  0  0  0  0  0  0
  160.5590  202.7840  150.1290 C   0  0  0  0  0  3  0  0  0  0  0  0
  161.7340  209.8360  150.6950 C   0  0  0  0  0  3  0  0  0  0  0  0
  161.6350  207.7910  149.3980 C   0  0  0  0  0  0  0  0  0  0  0  0
  160.9400  207.0850  153.0310 C   0  0  0  0  0  3  0  0  0  0  0  0
  161.0490  203.5640  148.9920 C   0  0  0  0  0  0  0  0  0  0  0  0
  161.4470  209.1330  151.8550 C   0  0  0  0  0  0  0  0  0  0  0  0
  161.3500  209.8380  153.0580 C   0  0  0  0  0  3  0  0  0  0  0  0
  161.7230  207.1580  148.1550 C   0  0  0  0  0  3  0  0  0  0  0  0
  161.2860  205.0120  149.1550 C   0  0  0  0  0  0  0  0  0  0  0  0
  161.2100  203.0020  147.8760 O   0  0  0  0  0  0  0  0  0  0  0  0
  162.1590  210.0110  148.2640 C   0  0  0  0  0  2  0  0  0  0  0  0
  159.7060  213.7360  145.8060 C   0  0  0  0  0  0  0  0  0  0  0  0
  160.4350  211.6670  146.7080 N   0  0  0  0  0  0  0  0  0  0  0  0
  161.9470  214.2720  148.4980 O   0  0  0  0  0  0  0  0  0  0  0  0
  162.4340  211.9560  149.5980 O   0  0  0  0  0  0  0  0  0  0  0  0
  158.9530  214.4530  144.8870 O   0  0  0  0  0  1  0  0  0  0  0  0
  161.9440  211.4660  148.5440 C   0  0  0  0  0  0  0  0  0  0  0  0
  159.6910  212.3480  145.7990 C   0  0  0  0  0  3  0  0  0  0  0  0
  161.2340  213.6580  147.6600 C   0  0  0  0  0  0  0  0  0  0  0  0
  161.1910  212.2850  147.6230 N   0  0  0  0  0  0  0  0  0  0  0  0
  160.4860  214.3990  146.7460 C   0  0  0  0  0  3  0  0  0  0  0  0
  1  6  1  0  0  0  0
  1  9  1  0  0  0  0
  2  5  1  0  0  0  0
  3  2  1  0  0  0  0
  3  7  1  0  0  0  0
  4  7  1  0  0  0  0
  5 16  2  0  0  0  0
  5 14  1  0  0  0  0
  8 12  2  0  0  0  0
 10 18  2  0  0  0  0
 10 19  1  0  0  0  0
 11  4  2  0  0  0  0
 12 16  1  0  0  0  0
 13  8  1  0  0  0  0
 13  2  2  0  0  0  0
 14  1  2  0  0  0  0
 15 19  1  0  0  0  0
 15 11  1  0  0  0  0
 16 17  1  0  0  0  0
 17  6  2  0  0  0  0
 18 13  1  0  0  0  0
 19  3  2  0  0  0  0
 20 15  2  0  0  0  0
 21 27  1  0  0  0  0
 21  8  1  0  0  0  0
 22 31  2  0  0  0  0
 23 30  1  0  0  0  0
 26 22  1  0  0  0  0
 27 25  2  0  0  0  0
 28 22  1  0  0  0  0
 28 23  2  0  0  0  0
 29 24  2  0  0  0  0
 30 29  1  0  0  0  0
 30 27  1  0  0  0  0
 31 29  1  0  0  0  0
M  END
>  <MODEL>
1

>  <REMARK>
 VINA RESULT:     -10.5      0.000      0.000
  Name = 
  2 active torsions:
  status: ('A' for Active; 'I' for Inactive)
    1  A    between atoms: C_9  and  C_23
    2  A    between atoms: C_15  and  C_23
                            x       y       z     vdW  Elec       q    Type
                         _______ _______ _______ _____ _____    ______ ____

>  <TORSDO>
F 2

$$$$
=
 OpenBabel11052422233D

 31 35  0  0  0  0  0  0  0  0999 V2000
  161.9310  209.7920  149.5440 C   0  0  0  0  0  0  0  0  0  0  0  0
  161.1880  206.6510  151.4930 C   0  0  0  0  0  0  0  0  0  0  0  0
  161.1140  205.5900  150.5290 C   0  0  0  0  0  0  0  0  0  0  0  0
  161.4360  204.6620  148.1730 C   0  0  0  0  0  3  0  0  0  0  0  0
  161.4420  208.0200  151.1590 C   0  0  0  0  0  0  0  0  0  0  0  0
  161.9490  210.7400  150.5650 C   0  0  0  0  0  3  0  0  0  0  0  0
  161.1260  205.8560  149.0340 C   0  0  0  0  0  2  0  0  0  0  0  0
  161.0370  207.3250  153.8650 C   0  0  0  0  0  0  0  0  0  0  0  0
  162.2200  210.2800  147.8890 Cl  0  0  0  0  0  0  0  0  0  0  0  0
  160.7220  203.9810  152.3160 C   0  0  0  0  0  3  0  0  0  0  0  0
  161.2780  203.4130  148.6050 C   0  0  0  0  0  3  0  0  0  0  0  0
  161.2690  208.6470  153.5090 C   0  0  0  0  0  3  0  0  0  0  0  0
  160.9980  206.3230  152.8720 C   0  0  0  0  0  0  0  0  0  0  0  0
  161.6840  208.4500  149.8410 C   0  0  0  0  0  3  0  0  0  0  0  0
  160.8850  203.1530  149.9900 C   0  0  0  0  0  0  0  0  0  0  0  0
  161.4760  209.0020  152.1840 C   0  0  0  0  0  0  0  0  0  0  0  0
  161.7220  210.3440  151.8820 C   0  0  0  0  0  3  0  0  0  0  0  0
  160.7710  204.9980  153.2540 C   0  0  0  0  0  3  0  0  0  0  0  0
  160.8880  204.2620  150.9640 C   0  0  0  0  0  0  0  0  0  0  0  0
  160.6010  201.9780  150.3440 O   0  0  0  0  0  0  0  0  0  0  0  0
  160.8030  207.0210  155.3140 C   0  0  0  0  0  2  0  0  0  0  0  0
  158.9820  211.6480  156.4140 C   0  0  0  0  0  0  0  0  0  0  0  0
  159.2620  209.3600  155.8580 N   0  0  0  0  0  0  0  0  0  0  0  0
  162.2760  210.5810  157.1630 O   0  0  0  0  0  0  0  0  0  0  0  0
  162.3740  207.9980  156.8030 O   0  0  0  0  0  0  0  0  0  0  0  0
  158.1890  212.7850  156.4790 O   0  0  0  0  0  1  0  0  0  0  0  0
  161.2910  208.1460  156.1740 C   0  0  0  0  0  0  0  0  0  0  0  0
  158.4690  210.4600  155.9110 C   0  0  0  0  0  3  0  0  0  0  0  0
  161.0780  210.5300  156.7760 C   0  0  0  0  0  0  0  0  0  0  0  0
  160.5340  209.3720  156.2750 N   0  0  0  0  0  0  0  0  0  0  0  0
  160.3000  211.6840  156.8500 C   0  0  0  0  0  3  0  0  0  0  0  0
  1 14  2  0  0  0  0
  1  6  1  0  0  0  0
  2 13  1  0  0  0  0
  3 19  2  0  0  0  0
  3  2  1  0  0  0  0
  4 11  2  0  0  0  0
  4  7  1  0  0  0  0
  5  2  2  0  0  0  0
  5 16  1  0  0  0  0
  6 17  2  0  0  0  0
  7  3  1  0  0  0  0
  8 21  1  0  0  0  0
  9  1  1  0  0  0  0
 10 18  2  0  0  0  0
 11 15  1  0  0  0  0
 12  8  1  0  0  0  0
 13 18  1  0  0  0  0
 13  8  2  0  0  0  0
 14  5  1  0  0  0  0
 15 20  2  0  0  0  0
 15 19  1  0  0  0  0
 16 12  2  0  0  0  0
 17 16  1  0  0  0  0
 19 10  1  0  0  0  0
 21 27  1  0  0  0  0
 22 26  1  0  0  0  0
 22 31  2  0  0  0  0
 23 28  2  0  0  0  0
 23 30  1  0  0  0  0
 27 30  1  0  0  0  0
 27 25  2  0  0  0  0
 28 22  1  0  0  0  0
 29 31  1  0  0  0  0
 29 24  2  0  0  0  0
 30 29  1  0  0  0  0
M  END
>  <MODEL>
2

>  <REMARK>
 VINA RESULT:      -9.9      4.606      6.474
  Name = 
  2 active torsions:
  status: ('A' for Active; 'I' for Inactive)
    1  A    between atoms: C_9  and  C_23
    2  A    between atoms: C_15  and  C_23
                            x       y       z     vdW  Elec       q    Type
                         _______ _______ _______ _____ _____    ______ ____

>  <TORSDO>
F 2

$$$$
=
 OpenBabel11052422233D

 31 35  0  0  0  0  0  0  0  0999 V2000
  161.1760  205.1650  149.0760 C   0  0  0  0  0  0  0  0  0  0  0  0
  161.4710  208.3820  151.0210 C   0  0  0  0  0  0  0  0  0  0  0  0
  161.2050  208.0480  152.3910 C   0  0  0  0  0  0  0  0  0  0  0  0
  160.8370  206.3530  154.2650 C   0  0  0  0  0  3  0  0  0  0  0  0
  161.4470  207.4360  149.9460 C   0  0  0  0  0  0  0  0  0  0  0  0
  161.4220  205.6140  147.7810 C   0  0  0  0  0  3  0  0  0  0  0  0
  160.6950  206.6780  152.8030 C   0  0  0  0  0  2  0  0  0  0  0  0
  162.0330  210.1380  149.3770 C   0  0  0  0  0  0  0  0  0  0  0  0
  160.8490  203.4720  149.3700 Cl  0  0  0  0  0  0  0  0  0  0  0  0
  161.6050  210.3610  153.0430 C   0  0  0  0  0  3  0  0  0  0  0  0
  160.9710  207.2970  155.1930 C   0  0  0  0  0  3  0  0  0  0  0  0
  161.9860  209.2010  148.3530 C   0  0  0  0  0  3  0  0  0  0  0  0
  161.7830  209.7420  150.7070 C   0  0  0  0  0  0  0  0  0  0  0  0
  161.1920  206.0660  150.1430 C   0  0  0  0  0  3  0  0  0  0  0  0
  161.0860  208.7040  154.8070 C   0  0  0  0  0  0  0  0  0  0  0  0
  161.7050  207.8690  148.6190 C   0  0  0  0  0  0  0  0  0  0  0  0
  161.6860  206.9630  147.5540 C   0  0  0  0  0  3  0  0  0  0  0  0
  161.8440  210.7000  151.7230 C   0  0  0  0  0  3  0  0  0  0  0  0
  161.2850  209.0510  153.3860 C   0  0  0  0  0  0  0  0  0  0  0  0
  161.0680  209.5950  155.6970 O   0  0  0  0  0  0  0  0  0  0  0  0
  162.3240  211.5620  149.0090 C   0  0  0  0  0  2  0  0  0  0  0  0
  157.8930  213.8700  149.9980 C   0  0  0  0  0  0  0  0  0  0  0  0
  160.1190  213.0530  150.0360 N   0  0  0  0  0  0  0  0  0  0  0  0
  158.8170  212.6270  146.8110 O   0  0  0  0  0  0  0  0  0  0  0  0
  161.3600  212.0460  146.8930 O   0  0  0  0  0  0  0  0  0  0  0  0
  156.8110  214.4520  150.6430 O   0  0  0  0  0  1  0  0  0  0  0  0
  161.2320  212.1170  148.1460 C   0  0  0  0  0  0  0  0  0  0  0  0
  159.0730  213.6220  150.6880 C   0  0  0  0  0  3  0  0  0  0  0  0
  158.9100  212.9440  148.0280 C   0  0  0  0  0  0  0  0  0  0  0  0
  160.0620  212.7170  148.7420 N   0  0  0  0  0  0  0  0  0  0  0  0
  157.8100  213.5270  148.6540 C   0  0  0  0  0  3  0  0  0  0  0  0
  1  9  1  0  0  0  0
  1 14  1  0  0  0  0
  2  3  1  0  0  0  0
  3  7  1  0  0  0  0
  3 19  2  0  0  0  0
  4 11  2  0  0  0  0
  5 14  2  0  0  0  0
  5  2  1  0  0  0  0
  6  1  2  0  0  0  0
  7  4  1  0  0  0  0
  8 13  1  0  0  0  0
 10 19  1  0  0  0  0
 12 16  1  0  0  0  0
 12  8  2  0  0  0  0
 13  2  2  0  0  0  0
 13 18  1  0  0  0  0
 15 11  1  0  0  0  0
 15 20  2  0  0  0  0
 16  5  1  0  0  0  0
 17  6  1  0  0  0  0
 17 16  2  0  0  0  0
 18 10  2  0  0  0  0
 19 15  1  0  0  0  0
 21  8  1  0  0  0  0
 22 26  1  0  0  0  0
 22 28  1  0  0  0  0
 23 28  2  0  0  0  0
 24 29  2  0  0  0  0
 25 27  2  0  0  0  0
 27 30  1  0  0  0  0
 27 21  1  0  0  0  0
 29 31  1  0  0  0  0
 29 30  1  0  0  0  0
 30 23  1  0  0  0  0
 31 22  2  0  0  0  0
M  END
>  <MODEL>
3

>  <REMARK>
 VINA RESULT:      -9.9      2.656      4.801
  Name = 
  2 active torsions:
  status: ('A' for Active; 'I' for Inactive)
    1  A    between atoms: C_9  and  C_23
    2  A    between atoms: C_15  and  C_23
                            x       y       z     vdW  Elec       q    Type
                         _______ _______ _______ _____ _____    ______ ____

>  <TORSDO>
F 2

$$$$
=
 OpenBabel11052422233D

 31 35  0  0  0  0  0  0  0  0999 V2000
  160.8310  201.9320  150.7930 C   0  0  0  0  0  0  0  0  0  0  0  0
  161.1560  205.1210  148.8060 C   0  0  0  0  0  0  0  0  0  0  0  0
  161.1550  204.7330  147.4240 C   0  0  0  0  0  0  0  0  0  0  0  0
  160.8310  203.0100  145.5700 C   0  0  0  0  0  3  0  0  0  0  0  0
  161.0630  204.1970  149.8970 C   0  0  0  0  0  0  0  0  0  0  0  0
  160.8730  202.4250  152.0950 C   0  0  0  0  0  3  0  0  0  0  0  0
  161.2310  203.2790  146.9940 C   0  0  0  0  0  2  0  0  0  0  0  0
  161.2820  206.9560  150.4550 C   0  0  0  0  0  0  0  0  0  0  0  0
  160.6630  200.2140  150.5110 Cl  0  0  0  0  0  0  0  0  0  0  0  0
  161.3010  207.0730  146.7590 C   0  0  0  0  0  3  0  0  0  0  0  0
  160.8370  203.9590  144.6380 C   0  0  0  0  0  3  0  0  0  0  0  0
  161.2060  206.0350  151.4930 C   0  0  0  0  0  3  0  0  0  0  0  0
  161.2540  206.5140  149.1170 C   0  0  0  0  0  0  0  0  0  0  0  0
  160.9220  202.8100  149.7110 C   0  0  0  0  0  3  0  0  0  0  0  0
  161.1450  205.3450  144.9940 C   0  0  0  0  0  0  0  0  0  0  0  0
  161.0930  204.6770  151.2330 C   0  0  0  0  0  0  0  0  0  0  0  0
  161.0030  203.7950  152.3130 C   0  0  0  0  0  3  0  0  0  0  0  0
  161.3230  207.4580  148.0880 C   0  0  0  0  0  3  0  0  0  0  0  0
  161.2200  205.7270  146.4180 C   0  0  0  0  0  0  0  0  0  0  0  0
  161.2870  206.2030  144.0830 O   0  0  0  0  0  0  0  0  0  0  0  0
  161.4240  208.4050  150.8150 C   0  0  0  0  0  2  0  0  0  0  0  0
  159.7060  212.1960  153.7490 C   0  0  0  0  0  0  0  0  0  0  0  0
  160.1020  210.6310  152.0110 N   0  0  0  0  0  0  0  0  0  0  0  0
  161.5810  209.4430  154.9570 O   0  0  0  0  0  0  0  0  0  0  0  0
  161.6870  207.6600  153.0540 O   0  0  0  0  0  0  0  0  0  0  0  0
  159.1620  213.3930  154.1930 O   0  0  0  0  0  1  0  0  0  0  0  0
  161.3080  208.5940  152.2960 C   0  0  0  0  0  0  0  0  0  0  0  0
  159.5620  211.8070  152.4240 C   0  0  0  0  0  3  0  0  0  0  0  0
  160.9400  210.1750  154.1550 C   0  0  0  0  0  0  0  0  0  0  0  0
  160.7750  209.8210  152.8380 N   0  0  0  0  0  0  0  0  0  0  0  0
  160.4030  211.3720  154.6240 C   0  0  0  0  0  3  0  0  0  0  0  0
  1  6  1  0  0  0  0
  2 13  2  0  0  0  0
  2  5  1  0  0  0  0
  3  2  1  0  0  0  0
  4  7  1  0  0  0  0
  5 16  2  0  0  0  0
  6 17  2  0  0  0  0
  7  3  1  0  0  0  0
  8 21  1  0  0  0  0
  8 12  2  0  0  0  0
  9  1  1  0  0  0  0
 10 18  2  0  0  0  0
 11 15  1  0  0  0  0
 11  4  2  0  0  0  0
 13  8  1  0  0  0  0
 14  5  1  0  0  0  0
 14  1  2  0  0  0  0
 15 19  1  0  0  0  0
 16 12  1  0  0  0  0
 16 17  1  0  0  0  0
 18 13  1  0  0  0  0
 19 10  1  0  0  0  0
 19  3  2  0  0  0  0
 20 15  2  0  0  0  0
 21 27  1  0  0  0  0
 22 26  1  0  0  0  0
 22 31  2  0  0  0  0
 23 28  2  0  0  0  0
 23 30  1  0  0  0  0
 27 30  1  0  0  0  0
 27 25  2  0  0  0  0
 28 22  1  0  0  0  0
 29 31  1  0  0  0  0
 29 24  2  0  0  0  0
 30 29  1  0  0  0  0
M  END
>  <MODEL>
4

>  <REMARK>
 VINA RESULT:      -9.8      3.972      5.595
  Name = 
  2 active torsions:
  status: ('A' for Active; 'I' for Inactive)
    1  A    between atoms: C_9  and  C_23
    2  A    between atoms: C_15  and  C_23
                            x       y       z     vdW  Elec       q    Type
                         _______ _______ _______ _____ _____    ______ ____

>  <TORSDO>
F 2

$$$$
=
 OpenBabel11052422233D

 31 35  0  0  0  0  0  0  0  0999 V2000
  161.1550  205.1960  149.0520 C   0  0  0  0  0  0  0  0  0  0  0  0
  161.5020  208.3810  151.0410 C   0  0  0  0  0  0  0  0  0  0  0  0
  161.2670  208.0250  152.4110 C   0  0  0  0  0  0  0  0  0  0  0  0
  160.9400  206.3020  154.2650 C   0  0  0  0  0  3  0  0  0  0  0  0
  161.4510  207.4520  149.9510 C   0  0  0  0  0  0  0  0  0  0  0  0
  161.3710  205.6650  147.7590 C   0  0  0  0  0  3  0  0  0  0  0  0
  160.7650  206.6500  152.8130 C   0  0  0  0  0  2  0  0  0  0  0  0
  162.0290  210.1620  149.4120 C   0  0  0  0  0  0  0  0  0  0  0  0
  160.8320  203.4990  149.3260 Cl  0  0  0  0  0  0  0  0  0  0  0  0
  161.6870  210.3270  153.0900 C   0  0  0  0  0  3  0  0  0  0  0  0
  161.0970  207.2310  155.2050 C   0  0  0  0  0  3  0  0  0  0  0  0
  161.9570  209.2410  148.3740 C   0  0  0  0  0  3  0  0  0  0  0  0
  161.8100  209.7460  150.7410 C   0  0  0  0  0  0  0  0  0  0  0  0
  161.1980  206.0800  150.1320 C   0  0  0  0  0  3  0  0  0  0  0  0
  161.2060  208.6430  154.8390 C   0  0  0  0  0  0  0  0  0  0  0  0
  161.6790  207.9060  148.6260 C   0  0  0  0  0  0  0  0  0  0  0  0
  161.6330  207.0180  147.5470 C   0  0  0  0  0  3  0  0  0  0  0  0
  161.8970  210.6870  151.7700 C   0  0  0  0  0  3  0  0  0  0  0  0
  161.3730  209.0130  153.4200 C   0  0  0  0  0  0  0  0  0  0  0  0
  161.2100  209.5200  155.7430 O   0  0  0  0  0  0  0  0  0  0  0  0
  162.3140  211.5920  149.0600 C   0  0  0  0  0  2  0  0  0  0  0  0
  159.5150  213.5090  145.2620 C   0  0  0  0  0  0  0  0  0  0  0  0
  160.9440  212.2050  146.6340 N   0  0  0  0  0  0  0  0  0  0  0  0
  159.0950  214.3750  148.6720 O   0  0  0  0  0  0  0  0  0  0  0  0
  160.4760  212.6790  150.0970 O   0  0  0  0  0  0  0  0  0  0  0  0
  159.0320  213.8530  144.0070 O   0  0  0  0  0  1  0  0  0  0  0  0
  161.0450  212.3850  149.0100 C   0  0  0  0  0  0  0  0  0  0  0  0
  160.4860  212.5260  145.3970 C   0  0  0  0  0  3  0  0  0  0  0  0
  159.5320  213.7820  147.6500 C   0  0  0  0  0  0  0  0  0  0  0  0
  160.4910  212.8020  147.7440 N   0  0  0  0  0  0  0  0  0  0  0  0
  159.0330  214.1440  146.4000 C   0  0  0  0  0  3  0  0  0  0  0  0
  1  9  1  0  0  0  0
  1 14  1  0  0  0  0
  2  3  1  0  0  0  0
  3  7  1  0  0  0  0
  3 19  2  0  0  0  0
  4 11  2  0  0  0  0
  5 14  2  0  0  0  0
  5  2  1  0  0  0  0
  6  1  2  0  0  0  0
  7  4  1  0  0  0  0
  8 13  1  0  0  0  0
 10 19  1  0  0  0  0
 12 16  1  0  0  0  0
 12  8  2  0  0  0  0
 13  2  2  0  0  0  0
 13 18  1  0  0  0  0
 15 11  1  0  0  0  0
 15 20  2  0  0  0  0
 16  5  1  0  0  0  0
 17  6  1  0  0  0  0
 17 16  2  0  0  0  0
 18 10  2  0  0  0  0
 19 15  1  0  0  0  0
 21  8  1  0  0  0  0
 22 28  1  0  0  0  0
 22 31  2  0  0  0  0
 23 30  1  0  0  0  0
 26 22  1  0  0  0  0
 27 21  1  0  0  0  0
 27 25  2  0  0  0  0
 28 23  2  0  0  0  0
 29 30  1  0  0  0  0
 29 24  2  0  0  0  0
 30 27  1  0  0  0  0
 31 29  1  0  0  0  0
M  END
>  <MODEL>
5

>  <REMARK>
 VINA RESULT:      -9.4      2.566      4.379
  Name = 
  2 active torsions:
  status: ('A' for Active; 'I' for Inactive)
    1  A    between atoms: C_9  and  C_23
    2  A    between atoms: C_15  and  C_23
                            x       y       z     vdW  Elec       q    Type
                         _______ _______ _______ _____ _____    ______ ____

>  <TORSDO>
F 2

$$$$
=
 OpenBabel11052422233D

 31 35  0  0  0  0  0  0  0  0999 V2000
  161.4980  205.3320  148.2960 C   0  0  0  0  0  0  0  0  0  0  0  0
  161.4820  208.1540  150.7970 C   0  0  0  0  0  0  0  0  0  0  0  0
  161.2280  207.5540  152.0760 C   0  0  0  0  0  0  0  0  0  0  0  0
  160.9870  205.5210  153.6010 C   0  0  0  0  0  3  0  0  0  0  0  0
  161.5550  207.4200  149.5680 C   0  0  0  0  0  0  0  0  0  0  0  0
  161.7200  206.0280  147.1100 C   0  0  0  0  0  3  0  0  0  0  0  0
  160.8370  206.0930  152.2180 C   0  0  0  0  0  2  0  0  0  0  0  0
  161.9080  210.2210  149.5130 C   0  0  0  0  0  0  0  0  0  0  0  0
  161.3180  203.5920  148.2690 Cl  0  0  0  0  0  0  0  0  0  0  0  0
  161.4130  209.7350  153.1460 C   0  0  0  0  0  3  0  0  0  0  0  0
  161.0250  206.2880  154.6880 C   0  0  0  0  0  3  0  0  0  0  0  0
  161.9570  209.4850  148.3360 C   0  0  0  0  0  3  0  0  0  0  0  0
  161.6770  209.5690  150.7420 C   0  0  0  0  0  0  0  0  0  0  0  0
  161.4200  206.0210  149.5070 C   0  0  0  0  0  3  0  0  0  0  0  0
  161.0200  207.7460  154.5660 C   0  0  0  0  0  0  0  0  0  0  0  0
  161.7920  208.1080  148.3490 C   0  0  0  0  0  0  0  0  0  0  0  0
  161.8670  207.4140  147.1380 C   0  0  0  0  0  3  0  0  0  0  0  0
  161.6390  210.3280  151.9160 C   0  0  0  0  0  3  0  0  0  0  0  0
  161.2060  208.3620  153.2370 C   0  0  0  0  0  0  0  0  0  0  0  0
  160.9110  208.4560  155.6010 O   0  0  0  0  0  0  0  0  0  0  0  0
  162.0760  211.7080  149.4170 C   0  0  0  0  0  2  0  0  0  0  0  0
  158.1270  213.4660  146.7250 C   0  0  0  0  0  0  0  0  0  0  0  0
  159.6850  212.9040  148.4220 N   0  0  0  0  0  0  0  0  0  0  0  0
  161.2060  212.4470  145.2990 O   0  0  0  0  0  0  0  0  0  0  0  0
  162.9220  212.1540  147.2430 O   0  0  0  0  0  0  0  0  0  0  0  0
  156.8660  213.8990  146.3410 O   0  0  0  0  0  1  0  0  0  0  0  0
  161.9130  212.1660  148.0000 C   0  0  0  0  0  0  0  0  0  0  0  0
  158.4450  213.3280  148.0700 C   0  0  0  0  0  3  0  0  0  0  0  0
  160.3480  212.7300  146.1770 C   0  0  0  0  0  0  0  0  0  0  0  0
  160.6270  212.6090  147.5180 N   0  0  0  0  0  0  0  0  0  0  0  0
  159.0880  213.1630  145.7680 C   0  0  0  0  0  3  0  0  0  0  0  0
  1 14  1  0  0  0  0
  2  3  1  0  0  0  0
  3  7  1  0  0  0  0
  3 19  2  0  0  0  0
  4 11  2  0  0  0  0
  5  2  1  0  0  0  0
  6 17  1  0  0  0  0
  6  1  2  0  0  0  0
  7  4  1  0  0  0  0
  8 13  1  0  0  0  0
  9  1  1  0  0  0  0
 10 19  1  0  0  0  0
 12 16  1  0  0  0  0
 12  8  2  0  0  0  0
 13  2  2  0  0  0  0
 13 18  1  0  0  0  0
 14  5  2  0  0  0  0
 15 11  1  0  0  0  0
 15 20  2  0  0  0  0
 16  5  1  0  0  0  0
 17 16  2  0  0  0  0
 18 10  2  0  0  0  0
 19 15  1  0  0  0  0
 21  8  1  0  0  0  0
 22 28  1  0  0  0  0
 24 29  2  0  0  0  0
 25 27  2  0  0  0  0
 26 22  1  0  0  0  0
 27 21  1  0  0  0  0
 28 23  2  0  0  0  0
 29 30  1  0  0  0  0
 30 27  1  0  0  0  0
 30 23  1  0  0  0  0
 31 29  1  0  0  0  0
 31 22  2  0  0  0  0
M  END
>  <MODEL>
6

>  <REMARK>
 VINA RESULT:      -9.0      2.667      4.392
  Name = 
  2 active torsions:
  status: ('A' for Active; 'I' for Inactive)
    1  A    between atoms: C_9  and  C_23
    2  A    between atoms: C_15  and  C_23
                            x       y       z     vdW  Elec       q    Type
                         _______ _______ _______ _____ _____    ______ ____

>  <TORSDO>
F 2

$$$$
=
 OpenBabel11052422233D

 31 35  0  0  0  0  0  0  0  0999 V2000
  160.6470  202.2700  151.0380 C   0  0  0  0  0  0  0  0  0  0  0  0
  161.5620  205.2610  148.9320 C   0  0  0  0  0  0  0  0  0  0  0  0
  161.4780  204.8290  147.5650 C   0  0  0  0  0  0  0  0  0  0  0  0
  160.8190  203.1310  145.7770 C   0  0  0  0  0  3  0  0  0  0  0  0
  161.3010  204.4140  150.0570 C   0  0  0  0  0  0  0  0  0  0  0  0
  160.7910  202.7940  152.3200 C   0  0  0  0  0  3  0  0  0  0  0  0
  161.2720  203.3720  147.1910 C   0  0  0  0  0  2  0  0  0  0  0  0
  162.0470  207.0980  150.5100 C   0  0  0  0  0  0  0  0  0  0  0  0
  160.1520  200.6060  150.8210 Cl  0  0  0  0  0  0  0  0  0  0  0  0
  162.0630  207.0710  146.8120 C   0  0  0  0  0  3  0  0  0  0  0  0
  161.0000  204.0260  144.8100 C   0  0  0  0  0  3  0  0  0  0  0  0
  161.8030  206.2490  151.5810 C   0  0  0  0  0  3  0  0  0  0  0  0
  161.9260  206.6200  149.1890 C   0  0  0  0  0  0  0  0  0  0  0  0
  160.8970  203.0730  149.9230 C   0  0  0  0  0  3  0  0  0  0  0  0
  161.5680  205.3400  145.1140 C   0  0  0  0  0  0  0  0  0  0  0  0
  161.4310  204.9290  151.3730 C   0  0  0  0  0  0  0  0  0  0  0  0
  161.1810  204.1210  152.4860 C   0  0  0  0  0  3  0  0  0  0  0  0
  162.1670  207.4940  148.1250 C   0  0  0  0  0  3  0  0  0  0  0  0
  161.7250  205.7530  146.5220 C   0  0  0  0  0  0  0  0  0  0  0  0
  161.8670  206.1200  144.1710 O   0  0  0  0  0  0  0  0  0  0  0  0
  162.4650  208.5060  150.8140 C   0  0  0  0  0  2  0  0  0  0  0  0
  160.5690  213.1640  150.0120 C   0  0  0  0  0  0  0  0  0  0  0  0
  161.5870  211.0310  149.8180 N   0  0  0  0  0  0  0  0  0  0  0  0
  159.7190  211.1230  152.7810 O   0  0  0  0  0  0  0  0  0  0  0  0
  160.6330  208.7240  152.3080 O   0  0  0  0  0  0  0  0  0  0  0  0
  160.3400  214.4400  149.5180 O   0  0  0  0  0  1  0  0  0  0  0  0
  161.3280  209.2760  151.4120 C   0  0  0  0  0  0  0  0  0  0  0  0
  161.3770  212.2750  149.3160 C   0  0  0  0  0  3  0  0  0  0  0  0
  160.2370  211.4720  151.6870 C   0  0  0  0  0  0  0  0  0  0  0  0
  161.0400  210.6190  150.9680 N   0  0  0  0  0  0  0  0  0  0  0  0
  159.9930  212.7590  151.2100 C   0  0  0  0  0  3  0  0  0  0  0  0
  1  6  1  0  0  0  0
  2 13  2  0  0  0  0
  2  5  1  0  0  0  0
  3  2  1  0  0  0  0
  4  7  1  0  0  0  0
  5 16  2  0  0  0  0
  6 17  2  0  0  0  0
  7  3  1  0  0  0  0
  8 21  1  0  0  0  0
  8 12  2  0  0  0  0
  9  1  1  0  0  0  0
 10 18  2  0  0  0  0
 11 15  1  0  0  0  0
 11  4  2  0  0  0  0
 13  8  1  0  0  0  0
 14  5  1  0  0  0  0
 14  1  2  0  0  0  0
 15 19  1  0  0  0  0
 16 12  1  0  0  0  0
 16 17  1  0  0  0  0
 18 13  1  0  0  0  0
 19 10  1  0  0  0  0
 19  3  2  0  0  0  0
 20 15  2  0  0  0  0
 21 27  1  0  0  0  0
 22 31  2  0  0  0  0
 23 30  1  0  0  0  0
 26 22  1  0  0  0  0
 27 25  2  0  0  0  0
 28 23  2  0  0  0  0
 28 22  1  0  0  0  0
 29 24  2  0  0  0  0
 30 27  1  0  0  0  0
 30 29  1  0  0  0  0
 31 29  1  0  0  0  0
M  END
>  <MODEL>
7

>  <REMARK>
 VINA RESULT:      -8.8      2.782      4.459
  Name = 
  2 active torsions:
  status: ('A' for Active; 'I' for Inactive)
    1  A    between atoms: C_9  and  C_23
    2  A    between atoms: C_15  and  C_23
                            x       y       z     vdW  Elec       q    Type
                         _______ _______ _______ _____ _____    ______ ____

>  <TORSDO>
F 2

$$$$
=
 OpenBabel11052422233D

 31 35  0  0  0  0  0  0  0  0999 V2000
  161.6910  211.0800  149.9030 C   0  0  0  0  0  0  0  0  0  0  0  0
  161.2770  207.9080  151.9000 C   0  0  0  0  0  0  0  0  0  0  0  0
  161.0640  208.3160  153.2590 C   0  0  0  0  0  0  0  0  0  0  0  0
  160.5990  210.0950  155.0300 C   0  0  0  0  0  3  0  0  0  0  0  0
  161.4930  208.8180  150.8150 C   0  0  0  0  0  0  0  0  0  0  0  0
  161.9180  210.5640  148.6290 C   0  0  0  0  0  3  0  0  0  0  0  0
  161.2240  209.7590  153.7030 C   0  0  0  0  0  2  0  0  0  0  0  0
  161.4980  206.0440  150.2940 C   0  0  0  0  0  0  0  0  0  0  0  0
  161.6700  212.8100  150.1570 Cl  0  0  0  0  0  0  0  0  0  0  0  0
  160.8160  205.9860  153.9290 C   0  0  0  0  0  3  0  0  0  0  0  0
  160.3240  209.1660  155.9420 C   0  0  0  0  0  3  0  0  0  0  0  0
  161.7210  206.9500  149.2660 C   0  0  0  0  0  3  0  0  0  0  0  0
  161.2710  206.5080  151.6060 C   0  0  0  0  0  0  0  0  0  0  0  0
  161.4790  210.2150  150.9790 C   0  0  0  0  0  3  0  0  0  0  0  0
  160.5330  207.7500  155.6420 C   0  0  0  0  0  0  0  0  0  0  0  0
  161.7160  208.3150  149.5060 C   0  0  0  0  0  0  0  0  0  0  0  0
  161.9290  209.1840  148.4320 C   0  0  0  0  0  3  0  0  0  0  0  0
  161.0400  205.5790  152.6250 C   0  0  0  0  0  3  0  0  0  0  0  0
  160.8270  207.3380  154.2550 C   0  0  0  0  0  0  0  0  0  0  0  0
  160.4050  206.8950  156.5590 O   0  0  0  0  0  0  0  0  0  0  0  0
  161.5380  204.5820  149.9610 C   0  0  0  0  0  2  0  0  0  0  0  0
  161.2940  200.4520  146.9910 C   0  0  0  0  0  0  0  0  0  0  0  0
  161.2900  201.9890  148.7970 N   0  0  0  0  0  0  0  0  0  0  0  0
  161.0330  203.7770  145.7940 O   0  0  0  0  0  0  0  0  0  0  0  0
  160.7300  205.3420  147.8610 O   0  0  0  0  0  0  0  0  0  0  0  0
  161.3510  199.1500  146.5160 O   0  0  0  0  0  1  0  0  0  0  0  0
  161.1240  204.3550  148.5390 C   0  0  0  0  0  0  0  0  0  0  0  0
  161.3500  200.7070  148.3540 C   0  0  0  0  0  3  0  0  0  0  0  0
  161.1230  202.8190  146.6070 C   0  0  0  0  0  0  0  0  0  0  0  0
  161.1790  203.0310  147.9640 N   0  0  0  0  0  0  0  0  0  0  0  0
  161.1800  201.5190  146.1070 C   0  0  0  0  0  3  0  0  0  0  0  0
  1  9  1  0  0  0  0
  1 14  1  0  0  0  0
  2  3  1  0  0  0  0
  3  7  1  0  0  0  0
  3 19  2  0  0  0  0
  4 11  2  0  0  0  0
  5 14  2  0  0  0  0
  5  2  1  0  0  0  0
  6  1  2  0  0  0  0
  7  4  1  0  0  0  0
  8 13  1  0  0  0  0
 10 19  1  0  0  0  0
 12 16  1  0  0  0  0
 12  8  2  0  0  0  0
 13  2  2  0  0  0  0
 13 18  1  0  0  0  0
 15 11  1  0  0  0  0
 15 20  2  0  0  0  0
 16  5  1  0  0  0  0
 17  6  1  0  0  0  0
 17 16  2  0  0  0  0
 18 10  2  0  0  0  0
 19 15  1  0  0  0  0
 21  8  1  0  0  0  0
 22 28  1  0  0  0  0
 24 29  2  0  0  0  0
 25 27  2  0  0  0  0
 26 22  1  0  0  0  0
 27 21  1  0  0  0  0
 28 23  2  0  0  0  0
 29 30  1  0  0  0  0
 30 27  1  0  0  0  0
 30 23  1  0  0  0  0
 31 29  1  0  0  0  0
 31 22  2  0  0  0  0
M  END
>  <MODEL>
8

>  <REMARK>
 VINA RESULT:      -8.7      4.231      7.867
  Name = 
  2 active torsions:
  status: ('A' for Active; 'I' for Inactive)
    1  A    between atoms: C_9  and  C_23
    2  A    between atoms: C_15  and  C_23
                            x       y       z     vdW  Elec       q    Type
                         _______ _______ _______ _____ _____    ______ ____

>  <TORSDO>
F 2

$$$$
=
 OpenBabel11052422233D

 31 35  0  0  0  0  0  0  0  0999 V2000
  159.3310  210.1790  155.6070 C   0  0  0  0  0  0  0  0  0  0  0  0
  160.7720  210.4210  152.1310 C   0  0  0  0  0  0  0  0  0  0  0  0
  160.4060  211.7170  151.6350 C   0  0  0  0  0  0  0  0  0  0  0  0
  159.4560  214.0640  151.9550 C   0  0  0  0  0  3  0  0  0  0  0  0
  160.4050  209.9250  153.4240 C   0  0  0  0  0  0  0  0  0  0  0  0
  159.7190  208.8910  155.9670 C   0  0  0  0  0  3  0  0  0  0  0  0
  159.4370  212.6210  152.3770 C   0  0  0  0  0  2  0  0  0  0  0  0
  161.9260  208.2780  151.7080 C   0  0  0  0  0  0  0  0  0  0  0  0
  158.4150  211.1640  156.7270 Cl  0  0  0  0  0  0  0  0  0  0  0  0
  161.6150  211.2760  149.5660 C   0  0  0  0  0  3  0  0  0  0  0  0
  159.9230  214.4530  150.7720 C   0  0  0  0  0  3  0  0  0  0  0  0
  161.5410  207.8180  152.9610 C   0  0  0  0  0  3  0  0  0  0  0  0
  161.5530  209.5710  151.2860 C   0  0  0  0  0  0  0  0  0  0  0  0
  159.6730  210.6870  154.3530 C   0  0  0  0  0  3  0  0  0  0  0  0
  160.5370  213.4840  149.8630 C   0  0  0  0  0  0  0  0  0  0  0  0
  160.7990  208.6180  153.8160 C   0  0  0  0  0  0  0  0  0  0  0  0
  160.4520  208.1130  155.0730 C   0  0  0  0  0  3  0  0  0  0  0  0
  161.9580  210.0160  150.0250 C   0  0  0  0  0  3  0  0  0  0  0  0
  160.8450  212.1260  150.3530 C   0  0  0  0  0  0  0  0  0  0  0  0
  160.8440  213.8380  148.6940 O   0  0  0  0  0  0  0  0  0  0  0  0
  162.7100  207.3470  150.8320 C   0  0  0  0  0  2  0  0  0  0  0  0
  160.8340  202.6410  150.3120 C   0  0  0  0  0  0  0  0  0  0  0  0
  161.6780  204.7040  151.1230 N   0  0  0  0  0  0  0  0  0  0  0  0
  160.7260  205.1140  147.7760 O   0  0  0  0  0  0  0  0  0  0  0  0
  161.3830  207.3940  148.8630 O   0  0  0  0  0  0  0  0  0  0  0  0
  160.5210  201.3040  150.5110 O   0  0  0  0  0  1  0  0  0  0  0  0
  161.8160  206.6970  149.8210 C   0  0  0  0  0  0  0  0  0  0  0  0
  161.3800  203.3970  151.3400 C   0  0  0  0  0  3  0  0  0  0  0  0
  160.9270  204.5860  148.9020 C   0  0  0  0  0  0  0  0  0  0  0  0
  161.4640  205.3020  149.9450 N   0  0  0  0  0  0  0  0  0  0  0  0
  160.6050  203.2410  149.0790 C   0  0  0  0  0  3  0  0  0  0  0  0
  1  6  1  0  0  0  0
  1  9  1  0  0  0  0
  2  5  1  0  0  0  0
  3  2  1  0  0  0  0
  3  7  1  0  0  0  0
  4  7  1  0  0  0  0
  5 16  2  0  0  0  0
  5 14  1  0  0  0  0
  8 12  2  0  0  0  0
 10 18  2  0  0  0  0
 10 19  1  0  0  0  0
 11  4  2  0  0  0  0
 12 16  1  0  0  0  0
 13  8  1  0  0  0  0
 13  2  2  0  0  0  0
 14  1  2  0  0  0  0
 15 19  1  0  0  0  0
 15 11  1  0  0  0  0
 16 17  1  0  0  0  0
 17  6  2  0  0  0  0
 18 13  1  0  0  0  0
 19  3  2  0  0  0  0
 20 15  2  0  0  0  0
 21  8  1  0  0  0  0
 22 26  1  0  0  0  0
 22 28  1  0  0  0  0
 23 28  2  0  0  0  0
 24 29  2  0  0  0  0
 25 27  2  0  0  0  0
 27 30  1  0  0  0  0
 27 21  1  0  0  0  0
 29 31  1  0  0  0  0
 29 30  1  0  0  0  0
 30 23  1  0  0  0  0
 31 22  2  0  0  0  0
M  END
>  <MODEL>
9

>  <REMARK>
 VINA RESULT:      -8.4      2.955      7.479
  Name = 
  2 active torsions:
  status: ('A' for Active; 'I' for Inactive)
    1  A    between atoms: C_9  and  C_23
    2  A    between atoms: C_15  and  C_23
                            x       y       z     vdW  Elec       q    Type
                         _______ _______ _______ _____ _____    ______ ____

>  <TORSDO>
F 2

$$$$
