=
 OpenBabel11062409173D

 37 38  0  0  1  0  0  0  0  0999 V2000
  162.0780  208.3930  155.0320 O   0  0  0  0  0  0  0  0  0  0  0  0
  158.5390  211.1820  155.5810 C   0  0  0  0  0  2  0  0  0  0  0  0
  161.3340  208.1780  153.8400 C   0  0  2  0  0  3  0  0  0  0  0  0
  159.8400  210.6010  155.0350 C   0  0  1  0  0  3  0  0  0  0  0  0
  160.2830  209.5880  155.8940 O   0  0  0  0  0  0  0  0  0  0  0  0
  159.6280  210.0570  153.6070 C   0  0  1  0  0  3  0  0  0  0  0  0
  157.8140  211.7540  153.2380 C   0  0  0  0  0  2  0  0  0  0  0  0
  161.6710  209.5600  155.7190 C   0  0  1  0  0  3  0  0  0  0  0  0
  159.1220  211.1820  152.7020 C   0  0  0  0  0  2  0  0  0  0  0  0
  160.9200  209.4370  153.0420 C   0  0  2  0  0  3  0  0  0  0  0  0
  158.0150  212.2830  154.6570 C   0  0  1  0  0  3  0  0  0  0  0  0
  156.7360  212.9120  155.2060 C   0  0  0  0  0  2  0  0  0  0  0  0
  156.2620  212.2430  156.4900 C   0  0  0  0  0  1  0  0  0  0  0  0
  162.3530  209.6240  157.0750 C   0  0  0  0  0  2  0  0  0  0  0  0
  163.4630  210.6590  157.0550 C   0  0  0  0  0  1  0  0  0  0  0  0
  160.2510  207.3250  154.0770 O   0  0  0  0  0  0  0  0  0  0  0  0
  160.7890  206.0370  154.0050 C   0  0  0  0  0  2  0  0  0  0  0  0
  161.5700  205.8740  152.7140 C   0  0  0  0  0  2  0  0  0  0  0  0
  161.3360  204.4930  152.1280 C   0  0  0  0  0  2  0  0  0  0  0  0
  160.4650  204.5850  150.8860 C   0  0  0  0  0  2  0  0  0  0  0  0
  161.0100  203.7090  149.7560 C   0  0  1  0  0  3  0  0  0  0  0  0
  160.6810  202.2160  149.8500 C   0  0  0  0  0  2  0  0  0  0  0  0
  159.6180  201.8840  149.0260 F   0  0  0  0  0  0  0  0  0  0  0  0
  160.8680  204.2870  148.4670 O   0  0  0  0  0  0  0  0  0  0  0  0
  161.2580  203.1560  146.3480 C   0  0  0  0  0  1  0  0  0  0  0  0
  162.7410  204.8710  147.1550 F   0  0  0  0  0  0  0  0  0  0  0  0
  161.8620  203.8710  147.5440 C   0  0  1  0  0  3  0  0  0  0  0  0
  160.7290  209.0690  151.6940 O   0  0  0  0  0  0  0  0  0  0  0  0
  161.8770  209.3580  150.9050 C   0  0  1  0  0  0  0  0  0  0  0  0
  162.8000  210.3770  151.5790 C   0  0  0  0  0  1  0  0  0  0  0  0
  162.6520  208.0860  150.4960 C   0  0  0  0  0  2  0  0  0  0  0  0
  162.1880  207.4530  149.1910 C   0  0  0  0  0  1  0  0  0  0  0  0
  161.3970  210.0340  149.6180 C   0  0  0  0  0  2  0  0  0  0  0  0
  162.2230  211.2580  149.2130 C   0  0  0  0  0  2  0  0  0  0  0  0
  161.3570  212.3480  148.5920 C   0  0  0  0  0  2  0  0  0  0  0  0
  162.5760  213.8710  147.0350 C   0  0  0  0  0  1  0  0  0  0  0  0
  162.1190  213.6600  148.4660 C   0  0  0  0  0  2  0  0  0  0  0  0
  1  8  1  0  0  0  0
  3 16  1  1  0  0  0
  3  1  1  0  0  0  0
  4  2  1  1  0  0  0
  4  5  1  0  0  0  0
  6  9  1  6  0  0  0
  6  4  1  0  0  0  0
  7 11  1  0  0  0  0
  8  5  1  0  0  0  0
  8 14  1  1  0  0  0
  9  7  1  0  0  0  0
 10 28  1  6  0  0  0
 10  6  1  0  0  0  0
 10  3  1  0  0  0  0
 11 12  1  1  0  0  0
 11  2  1  0  0  0  0
 12 13  1  0  0  0  0
 15 14  1  0  0  0  0
 17 16  1  0  0  0  0
 18 17  1  0  0  0  0
 19 18  1  0  0  0  0
 20 19  1  0  0  0  0
 21 22  1  6  0  0  0
 21 20  1  0  0  0  0
 23 22  1  0  0  0  0
 24 21  1  0  0  0  0
 26 27  1  0  0  0  0
 27 25  1  6  0  0  0
 27 24  1  0  0  0  0
 29 30  1  1  0  0  0
 29 28  1  0  0  0  0
 31 29  1  0  0  0  0
 32 31  1  0  0  0  0
 33 29  1  0  0  0  0
 34 33  1  0  0  0  0
 35 34  1  0  0  0  0
 36 37  1  0  0  0  0
 37 35  1  0  0  0  0
M  END
>  <MODEL>
1

>  <REMARK>
 VINA RESULT:      -5.2      0.000      0.000
  Name = 
  18 active torsions:
  status: ('A' for Active; 'I' for Inactive)
    1  A    between atoms: C_1  and  C_5
    2  A    between atoms: C_1  and  C_17
    3  A    between atoms: C_1  and  O_36
    4  A    between atoms: O_2  and  C_6
    5  A    between atoms: O_2  and  C_35
    6  A    between atoms: C_3  and  C_32
    7  A    between atoms: C_6  and  C_8
    8  A    between atoms: C_6  and  C_31
    9  A    between atoms: C_7  and  O_14
   10  A    between atoms: C_7  and  C_27
   11  A    between atoms: C_10  and  O_14
   12  A    between atoms: C_17  and  C_33
   13  A    between atoms: C_22  and  C_24
   14  A    between atoms: C_26  and  C_33
   15  A    between atoms: C_26  and  C_34
   16  A    between atoms: C_27  and  C_37
   17  A    between atoms: C_29  and  O_36
   18  A    between atoms: C_31  and  C_37
                            x       y       z     vdW  Elec       q    Type
                         _______ _______ _______ _____ _____    ______ ____

>  <TORSDO>
F 18

$$$$
=
 OpenBabel11062409173D

 37 38  0  0  1  0  0  0  0  0999 V2000
  161.7180  210.6540  153.4420 O   0  0  0  0  0  0  0  0  0  0  0  0
  157.8760  210.9350  155.8410 C   0  0  0  0  0  2  0  0  0  0  0  0
  160.7310  210.7490  152.4230 C   0  0  2  0  0  3  0  0  0  0  0  0
  159.0390  211.3350  154.9390 C   0  0  1  0  0  3  0  0  0  0  0  0
  160.0270  210.3440  155.0030 O   0  0  0  0  0  0  0  0  0  0  0  0
  158.5520  211.5320  153.4890 C   0  0  1  0  0  3  0  0  0  0  0  0
  156.2880  212.1970  154.3480 C   0  0  0  0  0  2  0  0  0  0  0  0
  161.2200  211.0180  154.7130 C   0  0  1  0  0  3  0  0  0  0  0  0
  157.4580  212.6030  153.4590 C   0  0  0  0  0  2  0  0  0  0  0  0
  159.7130  211.9090  152.5490 C   0  0  2  0  0  3  0  0  0  0  0  0
  156.7670  211.9880  155.7840 C   0  0  1  0  0  3  0  0  0  0  0  0
  155.6090  211.6320  156.7140 C   0  0  0  0  0  2  0  0  0  0  0  0
  154.8300  210.4150  156.2350 C   0  0  0  0  0  1  0  0  0  0  0  0
  162.2510  210.6990  155.7820 C   0  0  0  0  0  2  0  0  0  0  0  0
  161.9380  209.3640  156.4320 C   0  0  0  0  0  1  0  0  0  0  0  0
  160.1030  209.5170  152.2220 O   0  0  0  0  0  0  0  0  0  0  0  0
  161.1390  208.5800  152.2440 C   0  0  0  0  0  2  0  0  0  0  0  0
  160.8600  207.5250  153.2990 C   0  0  0  0  0  2  0  0  0  0  0  0
  161.5540  206.2240  152.9390 C   0  0  0  0  0  2  0  0  0  0  0  0
  161.8130  206.1580  151.4430 C   0  0  0  0  0  2  0  0  0  0  0  0
  161.6780  204.7280  150.9160 C   0  0  1  0  0  3  0  0  0  0  0  0
  160.8270  203.7790  151.7660 C   0  0  0  0  0  2  0  0  0  0  0  0
  161.3620  202.5020  151.7830 F   0  0  0  0  0  0  0  0  0  0  0  0
  161.4610  204.6540  149.5140 O   0  0  0  0  0  0  0  0  0  0  0  0
  161.7590  206.0140  147.5190 C   0  0  0  0  0  1  0  0  0  0  0  0
  159.8320  206.2610  148.9390 F   0  0  0  0  0  0  0  0  0  0  0  0
  161.1720  205.9070  148.9160 C   0  0  1  0  0  3  0  0  0  0  0  0
  159.2160  212.2090  151.2640 O   0  0  0  0  0  0  0  0  0  0  0  0
  159.5680  213.5270  150.8620 C   0  0  1  0  0  0  0  0  0  0  0  0
  159.8100  214.4510  152.0590 C   0  0  0  0  0  1  0  0  0  0  0  0
  160.7650  213.5520  149.8860 C   0  0  0  0  0  2  0  0  0  0  0  0
  160.8590  212.3390  148.9680 C   0  0  0  0  0  1  0  0  0  0  0  0
  158.3660  214.1240  150.1250 C   0  0  0  0  0  2  0  0  0  0  0  0
  157.3490  213.0840  149.6470 C   0  0  0  0  0  2  0  0  0  0  0  0
  156.7820  213.4310  148.2750 C   0  0  0  0  0  2  0  0  0  0  0  0
  158.4460  213.5130  146.4160 C   0  0  0  0  0  1  0  0  0  0  0  0
  157.4660  212.6360  147.1730 C   0  0  0  0  0  2  0  0  0  0  0  0
  1  8  1  0  0  0  0
  3 16  1  1  0  0  0
  3 10  1  0  0  0  0
  3  1  1  0  0  0  0
  4  5  1  0  0  0  0
  4  2  1  1  0  0  0
  6  9  1  1  0  0  0
  6  4  1  0  0  0  0
  7 11  1  0  0  0  0
  8  5  1  0  0  0  0
  8 14  1  1  0  0  0
  9  7  1  0  0  0  0
 10 28  1  6  0  0  0
 10  6  1  0  0  0  0
 11  2  1  0  0  0  0
 11 12  1  1  0  0  0
 13 12  1  0  0  0  0
 14 15  1  0  0  0  0
 16 17  1  0  0  0  0
 17 18  1  0  0  0  0
 19 18  1  0  0  0  0
 20 19  1  0  0  0  0
 21 20  1  1  0  0  0
 21 22  1  0  0  0  0
 22 23  1  0  0  0  0
 24 21  1  0  0  0  0
 27 25  1  6  0  0  0
 27 26  1  0  0  0  0
 27 24  1  0  0  0  0
 29 28  1  0  0  0  0
 29 30  1  1  0  0  0
 31 29  1  0  0  0  0
 32 31  1  0  0  0  0
 33 29  1  0  0  0  0
 34 33  1  0  0  0  0
 35 34  1  0  0  0  0
 36 37  1  0  0  0  0
 37 35  1  0  0  0  0
M  END
>  <MODEL>
2

>  <REMARK>
 VINA RESULT:      -5.1      2.259      3.220
  Name = 
  18 active torsions:
  status: ('A' for Active; 'I' for Inactive)
    1  A    between atoms: C_1  and  C_5
    2  A    between atoms: C_1  and  C_17
    3  A    between atoms: C_1  and  O_36
    4  A    between atoms: O_2  and  C_6
    5  A    between atoms: O_2  and  C_35
    6  A    between atoms: C_3  and  C_32
    7  A    between atoms: C_6  and  C_8
    8  A    between atoms: C_6  and  C_31
    9  A    between atoms: C_7  and  O_14
   10  A    between atoms: C_7  and  C_27
   11  A    between atoms: C_10  and  O_14
   12  A    between atoms: C_17  and  C_33
   13  A    between atoms: C_22  and  C_24
   14  A    between atoms: C_26  and  C_33
   15  A    between atoms: C_26  and  C_34
   16  A    between atoms: C_27  and  C_37
   17  A    between atoms: C_29  and  O_36
   18  A    between atoms: C_31  and  C_37
                            x       y       z     vdW  Elec       q    Type
                         _______ _______ _______ _____ _____    ______ ____

>  <TORSDO>
F 18

$$$$
=
 OpenBabel11062409173D

 37 38  0  0  1  0  0  0  0  0999 V2000
  161.2990  210.8880  151.2440 O   0  0  0  0  0  0  0  0  0  0  0  0
  161.3510  206.3620  150.9020 C   0  0  0  0  0  2  0  0  0  0  0  0
  160.7030  210.4840  152.4700 C   0  0  2  0  0  3  0  0  0  0  0  0
  161.6920  207.7710  151.3770 C   0  0  1  0  0  3  0  0  0  0  0  0
  161.1380  208.6980  150.4860 O   0  0  0  0  0  0  0  0  0  0  0  0
  161.1640  208.0000  152.8080 C   0  0  1  0  0  3  0  0  0  0  0  0
  161.4180  205.5470  153.2850 C   0  0  0  0  0  2  0  0  0  0  0  0
  161.9630  209.8240  150.5910 C   0  0  1  0  0  3  0  0  0  0  0  0
  161.7710  206.9570  153.7480 C   0  0  0  0  0  2  0  0  0  0  0  0
  161.4700  209.4270  153.3010 C   0  0  2  0  0  3  0  0  0  0  0  0
  161.9280  205.3200  151.8630 C   0  0  1  0  0  3  0  0  0  0  0  0
  161.6380  203.8980  151.3860 C   0  0  0  0  0  2  0  0  0  0  0  0
  160.1670  203.5270  151.5210 C   0  0  0  0  0  1  0  0  0  0  0  0
  162.3980  210.2630  149.2030 C   0  0  0  0  0  2  0  0  0  0  0  0
  162.0260  211.7170  148.9730 C   0  0  0  0  0  1  0  0  0  0  0  0
  159.3620  210.1330  152.2790 O   0  0  0  0  0  0  0  0  0  0  0  0
  158.6370  211.1030  152.9760 C   0  0  0  0  0  2  0  0  0  0  0  0
  159.2560  212.4710  152.7550 C   0  0  0  0  0  2  0  0  0  0  0  0
  158.1730  213.5100  152.5370 C   0  0  0  0  0  2  0  0  0  0  0  0
  157.6820  214.0520  153.8690 C   0  0  0  0  0  2  0  0  0  0  0  0
  156.1780  213.8270  154.0440 C   0  0  1  0  0  3  0  0  0  0  0  0
  155.2890  214.3440  152.9080 C   0  0  0  0  0  2  0  0  0  0  0  0
  154.0450  213.7370  152.9290 F   0  0  0  0  0  0  0  0  0  0  0  0
  155.8480  212.5390  154.5410 O   0  0  0  0  0  0  0  0  0  0  0  0
  155.4660  213.2090  156.8490 C   0  0  0  0  0  1  0  0  0  0  0  0
  156.2430  211.0010  156.2880 F   0  0  0  0  0  0  0  0  0  0  0  0
  156.2450  212.3290  155.8870 C   0  0  1  0  0  3  0  0  0  0  0  0
  161.0910  209.5610  154.6530 O   0  0  0  0  0  0  0  0  0  0  0  0
  161.9290  210.4820  155.3410 C   0  0  1  0  0  0  0  0  0  0  0  0
  163.2570  210.7100  154.6140 C   0  0  0  0  0  1  0  0  0  0  0  0
  161.2200  211.8200  155.6430 C   0  0  0  0  0  2  0  0  0  0  0  0
  160.0040  211.7010  156.5530 C   0  0  0  0  0  1  0  0  0  0  0  0
  162.3060  209.8510  156.6850 C   0  0  0  0  0  2  0  0  0  0  0  0
  161.9280  208.3720  156.8060 C   0  0  0  0  0  2  0  0  0  0  0  0
  160.4830  208.1890  157.2550 C   0  0  0  0  0  2  0  0  0  0  0  0
  158.9060  206.9680  155.7550 C   0  0  0  0  0  1  0  0  0  0  0  0
  159.9440  206.8250  156.8530 C   0  0  0  0  0  2  0  0  0  0  0  0
  1  3  1  0  0  0  0
  2 11  1  0  0  0  0
  3 16  1  6  0  0  0
  3 10  1  0  0  0  0
  4  2  1  6  0  0  0
  4  6  1  0  0  0  0
  5  8  1  0  0  0  0
  5  4  1  0  0  0  0
  6 10  1  0  0  0  0
  6  9  1  1  0  0  0
  7  9  1  0  0  0  0
  8 14  1  6  0  0  0
  8  1  1  0  0  0  0
 10 28  1  1  0  0  0
 11 12  1  6  0  0  0
 11  7  1  0  0  0  0
 12 13  1  0  0  0  0
 15 14  1  0  0  0  0
 16 17  1  0  0  0  0
 18 17  1  0  0  0  0
 19 18  1  0  0  0  0
 19 20  1  0  0  0  0
 20 21  1  0  0  0  0
 21 22  1  6  0  0  0
 21 24  1  0  0  0  0
 22 23  1  0  0  0  0
 24 27  1  0  0  0  0
 27 26  1  0  0  0  0
 27 25  1  1  0  0  0
 28 29  1  0  0  0  0
 29 30  1  6  0  0  0
 29 31  1  0  0  0  0
 29 33  1  0  0  0  0
 31 32  1  0  0  0  0
 33 34  1  0  0  0  0
 34 35  1  0  0  0  0
 36 37  1  0  0  0  0
 37 35  1  0  0  0  0
M  END
>  <MODEL>
3

>  <REMARK>
 VINA RESULT:      -4.3      3.497      8.750
  Name = 
  18 active torsions:
  status: ('A' for Active; 'I' for Inactive)
    1  A    between atoms: C_1  and  C_5
    2  A    between atoms: C_1  and  C_17
    3  A    between atoms: C_1  and  O_36
    4  A    between atoms: O_2  and  C_6
    5  A    between atoms: O_2  and  C_35
    6  A    between atoms: C_3  and  C_32
    7  A    between atoms: C_6  and  C_8
    8  A    between atoms: C_6  and  C_31
    9  A    between atoms: C_7  and  O_14
   10  A    between atoms: C_7  and  C_27
   11  A    between atoms: C_10  and  O_14
   12  A    between atoms: C_17  and  C_33
   13  A    between atoms: C_22  and  C_24
   14  A    between atoms: C_26  and  C_33
   15  A    between atoms: C_26  and  C_34
   16  A    between atoms: C_27  and  C_37
   17  A    between atoms: C_29  and  O_36
   18  A    between atoms: C_31  and  C_37
                            x       y       z     vdW  Elec       q    Type
                         _______ _______ _______ _____ _____    ______ ____

>  <TORSDO>
F 18

$$$$
=
 OpenBabel11062409173D

 37 38  0  0  1  0  0  0  0  0999 V2000
  162.3950  210.1840  152.6710 O   0  0  0  0  0  0  0  0  0  0  0  0
  158.5890  211.5190  154.7540 C   0  0  0  0  0  2  0  0  0  0  0  0
  161.4610  210.2210  151.6010 C   0  0  2  0  0  3  0  0  0  0  0  0
  159.8230  211.5490  153.8570 C   0  0  1  0  0  3  0  0  0  0  0  0
  160.6390  210.4540  154.1670 O   0  0  0  0  0  0  0  0  0  0  0  0
  159.4090  211.5220  152.3710 C   0  0  1  0  0  3  0  0  0  0  0  0
  157.2590  212.6810  152.9580 C   0  0  0  0  0  2  0  0  0  0  0  0
  161.9300  210.8670  153.8180 C   0  0  1  0  0  3  0  0  0  0  0  0
  158.5010  212.7180  152.0730 C   0  0  0  0  0  2  0  0  0  0  0  0
  160.6380  211.5230  151.4420 C   0  0  2  0  0  3  0  0  0  0  0  0
  157.6640  212.6950  154.4310 C   0  0  1  0  0  3  0  0  0  0  0  0
  156.4420  212.7120  155.3470 C   0  0  0  0  0  2  0  0  0  0  0  0
  156.1380  211.3430  155.9390 C   0  0  0  0  0  1  0  0  0  0  0  0
  162.8720  210.6180  154.9840 C   0  0  0  0  0  2  0  0  0  0  0  0
  162.2130  209.7080  156.0050 C   0  0  0  0  0  1  0  0  0  0  0  0
  160.6490  209.0820  151.6090 O   0  0  0  0  0  0  0  0  0  0  0  0
  161.4380  208.0780  151.0420 C   0  0  0  0  0  2  0  0  0  0  0  0
  161.1140  206.7410  151.6830 C   0  0  0  0  0  2  0  0  0  0  0  0
  161.6650  205.6060  150.8410 C   0  0  0  0  0  2  0  0  0  0  0  0
  160.5590  204.9770  150.0100 C   0  0  0  0  0  2  0  0  0  0  0  0
  161.1240  204.2470  148.7890 C   0  0  1  0  0  3  0  0  0  0  0  0
  161.1960  202.7200  148.8990 C   0  0  0  0  0  2  0  0  0  0  0  0
  160.1240  202.1200  148.2600 F   0  0  0  0  0  0  0  0  0  0  0  0
  160.6440  204.7480  147.5510 O   0  0  0  0  0  0  0  0  0  0  0  0
  162.9730  205.1040  146.9460 C   0  0  0  0  0  1  0  0  0  0  0  0
  161.6240  203.4400  145.8490 F   0  0  0  0  0  0  0  0  0  0  0  0
  161.5900  204.6650  146.4980 C   0  0  1  0  0  3  0  0  0  0  0  0
  160.2260  211.6300  150.0980 O   0  0  0  0  0  0  0  0  0  0  0  0
  161.0410  212.5420  149.3730 C   0  0  1  0  0  0  0  0  0  0  0  0
  161.1830  213.8870  150.0910 C   0  0  0  0  0  1  0  0  0  0  0  0
  162.4230  211.9510  149.0150 C   0  0  0  0  0  2  0  0  0  0  0  0
  163.0380  212.5080  147.7370 C   0  0  0  0  0  1  0  0  0  0  0  0
  160.3250  212.8590  148.0560 C   0  0  0  0  0  2  0  0  0  0  0  0
  159.2800  213.9720  148.1680 C   0  0  0  0  0  2  0  0  0  0  0  0
  157.8590  213.4220  148.1500 C   0  0  0  0  0  2  0  0  0  0  0  0
  155.8140  213.7260  149.5490 C   0  0  0  0  0  1  0  0  0  0  0  0
  156.8650  214.4300  148.7100 C   0  0  0  0  0  2  0  0  0  0  0  0
  1  8  1  0  0  0  0
  3 16  1  1  0  0  0
  3  1  1  0  0  0  0
  4  5  1  0  0  0  0
  4  2  1  1  0  0  0
  6  9  1  6  0  0  0
  6  4  1  0  0  0  0
  7 11  1  0  0  0  0
  8  5  1  0  0  0  0
  8 14  1  1  0  0  0
  9  7  1  0  0  0  0
 10 28  1  6  0  0  0
 10  3  1  0  0  0  0
 10  6  1  0  0  0  0
 11  2  1  0  0  0  0
 11 12  1  1  0  0  0
 12 13  1  0  0  0  0
 14 15  1  0  0  0  0
 17 16  1  0  0  0  0
 17 18  1  0  0  0  0
 19 18  1  0  0  0  0
 20 19  1  0  0  0  0
 21 22  1  1  0  0  0
 21 20  1  0  0  0  0
 23 22  1  0  0  0  0
 24 21  1  0  0  0  0
 26 27  1  0  0  0  0
 27 25  1  1  0  0  0
 27 24  1  0  0  0  0
 29 30  1  1  0  0  0
 29 28  1  0  0  0  0
 31 29  1  0  0  0  0
 32 31  1  0  0  0  0
 33 34  1  0  0  0  0
 33 29  1  0  0  0  0
 35 34  1  0  0  0  0
 35 37  1  0  0  0  0
 37 36  1  0  0  0  0
M  END
>  <MODEL>
4

>  <REMARK>
 VINA RESULT:      -3.7      1.925      2.901
  Name = 
  18 active torsions:
  status: ('A' for Active; 'I' for Inactive)
    1  A    between atoms: C_1  and  C_5
    2  A    between atoms: C_1  and  C_17
    3  A    between atoms: C_1  and  O_36
    4  A    between atoms: O_2  and  C_6
    5  A    between atoms: O_2  and  C_35
    6  A    between atoms: C_3  and  C_32
    7  A    between atoms: C_6  and  C_8
    8  A    between atoms: C_6  and  C_31
    9  A    between atoms: C_7  and  O_14
   10  A    between atoms: C_7  and  C_27
   11  A    between atoms: C_10  and  O_14
   12  A    between atoms: C_17  and  C_33
   13  A    between atoms: C_22  and  C_24
   14  A    between atoms: C_26  and  C_33
   15  A    between atoms: C_26  and  C_34
   16  A    between atoms: C_27  and  C_37
   17  A    between atoms: C_29  and  O_36
   18  A    between atoms: C_31  and  C_37
                            x       y       z     vdW  Elec       q    Type
                         _______ _______ _______ _____ _____    ______ ____

>  <TORSDO>
F 18

$$$$
=
 OpenBabel11062409173D

 37 38  0  0  1  0  0  0  0  0999 V2000
  160.8750  206.4020  150.5690 O   0  0  0  0  0  0  0  0  0  0  0  0
  162.3870  209.9690  148.2040 C   0  0  0  0  0  2  0  0  0  0  0  0
  161.6100  207.1250  151.5470 C   0  0  2  0  0  3  0  0  0  0  0  0
  161.5920  209.1470  149.2140 C   0  0  1  0  0  3  0  0  0  0  0  0
  161.7630  207.7860  148.9300 O   0  0  0  0  0  0  0  0  0  0  0  0
  162.0500  209.4700  150.6510 C   0  0  1  0  0  3  0  0  0  0  0  0
  162.6770  211.7900  149.9200 C   0  0  0  0  0  2  0  0  0  0  0  0
  160.6020  207.1750  149.4180 C   0  0  1  0  0  3  0  0  0  0  0  0
  161.8710  210.9660  150.9180 C   0  0  0  0  0  2  0  0  0  0  0  0
  161.2820  208.6310  151.6900 C   0  0  2  0  0  3  0  0  0  0  0  0
  162.2360  211.4640  148.4940 C   0  0  1  0  0  3  0  0  0  0  0  0
  162.9880  212.3110  147.4690 C   0  0  0  0  0  2  0  0  0  0  0  0
  162.8700  213.8030  147.7470 C   0  0  0  0  0  1  0  0  0  0  0  0
  160.0020  206.2950  148.3350 C   0  0  0  0  0  2  0  0  0  0  0  0
  160.7150  206.5260  147.0160 C   0  0  0  0  0  1  0  0  0  0  0  0
  162.9820  206.8950  151.4090 O   0  0  0  0  0  0  0  0  0  0  0  0
  163.1690  205.5790  151.8390 C   0  0  0  0  0  2  0  0  0  0  0  0
  161.8300  204.9530  152.1850 C   0  0  0  0  0  2  0  0  0  0  0  0
  161.7920  203.5060  151.7270 C   0  0  0  0  0  2  0  0  0  0  0  0
  160.6220  203.2780  150.7850 C   0  0  0  0  0  2  0  0  0  0  0  0
  161.0370  202.4470  149.5690 C   0  0  1  0  0  3  0  0  0  0  0  0
  160.8470  200.9320  149.7000 C   0  0  0  0  0  2  0  0  0  0  0  0
  161.4540  200.2590  148.6530 F   0  0  0  0  0  0  0  0  0  0  0  0
  160.6340  203.0090  148.3290 O   0  0  0  0  0  0  0  0  0  0  0  0
  161.0640  202.7880  145.9450 C   0  0  0  0  0  1  0  0  0  0  0  0
  162.5300  204.0460  147.3800 F   0  0  0  0  0  0  0  0  0  0  0  0
  161.6450  202.9790  147.3350 C   0  0  1  0  0  3  0  0  0  0  0  0
  161.6300  209.0430  152.9930 O   0  0  0  0  0  0  0  0  0  0  0  0
  160.4970  209.5180  153.7110 C   0  0  1  0  0  0  0  0  0  0  0  0
  159.3930  210.0240  152.7790 C   0  0  0  0  0  1  0  0  0  0  0  0
  159.9500  208.4780  154.7140 C   0  0  0  0  0  2  0  0  0  0  0  0
  160.9550  207.4130  155.1330 C   0  0  0  0  0  1  0  0  0  0  0  0
  160.9390  210.7420  154.5180 C   0  0  0  0  0  2  0  0  0  0  0  0
  160.1050  211.9980  154.2520 C   0  0  0  0  0  2  0  0  0  0  0  0
  159.5700  212.6100  155.5410 C   0  0  0  0  0  2  0  0  0  0  0  0
  157.4190  211.3590  155.7290 C   0  0  0  0  0  1  0  0  0  0  0  0
  158.7810  211.5940  156.3540 C   0  0  0  0  0  2  0  0  0  0  0  0
  1  3  1  0  0  0  0
  2 11  1  0  0  0  0
  3 16  1  6  0  0  0
  3 10  1  0  0  0  0
  4  2  1  6  0  0  0
  4  6  1  0  0  0  0
  5  4  1  0  0  0  0
  5  8  1  0  0  0  0
  6  9  1  1  0  0  0
  6 10  1  0  0  0  0
  7  9  1  0  0  0  0
  8 14  1  6  0  0  0
  8  1  1  0  0  0  0
 10 28  1  1  0  0  0
 11 12  1  6  0  0  0
 11  7  1  0  0  0  0
 12 13  1  0  0  0  0
 15 14  1  0  0  0  0
 16 17  1  0  0  0  0
 17 18  1  0  0  0  0
 19 18  1  0  0  0  0
 20 19  1  0  0  0  0
 21 22  1  1  0  0  0
 21 20  1  0  0  0  0
 23 22  1  0  0  0  0
 24 21  1  0  0  0  0
 27 25  1  6  0  0  0
 27 26  1  0  0  0  0
 27 24  1  0  0  0  0
 28 29  1  0  0  0  0
 29 30  1  6  0  0  0
 29 33  1  0  0  0  0
 29 31  1  0  0  0  0
 31 32  1  0  0  0  0
 34 33  1  0  0  0  0
 34 35  1  0  0  0  0
 35 37  1  0  0  0  0
 36 37  1  0  0  0  0
M  END
>  <MODEL>
5

>  <REMARK>
 VINA RESULT:      -3.5      1.651      5.754
  Name = 
  18 active torsions:
  status: ('A' for Active; 'I' for Inactive)
    1  A    between atoms: C_1  and  C_5
    2  A    between atoms: C_1  and  C_17
    3  A    between atoms: C_1  and  O_36
    4  A    between atoms: O_2  and  C_6
    5  A    between atoms: O_2  and  C_35
    6  A    between atoms: C_3  and  C_32
    7  A    between atoms: C_6  and  C_8
    8  A    between atoms: C_6  and  C_31
    9  A    between atoms: C_7  and  O_14
   10  A    between atoms: C_7  and  C_27
   11  A    between atoms: C_10  and  O_14
   12  A    between atoms: C_17  and  C_33
   13  A    between atoms: C_22  and  C_24
   14  A    between atoms: C_26  and  C_33
   15  A    between atoms: C_26  and  C_34
   16  A    between atoms: C_27  and  C_37
   17  A    between atoms: C_29  and  O_36
   18  A    between atoms: C_31  and  C_37
                            x       y       z     vdW  Elec       q    Type
                         _______ _______ _______ _____ _____    ______ ____

>  <TORSDO>
F 18

$$$$
=
 OpenBabel11062409173D

 37 38  0  0  1  0  0  0  0  0999 V2000
  161.2670  210.8850  151.1580 O   0  0  0  0  0  0  0  0  0  0  0  0
  160.9010  206.4110  150.4810 C   0  0  0  0  0  2  0  0  0  0  0  0
  160.6910  210.4390  152.3790 C   0  0  2  0  0  3  0  0  0  0  0  0
  161.3860  207.7450  151.0400 C   0  0  1  0  0  3  0  0  0  0  0  0
  160.8780  208.7830  150.2490 O   0  0  0  0  0  0  0  0  0  0  0  0
  160.9440  207.9060  152.5080 C   0  0  1  0  0  3  0  0  0  0  0  0
  161.0000  205.4110  152.7900 C   0  0  0  0  0  2  0  0  0  0  0  0
  161.8040  209.8230  150.3950 C   0  0  1  0  0  3  0  0  0  0  0  0
  161.4970  206.7450  153.3380 C   0  0  0  0  0  2  0  0  0  0  0  0
  161.3970  209.2590  153.0900 C   0  0  2  0  0  3  0  0  0  0  0  0
  161.4240  205.2520  151.3320 C   0  0  1  0  0  3  0  0  0  0  0  0
  160.9880  203.9020  150.7660 C   0  0  0  0  0  2  0  0  0  0  0  0
  161.3850  202.7380  151.6650 C   0  0  0  0  0  1  0  0  0  0  0  0
  162.2140  210.3300  149.0230 C   0  0  0  0  0  2  0  0  0  0  0  0
  162.3630  211.8400  149.0450 C   0  0  0  0  0  1  0  0  0  0  0  0
  159.3180  210.2200  152.2310 O   0  0  0  0  0  0  0  0  0  0  0  0
  158.7240  211.4390  152.5650 C   0  0  0  0  0  2  0  0  0  0  0  0
  159.3520  212.5600  151.7570 C   0  0  0  0  0  2  0  0  0  0  0  0
  158.3830  213.7190  151.6220 C   0  0  0  0  0  2  0  0  0  0  0  0
  157.2730  213.3710  150.6440 C   0  0  0  0  0  2  0  0  0  0  0  0
  157.5780  213.8990  149.2410 C   0  0  1  0  0  3  0  0  0  0  0  0
  159.0030  214.4140  149.0160 C   0  0  0  0  0  2  0  0  0  0  0  0
  159.9430  213.4590  149.3690 F   0  0  0  0  0  0  0  0  0  0  0  0
  157.0480  213.0930  148.2000 O   0  0  0  0  0  0  0  0  0  0  0  0
  157.9220  212.4070  146.0350 C   0  0  0  0  0  1  0  0  0  0  0  0
  156.4030  214.2620  146.2530 F   0  0  0  0  0  0  0  0  0  0  0  0
  157.3960  213.5400  146.9000 C   0  0  1  0  0  3  0  0  0  0  0  0
  161.0920  209.3190  154.4650 O   0  0  0  0  0  0  0  0  0  0  0  0
  161.9300  210.2460  155.1460 C   0  0  1  0  0  0  0  0  0  0  0  0
  163.2590  210.4650  154.4190 C   0  0  0  0  0  1  0  0  0  0  0  0
  161.2210  211.5880  155.4330 C   0  0  0  0  0  2  0  0  0  0  0  0
  159.8160  211.4530  156.0070 C   0  0  0  0  0  1  0  0  0  0  0  0
  162.3030  209.6290  156.4970 C   0  0  0  0  0  2  0  0  0  0  0  0
  162.0150  208.1280  156.5970 C   0  0  0  0  0  2  0  0  0  0  0  0
  160.6620  207.8500  157.2420 C   0  0  0  0  0  2  0  0  0  0  0  0
  158.6200  207.5380  155.8410 C   0  0  0  0  0  1  0  0  0  0  0  0
  159.8470  206.8610  156.4220 C   0  0  0  0  0  2  0  0  0  0  0  0
  1  3  1  0  0  0  0
  2 11  1  0  0  0  0
  3 16  1  6  0  0  0
  3 10  1  0  0  0  0
  4  2  1  6  0  0  0
  4  6  1  0  0  0  0
  5  8  1  0  0  0  0
  5  4  1  0  0  0  0
  6 10  1  0  0  0  0
  6  9  1  1  0  0  0
  7  9  1  0  0  0  0
  8 14  1  6  0  0  0
  8  1  1  0  0  0  0
 10 28  1  1  0  0  0
 11 12  1  6  0  0  0
 11  7  1  0  0  0  0
 12 13  1  0  0  0  0
 14 15  1  0  0  0  0
 16 17  1  0  0  0  0
 18 17  1  0  0  0  0
 19 18  1  0  0  0  0
 20 19  1  0  0  0  0
 21 22  1  6  0  0  0
 21 20  1  0  0  0  0
 22 23  1  0  0  0  0
 24 21  1  0  0  0  0
 26 27  1  0  0  0  0
 27 25  1  6  0  0  0
 27 24  1  0  0  0  0
 28 29  1  0  0  0  0
 29 30  1  6  0  0  0
 29 31  1  0  0  0  0
 29 33  1  0  0  0  0
 31 32  1  0  0  0  0
 33 34  1  0  0  0  0
 34 35  1  0  0  0  0
 36 37  1  0  0  0  0
 37 35  1  0  0  0  0
M  END
>  <MODEL>
6

>  <REMARK>
 VINA RESULT:      -3.2      3.328      8.107
  Name = 
  18 active torsions:
  status: ('A' for Active; 'I' for Inactive)
    1  A    between atoms: C_1  and  C_5
    2  A    between atoms: C_1  and  C_17
    3  A    between atoms: C_1  and  O_36
    4  A    between atoms: O_2  and  C_6
    5  A    between atoms: O_2  and  C_35
    6  A    between atoms: C_3  and  C_32
    7  A    between atoms: C_6  and  C_8
    8  A    between atoms: C_6  and  C_31
    9  A    between atoms: C_7  and  O_14
   10  A    between atoms: C_7  and  C_27
   11  A    between atoms: C_10  and  O_14
   12  A    between atoms: C_17  and  C_33
   13  A    between atoms: C_22  and  C_24
   14  A    between atoms: C_26  and  C_33
   15  A    between atoms: C_26  and  C_34
   16  A    between atoms: C_27  and  C_37
   17  A    between atoms: C_29  and  O_36
   18  A    between atoms: C_31  and  C_37
                            x       y       z     vdW  Elec       q    Type
                         _______ _______ _______ _____ _____    ______ ____

>  <TORSDO>
F 18

$$$$
=
 OpenBabel11062409173D

 37 38  0  0  1  0  0  0  0  0999 V2000
  160.7720  209.9220  140.7780 O   0  0  0  0  0  0  0  0  0  0  0  0
  164.0370  212.4830  138.9380 C   0  0  0  0  0  2  0  0  0  0  0  0
  160.2020  211.2230  140.8270 C   0  0  2  0  0  3  0  0  0  0  0  0
  162.7110  211.7480  139.1070 C   0  0  1  0  0  3  0  0  0  0  0  0
  162.8090  210.8760  140.1980 O   0  0  0  0  0  0  0  0  0  0  0  0
  161.5600  212.7540  139.3080 C   0  0  1  0  0  3  0  0  0  0  0  0
  162.8160  214.4520  137.9490 C   0  0  0  0  0  2  0  0  0  0  0  0
  161.8920  209.8560  139.9180 C   0  0  1  0  0  3  0  0  0  0  0  0
  161.4970  213.7040  138.1100 C   0  0  0  0  0  2  0  0  0  0  0  0
  160.2120  212.0370  139.5100 C   0  0  2  0  0  3  0  0  0  0  0  0
  163.9620  213.4590  137.7620 C   0  0  1  0  0  3  0  0  0  0  0  0
  165.2930  214.1760  137.5440 C   0  0  0  0  0  2  0  0  0  0  0  0
  166.3890  213.6630  138.4690 C   0  0  0  0  0  1  0  0  0  0  0  0
  162.5770  208.5080  140.0650 C   0  0  0  0  0  2  0  0  0  0  0  0
  162.0480  207.5360  139.0270 C   0  0  0  0  0  1  0  0  0  0  0  0
  160.7190  211.9530  141.9020 O   0  0  0  0  0  0  0  0  0  0  0  0
  159.6860  211.9870  142.8410 C   0  0  0  0  0  2  0  0  0  0  0  0
  159.0930  213.3830  142.9080 C   0  0  0  0  0  2  0  0  0  0  0  0
  158.8440  213.7800  144.3510 C   0  0  0  0  0  2  0  0  0  0  0  0
  159.6080  212.8640  145.2930 C   0  0  0  0  0  2  0  0  0  0  0  0
  159.2550  213.1460  146.7550 C   0  0  1  0  0  3  0  0  0  0  0  0
  157.7690  213.0510  147.1140 C   0  0  0  0  0  2  0  0  0  0  0  0
  157.1410  212.0490  146.3920 F   0  0  0  0  0  0  0  0  0  0  0  0
  160.1480  212.5490  147.6830 O   0  0  0  0  0  0  0  0  0  0  0  0
  160.5050  213.7240  149.7830 C   0  0  0  0  0  1  0  0  0  0  0  0
  162.3310  213.1940  148.3080 F   0  0  0  0  0  0  0  0  0  0  0  0
  160.9750  213.4820  148.3590 C   0  0  1  0  0  3  0  0  0  0  0  0
  159.1660  212.9810  139.5610 O   0  0  0  0  0  0  0  0  0  0  0  0
  158.0670  212.5890  138.7460 C   0  0  1  0  0  0  0  0  0  0  0  0
  157.4920  213.7620  137.9480 C   0  0  0  0  0  1  0  0  0  0  0  0
  158.4070  211.3980  137.8230 C   0  0  0  0  0  2  0  0  0  0  0  0
  157.6540  210.1130  138.1440 C   0  0  0  0  0  1  0  0  0  0  0  0
  156.9380  212.1380  139.6760 C   0  0  0  0  0  2  0  0  0  0  0  0
  155.5340  212.4340  139.1400 C   0  0  0  0  0  2  0  0  0  0  0  0
  154.5600  211.3010  139.4420 C   0  0  0  0  0  2  0  0  0  0  0  0
  153.0770  212.8660  138.1850 C   0  0  0  0  0  1  0  0  0  0  0  0
  153.2870  211.4270  138.6170 C   0  0  0  0  0  2  0  0  0  0  0  0
  1  3  1  0  0  0  0
  3 16  1  1  0  0  0
  4  2  1  1  0  0  0
  4  6  1  0  0  0  0
  4  5  1  0  0  0  0
  6  9  1  6  0  0  0
  6 10  1  0  0  0  0
  7  9  1  0  0  0  0
  8 14  1  1  0  0  0
  8  5  1  0  0  0  0
  8  1  1  0  0  0  0
 10 28  1  1  0  0  0
 10  3  1  0  0  0  0
 11 12  1  1  0  0  0
 11  7  1  0  0  0  0
 11  2  1  0  0  0  0
 12 13  1  0  0  0  0
 15 14  1  0  0  0  0
 16 17  1  0  0  0  0
 17 18  1  0  0  0  0
 18 19  1  0  0  0  0
 19 20  1  0  0  0  0
 21 20  1  6  0  0  0
 21 22  1  0  0  0  0
 21 24  1  0  0  0  0
 23 22  1  0  0  0  0
 24 27  1  0  0  0  0
 26 27  1  0  0  0  0
 27 25  1  1  0  0  0
 29 30  1  6  0  0  0
 29 28  1  0  0  0  0
 29 33  1  0  0  0  0
 31 32  1  0  0  0  0
 31 29  1  0  0  0  0
 34 35  1  0  0  0  0
 34 33  1  0  0  0  0
 36 37  1  0  0  0  0
 37 35  1  0  0  0  0
M  END
>  <MODEL>
7

>  <REMARK>
 VINA RESULT:      -3.0      8.736     13.981
  Name = 
  18 active torsions:
  status: ('A' for Active; 'I' for Inactive)
    1  A    between atoms: C_1  and  C_5
    2  A    between atoms: C_1  and  C_17
    3  A    between atoms: C_1  and  O_36
    4  A    between atoms: O_2  and  C_6
    5  A    between atoms: O_2  and  C_35
    6  A    between atoms: C_3  and  C_32
    7  A    between atoms: C_6  and  C_8
    8  A    between atoms: C_6  and  C_31
    9  A    between atoms: C_7  and  O_14
   10  A    between atoms: C_7  and  C_27
   11  A    between atoms: C_10  and  O_14
   12  A    between atoms: C_17  and  C_33
   13  A    between atoms: C_22  and  C_24
   14  A    between atoms: C_26  and  C_33
   15  A    between atoms: C_26  and  C_34
   16  A    between atoms: C_27  and  C_37
   17  A    between atoms: C_29  and  O_36
   18  A    between atoms: C_31  and  C_37
                            x       y       z     vdW  Elec       q    Type
                         _______ _______ _______ _____ _____    ______ ____

>  <TORSDO>
F 18

$$$$
=
 OpenBabel11062409173D

 37 38  0  0  1  0  0  0  0  0999 V2000
  160.9280  211.9120  147.6320 O   0  0  0  0  0  0  0  0  0  0  0  0
  159.8480  213.0010  151.9050 C   0  0  0  0  0  2  0  0  0  0  0  0
  161.9680  211.2900  148.3760 C   0  0  2  0  0  3  0  0  0  0  0  0
  160.0670  212.1680  150.6450 C   0  0  1  0  0  3  0  0  0  0  0  0
  160.2660  213.0280  149.5590 O   0  0  0  0  0  0  0  0  0  0  0  0
  161.2730  211.2240  150.8270 C   0  0  1  0  0  3  0  0  0  0  0  0
  160.8290  211.1460  153.2980 C   0  0  0  0  0  2  0  0  0  0  0  0
  159.8370  212.2950  148.4460 C   0  0  1  0  0  3  0  0  0  0  0  0
  161.0320  210.3150  152.0350 C   0  0  0  0  0  2  0  0  0  0  0  0
  161.5340  210.3900  149.5580 C   0  0  2  0  0  3  0  0  0  0  0  0
  159.6430  212.0920  153.1180 C   0  0  1  0  0  3  0  0  0  0  0  0
  159.3770  212.9020  154.3850 C   0  0  0  0  0  2  0  0  0  0  0  0
  159.8620  212.1930  155.6430 C   0  0  0  0  0  1  0  0  0  0  0  0
  158.8590  213.1300  147.6370 C   0  0  0  0  0  2  0  0  0  0  0  0
  157.4510  212.9540  148.1740 C   0  0  0  0  0  1  0  0  0  0  0  0
  162.9370  212.2250  148.7530 O   0  0  0  0  0  0  0  0  0  0  0  0
  162.7860  213.2800  147.8490 C   0  0  0  0  0  2  0  0  0  0  0  0
  163.2030  212.8350  146.4590 C   0  0  0  0  0  2  0  0  0  0  0  0
  162.7560  213.8520  145.4250 C   0  0  0  0  0  2  0  0  0  0  0  0
  162.9920  213.3200  144.0220 C   0  0  0  0  0  2  0  0  0  0  0  0
  161.7290  212.6710  143.4500 C   0  0  1  0  0  3  0  0  0  0  0  0
  160.4250  212.9800  144.1930 C   0  0  0  0  0  2  0  0  0  0  0  0
  159.7400  211.8180  144.5090 F   0  0  0  0  0  0  0  0  0  0  0  0
  161.6530  212.7210  142.0330 O   0  0  0  0  0  0  0  0  0  0  0  0
  160.3310  211.2860  140.5800 C   0  0  0  0  0  1  0  0  0  0  0  0
  162.7250  211.0810  140.7170 F   0  0  0  0  0  0  0  0  0  0  0  0
  161.5860  211.4440  141.4210 C   0  0  1  0  0  3  0  0  0  0  0  0
  162.5560  209.4490  149.8010 O   0  0  0  0  0  0  0  0  0  0  0  0
  162.1370  208.1280  149.4780 C   0  0  1  0  0  0  0  0  0  0  0  0
  160.6150  207.9770  149.5220 C   0  0  0  0  0  1  0  0  0  0  0  0
  162.7090  207.6370  148.1290 C   0  0  0  0  0  2  0  0  0  0  0  0
  161.8650  206.5770  147.4330 C   0  0  0  0  0  1  0  0  0  0  0  0
  162.6700  207.1940  150.5670 C   0  0  0  0  0  2  0  0  0  0  0  0
  161.5860  206.6390  151.4960 C   0  0  0  0  0  2  0  0  0  0  0  0
  162.1410  206.2870  152.8710 C   0  0  0  0  0  2  0  0  0  0  0  0
  160.8110  207.5470  154.5650 C   0  0  0  0  0  1  0  0  0  0  0  0
  161.0340  206.1970  153.9120 C   0  0  0  0  0  2  0  0  0  0  0  0
  1  3  1  0  0  0  0
  1  8  1  0  0  0  0
  2 11  1  0  0  0  0
  3 16  1  1  0  0  0
  3 10  1  0  0  0  0
  4  6  1  0  0  0  0
  4  2  1  1  0  0  0
  5  4  1  0  0  0  0
  6  9  1  1  0  0  0
  8 14  1  6  0  0  0
  8  5  1  0  0  0  0
  9  7  1  0  0  0  0
 10 28  1  1  0  0  0
 10  6  1  0  0  0  0
 11  7  1  0  0  0  0
 11 12  1  1  0  0  0
 12 13  1  0  0  0  0
 14 15  1  0  0  0  0
 17 16  1  0  0  0  0
 18 17  1  0  0  0  0
 19 18  1  0  0  0  0
 20 19  1  0  0  0  0
 21 20  1  1  0  0  0
 21 22  1  0  0  0  0
 22 23  1  0  0  0  0
 24 21  1  0  0  0  0
 26 27  1  0  0  0  0
 27 25  1  6  0  0  0
 27 24  1  0  0  0  0
 29 30  1  6  0  0  0
 29 28  1  0  0  0  0
 29 33  1  0  0  0  0
 31 29  1  0  0  0  0
 32 31  1  0  0  0  0
 33 34  1  0  0  0  0
 34 35  1  0  0  0  0
 35 37  1  0  0  0  0
 37 36  1  0  0  0  0
M  END
>  <MODEL>
8

>  <REMARK>
 VINA RESULT:      -3.0      3.774      7.647
  Name = 
  18 active torsions:
  status: ('A' for Active; 'I' for Inactive)
    1  A    between atoms: C_1  and  C_5
    2  A    between atoms: C_1  and  C_17
    3  A    between atoms: C_1  and  O_36
    4  A    between atoms: O_2  and  C_6
    5  A    between atoms: O_2  and  C_35
    6  A    between atoms: C_3  and  C_32
    7  A    between atoms: C_6  and  C_8
    8  A    between atoms: C_6  and  C_31
    9  A    between atoms: C_7  and  O_14
   10  A    between atoms: C_7  and  C_27
   11  A    between atoms: C_10  and  O_14
   12  A    between atoms: C_17  and  C_33
   13  A    between atoms: C_22  and  C_24
   14  A    between atoms: C_26  and  C_33
   15  A    between atoms: C_26  and  C_34
   16  A    between atoms: C_27  and  C_37
   17  A    between atoms: C_29  and  O_36
   18  A    between atoms: C_31  and  C_37
                            x       y       z     vdW  Elec       q    Type
                         _______ _______ _______ _____ _____    ______ ____

>  <TORSDO>
F 18

$$$$
=
 OpenBabel11062409173D

 37 38  0  0  1  0  0  0  0  0999 V2000
  160.9230  211.9980  147.7530 O   0  0  0  0  0  0  0  0  0  0  0  0
  159.5810  213.5300  151.8100 C   0  0  0  0  0  2  0  0  0  0  0  0
  161.9090  211.4570  148.6240 C   0  0  2  0  0  3  0  0  0  0  0  0
  159.8730  212.5690  150.6620 C   0  0  1  0  0  3  0  0  0  0  0  0
  160.1480  213.3100  149.5060 O   0  0  0  0  0  0  0  0  0  0  0  0
  161.0580  211.6480  151.0180 C   0  0  1  0  0  3  0  0  0  0  0  0
  160.4560  211.8300  153.4500 C   0  0  0  0  0  2  0  0  0  0  0  0
  159.7860  212.4650  148.4500 C   0  0  1  0  0  3  0  0  0  0  0  0
  160.7340  210.8720  152.2970 C   0  0  0  0  0  2  0  0  0  0  0  0
  161.3940  210.6860  149.8630 C   0  0  2  0  0  3  0  0  0  0  0  0
  159.2920  212.7530  153.0970 C   0  0  1  0  0  3  0  0  0  0  0  0
  158.9510  213.6920  154.2520 C   0  0  0  0  0  2  0  0  0  0  0  0
  157.5560  214.2890  154.1260 C   0  0  0  0  0  1  0  0  0  0  0  0
  158.8680  213.2120  147.4980 C   0  0  0  0  0  2  0  0  0  0  0  0
  157.4180  212.9910  147.8860 C   0  0  0  0  0  1  0  0  0  0  0  0
  162.8590  212.4250  148.9620 O   0  0  0  0  0  0  0  0  0  0  0  0
  162.7120  213.4240  147.9960 C   0  0  0  0  0  2  0  0  0  0  0  0
  163.2150  212.9240  146.6540 C   0  0  0  0  0  2  0  0  0  0  0  0
  162.6930  213.8050  145.5350 C   0  0  0  0  0  2  0  0  0  0  0  0
  163.2180  213.3240  144.1930 C   0  0  0  0  0  2  0  0  0  0  0  0
  162.0840  213.1340  143.1840 C   0  0  1  0  0  3  0  0  0  0  0  0
  162.5070  213.0300  141.7150 C   0  0  0  0  0  2  0  0  0  0  0  0
  163.2220  214.1480  141.3170 F   0  0  0  0  0  0  0  0  0  0  0  0
  161.0960  212.2050  143.6030 O   0  0  0  0  0  0  0  0  0  0  0  0
  159.5500  214.0790  143.7410 C   0  0  0  0  0  1  0  0  0  0  0  0
  159.3250  212.3790  142.0520 F   0  0  0  0  0  0  0  0  0  0  0  0
  159.7680  212.6290  143.3420 C   0  0  1  0  0  3  0  0  0  0  0  0
  162.3900  209.7750  150.2680 O   0  0  0  0  0  0  0  0  0  0  0  0
  161.9540  208.4280  150.1320 C   0  0  1  0  0  0  0  0  0  0  0  0
  163.0990  207.4290  150.3160 C   0  0  0  0  0  1  0  0  0  0  0  0
  160.7640  208.0920  151.0580 C   0  0  0  0  0  2  0  0  0  0  0  0
  161.1260  207.2450  152.2720 C   0  0  0  0  0  1  0  0  0  0  0  0
  161.4780  208.2380  148.6890 C   0  0  0  0  0  2  0  0  0  0  0  0
  161.9910  206.9570  148.0280 C   0  0  0  0  0  2  0  0  0  0  0  0
  160.9040  205.8940  147.9250 C   0  0  0  0  0  2  0  0  0  0  0  0
  161.2030  203.4210  148.0790 C   0  0  0  0  0  1  0  0  0  0  0  0
  161.1790  204.7230  148.8570 C   0  0  0  0  0  2  0  0  0  0  0  0
  1  8  1  0  0  0  0
  1  3  1  0  0  0  0
  2 11  1  0  0  0  0
  3 16  1  1  0  0  0
  3 10  1  0  0  0  0
  4  6  1  0  0  0  0
  4  2  1  1  0  0  0
  5  4  1  0  0  0  0
  6  9  1  1  0  0  0
  8 14  1  6  0  0  0
  8  5  1  0  0  0  0
  9  7  1  0  0  0  0
 10 28  1  1  0  0  0
 10  6  1  0  0  0  0
 11  7  1  0  0  0  0
 11 12  1  1  0  0  0
 13 12  1  0  0  0  0
 14 15  1  0  0  0  0
 17 16  1  0  0  0  0
 18 17  1  0  0  0  0
 19 18  1  0  0  0  0
 20 19  1  0  0  0  0
 21 22  1  6  0  0  0
 21 24  1  0  0  0  0
 21 20  1  0  0  0  0
 23 22  1  0  0  0  0
 26 27  1  0  0  0  0
 27 24  1  0  0  0  0
 27 25  1  6  0  0  0
 29 28  1  0  0  0  0
 29 30  1  1  0  0  0
 29 31  1  0  0  0  0
 31 32  1  0  0  0  0
 33 29  1  0  0  0  0
 34 33  1  0  0  0  0
 35 34  1  0  0  0  0
 35 37  1  0  0  0  0
 36 37  1  0  0  0  0
M  END
>  <MODEL>
9

>  <REMARK>
 VINA RESULT:      -2.9      3.837      7.905
  Name = 
  18 active torsions:
  status: ('A' for Active; 'I' for Inactive)
    1  A    between atoms: C_1  and  C_5
    2  A    between atoms: C_1  and  C_17
    3  A    between atoms: C_1  and  O_36
    4  A    between atoms: O_2  and  C_6
    5  A    between atoms: O_2  and  C_35
    6  A    between atoms: C_3  and  C_32
    7  A    between atoms: C_6  and  C_8
    8  A    between atoms: C_6  and  C_31
    9  A    between atoms: C_7  and  O_14
   10  A    between atoms: C_7  and  C_27
   11  A    between atoms: C_10  and  O_14
   12  A    between atoms: C_17  and  C_33
   13  A    between atoms: C_22  and  C_24
   14  A    between atoms: C_26  and  C_33
   15  A    between atoms: C_26  and  C_34
   16  A    between atoms: C_27  and  C_37
   17  A    between atoms: C_29  and  O_36
   18  A    between atoms: C_31  and  C_37
                            x       y       z     vdW  Elec       q    Type
                         _______ _______ _______ _____ _____    ______ ____

>  <TORSDO>
F 18

$$$$
