=
 OpenBabel11062408033D

 34 39  0  0  1  0  0  0  0  0999 V2000
  161.2130  207.5400  153.8920 C   0  0  0  0  0  0  0  0  0  0  0  0
  161.6860  209.7970  152.8460 C   0  0  2  0  0  3  0  0  0  0  0  0
  161.3660  207.6480  151.4490 C   0  0  0  0  0  0  0  0  0  0  0  0
  161.3320  207.6410  149.0410 N   0  0  1  0  0  0  0  0  0  0  0  0
  160.5460  209.5700  155.1150 C   0  0  0  0  0  2  0  0  0  0  0  0
  161.4590  210.4090  154.2370 C   0  0  0  0  0  2  0  0  0  0  0  0
  161.5830  209.7160  150.0620 N   0  0  0  0  0  0  0  0  0  0  0  0
  161.4100  208.3030  152.7190 C   0  0  0  0  0  0  0  0  0  0  0  0
  161.5610  208.6070  148.0980 O   0  0  0  0  0  0  0  0  0  0  0  0
  161.1470  208.1840  155.2410 C   0  0  0  0  0  2  0  0  0  0  0  0
  161.2560  206.2190  151.3990 C   0  0  0  0  0  0  0  0  0  0  0  0
  161.0820  206.1600  153.8250 C   0  0  0  0  0  3  0  0  0  0  0  0
  163.0040  210.0590  152.4670 O   0  0  0  0  0  1  0  0  0  0  0  0
  161.6010  206.2240  148.9080 C   0  0  0  0  0  2  0  0  0  0  0  0
  161.3140  205.5270  150.2180 C   0  0  1  0  0  3  0  0  0  0  0  0
  161.6720  209.8230  148.7710 C   0  0  0  0  0  0  0  0  0  0  0  0
  161.3970  208.3150  150.2760 C   0  0  2  0  0  3  0  0  0  0  0  0
  161.1200  205.5110  152.6010 C   0  0  0  0  0  3  0  0  0  0  0  0
  160.9720  202.0080  148.8820 C   0  0  0  0  0  0  0  0  0  0  0  0
  161.0220  201.2620  150.0620 C   0  0  0  0  0  3  0  0  0  0  0  0
  161.2130  204.0550  150.1620 C   0  0  0  0  0  0  0  0  0  0  0  0
  161.1710  201.9070  151.2910 C   0  0  0  0  0  3  0  0  0  0  0  0
  161.0670  203.4010  148.9300 C   0  0  0  0  0  3  0  0  0  0  0  0
  161.2660  203.3030  151.3430 C   0  0  0  0  0  3  0  0  0  0  0  0
  160.7890  201.1980  147.3420 Cl  0  0  0  0  0  0  0  0  0  0  0  0
  160.9110  211.8090  147.7120 C   0  0  0  0  0  3  0  0  0  0  0  0
  161.8920  211.0750  148.1220 N   0  0  0  0  0  0  0  0  0  0  0  0
  163.4990  213.1640  147.8660 N   0  0  0  0  0  1  0  0  0  0  0  0
  161.2000  213.0910  147.0110 C   0  0  1  0  0  3  0  0  0  0  0  0
  162.6930  213.1980  146.6580 C   0  0  1  0  0  3  0  0  0  0  0  0
  162.2220  214.4530  144.6860 C   0  0  0  0  0  2  0  0  0  0  0  0
  160.7210  214.4490  144.9640 C   0  0  0  0  0  2  0  0  0  0  0  0
  160.3570  213.1850  145.7390 C   0  0  0  0  0  2  0  0  0  0  0  0
  162.9660  214.4460  145.9440 N   0  0  0  0  0  2  0  0  0  0  0  0
  1 10  1  0  0  0  0
  2 13  1  1  0  0  0
  2  6  1  0  0  0  0
  3  8  1  0  0  0  0
  4 14  1  1  0  0  0
  4 17  1  0  0  0  0
  5 10  1  0  0  0  0
  6  5  1  0  0  0  0
  8  2  1  0  0  0  0
  8  1  2  0  0  0  0
  9 16  1  0  0  0  0
  9  4  1  0  0  0  0
 11  3  2  0  0  0  0
 11 18  1  0  0  0  0
 12  1  1  0  0  0  0
 14 15  1  0  0  0  0
 15 21  1  1  0  0  0
 15 11  1  0  0  0  0
 16  7  2  0  0  0  0
 17  7  1  6  0  0  0
 17  3  1  0  0  0  0
 18 12  2  0  0  0  0
 19 23  2  0  0  0  0
 19 20  1  0  0  0  0
 20 22  2  0  0  0  0
 21 24  2  0  0  0  0
 22 24  1  0  0  0  0
 23 21  1  0  0  0  0
 25 19  1  0  0  0  0
 26 27  2  0  0  0  0
 27 16  1  0  0  0  0
 29 26  1  6  0  0  0
 30 29  1  0  0  0  0
 30 28  1  1  0  0  0
 31 32  1  0  0  0  0
 31 34  1  0  0  0  0
 32 33  1  0  0  0  0
 33 29  1  0  0  0  0
 34 30  1  0  0  0  0
M  END
>  <MODEL>
1

>  <REMARK>
 VINA RESULT:     -10.6      0.000      0.000
  Name = 
  3 active torsions:
  status: ('A' for Active; 'I' for Inactive)
    1  A    between atoms: C_3  and  C_13
    2  A    between atoms: C_12  and  C_28
    3  A    between atoms: N_17  and  C_29
                            x       y       z     vdW  Elec       q    Type
                         _______ _______ _______ _____ _____    ______ ____

>  <TORSDO>
F 3

$$$$
=
 OpenBabel11062408033D

 34 39  0  0  1  0  0  0  0  0999 V2000
  161.1630  205.2770  152.6470 C   0  0  0  0  0  0  0  0  0  0  0  0
  161.4960  207.7410  152.1720 C   0  0  2  0  0  3  0  0  0  0  0  0
  161.2390  205.9780  150.3010 C   0  0  0  0  0  0  0  0  0  0  0  0
  161.1350  206.5510  147.9640 N   0  0  1  0  0  0  0  0  0  0  0  0
  160.4350  206.9130  154.3370 C   0  0  0  0  0  2  0  0  0  0  0  0
  161.2800  207.9860  153.6730 C   0  0  0  0  0  2  0  0  0  0  0  0
  161.3150  208.3280  149.4530 N   0  0  0  0  0  0  0  0  0  0  0  0
  161.2880  206.3090  151.6910 C   0  0  0  0  0  0  0  0  0  0  0  0
  161.2890  207.7270  147.2790 O   0  0  0  0  0  0  0  0  0  0  0  0
  161.1060  205.5710  154.1130 C   0  0  0  0  0  2  0  0  0  0  0  0
  161.1970  204.6000  149.9080 C   0  0  0  0  0  0  0  0  0  0  0  0
  161.0970  203.9480  152.2500 C   0  0  0  0  0  3  0  0  0  0  0  0
  162.7880  208.1580  151.8460 O   0  0  0  0  0  1  0  0  0  0  0  0
  161.4680  205.2250  147.4870 C   0  0  0  0  0  2  0  0  0  0  0  0
  161.2530  204.2180  148.5940 C   0  0  1  0  0  3  0  0  0  0  0  0
  161.3610  208.7490  148.2250 C   0  0  0  0  0  0  0  0  0  0  0  0
  161.2040  206.9100  149.3240 C   0  0  2  0  0  3  0  0  0  0  0  0
  161.1300  203.6170  150.9040 C   0  0  0  0  0  3  0  0  0  0  0  0
  160.7960  201.1020  146.5030 C   0  0  0  0  0  0  0  0  0  0  0  0
  161.1650  200.1070  147.4130 C   0  0  0  0  0  3  0  0  0  0  0  0
  161.2220  202.8000  148.1840 C   0  0  0  0  0  0  0  0  0  0  0  0
  161.5660  200.4540  148.7040 C   0  0  0  0  0  3  0  0  0  0  0  0
  160.8240  202.4450  146.8870 C   0  0  0  0  0  3  0  0  0  0  0  0
  161.5940  201.7990  149.0910 C   0  0  0  0  0  3  0  0  0  0  0  0
  160.2980  200.6660  144.8840 Cl  0  0  0  0  0  0  0  0  0  0  0  0
  161.6710  211.0320  148.8050 C   0  0  0  0  0  3  0  0  0  0  0  0
  161.5010  210.1300  147.8950 N   0  0  0  0  0  0  0  0  0  0  0  0
  164.1660  212.2510  147.8840 N   0  0  0  0  0  1  0  0  0  0  0  0
  161.7770  212.4630  148.4050 C   0  0  1  0  0  3  0  0  0  0  0  0
  162.8790  212.6570  147.3490 C   0  0  1  0  0  3  0  0  0  0  0  0
  161.6930  214.4530  146.3230 C   0  0  0  0  0  2  0  0  0  0  0  0
  160.5650  214.3800  147.3490 C   0  0  0  0  0  2  0  0  0  0  0  0
  160.4360  212.9450  147.8530 C   0  0  0  0  0  2  0  0  0  0  0  0
  162.9580  214.0590  146.9390 N   0  0  0  0  0  2  0  0  0  0  0  0
  1 10  1  0  0  0  0
  2 13  1  1  0  0  0
  2  6  1  0  0  0  0
  3  8  1  0  0  0  0
  4 14  1  6  0  0  0
  4 17  1  0  0  0  0
  6  5  1  0  0  0  0
  8  2  1  0  0  0  0
  8  1  2  0  0  0  0
  9  4  1  0  0  0  0
  9 16  1  0  0  0  0
 10  5  1  0  0  0  0
 11  3  2  0  0  0  0
 11 18  1  0  0  0  0
 12  1  1  0  0  0  0
 14 15  1  0  0  0  0
 15 21  1  1  0  0  0
 15 11  1  0  0  0  0
 16  7  2  0  0  0  0
 17  7  1  6  0  0  0
 17  3  1  0  0  0  0
 18 12  2  0  0  0  0
 19 23  2  0  0  0  0
 19 20  1  0  0  0  0
 20 22  2  0  0  0  0
 21 24  2  0  0  0  0
 22 24  1  0  0  0  0
 23 21  1  0  0  0  0
 25 19  1  0  0  0  0
 27 16  1  0  0  0  0
 27 26  2  0  0  0  0
 29 26  1  6  0  0  0
 30 28  1  1  0  0  0
 30 29  1  0  0  0  0
 31 34  1  0  0  0  0
 31 32  1  0  0  0  0
 32 33  1  0  0  0  0
 33 29  1  0  0  0  0
 34 30  1  0  0  0  0
M  END
>  <MODEL>
2

>  <REMARK>
 VINA RESULT:      -9.8      1.370      2.132
  Name = 
  3 active torsions:
  status: ('A' for Active; 'I' for Inactive)
    1  A    between atoms: C_3  and  C_13
    2  A    between atoms: C_12  and  C_28
    3  A    between atoms: N_17  and  C_29
                            x       y       z     vdW  Elec       q    Type
                         _______ _______ _______ _____ _____    ______ ____

>  <TORSDO>
F 3

$$$$
=
 OpenBabel11062408033D

 34 39  0  0  1  0  0  0  0  0999 V2000
  161.2180  205.0530  149.8480 C   0  0  0  0  0  0  0  0  0  0  0  0
  161.2360  206.4960  147.7670 C   0  0  2  0  0  3  0  0  0  0  0  0
  161.4110  207.4770  150.1500 C   0  0  0  0  0  0  0  0  0  0  0  0
  161.7650  209.8200  150.5820 N   0  0  1  0  0  0  0  0  0  0  0  0
  162.0150  204.0680  147.7370 C   0  0  0  0  0  2  0  0  0  0  0  0
  161.3650  205.1980  146.9550 C   0  0  0  0  0  2  0  0  0  0  0  0
  161.6970  209.1830  148.3460 N   0  0  0  0  0  0  0  0  0  0  0  0
  161.2980  206.3460  149.2830 C   0  0  0  0  0  0  0  0  0  0  0  0
  161.8140  210.9250  149.7750 O   0  0  0  0  0  0  0  0  0  0  0  0
  161.1990  203.8270  148.9920 C   0  0  0  0  0  2  0  0  0  0  0  0
  161.3090  207.2890  151.5680 C   0  0  0  0  0  0  0  0  0  0  0  0
  161.1460  204.8850  151.2240 C   0  0  0  0  0  3  0  0  0  0  0  0
  160.0350  207.1130  147.4100 O   0  0  0  0  0  1  0  0  0  0  0  0
  161.3050  209.7740  151.9540 C   0  0  0  0  0  2  0  0  0  0  0  0
  161.3060  208.3430  152.4430 C   0  0  1  0  0  3  0  0  0  0  0  0
  161.8000  210.4730  148.4560 C   0  0  0  0  0  0  0  0  0  0  0  0
  161.6380  208.7290  149.7000 C   0  0  2  0  0  3  0  0  0  0  0  0
  161.1740  205.9860  152.0660 C   0  0  0  0  0  3  0  0  0  0  0  0
  161.6800  208.8810  156.1650 C   0  0  0  0  0  0  0  0  0  0  0  0
  160.9640  207.7920  156.6710 C   0  0  0  0  0  3  0  0  0  0  0  0
  161.1890  208.1550  153.9020 C   0  0  0  0  0  0  0  0  0  0  0  0
  160.3570  206.8880  155.7980 C   0  0  0  0  0  3  0  0  0  0  0  0
  161.7920  209.0630  154.7840 C   0  0  0  0  0  3  0  0  0  0  0  0
  160.4700  207.0670  154.4140 C   0  0  0  0  0  3  0  0  0  0  0  0
  162.4360  210.0170  157.2610 Cl  0  0  0  0  0  0  0  0  0  0  0  0
  160.9450  212.2140  147.0830 C   0  0  0  0  0  3  0  0  0  0  0  0
  161.8610  211.3340  147.3190 N   0  0  0  0  0  0  0  0  0  0  0  0
  162.8680  214.4030  146.8110 N   0  0  0  0  0  1  0  0  0  0  0  0
  161.0440  213.0630  145.8630 C   0  0  1  0  0  3  0  0  0  0  0  0
  162.4770  213.5880  145.6740 C   0  0  1  0  0  3  0  0  0  0  0  0
  162.2630  213.5620  143.3000 C   0  0  0  0  0  2  0  0  0  0  0  0
  160.8140  213.0850  143.3710 C   0  0  0  0  0  2  0  0  0  0  0  0
  160.6210  212.2540  144.6360 C   0  0  0  0  0  2  0  0  0  0  0  0
  162.5740  214.3970  144.4590 N   0  0  0  0  0  2  0  0  0  0  0  0
  1 12  1  0  0  0  0
  2 13  1  1  0  0  0
  2  8  1  0  0  0  0
  3 11  2  0  0  0  0
  4 14  1  1  0  0  0
  5 10  1  0  0  0  0
  6  5  1  0  0  0  0
  6  2  1  0  0  0  0
  7 16  2  0  0  0  0
  8  1  2  0  0  0  0
  8  3  1  0  0  0  0
  9  4  1  0  0  0  0
 10  1  1  0  0  0  0
 11 18  1  0  0  0  0
 11 15  1  0  0  0  0
 12 18  2  0  0  0  0
 14 15  1  0  0  0  0
 15 21  1  6  0  0  0
 16  9  1  0  0  0  0
 17  7  1  6  0  0  0
 17  3  1  0  0  0  0
 17  4  1  0  0  0  0
 19 20  1  0  0  0  0
 19 25  1  0  0  0  0
 21 24  2  0  0  0  0
 21 23  1  0  0  0  0
 22 20  2  0  0  0  0
 23 19  2  0  0  0  0
 24 22  1  0  0  0  0
 26 27  2  0  0  0  0
 27 16  1  0  0  0  0
 29 26  1  1  0  0  0
 30 29  1  0  0  0  0
 30 28  1  1  0  0  0
 31 32  1  0  0  0  0
 31 34  1  0  0  0  0
 32 33  1  0  0  0  0
 33 29  1  0  0  0  0
 34 30  1  0  0  0  0
M  END
>  <MODEL>
3

>  <REMARK>
 VINA RESULT:      -9.5      2.679      5.319
  Name = 
  3 active torsions:
  status: ('A' for Active; 'I' for Inactive)
    1  A    between atoms: C_3  and  C_13
    2  A    between atoms: C_12  and  C_28
    3  A    between atoms: N_17  and  C_29
                            x       y       z     vdW  Elec       q    Type
                         _______ _______ _______ _____ _____    ______ ____

>  <TORSDO>
F 3

$$$$
=
 OpenBabel11062408033D

 34 39  0  0  1  0  0  0  0  0999 V2000
  160.4600  213.3540  150.2700 C   0  0  0  0  0  0  0  0  0  0  0  0
  161.4000  211.1910  149.3480 C   0  0  2  0  0  3  0  0  0  0  0  0
  160.4080  211.3830  151.7250 C   0  0  0  0  0  0  0  0  0  0  0  0
  160.1510  209.4930  153.1950 N   0  0  1  0  0  0  0  0  0  0  0  0
  160.4550  213.0120  147.8320 C   0  0  0  0  0  2  0  0  0  0  0  0
  161.4690  211.8890  147.9800 C   0  0  0  0  0  2  0  0  0  0  0  0
  161.0220  209.0460  151.0860 N   0  0  0  0  0  0  0  0  0  0  0  0
  160.7370  211.9830  150.4700 C   0  0  0  0  0  0  0  0  0  0  0  0
  160.5320  208.1810  153.1110 O   0  0  0  0  0  0  0  0  0  0  0  0
  160.6870  214.0130  148.9470 C   0  0  0  0  0  2  0  0  0  0  0  0
  159.9290  212.2090  152.7950 C   0  0  0  0  0  0  0  0  0  0  0  0
  159.9710  214.1360  151.3090 C   0  0  0  0  0  3  0  0  0  0  0  0
  162.7000  210.8510  149.7260 O   0  0  0  0  0  1  0  0  0  0  0  0
  160.0310  210.2800  154.4050 C   0  0  0  0  0  2  0  0  0  0  0  0
  159.6960  211.7110  154.0490 C   0  0  1  0  0  3  0  0  0  0  0  0
  161.0150  207.9740  151.8190 C   0  0  0  0  0  0  0  0  0  0  0  0
  160.5010  210.0560  151.9530 C   0  0  2  0  0  3  0  0  0  0  0  0
  159.7270  213.5750  152.5530 C   0  0  0  0  0  3  0  0  0  0  0  0
  157.3980  213.6620  156.3290 C   0  0  0  0  0  0  0  0  0  0  0  0
  158.3070  214.1710  157.2610 C   0  0  0  0  0  3  0  0  0  0  0  0
  159.2150  212.5600  155.1570 C   0  0  0  0  0  0  0  0  0  0  0  0
  159.6660  213.8740  157.1470 C   0  0  0  0  0  3  0  0  0  0  0  0
  157.8500  212.8580  155.2800 C   0  0  0  0  0  3  0  0  0  0  0  0
  160.1210  213.0700  156.0960 C   0  0  0  0  0  3  0  0  0  0  0  0
  155.6940  214.0320  156.4760 Cl  0  0  0  0  0  0  0  0  0  0  0  0
  160.7600  205.9570  150.5900 C   0  0  0  0  0  3  0  0  0  0  0  0
  161.4890  206.7170  151.3380 N   0  0  0  0  0  0  0  0  0  0  0  0
  160.8010  203.5870  152.3060 N   0  0  0  0  0  1  0  0  0  0  0  0
  161.2940  204.6400  150.1450 C   0  0  1  0  0  3  0  0  0  0  0  0
  160.5850  203.4860  150.8740 C   0  0  1  0  0  3  0  0  0  0  0  0
  160.8060  202.0470  148.9850 C   0  0  0  0  0  2  0  0  0  0  0  0
  161.5630  203.1060  148.1860 C   0  0  0  0  0  2  0  0  0  0  0  0
  161.1090  204.4930  148.6340 C   0  0  0  0  0  2  0  0  0  0  0  0
  161.0930  202.1940  150.4100 N   0  0  0  0  0  2  0  0  0  0  0  0
  1  8  2  0  0  0  0
  1 12  1  0  0  0  0
  2 13  1  1  0  0  0
  2  8  1  0  0  0  0
  3 17  1  0  0  0  0
  3 11  2  0  0  0  0
  4 14  1  1  0  0  0
  5  6  1  0  0  0  0
  5 10  1  0  0  0  0
  6  2  1  0  0  0  0
  7 16  2  0  0  0  0
  8  3  1  0  0  0  0
  9  4  1  0  0  0  0
 10  1  1  0  0  0  0
 11 15  1  0  0  0  0
 12 18  2  0  0  0  0
 15 14  1  0  0  0  0
 15 21  1  1  0  0  0
 16  9  1  0  0  0  0
 17  7  1  1  0  0  0
 17  4  1  0  0  0  0
 18 11  1  0  0  0  0
 19 25  1  0  0  0  0
 19 20  1  0  0  0  0
 21 23  1  0  0  0  0
 21 24  2  0  0  0  0
 22 20  2  0  0  0  0
 23 19  2  0  0  0  0
 24 22  1  0  0  0  0
 26 27  2  0  0  0  0
 27 16  1  0  0  0  0
 29 26  1  1  0  0  0
 29 30  1  0  0  0  0
 30 28  1  1  0  0  0
 31 34  1  0  0  0  0
 32 33  1  0  0  0  0
 32 31  1  0  0  0  0
 33 29  1  0  0  0  0
 34 30  1  0  0  0  0
M  END
>  <MODEL>
4

>  <REMARK>
 VINA RESULT:      -7.7      4.133      9.142
  Name = 
  3 active torsions:
  status: ('A' for Active; 'I' for Inactive)
    1  A    between atoms: C_3  and  C_13
    2  A    between atoms: C_12  and  C_28
    3  A    between atoms: N_17  and  C_29
                            x       y       z     vdW  Elec       q    Type
                         _______ _______ _______ _____ _____    ______ ____

>  <TORSDO>
F 3

$$$$
