=
 OpenBabel11062410193D

 43 48  0  0  1  0  0  0  0  0999 V2000
  161.0480  202.2340  147.0420 C   0  0  0  0  0  0  0  0  0  0  0  0
  161.2610  207.0830  148.3240 C   0  0  0  0  0  0  0  0  0  0  0  0
  160.8580  204.7020  147.0700 C   0  0  2  0  0  3  0  0  0  0  0  0
  161.1880  202.1960  148.5540 C   0  0  0  0  0  2  0  0  0  0  0  0
  161.1410  201.0700  146.3510 F   0  0  0  0  0  0  0  0  0  0  0  0
  161.6110  204.6560  148.4060 C   0  0  2  0  0  3  0  0  0  0  0  0
  160.9740  203.3890  146.3570 C   0  0  0  0  0  3  0  0  0  0  0  0
  160.9800  203.5550  149.2430 C   0  0  0  0  0  2  0  0  0  0  0  0
  161.8000  206.3080  150.3890 N   0  0  0  0  0  2  0  0  0  0  0  0
  161.5090  206.0080  149.0390 C   0  0  0  0  0  0  0  0  0  0  0  0
  160.8410  206.9740  146.8770 C   0  0  0  0  0  2  0  0  0  0  0  0
  161.2510  208.3000  149.1740 C   0  0  1  0  0  3  0  0  0  0  0  0
  161.6580  207.7530  150.5560 C   0  0  1  0  0  3  0  0  0  0  0  0
  161.3250  205.7780  146.2850 O   0  0  0  0  0  0  0  0  0  0  0  0
  162.2930  209.2860  148.6780 C   0  0  0  0  0  2  0  0  0  0  0  0
  162.2600  210.4460  149.4550 O   0  0  0  0  0  0  0  0  0  0  0  0
  160.0370  213.2000  148.4210 C   0  0  0  0  0  2  0  0  0  0  0  0
  162.8890  212.8850  146.7260 C   0  0  0  0  0  2  0  0  0  0  0  0
  161.9250  214.0470  146.9320 C   0  0  0  0  0  2  0  0  0  0  0  0
  161.0740  212.5070  149.3100 C   0  0  0  0  0  2  0  0  0  0  0  0
  161.8940  211.4590  148.5670 C   0  0  0  0  0  3  0  0  0  0  0  0
  160.4980  213.5250  146.9960 C   0  0  0  0  0  2  0  0  0  0  0  0
  163.1540  212.1170  148.0160 C   0  0  0  0  0  2  0  0  0  0  0  0
  160.6460  208.0210  151.4810 O   0  0  0  0  0  0  0  0  0  0  0  0
  161.2540  208.8120  152.4570 C   0  0  1  0  0  3  0  0  0  0  0  0
  160.1800  209.5210  153.2610 C   0  0  1  0  0  3  0  0  0  0  0  0
  160.8710  208.2960  153.8270 C   0  0  0  0  0  2  0  0  0  0  0  0
  160.7620  210.7750  153.9090 C   0  0  1  0  0  3  0  0  0  0  0  0
  160.7280  211.8290  152.9930 O   0  0  0  0  0  1  0  0  0  0  0  0
  158.8090  210.5000  155.2730 O   0  0  0  0  0  1  0  0  0  0  0  0
  160.0320  211.1860  155.2030 C   0  0  1  0  0  0  0  0  0  0  0  0
  160.9010  210.8550  156.4290 C   0  0  0  0  0  2  0  0  0  0  0  0
  162.4330  209.3370  156.9000 C   0  0  0  0  0  1  0  0  0  0  0  0
  162.1690  210.4080  156.0480 O   0  0  0  0  0  0  0  0  0  0  0  0
  159.8200  212.5870  155.1390 O   0  0  0  0  0  0  0  0  0  0  0  0
  158.5120  212.9020  155.5540 C   0  0  1  0  0  3  0  0  0  0  0  0
  158.4930  213.0310  156.9450 O   0  0  0  0  0  1  0  0  0  0  0  0
  158.0650  214.2140  154.9060 C   0  0  0  0  0  3  0  0  0  0  0  0
  155.8360  213.5430  153.9550 C   0  0  0  0  0  2  0  0  0  0  0  0
  157.6020  213.4470  152.5580 C   0  0  0  0  0  2  0  0  0  0  0  0
  156.2770  213.9010  152.6690 O   0  0  0  0  0  0  0  0  0  0  0  0
  158.5180  214.2980  153.4430 C   0  0  0  0  0  2  0  0  0  0  0  0
  156.5450  214.4000  155.0070 C   0  0  0  0  0  2  0  0  0  0  0  0
  1  4  1  0  0  0  0
  2 10  2  0  0  0  0
  2 12  1  0  0  0  0
  3  7  1  6  0  0  0
  3  6  1  0  0  0  0
  4  8  1  0  0  0  0
  5  1  1  0  0  0  0
  6 10  1  0  0  0  0
  6  8  1  1  0  0  0
  7  1  2  0  0  0  0
  9 13  1  0  0  0  0
 10  9  1  0  0  0  0
 11  2  1  0  0  0  0
 12 15  1  6  0  0  0
 12 13  1  0  0  0  0
 13 24  1  1  0  0  0
 14 11  1  0  0  0  0
 14  3  1  0  0  0  0
 15 16  1  0  0  0  0
 17 20  1  0  0  0  0
 18 19  1  0  0  0  0
 18 23  1  0  0  0  0
 19 22  1  0  0  0  0
 21 20  1  0  0  0  0
 21 16  1  0  0  0  0
 22 17  1  0  0  0  0
 23 21  1  0  0  0  0
 25 24  1  6  0  0  0
 25 26  1  0  0  0  0
 25 27  1  0  0  0  0
 26 27  1  0  0  0  0
 26 28  1  1  0  0  0
 28 29  1  6  0  0  0
 28 31  1  0  0  0  0
 31 30  1  1  0  0  0
 31 32  1  0  0  0  0
 34 32  1  0  0  0  0
 34 33  1  0  0  0  0
 35 31  1  0  0  0  0
 35 36  1  0  0  0  0
 36 37  1  1  0  0  0
 38 43  1  0  0  0  0
 38 36  1  0  0  0  0
 39 43  1  0  0  0  0
 40 41  1  0  0  0  0
 40 42  1  0  0  0  0
 41 39  1  0  0  0  0
 42 38  1  0  0  0  0
M  END
>  <MODEL>
1

>  <REMARK>
 VINA RESULT:      -7.1      0.000      0.000
  Name = 
  12 active torsions:
  status: ('A' for Active; 'I' for Inactive)
    1  A    between atoms: C_1  and  O_28
    2  A    between atoms: C_1  and  C_34
    3  A    between atoms: C_2  and  O_13
    4  A    between atoms: C_4  and  C_12
    5  A    between atoms: C_4  and  C_15
    6  A    between atoms: C_4  and  O_22
    7  A    between atoms: C_6  and  C_12
    8  A    between atoms: C_11  and  C_14
    9  A    between atoms: O_13  and  C_38
   10  A    between atoms: C_14  and  O_22
   11  A    between atoms: C_15  and  O_42
   12  A    between atoms: O_28  and  C_35
                            x       y       z     vdW  Elec       q    Type
                         _______ _______ _______ _____ _____    ______ ____

>  <TORSDO>
F 12

$$$$
=
 OpenBabel11062410193D

 43 48  0  0  1  0  0  0  0  0999 V2000
  160.7880  202.5400  150.2700 C   0  0  0  0  0  0  0  0  0  0  0  0
  162.0230  207.3190  151.1830 C   0  0  0  0  0  0  0  0  0  0  0  0
  161.7540  204.6120  151.2190 C   0  0  2  0  0  3  0  0  0  0  0  0
  160.5070  203.2380  148.9500 C   0  0  0  0  0  2  0  0  0  0  0  0
  160.3910  201.2510  150.4210 F   0  0  0  0  0  0  0  0  0  0  0  0
  160.9080  205.3720  150.1900 C   0  0  2  0  0  3  0  0  0  0  0  0
  161.2890  203.1920  151.3340 C   0  0  0  0  0  3  0  0  0  0  0  0
  161.0760  204.6630  148.8550 C   0  0  0  0  0  2  0  0  0  0  0  0
  161.0800  207.7410  149.1610 N   0  0  0  0  0  2  0  0  0  0  0  0
  161.3810  206.7920  150.1640 C   0  0  0  0  0  0  0  0  0  0  0  0
  162.5140  206.4560  152.3220 C   0  0  0  0  0  2  0  0  0  0  0  0
  162.3450  208.7460  150.9310 C   0  0  1  0  0  3  0  0  0  0  0  0
  161.6620  209.0160  149.5770 C   0  0  1  0  0  3  0  0  0  0  0  0
  161.7290  205.2830  152.4610 O   0  0  0  0  0  0  0  0  0  0  0  0
  161.7220  209.6150  152.0100 C   0  0  0  0  0  2  0  0  0  0  0  0
  160.5350  209.0350  152.4620 O   0  0  0  0  0  0  0  0  0  0  0  0
  160.9400  210.7070  155.7230 C   0  0  0  0  0  2  0  0  0  0  0  0
  158.4380  211.7890  153.8060 C   0  0  0  0  0  2  0  0  0  0  0  0
  159.2080  212.4160  154.9630 C   0  0  0  0  0  2  0  0  0  0  0  0
  161.2720  210.4190  154.2560 C   0  0  0  0  0  2  0  0  0  0  0  0
  160.0800  209.8920  153.4660 C   0  0  0  0  0  3  0  0  0  0  0  0
  159.5690  211.3440  155.9790 C   0  0  0  0  0  2  0  0  0  0  0  0
  159.3550  211.0700  152.8230 C   0  0  0  0  0  2  0  0  0  0  0  0
  162.6180  209.4220  148.6440 O   0  0  0  0  0  0  0  0  0  0  0  0
  162.5890  210.8160  148.6860 C   0  0  1  0  0  3  0  0  0  0  0  0
  161.4830  211.3190  147.7770 C   0  0  1  0  0  3  0  0  0  0  0  0
  161.2730  211.2710  149.2780 C   0  0  0  0  0  2  0  0  0  0  0  0
  161.7740  212.7560  147.3530 C   0  0  1  0  0  3  0  0  0  0  0  0
  162.9730  212.7950  146.6380 O   0  0  0  0  0  1  0  0  0  0  0  0
  159.7820  212.3630  146.0760 O   0  0  0  0  0  1  0  0  0  0  0  0
  160.6450  213.3820  146.5100 C   0  0  1  0  0  0  0  0  0  0  0  0
  159.8720  214.4170  147.3460 C   0  0  0  0  0  2  0  0  0  0  0  0
  158.6750  213.8960  149.1250 C   0  0  0  0  0  1  0  0  0  0  0  0
  158.6220  213.9280  147.7330 O   0  0  0  0  0  0  0  0  0  0  0  0
  161.2560  214.0300  145.4050 O   0  0  0  0  0  0  0  0  0  0  0  0
  160.6080  213.6660  144.2080 C   0  0  1  0  0  3  0  0  0  0  0  0
  159.4570  214.4430  144.0590 O   0  0  0  0  0  1  0  0  0  0  0  0
  161.5460  213.8960  143.0220 C   0  0  0  0  0  3  0  0  0  0  0  0
  160.0300  213.3300  141.0970 C   0  0  0  0  0  2  0  0  0  0  0  0
  161.3710  211.6810  141.8470 C   0  0  0  0  0  2  0  0  0  0  0  0
  160.9290  212.3310  140.6830 O   0  0  0  0  0  0  0  0  0  0  0  0
  162.2920  212.6100  142.6430 C   0  0  0  0  0  2  0  0  0  0  0  0
  160.7900  214.4530  141.8080 C   0  0  0  0  0  2  0  0  0  0  0  0
  1  5  1  0  0  0  0
  1  7  2  0  0  0  0
  2 11  1  0  0  0  0
  3  7  1  1  0  0  0
  3 14  1  0  0  0  0
  4  1  1  0  0  0  0
  6  8  1  6  0  0  0
  6  3  1  0  0  0  0
  8  4  1  0  0  0  0
  9 13  1  0  0  0  0
  9 10  1  0  0  0  0
 10  6  1  0  0  0  0
 10  2  2  0  0  0  0
 11 14  1  0  0  0  0
 12  2  1  0  0  0  0
 12 15  1  1  0  0  0
 13 24  1  6  0  0  0
 13 12  1  0  0  0  0
 15 16  1  0  0  0  0
 16 21  1  0  0  0  0
 17 22  1  0  0  0  0
 18 19  1  0  0  0  0
 19 22  1  0  0  0  0
 20 17  1  0  0  0  0
 21 20  1  0  0  0  0
 23 21  1  0  0  0  0
 23 18  1  0  0  0  0
 25 24  1  6  0  0  0
 25 27  1  0  0  0  0
 26 28  1  1  0  0  0
 26 25  1  0  0  0  0
 26 27  1  0  0  0  0
 28 29  1  6  0  0  0
 31 30  1  6  0  0  0
 31 32  1  0  0  0  0
 31 28  1  0  0  0  0
 32 34  1  0  0  0  0
 34 33  1  0  0  0  0
 35 31  1  0  0  0  0
 36 37  1  6  0  0  0
 36 35  1  0  0  0  0
 38 36  1  0  0  0  0
 39 43  1  0  0  0  0
 40 42  1  0  0  0  0
 41 39  1  0  0  0  0
 41 40  1  0  0  0  0
 42 38  1  0  0  0  0
 43 38  1  0  0  0  0
M  END
>  <MODEL>
2

>  <REMARK>
 VINA RESULT:      -6.2      3.170      7.773
  Name = 
  12 active torsions:
  status: ('A' for Active; 'I' for Inactive)
    1  A    between atoms: C_1  and  O_28
    2  A    between atoms: C_1  and  C_34
    3  A    between atoms: C_2  and  O_13
    4  A    between atoms: C_4  and  C_12
    5  A    between atoms: C_4  and  C_15
    6  A    between atoms: C_4  and  O_22
    7  A    between atoms: C_6  and  C_12
    8  A    between atoms: C_11  and  C_14
    9  A    between atoms: O_13  and  C_38
   10  A    between atoms: C_14  and  O_22
   11  A    between atoms: C_15  and  O_42
   12  A    between atoms: O_28  and  C_35
                            x       y       z     vdW  Elec       q    Type
                         _______ _______ _______ _____ _____    ______ ____

>  <TORSDO>
F 12

$$$$
=
 OpenBabel11062410193D

 43 48  0  0  1  0  0  0  0  0999 V2000
  160.8320  201.5640  148.7970 C   0  0  0  0  0  0  0  0  0  0  0  0
  161.5080  206.1140  150.8050 C   0  0  0  0  0  0  0  0  0  0  0  0
  161.4140  203.4430  150.2990 C   0  0  2  0  0  3  0  0  0  0  0  0
  160.8220  202.4890  147.5920 C   0  0  0  0  0  2  0  0  0  0  0  0
  160.4950  200.2620  148.6190 F   0  0  0  0  0  0  0  0  0  0  0  0
  160.7840  204.3640  149.2460 C   0  0  2  0  0  3  0  0  0  0  0  0
  161.0280  202.0170  150.0480 C   0  0  0  0  0  3  0  0  0  0  0  0
  161.3040  203.9190  147.8880 C   0  0  0  0  0  2  0  0  0  0  0  0
  161.0370  206.8850  148.7220 N   0  0  0  0  0  2  0  0  0  0  0  0
  161.1560  205.7730  149.5850 C   0  0  0  0  0  0  0  0  0  0  0  0
  161.7760  205.0660  151.8590 C   0  0  0  0  0  2  0  0  0  0  0  0
  161.7870  207.5700  150.8930 C   0  0  1  0  0  3  0  0  0  0  0  0
  161.4220  208.0720  149.4820 C   0  0  1  0  0  3  0  0  0  0  0  0
  161.0580  203.8700  151.5960 O   0  0  0  0  0  0  0  0  0  0  0  0
  160.8750  208.2100  151.9250 C   0  0  0  0  0  2  0  0  0  0  0  0
  161.6320  208.6990  152.9920 O   0  0  0  0  0  0  0  0  0  0  0  0
  160.9830  211.2210  155.6020 C   0  0  0  0  0  2  0  0  0  0  0  0
  158.9240  211.2400  152.9820 C   0  0  0  0  0  2  0  0  0  0  0  0
  159.2900  212.2900  154.0240 C   0  0  0  0  0  2  0  0  0  0  0  0
  161.7080  210.6260  154.3910 C   0  0  0  0  0  2  0  0  0  0  0  0
  160.8310  209.6830  153.5740 C   0  0  0  0  0  3  0  0  0  0  0  0
  159.5220  211.6190  155.3690 C   0  0  0  0  0  2  0  0  0  0  0  0
  160.1430  210.4820  152.4710 C   0  0  0  0  0  2  0  0  0  0  0  0
  162.5400  208.6650  148.8930 O   0  0  0  0  0  0  0  0  0  0  0  0
  162.4810  210.0040  149.2800 C   0  0  1  0  0  3  0  0  0  0  0  0
  162.1120  210.8530  148.0760 C   0  0  1  0  0  3  0  0  0  0  0  0
  161.0640  210.5080  149.1160 C   0  0  0  0  0  2  0  0  0  0  0  0
  162.5850  212.2880  148.2900 C   0  0  1  0  0  3  0  0  0  0  0  0
  163.9590  212.3640  148.0530 O   0  0  0  0  0  1  0  0  0  0  0  0
  162.7760  213.9330  146.5560 O   0  0  0  0  0  1  0  0  0  0  0  0
  161.8460  213.3110  147.4040 C   0  0  1  0  0  0  0  0  0  0  0  0
  160.7570  212.6050  146.5770 C   0  0  0  0  0  2  0  0  0  0  0  0
  159.8030  212.2540  144.6180 C   0  0  0  0  0  1  0  0  0  0  0  0
  160.7660  213.0390  145.2490 O   0  0  0  0  0  0  0  0  0  0  0  0
  161.2420  214.2580  148.2700 O   0  0  0  0  0  0  0  0  0  0  0  0
  160.2120  213.6500  149.0150 C   0  0  1  0  0  3  0  0  0  0  0  0
  160.5860  213.6090  150.3600 O   0  0  0  0  0  1  0  0  0  0  0  0
  158.9190  214.4530  148.8610 C   0  0  0  0  0  3  0  0  0  0  0  0
  157.2810  212.9520  150.0400 C   0  0  0  0  0  2  0  0  0  0  0  0
  157.4210  212.7360  147.8010 C   0  0  0  0  0  2  0  0  0  0  0  0
  156.5130  212.8670  148.8650 O   0  0  0  0  0  0  0  0  0  0  0  0
  158.1640  214.0580  147.5860 C   0  0  0  0  0  2  0  0  0  0  0  0
  158.0120  214.2970  150.0890 C   0  0  0  0  0  2  0  0  0  0  0  0
  1  7  2  0  0  0  0
  2 12  1  0  0  0  0
  2 11  1  0  0  0  0
  3  7  1  6  0  0  0
  3 14  1  0  0  0  0
  4  8  1  0  0  0  0
  4  1  1  0  0  0  0
  5  1  1  0  0  0  0
  6  8  1  6  0  0  0
  6 10  1  0  0  0  0
  6  3  1  0  0  0  0
  9 13  1  0  0  0  0
  9 10  1  0  0  0  0
 10  2  2  0  0  0  0
 12 15  1  1  0  0  0
 13 24  1  6  0  0  0
 13 12  1  0  0  0  0
 14 11  1  0  0  0  0
 15 16  1  0  0  0  0
 16 21  1  0  0  0  0
 18 19  1  0  0  0  0
 19 22  1  0  0  0  0
 20 17  1  0  0  0  0
 21 20  1  0  0  0  0
 22 17  1  0  0  0  0
 23 18  1  0  0  0  0
 23 21  1  0  0  0  0
 25 24  1  6  0  0  0
 26 28  1  1  0  0  0
 26 27  1  0  0  0  0
 26 25  1  0  0  0  0
 27 25  1  0  0  0  0
 28 29  1  6  0  0  0
 31 30  1  6  0  0  0
 31 35  1  0  0  0  0
 31 28  1  0  0  0  0
 32 31  1  0  0  0  0
 33 34  1  0  0  0  0
 34 32  1  0  0  0  0
 35 36  1  0  0  0  0
 36 37  1  1  0  0  0
 38 36  1  0  0  0  0
 38 43  1  0  0  0  0
 39 43  1  0  0  0  0
 40 41  1  0  0  0  0
 41 39  1  0  0  0  0
 42 40  1  0  0  0  0
 42 38  1  0  0  0  0
M  END
>  <MODEL>
3

>  <REMARK>
 VINA RESULT:      -6.2      2.370      5.926
  Name = 
  12 active torsions:
  status: ('A' for Active; 'I' for Inactive)
    1  A    between atoms: C_1  and  O_28
    2  A    between atoms: C_1  and  C_34
    3  A    between atoms: C_2  and  O_13
    4  A    between atoms: C_4  and  C_12
    5  A    between atoms: C_4  and  C_15
    6  A    between atoms: C_4  and  O_22
    7  A    between atoms: C_6  and  C_12
    8  A    between atoms: C_11  and  C_14
    9  A    between atoms: O_13  and  C_38
   10  A    between atoms: C_14  and  O_22
   11  A    between atoms: C_15  and  O_42
   12  A    between atoms: O_28  and  C_35
                            x       y       z     vdW  Elec       q    Type
                         _______ _______ _______ _____ _____    ______ ____

>  <TORSDO>
F 12

$$$$
=
 OpenBabel11062410193D

 43 48  0  0  1  0  0  0  0  0999 V2000
  161.1820  202.5900  146.8040 C   0  0  0  0  0  0  0  0  0  0  0  0
  161.2110  207.3070  148.5180 C   0  0  0  0  0  0  0  0  0  0  0  0
  160.8670  205.0300  147.0700 C   0  0  2  0  0  3  0  0  0  0  0  0
  161.4010  202.4240  148.2980 C   0  0  0  0  0  2  0  0  0  0  0  0
  161.2990  201.4990  146.0050 F   0  0  0  0  0  0  0  0  0  0  0  0
  161.6900  204.9070  148.3590 C   0  0  2  0  0  3  0  0  0  0  0  0
  161.0140  203.7950  146.2330 C   0  0  0  0  0  3  0  0  0  0  0  0
  161.1600  203.7010  149.1190 C   0  0  0  0  0  2  0  0  0  0  0  0
  161.8950  206.3820  150.4750 N   0  0  0  0  0  2  0  0  0  0  0  0
  161.5500  206.1890  149.1190 C   0  0  0  0  0  0  0  0  0  0  0  0
  160.7230  207.3060  147.0880 C   0  0  0  0  0  2  0  0  0  0  0  0
  161.1820  208.4410  149.4770 C   0  0  1  0  0  3  0  0  0  0  0  0
  161.6870  207.7960  150.7820 C   0  0  1  0  0  3  0  0  0  0  0  0
  161.2360  206.1970  146.3660 O   0  0  0  0  0  0  0  0  0  0  0  0
  162.1460  209.5240  149.0260 C   0  0  0  0  0  2  0  0  0  0  0  0
  162.3110  210.4680  150.0410 O   0  0  0  0  0  0  0  0  0  0  0  0
  162.5930  212.6920  147.1130 C   0  0  0  0  0  2  0  0  0  0  0  0
  160.7290  213.8040  149.6420 C   0  0  0  0  0  2  0  0  0  0  0  0
  160.7840  214.1530  148.1590 C   0  0  0  0  0  2  0  0  0  0  0  0
  162.0590  211.4950  147.9060 C   0  0  0  0  0  2  0  0  0  0  0  0
  162.1210  211.7020  149.4150 C   0  0  0  0  0  3  0  0  0  0  0  0
  162.2210  214.0720  147.6670 C   0  0  0  0  0  2  0  0  0  0  0  0
  160.8010  212.3010  149.8860 C   0  0  0  0  0  2  0  0  0  0  0  0
  160.7130  207.9220  151.7740 O   0  0  0  0  0  0  0  0  0  0  0  0
  161.4280  208.1410  152.9520 C   0  0  1  0  0  3  0  0  0  0  0  0
  160.5760  208.9600  153.9050 C   0  0  1  0  0  3  0  0  0  0  0  0
  160.7150  207.4630  154.1010 C   0  0  0  0  0  2  0  0  0  0  0  0
  161.4710  209.6870  154.9050 C   0  0  1  0  0  3  0  0  0  0  0  0
  162.4140  210.4520  154.2140 O   0  0  0  0  0  1  0  0  0  0  0  0
  159.3810  210.0870  156.0110 O   0  0  0  0  0  1  0  0  0  0  0  0
  160.6870  210.5860  155.8820 C   0  0  1  0  0  0  0  0  0  0  0  0
  161.3870  210.6140  157.2520 C   0  0  0  0  0  2  0  0  0  0  0  0
  163.5910  210.7300  157.2590 C   0  0  0  0  0  1  0  0  0  0  0  0
  162.5360  209.8190  157.2540 O   0  0  0  0  0  0  0  0  0  0  0  0
  160.6750  211.8930  155.3320 O   0  0  0  0  0  0  0  0  0  0  0  0
  159.4870  212.5610  155.6890 C   0  0  1  0  0  3  0  0  0  0  0  0
  159.8130  213.7800  156.2910 O   0  0  0  0  0  1  0  0  0  0  0  0
  158.6370  212.8110  154.4420 C   0  0  0  0  0  3  0  0  0  0  0  0
  156.5700  213.8120  155.4630 C   0  0  0  0  0  2  0  0  0  0  0  0
  156.5260  211.5960  155.0590 C   0  0  0  0  0  2  0  0  0  0  0  0
  155.7940  212.7840  154.9010 O   0  0  0  0  0  0  0  0  0  0  0  0
  157.7410  211.6060  154.1270 C   0  0  0  0  0  2  0  0  0  0  0  0
  157.7930  214.0840  154.5830 C   0  0  0  0  0  2  0  0  0  0  0  0
  1  4  1  0  0  0  0
  2 10  2  0  0  0  0
  2 12  1  0  0  0  0
  3  7  1  6  0  0  0
  3  6  1  0  0  0  0
  4  8  1  0  0  0  0
  5  1  1  0  0  0  0
  6 10  1  0  0  0  0
  6  8  1  1  0  0  0
  7  1  2  0  0  0  0
  9 13  1  0  0  0  0
 10  9  1  0  0  0  0
 11  2  1  0  0  0  0
 12 15  1  6  0  0  0
 12 13  1  0  0  0  0
 13 24  1  1  0  0  0
 14  3  1  0  0  0  0
 14 11  1  0  0  0  0
 15 16  1  0  0  0  0
 17 22  1  0  0  0  0
 17 20  1  0  0  0  0
 18 23  1  0  0  0  0
 19 18  1  0  0  0  0
 20 21  1  0  0  0  0
 21 23  1  0  0  0  0
 21 16  1  0  0  0  0
 22 19  1  0  0  0  0
 25 24  1  6  0  0  0
 25 26  1  0  0  0  0
 25 27  1  0  0  0  0
 26 27  1  0  0  0  0
 26 28  1  1  0  0  0
 28 29  1  6  0  0  0
 28 31  1  0  0  0  0
 31 30  1  1  0  0  0
 31 32  1  0  0  0  0
 32 34  1  0  0  0  0
 34 33  1  0  0  0  0
 35 36  1  0  0  0  0
 35 31  1  0  0  0  0
 36 37  1  6  0  0  0
 38 43  1  0  0  0  0
 38 36  1  0  0  0  0
 41 40  1  0  0  0  0
 41 39  1  0  0  0  0
 42 38  1  0  0  0  0
 42 40  1  0  0  0  0
 43 39  1  0  0  0  0
M  END
>  <MODEL>
4

>  <REMARK>
 VINA RESULT:      -5.8      1.062      1.549
  Name = 
  12 active torsions:
  status: ('A' for Active; 'I' for Inactive)
    1  A    between atoms: C_1  and  O_28
    2  A    between atoms: C_1  and  C_34
    3  A    between atoms: C_2  and  O_13
    4  A    between atoms: C_4  and  C_12
    5  A    between atoms: C_4  and  C_15
    6  A    between atoms: C_4  and  O_22
    7  A    between atoms: C_6  and  C_12
    8  A    between atoms: C_11  and  C_14
    9  A    between atoms: O_13  and  C_38
   10  A    between atoms: C_14  and  O_22
   11  A    between atoms: C_15  and  O_42
   12  A    between atoms: O_28  and  C_35
                            x       y       z     vdW  Elec       q    Type
                         _______ _______ _______ _____ _____    ______ ____

>  <TORSDO>
F 12

$$$$
=
 OpenBabel11062410193D

 43 48  0  0  1  0  0  0  0  0999 V2000
  160.8850  201.4970  146.5150 C   0  0  0  0  0  0  0  0  0  0  0  0
  161.3940  205.3680  149.6700 C   0  0  0  0  0  0  0  0  0  0  0  0
  161.3120  202.9140  148.5000 C   0  0  2  0  0  3  0  0  0  0  0  0
  161.0420  202.6910  145.5900 C   0  0  0  0  0  2  0  0  0  0  0  0
  160.5470  200.2980  145.9770 F   0  0  0  0  0  0  0  0  0  0  0  0
  160.8360  204.0970  147.6480 C   0  0  2  0  0  3  0  0  0  0  0  0
  160.9320  201.6150  147.8540 C   0  0  0  0  0  3  0  0  0  0  0  0
  161.5110  203.9770  146.2900 C   0  0  0  0  0  2  0  0  0  0  0  0
  161.2010  206.6540  147.8090 N   0  0  0  0  0  2  0  0  0  0  0  0
  161.1910  205.3580  148.3710 C   0  0  0  0  0  0  0  0  0  0  0  0
  161.5090  204.0790  150.4490 C   0  0  0  0  0  2  0  0  0  0  0  0
  161.6890  206.7410  150.1540 C   0  0  1  0  0  3  0  0  0  0  0  0
  161.5110  207.5950  148.8830 C   0  0  1  0  0  3  0  0  0  0  0  0
  160.8060  203.0240  149.8120 O   0  0  0  0  0  0  0  0  0  0  0  0
  160.6680  207.1500  151.2010 C   0  0  0  0  0  2  0  0  0  0  0  0
  160.8400  208.4940  151.5350 O   0  0  0  0  0  0  0  0  0  0  0  0
  160.5210  206.8280  154.8090 C   0  0  0  0  0  2  0  0  0  0  0  0
  161.1360  210.1030  154.8690 C   0  0  0  0  0  2  0  0  0  0  0  0
  161.3370  208.9880  155.8880 C   0  0  0  0  0  2  0  0  0  0  0  0
  161.2350  207.2270  153.5140 C   0  0  0  0  0  2  0  0  0  0  0  0
  160.7180  208.5350  152.9250 C   0  0  0  0  0  3  0  0  0  0  0  0
  160.2070  207.9770  155.7730 C   0  0  0  0  0  2  0  0  0  0  0  0
  161.5600  209.6860  153.4650 C   0  0  0  0  0  2  0  0  0  0  0  0
  162.7060  208.2580  148.5950 O   0  0  0  0  0  0  0  0  0  0  0  0
  162.5190  209.5550  149.0730 C   0  0  1  0  0  3  0  0  0  0  0  0
  162.4270  210.5100  147.8960 C   0  0  1  0  0  3  0  0  0  0  0  0
  161.1690  210.0650  148.6160 C   0  0  0  0  0  2  0  0  0  0  0  0
  162.7950  211.9220  148.3440 C   0  0  1  0  0  3  0  0  0  0  0  0
  164.1080  212.2030  147.9600 O   0  0  0  0  0  1  0  0  0  0  0  0
  162.3380  214.2680  148.1520 O   0  0  0  0  0  1  0  0  0  0  0  0
  161.8470  213.0030  147.7900 C   0  0  1  0  0  0  0  0  0  0  0  0
  161.7500  212.8870  146.2580 C   0  0  0  0  0  2  0  0  0  0  0  0
  162.3300  213.6380  144.2660 C   0  0  0  0  0  1  0  0  0  0  0  0
  162.6020  213.7930  145.6240 O   0  0  0  0  0  0  0  0  0  0  0  0
  160.5690  212.7760  148.3620 O   0  0  0  0  0  0  0  0  0  0  0  0
  159.5760  213.4420  147.6180 C   0  0  1  0  0  3  0  0  0  0  0  0
  158.6780  212.4990  147.1110 O   0  0  0  0  0  1  0  0  0  0  0  0
  158.8340  214.4350  148.5150 C   0  0  0  0  0  3  0  0  0  0  0  0
  158.8300  213.1940  150.7020 C   0  0  0  0  0  2  0  0  0  0  0  0
  156.9950  212.9770  149.4120 C   0  0  0  0  0  2  0  0  0  0  0  0
  157.4250  213.2380  150.7240 O   0  0  0  0  0  0  0  0  0  0  0  0
  157.3240  214.1710  148.5110 C   0  0  0  0  0  2  0  0  0  0  0  0
  159.3780  214.4100  149.9490 C   0  0  0  0  0  2  0  0  0  0  0  0
  1  7  2  0  0  0  0
  2 12  1  0  0  0  0
  2 11  1  0  0  0  0
  3  7  1  6  0  0  0
  3 14  1  0  0  0  0
  4  8  1  0  0  0  0
  4  1  1  0  0  0  0
  5  1  1  0  0  0  0
  6  8  1  6  0  0  0
  6 10  1  0  0  0  0
  6  3  1  0  0  0  0
  9 10  1  0  0  0  0
  9 13  1  0  0  0  0
 10  2  2  0  0  0  0
 12 15  1  1  0  0  0
 13 24  1  6  0  0  0
 13 12  1  0  0  0  0
 14 11  1  0  0  0  0
 15 16  1  0  0  0  0
 16 21  1  0  0  0  0
 17 22  1  0  0  0  0
 18 19  1  0  0  0  0
 20 17  1  0  0  0  0
 21 23  1  0  0  0  0
 21 20  1  0  0  0  0
 22 19  1  0  0  0  0
 23 18  1  0  0  0  0
 25 24  1  6  0  0  0
 26 28  1  1  0  0  0
 26 27  1  0  0  0  0
 26 25  1  0  0  0  0
 27 25  1  0  0  0  0
 28 29  1  6  0  0  0
 31 30  1  1  0  0  0
 31 28  1  0  0  0  0
 31 35  1  0  0  0  0
 32 31  1  0  0  0  0
 33 34  1  0  0  0  0
 34 32  1  0  0  0  0
 36 37  1  1  0  0  0
 36 35  1  0  0  0  0
 36 38  1  0  0  0  0
 38 43  1  0  0  0  0
 39 41  1  0  0  0  0
 40 41  1  0  0  0  0
 42 38  1  0  0  0  0
 42 40  1  0  0  0  0
 43 39  1  0  0  0  0
M  END
>  <MODEL>
5

>  <REMARK>
 VINA RESULT:      -5.8      2.589      6.209
  Name = 
  12 active torsions:
  status: ('A' for Active; 'I' for Inactive)
    1  A    between atoms: C_1  and  O_28
    2  A    between atoms: C_1  and  C_34
    3  A    between atoms: C_2  and  O_13
    4  A    between atoms: C_4  and  C_12
    5  A    between atoms: C_4  and  C_15
    6  A    between atoms: C_4  and  O_22
    7  A    between atoms: C_6  and  C_12
    8  A    between atoms: C_11  and  C_14
    9  A    between atoms: O_13  and  C_38
   10  A    between atoms: C_14  and  O_22
   11  A    between atoms: C_15  and  O_42
   12  A    between atoms: O_28  and  C_35
                            x       y       z     vdW  Elec       q    Type
                         _______ _______ _______ _____ _____    ______ ____

>  <TORSDO>
F 12

$$$$
=
 OpenBabel11062410193D

 43 48  0  0  1  0  0  0  0  0999 V2000
  161.0480  201.7930  148.2850 C   0  0  0  0  0  0  0  0  0  0  0  0
  161.5790  206.1530  150.7140 C   0  0  0  0  0  0  0  0  0  0  0  0
  161.5650  203.5390  149.9610 C   0  0  2  0  0  3  0  0  0  0  0  0
  161.0200  202.8250  147.1710 C   0  0  0  0  0  2  0  0  0  0  0  0
  160.7490  200.5040  147.9840 F   0  0  0  0  0  0  0  0  0  0  0  0
  160.9170  204.5360  148.9920 C   0  0  2  0  0  3  0  0  0  0  0  0
  161.2220  202.1320  149.5750 C   0  0  0  0  0  3  0  0  0  0  0  0
  161.4580  204.2340  147.6040 C   0  0  0  0  0  2  0  0  0  0  0  0
  161.1010  207.1020  148.7060 N   0  0  0  0  0  2  0  0  0  0  0  0
  161.2460  205.9180  149.4640 C   0  0  0  0  0  0  0  0  0  0  0  0
  161.8690  205.0190  151.6680 C   0  0  0  0  0  2  0  0  0  0  0  0
  161.8150  207.6020  150.9390 C   0  0  1  0  0  3  0  0  0  0  0  0
  161.4460  208.2230  149.5780 C   0  0  1  0  0  3  0  0  0  0  0  0
  161.1870  203.8340  151.2880 O   0  0  0  0  0  0  0  0  0  0  0  0
  160.8780  208.1170  152.0170 C   0  0  0  0  0  2  0  0  0  0  0  0
  161.4330  209.2400  152.6340 O   0  0  0  0  0  0  0  0  0  0  0  0
  160.3180  207.2950  155.5620 C   0  0  0  0  0  2  0  0  0  0  0  0
  161.1140  210.4820  156.1190 C   0  0  0  0  0  2  0  0  0  0  0  0
  161.0220  209.2600  157.0250 C   0  0  0  0  0  2  0  0  0  0  0  0
  161.3160  207.7560  154.4950 C   0  0  0  0  0  2  0  0  0  0  0  0
  161.0200  209.1550  153.9650 C   0  0  0  0  0  3  0  0  0  0  0  0
  159.8800  208.3670  156.5660 C   0  0  0  0  0  2  0  0  0  0  0  0
  161.7990  210.1700  154.7940 C   0  0  0  0  0  2  0  0  0  0  0  0
  162.5520  208.8990  149.0570 O   0  0  0  0  0  0  0  0  0  0  0  0
  162.3490  210.2360  149.4010 C   0  0  1  0  0  3  0  0  0  0  0  0
  161.8700  210.9970  148.1780 C   0  0  1  0  0  3  0  0  0  0  0  0
  160.8820  210.5730  149.2470 C   0  0  0  0  0  2  0  0  0  0  0  0
  162.1830  212.4820  148.3370 C   0  0  1  0  0  3  0  0  0  0  0  0
  163.3990  212.7700  147.7130 O   0  0  0  0  0  1  0  0  0  0  0  0
  159.9770  212.6130  147.4050 O   0  0  0  0  0  1  0  0  0  0  0  0
  161.0790  213.4000  147.7770 C   0  0  1  0  0  0  0  0  0  0  0  0
  160.6630  214.4360  148.8360 C   0  0  0  0  0  2  0  0  0  0  0  0
  159.6000  214.3920  150.7700 C   0  0  0  0  0  1  0  0  0  0  0  0
  159.4360  214.1060  149.4160 O   0  0  0  0  0  0  0  0  0  0  0  0
  161.6210  214.0700  146.6500 O   0  0  0  0  0  0  0  0  0  0  0  0
  160.8590  213.7860  145.5000 C   0  0  1  0  0  3  0  0  0  0  0  0
  159.6020  214.3830  145.6270 O   0  0  0  0  0  1  0  0  0  0  0  0
  161.5690  214.3310  144.2600 C   0  0  0  0  0  3  0  0  0  0  0  0
  160.3800  213.0750  142.4350 C   0  0  0  0  0  2  0  0  0  0  0  0
  162.3200  212.1960  143.1690 C   0  0  0  0  0  2  0  0  0  0  0  0
  161.6050  212.5340  142.0080 O   0  0  0  0  0  0  0  0  0  0  0  0
  162.7810  213.4690  143.8850 C   0  0  0  0  0  2  0  0  0  0  0  0
  160.6080  214.4500  143.0690 C   0  0  0  0  0  2  0  0  0  0  0  0
  1  7  2  0  0  0  0
  2 12  1  0  0  0  0
  2 11  1  0  0  0  0
  3  7  1  6  0  0  0
  3 14  1  0  0  0  0
  4  8  1  0  0  0  0
  4  1  1  0  0  0  0
  5  1  1  0  0  0  0
  6  8  1  6  0  0  0
  6 10  1  0  0  0  0
  6  3  1  0  0  0  0
  9 10  1  0  0  0  0
  9 13  1  0  0  0  0
 10  2  2  0  0  0  0
 12 15  1  1  0  0  0
 13 24  1  6  0  0  0
 13 12  1  0  0  0  0
 14 11  1  0  0  0  0
 15 16  1  0  0  0  0
 16 21  1  0  0  0  0
 17 22  1  0  0  0  0
 18 19  1  0  0  0  0
 20 17  1  0  0  0  0
 21 20  1  0  0  0  0
 21 23  1  0  0  0  0
 22 19  1  0  0  0  0
 23 18  1  0  0  0  0
 25 24  1  6  0  0  0
 26 28  1  1  0  0  0
 26 27  1  0  0  0  0
 26 25  1  0  0  0  0
 27 25  1  0  0  0  0
 28 29  1  6  0  0  0
 31 30  1  6  0  0  0
 31 28  1  0  0  0  0
 31 32  1  0  0  0  0
 32 34  1  0  0  0  0
 34 33  1  0  0  0  0
 35 31  1  0  0  0  0
 36 37  1  1  0  0  0
 36 35  1  0  0  0  0
 38 36  1  0  0  0  0
 39 43  1  0  0  0  0
 40 42  1  0  0  0  0
 41 39  1  0  0  0  0
 41 40  1  0  0  0  0
 42 38  1  0  0  0  0
 43 38  1  0  0  0  0
M  END
>  <MODEL>
6

>  <REMARK>
 VINA RESULT:      -5.6      2.693      7.321
  Name = 
  12 active torsions:
  status: ('A' for Active; 'I' for Inactive)
    1  A    between atoms: C_1  and  O_28
    2  A    between atoms: C_1  and  C_34
    3  A    between atoms: C_2  and  O_13
    4  A    between atoms: C_4  and  C_12
    5  A    between atoms: C_4  and  C_15
    6  A    between atoms: C_4  and  O_22
    7  A    between atoms: C_6  and  C_12
    8  A    between atoms: C_11  and  C_14
    9  A    between atoms: O_13  and  C_38
   10  A    between atoms: C_14  and  O_22
   11  A    between atoms: C_15  and  O_42
   12  A    between atoms: O_28  and  C_35
                            x       y       z     vdW  Elec       q    Type
                         _______ _______ _______ _____ _____    ______ ____

>  <TORSDO>
F 12

$$$$
=
 OpenBabel11062410193D

 43 48  0  0  1  0  0  0  0  0999 V2000
  161.1340  202.2550  150.1000 C   0  0  0  0  0  0  0  0  0  0  0  0
  161.2570  207.2680  149.8810 C   0  0  0  0  0  0  0  0  0  0  0  0
  160.9610  204.6130  149.3680 C   0  0  2  0  0  3  0  0  0  0  0  0
  161.1250  202.6740  151.5600 C   0  0  0  0  0  2  0  0  0  0  0  0
  161.2850  200.9400  149.8030 F   0  0  0  0  0  0  0  0  0  0  0  0
  161.5790  204.9860  150.7210 C   0  0  2  0  0  3  0  0  0  0  0  0
  161.1360  203.1500  149.0960 C   0  0  0  0  0  3  0  0  0  0  0  0
  160.8610  204.1720  151.7860 C   0  0  0  0  0  2  0  0  0  0  0  0
  161.5860  207.1600  152.1250 N   0  0  0  0  0  2  0  0  0  0  0  0
  161.4250  206.4630  150.9070 C   0  0  0  0  0  0  0  0  0  0  0  0
  160.9800  206.7210  148.5010 C   0  0  0  0  0  2  0  0  0  0  0  0
  161.1730  208.6840  150.3220 C   0  0  1  0  0  3  0  0  0  0  0  0
  161.4390  208.5850  151.8370 C   0  0  1  0  0  3  0  0  0  0  0  0
  161.5100  205.4140  148.3440 O   0  0  0  0  0  0  0  0  0  0  0  0
  162.2670  209.4990  149.6550 C   0  0  0  0  0  2  0  0  0  0  0  0
  161.8870  209.8290  148.3520 O   0  0  0  0  0  0  0  0  0  0  0  0
  163.4100  213.1870  148.3430 C   0  0  0  0  0  2  0  0  0  0  0  0
  160.1250  213.0510  147.7990 C   0  0  0  0  0  2  0  0  0  0  0  0
  161.1890  214.0950  147.4840 C   0  0  0  0  0  2  0  0  0  0  0  0
  163.0560  211.8180  147.7560 C   0  0  0  0  0  2  0  0  0  0  0  0
  161.7860  211.2210  148.3520 C   0  0  0  0  0  3  0  0  0  0  0  0
  162.2250  214.1250  148.5970 C   0  0  0  0  0  2  0  0  0  0  0  0
  160.5970  211.6340  147.4920 C   0  0  0  0  0  2  0  0  0  0  0  0
  160.3440  209.0950  152.5370 O   0  0  0  0  0  0  0  0  0  0  0  0
  160.6580  210.4350  152.7660 C   0  0  1  0  0  3  0  0  0  0  0  0
  159.3780  211.2090  153.0220 C   0  0  1  0  0  3  0  0  0  0  0  0
  160.2680  210.8050  154.1810 C   0  0  0  0  0  2  0  0  0  0  0  0
  159.5950  212.6870  152.7090 C   0  0  1  0  0  3  0  0  0  0  0  0
  159.7750  212.8490  151.3330 O   0  0  0  0  0  1  0  0  0  0  0  0
  158.9220  214.4430  154.1970 O   0  0  0  0  0  1  0  0  0  0  0  0
  158.4420  213.5880  153.1930 C   0  0  1  0  0  0  0  0  0  0  0  0
  157.8800  214.4070  152.0170 C   0  0  0  0  0  2  0  0  0  0  0  0
  157.5050  214.1560  149.8560 C   0  0  0  0  0  1  0  0  0  0  0  0
  157.2190  213.5890  151.0970 O   0  0  0  0  0  0  0  0  0  0  0  0
  157.4270  212.7360  153.7000 O   0  0  0  0  0  0  0  0  0  0  0  0
  156.3910  213.4990  154.2730 C   0  0  1  0  0  3  0  0  0  0  0  0
  155.3930  213.7030  153.3180 O   0  0  0  0  0  1  0  0  0  0  0  0
  155.8100  212.7590  155.4800 C   0  0  0  0  0  3  0  0  0  0  0  0
  157.7730  212.7880  157.0510 C   0  0  0  0  0  2  0  0  0  0  0  0
  157.5170  210.9410  155.7860 C   0  0  0  0  0  2  0  0  0  0  0  0
  157.7560  211.3830  157.0980 O   0  0  0  0  0  0  0  0  0  0  0  0
  156.0710  211.2500  155.3890 C   0  0  0  0  0  2  0  0  0  0  0  0
  156.3590  213.3180  156.7990 C   0  0  0  0  0  2  0  0  0  0  0  0
  1  4  1  0  0  0  0
  2 12  1  0  0  0  0
  2 10  2  0  0  0  0
  3  7  1  6  0  0  0
  3  6  1  0  0  0  0
  4  8  1  0  0  0  0
  5  1  1  0  0  0  0
  6 10  1  0  0  0  0
  6  8  1  1  0  0  0
  7  1  2  0  0  0  0
 10  9  1  0  0  0  0
 11  2  1  0  0  0  0
 12 15  1  6  0  0  0
 12 13  1  0  0  0  0
 13  9  1  0  0  0  0
 13 24  1  1  0  0  0
 14 11  1  0  0  0  0
 14  3  1  0  0  0  0
 16 15  1  0  0  0  0
 17 22  1  0  0  0  0
 19 18  1  0  0  0  0
 19 22  1  0  0  0  0
 20 17  1  0  0  0  0
 20 21  1  0  0  0  0
 21 16  1  0  0  0  0
 23 18  1  0  0  0  0
 23 21  1  0  0  0  0
 25 24  1  1  0  0  0
 25 26  1  0  0  0  0
 25 27  1  0  0  0  0
 26 28  1  6  0  0  0
 26 27  1  0  0  0  0
 28 29  1  6  0  0  0
 28 31  1  0  0  0  0
 31 35  1  0  0  0  0
 31 30  1  1  0  0  0
 32 31  1  0  0  0  0
 33 34  1  0  0  0  0
 34 32  1  0  0  0  0
 35 36  1  0  0  0  0
 36 37  1  6  0  0  0
 36 38  1  0  0  0  0
 38 43  1  0  0  0  0
 39 41  1  0  0  0  0
 40 41  1  0  0  0  0
 42 38  1  0  0  0  0
 42 40  1  0  0  0  0
 43 39  1  0  0  0  0
M  END
>  <MODEL>
7

>  <REMARK>
 VINA RESULT:      -5.6      1.767      3.414
  Name = 
  12 active torsions:
  status: ('A' for Active; 'I' for Inactive)
    1  A    between atoms: C_1  and  O_28
    2  A    between atoms: C_1  and  C_34
    3  A    between atoms: C_2  and  O_13
    4  A    between atoms: C_4  and  C_12
    5  A    between atoms: C_4  and  C_15
    6  A    between atoms: C_4  and  O_22
    7  A    between atoms: C_6  and  C_12
    8  A    between atoms: C_11  and  C_14
    9  A    between atoms: O_13  and  C_38
   10  A    between atoms: C_14  and  O_22
   11  A    between atoms: C_15  and  O_42
   12  A    between atoms: O_28  and  C_35
                            x       y       z     vdW  Elec       q    Type
                         _______ _______ _______ _____ _____    ______ ____

>  <TORSDO>
F 12

$$$$
=
 OpenBabel11062410193D

 43 48  0  0  1  0  0  0  0  0999 V2000
  160.2200  213.7910  142.3380 C   0  0  0  0  0  0  0  0  0  0  0  0
  161.4690  213.0900  147.1490 C   0  0  0  0  0  0  0  0  0  0  0  0
  161.4390  213.6550  144.4880 C   0  0  2  0  0  3  0  0  0  0  0  0
  158.8850  213.8340  143.0620 C   0  0  0  0  0  2  0  0  0  0  0  0
  160.2230  213.7730  140.9820 F   0  0  0  0  0  0  0  0  0  0  0  0
  160.1490  213.0750  145.0820 C   0  0  2  0  0  3  0  0  0  0  0  0
  161.3850  213.6310  142.9900 C   0  0  0  0  0  3  0  0  0  0  0  0
  158.9970  213.9390  144.5910 C   0  0  0  0  0  2  0  0  0  0  0  0
  159.2330  212.9020  147.4960 N   0  0  0  0  0  2  0  0  0  0  0  0
  160.2880  213.0720  146.5720 C   0  0  0  0  0  0  0  0  0  0  0  0
  162.7220  213.3500  146.3470 C   0  0  0  0  0  2  0  0  0  0  0  0
  161.3410  213.0390  148.6280 C   0  0  1  0  0  3  0  0  0  0  0  0
  159.8230  212.8710  148.8320 C   0  0  1  0  0  3  0  0  0  0  0  0
  162.5610  212.9630  144.9920 O   0  0  0  0  0  0  0  0  0  0  0  0
  162.0760  211.8250  149.1680 C   0  0  0  0  0  2  0  0  0  0  0  0
  161.9680  210.7630  148.2670 O   0  0  0  0  0  0  0  0  0  0  0  0
  161.5110  207.1310  148.7100 C   0  0  0  0  0  2  0  0  0  0  0  0
  161.6520  208.9540  151.4950 C   0  0  0  0  0  2  0  0  0  0  0  0
  161.8890  207.4770  151.2070 C   0  0  0  0  0  2  0  0  0  0  0  0
  162.3060  208.4100  148.4310 C   0  0  0  0  0  2  0  0  0  0  0  0
  161.6820  209.6510  149.0610 C   0  0  0  0  0  3  0  0  0  0  0  0
  160.9310  207.0060  150.1230 C   0  0  0  0  0  2  0  0  0  0  0  0
  162.2880  209.8580  150.4450 C   0  0  0  0  0  2  0  0  0  0  0  0
  159.3320  213.9390  149.5870 O   0  0  0  0  0  0  0  0  0  0  0  0
  158.4220  213.3620  150.4730 C   0  0  1  0  0  3  0  0  0  0  0  0
  159.0040  213.3970  151.8750 C   0  0  1  0  0  3  0  0  0  0  0  0
  157.9540  214.4100  151.4600 C   0  0  0  0  0  2  0  0  0  0  0  0
  158.3520  212.3160  152.7330 C   0  0  1  0  0  3  0  0  0  0  0  0
  158.9100  211.0750  152.4190 O   0  0  0  0  0  1  0  0  0  0  0  0
  159.2290  213.7520  154.4420 O   0  0  0  0  0  1  0  0  0  0  0  0
  158.4840  212.5780  154.2460 C   0  0  1  0  0  0  0  0  0  0  0  0
  157.0900  212.7170  154.8830 C   0  0  0  0  0  2  0  0  0  0  0  0
  155.9380  211.4630  156.2880 C   0  0  0  0  0  1  0  0  0  0  0  0
  157.0840  212.2510  156.2010 O   0  0  0  0  0  0  0  0  0  0  0  0
  159.1500  211.4600  154.8100 O   0  0  0  0  0  0  0  0  0  0  0  0
  160.4520  211.8190  155.2110 C   0  0  1  0  0  3  0  0  0  0  0  0
  160.4630  212.0230  156.5940 O   0  0  0  0  0  1  0  0  0  0  0  0
  161.4340  210.7050  154.8440 C   0  0  0  0  0  3  0  0  0  0  0  0
  160.5700  208.8180  156.2650 C   0  0  0  0  0  2  0  0  0  0  0  0
  162.2620  210.0370  157.1210 C   0  0  0  0  0  2  0  0  0  0  0  0
  161.8220  208.7210  156.8970 O   0  0  0  0  0  0  0  0  0  0  0  0
  162.6420  210.6910  155.7890 C   0  0  0  0  0  2  0  0  0  0  0  0
  160.7470  209.3330  154.8340 C   0  0  0  0  0  2  0  0  0  0  0  0
  1  7  2  0  0  0  0
  1  4  1  0  0  0  0
  2 12  1  0  0  0  0
  3  7  1  6  0  0  0
  3 14  1  0  0  0  0
  3  6  1  0  0  0  0
  4  8  1  0  0  0  0
  5  1  1  0  0  0  0
  6  8  1  1  0  0  0
  6 10  1  0  0  0  0
  9 13  1  0  0  0  0
 10  2  2  0  0  0  0
 10  9  1  0  0  0  0
 11  2  1  0  0  0  0
 12 13  1  0  0  0  0
 12 15  1  6  0  0  0
 13 24  1  1  0  0  0
 14 11  1  0  0  0  0
 16 21  1  0  0  0  0
 16 15  1  0  0  0  0
 17 22  1  0  0  0  0
 19 18  1  0  0  0  0
 20 17  1  0  0  0  0
 20 21  1  0  0  0  0
 21 23  1  0  0  0  0
 22 19  1  0  0  0  0
 23 18  1  0  0  0  0
 25 24  1  6  0  0  0
 25 27  1  0  0  0  0
 25 26  1  0  0  0  0
 26 28  1  1  0  0  0
 27 26  1  0  0  0  0
 28 29  1  1  0  0  0
 28 31  1  0  0  0  0
 31 30  1  1  0  0  0
 31 35  1  0  0  0  0
 31 32  1  0  0  0  0
 32 34  1  0  0  0  0
 34 33  1  0  0  0  0
 35 36  1  0  0  0  0
 36 37  1  1  0  0  0
 38 36  1  0  0  0  0
 38 42  1  0  0  0  0
 39 41  1  0  0  0  0
 41 40  1  0  0  0  0
 42 40  1  0  0  0  0
 43 38  1  0  0  0  0
 43 39  1  0  0  0  0
M  END
>  <MODEL>
8

>  <REMARK>
 VINA RESULT:      -5.6      3.274      6.900
  Name = 
  12 active torsions:
  status: ('A' for Active; 'I' for Inactive)
    1  A    between atoms: C_1  and  O_28
    2  A    between atoms: C_1  and  C_34
    3  A    between atoms: C_2  and  O_13
    4  A    between atoms: C_4  and  C_12
    5  A    between atoms: C_4  and  C_15
    6  A    between atoms: C_4  and  O_22
    7  A    between atoms: C_6  and  C_12
    8  A    between atoms: C_11  and  C_14
    9  A    between atoms: O_13  and  C_38
   10  A    between atoms: C_14  and  O_22
   11  A    between atoms: C_15  and  O_42
   12  A    between atoms: O_28  and  C_35
                            x       y       z     vdW  Elec       q    Type
                         _______ _______ _______ _____ _____    ______ ____

>  <TORSDO>
F 12

$$$$
=
 OpenBabel11062410193D

 43 48  0  0  1  0  0  0  0  0999 V2000
  161.1110  201.7700  149.1060 C   0  0  0  0  0  0  0  0  0  0  0  0
  161.2030  206.7500  149.7350 C   0  0  0  0  0  0  0  0  0  0  0  0
  160.8930  204.2160  148.7930 C   0  0  2  0  0  3  0  0  0  0  0  0
  161.1710  201.9370  150.6140 C   0  0  0  0  0  2  0  0  0  0  0  0
  161.2530  200.5270  148.5830 F   0  0  0  0  0  0  0  0  0  0  0  0
  161.5750  204.3620  150.1600 C   0  0  2  0  0  3  0  0  0  0  0  0
  161.0610  202.8220  148.2690 C   0  0  0  0  0  3  0  0  0  0  0  0
  160.9130  203.3710  151.1040 C   0  0  0  0  0  2  0  0  0  0  0  0
  161.6410  206.2670  151.9100 N   0  0  0  0  0  2  0  0  0  0  0  0
  161.4250  205.7850  150.6000 C   0  0  0  0  0  0  0  0  0  0  0  0
  160.8610  206.4410  148.2970 C   0  0  0  0  0  2  0  0  0  0  0  0
  161.1350  208.0690  150.4130 C   0  0  1  0  0  3  0  0  0  0  0  0
  161.4740  207.7190  151.8750 C   0  0  1  0  0  3  0  0  0  0  0  0
  161.3880  205.1860  147.8960 O   0  0  0  0  0  0  0  0  0  0  0  0
  162.1920  208.9990  149.8430 C   0  0  0  0  0  2  0  0  0  0  0  0
  161.9650  209.1970  148.4790 O   0  0  0  0  0  0  0  0  0  0  0  0
  160.8170  212.5660  149.4450 C   0  0  0  0  0  2  0  0  0  0  0  0
  163.3580  212.4300  147.2940 C   0  0  0  0  0  2  0  0  0  0  0  0
  162.8580  213.5100  148.2460 C   0  0  0  0  0  2  0  0  0  0  0  0
  161.5630  211.2420  149.6350 C   0  0  0  0  0  2  0  0  0  0  0  0
  161.9590  210.5840  148.3180 C   0  0  0  0  0  3  0  0  0  0  0  0
  161.3400  213.4660  148.3200 C   0  0  0  0  0  2  0  0  0  0  0  0
  163.3610  211.0470  147.9370 C   0  0  0  0  0  2  0  0  0  0  0  0
  160.4130  208.0890  152.7030 O   0  0  0  0  0  0  0  0  0  0  0  0
  160.9920  208.3000  153.9550 C   0  0  1  0  0  3  0  0  0  0  0  0
  159.8960  208.3920  155.0010 C   0  0  1  0  0  3  0  0  0  0  0  0
  160.6970  207.1140  154.8470 C   0  0  0  0  0  2  0  0  0  0  0  0
  160.4030  209.1650  156.2150 C   0  0  1  0  0  3  0  0  0  0  0  0
  161.7670  208.9180  156.3860 O   0  0  0  0  0  1  0  0  0  0  0  0
  161.3400  211.3590  156.4570 O   0  0  0  0  0  1  0  0  0  0  0  0
  160.1570  210.6830  156.1180 C   0  0  1  0  0  0  0  0  0  0  0  0
  159.7180  211.0580  154.6910 C   0  0  0  0  0  2  0  0  0  0  0  0
  160.0600  212.2300  152.8520 C   0  0  0  0  0  1  0  0  0  0  0  0
  160.6100  211.9580  154.1040 O   0  0  0  0  0  0  0  0  0  0  0  0
  159.1180  211.0000  157.0290 O   0  0  0  0  0  0  0  0  0  0  0  0
  157.9700  211.4240  156.3320 C   0  0  1  0  0  3  0  0  0  0  0  0
  156.9730  210.4540  156.4620 O   0  0  0  0  0  1  0  0  0  0  0  0
  157.4770  212.7540  156.9050 C   0  0  0  0  0  3  0  0  0  0  0  0
  155.5300  213.2380  155.3890 C   0  0  0  0  0  2  0  0  0  0  0  0
  157.4980  214.1930  154.8450 C   0  0  0  0  0  2  0  0  0  0  0  0
  156.1270  214.4530  155.0100 O   0  0  0  0  0  0  0  0  0  0  0  0
  158.1470  213.9450  156.2100 C   0  0  0  0  0  2  0  0  0  0  0  0
  155.9500  212.8720  156.8160 C   0  0  0  0  0  2  0  0  0  0  0  0
  1  4  1  0  0  0  0
  2 12  1  0  0  0  0
  2 10  2  0  0  0  0
  3  7  1  6  0  0  0
  3  6  1  0  0  0  0
  4  8  1  0  0  0  0
  5  1  1  0  0  0  0
  6 10  1  0  0  0  0
  6  8  1  1  0  0  0
  7  1  2  0  0  0  0
 10  9  1  0  0  0  0
 11  2  1  0  0  0  0
 12 15  1  6  0  0  0
 12 13  1  0  0  0  0
 13  9  1  0  0  0  0
 13 24  1  1  0  0  0
 14 11  1  0  0  0  0
 14  3  1  0  0  0  0
 16 15  1  0  0  0  0
 17 20  1  0  0  0  0
 18 23  1  0  0  0  0
 18 19  1  0  0  0  0
 19 22  1  0  0  0  0
 21 16  1  0  0  0  0
 21 20  1  0  0  0  0
 22 17  1  0  0  0  0
 23 21  1  0  0  0  0
 25 24  1  6  0  0  0
 25 27  1  0  0  0  0
 25 26  1  0  0  0  0
 26 28  1  1  0  0  0
 27 26  1  0  0  0  0
 28 29  1  6  0  0  0
 31 28  1  0  0  0  0
 31 30  1  1  0  0  0
 31 35  1  0  0  0  0
 32 31  1  0  0  0  0
 33 34  1  0  0  0  0
 34 32  1  0  0  0  0
 36 37  1  1  0  0  0
 36 38  1  0  0  0  0
 36 35  1  0  0  0  0
 39 43  1  0  0  0  0
 40 41  1  0  0  0  0
 40 42  1  0  0  0  0
 41 39  1  0  0  0  0
 42 38  1  0  0  0  0
 43 38  1  0  0  0  0
M  END
>  <MODEL>
9

>  <REMARK>
 VINA RESULT:      -5.4      1.447      2.188
  Name = 
  12 active torsions:
  status: ('A' for Active; 'I' for Inactive)
    1  A    between atoms: C_1  and  O_28
    2  A    between atoms: C_1  and  C_34
    3  A    between atoms: C_2  and  O_13
    4  A    between atoms: C_4  and  C_12
    5  A    between atoms: C_4  and  C_15
    6  A    between atoms: C_4  and  O_22
    7  A    between atoms: C_6  and  C_12
    8  A    between atoms: C_11  and  C_14
    9  A    between atoms: O_13  and  C_38
   10  A    between atoms: C_14  and  O_22
   11  A    between atoms: C_15  and  O_42
   12  A    between atoms: O_28  and  C_35
                            x       y       z     vdW  Elec       q    Type
                         _______ _______ _______ _____ _____    ______ ____

>  <TORSDO>
F 12

$$$$
