=
 OpenBabel11062410503D

 32 37  0  0  1  0  0  0  0  0999 V2000
  161.2940  203.9760  148.7780 C   0  0  0  0  0  0  0  0  0  0  0  0
  161.0760  208.2970  151.2680 C   0  0  0  0  0  0  0  0  0  0  0  0
  160.2350  206.9800  155.9670 C   0  0  0  0  0  2  0  0  0  0  0  0
  160.9460  208.2500  156.3970 C   0  0  0  0  0  2  0  0  0  0  0  0
  161.2330  206.6700  149.5600 C   0  0  0  0  0  0  0  0  0  0  0  0
  161.0010  205.9760  151.8370 N   0  0  0  0  0  0  0  0  0  0  0  0
  161.1610  204.3070  150.1310 C   0  0  0  0  0  3  0  0  0  0  0  0
  160.8030  206.5140  154.6300 C   0  0  0  0  0  2  0  0  0  0  0  0
  160.9690  207.2780  152.2380 C   0  0  0  0  0  0  0  0  0  0  0  0
  160.8330  207.6130  153.5970 C   0  0  0  0  0  0  0  0  0  0  0  0
  160.9310  209.9850  153.0040 C   0  0  0  0  0  0  0  0  0  0  0  0
  161.3960  204.9990  147.8200 C   0  0  0  0  0  3  0  0  0  0  0  0
  161.1300  205.6470  150.5260 C   0  0  0  0  0  0  0  0  0  0  0  0
  161.3660  206.3420  148.2090 C   0  0  0  0  0  3  0  0  0  0  0  0
  160.6080  209.3720  155.4230 C   0  0  0  0  0  2  0  0  0  0  0  0
  160.8290  208.9770  153.9820 C   0  0  0  0  0  0  0  0  0  0  0  0
  161.2030  207.9680  149.9560 N   0  0  0  0  0  0  0  0  0  0  0  0
  161.0530  209.6350  151.6540 C   0  0  0  0  0  3  0  0  0  0  0  0
  161.3220  202.6270  148.4140 O   0  0  0  0  0  0  0  0  0  0  0  0
  160.3680  202.0510  147.5310 C   0  0  0  0  0  2  0  0  0  0  0  0
  160.0300  201.4520  145.1810 C   0  0  0  0  0  2  0  0  0  0  0  0
  160.7490  202.6570  145.2650 O   0  0  0  0  0  0  0  0  0  0  0  0
  161.0460  201.6770  146.2300 C   0  0  1  0  0  3  0  0  0  0  0  0
  160.8910  211.3650  153.3930 N   0  0  0  0  0  2  0  0  0  0  0  0
  159.8220  212.2820  153.0190 C   0  0  2  0  0  3  0  0  0  0  0  0
  157.5190  212.5060  154.0880 C   0  0  1  0  0  3  0  0  0  0  0  0
  158.0680  213.7450  154.4310 O   0  0  0  0  0  1  0  0  0  0  0  0
  158.4540  211.6520  153.2960 C   0  0  2  0  0  3  0  0  0  0  0  0
  158.2780  211.4810  154.6820 O   0  0  0  0  0  0  0  0  0  0  0  0
  159.9540  212.6750  151.5500 C   0  0  0  0  0  2  0  0  0  0  0  0
  159.3670  214.3710  151.2310 S   0  0  0  0  0  0  0  0  0  0  0  0
  157.8520  213.7690  150.4390 C   0  0  0  0  0  1  0  0  0  0  0  0
  1  7  1  0  0  0  0
  2 18  1  0  0  0  0
  2  9  1  0  0  0  0
  3  4  1  0  0  0  0
  5 17  1  0  0  0  0
  5 13  1  0  0  0  0
  6  9  2  0  0  0  0
  7 13  2  0  0  0  0
  8  3  1  0  0  0  0
  9 10  1  0  0  0  0
 10 16  2  0  0  0  0
 10  8  1  0  0  0  0
 11 24  1  0  0  0  0
 11 16  1  0  0  0  0
 12 14  1  0  0  0  0
 12  1  2  0  0  0  0
 13  6  1  0  0  0  0
 14  5  2  0  0  0  0
 15  4  1  0  0  0  0
 16 15  1  0  0  0  0
 17  2  2  0  0  0  0
 18 11  2  0  0  0  0
 19  1  1  0  0  0  0
 20 19  1  0  0  0  0
 21 22  1  0  0  0  0
 21 23  1  0  0  0  0
 22 23  1  0  0  0  0
 23 20  1  1  0  0  0
 25 30  1  6  0  0  0
 25 24  1  0  0  0  0
 26 27  1  1  0  0  0
 26 29  1  0  0  0  0
 28 25  1  1  0  0  0
 28 26  1  0  0  0  0
 28 29  1  0  0  0  0
 31 30  1  0  0  0  0
 32 31  1  0  0  0  0
M  END
>  <MODEL>
1

>  <REMARK>
 VINA RESULT:      -8.0      0.000      0.000
  Name = 
  8 active torsions:
  status: ('A' for Active; 'I' for Inactive)
    1  A    between atoms: C_2  and  O_24
    2  A    between atoms: S_6  and  C_7
    3  A    between atoms: C_7  and  C_32
    4  A    between atoms: C_10  and  C_20
    5  A    between atoms: C_10  and  O_24
    6  A    between atoms: C_16  and  N_27
    7  A    between atoms: C_22  and  C_32
    8  A    between atoms: N_27  and  C_32
                            x       y       z     vdW  Elec       q    Type
                         _______ _______ _______ _____ _____    ______ ____

>  <TORSDO>
F 8

$$$$
=
 OpenBabel11062410503D

 32 37  0  0  1  0  0  0  0  0999 V2000
  161.3500  204.0020  148.7510 C   0  0  0  0  0  0  0  0  0  0  0  0
  161.0670  208.3460  151.1930 C   0  0  0  0  0  0  0  0  0  0  0  0
  160.1800  207.0710  155.8950 C   0  0  0  0  0  2  0  0  0  0  0  0
  160.8760  208.3510  156.3210 C   0  0  0  0  0  2  0  0  0  0  0  0
  161.2570  206.7030  149.5050 C   0  0  0  0  0  0  0  0  0  0  0  0
  161.0040  206.0310  151.7860 N   0  0  0  0  0  0  0  0  0  0  0  0
  161.1980  204.3460  150.0990 C   0  0  0  0  0  3  0  0  0  0  0  0
  160.7670  206.5960  154.5710 C   0  0  0  0  0  2  0  0  0  0  0  0
  160.9570  207.3370  152.1730 C   0  0  0  0  0  0  0  0  0  0  0  0
  160.8010  207.6850  153.5260 C   0  0  0  0  0  0  0  0  0  0  0  0
  160.8870  210.0510  152.9100 C   0  0  0  0  0  0  0  0  0  0  0  0
  161.4540  205.0160  147.7840 C   0  0  0  0  0  3  0  0  0  0  0  0
  161.1510  205.6900  150.4800 C   0  0  0  0  0  0  0  0  0  0  0  0
  161.4090  206.3620  148.1590 C   0  0  0  0  0  3  0  0  0  0  0  0
  160.5410  209.4610  155.3310 C   0  0  0  0  0  2  0  0  0  0  0  0
  160.7820  209.0530  153.8980 C   0  0  0  0  0  0  0  0  0  0  0  0
  161.2130  208.0050  149.8860 N   0  0  0  0  0  0  0  0  0  0  0  0
  161.0290  209.6880  151.5650 C   0  0  0  0  0  3  0  0  0  0  0  0
  161.3920  202.6490  148.4020 O   0  0  0  0  0  0  0  0  0  0  0  0
  160.4090  202.0390  147.5760 C   0  0  0  0  0  2  0  0  0  0  0  0
  160.0010  201.4480  145.2350 C   0  0  0  0  0  2  0  0  0  0  0  0
  160.8070  202.5990  145.3010 O   0  0  0  0  0  0  0  0  0  0  0  0
  161.0430  201.6080  146.2700 C   0  0  1  0  0  3  0  0  0  0  0  0
  160.8320  211.4340  153.2840 N   0  0  0  0  0  2  0  0  0  0  0  0
  159.6470  212.2690  153.1300 C   0  0  2  0  0  3  0  0  0  0  0  0
  158.9120  213.5840  151.0740 C   0  0  1  0  0  3  0  0  0  0  0  0
  157.8760  212.6470  151.1470 O   0  0  0  0  0  1  0  0  0  0  0  0
  159.9250  213.4200  152.1590 C   0  0  2  0  0  3  0  0  0  0  0  0
  160.1310  212.9140  150.8620 O   0  0  0  0  0  0  0  0  0  0  0  0
  159.1940  212.7980  154.4880 C   0  0  0  0  0  2  0  0  0  0  0  0
  157.3840  212.7250  154.6910 S   0  0  0  0  0  0  0  0  0  0  0  0
  157.5180  211.5260  156.0440 C   0  0  0  0  0  1  0  0  0  0  0  0
  1  7  1  0  0  0  0
  2 18  1  0  0  0  0
  2  9  1  0  0  0  0
  3  4  1  0  0  0  0
  5 17  1  0  0  0  0
  5 13  1  0  0  0  0
  6  9  2  0  0  0  0
  7 13  2  0  0  0  0
  8  3  1  0  0  0  0
  9 10  1  0  0  0  0
 10 16  2  0  0  0  0
 10  8  1  0  0  0  0
 11 24  1  0  0  0  0
 11 16  1  0  0  0  0
 12 14  1  0  0  0  0
 12  1  2  0  0  0  0
 13  6  1  0  0  0  0
 14  5  2  0  0  0  0
 15  4  1  0  0  0  0
 16 15  1  0  0  0  0
 17  2  2  0  0  0  0
 18 11  2  0  0  0  0
 19  1  1  0  0  0  0
 20 19  1  0  0  0  0
 21 22  1  0  0  0  0
 21 23  1  0  0  0  0
 22 23  1  0  0  0  0
 23 20  1  1  0  0  0
 25 24  1  0  0  0  0
 25 30  1  1  0  0  0
 26 27  1  1  0  0  0
 26 28  1  0  0  0  0
 28 25  1  1  0  0  0
 29 26  1  0  0  0  0
 29 28  1  0  0  0  0
 30 31  1  0  0  0  0
 31 32  1  0  0  0  0
M  END
>  <MODEL>
2

>  <REMARK>
 VINA RESULT:      -7.8      1.354      1.900
  Name = 
  8 active torsions:
  status: ('A' for Active; 'I' for Inactive)
    1  A    between atoms: C_2  and  O_24
    2  A    between atoms: S_6  and  C_7
    3  A    between atoms: C_7  and  C_32
    4  A    between atoms: C_10  and  C_20
    5  A    between atoms: C_10  and  O_24
    6  A    between atoms: C_16  and  N_27
    7  A    between atoms: C_22  and  C_32
    8  A    between atoms: N_27  and  C_32
                            x       y       z     vdW  Elec       q    Type
                         _______ _______ _______ _____ _____    ______ ____

>  <TORSDO>
F 8

$$$$
=
 OpenBabel11062410503D

 32 37  0  0  1  0  0  0  0  0999 V2000
  161.1180  203.1470  147.8240 C   0  0  0  0  0  0  0  0  0  0  0  0
  161.0570  205.5780  152.1830 C   0  0  0  0  0  0  0  0  0  0  0  0
  162.1130  210.2700  151.0010 C   0  0  0  0  0  2  0  0  0  0  0  0
  161.3150  210.7030  152.2180 C   0  0  0  0  0  2  0  0  0  0  0  0
  160.9870  203.8950  150.5260 C   0  0  0  0  0  0  0  0  0  0  0  0
  161.3270  206.1740  149.8840 N   0  0  0  0  0  0  0  0  0  0  0  0
  161.2580  204.4920  148.1840 C   0  0  0  0  0  3  0  0  0  0  0  0
  161.5510  208.9540  150.4740 C   0  0  0  0  0  2  0  0  0  0  0  0
  161.2670  206.5580  151.1900 C   0  0  0  0  0  0  0  0  0  0  0  0
  161.4100  207.9080  151.5530 C   0  0  0  0  0  0  0  0  0  0  0  0
  161.1110  207.2910  153.9020 C   0  0  0  0  0  0  0  0  0  0  0  0
  160.9130  202.1790  148.8240 C   0  0  0  0  0  3  0  0  0  0  0  0
  161.1930  204.8700  149.5280 C   0  0  0  0  0  0  0  0  0  0  0  0
  160.8470  202.5520  150.1700 C   0  0  0  0  0  3  0  0  0  0  0  0
  161.5390  209.7080  153.3500 C   0  0  0  0  0  2  0  0  0  0  0  0
  161.3150  208.2780  152.9190 C   0  0  0  0  0  0  0  0  0  0  0  0
  160.9230  204.2740  151.8280 N   0  0  0  0  0  0  0  0  0  0  0  0
  160.9830  205.9480  153.5240 C   0  0  0  0  0  3  0  0  0  0  0  0
  161.1880  202.7990  146.4730 O   0  0  0  0  0  0  0  0  0  0  0  0
  161.7660  203.6500  145.4910 C   0  0  0  0  0  2  0  0  0  0  0  0
  160.6020  205.7210  144.9020 C   0  0  0  0  0  2  0  0  0  0  0  0
  161.2440  205.1980  143.7660 O   0  0  0  0  0  0  0  0  0  0  0  0
  160.6690  204.2680  144.6500 C   0  0  1  0  0  3  0  0  0  0  0  0
  161.0510  207.6620  155.2850 N   0  0  0  0  0  2  0  0  0  0  0  0
  160.7770  209.0170  155.7500 C   0  0  2  0  0  3  0  0  0  0  0  0
  162.4700  210.1760  157.2610 C   0  0  1  0  0  3  0  0  0  0  0  0
  162.8310  210.7250  156.0260 O   0  0  0  0  0  1  0  0  0  0  0  0
  161.3270  209.2200  157.1640 C   0  0  2  0  0  3  0  0  0  0  0  0
  162.6640  208.7830  157.2250 O   0  0  0  0  0  0  0  0  0  0  0  0
  159.2770  209.2970  155.7020 C   0  0  0  0  0  2  0  0  0  0  0  0
  158.8780  211.0140  156.1680 S   0  0  0  0  0  0  0  0  0  0  0  0
  158.3840  211.4280  154.4740 C   0  0  0  0  0  1  0  0  0  0  0  0
  1  7  2  0  0  0  0
  1 12  1  0  0  0  0
  2 18  1  0  0  0  0
  3  4  1  0  0  0  0
  4 15  1  0  0  0  0
  5 17  1  0  0  0  0
  6  9  2  0  0  0  0
  7 13  1  0  0  0  0
  8  3  1  0  0  0  0
  8 10  1  0  0  0  0
  9 10  1  0  0  0  0
  9  2  1  0  0  0  0
 10 16  2  0  0  0  0
 11 24  1  0  0  0  0
 12 14  2  0  0  0  0
 13  6  1  0  0  0  0
 13  5  2  0  0  0  0
 14  5  1  0  0  0  0
 16 15  1  0  0  0  0
 16 11  1  0  0  0  0
 17  2  2  0  0  0  0
 18 11  2  0  0  0  0
 19  1  1  0  0  0  0
 20 19  1  0  0  0  0
 22 23  1  0  0  0  0
 22 21  1  0  0  0  0
 23 21  1  0  0  0  0
 23 20  1  1  0  0  0
 24 25  1  0  0  0  0
 25 30  1  1  0  0  0
 26 27  1  6  0  0  0
 28 25  1  6  0  0  0
 28 29  1  0  0  0  0
 28 26  1  0  0  0  0
 29 26  1  0  0  0  0
 30 31  1  0  0  0  0
 32 31  1  0  0  0  0
M  END
>  <MODEL>
3

>  <REMARK>
 VINA RESULT:      -7.7      2.465      3.981
  Name = 
  8 active torsions:
  status: ('A' for Active; 'I' for Inactive)
    1  A    between atoms: C_2  and  O_24
    2  A    between atoms: S_6  and  C_7
    3  A    between atoms: C_7  and  C_32
    4  A    between atoms: C_10  and  C_20
    5  A    between atoms: C_10  and  O_24
    6  A    between atoms: C_16  and  N_27
    7  A    between atoms: C_22  and  C_32
    8  A    between atoms: N_27  and  C_32
                            x       y       z     vdW  Elec       q    Type
                         _______ _______ _______ _____ _____    ______ ____

>  <TORSDO>
F 8

$$$$
=
 OpenBabel11062410503D

 32 37  0  0  1  0  0  0  0  0999 V2000
  161.1060  202.2620  149.3740 C   0  0  0  0  0  0  0  0  0  0  0  0
  161.2320  206.4920  152.0220 C   0  0  0  0  0  0  0  0  0  0  0  0
  162.3540  209.9970  148.7080 C   0  0  0  0  0  2  0  0  0  0  0  0
  161.6030  210.9890  149.5770 C   0  0  0  0  0  2  0  0  0  0  0  0
  161.0740  204.2220  151.3820 C   0  0  0  0  0  0  0  0  0  0  0  0
  161.4450  205.8980  149.7160 N   0  0  0  0  0  0  0  0  0  0  0  0
  161.2860  203.6090  149.0380 C   0  0  0  0  0  3  0  0  0  0  0  0
  161.7470  208.6090  148.8890 C   0  0  0  0  0  2  0  0  0  0  0  0
  161.4330  206.8650  150.6760 C   0  0  0  0  0  0  0  0  0  0  0  0
  161.6160  208.2180  150.3410 C   0  0  0  0  0  0  0  0  0  0  0  0
  161.3770  208.8170  152.7010 C   0  0  0  0  0  0  0  0  0  0  0  0
  160.9110  201.9030  150.7190 C   0  0  0  0  0  3  0  0  0  0  0  0
  161.2710  204.5890  150.0340 C   0  0  0  0  0  0  0  0  0  0  0  0
  160.8940  202.8790  151.7190 C   0  0  0  0  0  3  0  0  0  0  0  0
  161.8410  210.6540  151.0450 C   0  0  0  0  0  2  0  0  0  0  0  0
  161.5720  209.2020  151.3600 C   0  0  0  0  0  0  0  0  0  0  0  0
  161.0590  205.1830  152.3410 N   0  0  0  0  0  0  0  0  0  0  0  0
  161.2080  207.4640  153.0190 C   0  0  0  0  0  3  0  0  0  0  0  0
  161.1270  201.3050  148.3560 O   0  0  0  0  0  0  0  0  0  0  0  0
  160.1730  201.2860  147.3010 C   0  0  0  0  0  2  0  0  0  0  0  0
  159.9460  201.5990  144.8840 C   0  0  0  0  0  2  0  0  0  0  0  0
  160.8260  202.5630  145.4070 O   0  0  0  0  0  0  0  0  0  0  0  0
  160.8940  201.2760  145.9700 C   0  0  1  0  0  3  0  0  0  0  0  0
  161.3680  209.8100  153.7350 N   0  0  0  0  0  2  0  0  0  0  0  0
  160.1550  210.2930  154.3840 C   0  0  2  0  0  3  0  0  0  0  0  0
  158.9660  212.5280  154.0880 C   0  0  1  0  0  3  0  0  0  0  0  0
  157.9800  211.6620  153.6060 O   0  0  0  0  0  1  0  0  0  0  0  0
  160.1990  211.8150  154.5390 C   0  0  2  0  0  3  0  0  0  0  0  0
  160.1100  212.4280  153.2750 O   0  0  0  0  0  0  0  0  0  0  0  0
  159.9750  209.6120  155.7380 C   0  0  0  0  0  2  0  0  0  0  0  0
  161.5300  209.5330  156.6870 S   0  0  0  0  0  0  0  0  0  0  0  0
  161.2200  207.8160  157.1780 C   0  0  0  0  0  1  0  0  0  0  0  0
  1 12  1  0  0  0  0
  2 17  2  0  0  0  0
  2 18  1  0  0  0  0
  3  8  1  0  0  0  0
  3  4  1  0  0  0  0
  4 15  1  0  0  0  0
  5 14  1  0  0  0  0
  5 17  1  0  0  0  0
  6 13  1  0  0  0  0
  6  9  2  0  0  0  0
  7  1  2  0  0  0  0
  7 13  1  0  0  0  0
  8 10  1  0  0  0  0
  9  2  1  0  0  0  0
 10  9  1  0  0  0  0
 10 16  2  0  0  0  0
 11 18  2  0  0  0  0
 11 24  1  0  0  0  0
 12 14  2  0  0  0  0
 13  5  2  0  0  0  0
 15 16  1  0  0  0  0
 16 11  1  0  0  0  0
 19  1  1  0  0  0  0
 20 19  1  0  0  0  0
 21 22  1  0  0  0  0
 21 23  1  0  0  0  0
 22 23  1  0  0  0  0
 23 20  1  1  0  0  0
 24 25  1  0  0  0  0
 25 30  1  1  0  0  0
 26 27  1  6  0  0  0
 26 28  1  0  0  0  0
 28 25  1  6  0  0  0
 29 26  1  0  0  0  0
 29 28  1  0  0  0  0
 30 31  1  0  0  0  0
 31 32  1  0  0  0  0
M  END
>  <MODEL>
4

>  <REMARK>
 VINA RESULT:      -7.7      2.024      3.947
  Name = 
  8 active torsions:
  status: ('A' for Active; 'I' for Inactive)
    1  A    between atoms: C_2  and  O_24
    2  A    between atoms: S_6  and  C_7
    3  A    between atoms: C_7  and  C_32
    4  A    between atoms: C_10  and  C_20
    5  A    between atoms: C_10  and  O_24
    6  A    between atoms: C_16  and  N_27
    7  A    between atoms: C_22  and  C_32
    8  A    between atoms: N_27  and  C_32
                            x       y       z     vdW  Elec       q    Type
                         _______ _______ _______ _____ _____    ______ ____

>  <TORSDO>
F 8

$$$$
=
 OpenBabel11062410503D

 32 37  0  0  1  0  0  0  0  0999 V2000
  160.9980  202.4470  149.4940 C   0  0  0  0  0  0  0  0  0  0  0  0
  161.3460  206.7500  152.0010 C   0  0  0  0  0  0  0  0  0  0  0  0
  162.3930  210.1250  148.5320 C   0  0  0  0  0  2  0  0  0  0  0  0
  161.7070  211.1610  149.4040 C   0  0  0  0  0  2  0  0  0  0  0  0
  161.1050  204.4660  151.4400 C   0  0  0  0  0  0  0  0  0  0  0  0
  161.4370  206.0820  149.7080 N   0  0  0  0  0  0  0  0  0  0  0  0
  161.1930  203.7780  149.1090 C   0  0  0  0  0  3  0  0  0  0  0  0
  161.7630  208.7590  148.7840 C   0  0  0  0  0  2  0  0  0  0  0  0
  161.4920  207.0770  150.6370 C   0  0  0  0  0  0  0  0  0  0  0  0
  161.6910  208.4140  150.2520 C   0  0  0  0  0  0  0  0  0  0  0  0
  161.5760  209.0890  152.6010 C   0  0  0  0  0  0  0  0  0  0  0  0
  160.8570  202.1330  150.8570 C   0  0  0  0  0  3  0  0  0  0  0  0
  161.2470  204.7880  150.0740 C   0  0  0  0  0  0  0  0  0  0  0  0
  160.9100  203.1390  151.8270 C   0  0  0  0  0  3  0  0  0  0  0  0
  162.0050  210.8640  150.8690 C   0  0  0  0  0  2  0  0  0  0  0  0
  161.7170  209.4290  151.2410 C   0  0  0  0  0  0  0  0  0  0  0  0
  161.1570  205.4550  152.3680 N   0  0  0  0  0  0  0  0  0  0  0  0
  161.3910  207.7510  152.9680 C   0  0  0  0  0  3  0  0  0  0  0  0
  160.9490  201.4600  148.5070 O   0  0  0  0  0  0  0  0  0  0  0  0
  160.0780  201.5390  147.3850 C   0  0  0  0  0  2  0  0  0  0  0  0
  159.9820  201.4440  144.9410 C   0  0  0  0  0  2  0  0  0  0  0  0
  160.7680  202.5380  145.3430 O   0  0  0  0  0  0  0  0  0  0  0  0
  160.8790  201.3660  146.1120 C   0  0  1  0  0  3  0  0  0  0  0  0
  161.6380  210.1130  153.6030 N   0  0  0  0  0  2  0  0  0  0  0  0
  160.4750  210.6060  154.3310 C   0  0  2  0  0  3  0  0  0  0  0  0
  159.9270  210.0190  156.7510 C   0  0  1  0  0  3  0  0  0  0  0  0
  160.3310  211.3490  156.9080 O   0  0  0  0  0  1  0  0  0  0  0  0
  159.9850  209.5550  155.3320 C   0  0  2  0  0  3  0  0  0  0  0  0
  161.0050  209.2620  156.2560 O   0  0  0  0  0  0  0  0  0  0  0  0
  159.3660  210.9890  153.3560 C   0  0  0  0  0  2  0  0  0  0  0  0
  158.6020  212.5920  153.7710 S   0  0  0  0  0  0  0  0  0  0  0  0
  157.1590  211.7860  154.5160 C   0  0  0  0  0  1  0  0  0  0  0  0
  1 12  1  0  0  0  0
  2 17  2  0  0  0  0
  2 18  1  0  0  0  0
  3  8  1  0  0  0  0
  3  4  1  0  0  0  0
  4 15  1  0  0  0  0
  5 14  1  0  0  0  0
  5 17  1  0  0  0  0
  6 13  1  0  0  0  0
  6  9  2  0  0  0  0
  7  1  2  0  0  0  0
  7 13  1  0  0  0  0
  8 10  1  0  0  0  0
  9  2  1  0  0  0  0
 10  9  1  0  0  0  0
 10 16  2  0  0  0  0
 11 18  2  0  0  0  0
 11 24  1  0  0  0  0
 12 14  2  0  0  0  0
 13  5  2  0  0  0  0
 15 16  1  0  0  0  0
 16 11  1  0  0  0  0
 19  1  1  0  0  0  0
 20 19  1  0  0  0  0
 21 22  1  0  0  0  0
 21 23  1  0  0  0  0
 22 23  1  0  0  0  0
 23 20  1  1  0  0  0
 24 25  1  0  0  0  0
 25 30  1  6  0  0  0
 26 27  1  6  0  0  0
 28 25  1  6  0  0  0
 28 29  1  0  0  0  0
 28 26  1  0  0  0  0
 29 26  1  0  0  0  0
 30 31  1  0  0  0  0
 31 32  1  0  0  0  0
M  END
>  <MODEL>
5

>  <REMARK>
 VINA RESULT:      -7.4      1.845      3.567
  Name = 
  8 active torsions:
  status: ('A' for Active; 'I' for Inactive)
    1  A    between atoms: C_2  and  O_24
    2  A    between atoms: S_6  and  C_7
    3  A    between atoms: C_7  and  C_32
    4  A    between atoms: C_10  and  C_20
    5  A    between atoms: C_10  and  O_24
    6  A    between atoms: C_16  and  N_27
    7  A    between atoms: C_22  and  C_32
    8  A    between atoms: N_27  and  C_32
                            x       y       z     vdW  Elec       q    Type
                         _______ _______ _______ _____ _____    ______ ____

>  <TORSDO>
F 8

$$$$
=
 OpenBabel11062410503D

 32 37  0  0  1  0  0  0  0  0999 V2000
  161.2880  203.2860  147.3190 C   0  0  0  0  0  0  0  0  0  0  0  0
  161.7800  208.0830  148.6080 C   0  0  0  0  0  0  0  0  0  0  0  0
  160.6940  208.1870  153.4390 C   0  0  0  0  0  2  0  0  0  0  0  0
  161.6060  209.3950  153.5660 C   0  0  0  0  0  2  0  0  0  0  0  0
  161.6740  206.0650  147.3830 C   0  0  0  0  0  0  0  0  0  0  0  0
  161.3130  206.0340  149.7470 N   0  0  0  0  0  0  0  0  0  0  0  0
  161.2030  203.9750  148.5340 C   0  0  0  0  0  3  0  0  0  0  0  0
  161.1860  207.3050  152.2960 C   0  0  0  0  0  2  0  0  0  0  0  0
  161.4970  207.3830  149.8000 C   0  0  0  0  0  0  0  0  0  0  0  0
  161.4080  208.0780  151.0190 C   0  0  0  0  0  0  0  0  0  0  0  0
  161.9070  210.1660  149.8460 C   0  0  0  0  0  0  0  0  0  0  0  0
  161.5670  203.9950  146.1370 C   0  0  0  0  0  3  0  0  0  0  0  0
  161.3940  205.3590  148.5710 C   0  0  0  0  0  0  0  0  0  0  0  0
  161.7600  205.3790  146.1690 C   0  0  0  0  0  3  0  0  0  0  0  0
  161.4680  210.2640  152.3220 C   0  0  0  0  0  2  0  0  0  0  0  0
  161.6300  209.4780  151.0430 C   0  0  0  0  0  0  0  0  0  0  0  0
  161.8600  207.4080  147.4320 N   0  0  0  0  0  0  0  0  0  0  0  0
  161.9790  209.4610  148.6380 C   0  0  0  0  0  3  0  0  0  0  0  0
  161.0920  201.9030  147.3140 O   0  0  0  0  0  0  0  0  0  0  0  0
  161.6450  201.0450  148.3030 C   0  0  0  0  0  2  0  0  0  0  0  0
  160.6120  201.2940  150.5090 C   0  0  0  0  0  2  0  0  0  0  0  0
  159.6860  201.6410  149.5080 O   0  0  0  0  0  0  0  0  0  0  0  0
  160.5450  200.5640  149.2260 C   0  0  1  0  0  3  0  0  0  0  0  0
  162.0970  211.5870  149.8670 N   0  0  0  0  0  2  0  0  0  0  0  0
  161.3660  212.5150  149.0120 C   0  0  2  0  0  3  0  0  0  0  0  0
  162.1550  213.3770  146.7470 C   0  0  1  0  0  3  0  0  0  0  0  0
  161.1100  212.5430  146.3390 O   0  0  0  0  0  1  0  0  0  0  0  0
  162.3390  213.4020  148.2290 C   0  0  2  0  0  3  0  0  0  0  0  0
  163.1410  212.6070  147.3900 O   0  0  0  0  0  0  0  0  0  0  0  0
  160.4100  213.3610  149.8490 C   0  0  0  0  0  2  0  0  0  0  0  0
  158.8750  213.7630  148.9510 S   0  0  0  0  0  0  0  0  0  0  0  0
  157.8700  213.5600  150.4470 C   0  0  0  0  0  1  0  0  0  0  0  0
  1  7  1  0  0  0  0
  2 18  1  0  0  0  0
  2  9  1  0  0  0  0
  3  4  1  0  0  0  0
  5 17  1  0  0  0  0
  5 13  1  0  0  0  0
  6  9  2  0  0  0  0
  7 13  2  0  0  0  0
  8  3  1  0  0  0  0
  9 10  1  0  0  0  0
 10 16  2  0  0  0  0
 10  8  1  0  0  0  0
 11 24  1  0  0  0  0
 11 16  1  0  0  0  0
 12 14  1  0  0  0  0
 12  1  2  0  0  0  0
 13  6  1  0  0  0  0
 14  5  2  0  0  0  0
 15  4  1  0  0  0  0
 16 15  1  0  0  0  0
 17  2  2  0  0  0  0
 18 11  2  0  0  0  0
 19  1  1  0  0  0  0
 19 20  1  0  0  0  0
 22 21  1  0  0  0  0
 23 20  1  6  0  0  0
 23 22  1  0  0  0  0
 23 21  1  0  0  0  0
 25 30  1  1  0  0  0
 25 24  1  0  0  0  0
 26 27  1  1  0  0  0
 26 29  1  0  0  0  0
 26 28  1  0  0  0  0
 28 25  1  1  0  0  0
 29 28  1  0  0  0  0
 31 30  1  0  0  0  0
 31 32  1  0  0  0  0
M  END
>  <MODEL>
6

>  <REMARK>
 VINA RESULT:      -7.1      3.046      3.962
  Name = 
  8 active torsions:
  status: ('A' for Active; 'I' for Inactive)
    1  A    between atoms: C_2  and  O_24
    2  A    between atoms: S_6  and  C_7
    3  A    between atoms: C_7  and  C_32
    4  A    between atoms: C_10  and  C_20
    5  A    between atoms: C_10  and  O_24
    6  A    between atoms: C_16  and  N_27
    7  A    between atoms: C_22  and  C_32
    8  A    between atoms: N_27  and  C_32
                            x       y       z     vdW  Elec       q    Type
                         _______ _______ _______ _____ _____    ______ ____

>  <TORSDO>
F 8

$$$$
=
 OpenBabel11062410503D

 32 37  0  0  1  0  0  0  0  0999 V2000
  161.3390  209.5990  154.4140 C   0  0  0  0  0  0  0  0  0  0  0  0
  161.0260  206.9080  150.2220 C   0  0  0  0  0  0  0  0  0  0  0  0
  161.3300  202.2040  151.7410 C   0  0  0  0  0  2  0  0  0  0  0  0
  160.5070  201.8120  150.5270 C   0  0  0  0  0  2  0  0  0  0  0  0
  161.1670  208.6930  151.7640 C   0  0  0  0  0  0  0  0  0  0  0  0
  161.1430  206.4390  152.5630 N   0  0  0  0  0  0  0  0  0  0  0  0
  161.2830  208.2260  154.1480 C   0  0  0  0  0  3  0  0  0  0  0  0
  160.9590  203.6220  152.1620 C   0  0  0  0  0  2  0  0  0  0  0  0
  161.0590  205.9790  151.2830 C   0  0  0  0  0  0  0  0  0  0  0  0
  161.0060  204.6000  151.0130 C   0  0  0  0  0  0  0  0  0  0  0  0
  160.8660  205.0920  148.6200 C   0  0  0  0  0  0  0  0  0  0  0  0
  161.3090  210.5150  153.3480 C   0  0  0  0  0  3  0  0  0  0  0  0
  161.1970  207.7700  152.8290 C   0  0  0  0  0  0  0  0  0  0  0  0
  161.2220  210.0640  152.0270 C   0  0  0  0  0  3  0  0  0  0  0  0
  160.9100  202.6820  149.3420 C   0  0  0  0  0  2  0  0  0  0  0  0
  160.8930  204.1550  149.6720 C   0  0  0  0  0  0  0  0  0  0  0  0
  161.0820  208.2390  150.4880 N   0  0  0  0  0  0  0  0  0  0  0  0
  160.9330  206.4610  148.9060 C   0  0  0  0  0  3  0  0  0  0  0  0
  161.4250  210.0240  155.7430 O   0  0  0  0  0  0  0  0  0  0  0  0
  160.7250  211.1610  156.2310 C   0  0  0  0  0  2  0  0  0  0  0  0
  158.4110  211.8250  156.6760 C   0  0  0  0  0  2  0  0  0  0  0  0
  158.4300  210.7490  155.7710 O   0  0  0  0  0  0  0  0  0  0  0  0
  159.3900  210.7270  156.7990 C   0  0  1  0  0  3  0  0  0  0  0  0
  160.7870  204.6390  147.2620 N   0  0  0  0  0  2  0  0  0  0  0  0
  161.9400  204.5300  146.3760 C   0  0  2  0  0  3  0  0  0  0  0  0
  160.8140  206.2420  144.8610 C   0  0  1  0  0  3  0  0  0  0  0  0
  159.7200  205.4230  145.1570 O   0  0  0  0  0  1  0  0  0  0  0  0
  162.0770  205.7910  145.5180 C   0  0  2  0  0  3  0  0  0  0  0  0
  161.7850  205.4900  144.1750 O   0  0  0  0  0  0  0  0  0  0  0  0
  161.8180  203.2850  145.5020 C   0  0  0  0  0  2  0  0  0  0  0  0
  160.8920  201.9480  146.3250 S   0  0  0  0  0  0  0  0  0  0  0  0
  159.8520  201.6790  144.8650 C   0  0  0  0  0  1  0  0  0  0  0  0
  1 19  1  0  0  0  0
  2 17  2  0  0  0  0
  2  9  1  0  0  0  0
  3  8  1  0  0  0  0
  4  3  1  0  0  0  0
  5 14  2  0  0  0  0
  5 13  1  0  0  0  0
  6 13  1  0  0  0  0
  7  1  1  0  0  0  0
  9  6  2  0  0  0  0
 10  9  1  0  0  0  0
 10  8  1  0  0  0  0
 11 18  2  0  0  0  0
 11 16  1  0  0  0  0
 12  1  2  0  0  0  0
 13  7  2  0  0  0  0
 14 12  1  0  0  0  0
 15 16  1  0  0  0  0
 15  4  1  0  0  0  0
 16 10  2  0  0  0  0
 17  5  1  0  0  0  0
 18  2  1  0  0  0  0
 19 20  1  0  0  0  0
 21 23  1  0  0  0  0
 22 21  1  0  0  0  0
 22 23  1  0  0  0  0
 23 20  1  6  0  0  0
 24 11  1  0  0  0  0
 25 30  1  6  0  0  0
 25 24  1  0  0  0  0
 26 27  1  1  0  0  0
 26 28  1  0  0  0  0
 28 25  1  1  0  0  0
 29 26  1  0  0  0  0
 29 28  1  0  0  0  0
 30 31  1  0  0  0  0
 32 31  1  0  0  0  0
M  END
>  <MODEL>
7

>  <REMARK>
 VINA RESULT:      -6.9      3.225      9.137
  Name = 
  8 active torsions:
  status: ('A' for Active; 'I' for Inactive)
    1  A    between atoms: C_2  and  O_24
    2  A    between atoms: S_6  and  C_7
    3  A    between atoms: C_7  and  C_32
    4  A    between atoms: C_10  and  C_20
    5  A    between atoms: C_10  and  O_24
    6  A    between atoms: C_16  and  N_27
    7  A    between atoms: C_22  and  C_32
    8  A    between atoms: N_27  and  C_32
                            x       y       z     vdW  Elec       q    Type
                         _______ _______ _______ _____ _____    ______ ____

>  <TORSDO>
F 8

$$$$
=
 OpenBabel11062410503D

 32 37  0  0  1  0  0  0  0  0999 V2000
  161.5580  205.1680  148.8560 C   0  0  0  0  0  0  0  0  0  0  0  0
  160.9680  209.0720  151.9100 C   0  0  0  0  0  0  0  0  0  0  0  0
  159.9690  207.0560  156.3220 C   0  0  0  0  0  2  0  0  0  0  0  0
  160.5840  208.2860  156.9660 C   0  0  0  0  0  2  0  0  0  0  0  0
  161.3030  207.7160  150.0040 C   0  0  0  0  0  0  0  0  0  0  0  0
  160.9980  206.6940  152.1440 N   0  0  0  0  0  0  0  0  0  0  0  0
  161.3390  205.2960  150.2330 C   0  0  0  0  0  3  0  0  0  0  0  0
  160.6290  206.8150  154.9680 C   0  0  0  0  0  2  0  0  0  0  0  0
  160.8710  207.9220  152.7210 C   0  0  0  0  0  0  0  0  0  0  0  0
  160.6480  208.0510  154.1020 C   0  0  0  0  0  0  0  0  0  0  0  0
  160.6390  210.4860  153.8550 C   0  0  0  0  0  0  0  0  0  0  0  0
  161.6490  206.3220  148.0580 C   0  0  0  0  0  3  0  0  0  0  0  0
  161.2110  206.5620  150.8090 C   0  0  0  0  0  0  0  0  0  0  0  0
  161.5230  207.5920  148.6300 C   0  0  0  0  0  3  0  0  0  0  0  0
  160.2320  209.5180  156.1410 C   0  0  0  0  0  2  0  0  0  0  0  0
  160.5470  209.3440  154.6750 C   0  0  0  0  0  0  0  0  0  0  0  0
  161.1800  208.9420  150.5750 N   0  0  0  0  0  0  0  0  0  0  0  0
  160.8490  210.3380  152.4780 C   0  0  0  0  0  3  0  0  0  0  0  0
  161.6810  203.8880  148.3090 O   0  0  0  0  0  0  0  0  0  0  0  0
  160.6170  202.9450  148.3160 C   0  0  0  0  0  2  0  0  0  0  0  0
  160.9010  201.6190  150.3540 C   0  0  0  0  0  2  0  0  0  0  0  0
  160.0220  200.9590  149.4770 O   0  0  0  0  0  0  0  0  0  0  0  0
  161.1090  201.6340  148.8920 C   0  0  1  0  0  3  0  0  0  0  0  0
  160.5020  211.7920  154.4310 N   0  0  0  0  0  2  0  0  0  0  0  0
  159.4280  212.7170  154.0920 C   0  0  2  0  0  3  0  0  0  0  0  0
  157.1760  212.8580  155.2780 C   0  0  1  0  0  3  0  0  0  0  0  0
  157.7580  214.0500  155.7200 O   0  0  0  0  0  1  0  0  0  0  0  0
  158.0630  212.0780  154.3640 C   0  0  2  0  0  3  0  0  0  0  0  0
  157.9430  211.7700  155.7320 O   0  0  0  0  0  0  0  0  0  0  0  0
  159.5450  213.1510  152.6330 C   0  0  0  0  0  2  0  0  0  0  0  0
  158.3390  214.4450  152.1950 S   0  0  0  0  0  0  0  0  0  0  0  0
  157.7700  213.5160  150.7460 C   0  0  0  0  0  1  0  0  0  0  0  0
  1  7  1  0  0  0  0
  2 18  1  0  0  0  0
  2  9  1  0  0  0  0
  3  4  1  0  0  0  0
  5 17  1  0  0  0  0
  5 13  1  0  0  0  0
  6  9  2  0  0  0  0
  7 13  2  0  0  0  0
  8  3  1  0  0  0  0
  9 10  1  0  0  0  0
 10 16  2  0  0  0  0
 10  8  1  0  0  0  0
 11 24  1  0  0  0  0
 11 16  1  0  0  0  0
 12 14  1  0  0  0  0
 12  1  2  0  0  0  0
 13  6  1  0  0  0  0
 14  5  2  0  0  0  0
 15  4  1  0  0  0  0
 16 15  1  0  0  0  0
 17  2  2  0  0  0  0
 18 11  2  0  0  0  0
 19 20  1  0  0  0  0
 19  1  1  0  0  0  0
 22 21  1  0  0  0  0
 23 20  1  6  0  0  0
 23 22  1  0  0  0  0
 23 21  1  0  0  0  0
 25 30  1  6  0  0  0
 25 24  1  0  0  0  0
 26 27  1  1  0  0  0
 26 29  1  0  0  0  0
 28 25  1  1  0  0  0
 28 26  1  0  0  0  0
 28 29  1  0  0  0  0
 31 30  1  0  0  0  0
 32 31  1  0  0  0  0
M  END
>  <MODEL>
8

>  <REMARK>
 VINA RESULT:      -6.9      1.335      1.667
  Name = 
  8 active torsions:
  status: ('A' for Active; 'I' for Inactive)
    1  A    between atoms: C_2  and  O_24
    2  A    between atoms: S_6  and  C_7
    3  A    between atoms: C_7  and  C_32
    4  A    between atoms: C_10  and  C_20
    5  A    between atoms: C_10  and  O_24
    6  A    between atoms: C_16  and  N_27
    7  A    between atoms: C_22  and  C_32
    8  A    between atoms: N_27  and  C_32
                            x       y       z     vdW  Elec       q    Type
                         _______ _______ _______ _____ _____    ______ ____

>  <TORSDO>
F 8

$$$$
=
 OpenBabel11062410503D

 32 37  0  0  1  0  0  0  0  0999 V2000
  160.8940  209.3750  153.7980 C   0  0  0  0  0  0  0  0  0  0  0  0
  161.4470  206.4850  149.7660 C   0  0  0  0  0  0  0  0  0  0  0  0
  161.1550  201.8580  151.5060 C   0  0  0  0  0  2  0  0  0  0  0  0
  160.6240  201.4350  150.1490 C   0  0  0  0  0  2  0  0  0  0  0  0
  161.3080  208.3410  151.2230 C   0  0  0  0  0  0  0  0  0  0  0  0
  160.9860  206.1340  152.0850 N   0  0  0  0  0  0  0  0  0  0  0  0
  160.8360  207.9930  153.5830 C   0  0  0  0  0  3  0  0  0  0  0  0
  160.7660  203.3090  151.7680 C   0  0  0  0  0  2  0  0  0  0  0  0
  161.1840  205.6120  150.8420 C   0  0  0  0  0  0  0  0  0  0  0  0
  161.1290  204.2240  150.6240 C   0  0  0  0  0  0  0  0  0  0  0  0
  161.5810  204.5970  148.2480 C   0  0  0  0  0  0  0  0  0  0  0  0
  161.1610  210.2350  152.7190 C   0  0  0  0  0  3  0  0  0  0  0  0
  161.0410  207.4740  152.3020 C   0  0  0  0  0  0  0  0  0  0  0  0
  161.3660  209.7210  151.4350 C   0  0  0  0  0  3  0  0  0  0  0  0
  161.3360  202.2270  149.0590 C   0  0  0  0  0  2  0  0  0  0  0  0
  161.3140  203.7150  149.3140 C   0  0  0  0  0  0  0  0  0  0  0  0
  161.5040  207.8250  149.9820 N   0  0  0  0  0  0  0  0  0  0  0  0
  161.6450  205.9750  148.4850 C   0  0  0  0  0  3  0  0  0  0  0  0
  160.6850  209.8650  155.0900 O   0  0  0  0  0  0  0  0  0  0  0  0
  160.4050  211.2330  155.3560 C   0  0  0  0  0  2  0  0  0  0  0  0
  158.2130  212.3230  155.4040 C   0  0  0  0  0  2  0  0  0  0  0  0
  158.0510  210.9380  155.2240 O   0  0  0  0  0  0  0  0  0  0  0  0
  159.0840  211.3450  156.0870 C   0  0  1  0  0  3  0  0  0  0  0  0
  161.8030  204.0770  146.9300 N   0  0  0  0  0  2  0  0  0  0  0  0
  160.7310  203.6650  146.0310 C   0  0  2  0  0  3  0  0  0  0  0  0
  159.9600  201.4510  145.0320 C   0  0  1  0  0  3  0  0  0  0  0  0
  158.7350  201.9550  145.4790 O   0  0  0  0  0  1  0  0  0  0  0  0
  161.1070  202.3660  145.3120 C   0  0  2  0  0  3  0  0  0  0  0  0
  160.8150  201.2620  146.1330 O   0  0  0  0  0  0  0  0  0  0  0  0
  160.4260  204.7750  145.0300 C   0  0  0  0  0  2  0  0  0  0  0  0
  161.9010  205.7670  144.6240 S   0  0  0  0  0  0  0  0  0  0  0  0
  161.4720  205.8020  142.8630 C   0  0  0  0  0  1  0  0  0  0  0  0
  1 19  1  0  0  0  0
  2 17  2  0  0  0  0
  2  9  1  0  0  0  0
  3  8  1  0  0  0  0
  4  3  1  0  0  0  0
  5 14  2  0  0  0  0
  5 13  1  0  0  0  0
  6 13  1  0  0  0  0
  7  1  1  0  0  0  0
  9  6  2  0  0  0  0
 10  9  1  0  0  0  0
 10  8  1  0  0  0  0
 11 18  2  0  0  0  0
 11 16  1  0  0  0  0
 12  1  2  0  0  0  0
 13  7  2  0  0  0  0
 14 12  1  0  0  0  0
 15 16  1  0  0  0  0
 15  4  1  0  0  0  0
 16 10  2  0  0  0  0
 17  5  1  0  0  0  0
 18  2  1  0  0  0  0
 19 20  1  0  0  0  0
 21 23  1  0  0  0  0
 22 21  1  0  0  0  0
 22 23  1  0  0  0  0
 23 20  1  6  0  0  0
 24 11  1  0  0  0  0
 25 30  1  6  0  0  0
 25 24  1  0  0  0  0
 26 28  1  0  0  0  0
 26 27  1  1  0  0  0
 26 29  1  0  0  0  0
 28 25  1  1  0  0  0
 28 29  1  0  0  0  0
 31 30  1  0  0  0  0
 32 31  1  0  0  0  0
M  END
>  <MODEL>
9

>  <REMARK>
 VINA RESULT:      -6.5      2.767      9.282
  Name = 
  8 active torsions:
  status: ('A' for Active; 'I' for Inactive)
    1  A    between atoms: C_2  and  O_24
    2  A    between atoms: S_6  and  C_7
    3  A    between atoms: C_7  and  C_32
    4  A    between atoms: C_10  and  C_20
    5  A    between atoms: C_10  and  O_24
    6  A    between atoms: C_16  and  N_27
    7  A    between atoms: C_22  and  C_32
    8  A    between atoms: N_27  and  C_32
                            x       y       z     vdW  Elec       q    Type
                         _______ _______ _______ _____ _____    ______ ____

>  <TORSDO>
F 8

$$$$
