=
 OpenBabel11062408593D

 55 59  0  0  1  0  0  0  0  0999 V2000
  161.5780  203.1790  145.9890 C   0  0  0  0  0  2  0  0  0  0  0  0
  161.5400  205.5380  144.3980 C   0  0  0  0  0  0  0  0  0  0  0  0
  162.1430  205.7130  145.7650 C   0  0  2  0  0  3  0  0  0  0  0  0
  160.2550  203.6100  145.3740 C   0  0  0  0  0  2  0  0  0  0  0  0
  162.3540  204.3930  146.5340 C   0  0  0  0  0  2  0  0  0  0  0  0
  161.8670  206.3710  143.4630 N   0  0  0  0  0  0  0  0  0  0  0  0
  160.5340  204.4460  144.1280 C   0  0  0  0  0  2  0  0  0  0  0  0
  161.3330  206.2780  142.1990 O   0  0  0  0  0  0  0  0  0  0  0  0
  162.1730  206.3510  141.0600 C   0  0  0  0  0  2  0  0  0  0  0  0
  161.9660  207.6590  140.3850 C   0  0  0  0  0  0  0  0  0  0  0  0
  162.8250  208.5700  140.5230 O   0  0  0  0  0  0  0  0  0  0  0  0
  160.8140  207.8630  139.6220 O   0  0  0  0  0  0  0  0  0  0  0  0
  162.3890  209.3380  137.8500 O   0  0  0  0  0  1  0  0  0  0  0  0
  160.8270  208.7600  138.1530 P   0  0  1  0  0  0  0  0  0  0  0  0
  160.4120  207.8540  137.0160 O   0  0  0  0  0  0  0  0  0  0  0  0
  158.0700  212.6730  139.5920 C   0  0  0  0  0  2  0  0  0  0  0  0
  159.6640  210.1610  138.2900 C   0  0  1  0  0  0  0  0  0  0  0  0
  160.0020  213.5710  138.1450 C   0  0  0  0  0  2  0  0  0  0  0  0
  160.3690  210.7790  140.5330 O   0  0  0  0  0  1  0  0  0  0  0  0
  160.2770  211.2360  139.2130 C   0  0  2  0  0  3  0  0  0  0  0  0
  157.2450  210.3960  138.9780 C   0  0  0  0  0  3  0  0  0  0  0  0
  160.3680  213.7520  139.6140 C   0  0  0  0  0  2  0  0  0  0  0  0
  157.1830  211.8630  138.6540 C   0  0  1  0  0  3  0  0  0  0  0  0
  159.5310  212.5710  139.1770 C   0  0  0  0  0  0  0  0  0  0  0  0
  159.4750  210.6920  137.0110 O   0  0  0  0  0  1  0  0  0  0  0  0
  158.3460  209.6450  138.8160 C   0  0  0  0  0  3  0  0  0  0  0  0
  155.7750  212.3570  138.7260 C   0  0  0  0  0  0  0  0  0  0  0  0
  155.1610  212.9660  137.5920 N   0  0  0  0  0  1  0  0  0  0  0  0
  155.1150  212.2130  139.7910 O   0  0  0  0  0  0  0  0  0  0  0  0
  161.2850  206.6680  146.5800 C   0  0  0  0  0  2  0  0  0  0  0  0
  160.8840  206.0340  147.8360 N   0  0  0  0  0  2  0  0  0  0  0  0
  161.1220  206.9380  148.9680 C   0  0  1  0  0  3  0  0  0  0  0  0
  161.3490  206.1800  150.2880 C   0  0  1  0  0  3  0  0  0  0  0  0
  160.9000  208.4290  151.2720 C   0  0  0  0  0  3  0  0  0  0  0  0
  160.8520  208.8240  153.6590 C   0  0  0  0  0  3  0  0  0  0  0  0
  161.3040  206.6000  152.8100 C   0  0  0  0  0  0  0  0  0  0  0  0
  161.1360  207.4760  153.8870 C   0  0  0  0  0  3  0  0  0  0  0  0
  160.7360  209.3010  152.3530 C   0  0  0  0  0  3  0  0  0  0  0  0
  161.1820  207.0760  151.4880 C   0  0  0  0  0  0  0  0  0  0  0  0
  161.5920  205.2630  153.0630 O   0  0  0  0  0  1  0  0  0  0  0  0
  160.4360  204.9570  150.3850 C   0  0  0  0  0  2  0  0  0  0  0  0
  161.1750  203.6840  149.9990 C   0  0  0  0  0  2  0  0  0  0  0  0
  160.4200  202.9560  149.0370 O   0  0  0  0  0  0  0  0  0  0  0  0
  160.2790  201.5680  149.1090 C   0  0  0  0  0  0  0  0  0  0  0  0
  161.3610  200.6960  148.5780 C   0  0  0  0  0  1  0  0  0  0  0  0
  159.2480  201.0470  149.6140 O   0  0  0  0  0  0  0  0  0  0  0  0
  162.2530  207.9280  148.6690 C   0  0  0  0  0  2  0  0  0  0  0  0
  161.7140  209.1900  148.0140 C   0  0  0  0  0  2  0  0  0  0  0  0
  161.9320  210.3930  148.9250 C   0  0  0  0  0  2  0  0  0  0  0  0
  162.9760  211.3280  148.3260 C   0  0  0  0  0  2  0  0  0  0  0  0
  160.3410  212.8750  147.7860 C   0  0  0  0  0  0  0  0  0  0  0  0
  159.0630  213.0330  147.7030 N   0  0  0  0  0  2  0  0  0  0  0  0
  161.3630  213.0750  148.8490 C   0  0  0  0  0  2  0  0  0  0  0  0
  162.3480  212.6520  147.9000 C   0  0  2  0  0  3  0  0  0  0  0  0
  161.3810  212.4260  146.8870 O   0  0  0  0  0  0  0  0  0  0  0  0
  1  5  1  0  0  0  0
  2  3  1  0  0  0  0
  3  5  1  0  0  0  0
  3 30  1  1  0  0  0
  4  1  1  0  0  0  0
  6  2  2  0  0  0  0
  7  2  1  0  0  0  0
  7  4  1  0  0  0  0
  8  6  1  0  0  0  0
  9  8  1  0  0  0  0
 10 11  2  0  0  0  0
 10  9  1  0  0  0  0
 12 10  1  0  0  0  0
 13 14  1  0  0  0  0
 14 15  2  6  0  0  0
 14 17  1  0  0  0  0
 14 12  1  0  0  0  0
 17 25  1  6  0  0  0
 17 26  1  0  0  0  0
 17 20  1  0  0  0  0
 18 24  1  0  0  0  0
 18 22  1  0  0  0  0
 20 19  1  1  0  0  0
 23 27  1  1  0  0  0
 23 21  1  0  0  0  0
 23 16  1  0  0  0  0
 24 20  1  0  0  0  0
 24 16  1  0  0  0  0
 24 22  1  0  0  0  0
 26 21  2  0  0  0  0
 27 29  2  0  0  0  0
 28 27  1  0  0  0  0
 30 31  1  0  0  0  0
 31 32  1  0  0  0  0
 32 47  1  6  0  0  0
 32 33  1  0  0  0  0
 33 41  1  1  0  0  0
 33 39  1  0  0  0  0
 34 39  2  0  0  0  0
 34 38  1  0  0  0  0
 35 37  1  0  0  0  0
 36 40  1  0  0  0  0
 36 37  2  0  0  0  0
 38 35  2  0  0  0  0
 39 36  1  0  0  0  0
 42 41  1  0  0  0  0
 43 44  1  0  0  0  0
 43 42  1  0  0  0  0
 44 46  2  0  0  0  0
 45 44  1  0  0  0  0
 48 47  1  0  0  0  0
 48 49  1  0  0  0  0
 50 49  1  0  0  0  0
 51 53  1  0  0  0  0
 52 51  2  0  0  0  0
 54 50  1  1  0  0  0
 54 53  1  0  0  0  0
 55 51  1  0  0  0  0
 55 54  1  0  0  0  0
M  END
>  <MODEL>
1

>  <REMARK>
 VINA RESULT:      -6.1      0.000      0.000
  Name = 
  21 active torsions:
  status: ('A' for Active; 'I' for Inactive)
    1  A    between atoms: C_1  and  C_29
    2  A    between atoms: C_2  and  N_28
    3  A    between atoms: C_2  and  C_31
    4  A    between atoms: C_4  and  O_40
    5  A    between atoms: C_6  and  P_20
    6  A    between atoms: C_8  and  O_22
    7  A    between atoms: C_8  and  C_35
    8  A    between atoms: C_13  and  C_48
    9  A    between atoms: C_13  and  C_52
   10  A    between atoms: C_19  and  O_40
   11  A    between atoms: C_19  and  C_45
   12  A    between atoms: P_20  and  O_22
   13  A    between atoms: C_26  and  C_49
   14  A    between atoms: N_28  and  C_33
   15  A    between atoms: C_33  and  C_34
   16  A    between atoms: C_33  and  C_49
   17  A    between atoms: C_34  and  C_52
   18  A    between atoms: C_35  and  O_51
   19  A    between atoms: C_39  and  C_48
   20  A    between atoms: C_45  and  C_49
   21  A    between atoms: O_51  and  N_54
                            x       y       z     vdW  Elec       q    Type
                         _______ _______ _______ _____ _____    ______ ____

>  <TORSDO>
F 21

$$$$
=
 OpenBabel11062408593D

 55 59  0  0  1  0  0  0  0  0999 V2000
  161.9110  203.1700  146.2030 C   0  0  0  0  0  2  0  0  0  0  0  0
  161.6580  205.4630  144.5380 C   0  0  0  0  0  0  0  0  0  0  0  0
  162.3560  205.7140  145.8470 C   0  0  2  0  0  3  0  0  0  0  0  0
  160.5290  203.5280  145.6780 C   0  0  0  0  0  2  0  0  0  0  0  0
  162.6780  204.4320  146.6430 C   0  0  0  0  0  2  0  0  0  0  0  0
  161.8780  206.2730  143.5510 N   0  0  0  0  0  0  0  0  0  0  0  0
  160.6790  204.3260  144.3860 C   0  0  0  0  0  2  0  0  0  0  0  0
  161.2540  206.1110  142.3370 O   0  0  0  0  0  0  0  0  0  0  0  0
  162.0170  206.0050  141.1480 C   0  0  0  0  0  2  0  0  0  0  0  0
  162.3290  207.3690  140.6450 C   0  0  0  0  0  0  0  0  0  0  0  0
  163.4980  207.8230  140.7720 O   0  0  0  0  0  0  0  0  0  0  0  0
  161.3190  208.1320  140.0570 O   0  0  0  0  0  0  0  0  0  0  0  0
  162.9030  210.4070  139.7270 O   0  0  0  0  0  1  0  0  0  0  0  0
  161.6530  209.4870  139.0510 P   0  0  1  0  0  0  0  0  0  0  0  0
  162.0900  208.9960  137.6880 O   0  0  0  0  0  0  0  0  0  0  0  0
  157.6650  212.4170  139.7500 C   0  0  0  0  0  2  0  0  0  0  0  0
  160.1480  210.5090  138.8910 C   0  0  1  0  0  0  0  0  0  0  0  0
  159.5500  213.8840  138.7890 C   0  0  0  0  0  2  0  0  0  0  0  0
  160.1190  211.1730  141.2300 O   0  0  0  0  0  1  0  0  0  0  0  0
  160.2090  211.6580  139.9200 C   0  0  2  0  0  3  0  0  0  0  0  0
  157.6680  210.0380  138.9860 C   0  0  0  0  0  3  0  0  0  0  0  0
  159.5040  214.0790  140.3010 C   0  0  0  0  0  2  0  0  0  0  0  0
  157.2780  211.4480  138.6390 C   0  0  1  0  0  3  0  0  0  0  0  0
  159.1520  212.7390  139.6930 C   0  0  0  0  0  0  0  0  0  0  0  0
  160.1180  211.0360  137.5980 O   0  0  0  0  0  1  0  0  0  0  0  0
  158.9400  209.6260  139.0980 C   0  0  0  0  0  3  0  0  0  0  0  0
  155.8110  211.5360  138.3710 C   0  0  0  0  0  0  0  0  0  0  0  0
  155.1610  210.5580  137.5610 N   0  0  0  0  0  1  0  0  0  0  0  0
  155.1360  212.4690  138.8840 O   0  0  0  0  0  0  0  0  0  0  0  0
  161.5250  206.6660  146.6920 C   0  0  0  0  0  2  0  0  0  0  0  0
  161.9580  206.6070  148.0880 N   0  0  0  0  0  2  0  0  0  0  0  0
  161.4650  207.7730  148.8300 C   0  0  1  0  0  3  0  0  0  0  0  0
  161.3150  207.4920  150.3360 C   0  0  1  0  0  3  0  0  0  0  0  0
  160.7550  205.1810  149.5780 C   0  0  0  0  0  3  0  0  0  0  0  0
  160.8430  203.2650  151.0530 C   0  0  0  0  0  3  0  0  0  0  0  0
  161.4020  205.4680  151.8960 C   0  0  0  0  0  0  0  0  0  0  0  0
  161.2450  204.0930  152.1030 C   0  0  0  0  0  3  0  0  0  0  0  0
  160.5960  203.8080  149.7920 C   0  0  0  0  0  3  0  0  0  0  0  0
  161.1590  206.0200  150.6210 C   0  0  0  0  0  0  0  0  0  0  0  0
  161.7970  206.2730  152.9590 O   0  0  0  0  0  1  0  0  0  0  0  0
  162.4840  208.0830  151.1250 C   0  0  0  0  0  2  0  0  0  0  0  0
  162.1020  209.4100  151.7660 C   0  0  0  0  0  2  0  0  0  0  0  0
  160.7770  209.3380  152.2790 O   0  0  0  0  0  0  0  0  0  0  0  0
  160.1270  210.4600  152.8000 C   0  0  0  0  0  0  0  0  0  0  0  0
  160.1930  211.7500  152.0620 C   0  0  0  0  0  1  0  0  0  0  0  0
  159.4910  210.3940  153.8870 O   0  0  0  0  0  0  0  0  0  0  0  0
  162.3190  209.0160  148.5580 C   0  0  0  0  0  2  0  0  0  0  0  0
  161.4620  210.2720  148.5300 C   0  0  0  0  0  2  0  0  0  0  0  0
  162.3390  211.5060  148.3560 C   0  0  0  0  0  2  0  0  0  0  0  0
  161.5100  212.6740  147.8360 C   0  0  0  0  0  2  0  0  0  0  0  0
  159.1920  213.5030  145.9470 C   0  0  0  0  0  0  0  0  0  0  0  0
  158.3760  214.3210  145.3710 N   0  0  0  0  0  2  0  0  0  0  0  0
  160.5330  212.9460  145.6220 C   0  0  0  0  0  2  0  0  0  0  0  0
  160.4540  212.2000  146.8420 C   0  0  2  0  0  3  0  0  0  0  0  0
  159.1890  212.7470  147.1800 O   0  0  0  0  0  0  0  0  0  0  0  0
  1  5  1  0  0  0  0
  2  3  1  0  0  0  0
  3  5  1  0  0  0  0
  3 30  1  1  0  0  0
  4  1  1  0  0  0  0
  6  2  2  0  0  0  0
  7  2  1  0  0  0  0
  7  4  1  0  0  0  0
  8  6  1  0  0  0  0
  9  8  1  0  0  0  0
 10 11  2  0  0  0  0
 10  9  1  0  0  0  0
 12 10  1  0  0  0  0
 14 15  2  6  0  0  0
 14 13  1  0  0  0  0
 14 12  1  0  0  0  0
 17 25  1  6  0  0  0
 17 14  1  0  0  0  0
 17 26  1  0  0  0  0
 17 20  1  0  0  0  0
 18 24  1  0  0  0  0
 18 22  1  0  0  0  0
 20 19  1  1  0  0  0
 21 26  2  0  0  0  0
 23 27  1  1  0  0  0
 23 21  1  0  0  0  0
 23 16  1  0  0  0  0
 24 16  1  0  0  0  0
 24 20  1  0  0  0  0
 24 22  1  0  0  0  0
 27 29  2  0  0  0  0
 28 27  1  0  0  0  0
 30 31  1  0  0  0  0
 31 32  1  0  0  0  0
 32 47  1  1  0  0  0
 32 33  1  0  0  0  0
 33 39  1  0  0  0  0
 33 41  1  1  0  0  0
 34 38  2  0  0  0  0
 34 39  1  0  0  0  0
 35 37  2  0  0  0  0
 36 37  1  0  0  0  0
 36 40  1  0  0  0  0
 38 35  1  0  0  0  0
 39 36  2  0  0  0  0
 41 42  1  0  0  0  0
 42 43  1  0  0  0  0
 43 44  1  0  0  0  0
 44 46  2  0  0  0  0
 45 44  1  0  0  0  0
 48 47  1  0  0  0  0
 49 48  1  0  0  0  0
 50 49  1  0  0  0  0
 51 55  1  0  0  0  0
 52 51  2  0  0  0  0
 53 51  1  0  0  0  0
 53 54  1  0  0  0  0
 54 55  1  0  0  0  0
 54 50  1  1  0  0  0
M  END
>  <MODEL>
2

>  <REMARK>
 VINA RESULT:      -6.0      1.688      3.355
  Name = 
  21 active torsions:
  status: ('A' for Active; 'I' for Inactive)
    1  A    between atoms: C_1  and  C_29
    2  A    between atoms: C_2  and  N_28
    3  A    between atoms: C_2  and  C_31
    4  A    between atoms: C_4  and  O_40
    5  A    between atoms: C_6  and  P_20
    6  A    between atoms: C_8  and  O_22
    7  A    between atoms: C_8  and  C_35
    8  A    between atoms: C_13  and  C_48
    9  A    between atoms: C_13  and  C_52
   10  A    between atoms: C_19  and  O_40
   11  A    between atoms: C_19  and  C_45
   12  A    between atoms: P_20  and  O_22
   13  A    between atoms: C_26  and  C_49
   14  A    between atoms: N_28  and  C_33
   15  A    between atoms: C_33  and  C_34
   16  A    between atoms: C_33  and  C_49
   17  A    between atoms: C_34  and  C_52
   18  A    between atoms: C_35  and  O_51
   19  A    between atoms: C_39  and  C_48
   20  A    between atoms: C_45  and  C_49
   21  A    between atoms: O_51  and  N_54
                            x       y       z     vdW  Elec       q    Type
                         _______ _______ _______ _____ _____    ______ ____

>  <TORSDO>
F 21

$$$$
=
 OpenBabel11062408593D

 55 59  0  0  1  0  0  0  0  0999 V2000
  160.5410  201.2890  150.4580 C   0  0  0  0  0  2  0  0  0  0  0  0
  161.0070  203.9410  151.3790 C   0  0  0  0  0  0  0  0  0  0  0  0
  160.5100  203.8480  149.9620 C   0  0  2  0  0  3  0  0  0  0  0  0
  161.8990  201.6110  151.0640 C   0  0  0  0  0  2  0  0  0  0  0  0
  160.0580  202.4320  149.5450 C   0  0  0  0  0  2  0  0  0  0  0  0
  160.8240  205.0450  152.0310 N   0  0  0  0  0  0  0  0  0  0  0  0
  161.7510  202.7930  152.0170 C   0  0  0  0  0  2  0  0  0  0  0  0
  161.2750  205.2000  153.3200 O   0  0  0  0  0  0  0  0  0  0  0  0
  160.7970  206.2660  154.1220 C   0  0  0  0  0  2  0  0  0  0  0  0
  161.0750  207.5550  153.4360 C   0  0  0  0  0  0  0  0  0  0  0  0
  160.9100  207.6410  152.1890 O   0  0  0  0  0  0  0  0  0  0  0  0
  161.5310  208.6450  154.1800 O   0  0  0  0  0  0  0  0  0  0  0  0
  159.2870  208.4120  155.8250 O   0  0  0  0  0  0  0  0  0  0  0  0
  160.5530  209.4340  155.3550 P   0  0  1  0  0  0  0  0  0  0  0  0
  161.3980  209.7550  156.5680 O   0  0  0  0  0  1  0  0  0  0  0  0
  157.7310  213.3050  153.9300 C   0  0  0  0  0  2  0  0  0  0  0  0
  159.8740  210.9730  154.6430 C   0  0  1  0  0  0  0  0  0  0  0  0
  159.1910  214.0890  155.9010 C   0  0  0  0  0  2  0  0  0  0  0  0
  157.6930  210.7220  155.6860 O   0  0  0  0  0  1  0  0  0  0  0  0
  158.8180  211.5500  155.6090 C   0  0  2  0  0  3  0  0  0  0  0  0
  158.7670  211.5760  152.4550 C   0  0  0  0  0  3  0  0  0  0  0  0
  157.8040  213.7410  156.4310 C   0  0  0  0  0  2  0  0  0  0  0  0
  158.6890  213.0430  152.7740 C   0  0  1  0  0  3  0  0  0  0  0  0
  158.3890  212.9770  155.2630 C   0  0  0  0  0  0  0  0  0  0  0  0
  160.9260  211.8820  154.4980 O   0  0  0  0  0  1  0  0  0  0  0  0
  159.2920  210.6610  153.2850 C   0  0  0  0  0  3  0  0  0  0  0  0
  158.2650  213.8200  151.5720 C   0  0  0  0  0  0  0  0  0  0  0  0
  156.8950  214.1610  151.3730 N   0  0  0  0  0  1  0  0  0  0  0  0
  159.1300  214.2010  150.7360 O   0  0  0  0  0  0  0  0  0  0  0  0
  161.5810  204.3610  149.0130 C   0  0  0  0  0  2  0  0  0  0  0  0
  160.9720  204.8010  147.7580 N   0  0  0  0  0  2  0  0  0  0  0  0
  161.9890  205.3580  146.8580 C   0  0  1  0  0  3  0  0  0  0  0  0
  161.9510  204.7180  145.4590 C   0  0  1  0  0  3  0  0  0  0  0  0
  161.7620  202.3500  146.2250 C   0  0  0  0  0  3  0  0  0  0  0  0
  159.9540  200.8960  145.5380 C   0  0  0  0  0  3  0  0  0  0  0  0
  160.0430  203.1790  144.7300 C   0  0  0  0  0  0  0  0  0  0  0  0
  159.4120  201.9310  144.7740 C   0  0  0  0  0  3  0  0  0  0  0  0
  161.1290  201.1030  146.2610 C   0  0  0  0  0  3  0  0  0  0  0  0
  161.2280  203.3950  145.4640 C   0  0  0  0  0  0  0  0  0  0  0  0
  159.4880  204.1920  143.9570 O   0  0  0  0  0  1  0  0  0  0  0  0
  161.3390  205.6740  144.4340 C   0  0  0  0  0  2  0  0  0  0  0  0
  162.0730  205.5980  143.1030 C   0  0  0  0  0  2  0  0  0  0  0  0
  161.5430  206.5620  142.2000 O   0  0  0  0  0  0  0  0  0  0  0  0
  162.0510  206.7180  140.9080 C   0  0  0  0  0  0  0  0  0  0  0  0
  161.5070  207.7940  140.0360 C   0  0  0  0  0  1  0  0  0  0  0  0
  162.9590  205.9600  140.4720 O   0  0  0  0  0  0  0  0  0  0  0  0
  161.9080  206.8860  146.7960 C   0  0  0  0  0  2  0  0  0  0  0  0
  162.0530  207.4980  148.1810 C   0  0  0  0  0  2  0  0  0  0  0  0
  162.5080  208.9480  148.0740 C   0  0  0  0  0  2  0  0  0  0  0  0
  161.6560  209.8370  148.9720 C   0  0  0  0  0  2  0  0  0  0  0  0
  162.1400  212.5710  147.5860 C   0  0  0  0  0  0  0  0  0  0  0  0
  162.0760  213.4350  146.6300 N   0  0  0  0  0  2  0  0  0  0  0  0
  161.2960  212.2360  148.7650 C   0  0  0  0  0  2  0  0  0  0  0  0
  162.2610  211.2320  149.0980 C   0  0  2  0  0  3  0  0  0  0  0  0
  163.0600  211.5190  147.9610 O   0  0  0  0  0  0  0  0  0  0  0  0
  1  4  1  0  0  0  0
  2  7  1  0  0  0  0
  2  6  2  0  0  0  0
  3 30  1  6  0  0  0
  3  2  1  0  0  0  0
  4  7  1  0  0  0  0
  5  3  1  0  0  0  0
  5  1  1  0  0  0  0
  6  8  1  0  0  0  0
  8  9  1  0  0  0  0
 10  9  1  0  0  0  0
 10 12  1  0  0  0  0
 11 10  2  0  0  0  0
 12 14  1  0  0  0  0
 14 13  2  1  0  0  0
 14 15  1  0  0  0  0
 16 24  1  0  0  0  0
 17 25  1  6  0  0  0
 17 14  1  0  0  0  0
 17 20  1  0  0  0  0
 18 22  1  0  0  0  0
 20 19  1  6  0  0  0
 21 23  1  0  0  0  0
 21 26  2  0  0  0  0
 23 27  1  6  0  0  0
 23 16  1  0  0  0  0
 24 20  1  0  0  0  0
 24 18  1  0  0  0  0
 24 22  1  0  0  0  0
 26 17  1  0  0  0  0
 28 27  1  0  0  0  0
 29 27  2  0  0  0  0
 31 30  1  0  0  0  0
 32 47  1  6  0  0  0
 32 31  1  0  0  0  0
 33 41  1  6  0  0  0
 33 39  1  0  0  0  0
 33 32  1  0  0  0  0
 34 38  1  0  0  0  0
 35 38  2  0  0  0  0
 36 37  2  0  0  0  0
 36 39  1  0  0  0  0
 37 35  1  0  0  0  0
 39 34  2  0  0  0  0
 40 36  1  0  0  0  0
 42 41  1  0  0  0  0
 43 42  1  0  0  0  0
 44 43  1  0  0  0  0
 45 44  1  0  0  0  0
 46 44  2  0  0  0  0
 47 48  1  0  0  0  0
 49 48  1  0  0  0  0
 49 50  1  0  0  0  0
 51 55  1  0  0  0  0
 51 53  1  0  0  0  0
 52 51  2  0  0  0  0
 53 54  1  0  0  0  0
 54 50  1  6  0  0  0
 55 54  1  0  0  0  0
M  END
>  <MODEL>
3

>  <REMARK>
 VINA RESULT:      -4.8      4.412     10.963
  Name = 
  21 active torsions:
  status: ('A' for Active; 'I' for Inactive)
    1  A    between atoms: C_1  and  C_29
    2  A    between atoms: C_2  and  N_28
    3  A    between atoms: C_2  and  C_31
    4  A    between atoms: C_4  and  O_40
    5  A    between atoms: C_6  and  P_20
    6  A    between atoms: C_8  and  O_22
    7  A    between atoms: C_8  and  C_35
    8  A    between atoms: C_13  and  C_48
    9  A    between atoms: C_13  and  C_52
   10  A    between atoms: C_19  and  O_40
   11  A    between atoms: C_19  and  C_45
   12  A    between atoms: P_20  and  O_22
   13  A    between atoms: C_26  and  C_49
   14  A    between atoms: N_28  and  C_33
   15  A    between atoms: C_33  and  C_34
   16  A    between atoms: C_33  and  C_49
   17  A    between atoms: C_34  and  C_52
   18  A    between atoms: C_35  and  O_51
   19  A    between atoms: C_39  and  C_48
   20  A    between atoms: C_45  and  C_49
   21  A    between atoms: O_51  and  N_54
                            x       y       z     vdW  Elec       q    Type
                         _______ _______ _______ _____ _____    ______ ____

>  <TORSDO>
F 21

$$$$
=
 OpenBabel11062408593D

 55 59  0  0  1  0  0  0  0  0999 V2000
  160.6770  202.0480  150.5080 C   0  0  0  0  0  2  0  0  0  0  0  0
  160.9420  204.6690  151.5820 C   0  0  0  0  0  0  0  0  0  0  0  0
  160.3720  204.6160  150.1900 C   0  0  2  0  0  3  0  0  0  0  0  0
  162.0320  202.4640  151.0610 C   0  0  0  0  0  2  0  0  0  0  0  0
  160.0340  203.1920  149.7030 C   0  0  0  0  0  2  0  0  0  0  0  0
  160.6940  205.7070  152.3160 N   0  0  0  0  0  0  0  0  0  0  0  0
  161.8290  203.5630  152.1000 C   0  0  0  0  0  2  0  0  0  0  0  0
  161.2050  205.8240  153.5870 O   0  0  0  0  0  0  0  0  0  0  0  0
  160.7830  206.8810  154.4320 C   0  0  0  0  0  2  0  0  0  0  0  0
  160.7980  208.1540  153.6660 C   0  0  0  0  0  0  0  0  0  0  0  0
  160.6470  208.1260  152.4140 O   0  0  0  0  0  0  0  0  0  0  0  0
  160.9970  209.3600  154.3410 O   0  0  0  0  0  0  0  0  0  0  0  0
  159.3240  208.4260  156.3710 O   0  0  0  0  0  0  0  0  0  0  0  0
  160.0930  209.7950  155.7390 P   0  0  1  0  0  0  0  0  0  0  0  0
  161.0330  210.3540  156.7830 O   0  0  0  0  0  1  0  0  0  0  0  0
  157.5630  213.9610  154.6300 C   0  0  0  0  0  2  0  0  0  0  0  0
  158.8460  211.0510  155.2870 C   0  0  1  0  0  0  0  0  0  0  0  0
  158.1270  212.7790  152.4130 C   0  0  0  0  0  2  0  0  0  0  0  0
  160.4240  212.9010  155.3010 O   0  0  0  0  0  1  0  0  0  0  0  0
  159.5370  212.1810  154.4930 C   0  0  2  0  0  3  0  0  0  0  0  0
  157.1870  212.4470  156.5820 C   0  0  0  0  0  3  0  0  0  0  0  0
  159.1440  213.8920  152.6440 C   0  0  0  0  0  2  0  0  0  0  0  0
  156.5730  213.0540  155.3510 C   0  0  1  0  0  3  0  0  0  0  0  0
  158.5560  213.1410  153.8170 C   0  0  0  0  0  0  0  0  0  0  0  0
  157.8820  210.4350  154.4860 O   0  0  0  0  0  1  0  0  0  0  0  0
  158.1940  211.5610  156.5500 C   0  0  0  0  0  3  0  0  0  0  0  0
  155.3390  213.8190  155.7020 C   0  0  0  0  0  0  0  0  0  0  0  0
  155.0050  214.0710  157.0650 N   0  0  0  0  0  1  0  0  0  0  0  0
  154.5990  214.2680  154.7840 O   0  0  0  0  0  0  0  0  0  0  0  0
  161.3310  205.2920  149.2230 C   0  0  0  0  0  2  0  0  0  0  0  0
  160.8480  205.1430  147.8510 N   0  0  0  0  0  2  0  0  0  0  0  0
  161.8060  205.7210  146.9010 C   0  0  1  0  0  3  0  0  0  0  0  0
  161.7430  205.0490  145.5180 C   0  0  1  0  0  3  0  0  0  0  0  0
  160.1750  203.2780  144.7230 C   0  0  0  0  0  3  0  0  0  0  0  0
  160.1290  201.0520  145.6720 C   0  0  0  0  0  3  0  0  0  0  0  0
  161.6900  202.6980  146.5240 C   0  0  0  0  0  0  0  0  0  0  0  0
  161.1520  201.4070  146.5530 C   0  0  0  0  0  3  0  0  0  0  0  0
  159.6380  201.9870  144.7600 C   0  0  0  0  0  3  0  0  0  0  0  0
  161.2010  203.6440  145.5990 C   0  0  0  0  0  0  0  0  0  0  0  0
  162.7050  203.0300  147.4150 O   0  0  0  0  0  1  0  0  0  0  0  0
  160.9340  205.8930  144.5330 C   0  0  0  0  0  2  0  0  0  0  0  0
  161.2920  205.5540  143.0920 C   0  0  0  0  0  2  0  0  0  0  0  0
  161.8430  206.6970  142.4470 O   0  0  0  0  0  0  0  0  0  0  0  0
  162.0720  206.7250  141.0700 C   0  0  0  0  0  0  0  0  0  0  0  0
  161.4460  207.7940  140.2470 C   0  0  0  0  0  1  0  0  0  0  0  0
  162.7990  205.8560  140.5150 O   0  0  0  0  0  0  0  0  0  0  0  0
  161.6580  207.2430  146.8090 C   0  0  0  0  0  2  0  0  0  0  0  0
  162.5580  207.9410  147.8180 C   0  0  0  0  0  2  0  0  0  0  0  0
  161.7200  208.7220  148.8230 C   0  0  0  0  0  2  0  0  0  0  0  0
  162.3320  210.0960  149.0670 C   0  0  0  0  0  2  0  0  0  0  0  0
  162.0990  213.1210  148.4180 C   0  0  0  0  0  0  0  0  0  0  0  0
  162.4800  214.3540  148.3930 N   0  0  0  0  0  2  0  0  0  0  0  0
  162.2280  211.9570  147.5000 C   0  0  0  0  0  2  0  0  0  0  0  0
  161.4740  211.1980  148.4520 C   0  0  2  0  0  3  0  0  0  0  0  0
  161.3700  212.2900  149.3510 O   0  0  0  0  0  0  0  0  0  0  0  0
  1  4  1  0  0  0  0
  2  7  1  0  0  0  0
  2  6  2  0  0  0  0
  3 30  1  6  0  0  0
  3  2  1  0  0  0  0
  4  7  1  0  0  0  0
  5  3  1  0  0  0  0
  5  1  1  0  0  0  0
  6  8  1  0  0  0  0
  8  9  1  0  0  0  0
 10 12  1  0  0  0  0
 10  9  1  0  0  0  0
 11 10  2  0  0  0  0
 12 14  1  0  0  0  0
 14 13  2  1  0  0  0
 14 15  1  0  0  0  0
 16 23  1  0  0  0  0
 17 25  1  6  0  0  0
 17 14  1  0  0  0  0
 17 26  1  0  0  0  0
 18 22  1  0  0  0  0
 18 24  1  0  0  0  0
 20 17  1  0  0  0  0
 20 19  1  1  0  0  0
 22 24  1  0  0  0  0
 23 27  1  1  0  0  0
 23 21  1  0  0  0  0
 24 20  1  0  0  0  0
 24 16  1  0  0  0  0
 26 21  2  0  0  0  0
 27 28  1  0  0  0  0
 29 27  2  0  0  0  0
 31 30  1  0  0  0  0
 32 47  1  6  0  0  0
 32 31  1  0  0  0  0
 33 41  1  6  0  0  0
 33 39  1  0  0  0  0
 33 32  1  0  0  0  0
 34 38  2  0  0  0  0
 34 39  1  0  0  0  0
 35 37  2  0  0  0  0
 36 37  1  0  0  0  0
 36 40  1  0  0  0  0
 38 35  1  0  0  0  0
 39 36  2  0  0  0  0
 42 41  1  0  0  0  0
 43 42  1  0  0  0  0
 44 43  1  0  0  0  0
 45 44  1  0  0  0  0
 46 44  2  0  0  0  0
 47 48  1  0  0  0  0
 48 49  1  0  0  0  0
 49 50  1  0  0  0  0
 51 55  1  0  0  0  0
 52 51  2  0  0  0  0
 53 51  1  0  0  0  0
 53 54  1  0  0  0  0
 54 50  1  1  0  0  0
 54 55  1  0  0  0  0
M  END
>  <MODEL>
4

>  <REMARK>
 VINA RESULT:      -3.7      4.499     11.285
  Name = 
  21 active torsions:
  status: ('A' for Active; 'I' for Inactive)
    1  A    between atoms: C_1  and  C_29
    2  A    between atoms: C_2  and  N_28
    3  A    between atoms: C_2  and  C_31
    4  A    between atoms: C_4  and  O_40
    5  A    between atoms: C_6  and  P_20
    6  A    between atoms: C_8  and  O_22
    7  A    between atoms: C_8  and  C_35
    8  A    between atoms: C_13  and  C_48
    9  A    between atoms: C_13  and  C_52
   10  A    between atoms: C_19  and  O_40
   11  A    between atoms: C_19  and  C_45
   12  A    between atoms: P_20  and  O_22
   13  A    between atoms: C_26  and  C_49
   14  A    between atoms: N_28  and  C_33
   15  A    between atoms: C_33  and  C_34
   16  A    between atoms: C_33  and  C_49
   17  A    between atoms: C_34  and  C_52
   18  A    between atoms: C_35  and  O_51
   19  A    between atoms: C_39  and  C_48
   20  A    between atoms: C_45  and  C_49
   21  A    between atoms: O_51  and  N_54
                            x       y       z     vdW  Elec       q    Type
                         _______ _______ _______ _____ _____    ______ ____

>  <TORSDO>
F 21

$$$$
=
 OpenBabel11062408593D

 55 59  0  0  1  0  0  0  0  0999 V2000
  161.4580  210.1650  156.2030 C   0  0  0  0  0  2  0  0  0  0  0  0
  160.9170  209.8610  153.4260 C   0  0  0  0  0  0  0  0  0  0  0  0
  161.1940  211.2760  153.8600 C   0  0  2  0  0  3  0  0  0  0  0  0
  160.1880  209.4340  155.7940 C   0  0  0  0  0  2  0  0  0  0  0  0
  161.6940  211.4000  155.3140 C   0  0  0  0  0  2  0  0  0  0  0  0
  161.1030  209.5450  152.1840 N   0  0  0  0  0  0  0  0  0  0  0  0
  160.3810  208.8420  154.4010 C   0  0  0  0  0  2  0  0  0  0  0  0
  160.8460  208.2760  151.7210 O   0  0  0  0  0  0  0  0  0  0  0  0
  161.9140  207.3920  151.4280 C   0  0  0  0  0  2  0  0  0  0  0  0
  161.5600  206.0260  151.8970 C   0  0  0  0  0  0  0  0  0  0  0  0
  160.7390  205.8900  152.8440 O   0  0  0  0  0  0  0  0  0  0  0  0
  162.1550  204.9170  151.2930 O   0  0  0  0  0  0  0  0  0  0  0  0
  162.0390  202.2290  152.0380 O   0  0  0  0  0  1  0  0  0  0  0  0
  161.3230  203.4260  151.0790 P   0  0  1  0  0  0  0  0  0  0  0  0
  159.8820  203.5980  151.5060 O   0  0  0  0  0  0  0  0  0  0  0  0
  160.9160  203.0520  146.1120 C   0  0  0  0  0  2  0  0  0  0  0  0
  161.3970  202.9380  149.3210 C   0  0  1  0  0  0  0  0  0  0  0  0
  163.2690  203.9580  146.6350 C   0  0  0  0  0  2  0  0  0  0  0  0
  160.2470  204.9240  148.5210 O   0  0  0  0  0  1  0  0  0  0  0  0
  161.4470  204.2100  148.4480 C   0  0  2  0  0  3  0  0  0  0  0  0
  159.9670  201.4950  147.8200 C   0  0  0  0  0  3  0  0  0  0  0  0
  162.3690  205.1290  146.2550 C   0  0  0  0  0  2  0  0  0  0  0  0
  160.8890  201.6220  146.6390 C   0  0  1  0  0  3  0  0  0  0  0  0
  161.7980  203.9340  146.9850 C   0  0  0  0  0  0  0  0  0  0  0  0
  162.5620  202.1890  149.1290 O   0  0  0  0  0  1  0  0  0  0  0  0
  160.1950  202.0800  149.0060 C   0  0  0  0  0  3  0  0  0  0  0  0
  160.4810  200.6830  145.5510 C   0  0  0  0  0  0  0  0  0  0  0  0
  159.5810  201.1040  144.5280 N   0  0  0  0  0  1  0  0  0  0  0  0
  160.9560  199.5150  145.5230 O   0  0  0  0  0  0  0  0  0  0  0  0
  159.9490  212.1230  153.6550 C   0  0  0  0  0  2  0  0  0  0  0  0
  159.5490  212.0950  152.2480 N   0  0  0  0  0  2  0  0  0  0  0  0
  159.7580  213.4080  151.6260 C   0  0  1  0  0  3  0  0  0  0  0  0
  159.8730  213.3210  150.0940 C   0  0  1  0  0  3  0  0  0  0  0  0
  157.3900  213.5480  150.1850 C   0  0  0  0  0  3  0  0  0  0  0  0
  156.0550  214.0840  148.2390 C   0  0  0  0  0  3  0  0  0  0  0  0
  158.4610  213.8820  148.0370 C   0  0  0  0  0  0  0  0  0  0  0  0
  157.2120  214.1280  147.4590 C   0  0  0  0  0  3  0  0  0  0  0  0
  156.1430  213.7920  149.6000 C   0  0  0  0  0  3  0  0  0  0  0  0
  158.5550  213.5920  149.4140 C   0  0  0  0  0  0  0  0  0  0  0  0
  159.5990  213.9260  147.2380 O   0  0  0  0  0  1  0  0  0  0  0  0
  160.9630  214.2570  149.5710 C   0  0  0  0  0  2  0  0  0  0  0  0
  161.9950  213.4970  148.7480 C   0  0  0  0  0  2  0  0  0  0  0  0
  162.0300  212.1340  149.1530 O   0  0  0  0  0  0  0  0  0  0  0  0
  162.4290  211.1180  148.2810 C   0  0  0  0  0  0  0  0  0  0  0  0
  161.9620  209.7260  148.5200 C   0  0  0  0  0  1  0  0  0  0  0  0
  163.1820  211.3630  147.3000 O   0  0  0  0  0  0  0  0  0  0  0  0
  158.6930  214.4160  152.0690 C   0  0  0  0  0  2  0  0  0  0  0  0
  157.9590  213.9260  153.3070 C   0  0  0  0  0  2  0  0  0  0  0  0
  156.5010  214.3690  153.2670 C   0  0  0  0  0  2  0  0  0  0  0  0
  155.8380  214.1310  154.6180 C   0  0  0  0  0  2  0  0  0  0  0  0
  155.7210  211.5800  156.3810 C   0  0  0  0  0  0  0  0  0  0  0  0
  155.1540  210.5910  156.9860 N   0  0  0  0  0  2  0  0  0  0  0  0
  156.3400  211.7860  155.0440 C   0  0  0  0  0  2  0  0  0  0  0  0
  156.6320  213.1280  155.4510 C   0  0  2  0  0  3  0  0  0  0  0  0
  156.0170  212.9550  156.7180 O   0  0  0  0  0  0  0  0  0  0  0  0
  2  3  1  0  0  0  0
  2  7  1  0  0  0  0
  3 30  1  1  0  0  0
  3  5  1  0  0  0  0
  4  1  1  0  0  0  0
  5  1  1  0  0  0  0
  6  2  2  0  0  0  0
  7  4  1  0  0  0  0
  8  6  1  0  0  0  0
  9  8  1  0  0  0  0
  9 10  1  0  0  0  0
 10 11  2  0  0  0  0
 12 10  1  0  0  0  0
 14 12  1  0  0  0  0
 14 15  2  1  0  0  0
 14 13  1  0  0  0  0
 16 23  1  0  0  0  0
 16 24  1  0  0  0  0
 17 25  1  6  0  0  0
 17 14  1  0  0  0  0
 18 24  1  0  0  0  0
 20 19  1  6  0  0  0
 20 17  1  0  0  0  0
 21 26  2  0  0  0  0
 22 18  1  0  0  0  0
 22 24  1  0  0  0  0
 23 27  1  6  0  0  0
 23 21  1  0  0  0  0
 24 20  1  0  0  0  0
 26 17  1  0  0  0  0
 28 27  1  0  0  0  0
 29 27  2  0  0  0  0
 31 30  1  0  0  0  0
 32 47  1  6  0  0  0
 32 31  1  0  0  0  0
 33 41  1  6  0  0  0
 33 32  1  0  0  0  0
 35 38  2  0  0  0  0
 36 39  1  0  0  0  0
 37 36  2  0  0  0  0
 37 35  1  0  0  0  0
 38 34  1  0  0  0  0
 39 33  1  0  0  0  0
 39 34  2  0  0  0  0
 40 36  1  0  0  0  0
 42 43  1  0  0  0  0
 42 41  1  0  0  0  0
 44 45  1  0  0  0  0
 44 43  1  0  0  0  0
 46 44  2  0  0  0  0
 47 48  1  0  0  0  0
 49 48  1  0  0  0  0
 49 50  1  0  0  0  0
 51 55  1  0  0  0  0
 51 52  2  0  0  0  0
 53 54  1  0  0  0  0
 53 51  1  0  0  0  0
 54 50  1  6  0  0  0
 54 55  1  0  0  0  0
M  END
>  <MODEL>
5

>  <REMARK>
 VINA RESULT:      -3.2      6.193     10.997
  Name = 
  21 active torsions:
  status: ('A' for Active; 'I' for Inactive)
    1  A    between atoms: C_1  and  C_29
    2  A    between atoms: C_2  and  N_28
    3  A    between atoms: C_2  and  C_31
    4  A    between atoms: C_4  and  O_40
    5  A    between atoms: C_6  and  P_20
    6  A    between atoms: C_8  and  O_22
    7  A    between atoms: C_8  and  C_35
    8  A    between atoms: C_13  and  C_48
    9  A    between atoms: C_13  and  C_52
   10  A    between atoms: C_19  and  O_40
   11  A    between atoms: C_19  and  C_45
   12  A    between atoms: P_20  and  O_22
   13  A    between atoms: C_26  and  C_49
   14  A    between atoms: N_28  and  C_33
   15  A    between atoms: C_33  and  C_34
   16  A    between atoms: C_33  and  C_49
   17  A    between atoms: C_34  and  C_52
   18  A    between atoms: C_35  and  O_51
   19  A    between atoms: C_39  and  C_48
   20  A    between atoms: C_45  and  C_49
   21  A    between atoms: O_51  and  N_54
                            x       y       z     vdW  Elec       q    Type
                         _______ _______ _______ _____ _____    ______ ____

>  <TORSDO>
F 21

$$$$
=
 OpenBabel11062408593D

 55 59  0  0  1  0  0  0  0  0999 V2000
  162.2960  210.6490  149.8280 C   0  0  0  0  0  2  0  0  0  0  0  0
  161.1540  209.3220  152.0710 C   0  0  0  0  0  0  0  0  0  0  0  0
  160.3900  210.5310  151.6020 C   0  0  2  0  0  3  0  0  0  0  0  0
  163.1830  210.3850  151.0350 C   0  0  0  0  0  2  0  0  0  0  0  0
  160.8930  211.1130  150.2650 C   0  0  0  0  0  2  0  0  0  0  0  0
  160.5260  208.4160  152.7500 N   0  0  0  0  0  0  0  0  0  0  0  0
  162.6330  209.1880  151.8050 C   0  0  0  0  0  2  0  0  0  0  0  0
  161.1730  207.3000  153.2260 O   0  0  0  0  0  0  0  0  0  0  0  0
  160.6500  206.0080  152.9730 C   0  0  0  0  0  2  0  0  0  0  0  0
  161.5210  205.3120  151.9900 C   0  0  0  0  0  0  0  0  0  0  0  0
  161.6960  204.0680  152.0890 O   0  0  0  0  0  0  0  0  0  0  0  0
  162.1440  206.0510  150.9820 O   0  0  0  0  0  0  0  0  0  0  0  0
  159.7180  206.7560  149.7940 O   0  0  0  0  0  1  0  0  0  0  0  0
  161.3560  206.4430  149.5030 P   0  0  1  0  0  0  0  0  0  0  0  0
  161.9940  207.6820  148.9160 O   0  0  0  0  0  0  0  0  0  0  0  0
  160.9860  203.1740  145.7410 C   0  0  0  0  0  2  0  0  0  0  0  0
  161.5220  205.0460  148.3390 C   0  0  1  0  0  0  0  0  0  0  0  0
  163.0610  204.6350  145.3020 C   0  0  0  0  0  2  0  0  0  0  0  0
  159.9200  205.9350  146.7420 O   0  0  0  0  0  1  0  0  0  0  0  0
  161.2550  205.5510  146.9060 C   0  0  2  0  0  3  0  0  0  0  0  0
  160.4590  202.7630  148.1480 C   0  0  0  0  0  3  0  0  0  0  0  0
  161.9020  205.1720  144.4680 C   0  0  0  0  0  2  0  0  0  0  0  0
  161.3080  202.3460  146.9790 C   0  0  1  0  0  3  0  0  0  0  0  0
  161.6430  204.5450  145.8200 C   0  0  0  0  0  0  0  0  0  0  0  0
  162.8290  204.5590  148.4320 O   0  0  0  0  0  1  0  0  0  0  0  0
  160.5560  203.9590  148.7470 C   0  0  0  0  0  3  0  0  0  0  0  0
  161.1220  200.8940  146.6860 C   0  0  0  0  0  0  0  0  0  0  0  0
  160.4410  200.4720  145.5060 N   0  0  0  0  0  1  0  0  0  0  0  0
  161.5930  200.0310  147.4770 O   0  0  0  0  0  0  0  0  0  0  0  0
  160.4130  211.5980  152.6850 C   0  0  0  0  0  2  0  0  0  0  0  0
  159.1190  211.6510  153.3650 N   0  0  0  0  0  2  0  0  0  0  0  0
  158.5360  212.9940  153.2590 C   0  0  1  0  0  3  0  0  0  0  0  0
  158.6250  213.7800  154.5790 C   0  0  1  0  0  3  0  0  0  0  0  0
  157.2270  214.1690  156.6090 C   0  0  0  0  0  3  0  0  0  0  0  0
  154.8100  214.2580  156.5340 C   0  0  0  0  0  3  0  0  0  0  0  0
  156.0700  213.8690  154.5010 C   0  0  0  0  0  0  0  0  0  0  0  0
  154.8460  214.0290  155.1570 C   0  0  0  0  0  3  0  0  0  0  0  0
  155.9990  214.3260  157.2600 C   0  0  0  0  0  3  0  0  0  0  0  0
  157.2750  213.9420  155.2310 C   0  0  0  0  0  0  0  0  0  0  0  0
  156.0800  213.6360  153.1300 O   0  0  0  0  0  1  0  0  0  0  0  0
  159.6230  213.1310  155.5390 C   0  0  0  0  0  2  0  0  0  0  0  0
  159.0540  211.8560  156.1480 C   0  0  0  0  0  2  0  0  0  0  0  0
  160.0410  210.8320  156.1400 O   0  0  0  0  0  0  0  0  0  0  0  0
  161.3870  211.1040  156.3930 C   0  0  0  0  0  0  0  0  0  0  0  0
  162.4360  210.3760  155.6290 C   0  0  0  0  0  1  0  0  0  0  0  0
  161.7250  211.9550  157.2600 O   0  0  0  0  0  0  0  0  0  0  0  0
  159.1310  213.7750  152.0820 C   0  0  0  0  0  2  0  0  0  0  0  0
  158.2560  213.6480  150.8450 C   0  0  0  0  0  2  0  0  0  0  0  0
  158.8830  214.3950  149.6740 C   0  0  0  0  0  2  0  0  0  0  0  0
  159.0310  213.4690  148.4730 C   0  0  0  0  0  2  0  0  0  0  0  0
  161.8710  213.2710  147.2410 C   0  0  0  0  0  0  0  0  0  0  0  0
  163.0620  212.7960  147.0950 N   0  0  0  0  0  2  0  0  0  0  0  0
  160.5440  213.0020  146.6240 C   0  0  0  0  0  2  0  0  0  0  0  0
  160.0130  214.0400  147.4550 C   0  0  2  0  0  3  0  0  0  0  0  0
  161.2650  214.2860  148.0750 O   0  0  0  0  0  0  0  0  0  0  0  0
  1  5  1  0  0  0  0
  1  4  1  0  0  0  0
  2  6  2  0  0  0  0
  3  2  1  0  0  0  0
  3 30  1  1  0  0  0
  4  7  1  0  0  0  0
  5  3  1  0  0  0  0
  6  8  1  0  0  0  0
  7  2  1  0  0  0  0
  9  8  1  0  0  0  0
 10 11  2  0  0  0  0
 10  9  1  0  0  0  0
 12 10  1  0  0  0  0
 14 15  2  6  0  0  0
 14 13  1  0  0  0  0
 14 12  1  0  0  0  0
 16 24  1  0  0  0  0
 16 23  1  0  0  0  0
 17 25  1  1  0  0  0
 17 26  1  0  0  0  0
 17 14  1  0  0  0  0
 18 24  1  0  0  0  0
 20 19  1  1  0  0  0
 20 17  1  0  0  0  0
 21 26  2  0  0  0  0
 22 18  1  0  0  0  0
 22 24  1  0  0  0  0
 23 27  1  6  0  0  0
 23 21  1  0  0  0  0
 24 20  1  0  0  0  0
 27 29  2  0  0  0  0
 28 27  1  0  0  0  0
 30 31  1  0  0  0  0
 32 47  1  6  0  0  0
 32 31  1  0  0  0  0
 32 33  1  0  0  0  0
 33 39  1  0  0  0  0
 33 41  1  1  0  0  0
 34 38  1  0  0  0  0
 35 38  2  0  0  0  0
 36 37  2  0  0  0  0
 36 39  1  0  0  0  0
 37 35  1  0  0  0  0
 39 34  2  0  0  0  0
 40 36  1  0  0  0  0
 41 42  1  0  0  0  0
 43 42  1  0  0  0  0
 43 44  1  0  0  0  0
 44 46  2  0  0  0  0
 45 44  1  0  0  0  0
 48 47  1  0  0  0  0
 49 48  1  0  0  0  0
 50 49  1  0  0  0  0
 51 55  1  0  0  0  0
 52 51  2  0  0  0  0
 53 51  1  0  0  0  0
 53 54  1  0  0  0  0
 54 55  1  0  0  0  0
 54 50  1  1  0  0  0
M  END
>  <MODEL>
6

>  <REMARK>
 VINA RESULT:      -3.2      5.693     10.097
  Name = 
  21 active torsions:
  status: ('A' for Active; 'I' for Inactive)
    1  A    between atoms: C_1  and  C_29
    2  A    between atoms: C_2  and  N_28
    3  A    between atoms: C_2  and  C_31
    4  A    between atoms: C_4  and  O_40
    5  A    between atoms: C_6  and  P_20
    6  A    between atoms: C_8  and  O_22
    7  A    between atoms: C_8  and  C_35
    8  A    between atoms: C_13  and  C_48
    9  A    between atoms: C_13  and  C_52
   10  A    between atoms: C_19  and  O_40
   11  A    between atoms: C_19  and  C_45
   12  A    between atoms: P_20  and  O_22
   13  A    between atoms: C_26  and  C_49
   14  A    between atoms: N_28  and  C_33
   15  A    between atoms: C_33  and  C_34
   16  A    between atoms: C_33  and  C_49
   17  A    between atoms: C_34  and  C_52
   18  A    between atoms: C_35  and  O_51
   19  A    between atoms: C_39  and  C_48
   20  A    between atoms: C_45  and  C_49
   21  A    between atoms: O_51  and  N_54
                            x       y       z     vdW  Elec       q    Type
                         _______ _______ _______ _____ _____    ______ ____

>  <TORSDO>
F 21

$$$$
