=
 OpenBabel11052423103D

 27 30  0  0  0  0  0  0  0  0999 V2000
  160.3630  204.6460  148.4950 C   0  0  0  0  0  2  0  0  0  0  0  0
  161.3350  206.9040  149.1160 C   0  0  0  0  0  0  0  0  0  0  0  0
  161.0120  205.4750  151.0730 O   0  0  0  0  0  0  0  0  0  0  0  0
  161.7320  210.2800  151.5760 C   0  0  0  0  0  3  0  0  0  0  0  0
  161.7030  211.2820  153.7380 F   0  0  0  0  0  0  0  0  0  0  0  0
  161.6020  208.1860  148.6070 C   0  0  0  0  0  3  0  0  0  0  0  0
  161.1980  207.7990  152.7480 C   0  0  0  0  0  3  0  0  0  0  0  0
  160.4340  202.8230  152.1160 C   0  0  0  0  0  2  0  0  0  0  0  0
  161.3150  208.9400  153.5460 C   0  0  0  0  0  3  0  0  0  0  0  0
  161.5480  202.0570  151.4150 C   0  0  0  0  0  2  0  0  0  0  0  0
  161.2350  206.7440  150.5230 C   0  0  0  0  0  0  0  0  0  0  0  0
  161.2100  205.7990  148.1910 N   0  0  0  0  0  0  0  0  0  0  0  0
  161.5870  210.1780  152.9610 C   0  0  0  0  0  0  0  0  0  0  0  0
  161.6130  209.1430  150.7720 C   0  0  0  0  0  0  0  0  0  0  0  0
  161.2090  203.4200  148.7840 C   0  0  0  0  0  2  0  0  0  0  0  0
  161.3550  207.8820  151.3550 C   0  0  0  0  0  0  0  0  0  0  0  0
  160.9960  203.9490  152.9720 C   0  0  0  0  0  2  0  0  0  0  0  0
  161.7340  209.2570  149.4270 N   0  0  0  0  0  0  0  0  0  0  0  0
  161.0220  201.3360  150.1760 C   0  0  0  0  0  2  0  0  0  0  0  0
  160.3020  202.2840  149.2200 C   0  0  0  0  0  2  0  0  0  0  0  0
  161.7860  204.9680  152.1560 C   0  0  0  0  0  2  0  0  0  0  0  0
  162.0450  204.8020  144.2320 O   0  0  0  0  0  0  0  0  0  0  0  0
  161.7640  205.9360  146.8380 C   0  0  0  0  0  3  0  0  0  0  0  0
  160.6570  206.0040  145.7840 C   0  0  0  0  0  2  0  0  0  0  0  0
  161.2930  205.9790  144.3950 C   0  0  0  0  0  2  0  0  0  0  0  0
  163.1790  204.9290  145.0550 C   0  0  0  0  0  2  0  0  0  0  0  0
  162.7710  204.8270  146.5240 C   0  0  0  0  0  2  0  0  0  0  0  0
  1 15  1  0  0  0  0
  2 11  1  0  0  0  0
  3 21  1  0  0  0  0
  4 13  2  0  0  0  0
  6  2  2  0  0  0  0
  6 18  1  0  0  0  0
  7  9  2  0  0  0  0
  8 17  1  0  0  0  0
 10  8  1  0  0  0  0
 11  3  1  0  0  0  0
 11 16  2  0  0  0  0
 12  1  1  0  0  0  0
 12  2  1  0  0  0  0
 13  9  1  0  0  0  0
 13  5  1  0  0  0  0
 14 16  1  0  0  0  0
 14  4  1  0  0  0  0
 15 20  1  0  0  0  0
 16  7  1  0  0  0  0
 18 14  2  0  0  0  0
 19 10  1  0  0  0  0
 20 19  1  0  0  0  0
 21 17  1  0  0  0  0
 22 25  1  0  0  0  0
 22 26  1  0  0  0  0
 23 12  1  0  0  0  0
 24 23  1  0  0  0  0
 25 24  1  0  0  0  0
 26 27  1  0  0  0  0
 27 23  1  0  0  0  0
M  END
>  <MODEL>
1

>  <REMARK>
 VINA RESULT:      -8.6      0.000      0.000
  Name = 
  1 active torsions:
  status: ('A' for Active; 'I' for Inactive)
    1  A    between atoms: C_9  and  N_15
                            x       y       z     vdW  Elec       q    Type
                         _______ _______ _______ _____ _____    ______ ____

>  <TORSDO>
F 1

$$$$
=
 OpenBabel11052423103D

 27 30  0  0  0  0  0  0  0  0999 V2000
  162.5300  209.9810  151.5080 C   0  0  0  0  0  2  0  0  0  0  0  0
  161.7510  208.3780  149.7050 C   0  0  0  0  0  0  0  0  0  0  0  0
  161.4950  207.4330  151.9450 O   0  0  0  0  0  0  0  0  0  0  0  0
  161.3060  204.5750  147.9880 C   0  0  0  0  0  3  0  0  0  0  0  0
  161.0340  202.2190  148.2160 F   0  0  0  0  0  0  0  0  0  0  0  0
  161.7550  208.1680  148.3160 C   0  0  0  0  0  3  0  0  0  0  0  0
  161.2780  204.8220  150.7730 C   0  0  0  0  0  3  0  0  0  0  0  0
  161.5120  207.8740  154.8190 C   0  0  0  0  0  2  0  0  0  0  0  0
  161.1510  203.5630  150.1800 C   0  0  0  0  0  3  0  0  0  0  0  0
  160.4710  208.9820  154.8840 C   0  0  0  0  0  2  0  0  0  0  0  0
  161.5490  207.2590  150.5560 C   0  0  0  0  0  0  0  0  0  0  0  0
  161.9140  209.7250  150.2060 N   0  0  0  0  0  0  0  0  0  0  0  0
  161.1600  203.4400  148.7890 C   0  0  0  0  0  0  0  0  0  0  0  0
  161.4370  205.8370  148.5750 C   0  0  0  0  0  0  0  0  0  0  0  0
  161.4950  210.4640  152.5060 C   0  0  0  0  0  2  0  0  0  0  0  0
  161.4110  205.9740  149.9810 C   0  0  0  0  0  0  0  0  0  0  0  0
  160.9400  206.6200  154.1730 C   0  0  0  0  0  2  0  0  0  0  0  0
  161.6000  206.9280  147.7890 N   0  0  0  0  0  0  0  0  0  0  0  0
  161.1360  210.3530  154.9910 C   0  0  0  0  0  2  0  0  0  0  0  0
  162.1460  210.5930  153.8710 C   0  0  0  0  0  2  0  0  0  0  0  0
  160.4630  206.8620  152.7440 C   0  0  0  0  0  2  0  0  0  0  0  0
  162.1320  213.6120  148.7210 O   0  0  0  0  0  0  0  0  0  0  0  0
  161.6610  210.8560  149.3060 C   0  0  0  0  0  3  0  0  0  0  0  0
  162.9530  211.3530  148.6540 C   0  0  0  0  0  2  0  0  0  0  0  0
  162.6530  212.6260  147.8630 C   0  0  0  0  0  2  0  0  0  0  0  0
  160.8380  213.1940  149.0800 C   0  0  0  0  0  2  0  0  0  0  0  0
  160.9190  211.9900  150.0170 C   0  0  0  0  0  2  0  0  0  0  0  0
  1 15  1  0  0  0  0
  2 12  1  0  0  0  0
  2 11  1  0  0  0  0
  3 21  1  0  0  0  0
  4 14  1  0  0  0  0
  4 13  2  0  0  0  0
  5 13  1  0  0  0  0
  6  2  2  0  0  0  0
  8 10  1  0  0  0  0
  9  7  2  0  0  0  0
 10 19  1  0  0  0  0
 11  3  1  0  0  0  0
 12  1  1  0  0  0  0
 13  9  1  0  0  0  0
 14 16  1  0  0  0  0
 15 20  1  0  0  0  0
 16 11  2  0  0  0  0
 16  7  1  0  0  0  0
 17  8  1  0  0  0  0
 18  6  1  0  0  0  0
 18 14  2  0  0  0  0
 20 19  1  0  0  0  0
 21 17  1  0  0  0  0
 22 26  1  0  0  0  0
 23 27  1  0  0  0  0
 23 12  1  0  0  0  0
 24 23  1  0  0  0  0
 25 24  1  0  0  0  0
 25 22  1  0  0  0  0
 26 27  1  0  0  0  0
M  END
>  <MODEL>
2

>  <REMARK>
 VINA RESULT:      -7.8      3.205      6.472
  Name = 
  1 active torsions:
  status: ('A' for Active; 'I' for Inactive)
    1  A    between atoms: C_9  and  N_15
                            x       y       z     vdW  Elec       q    Type
                         _______ _______ _______ _____ _____    ______ ____

>  <TORSDO>
F 1

$$$$
=
 OpenBabel11052423103D

 27 30  0  0  0  0  0  0  0  0999 V2000
  162.2770  209.9530  152.4380 C   0  0  0  0  0  2  0  0  0  0  0  0
  161.4380  208.1140  150.9080 C   0  0  0  0  0  0  0  0  0  0  0  0
  161.3790  207.4490  153.2590 O   0  0  0  0  0  0  0  0  0  0  0  0
  161.0290  204.1150  149.7070 C   0  0  0  0  0  3  0  0  0  0  0  0
  160.8700  201.7980  150.2410 F   0  0  0  0  0  0  0  0  0  0  0  0
  161.3530  207.7330  149.5590 C   0  0  0  0  0  3  0  0  0  0  0  0
  161.1870  204.7060  152.4340 C   0  0  0  0  0  3  0  0  0  0  0  0
  161.5810  208.2450  156.0490 C   0  0  0  0  0  2  0  0  0  0  0  0
  161.0700  203.3790  152.0110 C   0  0  0  0  0  3  0  0  0  0  0  0
  160.5030  209.3190  156.0550 C   0  0  0  0  0  2  0  0  0  0  0  0
  161.3420  207.1050  151.9010 C   0  0  0  0  0  0  0  0  0  0  0  0
  161.5810  209.5180  151.2270 N   0  0  0  0  0  0  0  0  0  0  0  0
  160.9860  203.0840  150.6490 C   0  0  0  0  0  0  0  0  0  0  0  0
  161.1500  205.4430  150.1240 C   0  0  0  0  0  0  0  0  0  0  0  0
  161.2950  210.5250  153.4440 C   0  0  0  0  0  2  0  0  0  0  0  0
  161.2170  205.7540  151.5000 C   0  0  0  0  0  0  0  0  0  0  0  0
  161.0170  206.9030  155.6060 C   0  0  0  0  0  2  0  0  0  0  0  0
  161.2120  206.4320  149.2010 N   0  0  0  0  0  0  0  0  0  0  0  0
  161.1170  210.7130  155.9440 C   0  0  0  0  0  2  0  0  0  0  0  0
  162.0350  210.8440  154.7300 C   0  0  0  0  0  2  0  0  0  0  0  0
  160.4310  206.9490  154.1970 C   0  0  0  0  0  2  0  0  0  0  0  0
  161.8160  213.0390  149.0110 O   0  0  0  0  0  0  0  0  0  0  0  0
  161.2190  210.5190  150.2170 C   0  0  0  0  0  3  0  0  0  0  0  0
  162.3310  210.6960  149.1800 C   0  0  0  0  0  2  0  0  0  0  0  0
  161.9690  211.8600  148.2590 C   0  0  0  0  0  2  0  0  0  0  0  0
  160.6310  212.8930  149.7540 C   0  0  0  0  0  2  0  0  0  0  0  0
  160.8310  211.8540  150.8570 C   0  0  0  0  0  2  0  0  0  0  0  0
  1 15  1  0  0  0  0
  2 12  1  0  0  0  0
  2 11  1  0  0  0  0
  3 21  1  0  0  0  0
  4 14  1  0  0  0  0
  4 13  2  0  0  0  0
  5 13  1  0  0  0  0
  6  2  2  0  0  0  0
  8 10  1  0  0  0  0
  9  7  2  0  0  0  0
 11  3  1  0  0  0  0
 12  1  1  0  0  0  0
 13  9  1  0  0  0  0
 14 16  1  0  0  0  0
 15 20  1  0  0  0  0
 16 11  2  0  0  0  0
 16  7  1  0  0  0  0
 17  8  1  0  0  0  0
 18  6  1  0  0  0  0
 18 14  2  0  0  0  0
 19 10  1  0  0  0  0
 20 19  1  0  0  0  0
 21 17  1  0  0  0  0
 22 26  1  0  0  0  0
 23 27  1  0  0  0  0
 23 12  1  0  0  0  0
 24 23  1  0  0  0  0
 25 22  1  0  0  0  0
 25 24  1  0  0  0  0
 26 27  1  0  0  0  0
M  END
>  <MODEL>
3

>  <REMARK>
 VINA RESULT:      -7.3      3.490      6.609
  Name = 
  1 active torsions:
  status: ('A' for Active; 'I' for Inactive)
    1  A    between atoms: C_9  and  N_15
                            x       y       z     vdW  Elec       q    Type
                         _______ _______ _______ _____ _____    ______ ____

>  <TORSDO>
F 1

$$$$
=
 OpenBabel11052423103D

 27 30  0  0  0  0  0  0  0  0999 V2000
  160.4440  208.6050  152.4160 C   0  0  0  0  0  2  0  0  0  0  0  0
  160.9690  206.1240  152.3890 C   0  0  0  0  0  0  0  0  0  0  0  0
  161.2720  207.1500  150.1920 O   0  0  0  0  0  0  0  0  0  0  0  0
  160.9690  202.2980  150.6680 C   0  0  0  0  0  3  0  0  0  0  0  0
  161.0420  200.8920  148.7460 F   0  0  0  0  0  0  0  0  0  0  0  0
  160.8630  204.9500  153.1530 C   0  0  0  0  0  3  0  0  0  0  0  0
  161.1840  204.5360  149.0070 C   0  0  0  0  0  3  0  0  0  0  0  0
  161.4650  209.5870  148.6170 C   0  0  0  0  0  2  0  0  0  0  0  0
  161.1630  203.2530  148.4540 C   0  0  0  0  0  3  0  0  0  0  0  0
  162.6030  210.2560  149.3760 C   0  0  0  0  0  2  0  0  0  0  0  0
  161.1200  206.0040  150.9830 C   0  0  0  0  0  0  0  0  0  0  0  0
  160.9570  207.4010  153.0710 N   0  0  0  0  0  0  0  0  0  0  0  0
  161.0610  202.1350  149.2840 C   0  0  0  0  0  0  0  0  0  0  0  0
  160.9860  203.5790  151.2270 C   0  0  0  0  0  0  0  0  0  0  0  0
  161.5760  209.5600  152.0880 C   0  0  0  0  0  2  0  0  0  0  0  0
  161.1080  204.7160  150.3980 C   0  0  0  0  0  0  0  0  0  0  0  0
  161.8830  208.2220  148.0910 C   0  0  0  0  0  2  0  0  0  0  0  0
  160.8760  203.7260  152.5690 N   0  0  0  0  0  0  0  0  0  0  0  0
  162.0710  211.3060  150.3490 C   0  0  0  0  0  2  0  0  0  0  0  0
  161.0220  210.7310  151.2990 C   0  0  0  0  0  2  0  0  0  0  0  0
  162.2940  207.2640  149.2060 C   0  0  0  0  0  2  0  0  0  0  0  0
  160.6190  208.5580  157.0590 O   0  0  0  0  0  0  0  0  0  0  0  0
  161.2560  207.4450  154.5070 C   0  0  0  0  0  3  0  0  0  0  0  0
  160.0660  206.9690  155.3420 C   0  0  0  0  0  2  0  0  0  0  0  0
  160.3760  207.1930  156.8210 C   0  0  0  0  0  2  0  0  0  0  0  0
  161.8590  208.8570  156.4650 C   0  0  0  0  0  2  0  0  0  0  0  0
  161.7280  208.8340  154.9430 C   0  0  0  0  0  2  0  0  0  0  0  0
  1 12  1  0  0  0  0
  2 12  1  0  0  0  0
  2  6  1  0  0  0  0
  3 11  1  0  0  0  0
  4 14  1  0  0  0  0
  5 13  1  0  0  0  0
  7 16  1  0  0  0  0
  8 10  1  0  0  0  0
  9  7  2  0  0  0  0
  9 13  1  0  0  0  0
 10 19  1  0  0  0  0
 11  2  2  0  0  0  0
 12 23  1  0  0  0  0
 13  4  2  0  0  0  0
 14 18  1  0  0  0  0
 15  1  1  0  0  0  0
 16 11  1  0  0  0  0
 16 14  2  0  0  0  0
 17  8  1  0  0  0  0
 17 21  1  0  0  0  0
 18  6  2  0  0  0  0
 19 20  1  0  0  0  0
 20 15  1  0  0  0  0
 21  3  1  0  0  0  0
 23 27  1  0  0  0  0
 23 24  1  0  0  0  0
 24 25  1  0  0  0  0
 25 22  1  0  0  0  0
 26 22  1  0  0  0  0
 27 26  1  0  0  0  0
M  END
>  <MODEL>
4

>  <REMARK>
 VINA RESULT:      -7.1      3.359      7.911
  Name = 
  1 active torsions:
  status: ('A' for Active; 'I' for Inactive)
    1  A    between atoms: C_9  and  N_15
                            x       y       z     vdW  Elec       q    Type
                         _______ _______ _______ _____ _____    ______ ____

>  <TORSDO>
F 1

$$$$
=
 OpenBabel11052423103D

 27 30  0  0  0  0  0  0  0  0999 V2000
  160.4560  209.7280  152.2170 C   0  0  0  0  0  2  0  0  0  0  0  0
  161.0410  207.3230  152.7670 C   0  0  0  0  0  0  0  0  0  0  0  0
  161.2630  207.7970  150.3800 O   0  0  0  0  0  0  0  0  0  0  0  0
  161.0910  203.1960  152.0110 C   0  0  0  0  0  3  0  0  0  0  0  0
  161.1510  201.3720  150.4780 F   0  0  0  0  0  0  0  0  0  0  0  0
  160.9830  206.3630  153.7920 C   0  0  0  0  0  3  0  0  0  0  0  0
  161.2100  204.9750  149.8570 C   0  0  0  0  0  3  0  0  0  0  0  0
  161.3570  209.7900  148.2640 C   0  0  0  0  0  2  0  0  0  0  0  0
  161.2060  203.5970  149.6280 C   0  0  0  0  0  3  0  0  0  0  0  0
  162.4970  210.6410  148.8060 C   0  0  0  0  0  2  0  0  0  0  0  0
  161.1600  206.8720  151.4270 C   0  0  0  0  0  0  0  0  0  0  0  0
  161.0140  208.7250  153.1240 N   0  0  0  0  0  0  0  0  0  0  0  0
  161.1520  202.7080  150.7030 C   0  0  0  0  0  0  0  0  0  0  0  0
  161.0910  204.5740  152.2470 C   0  0  0  0  0  0  0  0  0  0  0  0
  161.5560  210.5970  151.6360 C   0  0  0  0  0  2  0  0  0  0  0  0
  161.1640  205.4810  151.1660 C   0  0  0  0  0  0  0  0  0  0  0  0
  161.7960  208.3460  148.0660 C   0  0  0  0  0  2  0  0  0  0  0  0
  161.0100  205.0360  153.5170 N   0  0  0  0  0  0  0  0  0  0  0  0
  161.9640  211.8830  149.5160 C   0  0  0  0  0  2  0  0  0  0  0  0
  160.9530  211.5350  150.6070 C   0  0  0  0  0  2  0  0  0  0  0  0
  162.2570  207.6900  149.3650 C   0  0  0  0  0  2  0  0  0  0  0  0
  161.3470  211.1800  156.4740 O   0  0  0  0  0  0  0  0  0  0  0  0
  161.3480  209.1170  154.4980 C   0  0  0  0  0  3  0  0  0  0  0  0
  160.0970  209.5020  155.2900 C   0  0  0  0  0  2  0  0  0  0  0  0
  160.5210  210.0550  156.6500 C   0  0  0  0  0  2  0  0  0  0  0  0
  162.5730  210.7070  155.9710 C   0  0  0  0  0  2  0  0  0  0  0  0
  162.3960  210.2320  154.5290 C   0  0  0  0  0  2  0  0  0  0  0  0
  1 12  1  0  0  0  0
  2 12  1  0  0  0  0
  2  6  1  0  0  0  0
  3 11  1  0  0  0  0
  4 14  1  0  0  0  0
  5 13  1  0  0  0  0
  7 16  1  0  0  0  0
  8 10  1  0  0  0  0
  9  7  2  0  0  0  0
  9 13  1  0  0  0  0
 10 19  1  0  0  0  0
 11  2  2  0  0  0  0
 12 23  1  0  0  0  0
 13  4  2  0  0  0  0
 14 18  1  0  0  0  0
 15  1  1  0  0  0  0
 16 11  1  0  0  0  0
 16 14  2  0  0  0  0
 17  8  1  0  0  0  0
 17 21  1  0  0  0  0
 18  6  2  0  0  0  0
 19 20  1  0  0  0  0
 20 15  1  0  0  0  0
 21  3  1  0  0  0  0
 22 25  1  0  0  0  0
 23 27  1  0  0  0  0
 23 24  1  0  0  0  0
 24 25  1  0  0  0  0
 26 22  1  0  0  0  0
 27 26  1  0  0  0  0
M  END
>  <MODEL>
5

>  <REMARK>
 VINA RESULT:      -7.1      3.346      7.961
  Name = 
  1 active torsions:
  status: ('A' for Active; 'I' for Inactive)
    1  A    between atoms: C_9  and  N_15
                            x       y       z     vdW  Elec       q    Type
                         _______ _______ _______ _____ _____    ______ ____

>  <TORSDO>
F 1

$$$$
=
 OpenBabel11052423103D

 27 30  0  0  0  0  0  0  0  0999 V2000
  160.3540  210.9410  155.2350 C   0  0  0  0  0  2  0  0  0  0  0  0
  159.9850  212.0240  152.9730 C   0  0  0  0  0  0  0  0  0  0  0  0
  161.0000  209.8090  152.7750 O   0  0  0  0  0  0  0  0  0  0  0  0
  161.0530  212.9300  149.0180 C   0  0  0  0  0  3  0  0  0  0  0  0
  162.1350  212.3410  146.9780 F   0  0  0  0  0  0  0  0  0  0  0  0
  159.6470  213.2400  152.3560 C   0  0  0  0  0  3  0  0  0  0  0  0
  161.8050  210.4640  150.0980 C   0  0  0  0  0  3  0  0  0  0  0  0
  161.7170  207.3050  154.0670 C   0  0  0  0  0  2  0  0  0  0  0  0
  162.1670  210.7950  148.7890 C   0  0  0  0  0  3  0  0  0  0  0  0
  160.3390  206.9150  154.5830 C   0  0  0  0  0  2  0  0  0  0  0  0
  160.6830  211.0510  152.2100 C   0  0  0  0  0  0  0  0  0  0  0  0
  159.5770  211.8010  154.3430 N   0  0  0  0  0  0  0  0  0  0  0  0
  161.7860  212.0240  148.2480 C   0  0  0  0  0  0  0  0  0  0  0  0
  160.6910  212.6070  150.3280 C   0  0  0  0  0  0  0  0  0  0  0  0
  159.6080  209.6500  155.5200 C   0  0  0  0  0  2  0  0  0  0  0  0
  161.0560  211.3580  150.8800 C   0  0  0  0  0  0  0  0  0  0  0  0
  161.7070  207.4880  152.5570 C   0  0  0  0  0  2  0  0  0  0  0  0
  159.9980  213.5010  151.0730 N   0  0  0  0  0  0  0  0  0  0  0  0
  160.1880  207.2660  156.0620 C   0  0  0  0  0  2  0  0  0  0  0  0
  160.4980  208.7350  156.3400 C   0  0  0  0  0  2  0  0  0  0  0  0
  160.7410  208.5790  152.1050 C   0  0  0  0  0  2  0  0  0  0  0  0
  156.4230  212.8440  156.8580 O   0  0  0  0  0  0  0  0  0  0  0  0
  158.4980  212.6190  154.9070 C   0  0  0  0  0  3  0  0  0  0  0  0
  158.7740  212.9790  156.3690 C   0  0  0  0  0  2  0  0  0  0  0  0
  157.5470  213.6850  156.9460 C   0  0  0  0  0  2  0  0  0  0  0  0
  156.0840  212.7640  155.4950 C   0  0  0  0  0  2  0  0  0  0  0  0
  157.1330  211.9470  154.7430 C   0  0  0  0  0  2  0  0  0  0  0  0
  1 15  1  0  0  0  0
  2 12  1  0  0  0  0
  4 14  1  0  0  0  0
  5 13  1  0  0  0  0
  6  2  1  0  0  0  0
  7 16  1  0  0  0  0
  8 10  1  0  0  0  0
  9  7  2  0  0  0  0
 10 19  1  0  0  0  0
 11  3  1  0  0  0  0
 11  2  2  0  0  0  0
 12 23  1  0  0  0  0
 12  1  1  0  0  0  0
 13  9  1  0  0  0  0
 13  4  2  0  0  0  0
 14 16  2  0  0  0  0
 14 18  1  0  0  0  0
 15 20  1  0  0  0  0
 16 11  1  0  0  0  0
 17  8  1  0  0  0  0
 18  6  2  0  0  0  0
 19 20  1  0  0  0  0
 21 17  1  0  0  0  0
 21  3  1  0  0  0  0
 22 25  1  0  0  0  0
 23 24  1  0  0  0  0
 24 25  1  0  0  0  0
 26 22  1  0  0  0  0
 27 23  1  0  0  0  0
 27 26  1  0  0  0  0
M  END
>  <MODEL>
6

>  <REMARK>
 VINA RESULT:      -5.9      5.109      8.494
  Name = 
  1 active torsions:
  status: ('A' for Active; 'I' for Inactive)
    1  A    between atoms: C_9  and  N_15
                            x       y       z     vdW  Elec       q    Type
                         _______ _______ _______ _____ _____    ______ ____

>  <TORSDO>
F 1

$$$$
=
 OpenBabel11052423103D

 27 30  0  0  0  0  0  0  0  0999 V2000
  162.2200  205.4450  152.7420 C   0  0  0  0  0  2  0  0  0  0  0  0
  161.7320  207.9020  152.3480 C   0  0  0  0  0  0  0  0  0  0  0  0
  161.6300  206.6030  150.2790 O   0  0  0  0  0  0  0  0  0  0  0  0
  161.9480  211.4770  150.1610 C   0  0  0  0  0  3  0  0  0  0  0  0
  162.0780  212.6240  148.0760 F   0  0  0  0  0  0  0  0  0  0  0  0
  161.7790  209.1650  152.9620 C   0  0  0  0  0  3  0  0  0  0  0  0
  161.8650  209.0440  148.7860 C   0  0  0  0  0  3  0  0  0  0  0  0
  161.5580  203.9850  149.0180 C   0  0  0  0  0  2  0  0  0  0  0  0
  161.9560  210.2450  148.0780 C   0  0  0  0  0  3  0  0  0  0  0  0
  160.3440  203.4190  149.7410 C   0  0  0  0  0  2  0  0  0  0  0  0
  161.7190  207.8420  150.9300 C   0  0  0  0  0  0  0  0  0  0  0  0
  161.6620  206.7230  153.1840 N   0  0  0  0  0  0  0  0  0  0  0  0
  161.9920  211.4600  148.7650 C   0  0  0  0  0  0  0  0  0  0  0  0
  161.8600  210.2780  150.8740 C   0  0  0  0  0  0  0  0  0  0  0  0
  161.1130  204.4560  152.4290 C   0  0  0  0  0  2  0  0  0  0  0  0
  161.8050  209.0430  150.1890 C   0  0  0  0  0  0  0  0  0  0  0  0
  161.2100  205.2710  148.2830 C   0  0  0  0  0  2  0  0  0  0  0  0
  161.8390  210.3040  152.2280 N   0  0  0  0  0  0  0  0  0  0  0  0
  160.7660  202.5030  150.8870 C   0  0  0  0  0  2  0  0  0  0  0  0
  161.7250  203.1930  151.8540 C   0  0  0  0  0  2  0  0  0  0  0  0
  160.7060  206.3640  149.2210 C   0  0  0  0  0  2  0  0  0  0  0  0
  159.9700  208.5070  156.5480 O   0  0  0  0  0  0  0  0  0  0  0  0
  161.2250  206.8630  154.5780 C   0  0  0  0  0  3  0  0  0  0  0  0
  159.7060  207.0230  154.6750 C   0  0  0  0  0  2  0  0  0  0  0  0
  159.3310  207.3280  156.1250 C   0  0  0  0  0  2  0  0  0  0  0  0
  161.3390  208.2040  156.6720 C   0  0  0  0  0  2  0  0  0  0  0  0
  161.9560  208.0050  155.2880 C   0  0  0  0  0  2  0  0  0  0  0  0
  1 12  1  0  0  0  0
  2  6  1  0  0  0  0
  2 12  1  0  0  0  0
  3 11  1  0  0  0  0
  4 14  1  0  0  0  0
  5 13  1  0  0  0  0
  7 16  1  0  0  0  0
  8 10  1  0  0  0  0
  9 13  1  0  0  0  0
  9  7  2  0  0  0  0
 10 19  1  0  0  0  0
 11  2  2  0  0  0  0
 12 23  1  0  0  0  0
 13  4  2  0  0  0  0
 14 18  1  0  0  0  0
 15  1  1  0  0  0  0
 16 14  2  0  0  0  0
 16 11  1  0  0  0  0
 17  8  1  0  0  0  0
 17 21  1  0  0  0  0
 18  6  2  0  0  0  0
 19 20  1  0  0  0  0
 20 15  1  0  0  0  0
 21  3  1  0  0  0  0
 22 26  1  0  0  0  0
 23 24  1  0  0  0  0
 23 27  1  0  0  0  0
 24 25  1  0  0  0  0
 25 22  1  0  0  0  0
 27 26  1  0  0  0  0
M  END
>  <MODEL>
7

>  <REMARK>
 VINA RESULT:      -5.9      2.532      6.009
  Name = 
  1 active torsions:
  status: ('A' for Active; 'I' for Inactive)
    1  A    between atoms: C_9  and  N_15
                            x       y       z     vdW  Elec       q    Type
                         _______ _______ _______ _____ _____    ______ ____

>  <TORSDO>
F 1

$$$$
=
 OpenBabel11052423103D

 27 30  0  0  0  0  0  0  0  0999 V2000
  162.5760  210.5140  149.6020 C   0  0  0  0  0  2  0  0  0  0  0  0
  161.3670  209.5790  151.6250 C   0  0  0  0  0  0  0  0  0  0  0  0
  160.7880  211.9170  151.2100 O   0  0  0  0  0  0  0  0  0  0  0  0
  159.7880  209.8150  155.5050 C   0  0  0  0  0  3  0  0  0  0  0  0
  158.7890  211.0800  157.2610 F   0  0  0  0  0  0  0  0  0  0  0  0
  161.3310  208.4780  152.4970 C   0  0  0  0  0  3  0  0  0  0  0  0
  159.7870  212.1010  153.8950 C   0  0  0  0  0  3  0  0  0  0  0  0
  160.8890  214.1960  149.4070 C   0  0  0  0  0  2  0  0  0  0  0  0
  159.2840  212.1610  155.1970 C   0  0  0  0  0  3  0  0  0  0  0  0
  160.2460  213.5480  148.1890 C   0  0  0  0  0  2  0  0  0  0  0  0
  160.8100  210.8080  152.0660 C   0  0  0  0  0  0  0  0  0  0  0  0
  161.9340  209.4030  150.3060 N   0  0  0  0  0  0  0  0  0  0  0  0
  159.2790  211.0190  155.9990 C   0  0  0  0  0  0  0  0  0  0  0  0
  160.2960  209.7490  154.2050 C   0  0  0  0  0  0  0  0  0  0  0  0
  161.7250  210.9700  148.4310 C   0  0  0  0  0  2  0  0  0  0  0  0
  160.2890  210.8950  153.3780 C   0  0  0  0  0  0  0  0  0  0  0  0
  159.9660  214.1320  150.6150 C   0  0  0  0  0  2  0  0  0  0  0  0
  160.8060  208.5820  153.7430 N   0  0  0  0  0  0  0  0  0  0  0  0
  161.3040  213.1080  147.1790 C   0  0  0  0  0  2  0  0  0  0  0  0
  162.3580  212.2000  147.8090 C   0  0  0  0  0  2  0  0  0  0  0  0
  159.6150  212.7000  151.0100 C   0  0  0  0  0  2  0  0  0  0  0  0
  161.0590  206.0810  147.9480 O   0  0  0  0  0  0  0  0  0  0  0  0
  162.0640  208.0470  149.7600 C   0  0  0  0  0  3  0  0  0  0  0  0
  162.3670  208.0740  148.2600 C   0  0  0  0  0  2  0  0  0  0  0  0
  162.3270  206.6450  147.7210 C   0  0  0  0  0  2  0  0  0  0  0  0
  160.9570  205.8590  149.3340 C   0  0  0  0  0  2  0  0  0  0  0  0
  160.8320  207.1930  150.0690 C   0  0  0  0  0  2  0  0  0  0  0  0
  1 12  1  0  0  0  0
  2 11  2  0  0  0  0
  2  6  1  0  0  0  0
  3 11  1  0  0  0  0
  4 13  1  0  0  0  0
  6 18  2  0  0  0  0
  7  9  1  0  0  0  0
  8 17  1  0  0  0  0
  9 13  2  0  0  0  0
 10  8  1  0  0  0  0
 11 16  1  0  0  0  0
 12  2  1  0  0  0  0
 13  5  1  0  0  0  0
 14  4  2  0  0  0  0
 15  1  1  0  0  0  0
 16  7  2  0  0  0  0
 16 14  1  0  0  0  0
 17 21  1  0  0  0  0
 18 14  1  0  0  0  0
 19 20  1  0  0  0  0
 19 10  1  0  0  0  0
 20 15  1  0  0  0  0
 21  3  1  0  0  0  0
 22 26  1  0  0  0  0
 23 27  1  0  0  0  0
 23 12  1  0  0  0  0
 24 23  1  0  0  0  0
 25 22  1  0  0  0  0
 25 24  1  0  0  0  0
 26 27  1  0  0  0  0
M  END
>  <MODEL>
8

>  <REMARK>
 VINA RESULT:      -5.8      3.220      6.552
  Name = 
  1 active torsions:
  status: ('A' for Active; 'I' for Inactive)
    1  A    between atoms: C_9  and  N_15
                            x       y       z     vdW  Elec       q    Type
                         _______ _______ _______ _____ _____    ______ ____

>  <TORSDO>
F 1

$$$$
=
 OpenBabel11052423103D

 27 30  0  0  0  0  0  0  0  0999 V2000
  160.0880  210.9540  152.0340 C   0  0  0  0  0  2  0  0  0  0  0  0
  160.7870  208.7180  153.0070 C   0  0  0  0  0  0  0  0  0  0  0  0
  161.2070  208.8440  150.6020 O   0  0  0  0  0  0  0  0  0  0  0  0
  161.2060  204.5450  152.9200 C   0  0  0  0  0  3  0  0  0  0  0  0
  161.5460  202.5220  151.7070 F   0  0  0  0  0  0  0  0  0  0  0  0
  160.6990  207.9240  154.1620 C   0  0  0  0  0  3  0  0  0  0  0  0
  161.4070  205.9810  150.5310 C   0  0  0  0  0  3  0  0  0  0  0  0
  161.3640  210.4950  148.2130 C   0  0  0  0  0  2  0  0  0  0  0  0
  161.5240  204.5890  150.5230 C   0  0  0  0  0  3  0  0  0  0  0  0
  162.3810  211.5120  148.7080 C   0  0  0  0  0  2  0  0  0  0  0  0
  161.0680  208.0820  151.7700 C   0  0  0  0  0  0  0  0  0  0  0  0
  160.6260  210.1510  153.1330 N   0  0  0  0  0  0  0  0  0  0  0  0
  161.4290  203.8720  151.7160 C   0  0  0  0  0  0  0  0  0  0  0  0
  161.0850  205.9370  152.9340 C   0  0  0  0  0  0  0  0  0  0  0  0
  161.1750  211.8160  151.4190 C   0  0  0  0  0  2  0  0  0  0  0  0
  161.1970  206.6740  151.7340 C   0  0  0  0  0  0  0  0  0  0  0  0
  161.9210  209.0800  148.2850 C   0  0  0  0  0  2  0  0  0  0  0  0
  160.8480  206.5770  154.1040 N   0  0  0  0  0  0  0  0  0  0  0  0
  161.6940  212.7980  149.1650 C   0  0  0  0  0  2  0  0  0  0  0  0
  160.6100  212.5330  150.2070 C   0  0  0  0  0  2  0  0  0  0  0  0
  162.3000  208.6710  149.7050 C   0  0  0  0  0  2  0  0  0  0  0  0
  161.1420  210.3930  157.2610 O   0  0  0  0  0  0  0  0  0  0  0  0
  160.7960  210.7740  154.4510 C   0  0  0  0  0  3  0  0  0  0  0  0
  162.1440  210.4050  155.0750 C   0  0  0  0  0  2  0  0  0  0  0  0
  162.1920  210.9430  156.5050 C   0  0  0  0  0  2  0  0  0  0  0  0
  159.9520  210.9750  156.7840 C   0  0  0  0  0  2  0  0  0  0  0  0
  159.6330  210.4400  155.3890 C   0  0  0  0  0  2  0  0  0  0  0  0
  1 12  1  0  0  0  0
  2 12  1  0  0  0  0
  2  6  1  0  0  0  0
  3 11  1  0  0  0  0
  4 14  1  0  0  0  0
  5 13  1  0  0  0  0
  7 16  1  0  0  0  0
  8 17  1  0  0  0  0
  8 10  1  0  0  0  0
  9  7  2  0  0  0  0
  9 13  1  0  0  0  0
 10 19  1  0  0  0  0
 11  2  2  0  0  0  0
 12 23  1  0  0  0  0
 13  4  2  0  0  0  0
 14 18  1  0  0  0  0
 15  1  1  0  0  0  0
 16 11  1  0  0  0  0
 16 14  2  0  0  0  0
 17 21  1  0  0  0  0
 18  6  2  0  0  0  0
 19 20  1  0  0  0  0
 20 15  1  0  0  0  0
 21  3  1  0  0  0  0
 23 24  1  0  0  0  0
 23 27  1  0  0  0  0
 24 25  1  0  0  0  0
 25 22  1  0  0  0  0
 26 22  1  0  0  0  0
 27 26  1  0  0  0  0
M  END
>  <MODEL>
9

>  <REMARK>
 VINA RESULT:      -5.8      3.607      8.229
  Name = 
  1 active torsions:
  status: ('A' for Active; 'I' for Inactive)
    1  A    between atoms: C_9  and  N_15
                            x       y       z     vdW  Elec       q    Type
                         _______ _______ _______ _____ _____    ______ ____

>  <TORSDO>
F 1

$$$$
