=
 OpenBabel11052422253D

 31 37  0  0  1  0  0  0  0  0999 V2000
  162.1690  210.8320  149.6440 C   0  0  0  0  0  0  0  0  0  0  0  0
  160.5920  208.2400  151.9450 C   0  0  1  0  0  3  0  0  0  0  0  0
  160.2170  209.3010  152.9570 C   0  0  0  0  0  0  0  0  0  0  0  0
  159.4480  211.6130  152.5390 C   0  0  0  0  0  3  0  0  0  0  0  0
  161.5760  208.7340  150.8950 C   0  0  2  0  0  0  0  0  0  0  0  0
  161.9380  210.1160  148.3570 C   0  0  0  0  0  2  0  0  0  0  0  0
  159.0560  210.1760  152.6050 C   0  0  0  0  0  2  0  0  0  0  0  0
  162.4940  206.6390  151.8160 C   0  0  1  0  0  3  0  0  0  0  0  0
  162.4060  212.1010  149.6450 N   0  0  0  0  0  2  0  0  0  0  0  0
  161.8520  208.3580  154.5610 C   0  0  0  0  0  2  0  0  0  0  0  0
  159.8990  212.2840  153.5960 C   0  0  0  0  0  3  0  0  0  0  0  0
  162.7290  207.7680  150.7780 C   0  0  1  0  0  3  0  0  0  0  0  0
  161.2270  206.9970  152.5810 C   0  0  2  0  0  0  0  0  0  0  0  0
  161.2860  205.6760  151.8360 C   0  0  1  0  0  3  0  0  0  0  0  0
  161.9900  210.1360  150.8760 N   0  0  0  0  0  2  0  0  0  0  0  0
  160.1500  211.6890  154.9220 C   0  0  0  0  0  3  0  0  0  0  0  0
  161.7460  207.9190  149.6140 C   0  0  2  0  0  3  0  0  0  0  0  0
  162.4440  208.6830  148.4860 C   0  0  0  0  0  2  0  0  0  0  0  0
  161.4550  206.9650  154.0850 C   0  0  0  0  0  2  0  0  0  0  0  0
  160.8200  209.3760  154.1650 C   0  0  0  0  0  0  0  0  0  0  0  0
  160.5400  210.4310  155.1640 C   0  0  0  0  0  3  0  0  0  0  0  0
  160.4150  205.6210  150.5840 C   0  0  0  0  0  2  0  0  0  0  0  0
  161.6770  203.4510  150.4970 C   0  0  0  0  0  2  0  0  0  0  0  0
  160.0590  201.9220  149.4000 C   0  0  0  0  0  1  0  0  0  0  0  0
  160.2120  203.0460  150.4110 C   0  0  2  0  0  3  0  0  0  0  0  0
  160.6940  204.3540  149.7860 C   0  0  1  0  0  0  0  0  0  0  0  0
  160.9710  204.4460  148.2820 C   0  0  2  0  0  3  0  0  0  0  0  0
  162.3350  204.2890  148.0330 O   0  0  0  0  0  1  0  0  0  0  0  0
  160.4890  205.7750  147.7240 C   0  0  0  0  0  2  0  0  0  0  0  0
  161.2560  206.1300  146.6150 O   0  0  0  0  0  0  0  0  0  0  0  0
  160.3480  206.1580  145.5580 C   0  0  0  0  0  1  0  0  0  0  0  0
  1  9  2  0  0  0  0
  1 15  1  0  0  0  0
  2 13  1  0  0  0  0
  2  3  1  1  0  0  0
  3 20  2  0  0  0  0
  4  7  1  0  0  0  0
  4 11  2  0  0  0  0
  5 15  1  6  0  0  0
  5  2  1  0  0  0  0
  6 18  1  0  0  0  0
  6  1  1  0  0  0  0
  7  3  1  0  0  0  0
  8 14  1  0  0  0  0
  8 13  1  0  0  0  0
 11 16  1  0  0  0  0
 12  5  1  0  0  0  0
 12  8  1  0  0  0  0
 13 19  1  0  0  0  0
 14 13  1  0  0  0  0
 16 21  2  0  0  0  0
 17 12  1  0  0  0  0
 17  5  1  0  0  0  0
 18 17  1  0  0  0  0
 19 10  1  0  0  0  0
 20 10  1  0  0  0  0
 20 21  1  0  0  0  0
 22 14  1  0  0  0  0
 24 25  1  0  0  0  0
 25 23  1  0  0  0  0
 26 25  1  0  0  0  0
 26 23  1  0  0  0  0
 26 22  1  0  0  0  0
 27 26  1  0  0  0  0
 28 27  1  0  0  0  0
 29 27  1  0  0  0  0
 30 29  1  0  0  0  0
 31 30  1  0  0  0  0
M  END
>  <MODEL>
1

>  <REMARK>
 VINA RESULT:      -6.6      0.000      0.000
  Name = 
  5 active torsions:
  status: ('A' for Active; 'I' for Inactive)
    1  A    between atoms: O_1  and  C_8
    2  A    between atoms: C_8  and  C_19
    3  A    between atoms: C_9  and  C_22
    4  A    between atoms: C_9  and  C_23
    5  A    between atoms: C_19  and  C_22
                            x       y       z     vdW  Elec       q    Type
                         _______ _______ _______ _____ _____    ______ ____

>  <TORSDO>
F 5

$$$$
=
 OpenBabel11052422253D

 31 37  0  0  1  0  0  0  0  0999 V2000
  159.8090  213.2130  151.8250 C   0  0  0  0  0  0  0  0  0  0  0  0
  159.3280  210.2020  154.1070 C   0  0  1  0  0  3  0  0  0  0  0  0
  158.4130  210.9870  155.0230 C   0  0  0  0  0  0  0  0  0  0  0  0
  156.7390  212.7000  154.4150 C   0  0  0  0  0  3  0  0  0  0  0  0
  160.0910  211.0810  153.1270 C   0  0  2  0  0  0  0  0  0  0  0  0
  160.0610  212.4620  150.5630 C   0  0  0  0  0  2  0  0  0  0  0  0
  157.0280  211.2420  154.5210 C   0  0  0  0  0  2  0  0  0  0  0  0
  161.7480  209.6320  154.2370 C   0  0  1  0  0  3  0  0  0  0  0  0
  159.4520  214.4530  151.7810 N   0  0  0  0  0  2  0  0  0  0  0  0
  160.1190  210.8920  156.8170 C   0  0  0  0  0  2  0  0  0  0  0  0
  156.7280  213.5090  155.4710 C   0  0  0  0  0  3  0  0  0  0  0  0
  161.5600  210.7380  153.1670 C   0  0  1  0  0  3  0  0  0  0  0  0
  160.3810  209.3840  154.8630 C   0  0  2  0  0  0  0  0  0  0  0  0
  161.1050  208.2270  154.1970 C   0  0  1  0  0  3  0  0  0  0  0  0
  159.8330  212.5190  153.0720 N   0  0  0  0  0  2  0  0  0  0  0  0
  157.0770  213.1000  156.8440 C   0  0  0  0  0  3  0  0  0  0  0  0
  160.7410  210.4230  151.9110 C   0  0  2  0  0  3  0  0  0  0  0  0
  161.1380  211.4130  150.8120 C   0  0  0  0  0  2  0  0  0  0  0  0
  160.4400  209.4670  156.3810 C   0  0  0  0  0  2  0  0  0  0  0  0
  158.7880  211.3340  156.2760 C   0  0  0  0  0  0  0  0  0  0  0  0
  157.9620  212.1540  157.1880 C   0  0  0  0  0  3  0  0  0  0  0  0
  160.4880  207.7770  152.8760 C   0  0  0  0  0  2  0  0  0  0  0  0
  162.2170  206.0020  153.2830 C   0  0  0  0  0  2  0  0  0  0  0  0
  161.3980  204.1130  151.8990 C   0  0  0  0  0  1  0  0  0  0  0  0
  160.9810  205.2360  152.8340 C   0  0  2  0  0  3  0  0  0  0  0  0
  161.2810  206.6250  152.2730 C   0  0  1  0  0  0  0  0  0  0  0  0
  161.9340  206.7880  150.8970 C   0  0  2  0  0  3  0  0  0  0  0  0
  162.7880  207.8930  150.8960 O   0  0  0  0  0  1  0  0  0  0  0  0
  160.8800  206.9460  149.8140 C   0  0  0  0  0  2  0  0  0  0  0  0
  161.4140  206.5880  148.5760 O   0  0  0  0  0  0  0  0  0  0  0  0
  161.1130  205.2340  148.4440 C   0  0  0  0  0  1  0  0  0  0  0  0
  1 15  1  0  0  0  0
  2 13  1  0  0  0  0
  2  3  1  1  0  0  0
  3 20  2  0  0  0  0
  4  7  1  0  0  0  0
  4 11  2  0  0  0  0
  5 15  1  6  0  0  0
  5 12  1  0  0  0  0
  5  2  1  0  0  0  0
  6 18  1  0  0  0  0
  6  1  1  0  0  0  0
  7  3  1  0  0  0  0
  8 13  1  0  0  0  0
  9  1  2  0  0  0  0
 11 16  1  0  0  0  0
 12  8  1  0  0  0  0
 13 19  1  0  0  0  0
 14  8  1  0  0  0  0
 14 13  1  0  0  0  0
 16 21  2  0  0  0  0
 17  5  1  0  0  0  0
 17 12  1  0  0  0  0
 18 17  1  0  0  0  0
 19 10  1  0  0  0  0
 20 10  1  0  0  0  0
 20 21  1  0  0  0  0
 22 14  1  0  0  0  0
 24 25  1  0  0  0  0
 25 23  1  0  0  0  0
 26 25  1  0  0  0  0
 26 22  1  0  0  0  0
 26 23  1  0  0  0  0
 27 26  1  0  0  0  0
 28 27  1  0  0  0  0
 29 27  1  0  0  0  0
 30 29  1  0  0  0  0
 31 30  1  0  0  0  0
M  END
>  <MODEL>
2

>  <REMARK>
 VINA RESULT:      -5.9      2.313      3.584
  Name = 
  5 active torsions:
  status: ('A' for Active; 'I' for Inactive)
    1  A    between atoms: O_1  and  C_8
    2  A    between atoms: C_8  and  C_19
    3  A    between atoms: C_9  and  C_22
    4  A    between atoms: C_9  and  C_23
    5  A    between atoms: C_19  and  C_22
                            x       y       z     vdW  Elec       q    Type
                         _______ _______ _______ _____ _____    ______ ____

>  <TORSDO>
F 5

$$$$
=
 OpenBabel11052422253D

 31 37  0  0  1  0  0  0  0  0999 V2000
  161.6270  204.2490  152.0110 C   0  0  0  0  0  0  0  0  0  0  0  0
  160.8920  207.6030  150.3640 C   0  0  1  0  0  3  0  0  0  0  0  0
  161.0500  207.0080  148.9810 C   0  0  0  0  0  0  0  0  0  0  0  0
  160.3810  204.7630  148.1930 C   0  0  0  0  0  3  0  0  0  0  0  0
  161.4090  206.6940  151.4690 C   0  0  2  0  0  0  0  0  0  0  0  0
  160.8370  204.4670  153.2560 C   0  0  0  0  0  2  0  0  0  0  0  0
  159.9270  206.1510  148.4920 C   0  0  0  0  0  2  0  0  0  0  0  0
  162.4340  208.9090  151.8170 C   0  0  1  0  0  3  0  0  0  0  0  0
  161.9550  203.0530  151.6520 N   0  0  0  0  0  2  0  0  0  0  0  0
  163.1040  208.3490  148.6330 C   0  0  0  0  0  2  0  0  0  0  0  0
  161.2760  204.4890  147.2470 C   0  0  0  0  0  3  0  0  0  0  0  0
  162.3290  207.4680  152.3810 C   0  0  1  0  0  3  0  0  0  0  0  0
  161.6180  208.9420  150.5310 C   0  0  2  0  0  0  0  0  0  0  0  0
  161.2580  209.8970  151.6550 C   0  0  1  0  0  3  0  0  0  0  0  0
  161.9010  205.3540  151.1510 N   0  0  0  0  0  2  0  0  0  0  0  0
  161.9870  205.5030  146.4460 C   0  0  0  0  0  3  0  0  0  0  0  0
  160.9770  206.9760  152.9070 C   0  0  2  0  0  3  0  0  0  0  0  0
  161.2250  205.8090  153.8660 C   0  0  0  0  0  2  0  0  0  0  0  0
  162.4290  209.5000  149.3700 C   0  0  0  0  0  2  0  0  0  0  0  0
  162.0930  207.3320  148.1820 C   0  0  0  0  0  0  0  0  0  0  0  0
  162.3310  206.7330  146.8510 C   0  0  0  0  0  3  0  0  0  0  0  0
  159.9550  209.5590  152.3740 C   0  0  0  0  0  2  0  0  0  0  0  0
  159.6750  212.0420  152.6200 C   0  0  0  0  0  2  0  0  0  0  0  0
  157.6370  212.2260  154.0240 C   0  0  0  0  0  1  0  0  0  0  0  0
  158.2870  211.4730  152.8750 C   0  0  2  0  0  3  0  0  0  0  0  0
  159.5330  210.6960  153.2940 C   0  0  1  0  0  0  0  0  0  0  0  0
  160.0160  210.7200  154.7480 C   0  0  2  0  0  3  0  0  0  0  0  0
  161.2000  211.4530  154.8500 O   0  0  0  0  0  1  0  0  0  0  0  0
  160.2310  209.3090  155.2690 C   0  0  0  0  0  2  0  0  0  0  0  0
  161.5810  209.1100  155.5590 O   0  0  0  0  0  0  0  0  0  0  0  0
  161.5790  208.3490  156.7270 C   0  0  0  0  0  1  0  0  0  0  0  0
  1  6  1  0  0  0  0
  2  3  1  6  0  0  0
  2 13  1  0  0  0  0
  2  5  1  0  0  0  0
  4  7  1  0  0  0  0
  5 15  1  6  0  0  0
  5 12  1  0  0  0  0
  5 17  1  0  0  0  0
  6 18  1  0  0  0  0
  7  3  1  0  0  0  0
  8 12  1  0  0  0  0
  9  1  2  0  0  0  0
 10 19  1  0  0  0  0
 11  4  2  0  0  0  0
 12 17  1  0  0  0  0
 13 14  1  0  0  0  0
 13  8  1  0  0  0  0
 14  8  1  0  0  0  0
 14 22  1  0  0  0  0
 15  1  1  0  0  0  0
 16 21  2  0  0  0  0
 16 11  1  0  0  0  0
 17 18  1  0  0  0  0
 19 13  1  0  0  0  0
 20 10  1  0  0  0  0
 20  3  2  0  0  0  0
 21 20  1  0  0  0  0
 22 26  1  0  0  0  0
 23 25  1  0  0  0  0
 23 26  1  0  0  0  0
 25 26  1  0  0  0  0
 25 24  1  0  0  0  0
 26 27  1  0  0  0  0
 27 28  1  0  0  0  0
 27 29  1  0  0  0  0
 29 30  1  0  0  0  0
 30 31  1  0  0  0  0
M  END
>  <MODEL>
3

>  <REMARK>
 VINA RESULT:      -5.8      3.100      7.363
  Name = 
  5 active torsions:
  status: ('A' for Active; 'I' for Inactive)
    1  A    between atoms: O_1  and  C_8
    2  A    between atoms: C_8  and  C_19
    3  A    between atoms: C_9  and  C_22
    4  A    between atoms: C_9  and  C_23
    5  A    between atoms: C_19  and  C_22
                            x       y       z     vdW  Elec       q    Type
                         _______ _______ _______ _____ _____    ______ ____

>  <TORSDO>
F 5

$$$$
=
 OpenBabel11052422253D

 31 37  0  0  1  0  0  0  0  0999 V2000
  161.1810  213.0090  149.5080 C   0  0  0  0  0  0  0  0  0  0  0  0
  160.1390  210.4470  152.1260 C   0  0  1  0  0  3  0  0  0  0  0  0
  159.4310  211.5060  152.9440 C   0  0  0  0  0  0  0  0  0  0  0  0
  158.1370  213.4520  152.1410 C   0  0  0  0  0  3  0  0  0  0  0  0
  161.0440  211.0280  151.0490 C   0  0  2  0  0  0  0  0  0  0  0  0
  161.2390  212.0830  148.3420 C   0  0  0  0  0  2  0  0  0  0  0  0
  158.1180  211.9870  152.4170 C   0  0  0  0  0  2  0  0  0  0  0  0
  162.3890  209.3990  152.3200 C   0  0  1  0  0  3  0  0  0  0  0  0
  161.0890  214.2830  149.3190 N   0  0  0  0  0  2  0  0  0  0  0  0
  161.1240  211.2600  154.7360 C   0  0  0  0  0  2  0  0  0  0  0  0
  158.3210  214.3600  153.0960 C   0  0  0  0  0  3  0  0  0  0  0  0
  162.4100  210.3910  151.1290 C   0  0  1  0  0  3  0  0  0  0  0  0
  161.0170  209.5170  152.9720 C   0  0  2  0  0  0  0  0  0  0  0  0
  161.4670  208.1660  152.4450 C   0  0  1  0  0  3  0  0  0  0  0  0
  161.0910  212.4730  150.8270 N   0  0  0  0  0  2  0  0  0  0  0  0
  158.6120  214.0460  154.5070 C   0  0  0  0  0  3  0  0  0  0  0  0
  161.5130  210.1140  149.9190 C   0  0  2  0  0  3  0  0  0  0  0  0
  162.0800  210.8660  148.7120 C   0  0  0  0  0  2  0  0  0  0  0  0
  161.1300  209.7590  154.4700 C   0  0  0  0  0  2  0  0  0  0  0  0
  159.9020  211.9070  154.1480 C   0  0  0  0  0  0  0  0  0  0  0  0
  159.2870  212.9810  154.9580 C   0  0  0  0  0  3  0  0  0  0  0  0
  160.7370  207.7080  151.1860 C   0  0  0  0  0  2  0  0  0  0  0  0
  162.3030  205.8020  151.6550 C   0  0  0  0  0  2  0  0  0  0  0  0
  161.0800  203.8500  150.7310 C   0  0  0  0  0  1  0  0  0  0  0  0
  160.9360  205.1480  151.5090 C   0  0  2  0  0  3  0  0  0  0  0  0
  161.2980  206.3830  150.6870 C   0  0  1  0  0  0  0  0  0  0  0  0
  161.7490  206.2470  149.2290 C   0  0  2  0  0  3  0  0  0  0  0  0
  162.6580  207.2570  148.9100 O   0  0  0  0  0  1  0  0  0  0  0  0
  160.5570  206.3040  148.2880 C   0  0  0  0  0  2  0  0  0  0  0  0
  160.9590  205.9770  146.9930 O   0  0  0  0  0  0  0  0  0  0  0  0
  161.5350  204.7140  147.1150 C   0  0  0  0  0  1  0  0  0  0  0  0
  1 15  1  0  0  0  0
  2  3  1  1  0  0  0
  2 13  1  0  0  0  0
  3 20  2  0  0  0  0
  4  7  1  0  0  0  0
  4 11  2  0  0  0  0
  5 15  1  6  0  0  0
  5 12  1  0  0  0  0
  5  2  1  0  0  0  0
  6 18  1  0  0  0  0
  6  1  1  0  0  0  0
  7  3  1  0  0  0  0
  8 14  1  0  0  0  0
  8 13  1  0  0  0  0
  9  1  2  0  0  0  0
 11 16  1  0  0  0  0
 12  8  1  0  0  0  0
 13 19  1  0  0  0  0
 14 13  1  0  0  0  0
 16 21  2  0  0  0  0
 17  5  1  0  0  0  0
 17 12  1  0  0  0  0
 18 17  1  0  0  0  0
 19 10  1  0  0  0  0
 20 10  1  0  0  0  0
 20 21  1  0  0  0  0
 22 14  1  0  0  0  0
 24 25  1  0  0  0  0
 25 23  1  0  0  0  0
 26 22  1  0  0  0  0
 26 25  1  0  0  0  0
 26 23  1  0  0  0  0
 27 26  1  0  0  0  0
 28 27  1  0  0  0  0
 29 27  1  0  0  0  0
 30 31  1  0  0  0  0
 30 29  1  0  0  0  0
M  END
>  <MODEL>
4

>  <REMARK>
 VINA RESULT:      -5.8      1.566      2.446
  Name = 
  5 active torsions:
  status: ('A' for Active; 'I' for Inactive)
    1  A    between atoms: O_1  and  C_8
    2  A    between atoms: C_8  and  C_19
    3  A    between atoms: C_9  and  C_22
    4  A    between atoms: C_9  and  C_23
    5  A    between atoms: C_19  and  C_22
                            x       y       z     vdW  Elec       q    Type
                         _______ _______ _______ _____ _____    ______ ____

>  <TORSDO>
F 5

$$$$
=
 OpenBabel11052422253D

 31 37  0  0  1  0  0  0  0  0999 V2000
  161.6560  204.5030  152.2860 C   0  0  0  0  0  0  0  0  0  0  0  0
  160.8650  207.7610  150.4780 C   0  0  1  0  0  3  0  0  0  0  0  0
  161.0530  207.1070  149.1250 C   0  0  0  0  0  0  0  0  0  0  0  0
  160.4430  204.8140  148.4340 C   0  0  0  0  0  3  0  0  0  0  0  0
  161.3890  206.9160  151.6290 C   0  0  2  0  0  0  0  0  0  0  0  0
  160.8460  204.7600  153.5100 C   0  0  0  0  0  2  0  0  0  0  0  0
  159.9550  206.2030  148.6650 C   0  0  0  0  0  2  0  0  0  0  0  0
  162.3620  209.1660  151.8860 C   0  0  1  0  0  3  0  0  0  0  0  0
  162.0130  203.3000  151.9850 N   0  0  0  0  0  2  0  0  0  0  0  0
  163.0810  208.4770  148.7390 C   0  0  0  0  0  2  0  0  0  0  0  0
  161.3560  204.5170  147.5120 C   0  0  0  0  0  3  0  0  0  0  0  0
  162.2810  207.7510  152.5140 C   0  0  1  0  0  3  0  0  0  0  0  0
  161.5610  209.1230  150.5910 C   0  0  2  0  0  0  0  0  0  0  0  0
  161.1660  210.1200  151.6660 C   0  0  1  0  0  3  0  0  0  0  0  0
  161.9150  205.5740  151.3790 N   0  0  0  0  0  2  0  0  0  0  0  0
  162.0530  205.5090  146.6730 C   0  0  0  0  0  3  0  0  0  0  0  0
  160.9340  207.2530  153.0480 C   0  0  2  0  0  3  0  0  0  0  0  0
  161.1970  206.1370  154.0620 C   0  0  0  0  0  2  0  0  0  0  0  0
  162.3730  209.6450  149.4150 C   0  0  0  0  0  2  0  0  0  0  0  0
  162.0980  207.4180  148.3240 C   0  0  0  0  0  0  0  0  0  0  0  0
  162.3650  206.7640  147.0240 C   0  0  0  0  0  3  0  0  0  0  0  0
  159.8630  209.7850  152.3860 C   0  0  0  0  0  2  0  0  0  0  0  0
  159.5170  209.8400  154.8720 C   0  0  0  0  0  2  0  0  0  0  0  0
  160.8310  211.8290  155.5630 C   0  0  0  0  0  1  0  0  0  0  0  0
  160.8070  210.6150  154.6480 C   0  0  2  0  0  3  0  0  0  0  0  0
  159.6820  210.6640  153.6160 C   0  0  1  0  0  0  0  0  0  0  0  0
  158.7160  211.8520  153.5690 C   0  0  2  0  0  3  0  0  0  0  0  0
  157.4490  211.4600  154.0040 O   0  0  0  0  0  1  0  0  0  0  0  0
  158.6300  212.4230  152.1630 C   0  0  0  0  0  2  0  0  0  0  0  0
  159.6910  213.3000  151.9400 O   0  0  0  0  0  0  0  0  0  0  0  0
  159.7350  213.4490  150.5550 C   0  0  0  0  0  1  0  0  0  0  0  0
  1  6  1  0  0  0  0
  2  3  1  6  0  0  0
  2 13  1  0  0  0  0
  2  5  1  0  0  0  0
  4  7  1  0  0  0  0
  5 15  1  6  0  0  0
  5 12  1  0  0  0  0
  5 17  1  0  0  0  0
  6 18  1  0  0  0  0
  7  3  1  0  0  0  0
  8 12  1  0  0  0  0
  9  1  2  0  0  0  0
 10 19  1  0  0  0  0
 11  4  2  0  0  0  0
 12 17  1  0  0  0  0
 13 14  1  0  0  0  0
 13  8  1  0  0  0  0
 14  8  1  0  0  0  0
 14 22  1  0  0  0  0
 15  1  1  0  0  0  0
 16 21  2  0  0  0  0
 16 11  1  0  0  0  0
 17 18  1  0  0  0  0
 19 13  1  0  0  0  0
 20 10  1  0  0  0  0
 20  3  2  0  0  0  0
 21 20  1  0  0  0  0
 22 26  1  0  0  0  0
 25 23  1  0  0  0  0
 25 24  1  0  0  0  0
 26 25  1  0  0  0  0
 26 23  1  0  0  0  0
 27 26  1  0  0  0  0
 27 28  1  0  0  0  0
 29 27  1  0  0  0  0
 30 29  1  0  0  0  0
 31 30  1  0  0  0  0
M  END
>  <MODEL>
5

>  <REMARK>
 VINA RESULT:      -5.1      3.174      7.180
  Name = 
  5 active torsions:
  status: ('A' for Active; 'I' for Inactive)
    1  A    between atoms: O_1  and  C_8
    2  A    between atoms: C_8  and  C_19
    3  A    between atoms: C_9  and  C_22
    4  A    between atoms: C_9  and  C_23
    5  A    between atoms: C_19  and  C_22
                            x       y       z     vdW  Elec       q    Type
                         _______ _______ _______ _____ _____    ______ ____

>  <TORSDO>
F 5

$$$$
=
 OpenBabel11052422253D

 31 37  0  0  1  0  0  0  0  0999 V2000
  162.1680  210.4410  149.6540 C   0  0  0  0  0  0  0  0  0  0  0  0
  160.6320  208.0400  152.1790 C   0  0  1  0  0  3  0  0  0  0  0  0
  160.2770  209.1780  153.1120 C   0  0  0  0  0  0  0  0  0  0  0  0
  159.5020  211.4510  152.5300 C   0  0  0  0  0  3  0  0  0  0  0  0
  161.5960  208.4480  151.0760 C   0  0  2  0  0  0  0  0  0  0  0  0
  161.9110  209.6270  148.4320 C   0  0  0  0  0  2  0  0  0  0  0  0
  159.1110  210.0250  152.7160 C   0  0  0  0  0  2  0  0  0  0  0  0
  162.5300  206.4300  152.1390 C   0  0  1  0  0  3  0  0  0  0  0  0
  162.4060  211.7060  149.5520 N   0  0  0  0  0  2  0  0  0  0  0  0
  161.9420  208.3580  154.7540 C   0  0  0  0  0  2  0  0  0  0  0  0
  159.9740  212.2020  153.5230 C   0  0  0  0  0  3  0  0  0  0  0  0
  162.7460  207.4730  151.0130 C   0  0  1  0  0  3  0  0  0  0  0  0
  161.2780  206.8490  152.8980 C   0  0  2  0  0  0  0  0  0  0  0  0
  161.3220  205.4740  152.2570 C   0  0  1  0  0  3  0  0  0  0  0  0
  162.0120  209.8440  150.9400 N   0  0  0  0  0  2  0  0  0  0  0  0
  160.2500  211.7120  154.8860 C   0  0  0  0  0  3  0  0  0  0  0  0
  161.7410  207.5360  149.8590 C   0  0  2  0  0  3  0  0  0  0  0  0
  162.4190  208.2080  148.6620 C   0  0  0  0  0  2  0  0  0  0  0  0
  161.5350  206.9340  154.3960 C   0  0  0  0  0  2  0  0  0  0  0  0
  160.9040  209.3460  154.3000 C   0  0  0  0  0  0  0  0  0  0  0  0
  160.6430  210.4750  155.2190 C   0  0  0  0  0  3  0  0  0  0  0  0
  160.4270  205.3230  151.0310 C   0  0  0  0  0  2  0  0  0  0  0  0
  161.6160  203.1110  151.0760 C   0  0  0  0  0  2  0  0  0  0  0  0
  160.1460  201.6720  149.6890 C   0  0  0  0  0  1  0  0  0  0  0  0
  160.1720  202.7630  150.7460 C   0  0  2  0  0  3  0  0  0  0  0  0
  160.7890  204.0680  150.2480 C   0  0  1  0  0  0  0  0  0  0  0  0
  161.3050  204.1890  148.8110 C   0  0  2  0  0  3  0  0  0  0  0  0
  160.3680  204.8510  148.0160 O   0  0  0  0  0  1  0  0  0  0  0  0
  161.6050  202.8180  148.2270 C   0  0  0  0  0  2  0  0  0  0  0  0
  160.9390  202.6630  147.0110 O   0  0  0  0  0  0  0  0  0  0  0  0
  161.0830  201.3110  146.7030 C   0  0  0  0  0  1  0  0  0  0  0  0
  1 15  1  0  0  0  0
  2 13  1  0  0  0  0
  2  3  1  1  0  0  0
  3 20  2  0  0  0  0
  4  7  1  0  0  0  0
  4 11  2  0  0  0  0
  5 15  1  6  0  0  0
  5  2  1  0  0  0  0
  6 18  1  0  0  0  0
  6  1  1  0  0  0  0
  7  3  1  0  0  0  0
  8 14  1  0  0  0  0
  8 13  1  0  0  0  0
  9  1  2  0  0  0  0
 11 16  1  0  0  0  0
 12  5  1  0  0  0  0
 12  8  1  0  0  0  0
 13 19  1  0  0  0  0
 14 13  1  0  0  0  0
 16 21  2  0  0  0  0
 17 12  1  0  0  0  0
 17  5  1  0  0  0  0
 18 17  1  0  0  0  0
 19 10  1  0  0  0  0
 20 10  1  0  0  0  0
 20 21  1  0  0  0  0
 22 14  1  0  0  0  0
 24 25  1  0  0  0  0
 25 23  1  0  0  0  0
 26 25  1  0  0  0  0
 26 22  1  0  0  0  0
 26 23  1  0  0  0  0
 27 26  1  0  0  0  0
 28 27  1  0  0  0  0
 29 27  1  0  0  0  0
 30 29  1  0  0  0  0
 31 30  1  0  0  0  0
M  END
>  <MODEL>
6

>  <REMARK>
 VINA RESULT:      -4.6      1.023      1.346
  Name = 
  5 active torsions:
  status: ('A' for Active; 'I' for Inactive)
    1  A    between atoms: O_1  and  C_8
    2  A    between atoms: C_8  and  C_19
    3  A    between atoms: C_9  and  C_22
    4  A    between atoms: C_9  and  C_23
    5  A    between atoms: C_19  and  C_22
                            x       y       z     vdW  Elec       q    Type
                         _______ _______ _______ _____ _____    ______ ____

>  <TORSDO>
F 5

$$$$
=
 OpenBabel11052422253D

 31 37  0  0  1  0  0  0  0  0999 V2000
  161.9730  211.3710  149.6800 C   0  0  0  0  0  0  0  0  0  0  0  0
  160.5800  208.4630  151.7080 C   0  0  1  0  0  3  0  0  0  0  0  0
  160.1980  209.3830  152.8480 C   0  0  0  0  0  0  0  0  0  0  0  0
  159.3240  211.6920  152.7250 C   0  0  0  0  0  3  0  0  0  0  0  0
  161.5080  209.1180  150.6950 C   0  0  2  0  0  0  0  0  0  0  0  0
  161.7270  210.7980  148.3260 C   0  0  0  0  0  2  0  0  0  0  0  0
  158.9930  210.2410  152.6350 C   0  0  0  0  0  2  0  0  0  0  0  0
  162.5400  206.9730  151.3370 C   0  0  1  0  0  3  0  0  0  0  0  0
  162.1600  212.6400  149.8230 N   0  0  0  0  0  2  0  0  0  0  0  0
  161.9240  208.3330  154.2810 C   0  0  0  0  0  2  0  0  0  0  0  0
  159.7840  212.2550  153.8400 C   0  0  0  0  0  3  0  0  0  0  0  0
  162.6940  208.2230  150.4320 C   0  0  1  0  0  3  0  0  0  0  0  0
  161.2860  207.1850  152.1760 C   0  0  2  0  0  0  0  0  0  0  0  0
  161.3730  205.9620  151.2800 C   0  0  1  0  0  3  0  0  0  0  0  0
  161.8650  210.5300  150.8280 N   0  0  0  0  0  2  0  0  0  0  0  0
  160.1040  211.5230  155.0790 C   0  0  0  0  0  3  0  0  0  0  0  0
  161.6660  208.4650  149.3230 C   0  0  2  0  0  3  0  0  0  0  0  0
  162.2940  209.3840  148.2720 C   0  0  0  0  0  2  0  0  0  0  0  0
  161.5670  206.9890  153.6580 C   0  0  0  0  0  2  0  0  0  0  0  0
  160.8400  209.3450  154.0390 C   0  0  0  0  0  0  0  0  0  0  0  0
  160.5520  210.2630  155.1620 C   0  0  0  0  0  3  0  0  0  0  0  0
  160.4620  206.0140  150.0560 C   0  0  0  0  0  2  0  0  0  0  0  0
  160.3950  205.5180  147.5960 C   0  0  0  0  0  2  0  0  0  0  0  0
  162.7690  205.0200  147.0730 C   0  0  0  0  0  1  0  0  0  0  0  0
  161.8370  205.9220  147.8660 C   0  0  2  0  0  3  0  0  0  0  0  0
  161.0300  205.1710  148.9230 C   0  0  1  0  0  0  0  0  0  0  0  0
  161.2010  203.6600  149.1080 C   0  0  2  0  0  3  0  0  0  0  0  0
  160.7440  202.9810  147.9770 O   0  0  0  0  0  1  0  0  0  0  0  0
  160.4530  203.1780  150.3400 C   0  0  0  0  0  2  0  0  0  0  0  0
  161.2340  202.2600  151.0420 O   0  0  0  0  0  0  0  0  0  0  0  0
  160.9740  201.0380  150.4250 C   0  0  0  0  0  1  0  0  0  0  0  0
  1  9  2  0  0  0  0
  1 15  1  0  0  0  0
  2 13  1  0  0  0  0
  2  3  1  1  0  0  0
  3 20  2  0  0  0  0
  4 11  2  0  0  0  0
  5 15  1  1  0  0  0
  5  2  1  0  0  0  0
  6  1  1  0  0  0  0
  7  4  1  0  0  0  0
  7  3  1  0  0  0  0
  8 13  1  0  0  0  0
 11 16  1  0  0  0  0
 12  5  1  0  0  0  0
 12  8  1  0  0  0  0
 13 19  1  0  0  0  0
 14  8  1  0  0  0  0
 14 13  1  0  0  0  0
 16 21  2  0  0  0  0
 17 12  1  0  0  0  0
 17  5  1  0  0  0  0
 18  6  1  0  0  0  0
 18 17  1  0  0  0  0
 19 10  1  0  0  0  0
 20 10  1  0  0  0  0
 20 21  1  0  0  0  0
 22 14  1  0  0  0  0
 23 25  1  0  0  0  0
 23 26  1  0  0  0  0
 24 25  1  0  0  0  0
 25 26  1  0  0  0  0
 26 27  1  0  0  0  0
 26 22  1  0  0  0  0
 27 29  1  0  0  0  0
 28 27  1  0  0  0  0
 29 30  1  0  0  0  0
 31 30  1  0  0  0  0
M  END
>  <MODEL>
7

>  <REMARK>
 VINA RESULT:      -4.2      1.068      2.304
  Name = 
  5 active torsions:
  status: ('A' for Active; 'I' for Inactive)
    1  A    between atoms: O_1  and  C_8
    2  A    between atoms: C_8  and  C_19
    3  A    between atoms: C_9  and  C_22
    4  A    between atoms: C_9  and  C_23
    5  A    between atoms: C_19  and  C_22
                            x       y       z     vdW  Elec       q    Type
                         _______ _______ _______ _____ _____    ______ ____

>  <TORSDO>
F 5

$$$$
