=
 OpenBabel11062408083D

 34 39  0  0  1  0  0  0  0  0999 V2000
  161.4500  207.0860  149.4840 C   0  0  0  0  0  0  0  0  0  0  0  0
  161.0470  205.7960  151.5170 C   0  0  0  0  0  0  0  0  0  0  0  0
  161.2080  208.2240  151.6260 C   0  0  0  0  0  0  0  0  0  0  0  0
  161.2130  209.3260  153.8680 N   0  0  0  0  0  0  0  0  0  0  0  0
  161.2210  204.6770  149.3730 C   0  0  0  0  0  3  0  0  0  0  0  0
  161.0480  204.6200  150.7610 C   0  0  0  0  0  3  0  0  0  0  0  0
  160.9230  206.8540  153.7190 C   0  0  0  0  0  3  0  0  0  0  0  0
  161.2170  207.0370  150.8750 C   0  0  0  0  0  0  0  0  0  0  0  0
  161.1440  210.6860  155.9430 N   0  0  0  0  0  2  0  0  0  0  0  0
  159.8390  208.7740  155.6840 O   0  0  0  0  0  0  0  0  0  0  0  0
  161.4310  205.9050  148.7360 C   0  0  0  0  0  3  0  0  0  0  0  0
  161.5350  209.4410  151.0100 C   0  0  0  0  0  0  0  0  0  0  0  0
  161.7240  208.3110  148.8680 C   0  0  0  0  0  3  0  0  0  0  0  0
  161.0110  205.7350  152.9910 C   0  0  0  0  0  3  0  0  0  0  0  0
  162.0800  210.3500  153.2740 C   0  0  0  0  0  2  0  0  0  0  0  0
  161.6570  210.6860  151.8360 C   0  0  2  0  0  3  0  0  0  0  0  0
  160.7000  209.5550  155.1920 C   0  0  0  0  0  0  0  0  0  0  0  0
  160.7190  208.1970  153.0600 C   0  0  2  0  0  3  0  0  0  0  0  0
  161.7820  209.4830  149.6320 C   0  0  0  0  0  3  0  0  0  0  0  0
  159.2560  211.0680  152.4740 C   0  0  0  0  0  2  0  0  0  0  0  0
  159.2170  213.3390  153.0100 C   0  0  0  0  0  1  0  0  0  0  0  0
  160.4180  211.5860  151.7610 C   0  0  1  0  0  0  0  0  0  0  0  0
  160.0530  212.1460  153.0890 N   0  0  0  0  0  0  0  0  0  0  0  0
  160.1500  212.4460  150.5390 C   0  0  0  0  0  0  0  0  0  0  0  0
  161.1570  212.9100  149.8000 C   0  0  0  0  0  2  0  0  0  0  0  0
  158.4790  212.9670  150.1460 S   0  0  0  0  0  1  0  0  0  0  0  0
  160.6090  211.0010  157.2580 C   0  0  0  0  0  2  0  0  0  0  0  0
  160.8340  213.9640  157.2610 C   0  0  0  0  0  1  0  0  0  0  0  0
  159.4090  211.8770  157.1160 C   0  0  0  0  0  0  0  0  0  0  0  0
  159.5150  213.2820  157.1290 C   0  0  0  0  0  0  0  0  0  0  0  0
  157.1070  213.4610  156.9000 C   0  0  0  0  0  3  0  0  0  0  0  0
  157.0010  212.0680  156.8940 C   0  0  0  0  0  3  0  0  0  0  0  0
  158.1490  211.2790  157.0050 C   0  0  0  0  0  3  0  0  0  0  0  0
  158.3620  214.0650  157.0180 C   0  0  0  0  0  3  0  0  0  0  0  0
  1  8  1  0  0  0  0
  2 14  1  0  0  0  0
  3 18  1  0  0  0  0
  4 17  1  0  0  0  0
  5  6  1  0  0  0  0
  6  2  2  0  0  0  0
  8  2  1  0  0  0  0
  8  3  2  0  0  0  0
  9 27  1  0  0  0  0
 11  5  2  0  0  0  0
 11  1  1  0  0  0  0
 12  3  1  0  0  0  0
 12 16  1  0  0  0  0
 13  1  2  0  0  0  0
 13 19  1  0  0  0  0
 14  7  2  0  0  0  0
 15  4  1  0  0  0  0
 16 15  1  1  0  0  0
 17 10  2  0  0  0  0
 17  9  1  0  0  0  0
 18  7  1  1  0  0  0
 18  4  1  0  0  0  0
 19 12  2  0  0  0  0
 20 23  1  0  0  0  0
 21 23  1  0  0  0  0
 22 24  1  6  0  0  0
 22 16  1  0  0  0  0
 22 20  1  0  0  0  0
 22 23  1  0  0  0  0
 25 24  2  0  0  0  0
 26 24  1  0  0  0  0
 29 30  1  0  0  0  0
 29 27  1  0  0  0  0
 30 28  1  0  0  0  0
 31 34  1  0  0  0  0
 32 31  2  0  0  0  0
 32 33  1  0  0  0  0
 33 29  2  0  0  0  0
 34 30  2  0  0  0  0
M  END
>  <MODEL>
1

>  <REMARK>
 VINA RESULT:      -6.8      0.000      0.000
  Name = 
  4 active torsions:
  status: ('A' for Active; 'I' for Inactive)
    1  A    between atoms: C_3  and  C_13
    2  A    between atoms: C_3  and  N_17
    3  A    between atoms: C_7  and  C_23
    4  A    between atoms: C_23  and  C_28
                            x       y       z     vdW  Elec       q    Type
                         _______ _______ _______ _____ _____    ______ ____

>  <TORSDO>
F 4

$$$$
=
 OpenBabel11062408083D

 34 39  0  0  1  0  0  0  0  0999 V2000
  161.5330  203.9480  147.9670 C   0  0  0  0  0  0  0  0  0  0  0  0
  160.6230  202.8230  149.9330 C   0  0  0  0  0  0  0  0  0  0  0  0
  161.5270  205.0760  150.1290 C   0  0  0  0  0  0  0  0  0  0  0  0
  161.7390  206.0900  152.4020 N   0  0  0  0  0  0  0  0  0  0  0  0
  160.5700  201.7340  147.7670 C   0  0  0  0  0  3  0  0  0  0  0  0
  160.3030  201.7170  149.1410 C   0  0  0  0  0  3  0  0  0  0  0  0
  160.7000  203.8360  152.1570 C   0  0  0  0  0  3  0  0  0  0  0  0
  161.2110  203.9560  149.3410 C   0  0  0  0  0  0  0  0  0  0  0  0
  161.9700  207.3750  154.5130 N   0  0  0  0  0  2  0  0  0  0  0  0
  160.1520  205.9730  154.1220 O   0  0  0  0  0  0  0  0  0  0  0  0
  161.1920  202.8440  147.1820 C   0  0  0  0  0  3  0  0  0  0  0  0
  162.2550  206.1370  149.5710 C   0  0  0  0  0  0  0  0  0  0  0  0
  162.2140  205.0340  147.4060 C   0  0  0  0  0  3  0  0  0  0  0  0
  160.4790  202.7560  151.4000 C   0  0  0  0  0  3  0  0  0  0  0  0
  162.9170  206.7980  151.8880 C   0  0  0  0  0  2  0  0  0  0  0  0
  162.7100  207.2700  150.4420 C   0  0  2  0  0  3  0  0  0  0  0  0
  161.2420  206.4500  153.7020 C   0  0  0  0  0  0  0  0  0  0  0  0
  160.9680  205.1840  151.5320 C   0  0  2  0  0  3  0  0  0  0  0  0
  162.5880  206.1180  148.2100 C   0  0  0  0  0  3  0  0  0  0  0  0
  160.6120  208.4650  151.1450 C   0  0  0  0  0  2  0  0  0  0  0  0
  161.3430  210.6620  151.4390 C   0  0  0  0  0  1  0  0  0  0  0  0
  161.8210  208.5130  150.3280 C   0  0  1  0  0  0  0  0  0  0  0  0
  161.7570  209.2730  151.6050 N   0  0  0  0  0  0  0  0  0  0  0  0
  161.7470  209.3070  149.0360 C   0  0  0  0  0  0  0  0  0  0  0  0
  161.2960  208.7430  147.9160 C   0  0  0  0  0  2  0  0  0  0  0  0
  162.3930  210.9790  148.9610 S   0  0  0  0  0  1  0  0  0  0  0  0
  161.4810  207.8240  155.8060 C   0  0  0  0  0  2  0  0  0  0  0  0
  162.9480  209.9590  157.2610 C   0  0  0  0  0  1  0  0  0  0  0  0
  161.0680  209.2550  155.7180 C   0  0  0  0  0  0  0  0  0  0  0  0
  161.7570  210.2660  156.4180 C   0  0  0  0  0  0  0  0  0  0  0  0
  160.2060  211.9170  155.5520 C   0  0  0  0  0  3  0  0  0  0  0  0
  159.5180  210.9140  154.8640 C   0  0  0  0  0  3  0  0  0  0  0  0
  159.9470  209.5870  154.9500 C   0  0  0  0  0  3  0  0  0  0  0  0
  161.3220  211.5920  156.3270 C   0  0  0  0  0  3  0  0  0  0  0  0
  1  8  1  0  0  0  0
  2 14  1  0  0  0  0
  3 18  1  0  0  0  0
  4 17  1  0  0  0  0
  5  6  1  0  0  0  0
  6  2  2  0  0  0  0
  8  2  1  0  0  0  0
  8  3  2  0  0  0  0
  9 27  1  0  0  0  0
 11  5  2  0  0  0  0
 11  1  1  0  0  0  0
 12  3  1  0  0  0  0
 12 16  1  0  0  0  0
 13  1  2  0  0  0  0
 13 19  1  0  0  0  0
 14  7  2  0  0  0  0
 15  4  1  0  0  0  0
 16 15  1  1  0  0  0
 17 10  2  0  0  0  0
 17  9  1  0  0  0  0
 18  7  1  1  0  0  0
 18  4  1  0  0  0  0
 19 12  2  0  0  0  0
 20 23  1  0  0  0  0
 21 23  1  0  0  0  0
 22 24  1  6  0  0  0
 22 16  1  0  0  0  0
 22 20  1  0  0  0  0
 22 23  1  0  0  0  0
 25 24  2  0  0  0  0
 26 24  1  0  0  0  0
 29 27  1  0  0  0  0
 29 30  1  0  0  0  0
 30 28  1  0  0  0  0
 31 34  1  0  0  0  0
 32 33  1  0  0  0  0
 32 31  2  0  0  0  0
 33 29  2  0  0  0  0
 34 30  2  0  0  0  0
M  END
>  <MODEL>
2

>  <REMARK>
 VINA RESULT:      -5.7      2.250      3.662
  Name = 
  4 active torsions:
  status: ('A' for Active; 'I' for Inactive)
    1  A    between atoms: C_3  and  C_13
    2  A    between atoms: C_3  and  N_17
    3  A    between atoms: C_7  and  C_23
    4  A    between atoms: C_23  and  C_28
                            x       y       z     vdW  Elec       q    Type
                         _______ _______ _______ _____ _____    ______ ____

>  <TORSDO>
F 4

$$$$
=
 OpenBabel11062408083D

 34 39  0  0  1  0  0  0  0  0999 V2000
  160.6060  202.3640  147.9300 C   0  0  0  0  0  0  0  0  0  0  0  0
  161.5110  203.8960  146.2580 C   0  0  0  0  0  0  0  0  0  0  0  0
  161.0620  204.6860  148.5180 C   0  0  0  0  0  0  0  0  0  0  0  0
  161.2980  207.1240  149.0050 N   0  0  0  0  0  0  0  0  0  0  0  0
  161.1180  201.5690  145.7000 C   0  0  0  0  0  3  0  0  0  0  0  0
  161.5310  202.8540  145.3270 C   0  0  0  0  0  3  0  0  0  0  0  0
  161.8720  206.2670  146.7350 C   0  0  0  0  0  3  0  0  0  0  0  0
  161.0770  203.6450  147.5740 C   0  0  0  0  0  0  0  0  0  0  0  0
  161.5460  209.4650  149.7930 N   0  0  0  0  0  2  0  0  0  0  0  0
  163.0200  208.5250  148.2550 O   0  0  0  0  0  0  0  0  0  0  0  0
  160.6470  201.3260  146.9960 C   0  0  0  0  0  3  0  0  0  0  0  0
  160.4820  204.4750  149.7780 C   0  0  0  0  0  0  0  0  0  0  0  0
  160.0760  202.1480  149.2070 C   0  0  0  0  0  3  0  0  0  0  0  0
  161.8040  205.2790  145.8360 C   0  0  0  0  0  3  0  0  0  0  0  0
  160.2190  206.9510  149.9850 C   0  0  0  0  0  2  0  0  0  0  0  0
  160.3440  205.6190  150.7370 C   0  0  2  0  0  3  0  0  0  0  0  0
  161.9950  208.3810  148.9770 C   0  0  0  0  0  0  0  0  0  0  0  0
  161.7870  205.9800  148.2150 C   0  0  2  0  0  3  0  0  0  0  0  0
  160.0000  203.2050  150.1220 C   0  0  0  0  0  3  0  0  0  0  0  0
  162.1000  204.3510  152.0140 C   0  0  0  0  0  2  0  0  0  0  0  0
  163.8610  205.8800  152.1270 C   0  0  0  0  0  1  0  0  0  0  0  0
  161.4270  205.6310  151.8220 C   0  0  1  0  0  0  0  0  0  0  0  0
  162.7860  205.4160  151.2570 N   0  0  0  0  0  0  0  0  0  0  0  0
  161.3080  206.5360  153.0350 C   0  0  0  0  0  0  0  0  0  0  0  0
  161.1350  206.0220  154.2520 C   0  0  0  0  0  2  0  0  0  0  0  0
  161.2640  208.3180  152.8370 S   0  0  0  0  0  1  0  0  0  0  0  0
  162.2520  210.7350  149.8530 C   0  0  0  0  0  2  0  0  0  0  0  0
  160.3560  212.5920  151.1890 C   0  0  0  0  0  1  0  0  0  0  0  0
  161.4950  211.7670  149.0840 C   0  0  0  0  0  0  0  0  0  0  0  0
  160.5880  212.6390  149.7170 C   0  0  0  0  0  0  0  0  0  0  0  0
  160.0670  213.6450  147.5720 C   0  0  0  0  0  3  0  0  0  0  0  0
  160.9620  212.7750  146.9430 C   0  0  0  0  0  3  0  0  0  0  0  0
  161.6710  211.8370  147.6980 C   0  0  0  0  0  3  0  0  0  0  0  0
  159.8810  213.5760  148.9550 C   0  0  0  0  0  3  0  0  0  0  0  0
  1 13  1  0  0  0  0
  2  8  1  0  0  0  0
  3 12  2  0  0  0  0
  4 15  1  0  0  0  0
  5 11  2  0  0  0  0
  6  5  1  0  0  0  0
  6  2  2  0  0  0  0
  8  1  2  0  0  0  0
  8  3  1  0  0  0  0
  9 27  1  0  0  0  0
 10 17  2  0  0  0  0
 11  1  1  0  0  0  0
 12 19  1  0  0  0  0
 12 16  1  0  0  0  0
 13 19  2  0  0  0  0
 14  2  1  0  0  0  0
 14  7  2  0  0  0  0
 16 15  1  6  0  0  0
 16 22  1  0  0  0  0
 17  4  1  0  0  0  0
 17  9  1  0  0  0  0
 18  7  1  6  0  0  0
 18  3  1  0  0  0  0
 18  4  1  0  0  0  0
 22 20  1  0  0  0  0
 22 24  1  1  0  0  0
 23 22  1  0  0  0  0
 23 20  1  0  0  0  0
 23 21  1  0  0  0  0
 24 25  2  0  0  0  0
 26 24  1  0  0  0  0
 29 30  1  0  0  0  0
 29 27  1  0  0  0  0
 30 28  1  0  0  0  0
 31 34  1  0  0  0  0
 32 31  2  0  0  0  0
 32 33  1  0  0  0  0
 33 29  2  0  0  0  0
 34 30  2  0  0  0  0
M  END
>  <MODEL>
3

>  <REMARK>
 VINA RESULT:      -5.5      4.046      6.912
  Name = 
  4 active torsions:
  status: ('A' for Active; 'I' for Inactive)
    1  A    between atoms: C_3  and  C_13
    2  A    between atoms: C_3  and  N_17
    3  A    between atoms: C_7  and  C_23
    4  A    between atoms: C_23  and  C_28
                            x       y       z     vdW  Elec       q    Type
                         _______ _______ _______ _____ _____    ______ ____

>  <TORSDO>
F 4

$$$$
=
 OpenBabel11062408083D

 34 39  0  0  1  0  0  0  0  0999 V2000
  160.5320  202.1330  148.2120 C   0  0  0  0  0  0  0  0  0  0  0  0
  161.4740  203.5200  146.4370 C   0  0  0  0  0  0  0  0  0  0  0  0
  161.0240  204.4850  148.6270 C   0  0  0  0  0  0  0  0  0  0  0  0
  161.2980  206.9490  148.9310 N   0  0  0  0  0  0  0  0  0  0  0  0
  161.0450  201.1650  146.0520 C   0  0  0  0  0  3  0  0  0  0  0  0
  161.4830  202.4110  145.5870 C   0  0  0  0  0  3  0  0  0  0  0  0
  161.8730  205.9140  146.7370 C   0  0  0  0  0  3  0  0  0  0  0  0
  161.0270  203.3770  147.7640 C   0  0  0  0  0  0  0  0  0  0  0  0
  161.5810  209.3390  149.5430 N   0  0  0  0  0  2  0  0  0  0  0  0
  163.0490  208.2610  148.0910 O   0  0  0  0  0  0  0  0  0  0  0  0
  160.5620  201.0280  147.3580 C   0  0  0  0  0  3  0  0  0  0  0  0
  160.4330  204.3790  149.8950 C   0  0  0  0  0  0  0  0  0  0  0  0
  159.9910  202.0240  149.4970 C   0  0  0  0  0  3  0  0  0  0  0  0
  161.7940  204.8620  145.9140 C   0  0  0  0  0  3  0  0  0  0  0  0
  160.2100  206.8690  149.9120 C   0  0  0  0  0  2  0  0  0  0  0  0
  160.3080  205.5950  150.7640 C   0  0  2  0  0  3  0  0  0  0  0  0
  162.0170  208.1890  148.8140 C   0  0  0  0  0  0  0  0  0  0  0  0
  161.7730  205.7410  148.2330 C   0  0  2  0  0  3  0  0  0  0  0  0
  159.9270  203.1480  150.3290 C   0  0  0  0  0  3  0  0  0  0  0  0
  162.0540  204.4040  152.1250 C   0  0  0  0  0  2  0  0  0  0  0  0
  163.8160  205.9360  152.1590 C   0  0  0  0  0  1  0  0  0  0  0  0
  161.3840  205.6710  151.8530 C   0  0  1  0  0  0  0  0  0  0  0  0
  162.7460  205.4220  151.3110 N   0  0  0  0  0  0  0  0  0  0  0  0
  161.2570  206.6460  153.0100 C   0  0  0  0  0  0  0  0  0  0  0  0
  161.0060  206.2090  154.2440 C   0  0  0  0  0  2  0  0  0  0  0  0
  161.3100  208.4150  152.7150 S   0  0  0  0  0  1  0  0  0  0  0  0
  162.3080  210.5970  149.5120 C   0  0  0  0  0  2  0  0  0  0  0  0
  161.7600  212.6970  147.4830 C   0  0  0  0  0  1  0  0  0  0  0  0
  161.3710  211.7250  149.7880 C   0  0  0  0  0  0  0  0  0  0  0  0
  161.1200  212.7270  148.8300 C   0  0  0  0  0  0  0  0  0  0  0  0
  159.6400  213.8460  150.3930 C   0  0  0  0  0  3  0  0  0  0  0  0
  159.8940  212.8560  151.3460 C   0  0  0  0  0  3  0  0  0  0  0  0
  160.7590  211.8010  151.0440 C   0  0  0  0  0  3  0  0  0  0  0  0
  160.2530  213.7810  149.1380 C   0  0  0  0  0  3  0  0  0  0  0  0
  1 13  1  0  0  0  0
  2  8  1  0  0  0  0
  3 12  2  0  0  0  0
  4 15  1  0  0  0  0
  5 11  2  0  0  0  0
  6  5  1  0  0  0  0
  6  2  2  0  0  0  0
  8  1  2  0  0  0  0
  8  3  1  0  0  0  0
 10 17  2  0  0  0  0
 11  1  1  0  0  0  0
 12 19  1  0  0  0  0
 12 16  1  0  0  0  0
 13 19  2  0  0  0  0
 14  2  1  0  0  0  0
 14  7  2  0  0  0  0
 16 15  1  6  0  0  0
 16 22  1  0  0  0  0
 17  4  1  0  0  0  0
 17  9  1  0  0  0  0
 18  7  1  6  0  0  0
 18  3  1  0  0  0  0
 18  4  1  0  0  0  0
 22 20  1  0  0  0  0
 22 24  1  1  0  0  0
 23 22  1  0  0  0  0
 23 20  1  0  0  0  0
 23 21  1  0  0  0  0
 24 25  2  0  0  0  0
 26 24  1  0  0  0  0
 27  9  1  0  0  0  0
 27 29  1  0  0  0  0
 28 30  1  0  0  0  0
 29 33  1  0  0  0  0
 30 34  1  0  0  0  0
 30 29  2  0  0  0  0
 31 32  1  0  0  0  0
 33 32  2  0  0  0  0
 34 31  2  0  0  0  0
M  END
>  <MODEL>
4

>  <REMARK>
 VINA RESULT:      -5.5      3.960      6.695
  Name = 
  4 active torsions:
  status: ('A' for Active; 'I' for Inactive)
    1  A    between atoms: C_3  and  C_13
    2  A    between atoms: C_3  and  N_17
    3  A    between atoms: C_7  and  C_23
    4  A    between atoms: C_23  and  C_28
                            x       y       z     vdW  Elec       q    Type
                         _______ _______ _______ _____ _____    ______ ____

>  <TORSDO>
F 4

$$$$
=
 OpenBabel11062408083D

 34 39  0  0  1  0  0  0  0  0999 V2000
  160.7600  202.8510  149.2550 C   0  0  0  0  0  0  0  0  0  0  0  0
  161.7660  203.7440  147.2170 C   0  0  0  0  0  0  0  0  0  0  0  0
  161.2220  205.2370  149.0630 C   0  0  0  0  0  0  0  0  0  0  0  0
  161.4690  207.7000  148.7260 N   0  0  0  0  0  0  0  0  0  0  0  0
  161.3660  201.3630  147.4420 C   0  0  0  0  0  3  0  0  0  0  0  0
  161.8160  202.4520  146.6860 C   0  0  0  0  0  3  0  0  0  0  0  0
  162.1390  206.1400  146.8990 C   0  0  0  0  0  3  0  0  0  0  0  0
  161.2660  203.9430  148.5180 C   0  0  0  0  0  0  0  0  0  0  0  0
  161.7140  210.1700  148.7050 N   0  0  0  0  0  2  0  0  0  0  0  0
  163.2460  208.7760  147.6410 O   0  0  0  0  0  0  0  0  0  0  0  0
  160.8310  201.5620  148.7200 C   0  0  0  0  0  3  0  0  0  0  0  0
  160.5800  205.4540  150.2910 C   0  0  0  0  0  0  0  0  0  0  0  0
  160.1680  203.0690  150.5020 C   0  0  0  0  0  3  0  0  0  0  0  0
  162.0990  204.9090  146.3760 C   0  0  0  0  0  3  0  0  0  0  0  0
  160.3430  207.8590  149.6520 C   0  0  0  0  0  2  0  0  0  0  0  0
  160.4130  206.8510  150.8090 C   0  0  2  0  0  3  0  0  0  0  0  0
  162.1860  208.8780  148.3180 C   0  0  0  0  0  0  0  0  0  0  0  0
  161.9790  206.3600  148.3840 C   0  0  2  0  0  3  0  0  0  0  0  0
  160.0640  204.3700  151.0110 C   0  0  0  0  0  3  0  0  0  0  0  0
  162.3220  208.3290  151.5100 C   0  0  0  0  0  2  0  0  0  0  0  0
  161.8200  208.7990  153.7410 C   0  0  0  0  0  1  0  0  0  0  0  0
  161.4430  207.2250  151.8800 C   0  0  1  0  0  0  0  0  0  0  0  0
  161.2030  208.5830  152.4370 N   0  0  0  0  0  0  0  0  0  0  0  0
  162.0130  206.1750  152.8170 C   0  0  0  0  0  0  0  0  0  0  0  0
  163.1210  205.5070  152.4960 C   0  0  0  0  0  2  0  0  0  0  0  0
  161.1330  205.7190  154.3120 S   0  0  0  0  0  1  0  0  0  0  0  0
  162.4340  211.3890  148.3760 C   0  0  0  0  0  2  0  0  0  0  0  0
  163.0900  214.2580  147.9700 C   0  0  0  0  0  1  0  0  0  0  0  0
  161.5640  212.2810  147.5560 C   0  0  0  0  0  0  0  0  0  0  0  0
  161.8690  213.6450  147.3730 C   0  0  0  0  0  0  0  0  0  0  0  0
  159.8540  213.9130  146.0490 C   0  0  0  0  0  3  0  0  0  0  0  0
  159.5480  212.5630  146.2360 C   0  0  0  0  0  3  0  0  0  0  0  0
  160.3990  211.7510  146.9900 C   0  0  0  0  0  3  0  0  0  0  0  0
  161.0120  214.4520  146.6180 C   0  0  0  0  0  3  0  0  0  0  0  0
  1 13  1  0  0  0  0
  2  8  1  0  0  0  0
  3 12  2  0  0  0  0
  4 15  1  0  0  0  0
  5 11  2  0  0  0  0
  6  2  2  0  0  0  0
  6  5  1  0  0  0  0
  8  3  1  0  0  0  0
  8  1  2  0  0  0  0
 10 17  2  0  0  0  0
 11  1  1  0  0  0  0
 12 16  1  0  0  0  0
 12 19  1  0  0  0  0
 13 19  2  0  0  0  0
 14  7  2  0  0  0  0
 14  2  1  0  0  0  0
 16 15  1  6  0  0  0
 16 22  1  0  0  0  0
 17  9  1  0  0  0  0
 17  4  1  0  0  0  0
 18  7  1  6  0  0  0
 18  4  1  0  0  0  0
 18  3  1  0  0  0  0
 20 22  1  0  0  0  0
 20 23  1  0  0  0  0
 22 23  1  0  0  0  0
 22 24  1  1  0  0  0
 23 21  1  0  0  0  0
 24 26  1  0  0  0  0
 25 24  2  0  0  0  0
 27  9  1  0  0  0  0
 29 27  1  0  0  0  0
 30 29  1  0  0  0  0
 30 28  1  0  0  0  0
 31 32  2  0  0  0  0
 31 34  1  0  0  0  0
 32 33  1  0  0  0  0
 33 29  2  0  0  0  0
 34 30  2  0  0  0  0
M  END
>  <MODEL>
5

>  <REMARK>
 VINA RESULT:      -5.3      4.167      7.044
  Name = 
  4 active torsions:
  status: ('A' for Active; 'I' for Inactive)
    1  A    between atoms: C_3  and  C_13
    2  A    between atoms: C_3  and  N_17
    3  A    between atoms: C_7  and  C_23
    4  A    between atoms: C_23  and  C_28
                            x       y       z     vdW  Elec       q    Type
                         _______ _______ _______ _____ _____    ______ ____

>  <TORSDO>
F 4

$$$$
=
 OpenBabel11062408083D

 34 39  0  0  1  0  0  0  0  0999 V2000
  160.6750  208.2790  154.8590 C   0  0  0  0  0  0  0  0  0  0  0  0
  160.6080  210.1070  153.2420 C   0  0  0  0  0  0  0  0  0  0  0  0
  161.2630  207.8720  152.5270 C   0  0  0  0  0  0  0  0  0  0  0  0
  162.1030  207.5560  150.1970 N   0  0  0  0  0  0  0  0  0  0  0  0
  159.9610  210.4890  155.5470 C   0  0  0  0  0  3  0  0  0  0  0  0
  160.1710  210.9710  154.2500 C   0  0  0  0  0  3  0  0  0  0  0  0
  161.3070  209.8070  150.9180 C   0  0  0  0  0  3  0  0  0  0  0  0
  160.8320  208.7490  153.5370 C   0  0  0  0  0  0  0  0  0  0  0  0
  162.8770  206.9360  147.9210 N   0  0  0  0  0  2  0  0  0  0  0  0
  161.2060  208.5220  148.2600 O   0  0  0  0  0  0  0  0  0  0  0  0
  160.2210  209.1480  155.8540 C   0  0  0  0  0  3  0  0  0  0  0  0
  161.6360  206.5610  152.8560 C   0  0  0  0  0  0  0  0  0  0  0  0
  161.0010  206.9550  155.1680 C   0  0  0  0  0  3  0  0  0  0  0  0
  160.9710  210.6350  151.9130 C   0  0  0  0  0  3  0  0  0  0  0  0
  162.9530  206.4880  150.7330 C   0  0  0  0  0  2  0  0  0  0  0  0
  162.2230  205.6660  151.8060 C   0  0  2  0  0  3  0  0  0  0  0  0
  162.0320  207.7160  148.7690 C   0  0  0  0  0  0  0  0  0  0  0  0
  161.1950  208.3100  151.0790 C   0  0  2  0  0  3  0  0  0  0  0  0
  161.4960  206.1030  154.1730 C   0  0  0  0  0  3  0  0  0  0  0  0
  160.0810  205.2930  150.5440 C   0  0  0  0  0  2  0  0  0  0  0  0
  160.6160  203.5100  149.1340 C   0  0  0  0  0  1  0  0  0  0  0  0
  161.2110  204.6720  151.2260 C   0  0  1  0  0  0  0  0  0  0  0  0
  161.1740  204.7140  149.7400 N   0  0  0  0  0  0  0  0  0  0  0  0
  160.9610  203.3320  151.8950 C   0  0  0  0  0  0  0  0  0  0  0  0
  159.9580  203.1810  152.7600 C   0  0  0  0  0  2  0  0  0  0  0  0
  162.0910  201.9630  151.6360 S   0  0  0  0  0  1  0  0  0  0  0  0
  162.8000  207.0090  146.4710 C   0  0  0  0  0  2  0  0  0  0  0  0
  163.8340  204.2480  146.1050 C   0  0  0  0  0  1  0  0  0  0  0  0
  161.9300  205.9100  145.9590 C   0  0  0  0  0  0  0  0  0  0  0  0
  162.4240  204.6030  145.7740 C   0  0  0  0  0  0  0  0  0  0  0  0
  160.2560  203.9060  144.9400 C   0  0  0  0  0  3  0  0  0  0  0  0
  159.7680  205.2040  145.1160 C   0  0  0  0  0  3  0  0  0  0  0  0
  160.6040  206.2020  145.6210 C   0  0  0  0  0  3  0  0  0  0  0  0
  161.5810  203.6090  145.2680 C   0  0  0  0  0  3  0  0  0  0  0  0
  1 13  1  0  0  0  0
  1 11  2  0  0  0  0
  2  8  2  0  0  0  0
  2  6  1  0  0  0  0
  3 12  2  0  0  0  0
  3  8  1  0  0  0  0
  4 15  1  0  0  0  0
  4 18  1  0  0  0  0
  5 11  1  0  0  0  0
  6  5  2  0  0  0  0
  7 14  2  0  0  0  0
  8  1  1  0  0  0  0
  9 17  1  0  0  0  0
 10 17  2  0  0  0  0
 12 19  1  0  0  0  0
 14  2  1  0  0  0  0
 16 15  1  6  0  0  0
 16 12  1  0  0  0  0
 17  4  1  0  0  0  0
 18  7  1  1  0  0  0
 18  3  1  0  0  0  0
 19 13  2  0  0  0  0
 20 22  1  0  0  0  0
 21 23  1  0  0  0  0
 22 16  1  0  0  0  0
 22 24  1  1  0  0  0
 23 20  1  0  0  0  0
 23 22  1  0  0  0  0
 24 25  2  0  0  0  0
 26 24  1  0  0  0  0
 27  9  1  0  0  0  0
 29 27  1  0  0  0  0
 30 29  1  0  0  0  0
 30 28  1  0  0  0  0
 31 32  2  0  0  0  0
 31 34  1  0  0  0  0
 32 33  1  0  0  0  0
 33 29  2  0  0  0  0
 34 30  2  0  0  0  0
M  END
>  <MODEL>
6

>  <REMARK>
 VINA RESULT:      -5.2      3.577      9.124
  Name = 
  4 active torsions:
  status: ('A' for Active; 'I' for Inactive)
    1  A    between atoms: C_3  and  C_13
    2  A    between atoms: C_3  and  N_17
    3  A    between atoms: C_7  and  C_23
    4  A    between atoms: C_23  and  C_28
                            x       y       z     vdW  Elec       q    Type
                         _______ _______ _______ _____ _____    ______ ____

>  <TORSDO>
F 4

$$$$
=
 OpenBabel11062408083D

 34 39  0  0  1  0  0  0  0  0999 V2000
  160.7520  210.8470  154.8470 C   0  0  0  0  0  0  0  0  0  0  0  0
  161.0530  208.7110  155.9890 C   0  0  0  0  0  0  0  0  0  0  0  0
  160.9260  208.7850  153.5570 C   0  0  0  0  0  0  0  0  0  0  0  0
  160.8500  206.6320  152.2940 N   0  0  0  0  0  0  0  0  0  0  0  0
  160.9460  210.7720  157.2610 C   0  0  0  0  0  3  0  0  0  0  0  0
  161.0630  209.3780  157.2170 C   0  0  0  0  0  3  0  0  0  0  0  0
  161.1070  206.5890  154.7740 C   0  0  0  0  0  3  0  0  0  0  0  0
  160.9290  209.4480  154.7970 C   0  0  0  0  0  0  0  0  0  0  0  0
  160.8590  204.6600  150.7860 N   0  0  0  0  0  2  0  0  0  0  0  0
  162.1420  204.7260  152.7290 O   0  0  0  0  0  0  0  0  0  0  0  0
  160.7810  211.5050  156.0800 C   0  0  0  0  0  3  0  0  0  0  0  0
  160.6440  209.5010  152.3850 C   0  0  0  0  0  0  0  0  0  0  0  0
  160.5210  211.5620  153.6670 C   0  0  0  0  0  3  0  0  0  0  0  0
  161.0290  207.2360  155.9420 C   0  0  0  0  0  3  0  0  0  0  0  0
  160.0240  207.3340  151.3050 C   0  0  0  0  0  2  0  0  0  0  0  0
  160.5080  208.7740  151.0810 C   0  0  2  0  0  3  0  0  0  0  0  0
  161.3130  205.3090  151.9760 C   0  0  0  0  0  0  0  0  0  0  0  0
  161.3570  207.3350  153.4860 C   0  0  2  0  0  3  0  0  0  0  0  0
  160.4520  210.8880  152.4410 C   0  0  0  0  0  3  0  0  0  0  0  0
  162.7080  207.7680  150.3960 C   0  0  0  0  0  2  0  0  0  0  0  0
  162.7050  208.0490  148.0780 C   0  0  0  0  0  1  0  0  0  0  0  0
  161.7630  208.8640  150.2060 C   0  0  1  0  0  0  0  0  0  0  0  0
  161.8310  207.7620  149.2100 N   0  0  0  0  0  0  0  0  0  0  0  0
  162.3400  210.2090  149.8020 C   0  0  0  0  0  0  0  0  0  0  0  0
  163.3220  210.7680  150.5100 C   0  0  0  0  0  2  0  0  0  0  0  0
  161.6210  211.1340  148.4440 S   0  0  0  0  0  1  0  0  0  0  0  0
  161.3450  203.3510  150.3830 C   0  0  0  0  0  2  0  0  0  0  0  0
  160.7990  200.7630  149.0300 C   0  0  0  0  0  1  0  0  0  0  0  0
  161.3090  203.2390  148.8950 C   0  0  0  0  0  0  0  0  0  0  0  0
  161.0620  202.0080  148.2540 C   0  0  0  0  0  0  0  0  0  0  0  0
  161.3100  203.0880  146.0960 C   0  0  0  0  0  3  0  0  0  0  0  0
  161.5620  204.3070  146.7310 C   0  0  0  0  0  3  0  0  0  0  0  0
  161.5650  204.3800  148.1260 C   0  0  0  0  0  3  0  0  0  0  0  0
  161.0610  201.9420  146.8570 C   0  0  0  0  0  3  0  0  0  0  0  0
  1 11  2  0  0  0  0
  2  6  1  0  0  0  0
  3  8  1  0  0  0  0
  4 18  1  0  0  0  0
  6  5  2  0  0  0  0
  7 14  2  0  0  0  0
  8  1  1  0  0  0  0
  8  2  2  0  0  0  0
  9 17  1  0  0  0  0
 11  5  1  0  0  0  0
 12 19  1  0  0  0  0
 12  3  2  0  0  0  0
 13  1  1  0  0  0  0
 14  2  1  0  0  0  0
 15  4  1  0  0  0  0
 16 15  1  1  0  0  0
 16 12  1  0  0  0  0
 17  4  1  0  0  0  0
 17 10  2  0  0  0  0
 18  3  1  0  0  0  0
 18  7  1  1  0  0  0
 19 13  2  0  0  0  0
 21 23  1  0  0  0  0
 22 24  1  6  0  0  0
 22 20  1  0  0  0  0
 22 16  1  0  0  0  0
 23 22  1  0  0  0  0
 23 20  1  0  0  0  0
 24 25  2  0  0  0  0
 26 24  1  0  0  0  0
 27  9  1  0  0  0  0
 29 27  1  0  0  0  0
 30 29  1  0  0  0  0
 30 28  1  0  0  0  0
 31 32  2  0  0  0  0
 31 34  1  0  0  0  0
 32 33  1  0  0  0  0
 33 29  2  0  0  0  0
 34 30  2  0  0  0  0
M  END
>  <MODEL>
7

>  <REMARK>
 VINA RESULT:      -5.0      2.631      8.163
  Name = 
  4 active torsions:
  status: ('A' for Active; 'I' for Inactive)
    1  A    between atoms: C_3  and  C_13
    2  A    between atoms: C_3  and  N_17
    3  A    between atoms: C_7  and  C_23
    4  A    between atoms: C_23  and  C_28
                            x       y       z     vdW  Elec       q    Type
                         _______ _______ _______ _____ _____    ______ ____

>  <TORSDO>
F 4

$$$$
=
 OpenBabel11062408083D

 34 39  0  0  1  0  0  0  0  0999 V2000
  161.6860  206.4950  148.6700 C   0  0  0  0  0  0  0  0  0  0  0  0
  160.9710  205.6240  150.8360 C   0  0  0  0  0  0  0  0  0  0  0  0
  161.5070  207.9870  150.5910 C   0  0  0  0  0  0  0  0  0  0  0  0
  161.5600  209.4230  152.6340 N   0  0  0  0  0  0  0  0  0  0  0  0
  161.0860  204.1600  148.9060 C   0  0  0  0  0  3  0  0  0  0  0  0
  160.8280  204.3540  150.2680 C   0  0  0  0  0  3  0  0  0  0  0  0
  160.8910  207.0290  152.8360 C   0  0  0  0  0  3  0  0  0  0  0  0
  161.3700  206.7060  150.0300 C   0  0  0  0  0  0  0  0  0  0  0  0
  161.5890  211.0950  154.4690 N   0  0  0  0  0  2  0  0  0  0  0  0
  160.0160  209.3790  154.3970 O   0  0  0  0  0  0  0  0  0  0  0  0
  161.5230  205.2260  148.1100 C   0  0  0  0  0  3  0  0  0  0  0  0
  162.0550  209.0280  149.8270 C   0  0  0  0  0  0  0  0  0  0  0  0
  162.1840  207.5520  147.9010 C   0  0  0  0  0  3  0  0  0  0  0  0
  160.8430  205.8070  152.2940 C   0  0  0  0  0  3  0  0  0  0  0  0
  162.6090  210.1990  151.9640 C   0  0  0  0  0  2  0  0  0  0  0  0
  162.3260  210.3580  150.4630 C   0  0  2  0  0  3  0  0  0  0  0  0
  161.0160  209.9340  153.8630 C   0  0  0  0  0  0  0  0  0  0  0  0
  160.9400  208.2630  151.9680 C   0  0  2  0  0  3  0  0  0  0  0  0
  162.3840  208.8100  148.4830 C   0  0  0  0  0  3  0  0  0  0  0  0
  159.9540  211.1320  150.7630 C   0  0  0  0  0  2  0  0  0  0  0  0
  160.1970  213.4320  151.0820 C   0  0  0  0  0  1  0  0  0  0  0  0
  161.2510  211.4050  150.1540 C   0  0  1  0  0  0  0  0  0  0  0  0
  160.8310  212.1510  151.3710 N   0  0  0  0  0  0  0  0  0  0  0  0
  161.2490  212.1580  148.8360 C   0  0  0  0  0  0  0  0  0  0  0  0
  162.3810  212.6480  148.3310 C   0  0  0  0  0  2  0  0  0  0  0  0
  159.7030  212.5190  148.0000 S   0  0  0  0  0  1  0  0  0  0  0  0
  161.0380  211.6920  155.6740 C   0  0  0  0  0  2  0  0  0  0  0  0
  158.7730  210.5980  157.2550 C   0  0  0  0  0  1  0  0  0  0  0  0
  159.6310  212.1210  155.4240 C   0  0  0  0  0  0  0  0  0  0  0  0
  158.5560  211.5930  156.1660 C   0  0  0  0  0  0  0  0  0  0  0  0
  157.0060  212.9300  154.8650 C   0  0  0  0  0  3  0  0  0  0  0  0
  158.0710  213.4480  154.1240 C   0  0  0  0  0  3  0  0  0  0  0  0
  159.3790  213.0420  154.4020 C   0  0  0  0  0  3  0  0  0  0  0  0
  157.2490  212.0040  155.8830 C   0  0  0  0  0  3  0  0  0  0  0  0
  1  8  1  0  0  0  0
  2 14  1  0  0  0  0
  3 18  1  0  0  0  0
  4 17  1  0  0  0  0
  5  6  2  0  0  0  0
  6  2  1  0  0  0  0
  8  3  1  0  0  0  0
  8  2  2  0  0  0  0
  9 27  1  0  0  0  0
 11  1  2  0  0  0  0
 11  5  1  0  0  0  0
 12 16  1  0  0  0  0
 12  3  2  0  0  0  0
 13 19  2  0  0  0  0
 13  1  1  0  0  0  0
 14  7  2  0  0  0  0
 15  4  1  0  0  0  0
 16 15  1  1  0  0  0
 17 10  2  0  0  0  0
 17  9  1  0  0  0  0
 18  4  1  0  0  0  0
 18  7  1  1  0  0  0
 19 12  1  0  0  0  0
 20 23  1  0  0  0  0
 21 23  1  0  0  0  0
 22 24  1  6  0  0  0
 22 16  1  0  0  0  0
 22 20  1  0  0  0  0
 22 23  1  0  0  0  0
 25 24  2  0  0  0  0
 26 24  1  0  0  0  0
 29 27  1  0  0  0  0
 29 30  1  0  0  0  0
 30 28  1  0  0  0  0
 31 34  1  0  0  0  0
 32 33  1  0  0  0  0
 32 31  2  0  0  0  0
 33 29  2  0  0  0  0
 34 30  2  0  0  0  0
M  END
>  <MODEL>
8

>  <REMARK>
 VINA RESULT:      -4.9      1.416      1.841
  Name = 
  4 active torsions:
  status: ('A' for Active; 'I' for Inactive)
    1  A    between atoms: C_3  and  C_13
    2  A    between atoms: C_3  and  N_17
    3  A    between atoms: C_7  and  C_23
    4  A    between atoms: C_23  and  C_28
                            x       y       z     vdW  Elec       q    Type
                         _______ _______ _______ _____ _____    ______ ____

>  <TORSDO>
F 4

$$$$
=
 OpenBabel11062408083D

 34 39  0  0  1  0  0  0  0  0999 V2000
  160.8140  206.8290  154.2650 C   0  0  0  0  0  0  0  0  0  0  0  0
  160.2890  209.2030  154.4860 C   0  0  0  0  0  0  0  0  0  0  0  0
  161.3150  208.3680  152.4410 C   0  0  0  0  0  0  0  0  0  0  0  0
  162.0470  210.0110  150.7080 N   0  0  0  0  0  0  0  0  0  0  0  0
  159.7320  207.6570  156.2680 C   0  0  0  0  0  3  0  0  0  0  0  0
  159.7600  208.9590  155.7560 C   0  0  0  0  0  3  0  0  0  0  0  0
  160.8800  210.8270  152.7550 C   0  0  0  0  0  3  0  0  0  0  0  0
  160.7900  208.1320  153.7230 C   0  0  0  0  0  0  0  0  0  0  0  0
  162.7760  211.4010  148.7850 N   0  0  0  0  0  2  0  0  0  0  0  0
  160.8550  211.9020  150.0040 O   0  0  0  0  0  0  0  0  0  0  0  0
  160.2660  206.5950  155.5290 C   0  0  0  0  0  3  0  0  0  0  0  0
  161.9560  207.3290  151.7490 C   0  0  0  0  0  0  0  0  0  0  0  0
  161.4090  205.7880  153.5460 C   0  0  0  0  0  3  0  0  0  0  0  0
  160.4560  210.5870  154.0010 C   0  0  0  0  0  3  0  0  0  0  0  0
  163.1210  209.0660  150.3800 C   0  0  0  0  0  2  0  0  0  0  0  0
  162.6350  207.6110  150.4420 C   0  0  2  0  0  3  0  0  0  0  0  0
  161.8530  211.1450  149.8460 C   0  0  0  0  0  0  0  0  0  0  0  0
  161.0700  209.7010  151.7670 C   0  0  2  0  0  3  0  0  0  0  0  0
  161.9930  206.0410  152.2980 C   0  0  0  0  0  3  0  0  0  0  0  0
  161.4880  208.2890  148.3100 C   0  0  0  0  0  2  0  0  0  0  0  0
  162.0140  206.5370  146.8600 C   0  0  0  0  0  1  0  0  0  0  0  0
  161.7980  207.1970  149.2260 C   0  0  1  0  0  0  0  0  0  0  0  0
  162.5550  207.3360  147.9530 N   0  0  0  0  0  0  0  0  0  0  0  0
  160.7880  206.0680  149.3190 C   0  0  0  0  0  0  0  0  0  0  0  0
  159.4940  206.3270  149.5060 C   0  0  0  0  0  2  0  0  0  0  0  0
  161.3340  204.3590  149.3150 S   0  0  0  0  0  1  0  0  0  0  0  0
  162.5910  212.4940  147.8440 C   0  0  0  0  0  2  0  0  0  0  0  0
  160.8430  214.4530  149.2350 C   0  0  0  0  0  1  0  0  0  0  0  0
  161.1430  212.6280  147.5070 C   0  0  0  0  0  0  0  0  0  0  0  0
  160.3120  213.5480  148.1750 C   0  0  0  0  0  0  0  0  0  0  0  0
  158.4210  212.7870  146.8610 C   0  0  0  0  0  3  0  0  0  0  0  0
  159.2430  211.8690  146.2040 C   0  0  0  0  0  3  0  0  0  0  0  0
  160.6000  211.7880  146.5280 C   0  0  0  0  0  3  0  0  0  0  0  0
  158.9550  213.6240  147.8450 C   0  0  0  0  0  3  0  0  0  0  0  0
  1 11  2  0  0  0  0
  2  6  1  0  0  0  0
  3  8  1  0  0  0  0
  4 18  1  0  0  0  0
  6  5  2  0  0  0  0
  7 14  2  0  0  0  0
  8  1  1  0  0  0  0
  8  2  2  0  0  0  0
  9 17  1  0  0  0  0
 11  5  1  0  0  0  0
 12 19  1  0  0  0  0
 12  3  2  0  0  0  0
 13  1  1  0  0  0  0
 14  2  1  0  0  0  0
 15  4  1  0  0  0  0
 16 15  1  6  0  0  0
 16 12  1  0  0  0  0
 17 10  2  0  0  0  0
 17  4  1  0  0  0  0
 18  3  1  0  0  0  0
 18  7  1  1  0  0  0
 19 13  2  0  0  0  0
 20 22  1  0  0  0  0
 21 23  1  0  0  0  0
 22 24  1  1  0  0  0
 22 16  1  0  0  0  0
 23 20  1  0  0  0  0
 23 22  1  0  0  0  0
 24 25  2  0  0  0  0
 26 24  1  0  0  0  0
 27  9  1  0  0  0  0
 29 27  1  0  0  0  0
 29 30  1  0  0  0  0
 30 28  1  0  0  0  0
 31 34  1  0  0  0  0
 32 33  1  0  0  0  0
 32 31  2  0  0  0  0
 33 29  2  0  0  0  0
 34 30  2  0  0  0  0
M  END
>  <MODEL>
9

>  <REMARK>
 VINA RESULT:      -4.0      3.258      6.872
  Name = 
  4 active torsions:
  status: ('A' for Active; 'I' for Inactive)
    1  A    between atoms: C_3  and  C_13
    2  A    between atoms: C_3  and  N_17
    3  A    between atoms: C_7  and  C_23
    4  A    between atoms: C_23  and  C_28
                            x       y       z     vdW  Elec       q    Type
                         _______ _______ _______ _____ _____    ______ ____

>  <TORSDO>
F 4

$$$$
