=
 OpenBabel11052423013D

 28 32  0  0  1  0  0  0  0  0999 V2000
  161.7860  209.6720  150.6010 C   0  0  0  0  0  0  0  0  0  0  0  0
  161.6970  205.7190  147.4950 C   0  0  0  0  0  2  0  0  0  0  0  0
  160.9810  205.9390  153.7780 C   0  0  0  0  0  1  0  0  0  0  0  0
  161.2060  203.8340  149.0820 C   0  0  0  0  0  0  0  0  0  0  0  0
  161.4010  206.0830  149.9870 C   0  0  0  0  0  0  0  0  0  0  0  0
  161.1600  203.3990  146.6810 C   0  0  0  0  0  0  0  0  0  0  0  0
  161.3960  205.2130  148.8830 C   0  0  0  0  0  0  0  0  0  0  0  0
  161.0100  204.1920  151.4670 C   0  0  0  0  0  3  0  0  0  0  0  0
  161.1940  202.9210  147.9280 C   0  0  0  0  0  3  0  0  0  0  0  0
  161.3930  207.8330  152.1620 C   0  0  0  0  0  0  0  0  0  0  0  0
  161.5970  207.4150  149.8070 N   0  0  0  0  0  0  0  0  0  0  0  0
  161.0160  203.3280  150.3690 C   0  0  0  0  0  3  0  0  0  0  0  0
  161.5860  210.1130  152.9780 C   0  0  0  0  0  3  0  0  0  0  0  0
  161.1940  206.4570  152.3860 C   0  0  0  0  0  0  0  0  0  0  0  0
  161.3920  208.7520  153.2210 C   0  0  0  0  0  3  0  0  0  0  0  0
  161.1280  202.4930  145.5840 N   0  0  0  0  0  1  0  0  0  0  0  0
  160.9960  204.8740  146.4260 C   0  0  0  0  0  2  0  0  0  0  0  0
  161.1970  205.5720  151.2900 C   0  0  0  0  0  0  0  0  0  0  0  0
  161.7800  210.5700  151.6740 C   0  0  0  0  0  3  0  0  0  0  0  0
  161.5950  208.2980  150.8410 C   0  0  0  0  0  0  0  0  0  0  0  0
  161.9720  210.2040  149.2090 C   0  0  0  0  0  2  0  0  0  0  0  0
  162.0380  211.7330  149.1530 C   0  0  2  0  0  3  0  0  0  0  0  0
  161.4910  213.3350  147.5150 N   0  0  0  0  0  0  0  0  0  0  0  0
  160.8140  212.3040  149.5180 O   0  0  0  0  0  0  0  0  0  0  0  0
  163.8220  212.7090  147.7430 C   0  0  0  0  0  1  0  0  0  0  0  0
  162.3840  212.2300  147.7740 C   0  0  1  0  0  3  0  0  0  0  0  0
  160.5900  212.9130  146.4540 C   0  0  0  0  0  1  0  0  0  0  0  0
  160.6910  213.4590  148.7280 C   0  0  0  0  0  2  0  0  0  0  0  0
  1 20  2  0  0  0  0
  1 19  1  0  0  0  0
  2  7  1  0  0  0  0
  4 12  1  0  0  0  0
  5 18  1  0  0  0  0
  6  9  2  0  0  0  0
  7  4  2  0  0  0  0
  7  5  1  0  0  0  0
  9  4  1  0  0  0  0
 10 14  1  0  0  0  0
 10 15  2  0  0  0  0
 11  5  2  0  0  0  0
 11 20  1  0  0  0  0
 12  8  2  0  0  0  0
 13 15  1  0  0  0  0
 14  3  1  0  0  0  0
 16  6  1  0  0  0  0
 17  6  1  0  0  0  0
 17  2  1  0  0  0  0
 18  8  1  0  0  0  0
 18 14  2  0  0  0  0
 19 13  2  0  0  0  0
 20 10  1  0  0  0  0
 21  1  1  0  0  0  0
 22 21  1  6  0  0  0
 22 24  1  0  0  0  0
 23 26  1  0  0  0  0
 23 28  1  0  0  0  0
 26 25  1  1  0  0  0
 26 22  1  0  0  0  0
 27 23  1  0  0  0  0
 28 24  1  0  0  0  0
M  END
>  <MODEL>
1

>  <REMARK>
 VINA RESULT:     -10.1      0.000      0.000
  Name = 
  2 active torsions:
  status: ('A' for Active; 'I' for Inactive)
    1  A    between atoms: C_1  and  C_2
    2  A    between atoms: C_2  and  C_3
                            x       y       z     vdW  Elec       q    Type
                         _______ _______ _______ _____ _____    ______ ____

>  <TORSDO>
F 2

$$$$
=
 OpenBabel11052423013D

 28 32  0  0  1  0  0  0  0  0999 V2000
  161.0280  207.7940  152.0970 C   0  0  0  0  0  0  0  0  0  0  0  0
  161.3410  206.6480  147.2120 C   0  0  0  0  0  2  0  0  0  0  0  0
  161.1390  202.8310  152.2540 C   0  0  0  0  0  1  0  0  0  0  0  0
  161.3130  204.1360  147.2750 C   0  0  0  0  0  0  0  0  0  0  0  0
  161.2030  205.3440  149.3830 C   0  0  0  0  0  0  0  0  0  0  0  0
  161.1350  205.2660  145.1180 C   0  0  0  0  0  0  0  0  0  0  0  0
  161.2500  205.3530  147.9780 C   0  0  0  0  0  0  0  0  0  0  0  0
  161.2650  202.9120  149.3610 C   0  0  0  0  0  3  0  0  0  0  0  0
  161.3550  204.1400  145.8040 C   0  0  0  0  0  3  0  0  0  0  0  0
  161.0860  205.3520  152.1720 C   0  0  0  0  0  0  0  0  0  0  0  0
  161.1550  206.5140  150.0720 N   0  0  0  0  0  0  0  0  0  0  0  0
  161.3220  202.9230  147.9660 C   0  0  0  0  0  3  0  0  0  0  0  0
  160.9610  206.6390  154.2290 C   0  0  0  0  0  3  0  0  0  0  0  0
  161.1420  204.1220  151.4900 C   0  0  0  0  0  0  0  0  0  0  0  0
  161.0210  205.4090  153.5720 C   0  0  0  0  0  3  0  0  0  0  0  0
  161.1620  205.2370  143.6970 N   0  0  0  0  0  1  0  0  0  0  0  0
  160.7040  206.5240  145.8250 C   0  0  0  0  0  2  0  0  0  0  0  0
  161.2000  204.1150  150.0830 C   0  0  0  0  0  0  0  0  0  0  0  0
  160.9630  207.8250  153.4950 C   0  0  0  0  0  3  0  0  0  0  0  0
  161.0930  206.5570  151.4290 C   0  0  0  0  0  0  0  0  0  0  0  0
  161.0010  209.0920  151.3410 C   0  0  0  0  0  2  0  0  0  0  0  0
  161.3850  210.2990  152.2010 C   0  0  2  0  0  3  0  0  0  0  0  0
  160.4080  211.3560  154.0650 N   0  0  0  0  0  0  0  0  0  0  0  0
  162.1060  209.9020  153.3320 O   0  0  0  0  0  0  0  0  0  0  0  0
  160.0390  212.3510  151.8840 C   0  0  0  0  0  1  0  0  0  0  0  0
  160.1740  211.0610  152.6710 C   0  0  1  0  0  3  0  0  0  0  0  0
  159.4410  210.5850  154.8290 C   0  0  0  0  0  1  0  0  0  0  0  0
  161.7220  210.7920  154.3490 C   0  0  0  0  0  2  0  0  0  0  0  0
  1 19  1  0  0  0  0
  2  7  1  0  0  0  0
  4 12  1  0  0  0  0
  4  7  2  0  0  0  0
  5 11  2  0  0  0  0
  5 18  1  0  0  0  0
  6  9  2  0  0  0  0
  6 17  1  0  0  0  0
  7  5  1  0  0  0  0
  8 18  1  0  0  0  0
  9  4  1  0  0  0  0
 10 15  2  0  0  0  0
 11 20  1  0  0  0  0
 12  8  2  0  0  0  0
 14 10  1  0  0  0  0
 14  3  1  0  0  0  0
 15 13  1  0  0  0  0
 16  6  1  0  0  0  0
 17  2  1  0  0  0  0
 18 14  2  0  0  0  0
 19 13  2  0  0  0  0
 20  1  2  0  0  0  0
 20 10  1  0  0  0  0
 21  1  1  0  0  0  0
 22 21  1  1  0  0  0
 22 26  1  0  0  0  0
 22 24  1  0  0  0  0
 23 28  1  0  0  0  0
 23 27  1  0  0  0  0
 24 28  1  0  0  0  0
 26 25  1  6  0  0  0
 26 23  1  0  0  0  0
M  END
>  <MODEL>
2

>  <REMARK>
 VINA RESULT:     -10.1      2.733      3.721
  Name = 
  2 active torsions:
  status: ('A' for Active; 'I' for Inactive)
    1  A    between atoms: C_1  and  C_2
    2  A    between atoms: C_2  and  C_3
                            x       y       z     vdW  Elec       q    Type
                         _______ _______ _______ _____ _____    ______ ____

>  <TORSDO>
F 2

$$$$
=
 OpenBabel11052423013D

 28 32  0  0  1  0  0  0  0  0999 V2000
  161.0570  206.0020  151.5820 C   0  0  0  0  0  0  0  0  0  0  0  0
  161.4490  206.1850  146.5730 C   0  0  0  0  0  2  0  0  0  0  0  0
  160.9220  201.1780  150.4060 C   0  0  0  0  0  1  0  0  0  0  0  0
  161.2970  203.7520  145.9610 C   0  0  0  0  0  0  0  0  0  0  0  0
  161.1870  204.3590  148.3140 C   0  0  0  0  0  0  0  0  0  0  0  0
  161.2340  205.4240  144.1830 C   0  0  0  0  0  0  0  0  0  0  0  0
  161.2740  204.7390  146.9630 C   0  0  0  0  0  0  0  0  0  0  0  0
  161.1320  202.0210  147.6420 C   0  0  0  0  0  3  0  0  0  0  0  0
  161.3810  204.1470  144.5450 C   0  0  0  0  0  3  0  0  0  0  0  0
  160.9940  203.6300  151.0010 C   0  0  0  0  0  0  0  0  0  0  0  0
  161.1780  205.3040  149.2900 N   0  0  0  0  0  0  0  0  0  0  0  0
  161.2280  202.4010  146.3020 C   0  0  0  0  0  3  0  0  0  0  0  0
  160.8750  204.3250  153.3250 C   0  0  0  0  0  3  0  0  0  0  0  0
  161.0090  202.6240  150.0150 C   0  0  0  0  0  0  0  0  0  0  0  0
  160.8930  203.3140  152.3640 C   0  0  0  0  0  3  0  0  0  0  0  0
  161.2990  205.7750  142.8070 N   0  0  0  0  0  1  0  0  0  0  0  0
  160.8450  206.4710  145.1950 C   0  0  0  0  0  2  0  0  0  0  0  0
  161.1060  202.9900  148.6590 C   0  0  0  0  0  0  0  0  0  0  0  0
  160.9540  205.6630  152.9360 C   0  0  0  0  0  3  0  0  0  0  0  0
  161.0800  204.9870  150.6080 C   0  0  0  0  0  0  0  0  0  0  0  0
  161.1140  207.4540  151.2000 C   0  0  0  0  0  2  0  0  0  0  0  0
  161.5590  208.3620  152.3500 C   0  0  2  0  0  3  0  0  0  0  0  0
  160.8740  210.4800  153.1200 N   0  0  0  0  0  0  0  0  0  0  0  0
  160.7700  208.1590  153.4870 O   0  0  0  0  0  0  0  0  0  0  0  0
  162.8550  210.3750  151.7260 C   0  0  0  0  0  1  0  0  0  0  0  0
  161.4680  209.8200  151.9810 C   0  0  1  0  0  3  0  0  0  0  0  0
  159.5580  210.9390  152.7060 C   0  0  0  0  0  1  0  0  0  0  0  0
  160.6670  209.4190  154.0990 C   0  0  0  0  0  2  0  0  0  0  0  0
  1 19  1  0  0  0  0
  2  7  1  0  0  0  0
  4 12  1  0  0  0  0
  4  7  2  0  0  0  0
  5 18  1  0  0  0  0
  5 11  2  0  0  0  0
  6  9  2  0  0  0  0
  6 17  1  0  0  0  0
  7  5  1  0  0  0  0
  8 18  1  0  0  0  0
  9  4  1  0  0  0  0
 10 15  2  0  0  0  0
 11 20  1  0  0  0  0
 12  8  2  0  0  0  0
 14  3  1  0  0  0  0
 14 10  1  0  0  0  0
 15 13  1  0  0  0  0
 16  6  1  0  0  0  0
 17  2  1  0  0  0  0
 18 14  2  0  0  0  0
 19 13  2  0  0  0  0
 20 10  1  0  0  0  0
 20  1  2  0  0  0  0
 21  1  1  0  0  0  0
 22 21  1  6  0  0  0
 22 24  1  0  0  0  0
 23 28  1  0  0  0  0
 24 28  1  0  0  0  0
 26 25  1  1  0  0  0
 26 22  1  0  0  0  0
 26 23  1  0  0  0  0
 27 23  1  0  0  0  0
M  END
>  <MODEL>
3

>  <REMARK>
 VINA RESULT:      -9.3      2.880      4.454
  Name = 
  2 active torsions:
  status: ('A' for Active; 'I' for Inactive)
    1  A    between atoms: C_1  and  C_2
    2  A    between atoms: C_2  and  C_3
                            x       y       z     vdW  Elec       q    Type
                         _______ _______ _______ _____ _____    ______ ____

>  <TORSDO>
F 2

$$$$
=
 OpenBabel11052423013D

 28 32  0  0  1  0  0  0  0  0999 V2000
  161.2270  208.2050  152.8740 C   0  0  0  0  0  0  0  0  0  0  0  0
  160.6820  203.7430  150.6240 C   0  0  0  0  0  2  0  0  0  0  0  0
  162.2920  209.3420  148.1570 C   0  0  0  0  0  1  0  0  0  0  0  0
  161.3010  204.2890  148.2500 C   0  0  0  0  0  0  0  0  0  0  0  0
  161.3450  206.0790  149.8960 C   0  0  0  0  0  0  0  0  0  0  0  0
  160.9850  201.9520  148.8810 C   0  0  0  0  0  0  0  0  0  0  0  0
  161.1520  204.7230  149.5800 C   0  0  0  0  0  0  0  0  0  0  0  0
  161.8500  206.5420  147.5610 C   0  0  0  0  0  3  0  0  0  0  0  0
  161.1050  202.8690  147.9160 C   0  0  0  0  0  3  0  0  0  0  0  0
  161.7470  208.7620  150.5520 C   0  0  0  0  0  0  0  0  0  0  0  0
  161.1910  206.5120  151.1750 N   0  0  0  0  0  0  0  0  0  0  0  0
  161.6470  205.1960  147.2480 C   0  0  0  0  0  3  0  0  0  0  0  0
  161.7830  210.4860  152.2640 C   0  0  0  0  0  3  0  0  0  0  0  0
  161.9080  208.3500  149.2150 C   0  0  0  0  0  0  0  0  0  0  0  0
  161.9430  210.0980  150.9330 C   0  0  0  0  0  3  0  0  0  0  0  0
  160.8170  200.5840  148.5300 N   0  0  0  0  0  1  0  0  0  0  0  0
  161.1820  202.3250  150.3260 C   0  0  0  0  0  2  0  0  0  0  0  0
  161.7070  206.9970  148.8820 C   0  0  0  0  0  0  0  0  0  0  0  0
  161.4290  209.5430  153.2300 C   0  0  0  0  0  3  0  0  0  0  0  0
  161.3820  207.8090  151.5320 C   0  0  0  0  0  0  0  0  0  0  0  0
  160.8720  207.2150  153.9460 C   0  0  0  0  0  2  0  0  0  0  0  0
  160.0820  207.8350  155.1020 C   0  0  2  0  0  3  0  0  0  0  0  0
  160.6890  208.9860  157.0650 N   0  0  0  0  0  0  0  0  0  0  0  0
  159.8490  209.1960  154.8790 O   0  0  0  0  0  0  0  0  0  0  0  0
  160.1560  206.6280  157.2610 C   0  0  0  0  0  1  0  0  0  0  0  0
  160.8100  207.7030  156.4140 C   0  0  1  0  0  3  0  0  0  0  0  0
  162.0210  209.5690  157.1040 C   0  0  0  0  0  1  0  0  0  0  0  0
  159.8970  209.7960  156.1480 C   0  0  0  0  0  2  0  0  0  0  0  0
  1 19  1  0  0  0  0
  1 21  1  0  0  0  0
  3 14  1  0  0  0  0
  4  7  2  0  0  0  0
  5 11  2  0  0  0  0
  6 17  1  0  0  0  0
  7  5  1  0  0  0  0
  7  2  1  0  0  0  0
  8 18  1  0  0  0  0
  9  4  1  0  0  0  0
  9  6  2  0  0  0  0
 10 15  2  0  0  0  0
 10 20  1  0  0  0  0
 11 20  1  0  0  0  0
 12  8  2  0  0  0  0
 12  4  1  0  0  0  0
 13 19  2  0  0  0  0
 14 10  1  0  0  0  0
 15 13  1  0  0  0  0
 16  6  1  0  0  0  0
 17  2  1  0  0  0  0
 18 14  2  0  0  0  0
 18  5  1  0  0  0  0
 20  1  2  0  0  0  0
 22 21  1  6  0  0  0
 22 26  1  0  0  0  0
 23 27  1  0  0  0  0
 24 22  1  0  0  0  0
 24 28  1  0  0  0  0
 26 23  1  0  0  0  0
 26 25  1  1  0  0  0
 28 23  1  0  0  0  0
M  END
>  <MODEL>
4

>  <REMARK>
 VINA RESULT:      -8.8      2.647      5.535
  Name = 
  2 active torsions:
  status: ('A' for Active; 'I' for Inactive)
    1  A    between atoms: C_1  and  C_2
    2  A    between atoms: C_2  and  C_3
                            x       y       z     vdW  Elec       q    Type
                         _______ _______ _______ _____ _____    ______ ____

>  <TORSDO>
F 2

$$$$
=
 OpenBabel11052423013D

 28 32  0  0  1  0  0  0  0  0999 V2000
  160.8570  207.1570  151.8040 C   0  0  0  0  0  0  0  0  0  0  0  0
  161.0430  206.3100  146.8510 C   0  0  0  0  0  2  0  0  0  0  0  0
  161.4590  202.2280  151.6670 C   0  0  0  0  0  1  0  0  0  0  0  0
  161.2620  203.8080  146.7690 C   0  0  0  0  0  0  0  0  0  0  0  0
  161.1380  204.8850  148.9460 C   0  0  0  0  0  0  0  0  0  0  0  0
  160.8700  205.0280  144.6920 C   0  0  0  0  0  0  0  0  0  0  0  0
  161.1150  204.9730  147.5440 C   0  0  0  0  0  0  0  0  0  0  0  0
  161.4350  202.4760  148.7810 C   0  0  0  0  0  3  0  0  0  0  0  0
  161.2330  203.8950  145.3000 C   0  0  0  0  0  3  0  0  0  0  0  0
  161.1560  204.7320  151.7330 C   0  0  0  0  0  0  0  0  0  0  0  0
  161.0100  206.0060  149.7040 N   0  0  0  0  0  0  0  0  0  0  0  0
  161.4230  202.5670  147.3870 C   0  0  0  0  0  3  0  0  0  0  0  0
  161.0070  205.8880  153.8650 C   0  0  0  0  0  3  0  0  0  0  0  0
  161.2990  203.5510  150.9790 C   0  0  0  0  0  0  0  0  0  0  0  0
  161.1550  204.7070  153.1360 C   0  0  0  0  0  3  0  0  0  0  0  0
  160.8310  205.0790  143.2710 N   0  0  0  0  0  1  0  0  0  0  0  0
  160.3530  206.1980  145.4880 C   0  0  0  0  0  2  0  0  0  0  0  0
  161.2890  203.6260  149.5730 C   0  0  0  0  0  0  0  0  0  0  0  0
  160.8570  207.1060  153.2020 C   0  0  0  0  0  3  0  0  0  0  0  0
  161.0100  205.9700  151.0620 C   0  0  0  0  0  0  0  0  0  0  0  0
  160.6670  208.4830  151.1250 C   0  0  0  0  0  2  0  0  0  0  0  0
  161.9730  209.0790  150.5910 C   0  0  2  0  0  3  0  0  0  0  0  0
  162.5030  210.5190  148.8040 N   0  0  0  0  0  0  0  0  0  0  0  0
  162.2060  210.3470  151.1310 O   0  0  0  0  0  0  0  0  0  0  0  0
  162.8250  208.1390  148.4660 C   0  0  0  0  0  1  0  0  0  0  0  0
  161.9560  209.2140  149.0910 C   0  0  1  0  0  3  0  0  0  0  0  0
  161.4200  211.3230  148.2610 C   0  0  0  0  0  1  0  0  0  0  0  0
  162.8350  211.0780  150.1090 C   0  0  0  0  0  2  0  0  0  0  0  0
  1 19  1  0  0  0  0
  2  7  1  0  0  0  0
  4 12  1  0  0  0  0
  4  7  2  0  0  0  0
  5 18  1  0  0  0  0
  5 11  2  0  0  0  0
  6  9  2  0  0  0  0
  6 17  1  0  0  0  0
  7  5  1  0  0  0  0
  8 18  1  0  0  0  0
  9  4  1  0  0  0  0
 10 15  2  0  0  0  0
 11 20  1  0  0  0  0
 12  8  2  0  0  0  0
 14  3  1  0  0  0  0
 14 10  1  0  0  0  0
 15 13  1  0  0  0  0
 16  6  1  0  0  0  0
 17  2  1  0  0  0  0
 18 14  2  0  0  0  0
 19 13  2  0  0  0  0
 20 10  1  0  0  0  0
 20  1  2  0  0  0  0
 21  1  1  0  0  0  0
 22 21  1  1  0  0  0
 22 24  1  0  0  0  0
 23 26  1  0  0  0  0
 23 28  1  0  0  0  0
 26 25  1  6  0  0  0
 26 22  1  0  0  0  0
 27 23  1  0  0  0  0
 28 24  1  0  0  0  0
M  END
>  <MODEL>
5

>  <REMARK>
 VINA RESULT:      -8.4      1.687      3.060
  Name = 
  2 active torsions:
  status: ('A' for Active; 'I' for Inactive)
    1  A    between atoms: C_1  and  C_2
    2  A    between atoms: C_2  and  C_3
                            x       y       z     vdW  Elec       q    Type
                         _______ _______ _______ _____ _____    ______ ____

>  <TORSDO>
F 2

$$$$
=
 OpenBabel11052423013D

 28 32  0  0  1  0  0  0  0  0999 V2000
  160.9460  202.4650  147.9260 C   0  0  0  0  0  0  0  0  0  0  0  0
  161.4360  207.4610  148.2050 C   0  0  0  0  0  2  0  0  0  0  0  0
  160.8800  203.1900  152.8400 C   0  0  0  0  0  1  0  0  0  0  0  0
  161.4890  207.8310  150.6900 C   0  0  0  0  0  0  0  0  0  0  0  0
  161.2430  205.5560  149.8660 C   0  0  0  0  0  0  0  0  0  0  0  0
  161.9950  209.7020  149.2060 C   0  0  0  0  0  0  0  0  0  0  0  0
  161.4220  206.9270  149.6140 C   0  0  0  0  0  0  0  0  0  0  0  0
  161.2190  206.0080  152.2570 C   0  0  0  0  0  3  0  0  0  0  0  0
  161.6830  209.2670  150.4300 C   0  0  0  0  0  3  0  0  0  0  0  0
  160.9110  202.8260  150.3430 C   0  0  0  0  0  0  0  0  0  0  0  0
  161.1630  204.6760  148.8340 N   0  0  0  0  0  0  0  0  0  0  0  0
  161.3870  207.3710  152.0030 C   0  0  0  0  0  3  0  0  0  0  0  0
  160.6870  200.5840  149.4340 C   0  0  0  0  0  3  0  0  0  0  0  0
  160.9820  203.7100  151.4360 C   0  0  0  0  0  0  0  0  0  0  0  0
  160.7500  201.4450  150.5310 C   0  0  0  0  0  3  0  0  0  0  0  0
  162.1960  211.0930  148.9880 N   0  0  0  0  0  1  0  0  0  0  0  0
  162.2890  208.7290  148.0950 C   0  0  0  0  0  2  0  0  0  0  0  0
  161.1500  205.0880  151.1980 C   0  0  0  0  0  0  0  0  0  0  0  0
  160.7860  201.0920  148.1390 C   0  0  0  0  0  3  0  0  0  0  0  0
  161.0060  203.3400  149.0280 C   0  0  0  0  0  0  0  0  0  0  0  0
  161.0750  202.9720  146.5180 C   0  0  0  0  0  2  0  0  0  0  0  0
  161.2580  204.4900  146.4380 C   0  0  2  0  0  3  0  0  0  0  0  0
  161.7770  205.9860  144.6950 N   0  0  0  0  0  0  0  0  0  0  0  0
  160.0690  205.1210  146.0610 O   0  0  0  0  0  0  0  0  0  0  0  0
  163.5780  205.3090  146.1700 C   0  0  0  0  0  1  0  0  0  0  0  0
  162.3200  204.8770  145.4420 C   0  0  1  0  0  3  0  0  0  0  0  0
  161.5600  205.5160  143.3360 C   0  0  0  0  0  1  0  0  0  0  0  0
  160.4620  206.2200  145.2790 C   0  0  0  0  0  2  0  0  0  0  0  0
  1 19  2  0  0  0  0
  1 20  1  0  0  0  0
  2  7  1  0  0  0  0
  4 12  1  0  0  0  0
  5 18  1  0  0  0  0
  6  9  2  0  0  0  0
  7  5  1  0  0  0  0
  7  4  2  0  0  0  0
  9  4  1  0  0  0  0
 10 15  1  0  0  0  0
 10 14  1  0  0  0  0
 11 20  1  0  0  0  0
 11  5  2  0  0  0  0
 12  8  2  0  0  0  0
 13 15  2  0  0  0  0
 14  3  1  0  0  0  0
 16  6  1  0  0  0  0
 17  2  1  0  0  0  0
 17  6  1  0  0  0  0
 18 14  2  0  0  0  0
 18  8  1  0  0  0  0
 19 13  1  0  0  0  0
 20 10  2  0  0  0  0
 21  1  1  0  0  0  0
 22 21  1  6  0  0  0
 23 28  1  0  0  0  0
 23 26  1  0  0  0  0
 24 22  1  0  0  0  0
 26 25  1  1  0  0  0
 26 22  1  0  0  0  0
 27 23  1  0  0  0  0
 28 24  1  0  0  0  0
M  END
>  <MODEL>
6

>  <REMARK>
 VINA RESULT:      -8.1      2.538      6.418
  Name = 
  2 active torsions:
  status: ('A' for Active; 'I' for Inactive)
    1  A    between atoms: C_1  and  C_2
    2  A    between atoms: C_2  and  C_3
                            x       y       z     vdW  Elec       q    Type
                         _______ _______ _______ _____ _____    ______ ____

>  <TORSDO>
F 2

$$$$
=
 OpenBabel11052423013D

 28 32  0  0  1  0  0  0  0  0999 V2000
  160.7960  204.4410  149.4680 C   0  0  0  0  0  0  0  0  0  0  0  0
  161.3070  209.3840  148.7050 C   0  0  0  0  0  2  0  0  0  0  0  0
  161.6440  206.0690  154.0840 C   0  0  0  0  0  1  0  0  0  0  0  0
  161.8210  210.2080  151.0230 C   0  0  0  0  0  0  0  0  0  0  0  0
  161.4350  207.8280  150.7020 C   0  0  0  0  0  0  0  0  0  0  0  0
  162.0320  211.7540  149.1460 C   0  0  0  0  0  0  0  0  0  0  0  0
  161.5580  209.1220  150.1680 C   0  0  0  0  0  0  0  0  0  0  0  0
  161.8560  208.7170  152.9280 C   0  0  0  0  0  3  0  0  0  0  0  0
  161.9560  211.5630  150.4660 C   0  0  0  0  0  3  0  0  0  0  0  0
  161.2110  205.2450  151.7380 C   0  0  0  0  0  0  0  0  0  0  0  0
  161.1690  206.7740  149.8870 N   0  0  0  0  0  0  0  0  0  0  0  0
  161.9670  210.0040  152.3960 C   0  0  0  0  0  3  0  0  0  0  0  0
  160.8310  202.8810  151.3250 C   0  0  0  0  0  3  0  0  0  0  0  0
  161.4800  206.3150  152.6130 C   0  0  0  0  0  0  0  0  0  0  0  0
  161.0930  203.9290  152.2090 C   0  0  0  0  0  3  0  0  0  0  0  0
  162.1830  213.0730  148.6360 N   0  0  0  0  0  1  0  0  0  0  0  0
  162.1190  210.5820  148.2030 C   0  0  0  0  0  2  0  0  0  0  0  0
  161.5950  207.6190  152.0930 C   0  0  0  0  0  0  0  0  0  0  0  0
  160.6850  203.1360  149.9610 C   0  0  0  0  0  3  0  0  0  0  0  0
  161.0570  205.5030  150.3550 C   0  0  0  0  0  0  0  0  0  0  0  0
  160.6580  204.6720  147.9900 C   0  0  0  0  0  2  0  0  0  0  0  0
  161.7200  203.9400  147.1640 C   0  0  2  0  0  3  0  0  0  0  0  0
  162.3160  203.9530  144.8860 N   0  0  0  0  0  0  0  0  0  0  0  0
  162.8810  204.7100  147.0400 O   0  0  0  0  0  0  0  0  0  0  0  0
  160.9080  202.1420  145.6710 C   0  0  0  0  0  1  0  0  0  0  0  0
  161.2290  203.6200  145.7760 C   0  0  1  0  0  3  0  0  0  0  0  0
  161.8820  205.0950  144.0970 C   0  0  0  0  0  1  0  0  0  0  0  0
  163.3840  204.4220  145.7600 C   0  0  0  0  0  2  0  0  0  0  0  0
  1 19  2  0  0  0  0
  1 20  1  0  0  0  0
  2  7  1  0  0  0  0
  4 12  1  0  0  0  0
  5 18  1  0  0  0  0
  6  9  2  0  0  0  0
  7  5  1  0  0  0  0
  7  4  2  0  0  0  0
  9  4  1  0  0  0  0
 10 15  1  0  0  0  0
 10 14  1  0  0  0  0
 11 20  1  0  0  0  0
 11  5  2  0  0  0  0
 12  8  2  0  0  0  0
 13 15  2  0  0  0  0
 14  3  1  0  0  0  0
 16  6  1  0  0  0  0
 17  2  1  0  0  0  0
 17  6  1  0  0  0  0
 18 14  2  0  0  0  0
 18  8  1  0  0  0  0
 19 13  1  0  0  0  0
 20 10  2  0  0  0  0
 21  1  1  0  0  0  0
 22 21  1  1  0  0  0
 23 28  1  0  0  0  0
 23 26  1  0  0  0  0
 24 22  1  0  0  0  0
 26 25  1  1  0  0  0
 26 22  1  0  0  0  0
 27 23  1  0  0  0  0
 28 24  1  0  0  0  0
M  END
>  <MODEL>
7

>  <REMARK>
 VINA RESULT:      -8.1      2.012      6.797
  Name = 
  2 active torsions:
  status: ('A' for Active; 'I' for Inactive)
    1  A    between atoms: C_1  and  C_2
    2  A    between atoms: C_2  and  C_3
                            x       y       z     vdW  Elec       q    Type
                         _______ _______ _______ _____ _____    ______ ____

>  <TORSDO>
F 2

$$$$
=
 OpenBabel11052423013D

 28 32  0  0  1  0  0  0  0  0999 V2000
  162.0660  208.7120  148.7360 C   0  0  0  0  0  0  0  0  0  0  0  0
  161.6850  210.2560  153.5060 C   0  0  0  0  0  2  0  0  0  0  0  0
  160.8260  204.4910  151.0440 C   0  0  0  0  0  1  0  0  0  0  0  0
  161.1410  208.1100  154.6950 C   0  0  0  0  0  0  0  0  0  0  0  0
  161.4430  208.0480  152.2820 C   0  0  0  0  0  0  0  0  0  0  0  0
  161.6520  210.0970  156.0180 C   0  0  0  0  0  0  0  0  0  0  0  0
  161.4520  208.7670  153.4910 C   0  0  0  0  0  0  0  0  0  0  0  0
  160.8320  206.0310  153.4980 C   0  0  0  0  0  3  0  0  0  0  0  0
  161.1560  208.8570  155.9630 C   0  0  0  0  0  3  0  0  0  0  0  0
  161.4530  206.6370  149.8740 C   0  0  0  0  0  0  0  0  0  0  0  0
  161.7280  208.6760  151.1120 N   0  0  0  0  0  0  0  0  0  0  0  0
  160.8320  206.7490  154.6960 C   0  0  0  0  0  3  0  0  0  0  0  0
  161.7880  206.6630  147.4680 C   0  0  0  0  0  3  0  0  0  0  0  0
  161.1450  205.9570  151.0680 C   0  0  0  0  0  0  0  0  0  0  0  0
  161.4760  205.9720  148.6390 C   0  0  0  0  0  3  0  0  0  0  0  0
  161.6730  210.7890  157.2600 N   0  0  0  0  0  1  0  0  0  0  0  0
  162.3300  210.7080  154.8200 C   0  0  0  0  0  2  0  0  0  0  0  0
  161.1400  206.6660  152.2840 C   0  0  0  0  0  0  0  0  0  0  0  0
  162.0840  208.0260  147.5170 C   0  0  0  0  0  3  0  0  0  0  0  0
  161.7470  208.0210  149.9210 C   0  0  0  0  0  0  0  0  0  0  0  0
  162.4150  210.1730  148.7530 C   0  0  0  0  0  2  0  0  0  0  0  0
  161.2080  211.0820  148.5070 C   0  0  2  0  0  3  0  0  0  0  0  0
  160.9400  213.4070  148.2420 N   0  0  0  0  0  0  0  0  0  0  0  0
  161.0350  211.3310  147.1410 O   0  0  0  0  0  0  0  0  0  0  0  0
  160.4560  212.4590  150.4200 C   0  0  0  0  0  1  0  0  0  0  0  0
  161.3550  212.4110  149.2010 C   0  0  1  0  0  3  0  0  0  0  0  0
  162.1230  214.1720  147.8840 C   0  0  0  0  0  1  0  0  0  0  0  0
  160.5510  212.6470  147.0600 C   0  0  0  0  0  2  0  0  0  0  0  0
  1 21  1  0  0  0  0
  1 20  1  0  0  0  0
  2 17  1  0  0  0  0
  3 14  1  0  0  0  0
  4 12  1  0  0  0  0
  4  9  1  0  0  0  0
  5 18  1  0  0  0  0
  5  7  1  0  0  0  0
  6 16  1  0  0  0  0
  7  2  1  0  0  0  0
  7  4  2  0  0  0  0
  8 12  2  0  0  0  0
  9  6  2  0  0  0  0
 10 20  2  0  0  0  0
 10 14  1  0  0  0  0
 11  5  2  0  0  0  0
 13 19  1  0  0  0  0
 13 15  2  0  0  0  0
 14 18  2  0  0  0  0
 15 10  1  0  0  0  0
 17  6  1  0  0  0  0
 18  8  1  0  0  0  0
 19  1  2  0  0  0  0
 20 11  1  0  0  0  0
 22 21  1  6  0  0  0
 22 26  1  0  0  0  0
 23 26  1  0  0  0  0
 24 22  1  0  0  0  0
 26 25  1  1  0  0  0
 27 23  1  0  0  0  0
 28 24  1  0  0  0  0
 28 23  1  0  0  0  0
M  END
>  <MODEL>
8

>  <REMARK>
 VINA RESULT:      -7.9      2.186      5.657
  Name = 
  2 active torsions:
  status: ('A' for Active; 'I' for Inactive)
    1  A    between atoms: C_1  and  C_2
    2  A    between atoms: C_2  and  C_3
                            x       y       z     vdW  Elec       q    Type
                         _______ _______ _______ _____ _____    ______ ____

>  <TORSDO>
F 2

$$$$
=
 OpenBabel11052423013D

 28 32  0  0  1  0  0  0  0  0999 V2000
  160.9340  205.0960  148.3700 C   0  0  0  0  0  0  0  0  0  0  0  0
  160.8600  208.9990  151.5380 C   0  0  0  0  0  2  0  0  0  0  0  0
  161.0230  202.7960  152.7730 C   0  0  0  0  0  1  0  0  0  0  0  0
  160.9900  207.8490  153.7680 C   0  0  0  0  0  0  0  0  0  0  0  0
  160.9670  206.4760  151.7610 C   0  0  0  0  0  0  0  0  0  0  0  0
  161.2050  210.2790  153.6770 C   0  0  0  0  0  0  0  0  0  0  0  0
  160.9750  207.7450  152.3650 C   0  0  0  0  0  0  0  0  0  0  0  0
  161.0080  205.4380  153.9610 C   0  0  0  0  0  3  0  0  0  0  0  0
  161.0050  209.1770  154.4050 C   0  0  0  0  0  3  0  0  0  0  0  0
  160.9750  203.9670  150.5380 C   0  0  0  0  0  0  0  0  0  0  0  0
  160.9390  206.3640  150.4070 N   0  0  0  0  0  0  0  0  0  0  0  0
  161.0050  206.7000  154.5600 C   0  0  0  0  0  3  0  0  0  0  0  0
  160.9660  202.6730  148.4820 C   0  0  0  0  0  3  0  0  0  0  0  0
  160.9960  204.0460  151.9430 C   0  0  0  0  0  0  0  0  0  0  0  0
  160.9820  202.7300  149.8760 C   0  0  0  0  0  3  0  0  0  0  0  0
  161.2350  211.5470  154.3210 N   0  0  0  0  0  1  0  0  0  0  0  0
  161.5560  210.1840  152.2160 C   0  0  0  0  0  2  0  0  0  0  0  0
  160.9940  205.3110  152.5630 C   0  0  0  0  0  0  0  0  0  0  0  0
  160.9430  203.8500  147.7330 C   0  0  0  0  0  3  0  0  0  0  0  0
  160.9460  205.1600  149.7770 C   0  0  0  0  0  0  0  0  0  0  0  0
  160.9360  206.3410  147.5300 C   0  0  0  0  0  2  0  0  0  0  0  0
  161.5640  206.1350  146.1490 C   0  0  2  0  0  3  0  0  0  0  0  0
  161.6680  204.3170  144.6550 N   0  0  0  0  0  0  0  0  0  0  0  0
  160.6340  206.3750  145.1330 O   0  0  0  0  0  0  0  0  0  0  0  0
  163.5990  204.7310  146.0620 C   0  0  0  0  0  1  0  0  0  0  0  0
  162.0860  204.7330  145.9730 C   0  0  1  0  0  3  0  0  0  0  0  0
  160.6880  203.2580  144.8350 C   0  0  0  0  0  1  0  0  0  0  0  0
  160.9560  205.4670  144.1100 C   0  0  0  0  0  2  0  0  0  0  0  0
  1 20  1  0  0  0  0
  2 17  1  0  0  0  0
  2  7  1  0  0  0  0
  4  9  1  0  0  0  0
  4 12  1  0  0  0  0
  5  7  1  0  0  0  0
  5 18  1  0  0  0  0
  6 16  1  0  0  0  0
  6  9  2  0  0  0  0
  7  4  2  0  0  0  0
  8 12  2  0  0  0  0
 10 14  1  0  0  0  0
 11  5  2  0  0  0  0
 13 15  2  0  0  0  0
 14 18  2  0  0  0  0
 14  3  1  0  0  0  0
 15 10  1  0  0  0  0
 17  6  1  0  0  0  0
 18  8  1  0  0  0  0
 19  1  2  0  0  0  0
 19 13  1  0  0  0  0
 20 11  1  0  0  0  0
 20 10  2  0  0  0  0
 21  1  1  0  0  0  0
 22 21  1  1  0  0  0
 23 27  1  0  0  0  0
 23 26  1  0  0  0  0
 24 22  1  0  0  0  0
 26 25  1  6  0  0  0
 26 22  1  0  0  0  0
 28 23  1  0  0  0  0
 28 24  1  0  0  0  0
M  END
>  <MODEL>
9

>  <REMARK>
 VINA RESULT:      -7.7      3.093      6.799
  Name = 
  2 active torsions:
  status: ('A' for Active; 'I' for Inactive)
    1  A    between atoms: C_1  and  C_2
    2  A    between atoms: C_2  and  C_3
                            x       y       z     vdW  Elec       q    Type
                         _______ _______ _______ _____ _____    ______ ____

>  <TORSDO>
F 2

$$$$
