=
 OpenBabel11052423083D

 27 31  0  0  1  0  0  0  0  0999 V2000
  157.9260  212.0170  153.0200 N   0  0  0  0  0  0  0  0  0  0  0  0
  160.1160  211.2130  152.6440 C   0  0  1  0  0  3  0  0  0  0  0  0
  160.4060  211.2710  155.0380 N   0  0  0  0  0  2  0  0  0  0  0  0
  161.8800  207.1490  152.0670 C   0  0  0  0  0  3  0  0  0  0  0  0
  160.9020  205.7830  153.8460 F   0  0  0  0  0  0  0  0  0  0  0  0
  160.8500  210.4920  151.6000 C   0  0  0  0  0  3  0  0  0  0  0  0
  160.8380  208.1160  154.0880 C   0  0  0  0  0  0  0  0  0  0  0  0
  159.8540  214.0280  157.2600 N   0  0  0  0  0  0  0  0  0  0  0  0
  160.0420  207.9290  155.6460 Cl  0  0  0  0  0  0  0  0  0  0  0  0
  158.6010  214.4470  156.9630 C   0  0  0  0  0  3  0  0  0  0  0  0
  161.3220  209.4810  153.6550 C   0  0  2  0  0  3  0  0  0  0  0  0
  159.0980  212.1170  152.3530 C   0  0  0  0  0  0  0  0  0  0  0  0
  161.1960  207.0230  153.3820 C   0  0  0  0  0  0  0  0  0  0  0  0
  162.0240  208.3400  151.4710 C   0  0  0  0  0  3  0  0  0  0  0  0
  157.6640  212.2690  154.2760 O   0  0  0  0  0  0  0  0  0  0  0  0
  160.3600  210.6050  153.8660 C   0  0  2  0  0  3  0  0  0  0  0  0
  160.4380  213.0130  156.5750 C   0  0  0  0  0  3  0  0  0  0  0  0
  161.5200  209.5150  152.1800 C   0  0  0  0  0  0  0  0  0  0  0  0
  157.8950  213.8340  155.9320 C   0  0  0  0  0  3  0  0  0  0  0  0
  158.4750  212.8140  155.1680 C   0  0  0  0  0  0  0  0  0  0  0  0
  159.7910  212.3850  155.5020 C   0  0  0  0  0  0  0  0  0  0  0  0
  158.7560  214.3780  148.6990 C   0  0  0  0  0  3  0  0  0  0  0  0
  159.0270  212.6330  150.9420 C   0  0  2  0  0  3  0  0  0  0  0  0
  160.0880  213.7120  150.7090 C   0  0  0  0  0  2  0  0  0  0  0  0
  159.9080  214.4130  149.3860 C   0  0  0  0  0  3  0  0  0  0  0  0
  157.5770  213.5450  149.1360 C   0  0  0  0  0  2  0  0  0  0  0  0
  157.6420  213.1920  150.6200 C   0  0  0  0  0  2  0  0  0  0  0  0
  1 15  1  0  0  0  0
  2  6  1  6  0  0  0
  2 16  1  0  0  0  0
  3 21  1  0  0  0  0
  4 13  1  0  0  0  0
  6 18  2  0  0  0  0
  7  9  1  0  0  0  0
 10  8  1  0  0  0  0
 11 18  1  6  0  0  0
 11 16  1  0  0  0  0
 11  7  1  0  0  0  0
 12  2  1  0  0  0  0
 12  1  2  0  0  0  0
 13  5  1  0  0  0  0
 13  7  2  0  0  0  0
 14  4  2  0  0  0  0
 14 18  1  0  0  0  0
 15 20  1  0  0  0  0
 16  3  1  1  0  0  0
 17  8  2  0  0  0  0
 19 10  2  0  0  0  0
 20 21  2  0  0  0  0
 20 19  1  0  0  0  0
 21 17  1  0  0  0  0
 22 26  1  0  0  0  0
 22 25  2  0  0  0  0
 23 12  1  1  0  0  0
 24 23  1  0  0  0  0
 25 24  1  0  0  0  0
 26 27  1  0  0  0  0
 27 23  1  0  0  0  0
M  END
>  <MODEL>
1

>  <REMARK>
 VINA RESULT:      -5.9      0.000      0.000
  Name = 
  1 active torsions:
  status: ('A' for Active; 'I' for Inactive)
    1  A    between atoms: C_9  and  C_15
                            x       y       z     vdW  Elec       q    Type
                         _______ _______ _______ _____ _____    ______ ____

>  <TORSDO>
F 1

$$$$
=
 OpenBabel11052423083D

 27 31  0  0  1  0  0  0  0  0999 V2000
  160.7280  211.6930  140.7660 N   0  0  0  0  0  0  0  0  0  0  0  0
  161.2560  213.4280  142.2800 C   0  0  0  0  0  0  0  0  0  0  0  0
  158.8800  213.7590  142.5260 N   0  0  0  0  0  2  0  0  0  0  0  0
  162.1930  213.5690  146.6460 C   0  0  0  0  0  3  0  0  0  0  0  0
  160.4720  212.1860  147.7010 F   0  0  0  0  0  0  0  0  0  0  0  0
  162.3790  213.8300  143.1320 C   0  0  0  0  0  3  0  0  0  0  0  0
  160.0650  212.9860  145.5340 C   0  0  0  0  0  0  0  0  0  0  0  0
  156.4490  214.2920  139.9480 N   0  0  0  0  0  0  0  0  0  0  0  0
  158.4900  212.2020  145.5430 Cl  0  0  0  0  0  0  0  0  0  0  0  0
  156.6600  213.2760  139.0790 C   0  0  0  0  0  3  0  0  0  0  0  0
  160.4230  213.9300  144.4090 C   0  0  2  0  0  3  0  0  0  0  0  0
  161.4380  212.8080  141.0470 C   0  0  0  0  0  0  0  0  0  0  0  0
  160.8600  212.9070  146.6210 C   0  0  0  0  0  0  0  0  0  0  0  0
  162.7100  214.1300  145.5470 C   0  0  0  0  0  3  0  0  0  0  0  0
  159.4470  211.5620  140.5390 O   0  0  0  0  0  0  0  0  0  0  0  0
  160.0920  213.4520  143.0330 C   0  0  2  0  0  3  0  0  0  0  0  0
  157.2280  214.4520  141.0470 C   0  0  0  0  0  3  0  0  0  0  0  0
  161.9000  214.1040  144.3300 C   0  0  1  0  0  3  0  0  0  0  0  0
  157.6980  212.3780  139.3060 C   0  0  0  0  0  3  0  0  0  0  0  0
  158.5570  212.5310  140.4010 C   0  0  0  0  0  0  0  0  0  0  0  0
  158.3120  213.6030  141.3070 C   0  0  0  0  0  0  0  0  0  0  0  0
  164.9080  213.2820  138.5340 C   0  0  0  0  0  3  0  0  0  0  0  0
  162.8050  212.9100  140.4280 C   0  0  2  0  0  3  0  0  0  0  0  0
  163.0220  214.2990  139.8240 C   0  0  0  0  0  2  0  0  0  0  0  0
  164.2830  214.3730  139.0000 C   0  0  0  0  0  3  0  0  0  0  0  0
  164.4650  211.8830  138.8830 C   0  0  0  0  0  2  0  0  0  0  0  0
  163.0140  211.8410  139.3560 C   0  0  0  0  0  2  0  0  0  0  0  0
  1 12  2  0  0  0  0
  2  6  2  0  0  0  0
  3 16  1  0  0  0  0
  7  9  1  0  0  0  0
  7 13  2  0  0  0  0
  8 17  1  0  0  0  0
 10 19  1  0  0  0  0
 10  8  2  0  0  0  0
 11  7  1  1  0  0  0
 12  2  1  0  0  0  0
 13  4  1  0  0  0  0
 13  5  1  0  0  0  0
 14  4  2  0  0  0  0
 15  1  1  0  0  0  0
 16  2  1  6  0  0  0
 16 11  1  0  0  0  0
 17 21  2  0  0  0  0
 18  6  1  6  0  0  0
 18 11  1  0  0  0  0
 18 14  1  0  0  0  0
 19 20  2  0  0  0  0
 20 15  1  0  0  0  0
 20 21  1  0  0  0  0
 21  3  1  0  0  0  0
 22 26  1  0  0  0  0
 22 25  2  0  0  0  0
 23 12  1  6  0  0  0
 24 23  1  0  0  0  0
 25 24  1  0  0  0  0
 26 27  1  0  0  0  0
 27 23  1  0  0  0  0
M  END
>  <MODEL>
2

>  <REMARK>
 VINA RESULT:      -4.6      9.087     12.335
  Name = 
  1 active torsions:
  status: ('A' for Active; 'I' for Inactive)
    1  A    between atoms: C_9  and  C_15
                            x       y       z     vdW  Elec       q    Type
                         _______ _______ _______ _____ _____    ______ ____

>  <TORSDO>
F 1

$$$$
=
 OpenBabel11052423083D

 27 31  0  0  1  0  0  0  0  0999 V2000
  160.4570  211.4090  142.1270 N   0  0  0  0  0  0  0  0  0  0  0  0
  159.1510  213.2460  141.4170 C   0  0  0  0  0  0  0  0  0  0  0  0
  159.9110  212.7530  139.1810 N   0  0  0  0  0  2  0  0  0  0  0  0
  154.8480  213.7690  140.3320 C   0  0  0  0  0  3  0  0  0  0  0  0
  154.3490  211.9010  138.8320 F   0  0  0  0  0  0  0  0  0  0  0  0
  158.0020  214.0190  141.8960 C   0  0  0  0  0  3  0  0  0  0  0  0
  156.5990  212.4790  139.1580 C   0  0  0  0  0  0  0  0  0  0  0  0
  163.2850  212.3870  138.0300 N   0  0  0  0  0  0  0  0  0  0  0  0
  157.0850  211.2080  138.0430 Cl  0  0  0  0  0  0  0  0  0  0  0  0
  163.8300  211.4880  138.8840 C   0  0  0  0  0  3  0  0  0  0  0  0
  157.6270  213.4700  139.6550 C   0  0  2  0  0  3  0  0  0  0  0  0
  160.0990  212.7040  142.2800 C   0  0  0  0  0  0  0  0  0  0  0  0
  155.2900  212.6930  139.4030 C   0  0  0  0  0  0  0  0  0  0  0  0
  155.7310  214.4530  141.0700 C   0  0  0  0  0  3  0  0  0  0  0  0
  161.1440  210.8470  141.1670 O   0  0  0  0  0  0  0  0  0  0  0  0
  158.9290  212.8850  140.0970 C   0  0  2  0  0  3  0  0  0  0  0  0
  162.0090  212.8200  138.1850 C   0  0  0  0  0  3  0  0  0  0  0  0
  157.1470  214.1340  140.8980 C   0  0  1  0  0  3  0  0  0  0  0  0
  163.0760  211.0010  139.9470 C   0  0  0  0  0  3  0  0  0  0  0  0
  161.7710  211.4540  140.1720 C   0  0  0  0  0  0  0  0  0  0  0  0
  161.2140  212.3940  139.2580 C   0  0  0  0  0  0  0  0  0  0  0  0
  160.8400  213.6630  146.4160 C   0  0  0  0  0  3  0  0  0  0  0  0
  160.1400  213.2530  143.6790 C   0  0  2  0  0  3  0  0  0  0  0  0
  161.5440  213.7610  144.0180 C   0  0  0  0  0  2  0  0  0  0  0  0
  161.6880  214.1100  145.4780 C   0  0  0  0  0  3  0  0  0  0  0  0
  159.6080  212.8600  146.0790 C   0  0  0  0  0  2  0  0  0  0  0  0
  159.7080  212.2050  144.7030 C   0  0  0  0  0  2  0  0  0  0  0  0
  1 12  2  0  0  0  0
  2  6  2  0  0  0  0
  2 12  1  0  0  0  0
  3 21  1  0  0  0  0
  4 14  2  0  0  0  0
  5 13  1  0  0  0  0
  7 13  2  0  0  0  0
  8 17  2  0  0  0  0
  8 10  1  0  0  0  0
  9  7  1  0  0  0  0
 10 19  2  0  0  0  0
 11  7  1  1  0  0  0
 11 16  1  0  0  0  0
 11 18  1  0  0  0  0
 13  4  1  0  0  0  0
 15  1  1  0  0  0  0
 16  3  1  6  0  0  0
 16  2  1  0  0  0  0
 17 21  1  0  0  0  0
 18 14  1  1  0  0  0
 18  6  1  0  0  0  0
 19 20  1  0  0  0  0
 20 15  1  0  0  0  0
 21 20  2  0  0  0  0
 23 12  1  6  0  0  0
 23 24  1  0  0  0  0
 23 27  1  0  0  0  0
 24 25  1  0  0  0  0
 25 22  2  0  0  0  0
 26 22  1  0  0  0  0
 27 26  1  0  0  0  0
M  END
>  <MODEL>
3

>  <REMARK>
 VINA RESULT:      -4.5     10.162     13.802
  Name = 
  1 active torsions:
  status: ('A' for Active; 'I' for Inactive)
    1  A    between atoms: C_9  and  C_15
                            x       y       z     vdW  Elec       q    Type
                         _______ _______ _______ _____ _____    ______ ____

>  <TORSDO>
F 1

$$$$
=
 OpenBabel11052423083D

 27 31  0  0  1  0  0  0  0  0999 V2000
  160.9500  210.4300  140.7520 N   0  0  0  0  0  0  0  0  0  0  0  0
  159.7060  211.6640  139.1680 C   0  0  1  0  0  3  0  0  0  0  0  0
  159.2290  209.5570  138.0960 N   0  0  0  0  0  2  0  0  0  0  0  0
  155.5170  213.2110  139.0230 C   0  0  0  0  0  3  0  0  0  0  0  0
  154.1270  211.3210  139.7220 F   0  0  0  0  0  0  0  0  0  0  0  0
  159.0360  212.9650  139.0780 C   0  0  0  0  0  3  0  0  0  0  0  0
  156.3090  210.8700  138.9880 C   0  0  0  0  0  0  0  0  0  0  0  0
  161.5570  207.0580  137.0110 N   0  0  0  0  0  0  0  0  0  0  0  0
  156.0340  209.1500  139.2380 Cl  0  0  0  0  0  0  0  0  0  0  0  0
  162.3280  206.8280  138.1000 C   0  0  0  0  0  3  0  0  0  0  0  0
  157.5650  211.3320  138.2840 C   0  0  2  0  0  3  0  0  0  0  0  0
  160.8760  211.4740  139.8980 C   0  0  0  0  0  0  0  0  0  0  0  0
  155.3180  211.7510  139.2350 C   0  0  0  0  0  0  0  0  0  0  0  0
  156.7230  213.7100  138.7290 C   0  0  0  0  0  3  0  0  0  0  0  0
  161.0140  209.1500  140.4930 O   0  0  0  0  0  0  0  0  0  0  0  0
  158.8330  210.6800  138.7290 C   0  0  2  0  0  3  0  0  0  0  0  0
  160.5790  207.9970  137.0260 C   0  0  0  0  0  3  0  0  0  0  0  0
  157.8300  212.7650  138.5860 C   0  0  0  0  0  0  0  0  0  0  0  0
  162.1230  207.5700  139.2590 C   0  0  0  0  0  3  0  0  0  0  0  0
  161.1550  208.5810  139.3060 C   0  0  0  0  0  0  0  0  0  0  0  0
  160.3510  208.8020  138.1510 C   0  0  0  0  0  0  0  0  0  0  0  0
  163.7950  214.4520  140.9900 C   0  0  0  0  0  3  0  0  0  0  0  0
  161.6530  212.7060  140.2720 C   0  0  2  0  0  3  0  0  0  0  0  0
  162.7690  212.9680  139.2570 C   0  0  0  0  0  2  0  0  0  0  0  0
  163.7100  214.0560  139.7110 C   0  0  0  0  0  3  0  0  0  0  0  0
  162.8800  213.9210  142.0650 C   0  0  0  0  0  2  0  0  0  0  0  0
  162.2480  212.5870  141.6740 C   0  0  0  0  0  2  0  0  0  0  0  0
  2  6  1  1  0  0  0
  2 12  1  0  0  0  0
  3 21  1  0  0  0  0
  4 13  1  0  0  0  0
  7 13  2  0  0  0  0
  7  9  1  0  0  0  0
  8 17  2  0  0  0  0
  8 10  1  0  0  0  0
 10 19  2  0  0  0  0
 11 18  1  1  0  0  0
 11 16  1  0  0  0  0
 11  7  1  0  0  0  0
 12  1  2  0  0  0  0
 13  5  1  0  0  0  0
 14  4  2  0  0  0  0
 15  1  1  0  0  0  0
 16  3  1  6  0  0  0
 16  2  1  0  0  0  0
 17 21  1  0  0  0  0
 18 14  1  0  0  0  0
 18  6  2  0  0  0  0
 19 20  1  0  0  0  0
 20 15  1  0  0  0  0
 21 20  2  0  0  0  0
 22 26  1  0  0  0  0
 23 12  1  6  0  0  0
 23 27  1  0  0  0  0
 24 25  1  0  0  0  0
 24 23  1  0  0  0  0
 25 22  2  0  0  0  0
 27 26  1  0  0  0  0
M  END
>  <MODEL>
4

>  <REMARK>
 VINA RESULT:      -4.5     12.694     15.231
  Name = 
  1 active torsions:
  status: ('A' for Active; 'I' for Inactive)
    1  A    between atoms: C_9  and  C_15
                            x       y       z     vdW  Elec       q    Type
                         _______ _______ _______ _____ _____    ______ ____

>  <TORSDO>
F 1

$$$$
=
 OpenBabel11052423083D

 27 31  0  0  1  0  0  0  0  0999 V2000
  161.4310  211.6200  141.2420 N   0  0  0  0  0  0  0  0  0  0  0  0
  159.4670  212.5000  140.2670 C   0  0  1  0  0  3  0  0  0  0  0  0
  160.5980  212.3220  138.1450 N   0  0  0  0  0  2  0  0  0  0  0  0
  155.6130  210.7120  138.8840 C   0  0  0  0  0  3  0  0  0  0  0  0
  156.2670  208.7600  137.5610 F   0  0  0  0  0  0  0  0  0  0  0  0
  158.0420  212.6150  140.5950 C   0  0  0  0  0  3  0  0  0  0  0  0
  157.8840  210.4130  137.9560 C   0  0  0  0  0  0  0  0  0  0  0  0
  163.8050  213.6380  137.2390 N   0  0  0  0  0  0  0  0  0  0  0  0
  159.0500  209.4950  137.0110 Cl  0  0  0  0  0  0  0  0  0  0  0  0
  164.6330  213.1920  138.2130 C   0  0  0  0  0  3  0  0  0  0  0  0
  158.2250  211.8160  138.4050 C   0  0  2  0  0  3  0  0  0  0  0  0
  160.4640  212.5640  141.2370 C   0  0  0  0  0  0  0  0  0  0  0  0
  156.6240  209.9520  138.1000 C   0  0  0  0  0  0  0  0  0  0  0  0
  155.9560  211.7920  139.5960 C   0  0  0  0  0  3  0  0  0  0  0  0
  162.4020  211.4250  140.3890 O   0  0  0  0  0  0  0  0  0  0  0  0
  159.5910  211.9960  138.9820 C   0  0  2  0  0  3  0  0  0  0  0  0
  162.4750  213.3770  137.2720 C   0  0  0  0  0  3  0  0  0  0  0  0
  157.3530  212.2210  139.5420 C   0  0  0  0  0  0  0  0  0  0  0  0
  164.1160  212.4560  139.2740 C   0  0  0  0  0  3  0  0  0  0  0  0
  162.7430  212.2020  139.3740 C   0  0  0  0  0  0  0  0  0  0  0  0
  161.8910  212.6750  138.3350 C   0  0  0  0  0  0  0  0  0  0  0  0
  160.0960  213.8130  145.3460 C   0  0  0  0  0  3  0  0  0  0  0  0
  160.0810  213.1440  142.5710 C   0  0  2  0  0  3  0  0  0  0  0  0
  161.2020  214.0350  143.1130 C   0  0  0  0  0  2  0  0  0  0  0  0
  160.9580  214.4530  144.5410 C   0  0  0  0  0  3  0  0  0  0  0  0
  159.2170  212.6870  144.8600 C   0  0  0  0  0  2  0  0  0  0  0  0
  159.7570  212.0470  143.5840 C   0  0  0  0  0  2  0  0  0  0  0  0
  2  6  1  1  0  0  0
  2 12  1  0  0  0  0
  3 21  1  0  0  0  0
  4 14  2  0  0  0  0
  5 13  1  0  0  0  0
  7 13  2  0  0  0  0
  8 17  2  0  0  0  0
  8 10  1  0  0  0  0
  9  7  1  0  0  0  0
 10 19  2  0  0  0  0
 11  7  1  1  0  0  0
 11 16  1  0  0  0  0
 11 18  1  0  0  0  0
 12  1  2  0  0  0  0
 13  4  1  0  0  0  0
 15  1  1  0  0  0  0
 16  3  1  6  0  0  0
 16  2  1  0  0  0  0
 17 21  1  0  0  0  0
 18 14  1  0  0  0  0
 18  6  2  0  0  0  0
 19 20  1  0  0  0  0
 20 15  1  0  0  0  0
 21 20  2  0  0  0  0
 23 12  1  6  0  0  0
 23 24  1  0  0  0  0
 23 27  1  0  0  0  0
 24 25  1  0  0  0  0
 25 22  2  0  0  0  0
 26 22  1  0  0  0  0
 27 26  1  0  0  0  0
M  END
>  <MODEL>
5

>  <REMARK>
 VINA RESULT:      -4.3     11.096     14.449
  Name = 
  1 active torsions:
  status: ('A' for Active; 'I' for Inactive)
    1  A    between atoms: C_9  and  C_15
                            x       y       z     vdW  Elec       q    Type
                         _______ _______ _______ _____ _____    ______ ____

>  <TORSDO>
F 1

$$$$
=
 OpenBabel11052423083D

 27 31  0  0  1  0  0  0  0  0999 V2000
  159.3430  211.7070  152.5200 N   0  0  0  0  0  0  0  0  0  0  0  0
  161.2960  210.5400  151.8850 C   0  0  0  0  0  0  0  0  0  0  0  0
  161.4120  209.7590  154.1640 N   0  0  0  0  0  2  0  0  0  0  0  0
  162.0690  206.5640  149.9990 C   0  0  0  0  0  3  0  0  0  0  0  0
  160.6600  204.9970  151.2430 F   0  0  0  0  0  0  0  0  0  0  0  0
  161.9120  210.0270  150.6570 C   0  0  0  0  0  3  0  0  0  0  0  0
  161.1410  207.0680  152.2340 C   0  0  0  0  0  0  0  0  0  0  0  0
  161.3740  211.7120  157.1690 N   0  0  0  0  0  0  0  0  0  0  0  0
  160.2090  206.6030  153.6520 Cl  0  0  0  0  0  0  0  0  0  0  0  0
  160.2850  212.5050  157.0340 C   0  0  0  0  0  3  0  0  0  0  0  0
  161.9700  208.3320  152.2660 C   0  0  2  0  0  3  0  0  0  0  0  0
  160.5500  211.7150  151.9130 C   0  0  0  0  0  0  0  0  0  0  0  0
  161.2780  206.2030  151.2070 C   0  0  0  0  0  0  0  0  0  0  0  0
  162.5390  207.8050  149.8240 C   0  0  0  0  0  3  0  0  0  0  0  0
  159.0550  211.6050  153.7910 O   0  0  0  0  0  0  0  0  0  0  0  0
  161.2950  209.5340  152.8390 C   0  0  2  0  0  3  0  0  0  0  0  0
  161.7460  210.8560  156.1860 C   0  0  0  0  0  3  0  0  0  0  0  0
  162.2810  208.7820  150.8810 C   0  0  1  0  0  3  0  0  0  0  0  0
  159.5320  212.4510  155.8660 C   0  0  0  0  0  3  0  0  0  0  0  0
  159.9050  211.6150  154.8060 C   0  0  0  0  0  0  0  0  0  0  0  0
  161.0500  210.7850  154.9710 C   0  0  0  0  0  0  0  0  0  0  0  0
  160.2460  214.0550  148.3050 C   0  0  0  0  0  3  0  0  0  0  0  0
  160.7120  212.6530  150.7480 C   0  0  2  0  0  3  0  0  0  0  0  0
  159.5210  213.6110  150.6580 C   0  0  0  0  0  2  0  0  0  0  0  0
  159.5300  214.4140  149.3810 C   0  0  0  0  0  3  0  0  0  0  0  0
  161.1890  212.8770  148.3150 C   0  0  0  0  0  2  0  0  0  0  0  0
  160.8620  211.8890  149.4330 C   0  0  0  0  0  2  0  0  0  0  0  0
  1 15  1  0  0  0  0
  2 12  1  0  0  0  0
  3 21  1  0  0  0  0
  4 13  1  0  0  0  0
  6 18  1  0  0  0  0
  6  2  2  0  0  0  0
  7  9  1  0  0  0  0
 10  8  1  0  0  0  0
 11  7  1  6  0  0  0
 11 16  1  0  0  0  0
 12  1  2  0  0  0  0
 13  5  1  0  0  0  0
 13  7  2  0  0  0  0
 14  4  2  0  0  0  0
 15 20  1  0  0  0  0
 16  2  1  6  0  0  0
 16  3  1  0  0  0  0
 17  8  2  0  0  0  0
 18 14  1  6  0  0  0
 18 11  1  0  0  0  0
 19 10  2  0  0  0  0
 20 21  2  0  0  0  0
 20 19  1  0  0  0  0
 21 17  1  0  0  0  0
 22 26  1  0  0  0  0
 22 25  2  0  0  0  0
 23 12  1  1  0  0  0
 24 23  1  0  0  0  0
 25 24  1  0  0  0  0
 26 27  1  0  0  0  0
 27 23  1  0  0  0  0
M  END
>  <MODEL>
6

>  <REMARK>
 VINA RESULT:      -4.1      1.584      2.141
  Name = 
  1 active torsions:
  status: ('A' for Active; 'I' for Inactive)
    1  A    between atoms: C_9  and  C_15
                            x       y       z     vdW  Elec       q    Type
                         _______ _______ _______ _____ _____    ______ ____

>  <TORSDO>
F 1

$$$$
=
 OpenBabel11052423083D

 27 31  0  0  1  0  0  0  0  0999 V2000
  162.8430  206.6580  147.8890 N   0  0  0  0  0  0  0  0  0  0  0  0
  161.0770  205.7860  149.1930 C   0  0  1  0  0  3  0  0  0  0  0  0
  160.8160  204.1080  147.4810 N   0  0  0  0  0  2  0  0  0  0  0  0
  160.8630  202.9570  152.6450 C   0  0  0  0  0  3  0  0  0  0  0  0
  162.2860  201.0740  152.0000 F   0  0  0  0  0  0  0  0  0  0  0  0
  160.6330  205.8170  150.5900 C   0  0  0  0  0  3  0  0  0  0  0  0
  161.5210  202.5050  150.3060 C   0  0  0  0  0  0  0  0  0  0  0  0
  160.3830  204.6000  143.9580 N   0  0  0  0  0  0  0  0  0  0  0  0
  162.3510  201.5230  149.1050 Cl  0  0  0  0  0  0  0  0  0  0  0  0
  161.4020  205.4230  143.6110 C   0  0  0  0  0  3  0  0  0  0  0  0
  160.5780  203.5980  149.8560 C   0  0  2  0  0  3  0  0  0  0  0  0
  161.7040  206.8700  148.5850 C   0  0  0  0  0  0  0  0  0  0  0  0
  161.5640  202.1530  151.6070 C   0  0  0  0  0  0  0  0  0  0  0  0
  160.2980  204.1330  152.3450 C   0  0  0  0  0  3  0  0  0  0  0  0
  163.0150  206.0390  146.7500 O   0  0  0  0  0  0  0  0  0  0  0  0
  161.0810  204.4720  148.7530 C   0  0  2  0  0  3  0  0  0  0  0  0
  160.1890  204.2260  145.2470 C   0  0  0  0  0  3  0  0  0  0  0  0
  160.3610  204.5790  150.9540 C   0  0  0  0  0  0  0  0  0  0  0  0
  162.2650  205.9020  144.5910 C   0  0  0  0  0  3  0  0  0  0  0  0
  162.0750  205.5800  145.9400 C   0  0  0  0  0  0  0  0  0  0  0  0
  161.0020  204.7090  146.2820 C   0  0  0  0  0  0  0  0  0  0  0  0
  162.1800  210.7670  150.3640 C   0  0  0  0  0  3  0  0  0  0  0  0
  161.5680  208.2050  149.2630 C   0  0  2  0  0  3  0  0  0  0  0  0
  161.9950  209.3340  148.3220 C   0  0  0  0  0  2  0  0  0  0  0  0
  162.0890  210.6630  149.0290 C   0  0  0  0  0  3  0  0  0  0  0  0
  162.0880  209.5710  151.2790 C   0  0  0  0  0  2  0  0  0  0  0  0
  162.3920  208.2650  150.5490 C   0  0  0  0  0  2  0  0  0  0  0  0
  1 12  2  0  0  0  0
  2  6  1  1  0  0  0
  6 18  2  0  0  0  0
  7 13  2  0  0  0  0
  8 17  1  0  0  0  0
  9  7  1  0  0  0  0
 10  8  2  0  0  0  0
 10 19  1  0  0  0  0
 11  7  1  1  0  0  0
 11 18  1  0  0  0  0
 12  2  1  0  0  0  0
 13  5  1  0  0  0  0
 13  4  1  0  0  0  0
 14  4  2  0  0  0  0
 15  1  1  0  0  0  0
 16  3  1  6  0  0  0
 16  2  1  0  0  0  0
 16 11  1  0  0  0  0
 17 21  2  0  0  0  0
 18 14  1  0  0  0  0
 19 20  2  0  0  0  0
 20 21  1  0  0  0  0
 20 15  1  0  0  0  0
 21  3  1  0  0  0  0
 22 26  1  0  0  0  0
 23 12  1  6  0  0  0
 23 27  1  0  0  0  0
 24 25  1  0  0  0  0
 24 23  1  0  0  0  0
 25 22  2  0  0  0  0
 27 26  1  0  0  0  0
M  END
>  <MODEL>
7

>  <REMARK>
 VINA RESULT:      -4.0      6.105      9.096
  Name = 
  1 active torsions:
  status: ('A' for Active; 'I' for Inactive)
    1  A    between atoms: C_9  and  C_15
                            x       y       z     vdW  Elec       q    Type
                         _______ _______ _______ _____ _____    ______ ____

>  <TORSDO>
F 1

$$$$
=
 OpenBabel11052423083D

 27 31  0  0  1  0  0  0  0  0999 V2000
  163.0750  209.3380  149.0410 N   0  0  0  0  0  0  0  0  0  0  0  0
  161.2400  209.7550  150.4700 C   0  0  0  0  0  0  0  0  0  0  0  0
  160.8190  207.3820  150.4060 N   0  0  0  0  0  2  0  0  0  0  0  0
  160.7760  210.1840  154.8930 C   0  0  0  0  0  3  0  0  0  0  0  0
  162.0160  208.2980  155.8380 F   0  0  0  0  0  0  0  0  0  0  0  0
  160.8060  210.7870  151.4160 C   0  0  0  0  0  3  0  0  0  0  0  0
  161.3820  208.1770  153.5830 C   0  0  0  0  0  0  0  0  0  0  0  0
  160.4210  205.2890  147.5240 N   0  0  0  0  0  0  0  0  0  0  0  0
  162.1130  206.5820  153.4650 Cl  0  0  0  0  0  0  0  0  0  0  0  0
  161.5100  205.5600  146.7660 C   0  0  0  0  0  3  0  0  0  0  0  0
  160.5430  208.7010  152.4400 C   0  0  2  0  0  3  0  0  0  0  0  0
  161.9630  210.0540  149.3180 C   0  0  0  0  0  0  0  0  0  0  0  0
  161.3970  208.8370  154.7590 C   0  0  0  0  0  0  0  0  0  0  0  0
  160.3220  210.8470  153.8220 C   0  0  0  0  0  3  0  0  0  0  0  0
  163.1850  208.0880  148.6740 O   0  0  0  0  0  0  0  0  0  0  0  0
  161.1200  208.5140  151.0750 C   0  0  2  0  0  3  0  0  0  0  0  0
  160.1970  205.9410  148.6910 C   0  0  0  0  0  3  0  0  0  0  0  0
  160.4210  210.1830  152.5230 C   0  0  1  0  0  3  0  0  0  0  0  0
  162.4180  206.5280  147.1830 C   0  0  0  0  0  3  0  0  0  0  0  0
  162.2030  207.2580  148.3580 C   0  0  0  0  0  0  0  0  0  0  0  0
  161.0550  206.9540  149.1430 C   0  0  0  0  0  0  0  0  0  0  0  0
  162.0360  213.8080  147.2010 C   0  0  0  0  0  3  0  0  0  0  0  0
  161.9540  211.4870  148.8610 C   0  0  2  0  0  3  0  0  0  0  0  0
  160.8170  211.7270  147.8650 C   0  0  0  0  0  2  0  0  0  0  0  0
  160.9070  213.0830  147.2110 C   0  0  0  0  0  3  0  0  0  0  0  0
  163.2820  213.3780  147.9350 C   0  0  0  0  0  2  0  0  0  0  0  0
  163.2880  211.8790  148.2270 C   0  0  0  0  0  2  0  0  0  0  0  0
  1 12  2  0  0  0  0
  2 16  1  0  0  0  0
  2  6  2  0  0  0  0
  7 13  2  0  0  0  0
  8 17  1  0  0  0  0
  9  7  1  0  0  0  0
 10 19  1  0  0  0  0
 10  8  2  0  0  0  0
 11 18  1  0  0  0  0
 11  7  1  1  0  0  0
 12  2  1  0  0  0  0
 13  4  1  0  0  0  0
 13  5  1  0  0  0  0
 14  4  2  0  0  0  0
 15  1  1  0  0  0  0
 16  3  1  6  0  0  0
 16 11  1  0  0  0  0
 17 21  2  0  0  0  0
 18  6  1  1  0  0  0
 18 14  1  0  0  0  0
 19 20  2  0  0  0  0
 20 15  1  0  0  0  0
 20 21  1  0  0  0  0
 21  3  1  0  0  0  0
 22 25  2  0  0  0  0
 22 26  1  0  0  0  0
 23 12  1  6  0  0  0
 24 23  1  0  0  0  0
 25 24  1  0  0  0  0
 26 27  1  0  0  0  0
 27 23  1  0  0  0  0
M  END
>  <MODEL>
8

>  <REMARK>
 VINA RESULT:      -3.9      4.040      6.620
  Name = 
  1 active torsions:
  status: ('A' for Active; 'I' for Inactive)
    1  A    between atoms: C_9  and  C_15
                            x       y       z     vdW  Elec       q    Type
                         _______ _______ _______ _____ _____    ______ ____

>  <TORSDO>
F 1

$$$$
=
 OpenBabel11052423083D

 27 31  0  0  1  0  0  0  0  0999 V2000
  160.4160  212.2730  155.2620 N   0  0  0  0  0  0  0  0  0  0  0  0
  160.1470  211.0280  153.2720 C   0  0  0  0  0  0  0  0  0  0  0  0
  158.4430  212.6210  152.6610 N   0  0  0  0  0  2  0  0  0  0  0  0
  162.2070  211.0180  149.3070 C   0  0  0  0  0  3  0  0  0  0  0  0
  162.3540  213.3770  148.6720 F   0  0  0  0  0  0  0  0  0  0  0  0
  160.9230  210.0870  152.4590 C   0  0  0  0  0  3  0  0  0  0  0  0
  160.7940  212.7760  150.3180 C   0  0  0  0  0  0  0  0  0  0  0  0
  155.5750  213.6220  154.5640 N   0  0  0  0  0  0  0  0  0  0  0  0
  160.2740  214.4530  150.4330 Cl  0  0  0  0  0  0  0  0  0  0  0  0
  156.0840  213.9680  155.7710 C   0  0  0  0  0  3  0  0  0  0  0  0
  160.0110  211.7000  151.0340 C   0  0  2  0  0  3  0  0  0  0  0  0
  160.2460  211.0750  154.6600 C   0  0  0  0  0  0  0  0  0  0  0  0
  161.7540  212.4300  149.4350 C   0  0  0  0  0  0  0  0  0  0  0  0
  161.7910  210.0770  150.1630 C   0  0  0  0  0  3  0  0  0  0  0  0
  159.5760  213.2670  155.3810 O   0  0  0  0  0  0  0  0  0  0  0  0
  159.6260  212.0100  152.4440 C   0  0  2  0  0  3  0  0  0  0  0  0
  156.3710  213.1360  153.5790 C   0  0  0  0  0  3  0  0  0  0  0  0
  160.8450  210.4780  151.2030 C   0  0  1  0  0  3  0  0  0  0  0  0
  157.4450  213.8180  156.0150 C   0  0  0  0  0  3  0  0  0  0  0  0
  158.2960  213.2770  155.0440 C   0  0  0  0  0  0  0  0  0  0  0  0
  157.7420  212.9260  153.7790 C   0  0  0  0  0  0  0  0  0  0  0  0
  161.4580  207.8590  157.2610 C   0  0  0  0  0  3  0  0  0  0  0  0
  160.8650  209.8850  155.3390 C   0  0  2  0  0  3  0  0  0  0  0  0
  159.8020  208.8310  155.6580 C   0  0  0  0  0  2  0  0  0  0  0  0
  160.3360  207.7280  156.5360 C   0  0  0  0  0  3  0  0  0  0  0  0
  162.3390  209.0800  157.1770 C   0  0  0  0  0  2  0  0  0  0  0  0
  161.5920  210.2900  156.6220 C   0  0  0  0  0  2  0  0  0  0  0  0
  1 15  1  0  0  0  0
  2 12  1  0  0  0  0
  3 21  1  0  0  0  0
  4 13  1  0  0  0  0
  4 14  2  0  0  0  0
  5 13  1  0  0  0  0
  6  2  2  0  0  0  0
  7  9  1  0  0  0  0
  8 10  1  0  0  0  0
 10 19  2  0  0  0  0
 11  7  1  1  0  0  0
 11 18  1  0  0  0  0
 11 16  1  0  0  0  0
 12  1  2  0  0  0  0
 13  7  2  0  0  0  0
 16  3  1  6  0  0  0
 16  2  1  0  0  0  0
 17 21  1  0  0  0  0
 17  8  2  0  0  0  0
 18 14  1  1  0  0  0
 18  6  1  0  0  0  0
 20 15  1  0  0  0  0
 20 19  1  0  0  0  0
 21 20  2  0  0  0  0
 23 12  1  1  0  0  0
 23 24  1  0  0  0  0
 23 27  1  0  0  0  0
 24 25  1  0  0  0  0
 25 22  2  0  0  0  0
 26 22  1  0  0  0  0
 27 26  1  0  0  0  0
M  END
>  <MODEL>
9

>  <REMARK>
 VINA RESULT:      -3.6      3.077      5.628
  Name = 
  1 active torsions:
  status: ('A' for Active; 'I' for Inactive)
    1  A    between atoms: C_9  and  C_15
                            x       y       z     vdW  Elec       q    Type
                         _______ _______ _______ _____ _____    ______ ____

>  <TORSDO>
F 1

$$$$
