=
 OpenBabel11052422393D

 31 35  0  0  1  0  0  0  0  0999 V2000
  161.1970  213.1330  149.3810 C   0  0  0  0  0  0  0  0  0  0  0  0
  160.5380  210.3570  151.9490 C   0  0  1  0  0  3  0  0  0  0  0  0
  159.9100  211.1900  153.0490 C   0  0  0  0  0  0  0  0  0  0  0  0
  158.4370  213.1490  152.8280 C   0  0  0  0  0  3  0  0  0  0  0  0
  160.9900  211.1320  150.7360 C   0  0  0  0  0  0  0  0  0  0  0  0
  161.8860  212.4030  148.4050 C   0  0  0  0  0  3  0  0  0  0  0  0
  158.5090  211.6620  152.8210 C   0  0  0  0  0  2  0  0  0  0  0  0
  162.4800  208.7920  151.3780 N   0  0  0  0  0  0  0  0  0  0  0  0
  160.9610  214.4530  149.1970 F   0  0  0  0  0  0  0  0  0  0  0  0
  161.7830  210.6510  154.5980 C   0  0  0  0  0  2  0  0  0  0  0  0
  158.7330  213.8680  153.9070 C   0  0  0  0  0  3  0  0  0  0  0  0
  161.9400  208.9660  150.0210 C   0  0  0  0  0  2  0  0  0  0  0  0
  161.6570  209.4050  152.4480 C   0  0  1  0  0  3  0  0  0  0  0  0
  160.7480  212.5000  150.5450 C   0  0  0  0  0  3  0  0  0  0  0  0
  159.2070  213.3040  155.1390 N   0  0  0  0  0  0  0  0  0  0  0  0
  161.6810  210.4120  149.7590 C   0  0  0  0  0  0  0  0  0  0  0  0
  162.1290  211.0390  148.5940 C   0  0  0  0  0  3  0  0  0  0  0  0
  162.5750  210.1690  153.3920 C   0  0  0  0  0  2  0  0  0  0  0  0
  160.5420  211.4200  154.2220 C   0  0  0  0  0  0  0  0  0  0  0  0
  159.9710  212.2600  155.3000 C   0  0  0  0  0  3  0  0  0  0  0  0
  162.5270  207.3620  151.6530 C   0  0  0  0  0  2  0  0  0  0  0  0
  160.7210  206.7760  153.1120 O   0  0  0  0  0  1  0  0  0  0  0  0
  161.1160  206.7970  151.7740 C   0  0  2  0  0  3  0  0  0  0  0  0
  160.8780  202.8350  150.1100 C   0  0  0  0  0  0  0  0  0  0  0  0
  161.2100  204.2900  152.0170 C   0  0  0  0  0  3  0  0  0  0  0  0
  160.6290  206.3140  149.0130 F   0  0  0  0  0  0  0  0  0  0  0  0
  160.7810  201.2230  149.4320 Cl  0  0  0  0  0  0  0  0  0  0  0  0
  161.1310  203.0040  151.4750 C   0  0  0  0  0  3  0  0  0  0  0  0
  160.7860  205.2420  149.8270 C   0  0  0  0  0  0  0  0  0  0  0  0
  161.0420  205.4170  151.1960 C   0  0  0  0  0  0  0  0  0  0  0  0
  160.7070  203.9530  149.2870 C   0  0  0  0  0  3  0  0  0  0  0  0
  1 14  1  0  0  0  0
  2  5  1  6  0  0  0
  2 13  1  0  0  0  0
  2  3  1  0  0  0  0
  3 19  2  0  0  0  0
  4 11  2  0  0  0  0
  6 17  1  0  0  0  0
  6  1  2  0  0  0  0
  7  4  1  0  0  0  0
  7  3  1  0  0  0  0
  8 21  1  0  0  0  0
  8 13  1  0  0  0  0
  9  1  1  0  0  0  0
 11 15  1  0  0  0  0
 12  8  1  0  0  0  0
 13 18  1  1  0  0  0
 14  5  2  0  0  0  0
 15 20  2  0  0  0  0
 16 12  1  0  0  0  0
 16  5  1  0  0  0  0
 17 16  2  0  0  0  0
 18 10  1  0  0  0  0
 19 10  1  0  0  0  0
 19 20  1  0  0  0  0
 21 23  1  0  0  0  0
 23 22  1  1  0  0  0
 24 28  1  0  0  0  0
 26 29  1  0  0  0  0
 27 24  1  0  0  0  0
 28 25  2  0  0  0  0
 29 30  2  0  0  0  0
 30 23  1  0  0  0  0
 30 25  1  0  0  0  0
 31 29  1  0  0  0  0
 31 24  2  0  0  0  0
M  END
>  <MODEL>
1

>  <REMARK>
 VINA RESULT:      -8.0      0.000      0.000
  Name = 
  3 active torsions:
  status: ('A' for Active; 'I' for Inactive)
    1  A    between atoms: C_9  and  C_22
    2  A    between atoms: C_9  and  C_23
    3  A    between atoms: N_15  and  C_23
                            x       y       z     vdW  Elec       q    Type
                         _______ _______ _______ _____ _____    ______ ____

>  <TORSDO>
F 3

$$$$
=
 OpenBabel11052422393D

 31 35  0  0  1  0  0  0  0  0999 V2000
  162.3130  210.2290  149.8250 C   0  0  0  0  0  0  0  0  0  0  0  0
  160.3930  207.9860  152.2780 C   0  0  1  0  0  3  0  0  0  0  0  0
  160.4650  208.8620  153.5130 C   0  0  0  0  0  0  0  0  0  0  0  0
  160.3940  211.3180  153.6490 C   0  0  0  0  0  3  0  0  0  0  0  0
  161.1020  208.5300  151.0630 C   0  0  0  0  0  0  0  0  0  0  0  0
  162.3600  209.3840  148.7090 C   0  0  0  0  0  3  0  0  0  0  0  0
  159.5870  210.0720  153.5350 C   0  0  0  0  0  2  0  0  0  0  0  0
  161.0030  205.6960  151.3150 N   0  0  0  0  0  0  0  0  0  0  0  0
  162.8730  211.4600  149.7660 F   0  0  0  0  0  0  0  0  0  0  0  0
  161.8040  207.1430  154.7170 C   0  0  0  0  0  2  0  0  0  0  0  0
  161.1460  211.5800  154.7150 C   0  0  0  0  0  3  0  0  0  0  0  0
  160.5480  206.3360  150.0710 C   0  0  0  0  0  2  0  0  0  0  0  0
  160.7880  206.5080  152.5360 C   0  0  1  0  0  3  0  0  0  0  0  0
  161.6850  209.8050  151.0010 C   0  0  0  0  0  3  0  0  0  0  0  0
  161.3110  210.6790  155.8190 N   0  0  0  0  0  0  0  0  0  0  0  0
  161.1560  207.6930  149.9470 C   0  0  0  0  0  0  0  0  0  0  0  0
  161.7800  208.1130  148.7690 C   0  0  0  0  0  3  0  0  0  0  0  0
  162.0580  206.4730  153.3750 C   0  0  0  0  0  2  0  0  0  0  0  0
  161.2140  208.5230  154.5880 C   0  0  0  0  0  0  0  0  0  0  0  0
  161.3360  209.3760  155.7930 C   0  0  0  0  0  3  0  0  0  0  0  0
  160.2350  204.4710  151.4860 C   0  0  0  0  0  2  0  0  0  0  0  0
  162.4450  203.5520  151.5400 O   0  0  0  0  0  1  0  0  0  0  0  0
  161.1160  203.2510  151.2420 C   0  0  2  0  0  3  0  0  0  0  0  0
  160.8070  201.8940  147.1700 C   0  0  0  0  0  0  0  0  0  0  0  0
  161.3500  203.6350  148.7620 C   0  0  0  0  0  3  0  0  0  0  0  0
  160.2090  200.6430  150.5530 F   0  0  0  0  0  0  0  0  0  0  0  0
  160.6800  201.3410  145.5130 Cl  0  0  0  0  0  0  0  0  0  0  0  0
  161.2510  203.1920  147.4400 C   0  0  0  0  0  3  0  0  0  0  0  0
  160.5590  201.4800  149.5460 C   0  0  0  0  0  0  0  0  0  0  0  0
  161.0010  202.7830  149.8230 C   0  0  0  0  0  0  0  0  0  0  0  0
  160.4610  201.0400  148.2220 C   0  0  0  0  0  3  0  0  0  0  0  0
  1 14  1  0  0  0  0
  2  5  1  6  0  0  0
  2 13  1  0  0  0  0
  2  3  1  0  0  0  0
  3  7  1  0  0  0  0
  3 19  2  0  0  0  0
  4 11  2  0  0  0  0
  6 17  1  0  0  0  0
  6  1  2  0  0  0  0
  7  4  1  0  0  0  0
  8 21  1  0  0  0  0
  8 13  1  0  0  0  0
  9  1  1  0  0  0  0
 11 15  1  0  0  0  0
 12  8  1  0  0  0  0
 13 18  1  6  0  0  0
 14  5  2  0  0  0  0
 16 12  1  0  0  0  0
 16  5  1  0  0  0  0
 17 16  2  0  0  0  0
 18 10  1  0  0  0  0
 19 10  1  0  0  0  0
 19 20  1  0  0  0  0
 20 15  2  0  0  0  0
 23 21  1  0  0  0  0
 23 22  1  6  0  0  0
 24 28  2  0  0  0  0
 24 31  1  0  0  0  0
 25 30  2  0  0  0  0
 27 24  1  0  0  0  0
 28 25  1  0  0  0  0
 29 30  1  0  0  0  0
 29 26  1  0  0  0  0
 30 23  1  0  0  0  0
 31 29  2  0  0  0  0
M  END
>  <MODEL>
2

>  <REMARK>
 VINA RESULT:      -7.3      2.393      3.354
  Name = 
  3 active torsions:
  status: ('A' for Active; 'I' for Inactive)
    1  A    between atoms: C_9  and  C_22
    2  A    between atoms: C_9  and  C_23
    3  A    between atoms: N_15  and  C_23
                            x       y       z     vdW  Elec       q    Type
                         _______ _______ _______ _____ _____    ______ ____

>  <TORSDO>
F 3

$$$$
=
 OpenBabel11052422393D

 31 35  0  0  1  0  0  0  0  0999 V2000
  161.2410  206.6420  152.4690 C   0  0  0  0  0  0  0  0  0  0  0  0
  161.4380  210.4250  153.0860 C   0  0  1  0  0  3  0  0  0  0  0  0
  161.0300  210.4530  154.5460 C   0  0  0  0  0  0  0  0  0  0  0  0
  161.5370  208.8080  156.3050 C   0  0  0  0  0  3  0  0  0  0  0  0
  161.4380  209.0590  152.4460 C   0  0  0  0  0  0  0  0  0  0  0  0
  161.5000  206.6060  151.0940 C   0  0  0  0  0  3  0  0  0  0  0  0
  162.0430  209.9810  155.5390 C   0  0  0  0  0  2  0  0  0  0  0  0
  160.8390  211.2610  150.7440 N   0  0  0  0  0  0  0  0  0  0  0  0
  161.0240  205.4900  153.1470 F   0  0  0  0  0  0  0  0  0  0  0  0
  158.9870  211.7680  154.0030 C   0  0  0  0  0  2  0  0  0  0  0  0
  160.4750  208.8870  157.1020 C   0  0  0  0  0  3  0  0  0  0  0  0
  161.8990  210.3120  150.3680 C   0  0  0  0  0  2  0  0  0  0  0  0
  160.6780  211.4510  152.2050 C   0  0  1  0  0  3  0  0  0  0  0  0
  161.2110  207.8650  153.1470 C   0  0  0  0  0  3  0  0  0  0  0  0
  159.6780  210.0690  157.2590 N   0  0  0  0  0  0  0  0  0  0  0  0
  161.6930  209.0150  151.0740 C   0  0  0  0  0  0  0  0  0  0  0  0
  161.7260  207.7940  150.3930 C   0  0  0  0  0  3  0  0  0  0  0  0
  159.1950  211.3930  152.5440 C   0  0  0  0  0  2  0  0  0  0  0  0
  159.8440  210.9670  154.9480 C   0  0  0  0  0  0  0  0  0  0  0  0
  159.4010  210.9730  156.3610 C   0  0  0  0  0  3  0  0  0  0  0  0
  161.1950  212.5600  150.1900 C   0  0  0  0  0  2  0  0  0  0  0  0
  162.4620  213.2120  148.2660 O   0  0  0  0  0  1  0  0  0  0  0  0
  161.3560  212.4680  148.6760 C   0  0  2  0  0  3  0  0  0  0  0  0
  157.8270  213.8790  146.6570 C   0  0  0  0  0  0  0  0  0  0  0  0
  159.0870  213.5640  148.7010 C   0  0  0  0  0  3  0  0  0  0  0  0
  160.9870  212.2180  145.8660 F   0  0  0  0  0  0  0  0  0  0  0  0
  156.3910  214.4530  145.8350 Cl  0  0  0  0  0  0  0  0  0  0  0  0
  157.9420  214.0240  148.0430 C   0  0  0  0  0  3  0  0  0  0  0  0
  160.0030  212.8120  146.5850 C   0  0  0  0  0  0  0  0  0  0  0  0
  160.1230  212.9530  147.9770 C   0  0  0  0  0  0  0  0  0  0  0  0
  158.8570  213.2730  145.9300 C   0  0  0  0  0  3  0  0  0  0  0  0
  1 14  1  0  0  0  0
  1  9  1  0  0  0  0
  2  5  1  6  0  0  0
  2  3  1  0  0  0  0
  3 19  2  0  0  0  0
  3  7  1  0  0  0  0
  4 11  2  0  0  0  0
  5 14  2  0  0  0  0
  6  1  2  0  0  0  0
  7  4  1  0  0  0  0
  8 13  1  0  0  0  0
 10 19  1  0  0  0  0
 11 15  1  0  0  0  0
 12  8  1  0  0  0  0
 12 16  1  0  0  0  0
 13 18  1  6  0  0  0
 13  2  1  0  0  0  0
 16  5  1  0  0  0  0
 17 16  2  0  0  0  0
 17  6  1  0  0  0  0
 18 10  1  0  0  0  0
 19 20  1  0  0  0  0
 20 15  2  0  0  0  0
 21  8  1  0  0  0  0
 23 22  1  6  0  0  0
 23 21  1  0  0  0  0
 24 28  1  0  0  0  0
 26 29  1  0  0  0  0
 27 24  1  0  0  0  0
 28 25  2  0  0  0  0
 29 30  2  0  0  0  0
 30 23  1  0  0  0  0
 30 25  1  0  0  0  0
 31 29  1  0  0  0  0
 31 24  2  0  0  0  0
M  END
>  <MODEL>
3

>  <REMARK>
 VINA RESULT:      -6.7      3.743      6.786
  Name = 
  3 active torsions:
  status: ('A' for Active; 'I' for Inactive)
    1  A    between atoms: C_9  and  C_22
    2  A    between atoms: C_9  and  C_23
    3  A    between atoms: N_15  and  C_23
                            x       y       z     vdW  Elec       q    Type
                         _______ _______ _______ _____ _____    ______ ____

>  <TORSDO>
F 3

$$$$
=
 OpenBabel11052422393D

 31 35  0  0  1  0  0  0  0  0999 V2000
  159.9230  209.4960  154.1360 C   0  0  0  0  0  0  0  0  0  0  0  0
  162.0350  207.6240  151.5350 C   0  0  1  0  0  3  0  0  0  0  0  0
  162.1480  208.7140  150.4860 C   0  0  0  0  0  0  0  0  0  0  0  0
  162.3330  211.1440  150.8240 C   0  0  0  0  0  3  0  0  0  0  0  0
  161.2060  207.9800  152.7430 C   0  0  0  0  0  0  0  0  0  0  0  0
  159.7070  208.4660  155.0600 C   0  0  0  0  0  3  0  0  0  0  0  0
  163.0700  209.8510  150.7910 C   0  0  0  0  0  2  0  0  0  0  0  0
  161.2220  205.2380  151.9750 N   0  0  0  0  0  0  0  0  0  0  0  0
  159.4090  210.7270  154.3630 F   0  0  0  0  0  0  0  0  0  0  0  0
  160.8970  207.3280  148.8380 C   0  0  0  0  0  2  0  0  0  0  0  0
  161.7260  211.6420  149.7500 C   0  0  0  0  0  3  0  0  0  0  0  0
  161.5480  205.6130  153.3590 C   0  0  0  0  0  2  0  0  0  0  0  0
  161.6150  206.2450  150.9600 C   0  0  1  0  0  3  0  0  0  0  0  0
  160.6710  209.2550  152.9790 C   0  0  0  0  0  3  0  0  0  0  0  0
  161.6610  210.9690  148.4840 N   0  0  0  0  0  0  0  0  0  0  0  0
  160.9840  206.9590  153.6690 C   0  0  0  0  0  0  0  0  0  0  0  0
  160.2390  207.1950  154.8270 C   0  0  0  0  0  3  0  0  0  0  0  0
  160.4560  206.4420  149.9930 C   0  0  0  0  0  2  0  0  0  0  0  0
  161.5220  208.6230  149.2900 C   0  0  0  0  0  0  0  0  0  0  0  0
  161.5810  209.6870  148.2610 C   0  0  0  0  0  3  0  0  0  0  0  0
  161.9560  204.0200  151.6630 C   0  0  0  0  0  2  0  0  0  0  0  0
  161.3880  201.7030  151.8670 O   0  0  0  0  0  1  0  0  0  0  0  0
  160.9940  202.9030  151.2740 C   0  0  2  0  0  3  0  0  0  0  0  0
  160.8310  202.4290  147.0000 C   0  0  0  0  0  0  0  0  0  0  0  0
  161.5810  203.6620  148.9440 C   0  0  0  0  0  3  0  0  0  0  0  0
  159.5930  200.7710  150.0150 F   0  0  0  0  0  0  0  0  0  0  0  0
  160.7640  202.2350  145.2610 Cl  0  0  0  0  0  0  0  0  0  0  0  0
  161.5290  203.5050  147.5560 C   0  0  0  0  0  3  0  0  0  0  0  0
  160.2340  201.6640  149.2230 C   0  0  0  0  0  0  0  0  0  0  0  0
  160.9310  202.7450  149.7860 C   0  0  0  0  0  0  0  0  0  0  0  0
  160.1840  201.5100  147.8330 C   0  0  0  0  0  3  0  0  0  0  0  0
  1  9  1  0  0  0  0
  1  6  1  0  0  0  0
  2  3  1  6  0  0  0
  2  5  1  0  0  0  0
  3  7  1  0  0  0  0
  5 14  1  0  0  0  0
  5 16  2  0  0  0  0
  7  4  1  0  0  0  0
  8 12  1  0  0  0  0
 10 19  1  0  0  0  0
 10 18  1  0  0  0  0
 11  4  2  0  0  0  0
 12 16  1  0  0  0  0
 13 18  1  6  0  0  0
 13  2  1  0  0  0  0
 13  8  1  0  0  0  0
 14  1  2  0  0  0  0
 15 11  1  0  0  0  0
 16 17  1  0  0  0  0
 17  6  2  0  0  0  0
 19  3  2  0  0  0  0
 20 15  2  0  0  0  0
 20 19  1  0  0  0  0
 21  8  1  0  0  0  0
 23 21  1  0  0  0  0
 23 22  1  1  0  0  0
 24 28  2  0  0  0  0
 24 31  1  0  0  0  0
 25 30  2  0  0  0  0
 27 24  1  0  0  0  0
 28 25  1  0  0  0  0
 29 30  1  0  0  0  0
 29 26  1  0  0  0  0
 30 23  1  0  0  0  0
 31 29  2  0  0  0  0
M  END
>  <MODEL>
4

>  <REMARK>
 VINA RESULT:      -6.5      3.043      5.127
  Name = 
  3 active torsions:
  status: ('A' for Active; 'I' for Inactive)
    1  A    between atoms: C_9  and  C_22
    2  A    between atoms: C_9  and  C_23
    3  A    between atoms: N_15  and  C_23
                            x       y       z     vdW  Elec       q    Type
                         _______ _______ _______ _____ _____    ______ ____

>  <TORSDO>
F 3

$$$$
=
 OpenBabel11052422393D

 31 35  0  0  1  0  0  0  0  0999 V2000
  161.3980  201.7630  149.5680 C   0  0  0  0  0  0  0  0  0  0  0  0
  160.6800  205.4960  149.0330 C   0  0  1  0  0  3  0  0  0  0  0  0
  161.0300  205.6000  147.5620 C   0  0  0  0  0  0  0  0  0  0  0  0
  160.6840  203.9300  145.7880 C   0  0  0  0  0  3  0  0  0  0  0  0
  160.8830  204.1320  149.6460 C   0  0  0  0  0  0  0  0  0  0  0  0
  161.1940  201.6730  150.9510 C   0  0  0  0  0  3  0  0  0  0  0  0
  160.0540  205.0130  146.5930 C   0  0  0  0  0  2  0  0  0  0  0  0
  161.2450  206.3680  151.3710 N   0  0  0  0  0  0  0  0  0  0  0  0
  161.7420  200.6610  148.8620 F   0  0  0  0  0  0  0  0  0  0  0  0
  162.8990  207.1660  148.0640 C   0  0  0  0  0  2  0  0  0  0  0  0
  161.6970  204.1610  144.9580 C   0  0  0  0  0  3  0  0  0  0  0  0
  160.3340  205.2820  151.7620 C   0  0  0  0  0  2  0  0  0  0  0  0
  161.3290  206.6000  149.9090 C   0  0  1  0  0  3  0  0  0  0  0  0
  161.2420  202.9900  148.9150 C   0  0  0  0  0  3  0  0  0  0  0  0
  162.3250  205.4410  144.7990 N   0  0  0  0  0  0  0  0  0  0  0  0
  160.6850  204.0340  151.0240 C   0  0  0  0  0  0  0  0  0  0  0  0
  160.8370  202.8090  151.6810 C   0  0  0  0  0  3  0  0  0  0  0  0
  162.7940  206.7450  149.5210 C   0  0  0  0  0  2  0  0  0  0  0  0
  162.1230  206.2730  147.1320 C   0  0  0  0  0  0  0  0  0  0  0  0
  162.5120  206.3600  145.7050 C   0  0  0  0  0  3  0  0  0  0  0  0
  160.7410  207.6000  151.9620 C   0  0  0  0  0  2  0  0  0  0  0  0
  160.7400  206.7710  154.2080 O   0  0  0  0  0  1  0  0  0  0  0  0
  161.2680  207.7640  153.3830 C   0  0  2  0  0  3  0  0  0  0  0  0
  160.2730  211.6430  154.9600 C   0  0  0  0  0  0  0  0  0  0  0  0
  160.2230  210.0450  153.1410 C   0  0  0  0  0  3  0  0  0  0  0  0
  161.9860  208.5880  156.0100 F   0  0  0  0  0  0  0  0  0  0  0  0
  159.8680  213.2210  155.6020 Cl  0  0  0  0  0  0  0  0  0  0  0  0
  159.8990  211.3040  153.6560 C   0  0  0  0  0  3  0  0  0  0  0  0
  161.2980  209.4630  155.2360 C   0  0  0  0  0  0  0  0  0  0  0  0
  160.9280  209.1180  153.9270 C   0  0  0  0  0  0  0  0  0  0  0  0
  160.9730  210.7230  155.7480 C   0  0  0  0  0  3  0  0  0  0  0  0
  1  6  1  0  0  0  0
  2  3  1  6  0  0  0
  2  5  1  0  0  0  0
  2 13  1  0  0  0  0
  4  7  1  0  0  0  0
  5 16  2  0  0  0  0
  6 17  2  0  0  0  0
  7  3  1  0  0  0  0
  8 12  1  0  0  0  0
  8 21  1  0  0  0  0
  9  1  1  0  0  0  0
 10 18  1  0  0  0  0
 11  4  2  0  0  0  0
 13 18  1  6  0  0  0
 13  8  1  0  0  0  0
 14  1  2  0  0  0  0
 14  5  1  0  0  0  0
 15 11  1  0  0  0  0
 15 20  2  0  0  0  0
 16 17  1  0  0  0  0
 16 12  1  0  0  0  0
 19  3  2  0  0  0  0
 19 10  1  0  0  0  0
 20 19  1  0  0  0  0
 21 23  1  0  0  0  0
 23 30  1  0  0  0  0
 23 22  1  1  0  0  0
 24 27  1  0  0  0  0
 24 31  1  0  0  0  0
 25 28  1  0  0  0  0
 25 30  2  0  0  0  0
 28 24  2  0  0  0  0
 29 31  2  0  0  0  0
 29 26  1  0  0  0  0
 30 29  1  0  0  0  0
M  END
>  <MODEL>
5

>  <REMARK>
 VINA RESULT:      -6.5      4.087      8.690
  Name = 
  3 active torsions:
  status: ('A' for Active; 'I' for Inactive)
    1  A    between atoms: C_9  and  C_22
    2  A    between atoms: C_9  and  C_23
    3  A    between atoms: N_15  and  C_23
                            x       y       z     vdW  Elec       q    Type
                         _______ _______ _______ _____ _____    ______ ____

>  <TORSDO>
F 3

$$$$
=
 OpenBabel11052422393D

 31 35  0  0  1  0  0  0  0  0999 V2000
  160.3800  205.8630  149.8420 C   0  0  0  0  0  0  0  0  0  0  0  0
  161.9550  208.9940  151.4080 C   0  0  1  0  0  3  0  0  0  0  0  0
  161.5490  208.7710  152.8520 C   0  0  0  0  0  0  0  0  0  0  0  0
  161.3630  206.6440  154.0750 C   0  0  0  0  0  3  0  0  0  0  0  0
  161.4630  207.9510  150.4360 C   0  0  0  0  0  0  0  0  0  0  0  0
  160.6420  206.1110  148.4890 C   0  0  0  0  0  3  0  0  0  0  0  0
  162.2880  207.7120  153.6050 C   0  0  0  0  0  2  0  0  0  0  0  0
  161.7700  210.5930  149.4200 N   0  0  0  0  0  0  0  0  0  0  0  0
  159.7320  204.7330  150.2100 F   0  0  0  0  0  0  0  0  0  0  0  0
  160.1560  210.8350  152.8330 C   0  0  0  0  0  2  0  0  0  0  0  0
  160.3870  206.8850  154.9460 C   0  0  0  0  0  3  0  0  0  0  0  0
  162.4090  209.4640  148.7270 C   0  0  0  0  0  2  0  0  0  0  0  0
  161.6530  210.4240  150.8880 C   0  0  1  0  0  3  0  0  0  0  0  0
  160.7900  206.7800  150.8160 C   0  0  0  0  0  3  0  0  0  0  0  0
  160.0830  208.1860  155.4680 N   0  0  0  0  0  0  0  0  0  0  0  0
  161.7170  208.1910  149.0840 C   0  0  0  0  0  0  0  0  0  0  0  0
  161.3120  207.2770  148.1080 C   0  0  0  0  0  3  0  0  0  0  0  0
  160.2470  210.8210  151.3140 C   0  0  0  0  0  2  0  0  0  0  0  0
  160.6300  209.5520  153.4660 C   0  0  0  0  0  0  0  0  0  0  0  0
  160.1850  209.3360  154.8620 C   0  0  0  0  0  3  0  0  0  0  0  0
  162.5970  211.7710  149.1980 C   0  0  0  0  0  2  0  0  0  0  0  0
  162.9220  213.6550  147.7560 O   0  0  0  0  0  1  0  0  0  0  0  0
  162.1250  212.5280  147.9620 C   0  0  2  0  0  3  0  0  0  0  0  0
  158.0030  213.7070  148.3340 C   0  0  0  0  0  0  0  0  0  0  0  0
  160.2680  213.7090  149.1900 C   0  0  0  0  0  3  0  0  0  0  0  0
  160.1370  211.7950  146.0630 F   0  0  0  0  0  0  0  0  0  0  0  0
  156.3250  214.1860  148.4850 Cl  0  0  0  0  0  0  0  0  0  0  0  0
  158.9290  214.0930  149.3080 C   0  0  0  0  0  3  0  0  0  0  0  0
  159.7560  212.5510  147.1220 C   0  0  0  0  0  0  0  0  0  0  0  0
  160.6890  212.9330  148.0980 C   0  0  0  0  0  0  0  0  0  0  0  0
  158.4160  212.9360  147.2420 C   0  0  0  0  0  3  0  0  0  0  0  0
  1  9  1  0  0  0  0
  1 14  1  0  0  0  0
  2  5  1  6  0  0  0
  2  3  1  0  0  0  0
  3 19  2  0  0  0  0
  3  7  1  0  0  0  0
  4 11  2  0  0  0  0
  5 14  2  0  0  0  0
  6  1  2  0  0  0  0
  7  4  1  0  0  0  0
  8 13  1  0  0  0  0
 10 19  1  0  0  0  0
 11 15  1  0  0  0  0
 12 16  1  0  0  0  0
 12  8  1  0  0  0  0
 13 18  1  6  0  0  0
 13  2  1  0  0  0  0
 16  5  1  0  0  0  0
 17  6  1  0  0  0  0
 17 16  2  0  0  0  0
 18 10  1  0  0  0  0
 19 20  1  0  0  0  0
 20 15  2  0  0  0  0
 21  8  1  0  0  0  0
 23 22  1  1  0  0  0
 23 30  1  0  0  0  0
 23 21  1  0  0  0  0
 24 27  1  0  0  0  0
 24 28  1  0  0  0  0
 25 28  2  0  0  0  0
 26 29  1  0  0  0  0
 29 31  1  0  0  0  0
 29 30  2  0  0  0  0
 30 25  1  0  0  0  0
 31 24  2  0  0  0  0
M  END
>  <MODEL>
6

>  <REMARK>
 VINA RESULT:      -6.3      3.677      6.799
  Name = 
  3 active torsions:
  status: ('A' for Active; 'I' for Inactive)
    1  A    between atoms: C_9  and  C_22
    2  A    between atoms: C_9  and  C_23
    3  A    between atoms: N_15  and  C_23
                            x       y       z     vdW  Elec       q    Type
                         _______ _______ _______ _____ _____    ______ ____

>  <TORSDO>
F 3

$$$$
=
 OpenBabel11052422393D

 31 35  0  0  1  0  0  0  0  0999 V2000
  161.4380  202.0840  149.6950 C   0  0  0  0  0  0  0  0  0  0  0  0
  160.6050  205.7120  150.6310 C   0  0  1  0  0  3  0  0  0  0  0  0
  160.9800  206.3890  149.3270 C   0  0  0  0  0  0  0  0  0  0  0  0
  160.7230  205.5340  147.0340 C   0  0  0  0  0  3  0  0  0  0  0  0
  160.8420  204.2230  150.6710 C   0  0  0  0  0  0  0  0  0  0  0  0
  161.2110  201.4570  150.9270 C   0  0  0  0  0  3  0  0  0  0  0  0
  160.0420  206.2030  148.1770 C   0  0  0  0  0  2  0  0  0  0  0  0
  161.0960  205.6180  153.1410 N   0  0  0  0  0  0  0  0  0  0  0  0
  161.8320  201.3520  148.6260 F   0  0  0  0  0  0  0  0  0  0  0  0
  162.7840  207.6800  150.4560 C   0  0  0  0  0  2  0  0  0  0  0  0
  161.7440  206.0940  146.3910 C   0  0  0  0  0  3  0  0  0  0  0  0
  160.2150  204.4440  153.0500 C   0  0  0  0  0  2  0  0  0  0  0  0
  161.1990  206.4030  151.8870 C   0  0  1  0  0  3  0  0  0  0  0  0
  161.2540  203.4650  149.5650 C   0  0  0  0  0  3  0  0  0  0  0  0
  162.3310  207.3500  146.7610 N   0  0  0  0  0  0  0  0  0  0  0  0
  160.6220  203.5910  151.8960 C   0  0  0  0  0  0  0  0  0  0  0  0
  160.8020  202.2110  152.0300 C   0  0  0  0  0  3  0  0  0  0  0  0
  162.6660  206.7220  151.6310 C   0  0  0  0  0  2  0  0  0  0  0  0
  162.0560  207.2020  149.2260 C   0  0  0  0  0  0  0  0  0  0  0  0
  162.4690  207.8480  147.9580 C   0  0  0  0  0  3  0  0  0  0  0  0
  160.5390  206.5110  154.1480 C   0  0  0  0  0  2  0  0  0  0  0  0
  161.9570  207.6000  155.7400 O   0  0  0  0  0  1  0  0  0  0  0  0
  161.4970  207.6640  154.4250 C   0  0  2  0  0  3  0  0  0  0  0  0
  159.5620  211.4410  153.7100 C   0  0  0  0  0  0  0  0  0  0  0  0
  161.1310  209.7280  153.0260 C   0  0  0  0  0  3  0  0  0  0  0  0
  159.5860  208.7780  156.2160 F   0  0  0  0  0  0  0  0  0  0  0  0
  158.7740  212.9780  153.4200 Cl  0  0  0  0  0  0  0  0  0  0  0  0
  160.5000  210.9540  152.7940 C   0  0  0  0  0  3  0  0  0  0  0  0
  159.8860  209.4760  155.0930 C   0  0  0  0  0  0  0  0  0  0  0  0
  160.8310  208.9830  154.1780 C   0  0  0  0  0  0  0  0  0  0  0  0
  159.2560  210.7030  154.8580 C   0  0  0  0  0  3  0  0  0  0  0  0
  1  6  1  0  0  0  0
  2  3  1  6  0  0  0
  2  5  1  0  0  0  0
  2 13  1  0  0  0  0
  4  7  1  0  0  0  0
  5 16  2  0  0  0  0
  6 17  2  0  0  0  0
  7  3  1  0  0  0  0
  8 21  1  0  0  0  0
  9  1  1  0  0  0  0
 10 18  1  0  0  0  0
 11 15  1  0  0  0  0
 11  4  2  0  0  0  0
 12  8  1  0  0  0  0
 13 18  1  6  0  0  0
 13  8  1  0  0  0  0
 14  1  2  0  0  0  0
 14  5  1  0  0  0  0
 15 20  2  0  0  0  0
 16 17  1  0  0  0  0
 16 12  1  0  0  0  0
 19  3  2  0  0  0  0
 19 10  1  0  0  0  0
 20 19  1  0  0  0  0
 21 23  1  0  0  0  0
 23 22  1  1  0  0  0
 24 31  1  0  0  0  0
 25 30  2  0  0  0  0
 27 24  1  0  0  0  0
 28 25  1  0  0  0  0
 28 24  2  0  0  0  0
 29 26  1  0  0  0  0
 30 23  1  0  0  0  0
 30 29  1  0  0  0  0
 31 29  2  0  0  0  0
M  END
>  <MODEL>
7

>  <REMARK>
 VINA RESULT:      -6.2      3.863      7.930
  Name = 
  3 active torsions:
  status: ('A' for Active; 'I' for Inactive)
    1  A    between atoms: C_9  and  C_22
    2  A    between atoms: C_9  and  C_23
    3  A    between atoms: N_15  and  C_23
                            x       y       z     vdW  Elec       q    Type
                         _______ _______ _______ _____ _____    ______ ____

>  <TORSDO>
F 3

$$$$
=
 OpenBabel11052422393D

 31 35  0  0  1  0  0  0  0  0999 V2000
  160.4600  204.3590  145.0220 C   0  0  0  0  0  0  0  0  0  0  0  0
  161.9290  204.5660  148.5620 C   0  0  1  0  0  3  0  0  0  0  0  0
  161.5310  203.1940  149.0690 C   0  0  0  0  0  0  0  0  0  0  0  0
  161.4170  201.0780  147.8180 C   0  0  0  0  0  3  0  0  0  0  0  0
  161.4730  204.8900  147.1610 C   0  0  0  0  0  0  0  0  0  0  0  0
  160.7130  205.6620  144.5770 C   0  0  0  0  0  3  0  0  0  0  0  0
  162.3060  202.0290  148.5410 C   0  0  0  0  0  2  0  0  0  0  0  0
  161.6910  207.0810  148.9660 N   0  0  0  0  0  0  0  0  0  0  0  0
  159.8510  203.4710  144.2020 F   0  0  0  0  0  0  0  0  0  0  0  0
  160.0710  204.2050  150.8130 C   0  0  0  0  0  2  0  0  0  0  0  0
  160.4340  200.4230  148.4280 C   0  0  0  0  0  3  0  0  0  0  0  0
  162.3680  207.1370  147.6610 C   0  0  0  0  0  2  0  0  0  0  0  0
  161.5800  205.7190  149.5400 C   0  0  1  0  0  3  0  0  0  0  0  0
  160.8390  203.9710  146.3120 C   0  0  0  0  0  3  0  0  0  0  0  0
  160.0860  200.6060  149.8090 N   0  0  0  0  0  0  0  0  0  0  0  0
  161.7190  206.1880  146.7110 C   0  0  0  0  0  0  0  0  0  0  0  0
  161.3440  206.5800  145.4230 C   0  0  0  0  0  3  0  0  0  0  0  0
  160.1610  205.5200  150.0550 C   0  0  0  0  0  2  0  0  0  0  0  0
  160.5870  203.0300  150.0240 C   0  0  0  0  0  0  0  0  0  0  0  0
  160.1500  201.7010  150.5120 C   0  0  0  0  0  3  0  0  0  0  0  0
  162.4780  207.8680  149.9050 C   0  0  0  0  0  2  0  0  0  0  0  0
  162.2330  210.1520  150.5820 O   0  0  0  0  0  1  0  0  0  0  0  0
  161.6010  208.9080  150.5940 C   0  0  2  0  0  3  0  0  0  0  0  0
  160.7440  207.7550  154.6500 C   0  0  0  0  0  0  0  0  0  0  0  0
  161.7110  207.2500  152.4890 C   0  0  0  0  0  3  0  0  0  0  0  0
  160.1900  210.5880  152.4060 F   0  0  0  0  0  0  0  0  0  0  0  0
  160.3940  207.2870  156.3010 Cl  0  0  0  0  0  0  0  0  0  0  0  0
  161.4330  206.8780  153.8080 C   0  0  0  0  0  3  0  0  0  0  0  0
  160.6070  209.3790  152.8550 C   0  0  0  0  0  0  0  0  0  0  0  0
  161.2970  208.5010  152.0030 C   0  0  0  0  0  0  0  0  0  0  0  0
  160.3300  209.0040  154.1740 C   0  0  0  0  0  3  0  0  0  0  0  0
  1 14  1  0  0  0  0
  2  5  1  6  0  0  0
  2  3  1  0  0  0  0
  2 13  1  0  0  0  0
  3 19  2  0  0  0  0
  4 11  2  0  0  0  0
  4  7  1  0  0  0  0
  6  1  2  0  0  0  0
  6 17  1  0  0  0  0
  7  3  1  0  0  0  0
  8 13  1  0  0  0  0
  8 21  1  0  0  0  0
  9  1  1  0  0  0  0
 11 15  1  0  0  0  0
 12  8  1  0  0  0  0
 13 18  1  6  0  0  0
 14  5  2  0  0  0  0
 15 20  2  0  0  0  0
 16  5  1  0  0  0  0
 16 12  1  0  0  0  0
 17 16  2  0  0  0  0
 18 10  1  0  0  0  0
 19 20  1  0  0  0  0
 19 10  1  0  0  0  0
 21 23  1  0  0  0  0
 23 22  1  1  0  0  0
 23 30  1  0  0  0  0
 24 27  1  0  0  0  0
 25 28  1  0  0  0  0
 26 29  1  0  0  0  0
 28 24  2  0  0  0  0
 29 31  2  0  0  0  0
 30 25  2  0  0  0  0
 30 29  1  0  0  0  0
 31 24  1  0  0  0  0
M  END
>  <MODEL>
8

>  <REMARK>
 VINA RESULT:      -6.1      3.678      8.049
  Name = 
  3 active torsions:
  status: ('A' for Active; 'I' for Inactive)
    1  A    between atoms: C_9  and  C_22
    2  A    between atoms: C_9  and  C_23
    3  A    between atoms: N_15  and  C_23
                            x       y       z     vdW  Elec       q    Type
                         _______ _______ _______ _____ _____    ______ ____

>  <TORSDO>
F 3

$$$$
=
 OpenBabel11052422393D

 31 35  0  0  1  0  0  0  0  0999 V2000
  161.3920  202.5170  150.6640 C   0  0  0  0  0  0  0  0  0  0  0  0
  160.7720  206.0510  149.3020 C   0  0  1  0  0  3  0  0  0  0  0  0
  161.1000  205.8080  147.8420 C   0  0  0  0  0  0  0  0  0  0  0  0
  160.6760  203.7900  146.4980 C   0  0  0  0  0  3  0  0  0  0  0  0
  160.9470  204.8570  150.2060 C   0  0  0  0  0  0  0  0  0  0  0  0
  161.2090  202.7490  152.0330 C   0  0  0  0  0  3  0  0  0  0  0  0
  160.0910  205.0470  147.0420 C   0  0  0  0  0  2  0  0  0  0  0  0
  161.4000  207.4140  151.3750 N   0  0  0  0  0  0  0  0  0  0  0  0
  161.6930  201.2730  150.2230 F   0  0  0  0  0  0  0  0  0  0  0  0
  163.0210  207.3880  147.9560 C   0  0  0  0  0  2  0  0  0  0  0  0
  161.6820  203.7950  145.6270 C   0  0  0  0  0  3  0  0  0  0  0  0
  160.4660  206.4730  152.0120 C   0  0  0  0  0  2  0  0  0  0  0  0
  161.4660  207.3050  149.8980 C   0  0  1  0  0  3  0  0  0  0  0  0
  161.2610  203.5680  149.7510 C   0  0  0  0  0  3  0  0  0  0  0  0
  162.3430  204.9860  145.1750 N   0  0  0  0  0  0  0  0  0  0  0  0
  160.7690  205.0800  151.5730 C   0  0  0  0  0  0  0  0  0  0  0  0
  160.8970  204.0320  152.4900 C   0  0  0  0  0  3  0  0  0  0  0  0
  162.9280  207.3110  149.4720 C   0  0  0  0  0  2  0  0  0  0  0  0
  162.2040  206.3310  147.2590 C   0  0  0  0  0  0  0  0  0  0  0  0
  162.5710  206.0800  145.8460 C   0  0  0  0  0  3  0  0  0  0  0  0
  160.9410  208.7630  151.6750 C   0  0  0  0  0  2  0  0  0  0  0  0
  162.4850  210.2300  152.7690 O   0  0  0  0  0  1  0  0  0  0  0  0
  162.0830  209.7610  151.5190 C   0  0  2  0  0  3  0  0  0  0  0  0
  160.8860  213.0470  149.0110 C   0  0  0  0  0  0  0  0  0  0  0  0
  162.1520  211.0070  149.3290 C   0  0  0  0  0  3  0  0  0  0  0  0
  160.3290  211.8160  152.4090 F   0  0  0  0  0  0  0  0  0  0  0  0
  160.3990  214.3850  147.9920 Cl  0  0  0  0  0  0  0  0  0  0  0  0
  161.7600  212.0740  148.5150 C   0  0  0  0  0  3  0  0  0  0  0  0
  160.7960  211.8860  151.1380 C   0  0  0  0  0  0  0  0  0  0  0  0
  161.6750  210.9080  150.6460 C   0  0  0  0  0  0  0  0  0  0  0  0
  160.4060  212.9530  150.3220 C   0  0  0  0  0  3  0  0  0  0  0  0
  1  6  1  0  0  0  0
  2  3  1  6  0  0  0
  2 13  1  0  0  0  0
  2  5  1  0  0  0  0
  4  7  1  0  0  0  0
  5 16  2  0  0  0  0
  6 17  2  0  0  0  0
  7  3  1  0  0  0  0
  8 21  1  0  0  0  0
  8 12  1  0  0  0  0
  9  1  1  0  0  0  0
 10 18  1  0  0  0  0
 11  4  2  0  0  0  0
 13 18  1  1  0  0  0
 13  8  1  0  0  0  0
 14  5  1  0  0  0  0
 14  1  2  0  0  0  0
 15 11  1  0  0  0  0
 15 20  2  0  0  0  0
 16 12  1  0  0  0  0
 16 17  1  0  0  0  0
 19  3  2  0  0  0  0
 19 10  1  0  0  0  0
 20 19  1  0  0  0  0
 23 21  1  0  0  0  0
 23 22  1  1  0  0  0
 24 31  1  0  0  0  0
 25 30  2  0  0  0  0
 27 24  1  0  0  0  0
 28 24  2  0  0  0  0
 28 25  1  0  0  0  0
 29 26  1  0  0  0  0
 30 29  1  0  0  0  0
 30 23  1  0  0  0  0
 31 29  2  0  0  0  0
M  END
>  <MODEL>
9

>  <REMARK>
 VINA RESULT:      -6.1      3.552      8.503
  Name = 
  3 active torsions:
  status: ('A' for Active; 'I' for Inactive)
    1  A    between atoms: C_9  and  C_22
    2  A    between atoms: C_9  and  C_23
    3  A    between atoms: N_15  and  C_23
                            x       y       z     vdW  Elec       q    Type
                         _______ _______ _______ _____ _____    ______ ____

>  <TORSDO>
F 3

$$$$
