=
 OpenBabel11052422113D

 25 28  0  0  1  0  0  0  0  0999 V2000
  161.2930  205.8330  150.2970 N   0  0  0  0  0  0  0  0  0  0  0  0
  161.5180  207.2400  150.3920 C   0  0  0  0  0  0  0  0  0  0  0  0
  161.3030  205.5570  152.6830 C   0  0  0  0  0  3  0  0  0  0  0  0
  160.7900  205.0250  149.2020 C   0  0  2  0  0  3  0  0  0  0  0  0
  161.1660  202.4760  147.9110 C   0  0  0  0  0  3  0  0  0  0  0  0
  161.6360  207.0000  152.8200 C   0  0  0  0  0  3  0  0  0  0  0  0
  160.5630  203.6990  149.8840 C   0  0  0  0  0  0  0  0  0  0  0  0
  160.5390  202.4660  149.0950 C   0  0  0  0  0  3  0  0  0  0  0  0
  162.0290  209.2450  151.8740 C   0  0  0  0  0  0  0  0  0  0  0  0
  162.2650  209.8160  153.1190 O   0  0  0  0  0  1  0  0  0  0  0  0
  161.5660  208.0330  149.3180 C   0  0  0  0  0  3  0  0  0  0  0  0
  161.9010  203.6830  147.4470 C   0  0  0  0  0  3  0  0  0  0  0  0
  161.1360  205.0450  151.4610 C   0  0  0  0  0  0  0  0  0  0  0  0
  160.7460  203.7130  151.1700 N   0  0  0  0  0  0  0  0  0  0  0  0
  162.0680  210.0070  150.7760 C   0  0  0  0  0  3  0  0  0  0  0  0
  161.7810  204.8610  148.0800 C   0  0  0  0  0  3  0  0  0  0  0  0
  161.8250  209.4370  149.4770 N   0  0  0  0  0  0  0  0  0  0  0  0
  161.7330  207.8050  151.7450 C   0  0  0  0  0  0  0  0  0  0  0  0
  161.9070  210.2840  148.3010 C   0  0  0  0  0  2  0  0  0  0  0  0
  161.9850  211.7440  148.7180 C   0  0  0  0  0  2  0  0  0  0  0  0
  161.8350  212.6520  147.5080 C   0  0  2  0  0  3  0  0  0  0  0  0
  162.4230  214.3220  147.9170 S   0  0  0  0  0  1  0  0  0  0  0  0
  160.4140  212.7010  147.0280 C   0  0  0  0  0  0  0  0  0  0  0  0
  160.1380  212.2600  145.9250 O   0  0  0  0  0  0  0  0  0  0  0  0
  159.3320  213.2880  147.8760 C   0  0  0  0  0  1  0  0  0  0  0  0
  1  2  1  0  0  0  0
  1 13  1  0  0  0  0
  2 18  1  0  0  0  0
  3  6  1  0  0  0  0
  4 16  1  6  0  0  0
  4  7  1  0  0  0  0
  4  1  1  0  0  0  0
  5  8  2  0  0  0  0
  7 14  2  0  0  0  0
  8  7  1  0  0  0  0
  9 10  1  0  0  0  0
 11 17  1  0  0  0  0
 11  2  2  0  0  0  0
 12  5  1  0  0  0  0
 12 16  2  0  0  0  0
 13  3  2  0  0  0  0
 14 13  1  0  0  0  0
 15  9  2  0  0  0  0
 17 15  1  0  0  0  0
 18  9  1  0  0  0  0
 18  6  2  0  0  0  0
 19 20  1  0  0  0  0
 19 17  1  0  0  0  0
 21 22  1  1  0  0  0
 21 20  1  0  0  0  0
 23 21  1  0  0  0  0
 23 25  1  0  0  0  0
 24 23  2  0  0  0  0
M  END
>  <MODEL>
1

>  <REMARK>
 VINA RESULT:      -8.4      0.000      0.000
  Name = 
  4 active torsions:
  status: ('A' for Active; 'I' for Inactive)
    1  A    between atoms: C_2  and  C_21
    2  A    between atoms: C_6  and  C_15
    3  A    between atoms: C_6  and  N_23
    4  A    between atoms: C_15  and  C_21
                            x       y       z     vdW  Elec       q    Type
                         _______ _______ _______ _____ _____    ______ ____

>  <TORSDO>
F 4

$$$$
=
 OpenBabel11052422113D

 25 28  0  0  1  0  0  0  0  0999 V2000
  161.3990  205.0170  149.1060 N   0  0  0  0  0  0  0  0  0  0  0  0
  161.5370  206.0030  150.1300 C   0  0  0  0  0  0  0  0  0  0  0  0
  161.6470  206.6410  147.3530 C   0  0  0  0  0  3  0  0  0  0  0  0
  161.5370  203.5740  149.1540 C   0  0  2  0  0  3  0  0  0  0  0  0
  160.3820  201.1520  148.1020 C   0  0  0  0  0  3  0  0  0  0  0  0
  161.6950  207.7080  148.3880 C   0  0  0  0  0  3  0  0  0  0  0  0
  161.5260  203.2200  147.6890 C   0  0  0  0  0  0  0  0  0  0  0  0
  161.1430  201.8710  147.2650 C   0  0  0  0  0  3  0  0  0  0  0  0
  161.7340  208.4670  150.7360 C   0  0  0  0  0  0  0  0  0  0  0  0
  161.8160  209.8090  150.3850 O   0  0  0  0  0  1  0  0  0  0  0  0
  161.5370  205.6920  151.4290 C   0  0  0  0  0  3  0  0  0  0  0  0
  159.9060  201.7290  149.3870 C   0  0  0  0  0  3  0  0  0  0  0  0
  161.5170  205.3690  147.7420 C   0  0  0  0  0  0  0  0  0  0  0  0
  161.5290  204.2390  146.8850 N   0  0  0  0  0  0  0  0  0  0  0  0
  161.7320  208.1170  152.0260 C   0  0  0  0  0  3  0  0  0  0  0  0
  160.3930  202.8900  149.8550 C   0  0  0  0  0  3  0  0  0  0  0  0
  161.6510  206.7330  152.4130 N   0  0  0  0  0  0  0  0  0  0  0  0
  161.6520  207.4170  149.7020 C   0  0  0  0  0  0  0  0  0  0  0  0
  161.6180  206.3880  153.8230 C   0  0  0  0  0  2  0  0  0  0  0  0
  160.5450  207.2010  154.5300 C   0  0  0  0  0  2  0  0  0  0  0  0
  161.1490  207.9910  155.6800 C   0  0  2  0  0  3  0  0  0  0  0  0
  160.5200  207.3510  157.2600 S   0  0  0  0  0  1  0  0  0  0  0  0
  160.8560  209.4580  155.5560 C   0  0  0  0  0  0  0  0  0  0  0  0
  159.7180  209.8580  155.7340 O   0  0  0  0  0  0  0  0  0  0  0  0
  161.9330  210.4350  155.2120 C   0  0  0  0  0  1  0  0  0  0  0  0
  1  4  1  0  0  0  0
  1  2  1  0  0  0  0
  2 11  2  0  0  0  0
  3 13  2  0  0  0  0
  3  6  1  0  0  0  0
  4 16  1  1  0  0  0
  5 12  1  0  0  0  0
  6 18  2  0  0  0  0
  7  4  1  0  0  0  0
  8  7  1  0  0  0  0
  8  5  2  0  0  0  0
  9 15  2  0  0  0  0
 10  9  1  0  0  0  0
 11 17  1  0  0  0  0
 12 16  2  0  0  0  0
 13  1  1  0  0  0  0
 14  7  2  0  0  0  0
 14 13  1  0  0  0  0
 15 17  1  0  0  0  0
 17 19  1  0  0  0  0
 18  2  1  0  0  0  0
 18  9  1  0  0  0  0
 19 20  1  0  0  0  0
 20 21  1  0  0  0  0
 21 22  1  1  0  0  0
 23 21  1  0  0  0  0
 23 24  2  0  0  0  0
 25 23  1  0  0  0  0
M  END
>  <MODEL>
2

>  <REMARK>
 VINA RESULT:      -8.3      3.615      5.487
  Name = 
  4 active torsions:
  status: ('A' for Active; 'I' for Inactive)
    1  A    between atoms: C_2  and  C_21
    2  A    between atoms: C_6  and  C_15
    3  A    between atoms: C_6  and  N_23
    4  A    between atoms: C_15  and  C_21
                            x       y       z     vdW  Elec       q    Type
                         _______ _______ _______ _____ _____    ______ ____

>  <TORSDO>
F 4

$$$$
=
 OpenBabel11052422113D

 25 28  0  0  1  0  0  0  0  0999 V2000
  161.3230  204.9550  149.3000 N   0  0  0  0  0  0  0  0  0  0  0  0
  161.2820  205.8930  150.3760 C   0  0  0  0  0  0  0  0  0  0  0  0
  161.0120  203.0830  150.7720 C   0  0  0  0  0  3  0  0  0  0  0  0
  161.1450  205.1410  147.8730 C   0  0  2  0  0  3  0  0  0  0  0  0
  162.1540  204.2400  145.3270 C   0  0  0  0  0  3  0  0  0  0  0  0
  161.0640  204.0180  151.9270 C   0  0  0  0  0  3  0  0  0  0  0  0
  161.0490  203.7150  147.3910 C   0  0  0  0  0  0  0  0  0  0  0  0
  161.3620  203.3910  145.9980 C   0  0  0  0  0  3  0  0  0  0  0  0
  161.2020  206.2870  152.8890 C   0  0  0  0  0  0  0  0  0  0  0  0
  161.1390  205.8230  154.1980 O   0  0  0  0  0  1  0  0  0  0  0  0
  161.3570  207.2120  150.1810 C   0  0  0  0  0  3  0  0  0  0  0  0
  162.7300  205.4360  145.9970 C   0  0  0  0  0  3  0  0  0  0  0  0
  161.1280  203.5740  149.5360 C   0  0  0  0  0  0  0  0  0  0  0  0
  161.0260  202.8250  148.3360 N   0  0  0  0  0  0  0  0  0  0  0  0
  161.2770  207.6000  152.6540 C   0  0  0  0  0  3  0  0  0  0  0  0
  162.3110  205.8280  147.2110 C   0  0  0  0  0  3  0  0  0  0  0  0
  161.3400  208.1040  151.3070 N   0  0  0  0  0  0  0  0  0  0  0  0
  161.1840  205.3480  151.7500 C   0  0  0  0  0  0  0  0  0  0  0  0
  161.4540  209.5340  151.0860 C   0  0  0  0  0  2  0  0  0  0  0  0
  161.3550  210.2730  152.4110 C   0  0  0  0  0  2  0  0  0  0  0  0
  159.9510  210.8240  152.6080 C   0  0  2  0  0  3  0  0  0  0  0  0
  159.8540  212.5090  151.9320 S   0  0  0  0  0  1  0  0  0  0  0  0
  159.5540  210.8170  154.0540 C   0  0  0  0  0  0  0  0  0  0  0  0
  160.1370  210.0810  154.8320 O   0  0  0  0  0  0  0  0  0  0  0  0
  158.4510  211.6920  154.5570 C   0  0  0  0  0  1  0  0  0  0  0  0
  1 13  1  0  0  0  0
  1  2  1  0  0  0  0
  2 18  1  0  0  0  0
  3  6  1  0  0  0  0
  4 16  1  6  0  0  0
  4  1  1  0  0  0  0
  5 12  1  0  0  0  0
  5  8  2  0  0  0  0
  7  4  1  0  0  0  0
  7 14  2  0  0  0  0
  8  7  1  0  0  0  0
  9 10  1  0  0  0  0
 11  2  2  0  0  0  0
 11 17  1  0  0  0  0
 12 16  2  0  0  0  0
 13  3  2  0  0  0  0
 14 13  1  0  0  0  0
 15  9  2  0  0  0  0
 17 15  1  0  0  0  0
 18  6  2  0  0  0  0
 18  9  1  0  0  0  0
 19 17  1  0  0  0  0
 19 20  1  0  0  0  0
 20 21  1  0  0  0  0
 21 22  1  1  0  0  0
 21 23  1  0  0  0  0
 23 25  1  0  0  0  0
 23 24  2  0  0  0  0
M  END
>  <MODEL>
3

>  <REMARK>
 VINA RESULT:      -8.3      3.107      3.988
  Name = 
  4 active torsions:
  status: ('A' for Active; 'I' for Inactive)
    1  A    between atoms: C_2  and  C_21
    2  A    between atoms: C_6  and  C_15
    3  A    between atoms: C_6  and  N_23
    4  A    between atoms: C_15  and  C_21
                            x       y       z     vdW  Elec       q    Type
                         _______ _______ _______ _____ _____    ______ ____

>  <TORSDO>
F 4

$$$$
=
 OpenBabel11052422113D

 25 28  0  0  1  0  0  0  0  0999 V2000
  161.1950  206.2070  150.8060 N   0  0  0  0  0  0  0  0  0  0  0  0
  161.0840  207.2260  151.8010 C   0  0  0  0  0  0  0  0  0  0  0  0
  161.1970  204.4510  152.4450 C   0  0  0  0  0  3  0  0  0  0  0  0
  160.9280  206.2400  149.3810 C   0  0  2  0  0  3  0  0  0  0  0  0
  161.9240  205.2460  146.8660 C   0  0  0  0  0  3  0  0  0  0  0  0
  161.1820  205.4860  153.5130 C   0  0  0  0  0  3  0  0  0  0  0  0
  160.9950  204.7760  149.0270 C   0  0  0  0  0  0  0  0  0  0  0  0
  161.2810  204.3690  147.6490 C   0  0  0  0  0  3  0  0  0  0  0  0
  161.0700  207.8320  154.2730 C   0  0  0  0  0  0  0  0  0  0  0  0
  161.1290  207.4830  155.6170 O   0  0  0  0  0  1  0  0  0  0  0  0
  160.9790  208.5210  151.4920 C   0  0  0  0  0  3  0  0  0  0  0  0
  162.3720  206.5610  147.3990 C   0  0  0  0  0  3  0  0  0  0  0  0
  161.1910  204.8400  151.1670 C   0  0  0  0  0  0  0  0  0  0  0  0
  161.1300  203.9790  150.0420 N   0  0  0  0  0  0  0  0  0  0  0  0
  160.9640  209.1180  153.9250 C   0  0  0  0  0  3  0  0  0  0  0  0
  161.9630  207.0050  148.5990 C   0  0  0  0  0  3  0  0  0  0  0  0
  160.8990  209.5020  152.5400 N   0  0  0  0  0  0  0  0  0  0  0  0
  161.1210  206.8000  153.2190 C   0  0  0  0  0  0  0  0  0  0  0  0
  160.8170  210.9090  152.1930 C   0  0  0  0  0  2  0  0  0  0  0  0
  160.0620  211.6660  153.2750 C   0  0  0  0  0  2  0  0  0  0  0  0
  158.5880  211.7700  152.9200 C   0  0  2  0  0  3  0  0  0  0  0  0
  158.3060  213.2460  151.8980 S   0  0  0  0  0  1  0  0  0  0  0  0
  157.7260  211.8120  154.1480 C   0  0  0  0  0  0  0  0  0  0  0  0
  156.6990  212.4690  154.1370 O   0  0  0  0  0  0  0  0  0  0  0  0
  158.1090  211.0680  155.3860 C   0  0  0  0  0  1  0  0  0  0  0  0
  1 13  1  0  0  0  0
  1  2  1  0  0  0  0
  2 18  1  0  0  0  0
  3  6  1  0  0  0  0
  4 16  1  6  0  0  0
  4  1  1  0  0  0  0
  5 12  1  0  0  0  0
  5  8  2  0  0  0  0
  7  4  1  0  0  0  0
  7 14  2  0  0  0  0
  8  7  1  0  0  0  0
  9 10  1  0  0  0  0
 11  2  2  0  0  0  0
 11 17  1  0  0  0  0
 12 16  2  0  0  0  0
 13  3  2  0  0  0  0
 14 13  1  0  0  0  0
 15  9  2  0  0  0  0
 17 15  1  0  0  0  0
 18  6  2  0  0  0  0
 18  9  1  0  0  0  0
 19 17  1  0  0  0  0
 19 20  1  0  0  0  0
 21 22  1  1  0  0  0
 21 20  1  0  0  0  0
 21 23  1  0  0  0  0
 23 25  1  0  0  0  0
 24 23  2  0  0  0  0
M  END
>  <MODEL>
4

>  <REMARK>
 VINA RESULT:      -8.3      3.290      4.052
  Name = 
  4 active torsions:
  status: ('A' for Active; 'I' for Inactive)
    1  A    between atoms: C_2  and  C_21
    2  A    between atoms: C_6  and  C_15
    3  A    between atoms: C_6  and  N_23
    4  A    between atoms: C_15  and  C_21
                            x       y       z     vdW  Elec       q    Type
                         _______ _______ _______ _____ _____    ______ ____

>  <TORSDO>
F 4

$$$$
=
 OpenBabel11052422113D

 25 28  0  0  1  0  0  0  0  0999 V2000
  160.8070  208.8040  153.3100 N   0  0  0  0  0  0  0  0  0  0  0  0
  161.0550  207.8400  152.2860 C   0  0  0  0  0  0  0  0  0  0  0  0
  160.8960  207.1480  155.0480 C   0  0  0  0  0  3  0  0  0  0  0  0
  160.9340  210.2490  153.3030 C   0  0  2  0  0  3  0  0  0  0  0  0
  159.6580  212.6410  154.2820 C   0  0  0  0  0  3  0  0  0  0  0  0
  161.0570  206.1020  154.0030 C   0  0  0  0  0  3  0  0  0  0  0  0
  160.7750  210.5740  154.7670 C   0  0  0  0  0  0  0  0  0  0  0  0
  160.3390  211.9110  155.1760 C   0  0  0  0  0  3  0  0  0  0  0  0
  161.3350  205.3900  151.6570 C   0  0  0  0  0  0  0  0  0  0  0  0
  161.3940  204.0420  151.9890 O   0  0  0  0  0  1  0  0  0  0  0  0
  161.1800  208.1760  151.0000 C   0  0  0  0  0  3  0  0  0  0  0  0
  159.3160  212.0850  152.9450 C   0  0  0  0  0  3  0  0  0  0  0  0
  160.7930  208.4260  154.6730 C   0  0  0  0  0  0  0  0  0  0  0  0
  160.7090  209.5390  155.5480 N   0  0  0  0  0  0  0  0  0  0  0  0
  161.4570  205.7650  150.3800 C   0  0  0  0  0  3  0  0  0  0  0  0
  159.8590  210.9380  152.5060 C   0  0  0  0  0  3  0  0  0  0  0  0
  161.4010  207.1550  150.0130 N   0  0  0  0  0  0  0  0  0  0  0  0
  161.1400  206.4190  152.6970 C   0  0  0  0  0  0  0  0  0  0  0  0
  161.5040  207.5280  148.6140 C   0  0  0  0  0  2  0  0  0  0  0  0
  160.7420  206.5310  147.7550 C   0  0  0  0  0  2  0  0  0  0  0  0
  161.5600  206.1500  146.5310 C   0  0  2  0  0  3  0  0  0  0  0  0
  160.4660  205.9900  145.0880 S   0  0  0  0  0  1  0  0  0  0  0  0
  162.3240  204.8780  146.7510 C   0  0  0  0  0  0  0  0  0  0  0  0
  163.4850  204.8050  146.3850 O   0  0  0  0  0  0  0  0  0  0  0  0
  161.6840  203.6960  147.4060 C   0  0  0  0  0  1  0  0  0  0  0  0
  1 13  1  0  0  0  0
  2 18  1  0  0  0  0
  2  1  1  0  0  0  0
  4 16  1  6  0  0  0
  4  1  1  0  0  0  0
  4  7  1  0  0  0  0
  5  8  2  0  0  0  0
  6  3  1  0  0  0  0
  7  8  1  0  0  0  0
  7 14  2  0  0  0  0
  9 10  1  0  0  0  0
  9 18  1  0  0  0  0
 11  2  2  0  0  0  0
 12  5  1  0  0  0  0
 13  3  2  0  0  0  0
 13 14  1  0  0  0  0
 15  9  2  0  0  0  0
 16 12  2  0  0  0  0
 17 15  1  0  0  0  0
 17 11  1  0  0  0  0
 18  6  2  0  0  0  0
 19 17  1  0  0  0  0
 20 19  1  0  0  0  0
 21 22  1  6  0  0  0
 21 23  1  0  0  0  0
 21 20  1  0  0  0  0
 23 25  1  0  0  0  0
 24 23  2  0  0  0  0
M  END
>  <MODEL>
5

>  <REMARK>
 VINA RESULT:      -8.3      3.758      6.742
  Name = 
  4 active torsions:
  status: ('A' for Active; 'I' for Inactive)
    1  A    between atoms: C_2  and  C_21
    2  A    between atoms: C_6  and  C_15
    3  A    between atoms: C_6  and  N_23
    4  A    between atoms: C_15  and  C_21
                            x       y       z     vdW  Elec       q    Type
                         _______ _______ _______ _____ _____    ______ ____

>  <TORSDO>
F 4

$$$$
=
 OpenBabel11052422113D

 25 28  0  0  1  0  0  0  0  0999 V2000
  161.1690  206.3510  150.9510 N   0  0  0  0  0  0  0  0  0  0  0  0
  161.0240  207.3250  151.9850 C   0  0  0  0  0  0  0  0  0  0  0  0
  161.2120  204.5300  152.5170 C   0  0  0  0  0  3  0  0  0  0  0  0
  160.9090  206.4340  149.5260 C   0  0  2  0  0  3  0  0  0  0  0  0
  161.9470  205.5710  146.9790 C   0  0  0  0  0  3  0  0  0  0  0  0
  161.1620  205.5200  153.6260 C   0  0  0  0  0  3  0  0  0  0  0  0
  161.0190  204.9880  149.1130 C   0  0  0  0  0  0  0  0  0  0  0  0
  161.3250  204.6460  147.7220 C   0  0  0  0  0  3  0  0  0  0  0  0
  160.9800  207.8290  154.4790 C   0  0  0  0  0  0  0  0  0  0  0  0
  161.0410  207.4270  155.8090 O   0  0  0  0  0  1  0  0  0  0  0  0
  160.8840  208.6280  151.7280 C   0  0  0  0  0  3  0  0  0  0  0  0
  162.3550  206.8750  147.5690 C   0  0  0  0  0  3  0  0  0  0  0  0
  161.2020  204.9700  151.2560 C   0  0  0  0  0  0  0  0  0  0  0  0
  161.1710  204.1540  150.0970 N   0  0  0  0  0  0  0  0  0  0  0  0
  160.8400  209.1240  154.1830 C   0  0  0  0  0  3  0  0  0  0  0  0
  161.9260  207.2580  148.7820 C   0  0  0  0  0  3  0  0  0  0  0  0
  160.7710  209.5630  152.8140 N   0  0  0  0  0  0  0  0  0  0  0  0
  161.0650  206.8420  153.3850 C   0  0  0  0  0  0  0  0  0  0  0  0
  160.6520  210.9800  152.5250 C   0  0  0  0  0  2  0  0  0  0  0  0
  159.1900  211.3970  152.5690 C   0  0  0  0  0  2  0  0  0  0  0  0
  159.0660  212.9090  152.4750 C   0  0  2  0  0  3  0  0  0  0  0  0
  157.7510  213.4860  153.5890 S   0  0  0  0  0  1  0  0  0  0  0  0
  158.7910  213.3530  151.0680 C   0  0  0  0  0  0  0  0  0  0  0  0
  157.6450  213.3550  150.6540 O   0  0  0  0  0  0  0  0  0  0  0  0
  159.9000  213.7870  150.1650 C   0  0  0  0  0  1  0  0  0  0  0  0
  1 13  1  0  0  0  0
  1  2  1  0  0  0  0
  2 18  1  0  0  0  0
  3  6  1  0  0  0  0
  4 16  1  6  0  0  0
  4  1  1  0  0  0  0
  5 12  1  0  0  0  0
  5  8  2  0  0  0  0
  7  4  1  0  0  0  0
  7 14  2  0  0  0  0
  8  7  1  0  0  0  0
  9 10  1  0  0  0  0
 11  2  2  0  0  0  0
 11 17  1  0  0  0  0
 12 16  2  0  0  0  0
 13  3  2  0  0  0  0
 14 13  1  0  0  0  0
 15  9  2  0  0  0  0
 17 15  1  0  0  0  0
 18  6  2  0  0  0  0
 18  9  1  0  0  0  0
 19 20  1  0  0  0  0
 19 17  1  0  0  0  0
 21 20  1  0  0  0  0
 21 22  1  1  0  0  0
 23 21  1  0  0  0  0
 24 23  2  0  0  0  0
 25 23  1  0  0  0  0
M  END
>  <MODEL>
6

>  <REMARK>
 VINA RESULT:      -8.1      2.784      3.433
  Name = 
  4 active torsions:
  status: ('A' for Active; 'I' for Inactive)
    1  A    between atoms: C_2  and  C_21
    2  A    between atoms: C_6  and  C_15
    3  A    between atoms: C_6  and  N_23
    4  A    between atoms: C_15  and  C_21
                            x       y       z     vdW  Elec       q    Type
                         _______ _______ _______ _____ _____    ______ ____

>  <TORSDO>
F 4

$$$$
=
 OpenBabel11052422113D

 25 28  0  0  1  0  0  0  0  0999 V2000
  161.4200  205.7670  149.3900 N   0  0  0  0  0  0  0  0  0  0  0  0
  161.4930  206.8940  150.2650 C   0  0  0  0  0  0  0  0  0  0  0  0
  161.0380  204.2410  151.2060 C   0  0  0  0  0  3  0  0  0  0  0  0
  161.1950  205.6900  147.9600 C   0  0  2  0  0  3  0  0  0  0  0  0
  162.0270  204.2420  145.6100 C   0  0  0  0  0  3  0  0  0  0  0  0
  161.2060  205.3730  152.1550 C   0  0  0  0  0  3  0  0  0  0  0  0
  160.9770  204.2100  147.7670 C   0  0  0  0  0  0  0  0  0  0  0  0
  161.2060  203.6020  146.4540 C   0  0  0  0  0  3  0  0  0  0  0  0
  161.5470  207.7660  152.6550 C   0  0  0  0  0  0  0  0  0  0  0  0
  161.5070  207.5670  154.0300 O   0  0  0  0  0  1  0  0  0  0  0  0
  161.6540  208.1410  149.8150 C   0  0  0  0  0  3  0  0  0  0  0  0
  162.7160  205.4960  146.0190 C   0  0  0  0  0  3  0  0  0  0  0  0
  161.1360  204.4770  149.8950 C   0  0  0  0  0  0  0  0  0  0  0  0
  160.9290  203.5220  148.8660 N   0  0  0  0  0  0  0  0  0  0  0  0
  161.7070  209.0000  152.1670 C   0  0  0  0  0  3  0  0  0  0  0  0
  162.3780  206.1440  147.1460 C   0  0  0  0  0  3  0  0  0  0  0  0
  161.7490  209.2310  150.7480 N   0  0  0  0  0  0  0  0  0  0  0  0
  161.4140  206.6310  151.7210 C   0  0  0  0  0  0  0  0  0  0  0  0
  161.9560  210.5780  150.2500 C   0  0  0  0  0  2  0  0  0  0  0  0
  161.8880  210.5860  148.7310 C   0  0  0  0  0  2  0  0  0  0  0  0
  161.5260  211.9720  148.2220 C   0  0  2  0  0  3  0  0  0  0  0  0
  160.4560  211.8280  146.7610 S   0  0  0  0  0  1  0  0  0  0  0  0
  162.7500  212.7780  147.8970 C   0  0  0  0  0  0  0  0  0  0  0  0
  163.7950  212.2030  147.6440 O   0  0  0  0  0  0  0  0  0  0  0  0
  162.7100  214.2720  147.8860 C   0  0  0  0  0  1  0  0  0  0  0  0
  1 13  1  0  0  0  0
  1  2  1  0  0  0  0
  2 18  1  0  0  0  0
  3  6  1  0  0  0  0
  4 16  1  6  0  0  0
  4  1  1  0  0  0  0
  5 12  1  0  0  0  0
  5  8  2  0  0  0  0
  7  4  1  0  0  0  0
  7 14  2  0  0  0  0
  8  7  1  0  0  0  0
  9 10  1  0  0  0  0
 11  2  2  0  0  0  0
 11 17  1  0  0  0  0
 12 16  2  0  0  0  0
 13  3  2  0  0  0  0
 14 13  1  0  0  0  0
 15  9  2  0  0  0  0
 17 15  1  0  0  0  0
 18  6  2  0  0  0  0
 18  9  1  0  0  0  0
 19 17  1  0  0  0  0
 20 19  1  0  0  0  0
 21 22  1  6  0  0  0
 21 20  1  0  0  0  0
 23 21  1  0  0  0  0
 24 23  2  0  0  0  0
 25 23  1  0  0  0  0
M  END
>  <MODEL>
7

>  <REMARK>
 VINA RESULT:      -8.1      1.669      2.180
  Name = 
  4 active torsions:
  status: ('A' for Active; 'I' for Inactive)
    1  A    between atoms: C_2  and  C_21
    2  A    between atoms: C_6  and  C_15
    3  A    between atoms: C_6  and  N_23
    4  A    between atoms: C_15  and  C_21
                            x       y       z     vdW  Elec       q    Type
                         _______ _______ _______ _____ _____    ______ ____

>  <TORSDO>
F 4

$$$$
=
 OpenBabel11052422113D

 25 28  0  0  1  0  0  0  0  0999 V2000
  161.1470  208.3860  152.7270 N   0  0  0  0  0  0  0  0  0  0  0  0
  161.2930  207.5600  151.5720 C   0  0  0  0  0  0  0  0  0  0  0  0
  161.9520  210.3340  151.5750 C   0  0  0  0  0  3  0  0  0  0  0  0
  160.3740  208.1930  153.9390 C   0  0  2  0  0  3  0  0  0  0  0  0
  160.4840  208.6140  156.7880 C   0  0  0  0  0  3  0  0  0  0  0  0
  162.2110  209.4860  150.3820 C   0  0  0  0  0  3  0  0  0  0  0  0
  160.4730  209.5540  154.5820 C   0  0  0  0  0  0  0  0  0  0  0  0
  160.2790  209.6960  156.0260 C   0  0  0  0  0  3  0  0  0  0  0  0
  162.1180  207.3350  149.1750 C   0  0  0  0  0  0  0  0  0  0  0  0
  162.7060  207.8600  148.0300 O   0  0  0  0  0  1  0  0  0  0  0  0
  160.9340  206.2740  151.5590 C   0  0  0  0  0  3  0  0  0  0  0  0
  160.9430  207.3330  156.1870 C   0  0  0  0  0  3  0  0  0  0  0  0
  161.4320  209.7690  152.6690 C   0  0  0  0  0  0  0  0  0  0  0  0
  161.0620  210.4540  153.8550 N   0  0  0  0  0  0  0  0  0  0  0  0
  161.7450  206.0520  149.2000 C   0  0  0  0  0  3  0  0  0  0  0  0
  160.9540  207.1500  154.8570 C   0  0  0  0  0  3  0  0  0  0  0  0
  161.1330  205.4870  150.3730 N   0  0  0  0  0  0  0  0  0  0  0  0
  161.8970  208.1760  150.3670 C   0  0  0  0  0  0  0  0  0  0  0  0
  160.7690  204.0820  150.3810 C   0  0  0  0  0  2  0  0  0  0  0  0
  160.8310  203.5220  148.9680 C   0  0  0  0  0  2  0  0  0  0  0  0
  160.3900  202.0670  148.9530 C   0  0  2  0  0  3  0  0  0  0  0  0
  160.8720  201.2650  150.5110 S   0  0  0  0  0  1  0  0  0  0  0  0
  160.9690  201.3280  147.7830 C   0  0  0  0  0  0  0  0  0  0  0  0
  161.5670  200.2820  147.9720 O   0  0  0  0  0  0  0  0  0  0  0  0
  160.8310  201.8540  146.3910 C   0  0  0  0  0  1  0  0  0  0  0  0
  1  4  1  0  0  0  0
  2  1  1  0  0  0  0
  3 13  2  0  0  0  0
  4  7  1  0  0  0  0
  4 16  1  1  0  0  0
  6  3  1  0  0  0  0
  7  8  1  0  0  0  0
  8  5  2  0  0  0  0
  9 15  2  0  0  0  0
  9 18  1  0  0  0  0
 10  9  1  0  0  0  0
 11  2  2  0  0  0  0
 12  5  1  0  0  0  0
 13  1  1  0  0  0  0
 13 14  1  0  0  0  0
 14  7  2  0  0  0  0
 15 17  1  0  0  0  0
 16 12  2  0  0  0  0
 17 19  1  0  0  0  0
 17 11  1  0  0  0  0
 18  6  2  0  0  0  0
 18  2  1  0  0  0  0
 20 19  1  0  0  0  0
 21 20  1  0  0  0  0
 21 22  1  1  0  0  0
 23 24  2  0  0  0  0
 23 21  1  0  0  0  0
 25 23  1  0  0  0  0
M  END
>  <MODEL>
8

>  <REMARK>
 VINA RESULT:      -7.4      4.215      7.712
  Name = 
  4 active torsions:
  status: ('A' for Active; 'I' for Inactive)
    1  A    between atoms: C_2  and  C_21
    2  A    between atoms: C_6  and  C_15
    3  A    between atoms: C_6  and  N_23
    4  A    between atoms: C_15  and  C_21
                            x       y       z     vdW  Elec       q    Type
                         _______ _______ _______ _____ _____    ______ ____

>  <TORSDO>
F 4

$$$$
=
 OpenBabel11052422113D

 25 28  0  0  1  0  0  0  0  0999 V2000
  161.4210  205.2160  149.1640 N   0  0  0  0  0  0  0  0  0  0  0  0
  161.5010  206.3440  150.0350 C   0  0  0  0  0  0  0  0  0  0  0  0
  161.9310  206.5350  147.2230 C   0  0  0  0  0  3  0  0  0  0  0  0
  161.4800  203.7940  149.4460 C   0  0  2  0  0  3  0  0  0  0  0  0
  160.3210  201.2770  148.6530 C   0  0  0  0  0  3  0  0  0  0  0  0
  161.9240  207.7490  148.0810 C   0  0  0  0  0  3  0  0  0  0  0  0
  161.6040  203.2150  148.0590 C   0  0  0  0  0  0  0  0  0  0  0  0
  161.2000  201.8300  147.8060 C   0  0  0  0  0  3  0  0  0  0  0  0
  161.7560  208.8650  150.2770 C   0  0  0  0  0  0  0  0  0  0  0  0
  161.9410  210.1320  149.7360 O   0  0  0  0  0  1  0  0  0  0  0  0
  161.3490  206.2420  151.3570 C   0  0  0  0  0  3  0  0  0  0  0  0
  159.7430  202.0640  149.7750 C   0  0  0  0  0  3  0  0  0  0  0  0
  161.6970  205.3460  147.7830 C   0  0  0  0  0  0  0  0  0  0  0  0
  161.7420  204.0950  147.1150 N   0  0  0  0  0  0  0  0  0  0  0  0
  161.6020  208.7220  151.5960 C   0  0  0  0  0  3  0  0  0  0  0  0
  160.2360  203.2670  150.1110 C   0  0  0  0  0  3  0  0  0  0  0  0
  161.4120  207.4200  152.1780 N   0  0  0  0  0  0  0  0  0  0  0  0
  161.7290  207.6690  149.4120 C   0  0  0  0  0  0  0  0  0  0  0  0
  161.2150  207.3010  153.6110 C   0  0  0  0  0  2  0  0  0  0  0  0
  161.5210  208.6280  154.2880 C   0  0  0  0  0  2  0  0  0  0  0  0
  160.3130  209.1170  155.0700 C   0  0  2  0  0  3  0  0  0  0  0  0
  159.8380  210.7730  154.4900 S   0  0  0  0  0  1  0  0  0  0  0  0
  160.5810  209.1370  156.5460 C   0  0  0  0  0  0  0  0  0  0  0  0
  160.0610  208.2980  157.2610 O   0  0  0  0  0  0  0  0  0  0  0  0
  161.4700  210.1730  157.1550 C   0  0  0  0  0  1  0  0  0  0  0  0
  1  4  1  0  0  0  0
  1  2  1  0  0  0  0
  2 11  2  0  0  0  0
  3 13  2  0  0  0  0
  3  6  1  0  0  0  0
  4 16  1  6  0  0  0
  5 12  1  0  0  0  0
  6 18  2  0  0  0  0
  7  4  1  0  0  0  0
  8  7  1  0  0  0  0
  8  5  2  0  0  0  0
  9 15  2  0  0  0  0
 10  9  1  0  0  0  0
 11 17  1  0  0  0  0
 12 16  2  0  0  0  0
 13  1  1  0  0  0  0
 14 13  1  0  0  0  0
 14  7  2  0  0  0  0
 15 17  1  0  0  0  0
 17 19  1  0  0  0  0
 18  2  1  0  0  0  0
 18  9  1  0  0  0  0
 19 20  1  0  0  0  0
 20 21  1  0  0  0  0
 21 22  1  6  0  0  0
 21 23  1  0  0  0  0
 23 25  1  0  0  0  0
 23 24  2  0  0  0  0
M  END
>  <MODEL>
9

>  <REMARK>
 VINA RESULT:      -7.3      3.015      5.383
  Name = 
  4 active torsions:
  status: ('A' for Active; 'I' for Inactive)
    1  A    between atoms: C_2  and  C_21
    2  A    between atoms: C_6  and  C_15
    3  A    between atoms: C_6  and  N_23
    4  A    between atoms: C_15  and  C_21
                            x       y       z     vdW  Elec       q    Type
                         _______ _______ _______ _____ _____    ______ ____

>  <TORSDO>
F 4

$$$$
