=
 OpenBabel11062408113D

 34 38  0  0  1  0  0  0  0  0999 V2000
  161.2170  204.0690  151.0520 C   0  0  0  0  0  0  0  0  0  0  0  0
  160.7600  205.1020  148.9050 C   0  0  0  0  0  0  0  0  0  0  0  0
  161.2270  206.5240  150.9350 C   0  0  0  0  0  0  0  0  0  0  0  0
  161.4710  208.9540  150.9790 C   0  0  0  0  0  0  0  0  0  0  0  0
  161.2100  202.8120  150.4450 C   0  0  0  0  0  3  0  0  0  0  0  0
  160.7460  203.8350  148.3150 C   0  0  0  0  0  3  0  0  0  0  0  0
  162.1940  207.7430  148.9080 C   0  0  0  0  0  2  0  0  0  0  0  0
  161.0960  205.2540  150.2770 C   0  0  0  0  0  0  0  0  0  0  0  0
  161.9790  209.0410  148.1450 C   0  0  0  0  0  2  0  0  0  0  0  0
  161.6080  210.2870  150.2970 C   0  0  0  0  0  2  0  0  0  0  0  0
  161.0000  202.6950  149.0740 C   0  0  0  0  0  3  0  0  0  0  0  0
  161.1530  206.5580  152.3580 C   0  0  0  0  0  0  0  0  0  0  0  0
  161.2830  204.1340  152.4380 C   0  0  0  0  0  3  0  0  0  0  0  0
  160.2860  206.1310  148.1600 F   0  0  0  0  0  0  0  0  0  0  0  0
  161.2370  208.9440  152.3120 N   0  0  0  0  0  0  0  0  0  0  0  0
  161.0990  207.8020  153.0320 C   0  0  0  0  0  0  0  0  0  0  0  0
  162.4360  210.2050  149.0150 C   0  0  2  0  0  3  0  0  0  0  0  0
  161.5110  207.7410  150.2560 C   0  0  0  0  0  0  0  0  0  0  0  0
  161.2170  205.3610  153.0820 C   0  0  0  0  0  3  0  0  0  0  0  0
  161.3600  209.1350  156.5670 C   0  0  0  0  0  0  0  0  0  0  0  0
  160.4970  208.2840  157.2610 C   0  0  0  0  0  3  0  0  0  0  0  0
  160.9010  207.9350  154.5000 C   0  0  0  0  0  0  0  0  0  0  0  0
  159.8270  207.2640  156.5800 C   0  0  0  0  0  3  0  0  0  0  0  0
  161.5560  208.9650  155.1940 C   0  0  0  0  0  3  0  0  0  0  0  0
  160.0250  207.0950  155.2070 C   0  0  0  0  0  3  0  0  0  0  0  0
  162.0370  210.1770  157.2580 N   0  0  0  0  0  1  0  0  0  0  0  0
  162.4320  211.4730  148.2800 N   0  0  0  0  0  2  0  0  0  0  0  0
  161.6200  212.4710  148.9720 C   0  0  0  0  0  2  0  0  0  0  0  0
  159.4500  213.3290  148.4590 O   0  0  0  0  0  1  0  0  0  0  0  0
  160.7540  213.2210  147.9720 C   0  0  2  0  0  3  0  0  0  0  0  0
  160.7600  212.5570  146.5930 C   0  0  0  0  0  2  0  0  0  0  0  0
  162.3950  214.3490  145.9970 O   0  0  0  0  0  1  0  0  0  0  0  0
  161.5390  213.3370  145.5830 C   0  0  0  0  0  0  0  0  0  0  0  0
  161.4390  213.0600  144.3600 O   0  0  0  0  0  0  0  0  0  0  0  0
  1 13  1  0  0  0  0
  2  8  1  0  0  0  0
  3 12  1  0  0  0  0
  4 15  2  0  0  0  0
  5  1  1  0  0  0  0
  6  2  2  0  0  0  0
  6 11  1  0  0  0  0
  7 18  1  0  0  0  0
  8  3  1  0  0  0  0
  8  1  2  0  0  0  0
  9  7  1  0  0  0  0
  9 17  1  0  0  0  0
 10  4  1  0  0  0  0
 11  5  2  0  0  0  0
 12 16  2  0  0  0  0
 12 19  1  0  0  0  0
 13 19  2  0  0  0  0
 14  2  1  0  0  0  0
 15 16  1  0  0  0  0
 16 22  1  0  0  0  0
 17 27  1  6  0  0  0
 17 10  1  0  0  0  0
 18  3  2  0  0  0  0
 18  4  1  0  0  0  0
 20 26  1  0  0  0  0
 20 21  1  0  0  0  0
 22 24  1  0  0  0  0
 22 25  2  0  0  0  0
 23 21  2  0  0  0  0
 24 20  2  0  0  0  0
 25 23  1  0  0  0  0
 27 28  1  0  0  0  0
 30 29  1  1  0  0  0
 30 28  1  0  0  0  0
 31 30  1  0  0  0  0
 33 32  1  0  0  0  0
 33 31  1  0  0  0  0
 34 33  2  0  0  0  0
M  END
>  <MODEL>
1

>  <REMARK>
 VINA RESULT:      -9.6      0.000      0.000
  Name = 
  6 active torsions:
  status: ('A' for Active; 'I' for Inactive)
    1  A    between atoms: N_3  and  C_13
    2  A    between atoms: N_3  and  C_29
    3  A    between atoms: C_12  and  C_28
    4  A    between atoms: C_13  and  C_33
    5  A    between atoms: C_20  and  C_22
    6  A    between atoms: C_22  and  C_33
                            x       y       z     vdW  Elec       q    Type
                         _______ _______ _______ _____ _____    ______ ____

>  <TORSDO>
F 6

$$$$
=
 OpenBabel11062408113D

 34 38  0  0  1  0  0  0  0  0999 V2000
  161.2820  204.5940  150.7280 C   0  0  0  0  0  0  0  0  0  0  0  0
  160.8620  205.8090  148.6700 C   0  0  0  0  0  0  0  0  0  0  0  0
  161.2270  207.0490  150.8360 C   0  0  0  0  0  0  0  0  0  0  0  0
  161.4020  209.4700  151.1100 C   0  0  0  0  0  0  0  0  0  0  0  0
  161.3290  203.3980  150.0080 C   0  0  0  0  0  3  0  0  0  0  0  0
  160.9000  204.6020  147.9670 C   0  0  0  0  0  3  0  0  0  0  0  0
  162.2200  208.4730  148.9620 C   0  0  0  0  0  2  0  0  0  0  0  0
  161.1520  205.8430  150.0610 C   0  0  0  0  0  0  0  0  0  0  0  0
  161.9930  209.8310  148.3140 C   0  0  0  0  0  2  0  0  0  0  0  0
  161.5220  210.8630  150.5580 C   0  0  0  0  0  2  0  0  0  0  0  0
  161.1630  203.4040  148.6260 C   0  0  0  0  0  3  0  0  0  0  0  0
  161.1090  206.9490  152.2530 C   0  0  0  0  0  0  0  0  0  0  0  0
  161.3050  204.5320  152.1150 C   0  0  0  0  0  3  0  0  0  0  0  0
  160.3820  206.8900  148.0080 F   0  0  0  0  0  0  0  0  0  0  0  0
  161.1280  209.3310  152.4280 N   0  0  0  0  0  0  0  0  0  0  0  0
  161.0000  208.1250  153.0360 C   0  0  0  0  0  0  0  0  0  0  0  0
  162.3910  210.9210  149.3010 C   0  0  2  0  0  3  0  0  0  0  0  0
  161.4970  208.3310  150.2810 C   0  0  0  0  0  0  0  0  0  0  0  0
  161.1850  205.6930  152.8660 C   0  0  0  0  0  3  0  0  0  0  0  0
  160.2780  209.3510  156.5460 C   0  0  0  0  0  0  0  0  0  0  0  0
  160.2010  208.1530  157.2590 C   0  0  0  0  0  3  0  0  0  0  0  0
  160.7540  208.1160  154.5030 C   0  0  0  0  0  0  0  0  0  0  0  0
  160.3900  206.9350  156.6000 C   0  0  0  0  0  3  0  0  0  0  0  0
  160.5480  209.3310  155.1740 C   0  0  0  0  0  3  0  0  0  0  0  0
  160.6590  206.9180  155.2290 C   0  0  0  0  0  3  0  0  0  0  0  0
  160.0800  210.5900  157.2140 N   0  0  0  0  0  1  0  0  0  0  0  0
  162.3730  212.2500  148.6860 N   0  0  0  0  0  2  0  0  0  0  0  0
  161.7830  212.1970  147.3510 C   0  0  0  0  0  2  0  0  0  0  0  0
  159.9650  213.1550  148.5690 O   0  0  0  0  0  1  0  0  0  0  0  0
  160.5340  213.0620  147.2980 C   0  0  2  0  0  3  0  0  0  0  0  0
  159.5110  212.5360  146.2880 C   0  0  0  0  0  2  0  0  0  0  0  0
  157.7910  214.0440  147.2910 O   0  0  0  0  0  1  0  0  0  0  0  0
  158.1020  212.8320  146.6900 C   0  0  0  0  0  0  0  0  0  0  0  0
  157.1920  211.9930  146.4630 O   0  0  0  0  0  0  0  0  0  0  0  0
  1 13  1  0  0  0  0
  2  8  1  0  0  0  0
  3 12  1  0  0  0  0
  4 15  2  0  0  0  0
  5  1  1  0  0  0  0
  6 11  1  0  0  0  0
  6  2  2  0  0  0  0
  7 18  1  0  0  0  0
  8  1  2  0  0  0  0
  8  3  1  0  0  0  0
  9  7  1  0  0  0  0
  9 17  1  0  0  0  0
 10  4  1  0  0  0  0
 11  5  2  0  0  0  0
 12 19  1  0  0  0  0
 12 16  2  0  0  0  0
 13 19  2  0  0  0  0
 14  2  1  0  0  0  0
 15 16  1  0  0  0  0
 16 22  1  0  0  0  0
 17 27  1  6  0  0  0
 17 10  1  0  0  0  0
 18  3  2  0  0  0  0
 18  4  1  0  0  0  0
 20 26  1  0  0  0  0
 20 21  1  0  0  0  0
 22 24  1  0  0  0  0
 22 25  2  0  0  0  0
 23 21  2  0  0  0  0
 24 20  2  0  0  0  0
 25 23  1  0  0  0  0
 28 27  1  0  0  0  0
 30 28  1  0  0  0  0
 30 29  1  1  0  0  0
 31 33  1  0  0  0  0
 31 30  1  0  0  0  0
 33 32  1  0  0  0  0
 34 33  2  0  0  0  0
M  END
>  <MODEL>
2

>  <REMARK>
 VINA RESULT:      -8.6      1.307      1.545
  Name = 
  6 active torsions:
  status: ('A' for Active; 'I' for Inactive)
    1  A    between atoms: N_3  and  C_13
    2  A    between atoms: N_3  and  C_29
    3  A    between atoms: C_12  and  C_28
    4  A    between atoms: C_13  and  C_33
    5  A    between atoms: C_20  and  C_22
    6  A    between atoms: C_22  and  C_33
                            x       y       z     vdW  Elec       q    Type
                         _______ _______ _______ _____ _____    ______ ____

>  <TORSDO>
F 6

$$$$
=
 OpenBabel11062408113D

 34 38  0  0  1  0  0  0  0  0999 V2000
  160.7810  208.0070  154.9590 C   0  0  0  0  0  0  0  0  0  0  0  0
  161.9720  210.0210  154.3160 C   0  0  0  0  0  0  0  0  0  0  0  0
  161.3960  208.2710  152.5940 C   0  0  0  0  0  0  0  0  0  0  0  0
  161.7470  208.4370  150.1830 C   0  0  0  0  0  0  0  0  0  0  0  0
  160.6250  208.5150  156.2500 C   0  0  0  0  0  3  0  0  0  0  0  0
  161.8170  210.5090  155.6170 C   0  0  0  0  0  3  0  0  0  0  0  0
  161.2650  210.5480  151.4440 C   0  0  0  0  0  2  0  0  0  0  0  0
  161.3670  208.7940  153.9300 C   0  0  0  0  0  0  0  0  0  0  0  0
  161.9640  211.3070  150.3260 C   0  0  0  0  0  2  0  0  0  0  0  0
  162.1050  209.2110  148.9430 C   0  0  0  0  0  2  0  0  0  0  0  0
  161.1210  209.7750  156.5730 C   0  0  0  0  0  3  0  0  0  0  0  0
  161.1350  206.8820  152.4070 C   0  0  0  0  0  0  0  0  0  0  0  0
  160.4050  206.6930  154.7160 C   0  0  0  0  0  3  0  0  0  0  0  0
  162.8440  210.6780  153.5140 F   0  0  0  0  0  0  0  0  0  0  0  0
  161.6480  207.0910  150.0840 N   0  0  0  0  0  0  0  0  0  0  0  0
  161.3290  206.2930  151.1340 C   0  0  0  0  0  0  0  0  0  0  0  0
  161.6110  210.6570  148.9930 C   0  0  2  0  0  3  0  0  0  0  0  0
  161.5860  209.0720  151.4340 C   0  0  0  0  0  0  0  0  0  0  0  0
  160.6120  206.1290  153.4650 C   0  0  0  0  0  3  0  0  0  0  0  0
  160.9660  203.0130  149.2760 C   0  0  0  0  0  0  0  0  0  0  0  0
  161.0320  202.0840  150.3160 C   0  0  0  0  0  3  0  0  0  0  0  0
  161.1980  204.8340  150.8730 C   0  0  0  0  0  0  0  0  0  0  0  0
  161.1900  202.5220  151.6340 C   0  0  0  0  0  3  0  0  0  0  0  0
  161.0550  204.3800  149.5530 C   0  0  0  0  0  3  0  0  0  0  0  0
  161.2780  203.8890  151.9090 C   0  0  0  0  0  3  0  0  0  0  0  0
  160.8120  202.5680  147.9340 N   0  0  0  0  0  1  0  0  0  0  0  0
  162.0970  211.4400  147.8550 N   0  0  0  0  0  2  0  0  0  0  0  0
  161.3390  212.6810  147.7160 C   0  0  0  0  0  2  0  0  0  0  0  0
  160.5670  212.5620  145.4590 O   0  0  0  0  0  1  0  0  0  0  0  0
  160.1540  212.4660  146.7880 C   0  0  2  0  0  3  0  0  0  0  0  0
  159.0170  213.4510  147.0700 C   0  0  0  0  0  2  0  0  0  0  0  0
  157.0820  212.1600  146.1580 O   0  0  0  0  0  0  0  0  0  0  0  0
  157.6960  212.7710  147.2430 C   0  0  0  0  0  0  0  0  0  0  0  0
  157.1530  212.7300  148.3770 O   0  0  0  0  0  1  0  0  0  0  0  0
  1  5  2  0  0  0  0
  2  6  1  0  0  0  0
  3  8  1  0  0  0  0
  4 18  1  0  0  0  0
  5 11  1  0  0  0  0
  6 11  2  0  0  0  0
  8  2  2  0  0  0  0
  8  1  1  0  0  0  0
  9  7  1  0  0  0  0
 10 17  1  0  0  0  0
 10  4  1  0  0  0  0
 12  3  1  0  0  0  0
 12 19  1  0  0  0  0
 13  1  1  0  0  0  0
 14  2  1  0  0  0  0
 15  4  2  0  0  0  0
 15 16  1  0  0  0  0
 16 12  2  0  0  0  0
 17 27  1  6  0  0  0
 17  9  1  0  0  0  0
 18  7  1  0  0  0  0
 18  3  2  0  0  0  0
 19 13  2  0  0  0  0
 20 24  2  0  0  0  0
 20 21  1  0  0  0  0
 21 23  2  0  0  0  0
 22 16  1  0  0  0  0
 22 25  2  0  0  0  0
 23 25  1  0  0  0  0
 24 22  1  0  0  0  0
 26 20  1  0  0  0  0
 28 27  1  0  0  0  0
 30 29  1  6  0  0  0
 30 31  1  0  0  0  0
 30 28  1  0  0  0  0
 31 33  1  0  0  0  0
 32 33  2  0  0  0  0
 33 34  1  0  0  0  0
M  END
>  <MODEL>
3

>  <REMARK>
 VINA RESULT:      -8.5      2.294      5.645
  Name = 
  6 active torsions:
  status: ('A' for Active; 'I' for Inactive)
    1  A    between atoms: N_3  and  C_13
    2  A    between atoms: N_3  and  C_29
    3  A    between atoms: C_12  and  C_28
    4  A    between atoms: C_13  and  C_33
    5  A    between atoms: C_20  and  C_22
    6  A    between atoms: C_22  and  C_33
                            x       y       z     vdW  Elec       q    Type
                         _______ _______ _______ _____ _____    ______ ____

>  <TORSDO>
F 6

$$$$
=
 OpenBabel11062408113D

 34 38  0  0  1  0  0  0  0  0999 V2000
  161.1760  205.9570  149.2170 C   0  0  0  0  0  0  0  0  0  0  0  0
  161.7560  205.3850  151.5030 C   0  0  0  0  0  0  0  0  0  0  0  0
  161.5360  207.7980  150.8040 C   0  0  0  0  0  0  0  0  0  0  0  0
  161.6640  209.7500  152.2680 C   0  0  0  0  0  0  0  0  0  0  0  0
  160.9850  204.6040  148.9310 C   0  0  0  0  0  3  0  0  0  0  0  0
  161.5710  204.0340  151.1950 C   0  0  0  0  0  3  0  0  0  0  0  0
  160.7390  207.6270  153.2250 C   0  0  0  0  0  2  0  0  0  0  0  0
  161.4650  206.3890  150.5400 C   0  0  0  0  0  0  0  0  0  0  0  0
  161.1370  208.1420  154.6000 C   0  0  0  0  0  2  0  0  0  0  0  0
  161.7210  210.3870  153.6290 C   0  0  0  0  0  2  0  0  0  0  0  0
  161.1570  203.6450  149.9240 C   0  0  0  0  0  3  0  0  0  0  0  0
  161.6330  208.6890  149.6950 C   0  0  0  0  0  0  0  0  0  0  0  0
  161.1380  206.8660  148.1690 C   0  0  0  0  0  3  0  0  0  0  0  0
  162.3700  205.6690  152.6770 F   0  0  0  0  0  0  0  0  0  0  0  0
  161.9110  210.5310  151.1910 N   0  0  0  0  0  0  0  0  0  0  0  0
  161.8840  210.0660  149.9160 C   0  0  0  0  0  0  0  0  0  0  0  0
  160.8730  209.6420  154.6600 C   0  0  2  0  0  3  0  0  0  0  0  0
  161.4310  208.3670  152.1040 C   0  0  0  0  0  0  0  0  0  0  0  0
  161.3980  208.2090  148.4010 C   0  0  0  0  0  3  0  0  0  0  0  0
  161.2140  212.4780  147.0750 C   0  0  0  0  0  0  0  0  0  0  0  0
  162.4950  212.9610  146.7990 C   0  0  0  0  0  3  0  0  0  0  0  0
  162.1190  211.0450  148.8220 C   0  0  0  0  0  0  0  0  0  0  0  0
  163.5880  212.4990  147.5360 C   0  0  0  0  0  3  0  0  0  0  0  0
  161.0270  211.5290  148.0840 C   0  0  0  0  0  3  0  0  0  0  0  0
  163.3990  211.5500  148.5440 C   0  0  0  0  0  3  0  0  0  0  0  0
  160.0990  212.9520  146.3300 N   0  0  0  0  0  1  0  0  0  0  0  0
  161.0600  210.1780  156.0100 N   0  0  0  0  0  2  0  0  0  0  0  0
  159.7720  210.4310  156.6510 C   0  0  0  0  0  2  0  0  0  0  0  0
  158.8330  212.6020  156.9880 O   0  0  0  0  0  1  0  0  0  0  0  0
  159.1020  211.6390  156.0140 C   0  0  2  0  0  3  0  0  0  0  0  0
  157.8230  211.2590  155.2650 C   0  0  0  0  0  2  0  0  0  0  0  0
  158.4120  211.4140  152.8420 O   0  0  0  0  0  0  0  0  0  0  0  0
  157.7190  211.9260  153.9300 C   0  0  0  0  0  0  0  0  0  0  0  0
  156.9840  212.9370  153.7870 O   0  0  0  0  0  1  0  0  0  0  0  0
  1  8  1  0  0  0  0
  2 14  1  0  0  0  0
  3 18  1  0  0  0  0
  4 10  1  0  0  0  0
  5  1  2  0  0  0  0
  5 11  1  0  0  0  0
  6  2  1  0  0  0  0
  7  9  1  0  0  0  0
  8  3  1  0  0  0  0
  8  2  2  0  0  0  0
  9 17  1  0  0  0  0
 10 17  1  0  0  0  0
 11  6  2  0  0  0  0
 12 16  1  0  0  0  0
 12  3  2  0  0  0  0
 13 19  2  0  0  0  0
 13  1  1  0  0  0  0
 15  4  1  0  0  0  0
 16 15  2  0  0  0  0
 17 27  1  1  0  0  0
 18  4  2  0  0  0  0
 18  7  1  0  0  0  0
 19 12  1  0  0  0  0
 20 24  1  0  0  0  0
 21 20  2  0  0  0  0
 21 23  1  0  0  0  0
 22 16  1  0  0  0  0
 23 25  2  0  0  0  0
 24 22  2  0  0  0  0
 25 22  1  0  0  0  0
 26 20  1  0  0  0  0
 27 28  1  0  0  0  0
 30 28  1  0  0  0  0
 30 29  1  1  0  0  0
 31 30  1  0  0  0  0
 32 33  2  0  0  0  0
 33 31  1  0  0  0  0
 34 33  1  0  0  0  0
M  END
>  <MODEL>
4

>  <REMARK>
 VINA RESULT:      -8.5      2.814      6.762
  Name = 
  6 active torsions:
  status: ('A' for Active; 'I' for Inactive)
    1  A    between atoms: N_3  and  C_13
    2  A    between atoms: N_3  and  C_29
    3  A    between atoms: C_12  and  C_28
    4  A    between atoms: C_13  and  C_33
    5  A    between atoms: C_20  and  C_22
    6  A    between atoms: C_22  and  C_33
                            x       y       z     vdW  Elec       q    Type
                         _______ _______ _______ _____ _____    ______ ____

>  <TORSDO>
F 6

$$$$
=
 OpenBabel11062408113D

 34 38  0  0  1  0  0  0  0  0999 V2000
  160.8200  207.9840  154.9790 C   0  0  0  0  0  0  0  0  0  0  0  0
  162.0000  210.0030  154.3330 C   0  0  0  0  0  0  0  0  0  0  0  0
  161.4150  208.2560  152.6100 C   0  0  0  0  0  0  0  0  0  0  0  0
  161.7470  208.4310  150.1970 C   0  0  0  0  0  0  0  0  0  0  0  0
  160.6730  208.4870  156.2730 C   0  0  0  0  0  3  0  0  0  0  0  0
  161.8540  210.4870  155.6360 C   0  0  0  0  0  3  0  0  0  0  0  0
  161.2680  210.5370  151.4680 C   0  0  0  0  0  2  0  0  0  0  0  0
  161.3950  208.7760  153.9480 C   0  0  0  0  0  0  0  0  0  0  0  0
  161.9560  211.3010  150.3460 C   0  0  0  0  0  2  0  0  0  0  0  0
  162.0920  209.2090  148.9570 C   0  0  0  0  0  2  0  0  0  0  0  0
  161.1670  209.7480  156.5960 C   0  0  0  0  0  3  0  0  0  0  0  0
  161.1580  206.8670  152.4210 C   0  0  0  0  0  0  0  0  0  0  0  0
  160.4460  206.6690  154.7350 C   0  0  0  0  0  3  0  0  0  0  0  0
  162.8640  210.6650  153.5250 F   0  0  0  0  0  0  0  0  0  0  0  0
  161.6510  207.0850  150.0940 N   0  0  0  0  0  0  0  0  0  0  0  0
  161.3430  206.2820  151.1440 C   0  0  0  0  0  0  0  0  0  0  0  0
  161.5940  210.6540  149.0150 C   0  0  2  0  0  3  0  0  0  0  0  0
  161.5940  209.0610  151.4510 C   0  0  0  0  0  0  0  0  0  0  0  0
  160.6450  206.1090  153.4810 C   0  0  0  0  0  3  0  0  0  0  0  0
  160.9850  203.0060  149.2790 C   0  0  0  0  0  0  0  0  0  0  0  0
  161.0530  202.0740  150.3170 C   0  0  0  0  0  3  0  0  0  0  0  0
  161.2150  204.8240  150.8810 C   0  0  0  0  0  0  0  0  0  0  0  0
  161.2110  202.5100  151.6350 C   0  0  0  0  0  3  0  0  0  0  0  0
  161.0720  204.3730  149.5590 C   0  0  0  0  0  3  0  0  0  0  0  0
  161.2970  203.8760  151.9140 C   0  0  0  0  0  3  0  0  0  0  0  0
  160.8320  202.5640  147.9360 N   0  0  0  0  0  1  0  0  0  0  0  0
  162.0700  211.4410  147.8750 N   0  0  0  0  0  2  0  0  0  0  0  0
  162.2860  212.8340  148.2610 C   0  0  0  0  0  2  0  0  0  0  0  0
  160.3340  214.1970  148.0720 O   0  0  0  0  0  1  0  0  0  0  0  0
  161.4600  213.7540  147.3770 C   0  0  2  0  0  3  0  0  0  0  0  0
  161.0500  213.0770  146.0660 C   0  0  0  0  0  2  0  0  0  0  0  0
  163.0990  213.0590  144.6380 O   0  0  0  0  0  1  0  0  0  0  0  0
  161.8350  213.5720  144.8940 C   0  0  0  0  0  0  0  0  0  0  0  0
  161.3400  214.4350  144.1240 O   0  0  0  0  0  0  0  0  0  0  0  0
  1  5  2  0  0  0  0
  2  6  1  0  0  0  0
  3  8  1  0  0  0  0
  4 18  1  0  0  0  0
  5 11  1  0  0  0  0
  6 11  2  0  0  0  0
  8  2  2  0  0  0  0
  8  1  1  0  0  0  0
  9  7  1  0  0  0  0
 10 17  1  0  0  0  0
 10  4  1  0  0  0  0
 12  3  1  0  0  0  0
 12 19  1  0  0  0  0
 13  1  1  0  0  0  0
 14  2  1  0  0  0  0
 15  4  2  0  0  0  0
 15 16  1  0  0  0  0
 16 12  2  0  0  0  0
 17 27  1  6  0  0  0
 17  9  1  0  0  0  0
 18  7  1  0  0  0  0
 18  3  2  0  0  0  0
 19 13  2  0  0  0  0
 20 24  2  0  0  0  0
 20 21  1  0  0  0  0
 21 23  2  0  0  0  0
 22 16  1  0  0  0  0
 22 25  2  0  0  0  0
 23 25  1  0  0  0  0
 24 22  1  0  0  0  0
 26 20  1  0  0  0  0
 27 28  1  0  0  0  0
 30 29  1  1  0  0  0
 30 28  1  0  0  0  0
 31 30  1  0  0  0  0
 32 33  1  0  0  0  0
 33 31  1  0  0  0  0
 34 33  2  0  0  0  0
M  END
>  <MODEL>
5

>  <REMARK>
 VINA RESULT:      -8.4      2.138      5.397
  Name = 
  6 active torsions:
  status: ('A' for Active; 'I' for Inactive)
    1  A    between atoms: N_3  and  C_13
    2  A    between atoms: N_3  and  C_29
    3  A    between atoms: C_12  and  C_28
    4  A    between atoms: C_13  and  C_33
    5  A    between atoms: C_20  and  C_22
    6  A    between atoms: C_22  and  C_33
                            x       y       z     vdW  Elec       q    Type
                         _______ _______ _______ _____ _____    ______ ____

>  <TORSDO>
F 6

$$$$
=
 OpenBabel11062408113D

 34 38  0  0  1  0  0  0  0  0999 V2000
  161.4820  209.4120  155.1570 C   0  0  0  0  0  0  0  0  0  0  0  0
  160.4700  207.2070  155.1400 C   0  0  0  0  0  0  0  0  0  0  0  0
  161.2070  208.2940  152.9860 C   0  0  0  0  0  0  0  0  0  0  0  0
  161.1950  207.2730  150.7670 C   0  0  0  0  0  0  0  0  0  0  0  0
  161.4790  209.3990  156.5530 C   0  0  0  0  0  3  0  0  0  0  0  0
  160.4650  207.2150  156.5370 C   0  0  0  0  0  3  0  0  0  0  0  0
  161.5840  205.7790  152.7420 C   0  0  0  0  0  2  0  0  0  0  0  0
  161.0740  208.2710  154.4150 C   0  0  0  0  0  0  0  0  0  0  0  0
  161.0750  204.6230  151.8930 C   0  0  0  0  0  2  0  0  0  0  0  0
  161.0410  206.0900  149.8510 C   0  0  0  0  0  2  0  0  0  0  0  0
  160.9950  208.2920  157.2440 C   0  0  0  0  0  3  0  0  0  0  0  0
  161.4350  209.5490  152.3490 C   0  0  0  0  0  0  0  0  0  0  0  0
  161.8350  210.5880  154.5080 C   0  0  0  0  0  3  0  0  0  0  0  0
  159.7430  206.2410  154.5280 F   0  0  0  0  0  0  0  0  0  0  0  0
  161.2540  208.5040  150.2090 N   0  0  0  0  0  0  0  0  0  0  0  0
  161.3940  209.6410  150.9370 C   0  0  0  0  0  0  0  0  0  0  0  0
  161.5810  204.7980  150.4670 C   0  0  2  0  0  3  0  0  0  0  0  0
  161.2080  207.1270  152.1720 C   0  0  0  0  0  0  0  0  0  0  0  0
  161.7780  210.6640  153.1240 C   0  0  0  0  0  3  0  0  0  0  0  0
  162.4820  212.2020  148.3670 C   0  0  0  0  0  0  0  0  0  0  0  0
  161.6820  213.2990  148.6980 C   0  0  0  0  0  3  0  0  0  0  0  0
  161.5010  210.9240  150.1920 C   0  0  0  0  0  0  0  0  0  0  0  0
  160.7850  213.2110  149.7650 C   0  0  0  0  0  3  0  0  0  0  0  0
  162.3870  211.0200  149.1080 C   0  0  0  0  0  3  0  0  0  0  0  0
  160.6920  212.0290  150.5040 C   0  0  0  0  0  3  0  0  0  0  0  0
  163.3900  212.2870  147.2770 N   0  0  0  0  0  1  0  0  0  0  0  0
  161.2850  203.6310  149.6330 N   0  0  0  0  0  2  0  0  0  0  0  0
  160.8310  204.0420  148.3070 C   0  0  0  0  0  2  0  0  0  0  0  0
  162.7270  204.7440  147.0360 O   0  0  0  0  0  1  0  0  0  0  0  0
  161.8690  203.6670  147.2610 C   0  0  2  0  0  3  0  0  0  0  0  0
  161.2250  203.2100  145.9490 C   0  0  0  0  0  2  0  0  0  0  0  0
  161.2050  200.9600  147.0330 O   0  0  0  0  0  1  0  0  0  0  0  0
  160.7990  201.7770  145.9870 C   0  0  0  0  0  0  0  0  0  0  0  0
  160.0530  201.3180  145.0840 O   0  0  0  0  0  0  0  0  0  0  0  0
  1  5  2  0  0  0  0
  2  6  1  0  0  0  0
  3  8  1  0  0  0  0
  4 18  1  0  0  0  0
  5 11  1  0  0  0  0
  6 11  2  0  0  0  0
  8  2  2  0  0  0  0
  8  1  1  0  0  0  0
  9  7  1  0  0  0  0
 10 17  1  0  0  0  0
 10  4  1  0  0  0  0
 12  3  1  0  0  0  0
 12 19  1  0  0  0  0
 13  1  1  0  0  0  0
 14  2  1  0  0  0  0
 15  4  2  0  0  0  0
 15 16  1  0  0  0  0
 16 12  2  0  0  0  0
 17 27  1  6  0  0  0
 17  9  1  0  0  0  0
 18  7  1  0  0  0  0
 18  3  2  0  0  0  0
 19 13  2  0  0  0  0
 20 21  2  0  0  0  0
 20 24  1  0  0  0  0
 21 23  1  0  0  0  0
 22 25  1  0  0  0  0
 22 16  1  0  0  0  0
 23 25  2  0  0  0  0
 24 22  2  0  0  0  0
 26 20  1  0  0  0  0
 28 27  1  0  0  0  0
 30 29  1  6  0  0  0
 30 28  1  0  0  0  0
 31 33  1  0  0  0  0
 31 30  1  0  0  0  0
 33 32  1  0  0  0  0
 34 33  2  0  0  0  0
M  END
>  <MODEL>
6

>  <REMARK>
 VINA RESULT:      -8.1      3.835      7.615
  Name = 
  6 active torsions:
  status: ('A' for Active; 'I' for Inactive)
    1  A    between atoms: N_3  and  C_13
    2  A    between atoms: N_3  and  C_29
    3  A    between atoms: C_12  and  C_28
    4  A    between atoms: C_13  and  C_33
    5  A    between atoms: C_20  and  C_22
    6  A    between atoms: C_22  and  C_33
                            x       y       z     vdW  Elec       q    Type
                         _______ _______ _______ _____ _____    ______ ____

>  <TORSDO>
F 6

$$$$
=
 OpenBabel11062408113D

 34 38  0  0  1  0  0  0  0  0999 V2000
  160.9480  207.0510  153.4170 C   0  0  0  0  0  0  0  0  0  0  0  0
  161.8200  209.2980  153.6980 C   0  0  0  0  0  0  0  0  0  0  0  0
  161.4980  208.3290  151.3910 C   0  0  0  0  0  0  0  0  0  0  0  0
  161.8000  209.5010  149.2700 C   0  0  0  0  0  0  0  0  0  0  0  0
  160.7290  206.9680  154.7940 C   0  0  0  0  0  3  0  0  0  0  0  0
  161.6050  209.1930  155.0750 C   0  0  0  0  0  3  0  0  0  0  0  0
  161.0190  210.8340  151.2430 C   0  0  0  0  0  2  0  0  0  0  0  0
  161.4010  208.2590  152.8220 C   0  0  0  0  0  0  0  0  0  0  0  0
  161.5880  212.0690  150.5600 C   0  0  0  0  0  2  0  0  0  0  0  0
  162.0280  210.7500  148.4640 C   0  0  0  0  0  2  0  0  0  0  0  0
  161.0340  208.0460  155.6200 C   0  0  0  0  0  3  0  0  0  0  0  0
  161.4460  207.1110  150.6510 C   0  0  0  0  0  0  0  0  0  0  0  0
  160.7700  205.9080  152.6490 C   0  0  0  0  0  3  0  0  0  0  0  0
  162.5780  210.3370  153.2720 F   0  0  0  0  0  0  0  0  0  0  0  0
  161.9020  208.3100  148.6360 N   0  0  0  0  0  0  0  0  0  0  0  0
  161.7150  207.1200  149.2600 C   0  0  0  0  0  0  0  0  0  0  0  0
  161.3250  211.9690  149.0620 C   0  0  2  0  0  3  0  0  0  0  0  0
  161.5570  209.5480  150.6600 C   0  0  0  0  0  0  0  0  0  0  0  0
  161.0490  205.9310  151.2900 C   0  0  0  0  0  3  0  0  0  0  0  0
  161.2750  203.5290  148.1400 C   0  0  0  0  0  0  0  0  0  0  0  0
  161.8590  203.5490  146.8720 C   0  0  0  0  0  3  0  0  0  0  0  0
  161.8010  205.8880  148.4320 C   0  0  0  0  0  0  0  0  0  0  0  0
  162.4060  204.7350  146.3750 C   0  0  0  0  0  3  0  0  0  0  0  0
  161.2410  204.6930  148.9130 C   0  0  0  0  0  3  0  0  0  0  0  0
  162.3720  205.8980  147.1490 C   0  0  0  0  0  3  0  0  0  0  0  0
  160.7120  202.3250  148.6440 N   0  0  0  0  0  1  0  0  0  0  0  0
  161.6800  213.2040  148.3600 N   0  0  0  0  0  2  0  0  0  0  0  0
  162.3880  212.9090  147.1160 C   0  0  0  0  0  2  0  0  0  0  0  0
  160.7010  214.4520  146.4240 O   0  0  0  0  0  1  0  0  0  0  0  0
  161.8280  213.7560  145.9840 C   0  0  2  0  0  3  0  0  0  0  0  0
  161.4930  212.9170  144.7480 C   0  0  0  0  0  2  0  0  0  0  0  0
  162.4350  212.2400  142.5360 O   0  0  0  0  0  0  0  0  0  0  0  0
  162.5810  212.9460  143.7230 C   0  0  0  0  0  0  0  0  0  0  0  0
  163.6180  213.6300  143.9230 O   0  0  0  0  0  1  0  0  0  0  0  0
  1  5  2  0  0  0  0
  2  6  1  0  0  0  0
  3  8  1  0  0  0  0
  4 18  2  0  0  0  0
  5 11  1  0  0  0  0
  6 11  2  0  0  0  0
  8  1  1  0  0  0  0
  8  2  2  0  0  0  0
  9  7  1  0  0  0  0
 10 17  1  0  0  0  0
 10  4  1  0  0  0  0
 12 19  1  0  0  0  0
 12  3  2  0  0  0  0
 13  1  1  0  0  0  0
 14  2  1  0  0  0  0
 15 16  2  0  0  0  0
 15  4  1  0  0  0  0
 16 12  1  0  0  0  0
 17 27  1  6  0  0  0
 17  9  1  0  0  0  0
 18  7  1  0  0  0  0
 18  3  1  0  0  0  0
 19 13  2  0  0  0  0
 20 26  1  0  0  0  0
 20 24  1  0  0  0  0
 21 20  2  0  0  0  0
 22 24  2  0  0  0  0
 22 16  1  0  0  0  0
 23 21  1  0  0  0  0
 23 25  2  0  0  0  0
 25 22  1  0  0  0  0
 28 27  1  0  0  0  0
 30 29  1  1  0  0  0
 30 28  1  0  0  0  0
 31 30  1  0  0  0  0
 32 33  2  0  0  0  0
 33 34  1  0  0  0  0
 33 31  1  0  0  0  0
M  END
>  <MODEL>
7

>  <REMARK>
 VINA RESULT:      -7.9      2.427      5.701
  Name = 
  6 active torsions:
  status: ('A' for Active; 'I' for Inactive)
    1  A    between atoms: N_3  and  C_13
    2  A    between atoms: N_3  and  C_29
    3  A    between atoms: C_12  and  C_28
    4  A    between atoms: C_13  and  C_33
    5  A    between atoms: C_20  and  C_22
    6  A    between atoms: C_22  and  C_33
                            x       y       z     vdW  Elec       q    Type
                         _______ _______ _______ _____ _____    ______ ____

>  <TORSDO>
F 6

$$$$
=
 OpenBabel11062408113D

 34 38  0  0  1  0  0  0  0  0999 V2000
  161.2100  211.3180  150.5240 C   0  0  0  0  0  0  0  0  0  0  0  0
  162.2380  210.0480  148.7300 C   0  0  0  0  0  0  0  0  0  0  0  0
  161.3450  208.8770  150.7770 C   0  0  0  0  0  0  0  0  0  0  0  0
  161.2120  206.4630  151.1250 C   0  0  0  0  0  0  0  0  0  0  0  0
  161.3090  212.4790  149.7550 C   0  0  0  0  0  3  0  0  0  0  0  0
  162.3400  211.2220  147.9780 C   0  0  0  0  0  3  0  0  0  0  0  0
  160.9750  207.3220  148.7840 C   0  0  0  0  0  2  0  0  0  0  0  0
  161.5760  210.0540  149.9880 C   0  0  0  0  0  0  0  0  0  0  0  0
  161.4350  205.9560  148.2980 C   0  0  0  0  0  2  0  0  0  0  0  0
  161.3130  205.0440  150.6380 C   0  0  0  0  0  2  0  0  0  0  0  0
  161.8500  212.4280  148.4730 C   0  0  0  0  0  3  0  0  0  0  0  0
  161.0610  209.0400  152.1650 C   0  0  0  0  0  0  0  0  0  0  0  0
  160.8010  211.4340  151.8460 C   0  0  0  0  0  3  0  0  0  0  0  0
  162.9310  208.9720  148.2840 F   0  0  0  0  0  0  0  0  0  0  0  0
  161.1040  206.6700  152.4580 N   0  0  0  0  0  0  0  0  0  0  0  0
  161.0040  207.9050  153.0110 C   0  0  0  0  0  0  0  0  0  0  0  0
  160.8300  204.8840  149.1960 C   0  0  2  0  0  3  0  0  0  0  0  0
  161.2970  207.5600  150.2410 C   0  0  0  0  0  0  0  0  0  0  0  0
  160.7620  210.3130  152.6630 C   0  0  0  0  0  3  0  0  0  0  0  0
  160.8950  209.3190  156.5230 C   0  0  0  0  0  0  0  0  0  0  0  0
  160.4460  208.2220  157.2610 C   0  0  0  0  0  3  0  0  0  0  0  0
  160.8340  207.9870  154.4860 C   0  0  0  0  0  0  0  0  0  0  0  0
  160.1800  207.0100  156.6180 C   0  0  0  0  0  3  0  0  0  0  0  0
  161.0820  209.2030  155.1420 C   0  0  0  0  0  3  0  0  0  0  0  0
  160.3680  206.8960  155.2380 C   0  0  0  0  0  3  0  0  0  0  0  0
  161.1590  210.5540  157.1740 N   0  0  0  0  0  1  0  0  0  0  0  0
  161.0770  203.5350  148.6840 N   0  0  0  0  0  2  0  0  0  0  0  0
  161.9290  203.5790  147.4970 C   0  0  0  0  0  2  0  0  0  0  0  0
  160.8890  201.9400  146.1050 O   0  0  0  0  0  1  0  0  0  0  0  0
  161.1000  203.3110  146.2510 C   0  0  2  0  0  3  0  0  0  0  0  0
  161.7490  203.8920  144.9920 C   0  0  0  0  0  2  0  0  0  0  0  0
  159.8610  205.5260  145.0830 O   0  0  0  0  0  1  0  0  0  0  0  0
  161.0630  205.1300  144.5110 C   0  0  0  0  0  0  0  0  0  0  0  0
  161.5860  205.8280  143.6040 O   0  0  0  0  0  0  0  0  0  0  0  0
  1 13  1  0  0  0  0
  2  8  1  0  0  0  0
  3 12  1  0  0  0  0
  4 15  2  0  0  0  0
  5  1  1  0  0  0  0
  6 11  1  0  0  0  0
  6  2  2  0  0  0  0
  7 18  1  0  0  0  0
  8  1  2  0  0  0  0
  8  3  1  0  0  0  0
  9  7  1  0  0  0  0
  9 17  1  0  0  0  0
 10  4  1  0  0  0  0
 11  5  2  0  0  0  0
 12 19  1  0  0  0  0
 12 16  2  0  0  0  0
 13 19  2  0  0  0  0
 14  2  1  0  0  0  0
 15 16  1  0  0  0  0
 16 22  1  0  0  0  0
 17 27  1  6  0  0  0
 17 10  1  0  0  0  0
 18  3  2  0  0  0  0
 18  4  1  0  0  0  0
 20 26  1  0  0  0  0
 20 21  1  0  0  0  0
 22 24  1  0  0  0  0
 22 25  2  0  0  0  0
 23 21  2  0  0  0  0
 24 20  2  0  0  0  0
 25 23  1  0  0  0  0
 28 27  1  0  0  0  0
 30 29  1  6  0  0  0
 30 28  1  0  0  0  0
 31 30  1  0  0  0  0
 33 31  1  0  0  0  0
 33 32  1  0  0  0  0
 34 33  2  0  0  0  0
M  END
>  <MODEL>
8

>  <REMARK>
 VINA RESULT:      -7.9      3.249      5.964
  Name = 
  6 active torsions:
  status: ('A' for Active; 'I' for Inactive)
    1  A    between atoms: N_3  and  C_13
    2  A    between atoms: N_3  and  C_29
    3  A    between atoms: C_12  and  C_28
    4  A    between atoms: C_13  and  C_33
    5  A    between atoms: C_20  and  C_22
    6  A    between atoms: C_22  and  C_33
                            x       y       z     vdW  Elec       q    Type
                         _______ _______ _______ _____ _____    ______ ____

>  <TORSDO>
F 6

$$$$
=
 OpenBabel11062408113D

 34 38  0  0  1  0  0  0  0  0999 V2000
  160.8070  207.1090  153.8190 C   0  0  0  0  0  0  0  0  0  0  0  0
  161.9450  209.2480  153.6810 C   0  0  0  0  0  0  0  0  0  0  0  0
  161.4580  207.9210  151.5920 C   0  0  0  0  0  0  0  0  0  0  0  0
  161.8480  208.6420  149.2920 C   0  0  0  0  0  0  0  0  0  0  0  0
  160.6120  207.3050  155.1870 C   0  0  0  0  0  3  0  0  0  0  0  0
  161.7510  209.4220  155.0540 C   0  0  0  0  0  3  0  0  0  0  0  0
  161.2760  210.3960  150.9870 C   0  0  0  0  0  2  0  0  0  0  0  0
  161.3870  208.1250  153.0110 C   0  0  0  0  0  0  0  0  0  0  0  0
  161.9710  211.4080  150.0880 C   0  0  0  0  0  2  0  0  0  0  0  0
  162.2040  209.6870  148.2700 C   0  0  0  0  0  2  0  0  0  0  0  0
  161.0610  208.4710  155.8010 C   0  0  0  0  0  3  0  0  0  0  0  0
  161.2450  206.6040  151.0880 C   0  0  0  0  0  0  0  0  0  0  0  0
  160.4780  205.8750  153.2740 C   0  0  0  0  0  3  0  0  0  0  0  0
  162.8110  210.0930  153.0710 F   0  0  0  0  0  0  0  0  0  0  0  0
  161.7940  207.3520  148.8870 N   0  0  0  0  0  0  0  0  0  0  0  0
  161.4810  206.3270  149.7190 C   0  0  0  0  0  0  0  0  0  0  0  0
  161.6630  211.0700  148.6350 C   0  0  2  0  0  3  0  0  0  0  0  0
  161.6440  208.9700  150.6500 C   0  0  0  0  0  0  0  0  0  0  0  0
  160.7270  205.6160  151.9340 C   0  0  0  0  0  3  0  0  0  0  0  0
  160.8870  202.6000  149.4040 C   0  0  0  0  0  0  0  0  0  0  0  0
  161.1530  202.3790  148.0510 C   0  0  0  0  0  3  0  0  0  0  0  0
  161.4020  204.9630  149.1310 C   0  0  0  0  0  0  0  0  0  0  0  0
  161.5340  203.4450  147.2320 C   0  0  0  0  0  3  0  0  0  0  0  0
  161.0060  203.8860  149.9390 C   0  0  0  0  0  3  0  0  0  0  0  0
  161.6520  204.7300  147.7690 C   0  0  0  0  0  3  0  0  0  0  0  0
  160.4930  201.5170  150.2370 N   0  0  0  0  0  1  0  0  0  0  0  0
  162.1460  212.1040  147.7170 N   0  0  0  0  0  2  0  0  0  0  0  0
  161.2370  213.2470  147.6990 C   0  0  0  0  0  2  0  0  0  0  0  0
  160.0970  213.0320  145.6100 O   0  0  0  0  0  1  0  0  0  0  0  0
  159.9450  212.8740  146.9880 C   0  0  2  0  0  3  0  0  0  0  0  0
  158.7530  213.6900  147.4950 C   0  0  0  0  0  2  0  0  0  0  0  0
  156.8220  212.8850  148.8610 O   0  0  0  0  0  1  0  0  0  0  0  0
  157.5180  212.8620  147.6600 C   0  0  0  0  0  0  0  0  0  0  0  0
  157.0960  212.1640  146.7030 O   0  0  0  0  0  0  0  0  0  0  0  0
  1  5  2  0  0  0  0
  2  6  1  0  0  0  0
  3  8  1  0  0  0  0
  4 18  1  0  0  0  0
  5 11  1  0  0  0  0
  6 11  2  0  0  0  0
  8  2  2  0  0  0  0
  8  1  1  0  0  0  0
  9  7  1  0  0  0  0
 10 17  1  0  0  0  0
 10  4  1  0  0  0  0
 12  3  1  0  0  0  0
 12 19  1  0  0  0  0
 13  1  1  0  0  0  0
 14  2  1  0  0  0  0
 15  4  2  0  0  0  0
 15 16  1  0  0  0  0
 16 12  2  0  0  0  0
 17 27  1  6  0  0  0
 17  9  1  0  0  0  0
 18  7  1  0  0  0  0
 18  3  2  0  0  0  0
 19 13  2  0  0  0  0
 20 24  1  0  0  0  0
 20 26  1  0  0  0  0
 21 20  2  0  0  0  0
 22 16  1  0  0  0  0
 22 24  2  0  0  0  0
 23 25  2  0  0  0  0
 23 21  1  0  0  0  0
 25 22  1  0  0  0  0
 28 27  1  0  0  0  0
 30 29  1  6  0  0  0
 30 31  1  0  0  0  0
 30 28  1  0  0  0  0
 31 33  1  0  0  0  0
 33 32  1  0  0  0  0
 34 33  2  0  0  0  0
M  END
>  <MODEL>
9

>  <REMARK>
 VINA RESULT:      -7.8      2.362      5.684
  Name = 
  6 active torsions:
  status: ('A' for Active; 'I' for Inactive)
    1  A    between atoms: N_3  and  C_13
    2  A    between atoms: N_3  and  C_29
    3  A    between atoms: C_12  and  C_28
    4  A    between atoms: C_13  and  C_33
    5  A    between atoms: C_20  and  C_22
    6  A    between atoms: C_22  and  C_33
                            x       y       z     vdW  Elec       q    Type
                         _______ _______ _______ _____ _____    ______ ____

>  <TORSDO>
F 6

$$$$
