=
 OpenBabel11062410563D

 32 32  0  0  1  0  0  0  0  0999 V2000
  161.3830  206.2760  149.6280 C   0  0  2  0  0  3  0  0  0  0  0  0
  160.9790  205.3760  148.4560 C   0  0  1  0  0  3  0  0  0  0  0  0
  161.5300  205.8390  147.2570 O   0  0  0  0  0  0  0  0  0  0  0  0
  160.4660  206.4270  146.5720 C   0  0  0  0  0  2  0  0  0  0  0  0
  160.5040  205.9980  145.1210 C   0  0  0  0  0  1  0  0  0  0  0  0
  161.4270  204.0140  148.7060 N   0  0  0  0  0  2  0  0  0  0  0  0
  161.5400  203.3460  147.4180 C   0  0  0  0  0  2  0  0  0  0  0  0
  161.7210  200.8980  147.7640 C   0  0  1  0  0  3  0  0  0  0  0  0
  161.0600  200.7710  149.0520 N   0  0  0  0  0  2  0  0  0  0  0  0
  160.1840  201.8360  148.7540 N   0  0  0  0  0  2  0  0  0  0  0  0
  161.3880  199.6960  146.9020 C   0  0  0  0  0  1  0  0  0  0  0  0
  160.7880  202.0230  147.4460 C   0  0  1  0  0  3  0  0  0  0  0  0
  162.3800  207.3860  149.2520 C   0  0  0  0  0  2  0  0  0  0  0  0
  161.7250  208.6760  149.1060 N   0  0  0  0  0  2  0  0  0  0  0  0
  162.0690  209.4540  150.2810 C   0  0  0  0  0  2  0  0  0  0  0  0
  162.0790  210.8090  149.9540 O   0  0  0  0  0  0  0  0  0  0  0  0
  162.0610  210.8330  148.5600 C   0  0  0  0  0  1  0  0  0  0  0  0
  161.6930  205.5120  150.8530 N   0  0  0  0  0  0  0  0  0  0  0  0
  160.5160  204.7700  151.3200 C   0  0  0  0  0  2  0  0  0  0  0  0
  160.8660  203.4950  152.0830 C   0  0  0  0  0  1  0  0  0  0  0  0
  162.2760  206.3230  151.9240 C   0  0  0  0  0  2  0  0  0  0  0  0
  161.1840  206.9410  152.7880 C   0  0  0  0  0  2  0  0  0  0  0  0
  161.3790  206.5970  154.2560 C   0  0  0  0  0  2  0  0  0  0  0  0
  160.2830  207.2240  155.1010 C   0  0  0  0  0  2  0  0  0  0  0  0
  160.8520  208.2720  155.9990 C   0  0  0  0  0  0  0  0  0  0  0  0
  161.6440  207.9660  156.8770 O   0  0  0  0  0  0  0  0  0  0  0  0
  160.4490  209.6990  155.8230 C   0  0  0  0  0  2  0  0  0  0  0  0
  161.3390  210.3740  154.8280 C   0  0  0  0  0  0  0  0  0  0  0  0
  162.4610  210.8040  155.2030 O   0  0  0  0  0  0  0  0  0  0  0  0
  160.9690  210.5160  153.4890 O   0  0  0  0  0  0  0  0  0  0  0  0
  160.3970  211.7120  152.9810 C   0  0  0  0  0  2  0  0  0  0  0  0
  158.5920  211.6330  153.1340 S   0  0  0  0  0  1  0  0  0  0  0  0
  1 13  1  6  0  0  0
  1 18  1  0  0  0  0
  2  3  1  6  0  0  0
  2  6  1  0  0  0  0
  2  1  1  0  0  0  0
  4  3  1  0  0  0  0
  5  4  1  0  0  0  0
  7  6  1  0  0  0  0
  8 11  1  6  0  0  0
  8  9  1  0  0  0  0
 10  9  1  0  0  0  0
 12  7  1  1  0  0  0
 12  8  1  0  0  0  0
 12 10  1  0  0  0  0
 14 13  1  0  0  0  0
 14 15  1  0  0  0  0
 16 15  1  0  0  0  0
 17 16  1  0  0  0  0
 18 19  1  0  0  0  0
 18 21  1  0  0  0  0
 19 20  1  0  0  0  0
 21 22  1  0  0  0  0
 22 23  1  0  0  0  0
 23 24  1  0  0  0  0
 24 25  1  0  0  0  0
 25 26  2  0  0  0  0
 27 25  1  0  0  0  0
 28 29  2  0  0  0  0
 28 27  1  0  0  0  0
 30 28  1  0  0  0  0
 31 32  1  0  0  0  0
 31 30  1  0  0  0  0
M  END
>  <MODEL>
1

>  <REMARK>
 VINA RESULT:      -5.6      0.000      0.000
  Name = 
  21 active torsions:
  status: ('A' for Active; 'I' for Inactive)
    1  A    between atoms: C_1  and  O_20
    2  A    between atoms: C_2  and  C_9
    3  A    between atoms: C_2  and  C_23
    4  A    between atoms: C_3  and  N_14
    5  A    between atoms: C_4  and  O_5
    6  A    between atoms: C_4  and  N_13
    7  A    between atoms: C_6  and  O_31
    8  A    between atoms: C_7  and  N_27
    9  A    between atoms: C_7  and  C_32
   10  A    between atoms: C_8  and  C_23
   11  A    between atoms: C_8  and  C_28
   12  A    between atoms: C_9  and  C_10
   13  A    between atoms: C_10  and  C_19
   14  A    between atoms: N_13  and  C_15
   15  A    between atoms: N_14  and  C_26
   16  A    between atoms: N_14  and  C_28
   17  A    between atoms: C_15  and  C_26
   18  A    between atoms: C_16  and  C_26
   19  A    between atoms: C_16  and  N_27
   20  A    between atoms: C_16  and  O_31
   21  A    between atoms: C_19  and  O_20
                            x       y       z     vdW  Elec       q    Type
                         _______ _______ _______ _____ _____    ______ ____

>  <TORSDO>
F 21

$$$$
=
 OpenBabel11062410563D

 32 32  0  0  1  0  0  0  0  0999 V2000
  160.7820  204.7260  149.5830 C   0  0  2  0  0  3  0  0  0  0  0  0
  161.2070  203.4410  148.8640 C   0  0  1  0  0  3  0  0  0  0  0  0
  160.0930  202.7370  148.3980 O   0  0  0  0  0  0  0  0  0  0  0  0
  159.9860  201.6310  149.2430 C   0  0  0  0  0  2  0  0  0  0  0  0
  161.2330  200.7810  149.1190 C   0  0  0  0  0  1  0  0  0  0  0  0
  162.0790  203.7720  147.7450 N   0  0  0  0  0  2  0  0  0  0  0  0
  161.4130  203.3360  146.5270 C   0  0  0  0  0  2  0  0  0  0  0  0
  161.3590  205.3130  145.0320 C   0  0  1  0  0  3  0  0  0  0  0  0
  162.5710  205.9920  145.4590 N   0  0  0  0  0  2  0  0  0  0  0  0
  163.2120  204.7650  145.7340 N   0  0  0  0  0  2  0  0  0  0  0  0
  161.1840  205.4830  143.5350 C   0  0  0  0  0  1  0  0  0  0  0  0
  162.0420  204.0120  145.3170 C   0  0  1  0  0  3  0  0  0  0  0  0
  160.6860  205.9570  148.6650 C   0  0  0  0  0  2  0  0  0  0  0  0
  161.9300  206.7090  148.6360 N   0  0  0  0  0  2  0  0  0  0  0  0
  161.5820  208.1000  148.8610 C   0  0  0  0  0  2  0  0  0  0  0  0
  162.1840  208.5450  150.0370 O   0  0  0  0  0  0  0  0  0  0  0  0
  162.1010  209.9350  149.9680 C   0  0  0  0  0  1  0  0  0  0  0  0
  161.4900  204.9240  150.8630 N   0  0  0  0  0  0  0  0  0  0  0  0
  161.8160  203.6360  151.4860 C   0  0  0  0  0  2  0  0  0  0  0  0
  160.6960  203.0880  152.3670 C   0  0  0  0  0  1  0  0  0  0  0  0
  160.7900  205.8100  151.7960 C   0  0  0  0  0  2  0  0  0  0  0  0
  161.7740  206.4670  152.7570 C   0  0  0  0  0  2  0  0  0  0  0  0
  161.1820  207.7200  153.3820 C   0  0  0  0  0  2  0  0  0  0  0  0
  160.7580  207.4510  154.8160 C   0  0  0  0  0  2  0  0  0  0  0  0
  160.9870  208.6590  155.6630 C   0  0  0  0  0  0  0  0  0  0  0  0
  162.0000  208.7540  156.3380 O   0  0  0  0  0  0  0  0  0  0  0  0
  159.9720  209.7530  155.6840 C   0  0  0  0  0  2  0  0  0  0  0  0
  160.5650  211.0270  155.1680 C   0  0  0  0  0  0  0  0  0  0  0  0
  160.6390  212.0210  155.9360 O   0  0  0  0  0  0  0  0  0  0  0  0
  161.0610  211.1320  153.8680 O   0  0  0  0  0  0  0  0  0  0  0  0
  160.3100  211.7130  152.8120 C   0  0  0  0  0  2  0  0  0  0  0  0
  158.5430  211.6350  153.2110 S   0  0  0  0  0  1  0  0  0  0  0  0
  1 13  1  6  0  0  0
  1 18  1  0  0  0  0
  2  6  1  6  0  0  0
  2  1  1  0  0  0  0
  3  2  1  0  0  0  0
  3  4  1  0  0  0  0
  5  4  1  0  0  0  0
  7  6  1  0  0  0  0
  8 11  1  6  0  0  0
  8 12  1  0  0  0  0
  8  9  1  0  0  0  0
  9 10  1  0  0  0  0
 12 10  1  0  0  0  0
 12  7  1  1  0  0  0
 14 13  1  0  0  0  0
 14 15  1  0  0  0  0
 15 16  1  0  0  0  0
 17 16  1  0  0  0  0
 18 19  1  0  0  0  0
 18 21  1  0  0  0  0
 19 20  1  0  0  0  0
 21 22  1  0  0  0  0
 22 23  1  0  0  0  0
 23 24  1  0  0  0  0
 24 25  1  0  0  0  0
 25 27  1  0  0  0  0
 25 26  2  0  0  0  0
 28 27  1  0  0  0  0
 28 29  2  0  0  0  0
 30 28  1  0  0  0  0
 31 32  1  0  0  0  0
 31 30  1  0  0  0  0
M  END
>  <MODEL>
2

>  <REMARK>
 VINA RESULT:      -5.5      1.662      2.992
  Name = 
  21 active torsions:
  status: ('A' for Active; 'I' for Inactive)
    1  A    between atoms: C_1  and  O_20
    2  A    between atoms: C_2  and  C_9
    3  A    between atoms: C_2  and  C_23
    4  A    between atoms: C_3  and  N_14
    5  A    between atoms: C_4  and  O_5
    6  A    between atoms: C_4  and  N_13
    7  A    between atoms: C_6  and  O_31
    8  A    between atoms: C_7  and  N_27
    9  A    between atoms: C_7  and  C_32
   10  A    between atoms: C_8  and  C_23
   11  A    between atoms: C_8  and  C_28
   12  A    between atoms: C_9  and  C_10
   13  A    between atoms: C_10  and  C_19
   14  A    between atoms: N_13  and  C_15
   15  A    between atoms: N_14  and  C_26
   16  A    between atoms: N_14  and  C_28
   17  A    between atoms: C_15  and  C_26
   18  A    between atoms: C_16  and  C_26
   19  A    between atoms: C_16  and  N_27
   20  A    between atoms: C_16  and  O_31
   21  A    between atoms: C_19  and  O_20
                            x       y       z     vdW  Elec       q    Type
                         _______ _______ _______ _____ _____    ______ ____

>  <TORSDO>
F 21

$$$$
=
 OpenBabel11062410563D

 32 32  0  0  1  0  0  0  0  0999 V2000
  161.0950  208.9170  153.2570 C   0  0  2  0  0  3  0  0  0  0  0  0
  160.5780  210.1580  153.9940 C   0  0  1  0  0  3  0  0  0  0  0  0
  161.5870  211.1160  154.1280 O   0  0  0  0  0  0  0  0  0  0  0  0
  162.3000  210.7340  155.2650 C   0  0  0  0  0  2  0  0  0  0  0  0
  161.5780  211.2270  156.5010 C   0  0  0  0  0  1  0  0  0  0  0  0
  159.4560  210.7290  153.2640 N   0  0  0  0  0  2  0  0  0  0  0  0
  159.1550  212.0200  153.8630 C   0  0  0  0  0  2  0  0  0  0  0  0
  157.2240  211.4840  155.3210 C   0  0  1  0  0  3  0  0  0  0  0  0
  156.9620  212.7940  155.8930 N   0  0  0  0  0  2  0  0  0  0  0  0
  157.3730  213.4400  154.7080 N   0  0  0  0  0  2  0  0  0  0  0  0
  155.9120  210.7600  155.0890 C   0  0  0  0  0  1  0  0  0  0  0  0
  157.6540  212.1690  154.0630 C   0  0  1  0  0  3  0  0  0  0  0  0
  160.8290  208.9330  151.7410 C   0  0  0  0  0  2  0  0  0  0  0  0
  162.0120  209.3170  150.9880 N   0  0  0  0  0  2  0  0  0  0  0  0
  162.2540  208.2610  150.0220 C   0  0  0  0  0  2  0  0  0  0  0  0
  161.8490  208.6870  148.7580 O   0  0  0  0  0  0  0  0  0  0  0  0
  162.1460  210.0500  148.7360 C   0  0  0  0  0  1  0  0  0  0  0  0
  160.7720  207.6600  153.9610 N   0  0  0  0  0  0  0  0  0  0  0  0
  160.6450  207.8860  155.4050 C   0  0  0  0  0  2  0  0  0  0  0  0
  159.7420  206.8710  156.1010 C   0  0  0  0  0  1  0  0  0  0  0  0
  161.6980  206.5640  153.6680 C   0  0  0  0  0  2  0  0  0  0  0  0
  160.9860  205.4420  152.9210 C   0  0  0  0  0  2  0  0  0  0  0  0
  161.8430  204.9030  151.7860 C   0  0  0  0  0  2  0  0  0  0  0  0
  161.0750  203.8640  150.9860 C   0  0  0  0  0  2  0  0  0  0  0  0
  160.8500  204.3440  149.5900 C   0  0  0  0  0  0  0  0  0  0  0  0
  160.3400  205.4350  149.3890 O   0  0  0  0  0  0  0  0  0  0  0  0
  161.2480  203.4830  148.4370 C   0  0  0  0  0  2  0  0  0  0  0  0
  161.8150  204.3190  147.3320 C   0  0  0  0  0  0  0  0  0  0  0  0
  162.1740  205.4990  147.5810 O   0  0  0  0  0  0  0  0  0  0  0  0
  161.9780  203.8160  146.0400 O   0  0  0  0  0  0  0  0  0  0  0  0
  160.8770  203.5300  145.1910 C   0  0  0  0  0  2  0  0  0  0  0  0
  160.3760  201.8010  145.4070 S   0  0  0  0  0  1  0  0  0  0  0  0
  1 13  1  6  0  0  0
  1 18  1  0  0  0  0
  1  2  1  0  0  0  0
  2  6  1  6  0  0  0
  2  3  1  0  0  0  0
  3  4  1  0  0  0  0
  4  5  1  0  0  0  0
  6  7  1  0  0  0  0
  8 11  1  6  0  0  0
  8  9  1  0  0  0  0
 10  9  1  0  0  0  0
 12  7  1  1  0  0  0
 12 10  1  0  0  0  0
 12  8  1  0  0  0  0
 14 13  1  0  0  0  0
 15 14  1  0  0  0  0
 16 15  1  0  0  0  0
 17 16  1  0  0  0  0
 18 19  1  0  0  0  0
 19 20  1  0  0  0  0
 21 18  1  0  0  0  0
 22 21  1  0  0  0  0
 23 22  1  0  0  0  0
 24 23  1  0  0  0  0
 25 24  1  0  0  0  0
 26 25  2  0  0  0  0
 27 25  1  0  0  0  0
 28 29  2  0  0  0  0
 28 27  1  0  0  0  0
 30 28  1  0  0  0  0
 31 32  1  0  0  0  0
 31 30  1  0  0  0  0
M  END
>  <MODEL>
3

>  <REMARK>
 VINA RESULT:      -5.4      3.813      8.782
  Name = 
  21 active torsions:
  status: ('A' for Active; 'I' for Inactive)
    1  A    between atoms: C_1  and  O_20
    2  A    between atoms: C_2  and  C_9
    3  A    between atoms: C_2  and  C_23
    4  A    between atoms: C_3  and  N_14
    5  A    between atoms: C_4  and  O_5
    6  A    between atoms: C_4  and  N_13
    7  A    between atoms: C_6  and  O_31
    8  A    between atoms: C_7  and  N_27
    9  A    between atoms: C_7  and  C_32
   10  A    between atoms: C_8  and  C_23
   11  A    between atoms: C_8  and  C_28
   12  A    between atoms: C_9  and  C_10
   13  A    between atoms: C_10  and  C_19
   14  A    between atoms: N_13  and  C_15
   15  A    between atoms: N_14  and  C_26
   16  A    between atoms: N_14  and  C_28
   17  A    between atoms: C_15  and  C_26
   18  A    between atoms: C_16  and  C_26
   19  A    between atoms: C_16  and  N_27
   20  A    between atoms: C_16  and  O_31
   21  A    between atoms: C_19  and  O_20
                            x       y       z     vdW  Elec       q    Type
                         _______ _______ _______ _____ _____    ______ ____

>  <TORSDO>
F 21

$$$$
=
 OpenBabel11062410563D

 32 32  0  0  1  0  0  0  0  0999 V2000
  161.5750  206.5930  150.5320 C   0  0  2  0  0  3  0  0  0  0  0  0
  161.2740  207.6360  149.4500 C   0  0  1  0  0  3  0  0  0  0  0  0
  162.4100  208.3960  149.1580 O   0  0  0  0  0  0  0  0  0  0  0  0
  161.9200  209.5940  148.6370 C   0  0  0  0  0  2  0  0  0  0  0  0
  162.1800  210.7150  149.6210 C   0  0  0  0  0  1  0  0  0  0  0  0
  160.8090  206.9690  148.2430 N   0  0  0  0  0  2  0  0  0  0  0  0
  161.9830  206.5890  147.4720 C   0  0  0  0  0  2  0  0  0  0  0  0
  162.0150  205.5190  145.2360 C   0  0  1  0  0  3  0  0  0  0  0  0
  163.1450  204.6200  145.3980 N   0  0  0  0  0  2  0  0  0  0  0  0
  162.8560  204.4340  146.7660 N   0  0  0  0  0  2  0  0  0  0  0  0
  160.9530  204.8500  144.3850 C   0  0  0  0  0  1  0  0  0  0  0  0
  161.7040  205.3160  146.6860 C   0  0  1  0  0  3  0  0  0  0  0  0
  160.6310  205.3790  150.5140 C   0  0  0  0  0  2  0  0  0  0  0  0
  161.3060  204.1750  150.0570 N   0  0  0  0  0  2  0  0  0  0  0  0
  160.8870  203.1020  150.9400 C   0  0  0  0  0  2  0  0  0  0  0  0
  160.3640  202.0550  150.1830 O   0  0  0  0  0  0  0  0  0  0  0  0
  160.8700  202.2630  148.9010 C   0  0  0  0  0  1  0  0  0  0  0  0
  161.8270  207.2010  151.8550 N   0  0  0  0  0  0  0  0  0  0  0  0
  161.9840  206.1670  152.8840 C   0  0  0  0  0  2  0  0  0  0  0  0
  160.9900  206.3020  154.0350 C   0  0  0  0  0  1  0  0  0  0  0  0
  160.8300  208.2000  152.2450 C   0  0  0  0  0  2  0  0  0  0  0  0
  161.5090  209.4640  152.7610 C   0  0  0  0  0  2  0  0  0  0  0  0
  160.5000  210.5790  152.9880 C   0  0  0  0  0  2  0  0  0  0  0  0
  160.7140  211.2220  154.3480 C   0  0  0  0  0  2  0  0  0  0  0  0
  159.6370  210.8090  155.2960 C   0  0  0  0  0  0  0  0  0  0  0  0
  159.4990  209.6330  155.5950 O   0  0  0  0  0  0  0  0  0  0  0  0
  158.7250  211.8380  155.8770 C   0  0  0  0  0  2  0  0  0  0  0  0
  157.3730  211.7580  155.2390 C   0  0  0  0  0  0  0  0  0  0  0  0
  156.4120  211.2880  155.9010 O   0  0  0  0  0  0  0  0  0  0  0  0
  157.1460  212.2170  153.9400 O   0  0  0  0  0  0  0  0  0  0  0  0
  157.6320  213.4690  153.4800 C   0  0  0  0  0  2  0  0  0  0  0  0
  158.2060  213.3050  151.7680 S   0  0  0  0  0  1  0  0  0  0  0  0
  1 13  1  1  0  0  0
  1 18  1  0  0  0  0
  2  6  1  6  0  0  0
  2  1  1  0  0  0  0
  3  2  1  0  0  0  0
  4  3  1  0  0  0  0
  4  5  1  0  0  0  0
  7  6  1  0  0  0  0
  8 11  1  6  0  0  0
  8  9  1  0  0  0  0
  8 12  1  0  0  0  0
  9 10  1  0  0  0  0
 12 10  1  0  0  0  0
 12  7  1  1  0  0  0
 14 13  1  0  0  0  0
 14 15  1  0  0  0  0
 16 15  1  0  0  0  0
 17 16  1  0  0  0  0
 18 21  1  0  0  0  0
 18 19  1  0  0  0  0
 19 20  1  0  0  0  0
 21 22  1  0  0  0  0
 22 23  1  0  0  0  0
 23 24  1  0  0  0  0
 24 25  1  0  0  0  0
 25 26  2  0  0  0  0
 25 27  1  0  0  0  0
 28 27  1  0  0  0  0
 28 29  2  0  0  0  0
 30 28  1  0  0  0  0
 31 30  1  0  0  0  0
 32 31  1  0  0  0  0
M  END
>  <MODEL>
4

>  <REMARK>
 VINA RESULT:      -5.4      2.400      4.448
  Name = 
  21 active torsions:
  status: ('A' for Active; 'I' for Inactive)
    1  A    between atoms: C_1  and  O_20
    2  A    between atoms: C_2  and  C_9
    3  A    between atoms: C_2  and  C_23
    4  A    between atoms: C_3  and  N_14
    5  A    between atoms: C_4  and  O_5
    6  A    between atoms: C_4  and  N_13
    7  A    between atoms: C_6  and  O_31
    8  A    between atoms: C_7  and  N_27
    9  A    between atoms: C_7  and  C_32
   10  A    between atoms: C_8  and  C_23
   11  A    between atoms: C_8  and  C_28
   12  A    between atoms: C_9  and  C_10
   13  A    between atoms: C_10  and  C_19
   14  A    between atoms: N_13  and  C_15
   15  A    between atoms: N_14  and  C_26
   16  A    between atoms: N_14  and  C_28
   17  A    between atoms: C_15  and  C_26
   18  A    between atoms: C_16  and  C_26
   19  A    between atoms: C_16  and  N_27
   20  A    between atoms: C_16  and  O_31
   21  A    between atoms: C_19  and  O_20
                            x       y       z     vdW  Elec       q    Type
                         _______ _______ _______ _____ _____    ______ ____

>  <TORSDO>
F 21

$$$$
=
 OpenBabel11062410563D

 32 32  0  0  1  0  0  0  0  0999 V2000
  161.0670  207.8480  152.1880 C   0  0  2  0  0  3  0  0  0  0  0  0
  161.5490  209.2860  152.4060 C   0  0  1  0  0  3  0  0  0  0  0  0
  162.4000  209.6910  151.3740 O   0  0  0  0  0  0  0  0  0  0  0  0
  161.7070  210.7040  150.7090 C   0  0  0  0  0  2  0  0  0  0  0  0
  162.2600  210.8550  149.3080 C   0  0  0  0  0  1  0  0  0  0  0  0
  160.4030  210.1820  152.4740 N   0  0  0  0  0  2  0  0  0  0  0  0
  160.5620  211.0090  153.6600 C   0  0  0  0  0  2  0  0  0  0  0  0
  158.6740  212.1810  152.5610 C   0  0  1  0  0  3  0  0  0  0  0  0
  157.8140  212.4160  153.7100 N   0  0  0  0  0  2  0  0  0  0  0  0
  158.9270  212.5620  154.5650 N   0  0  0  0  0  2  0  0  0  0  0  0
  158.5890  213.3620  151.6140 C   0  0  0  0  0  1  0  0  0  0  0  0
  159.8530  212.3420  153.4680 C   0  0  1  0  0  3  0  0  0  0  0  0
  160.8690  207.0490  153.4870 C   0  0  0  0  0  2  0  0  0  0  0  0
  161.2510  207.8190  154.6600 N   0  0  0  0  0  2  0  0  0  0  0  0
  160.3100  207.4760  155.7100 C   0  0  0  0  0  2  0  0  0  0  0  0
  160.4630  208.3580  156.7780 O   0  0  0  0  0  0  0  0  0  0  0  0
  161.8340  208.6100  156.8290 C   0  0  0  0  0  1  0  0  0  0  0  0
  161.8010  207.1590  151.1070 N   0  0  0  0  0  0  0  0  0  0  0  0
  161.1410  207.3630  149.8130 C   0  0  0  0  0  2  0  0  0  0  0  0
  162.1010  207.3100  148.6270 C   0  0  0  0  0  1  0  0  0  0  0  0
  162.0440  205.7390  151.3690 C   0  0  0  0  0  2  0  0  0  0  0  0
  160.8020  204.9130  151.0530 C   0  0  0  0  0  2  0  0  0  0  0  0
  161.0650  203.9340  149.9200 C   0  0  0  0  0  2  0  0  0  0  0  0
  160.8660  202.5040  150.3950 C   0  0  0  0  0  2  0  0  0  0  0  0
  160.3920  201.6430  149.2720 C   0  0  0  0  0  0  0  0  0  0  0  0
  159.2160  201.3230  149.1960 O   0  0  0  0  0  0  0  0  0  0  0  0
  161.3600  201.1700  148.2390 C   0  0  0  0  0  2  0  0  0  0  0  0
  161.0100  201.7340  146.8970 C   0  0  0  0  0  0  0  0  0  0  0  0
  160.6350  200.9520  145.9850 O   0  0  0  0  0  0  0  0  0  0  0  0
  161.0630  203.1050  146.6400 O   0  0  0  0  0  0  0  0  0  0  0  0
  161.5830  203.6310  145.4280 C   0  0  0  0  0  2  0  0  0  0  0  0
  162.4820  205.1680  145.7710 S   0  0  0  0  0  1  0  0  0  0  0  0
  1  2  1  0  0  0  0
  1 13  1  1  0  0  0
  2  3  1  6  0  0  0
  2  6  1  0  0  0  0
  4  3  1  0  0  0  0
  5  4  1  0  0  0  0
  6  7  1  0  0  0  0
  8 11  1  6  0  0  0
  8 12  1  0  0  0  0
  8  9  1  0  0  0  0
  9 10  1  0  0  0  0
 12  7  1  1  0  0  0
 12 10  1  0  0  0  0
 13 14  1  0  0  0  0
 14 15  1  0  0  0  0
 15 16  1  0  0  0  0
 16 17  1  0  0  0  0
 18 21  1  0  0  0  0
 18  1  1  0  0  0  0
 19 18  1  0  0  0  0
 20 19  1  0  0  0  0
 22 21  1  0  0  0  0
 23 24  1  0  0  0  0
 23 22  1  0  0  0  0
 25 24  1  0  0  0  0
 26 25  2  0  0  0  0
 27 25  1  0  0  0  0
 28 27  1  0  0  0  0
 29 28  2  0  0  0  0
 30 28  1  0  0  0  0
 31 32  1  0  0  0  0
 31 30  1  0  0  0  0
M  END
>  <MODEL>
5

>  <REMARK>
 VINA RESULT:      -5.4      3.371      8.785
  Name = 
  21 active torsions:
  status: ('A' for Active; 'I' for Inactive)
    1  A    between atoms: C_1  and  O_20
    2  A    between atoms: C_2  and  C_9
    3  A    between atoms: C_2  and  C_23
    4  A    between atoms: C_3  and  N_14
    5  A    between atoms: C_4  and  O_5
    6  A    between atoms: C_4  and  N_13
    7  A    between atoms: C_6  and  O_31
    8  A    between atoms: C_7  and  N_27
    9  A    between atoms: C_7  and  C_32
   10  A    between atoms: C_8  and  C_23
   11  A    between atoms: C_8  and  C_28
   12  A    between atoms: C_9  and  C_10
   13  A    between atoms: C_10  and  C_19
   14  A    between atoms: N_13  and  C_15
   15  A    between atoms: N_14  and  C_26
   16  A    between atoms: N_14  and  C_28
   17  A    between atoms: C_15  and  C_26
   18  A    between atoms: C_16  and  C_26
   19  A    between atoms: C_16  and  N_27
   20  A    between atoms: C_16  and  O_31
   21  A    between atoms: C_19  and  O_20
                            x       y       z     vdW  Elec       q    Type
                         _______ _______ _______ _____ _____    ______ ____

>  <TORSDO>
F 21

$$$$
=
 OpenBabel11062410563D

 32 32  0  0  1  0  0  0  0  0999 V2000
  161.6620  209.5290  152.2760 C   0  0  2  0  0  3  0  0  0  0  0  0
  161.3070  210.2690  153.5700 C   0  0  1  0  0  3  0  0  0  0  0  0
  162.4590  210.5830  154.2980 O   0  0  0  0  0  0  0  0  0  0  0  0
  162.0660  210.5320  155.6360 C   0  0  0  0  0  2  0  0  0  0  0  0
  163.2670  210.7870  156.5220 C   0  0  0  0  0  1  0  0  0  0  0  0
  160.5810  211.4900  153.2530 N   0  0  0  0  0  2  0  0  0  0  0  0
  159.1620  211.2080  153.4060 C   0  0  0  0  0  2  0  0  0  0  0  0
  157.5340  211.9630  155.1170 C   0  0  1  0  0  3  0  0  0  0  0  0
  158.4350  212.5910  156.0690 N   0  0  0  0  0  2  0  0  0  0  0  0
  159.3050  213.0040  155.0380 N   0  0  0  0  0  2  0  0  0  0  0  0
  156.2390  212.7490  155.0480 C   0  0  0  0  0  1  0  0  0  0  0  0
  158.4540  212.4060  154.0230 C   0  0  1  0  0  3  0  0  0  0  0  0
  161.4250  210.3510  150.9980 C   0  0  0  0  0  2  0  0  0  0  0  0
  162.5340  210.2350  150.0650 N   0  0  0  0  0  2  0  0  0  0  0  0
  162.0630  210.7450  148.7910 C   0  0  0  0  0  2  0  0  0  0  0  0
  162.0780  212.1380  148.8140 O   0  0  0  0  0  0  0  0  0  0  0  0
  162.9950  212.4960  147.8260 C   0  0  0  0  0  1  0  0  0  0  0  0
  161.1610  208.1400  152.2580 N   0  0  0  0  0  0  0  0  0  0  0  0
  160.5670  207.7800  153.5510 C   0  0  0  0  0  2  0  0  0  0  0  0
  161.2610  206.6020  154.2300 C   0  0  0  0  0  1  0  0  0  0  0  0
  162.1590  207.1560  151.8330 C   0  0  0  0  0  2  0  0  0  0  0  0
  161.6070  206.2740  150.7190 C   0  0  0  0  0  2  0  0  0  0  0  0
  160.7530  207.0780  149.7510 C   0  0  0  0  0  2  0  0  0  0  0  0
  160.5960  206.3330  148.4350 C   0  0  0  0  0  2  0  0  0  0  0  0
  161.8100  206.5140  147.5850 C   0  0  0  0  0  0  0  0  0  0  0  0
  162.6880  207.2910  147.9250 O   0  0  0  0  0  0  0  0  0  0  0  0
  161.9480  205.7410  146.3160 C   0  0  0  0  0  2  0  0  0  0  0  0
  161.7520  204.2790  146.5690 C   0  0  0  0  0  0  0  0  0  0  0  0
  161.5480  203.5110  145.5930 O   0  0  0  0  0  0  0  0  0  0  0  0
  161.8160  203.7420  147.8560 O   0  0  0  0  0  0  0  0  0  0  0  0
  161.0740  202.5940  148.2390 C   0  0  0  0  0  2  0  0  0  0  0  0
  160.7130  202.6700  150.0140 S   0  0  0  0  0  1  0  0  0  0  0  0
  1 13  1  6  0  0  0
  1  2  1  0  0  0  0
  2  6  1  6  0  0  0
  2  3  1  0  0  0  0
  3  4  1  0  0  0  0
  4  5  1  0  0  0  0
  6  7  1  0  0  0  0
  8 11  1  6  0  0  0
  8  9  1  0  0  0  0
 10  9  1  0  0  0  0
 12  7  1  1  0  0  0
 12 10  1  0  0  0  0
 12  8  1  0  0  0  0
 14 13  1  0  0  0  0
 15 16  1  0  0  0  0
 15 14  1  0  0  0  0
 17 16  1  0  0  0  0
 18  1  1  0  0  0  0
 18 19  1  0  0  0  0
 19 20  1  0  0  0  0
 21 18  1  0  0  0  0
 22 21  1  0  0  0  0
 23 22  1  0  0  0  0
 24 23  1  0  0  0  0
 25 26  2  0  0  0  0
 25 24  1  0  0  0  0
 27 28  1  0  0  0  0
 27 25  1  0  0  0  0
 28 30  1  0  0  0  0
 29 28  2  0  0  0  0
 30 31  1  0  0  0  0
 31 32  1  0  0  0  0
M  END
>  <MODEL>
6

>  <REMARK>
 VINA RESULT:      -5.2      3.381      8.823
  Name = 
  21 active torsions:
  status: ('A' for Active; 'I' for Inactive)
    1  A    between atoms: C_1  and  O_20
    2  A    between atoms: C_2  and  C_9
    3  A    between atoms: C_2  and  C_23
    4  A    between atoms: C_3  and  N_14
    5  A    between atoms: C_4  and  O_5
    6  A    between atoms: C_4  and  N_13
    7  A    between atoms: C_6  and  O_31
    8  A    between atoms: C_7  and  N_27
    9  A    between atoms: C_7  and  C_32
   10  A    between atoms: C_8  and  C_23
   11  A    between atoms: C_8  and  C_28
   12  A    between atoms: C_9  and  C_10
   13  A    between atoms: C_10  and  C_19
   14  A    between atoms: N_13  and  C_15
   15  A    between atoms: N_14  and  C_26
   16  A    between atoms: N_14  and  C_28
   17  A    between atoms: C_15  and  C_26
   18  A    between atoms: C_16  and  C_26
   19  A    between atoms: C_16  and  N_27
   20  A    between atoms: C_16  and  O_31
   21  A    between atoms: C_19  and  O_20
                            x       y       z     vdW  Elec       q    Type
                         _______ _______ _______ _____ _____    ______ ____

>  <TORSDO>
F 21

$$$$
=
 OpenBabel11062410563D

 32 32  0  0  1  0  0  0  0  0999 V2000
  161.3330  207.8960  152.9390 C   0  0  2  0  0  3  0  0  0  0  0  0
  161.0890  208.7930  154.1570 C   0  0  1  0  0  3  0  0  0  0  0  0
  161.2960  208.0880  155.3460 O   0  0  0  0  0  0  0  0  0  0  0  0
  160.0230  207.9220  155.8940 C   0  0  0  0  0  2  0  0  0  0  0  0
  160.1180  207.0550  157.1320 C   0  0  0  0  0  1  0  0  0  0  0  0
  161.9840  209.9400  154.1080 N   0  0  0  0  0  2  0  0  0  0  0  0
  161.3670  211.0110  154.8750 C   0  0  0  0  0  2  0  0  0  0  0  0
  159.1480  211.9490  155.4600 C   0  0  1  0  0  3  0  0  0  0  0  0
  159.1240  213.1130  154.5890 N   0  0  0  0  0  2  0  0  0  0  0  0
  159.8720  212.4400  153.6000 N   0  0  0  0  0  2  0  0  0  0  0  0
  157.7570  211.3550  155.5510 C   0  0  0  0  0  1  0  0  0  0  0  0
  159.9360  211.2340  154.4080 C   0  0  1  0  0  3  0  0  0  0  0  0
  161.9270  206.5190  153.2830 C   0  0  0  0  0  2  0  0  0  0  0  0
  160.9180  205.4720  153.2570 N   0  0  0  0  0  2  0  0  0  0  0  0
  161.2550  204.5950  152.1520 C   0  0  0  0  0  2  0  0  0  0  0  0
  160.7770  203.3120  152.4140 O   0  0  0  0  0  0  0  0  0  0  0  0
  161.6880  202.4630  151.7870 C   0  0  0  0  0  1  0  0  0  0  0  0
  161.9690  208.6160  151.8180 N   0  0  0  0  0  0  0  0  0  0  0  0
  161.1290  209.7330  151.3690 C   0  0  0  0  0  2  0  0  0  0  0  0
  161.8870  210.7670  150.5410 C   0  0  0  0  0  1  0  0  0  0  0  0
  162.3540  207.7510  150.7020 C   0  0  0  0  0  2  0  0  0  0  0  0
  161.1470  207.4290  149.8280 C   0  0  0  0  0  2  0  0  0  0  0  0
  161.4340  206.2600  148.8990 C   0  0  0  0  0  2  0  0  0  0  0  0
  162.1390  206.7390  147.6410 C   0  0  0  0  0  2  0  0  0  0  0  0
  161.6610  205.9730  146.4520 C   0  0  0  0  0  0  0  0  0  0  0  0
  160.6830  206.3530  145.8280 O   0  0  0  0  0  0  0  0  0  0  0  0
  162.3830  204.7370  146.0270 C   0  0  0  0  0  2  0  0  0  0  0  0
  161.5210  203.5310  146.2340 C   0  0  0  0  0  0  0  0  0  0  0  0
  161.0950  202.9050  145.2290 O   0  0  0  0  0  0  0  0  0  0  0  0
  161.1990  203.0690  147.5110 O   0  0  0  0  0  0  0  0  0  0  0  0
  161.0910  201.6860  147.8150 C   0  0  0  0  0  2  0  0  0  0  0  0
  159.7750  201.4350  149.0360 S   0  0  0  0  0  1  0  0  0  0  0  0
  1 13  1  1  0  0  0
  1  2  1  0  0  0  0
  2  6  1  6  0  0  0
  2  3  1  0  0  0  0
  3  4  1  0  0  0  0
  4  5  1  0  0  0  0
  6  7  1  0  0  0  0
  8 11  1  6  0  0  0
  9  8  1  0  0  0  0
 10 12  1  0  0  0  0
 10  9  1  0  0  0  0
 12  7  1  1  0  0  0
 12  8  1  0  0  0  0
 14 13  1  0  0  0  0
 15 16  1  0  0  0  0
 15 14  1  0  0  0  0
 17 16  1  0  0  0  0
 18  1  1  0  0  0  0
 19 18  1  0  0  0  0
 20 19  1  0  0  0  0
 21 18  1  0  0  0  0
 22 21  1  0  0  0  0
 23 22  1  0  0  0  0
 24 23  1  0  0  0  0
 25 24  1  0  0  0  0
 26 25  2  0  0  0  0
 27 28  1  0  0  0  0
 27 25  1  0  0  0  0
 28 30  1  0  0  0  0
 29 28  2  0  0  0  0
 30 31  1  0  0  0  0
 31 32  1  0  0  0  0
M  END
>  <MODEL>
7

>  <REMARK>
 VINA RESULT:      -5.2      3.391      9.344
  Name = 
  21 active torsions:
  status: ('A' for Active; 'I' for Inactive)
    1  A    between atoms: C_1  and  O_20
    2  A    between atoms: C_2  and  C_9
    3  A    between atoms: C_2  and  C_23
    4  A    between atoms: C_3  and  N_14
    5  A    between atoms: C_4  and  O_5
    6  A    between atoms: C_4  and  N_13
    7  A    between atoms: C_6  and  O_31
    8  A    between atoms: C_7  and  N_27
    9  A    between atoms: C_7  and  C_32
   10  A    between atoms: C_8  and  C_23
   11  A    between atoms: C_8  and  C_28
   12  A    between atoms: C_9  and  C_10
   13  A    between atoms: C_10  and  C_19
   14  A    between atoms: N_13  and  C_15
   15  A    between atoms: N_14  and  C_26
   16  A    between atoms: N_14  and  C_28
   17  A    between atoms: C_15  and  C_26
   18  A    between atoms: C_16  and  C_26
   19  A    between atoms: C_16  and  N_27
   20  A    between atoms: C_16  and  O_31
   21  A    between atoms: C_19  and  O_20
                            x       y       z     vdW  Elec       q    Type
                         _______ _______ _______ _____ _____    ______ ____

>  <TORSDO>
F 21

$$$$
=
 OpenBabel11062410563D

 32 32  0  0  1  0  0  0  0  0999 V2000
  160.8310  206.8170  149.2210 C   0  0  2  0  0  3  0  0  0  0  0  0
  161.0640  205.7320  150.2780 C   0  0  1  0  0  3  0  0  0  0  0  0
  160.7700  206.2110  151.5580 O   0  0  0  0  0  0  0  0  0  0  0  0
  161.4920  205.3900  152.4260 C   0  0  0  0  0  2  0  0  0  0  0  0
  161.2350  205.8200  153.8550 C   0  0  0  0  0  1  0  0  0  0  0  0
  160.2300  204.5760  149.9860 N   0  0  0  0  0  2  0  0  0  0  0  0
  161.1080  203.4240  149.8540 C   0  0  0  0  0  2  0  0  0  0  0  0
  161.4020  201.9020  147.9190 C   0  0  1  0  0  3  0  0  0  0  0  0
  161.4820  200.6250  148.6070 N   0  0  0  0  0  2  0  0  0  0  0  0
  160.5930  201.0610  149.6110 N   0  0  0  0  0  2  0  0  0  0  0  0
  160.6590  201.7270  146.6090 C   0  0  0  0  0  1  0  0  0  0  0  0
  160.4540  202.3630  148.9800 C   0  0  1  0  0  3  0  0  0  0  0  0
  161.0720  206.3470  147.7760 C   0  0  0  0  0  2  0  0  0  0  0  0
  162.3890  205.7540  147.6120 N   0  0  0  0  0  2  0  0  0  0  0  0
  162.4120  205.1460  146.2950 C   0  0  0  0  0  2  0  0  0  0  0  0
  161.5330  205.8260  145.4540 O   0  0  0  0  0  0  0  0  0  0  0  0
  161.1630  204.8820  144.4960 C   0  0  0  0  0  1  0  0  0  0  0  0
  161.4350  208.1130  149.5920 N   0  0  0  0  0  0  0  0  0  0  0  0
  161.9340  208.8170  148.4040 C   0  0  0  0  0  2  0  0  0  0  0  0
  161.9570  210.3350  148.5650 C   0  0  0  0  0  1  0  0  0  0  0  0
  162.4650  208.0110  150.6270 C   0  0  0  0  0  2  0  0  0  0  0  0
  162.3310  209.1460  151.6360 C   0  0  0  0  0  2  0  0  0  0  0  0
  160.8860  209.3270  152.0740 C   0  0  0  0  0  2  0  0  0  0  0  0
  160.8170  209.6760  153.5520 C   0  0  0  0  0  2  0  0  0  0  0  0
  160.1680  211.0060  153.7430 C   0  0  0  0  0  0  0  0  0  0  0  0
  160.6300  211.8070  154.5410 O   0  0  0  0  0  0  0  0  0  0  0  0
  158.9490  211.3570  152.9560 C   0  0  0  0  0  2  0  0  0  0  0  0
  159.1240  212.6820  152.2830 C   0  0  0  0  0  0  0  0  0  0  0  0
  158.5780  213.6990  152.7840 O   0  0  0  0  0  0  0  0  0  0  0  0
  159.8990  212.8230  151.1300 O   0  0  0  0  0  0  0  0  0  0  0  0
  159.5490  213.7160  150.0830 C   0  0  0  0  0  2  0  0  0  0  0  0
  161.0530  214.4440  149.3800 S   0  0  0  0  0  1  0  0  0  0  0  0
  1 13  1  6  0  0  0
  1 18  1  0  0  0  0
  1  2  1  0  0  0  0
  2  6  1  6  0  0  0
  2  3  1  0  0  0  0
  3  4  1  0  0  0  0
  4  5  1  0  0  0  0
  7  6  1  0  0  0  0
  8 11  1  6  0  0  0
  8  9  1  0  0  0  0
  8 12  1  0  0  0  0
  9 10  1  0  0  0  0
 12 10  1  0  0  0  0
 12  7  1  1  0  0  0
 14 13  1  0  0  0  0
 15 14  1  0  0  0  0
 16 15  1  0  0  0  0
 17 16  1  0  0  0  0
 18 21  1  0  0  0  0
 19 20  1  0  0  0  0
 19 18  1  0  0  0  0
 21 22  1  0  0  0  0
 22 23  1  0  0  0  0
 23 24  1  0  0  0  0
 24 25  1  0  0  0  0
 25 26  2  0  0  0  0
 27 25  1  0  0  0  0
 28 29  2  0  0  0  0
 28 27  1  0  0  0  0
 30 28  1  0  0  0  0
 31 30  1  0  0  0  0
 32 31  1  0  0  0  0
M  END
>  <MODEL>
8

>  <REMARK>
 VINA RESULT:      -5.0      2.131      4.261
  Name = 
  21 active torsions:
  status: ('A' for Active; 'I' for Inactive)
    1  A    between atoms: C_1  and  O_20
    2  A    between atoms: C_2  and  C_9
    3  A    between atoms: C_2  and  C_23
    4  A    between atoms: C_3  and  N_14
    5  A    between atoms: C_4  and  O_5
    6  A    between atoms: C_4  and  N_13
    7  A    between atoms: C_6  and  O_31
    8  A    between atoms: C_7  and  N_27
    9  A    between atoms: C_7  and  C_32
   10  A    between atoms: C_8  and  C_23
   11  A    between atoms: C_8  and  C_28
   12  A    between atoms: C_9  and  C_10
   13  A    between atoms: C_10  and  C_19
   14  A    between atoms: N_13  and  C_15
   15  A    between atoms: N_14  and  C_26
   16  A    between atoms: N_14  and  C_28
   17  A    between atoms: C_15  and  C_26
   18  A    between atoms: C_16  and  C_26
   19  A    between atoms: C_16  and  N_27
   20  A    between atoms: C_16  and  O_31
   21  A    between atoms: C_19  and  O_20
                            x       y       z     vdW  Elec       q    Type
                         _______ _______ _______ _____ _____    ______ ____

>  <TORSDO>
F 21

$$$$
=
 OpenBabel11062410563D

 32 32  0  0  1  0  0  0  0  0999 V2000
  161.5890  206.0380  151.2950 C   0  0  2  0  0  3  0  0  0  0  0  0
  161.3400  204.7160  150.5610 C   0  0  1  0  0  3  0  0  0  0  0  0
  160.4780  203.8940  151.2920 O   0  0  0  0  0  0  0  0  0  0  0  0
  161.2090  202.7310  151.5380 C   0  0  0  0  0  2  0  0  0  0  0  0
  160.8430  201.6800  150.5120 C   0  0  0  0  0  1  0  0  0  0  0  0
  160.7660  204.9830  149.2510 N   0  0  0  0  0  2  0  0  0  0  0  0
  161.5490  204.2480  148.2700 C   0  0  0  0  0  2  0  0  0  0  0  0
  161.5470  205.1440  145.9590 C   0  0  1  0  0  3  0  0  0  0  0  0
  161.9530  203.9580  145.2230 N   0  0  0  0  0  2  0  0  0  0  0  0
  161.2890  203.1130  146.1370 N   0  0  0  0  0  2  0  0  0  0  0  0
  160.5340  205.9250  145.1440 C   0  0  0  0  0  1  0  0  0  0  0  0
  160.8380  204.2480  146.9240 C   0  0  1  0  0  3  0  0  0  0  0  0
  160.8640  206.1500  152.6480 C   0  0  0  0  0  2  0  0  0  0  0  0
  161.8000  206.2570  153.7560 N   0  0  0  0  0  2  0  0  0  0  0  0
  161.3140  207.3240  154.6110 C   0  0  0  0  0  2  0  0  0  0  0  0
  160.1080  206.9390  155.1940 O   0  0  0  0  0  0  0  0  0  0  0  0
  159.7620  208.0060  156.0210 C   0  0  0  0  0  1  0  0  0  0  0  0
  161.4880  207.2120  150.4050 N   0  0  0  0  0  0  0  0  0  0  0  0
  162.7350  207.4110  149.6580 C   0  0  0  0  0  2  0  0  0  0  0  0
  162.5140  207.6950  148.1740 C   0  0  0  0  0  1  0  0  0  0  0  0
  161.0690  208.4380  151.0880 C   0  0  0  0  0  2  0  0  0  0  0  0
  162.1550  209.5030  150.9970 C   0  0  0  0  0  2  0  0  0  0  0  0
  161.6040  210.8090  150.4470 C   0  0  0  0  0  2  0  0  0  0  0  0
  162.2020  211.1080  149.0830 C   0  0  0  0  0  2  0  0  0  0  0  0
  161.7780  212.4600  148.6130 C   0  0  0  0  0  0  0  0  0  0  0  0
  161.0710  213.1630  149.3180 O   0  0  0  0  0  0  0  0  0  0  0  0
  162.2210  212.9520  147.2750 C   0  0  0  0  0  2  0  0  0  0  0  0
  161.0680  212.9810  146.3210 C   0  0  0  0  0  0  0  0  0  0  0  0
  160.1440  212.1380  146.4540 O   0  0  0  0  0  0  0  0  0  0  0  0
  160.9790  213.9350  145.3060 O   0  0  0  0  0  0  0  0  0  0  0  0
  162.1220  214.4310  144.6260 C   0  0  0  0  0  2  0  0  0  0  0  0
  162.6940  213.2010  143.4230 S   0  0  0  0  0  1  0  0  0  0  0  0
  1 13  1  1  0  0  0
  2  6  1  6  0  0  0
  2  3  1  0  0  0  0
  2  1  1  0  0  0  0
  3  4  1  0  0  0  0
  5  4  1  0  0  0  0
  7  6  1  0  0  0  0
  8 11  1  6  0  0  0
  8 12  1  0  0  0  0
  9  8  1  0  0  0  0
  9 10  1  0  0  0  0
 10 12  1  0  0  0  0
 12  7  1  1  0  0  0
 13 14  1  0  0  0  0
 14 15  1  0  0  0  0
 15 16  1  0  0  0  0
 16 17  1  0  0  0  0
 18 21  1  0  0  0  0
 18  1  1  0  0  0  0
 19 18  1  0  0  0  0
 20 19  1  0  0  0  0
 22 21  1  0  0  0  0
 23 22  1  0  0  0  0
 24 23  1  0  0  0  0
 25 24  1  0  0  0  0
 25 26  2  0  0  0  0
 27 25  1  0  0  0  0
 28 29  2  0  0  0  0
 28 27  1  0  0  0  0
 30 28  1  0  0  0  0
 31 30  1  0  0  0  0
 32 31  1  0  0  0  0
M  END
>  <MODEL>
9

>  <REMARK>
 VINA RESULT:      -5.0      3.084      6.233
  Name = 
  21 active torsions:
  status: ('A' for Active; 'I' for Inactive)
    1  A    between atoms: C_1  and  O_20
    2  A    between atoms: C_2  and  C_9
    3  A    between atoms: C_2  and  C_23
    4  A    between atoms: C_3  and  N_14
    5  A    between atoms: C_4  and  O_5
    6  A    between atoms: C_4  and  N_13
    7  A    between atoms: C_6  and  O_31
    8  A    between atoms: C_7  and  N_27
    9  A    between atoms: C_7  and  C_32
   10  A    between atoms: C_8  and  C_23
   11  A    between atoms: C_8  and  C_28
   12  A    between atoms: C_9  and  C_10
   13  A    between atoms: C_10  and  C_19
   14  A    between atoms: N_13  and  C_15
   15  A    between atoms: N_14  and  C_26
   16  A    between atoms: N_14  and  C_28
   17  A    between atoms: C_15  and  C_26
   18  A    between atoms: C_16  and  C_26
   19  A    between atoms: C_16  and  N_27
   20  A    between atoms: C_16  and  O_31
   21  A    between atoms: C_19  and  O_20
                            x       y       z     vdW  Elec       q    Type
                         _______ _______ _______ _____ _____    ______ ____

>  <TORSDO>
F 21

$$$$
