=
 OpenBabel11062408593D

 55 58  0  0  1  0  0  0  0  0999 V2000
  161.0630  209.5620  157.2400 C   0  0  0  0  0  2  0  0  0  0  0  0
  160.3060  209.3390  155.3070 C   0  0  2  0  0  0  0  0  0  0  0  0
  159.5820  207.8310  157.1440 O   0  0  0  0  0  1  0  0  0  0  0  0
  161.6650  209.7800  155.8810 C   0  0  0  0  0  2  0  0  0  0  0  0
  159.7040  209.1750  156.7200 C   0  0  1  0  0  3  0  0  0  0  0  0
  160.0380  208.1670  154.2580 C   0  0  0  0  0  2  0  0  0  0  0  0
  161.0170  208.1770  153.0220 C   0  0  0  0  0  2  0  0  0  0  0  0
  161.8620  206.8740  153.1600 C   0  0  0  0  0  2  0  0  0  0  0  0
  161.5790  205.5640  151.3550 O   0  0  0  0  0  0  0  0  0  0  0  0
  161.5790  206.5420  150.3350 C   0  0  1  0  0  3  0  0  0  0  0  0
  162.5630  206.2270  152.0610 N   0  0  0  0  0  0  0  0  0  0  0  0
  162.7030  207.2410  151.0440 C   0  0  0  0  0  2  0  0  0  0  0  0
  162.0160  205.9630  149.1060 O   0  0  0  0  0  0  0  0  0  0  0  0
  161.2090  206.2200  147.9620 C   0  0  0  0  0  0  0  0  0  0  0  0
  160.0880  206.6950  148.1430 O   0  0  0  0  0  0  0  0  0  0  0  0
  161.6550  205.9130  146.5200 C   0  0  2  0  0  3  0  0  0  0  0  0
  160.9540  206.1820  144.2540 O   0  0  0  0  0  1  0  0  0  0  0  0
  160.5080  205.7650  145.5070 C   0  0  0  0  0  2  0  0  0  0  0  0
  163.5170  204.6690  145.5460 O   0  0  0  0  0  1  0  0  0  0  0  0
  162.5670  204.6660  146.5800 C   0  0  2  0  0  3  0  0  0  0  0  0
  161.8800  203.2870  146.6520 C   0  0  1  0  0  3  0  0  0  0  0  0
  161.0070  203.1260  147.7560 O   0  0  0  0  0  0  0  0  0  0  0  0
  160.9530  201.7690  148.1200 C   0  0  0  0  0  2  0  0  0  0  0  0
  160.3240  201.5740  149.4400 C   0  0  0  0  0  0  0  0  0  0  0  0
  159.1320  200.8600  149.5690 O   0  0  0  0  0  0  0  0  0  0  0  0
  160.8960  202.0090  150.4730 O   0  0  0  0  0  1  0  0  0  0  0  0
  161.4110  202.7300  145.2360 C   0  0  0  0  0  2  0  0  0  0  0  0
  158.6790  202.5640  144.7250 C   0  0  0  0  0  1  0  0  0  0  0  0
  160.0510  201.5040  145.2780 S   0  0  0  0  0  0  0  0  0  0  0  0
  159.5990  210.5880  154.8010 C   0  0  0  0  0  2  0  0  0  0  0  0
  160.6120  211.6270  154.2340 C   0  0  0  0  0  2  0  0  0  0  0  0
  160.0660  213.1180  153.7490 C   0  0  2  0  0  3  0  0  0  0  0  0
  158.4980  213.3370  156.1060 C   0  0  0  0  0  0  0  0  0  0  0  0
  159.3350  212.8560  156.9850 O   0  0  0  0  0  0  0  0  0  0  0  0
  158.9360  213.4070  154.6940 N   0  0  0  0  0  2  0  0  0  0  0  0
  156.9970  213.7460  156.4160 C   0  0  0  0  0  2  0  0  0  0  0  0
  155.4080  211.2700  154.6710 O   0  0  0  0  0  0  0  0  0  0  0  0
  156.4190  210.6270  155.2610 O   0  0  0  0  0  0  0  0  0  0  0  0
  156.7030  211.3070  156.4570 C   0  0  0  0  0  2  0  0  0  0  0  0
  155.9910  212.6470  156.4350 C   0  0  0  0  0  3  0  0  0  0  0  0
  155.5520  212.6170  155.0460 C   0  0  0  0  0  2  0  0  0  0  0  0
  159.6040  213.3300  152.1790 C   0  0  1  0  0  3  0  0  0  0  0  0
  160.7470  211.1890  151.5360 N   0  0  0  0  0  2  0  0  0  0  0  0
  161.8240  210.8910  149.3630 C   0  0  0  0  0  2  0  0  0  0  0  0
  160.7660  213.0820  149.8220 C   0  0  0  0  0  0  0  0  0  0  0  0
  161.6100  212.3120  148.8260 C   0  0  0  0  0  2  0  0  0  0  0  0
  162.0180  210.9090  150.8710 C   0  0  0  0  0  2  0  0  0  0  0  0
  160.2940  212.5460  151.1160 N   0  0  0  0  0  0  0  0  0  0  0  0
  160.8550  214.3660  149.6210 O   0  0  0  0  0  0  0  0  0  0  0  0
  157.6270  212.1830  152.3700 O   0  0  0  0  0  0  0  0  0  0  0  0
  157.2960  214.4000  151.3840 N   0  0  0  0  0  2  0  0  0  0  0  0
  158.1120  213.3010  151.9820 C   0  0  0  0  0  0  0  0  0  0  0  0
  155.9050  214.0350  151.2660 C   0  0  1  0  0  3  0  0  0  0  0  0
  155.1620  214.4460  152.3630 O   0  0  0  0  0  1  0  0  0  0  0  0
  155.3140  214.3360  149.9440 C   0  0  0  0  0  1  0  0  0  0  0  0
  2  6  1  6  0  0  0
  2  4  1  0  0  0  0
  2  5  1  0  0  0  0
  4  1  1  0  0  0  0
  5  3  1  1  0  0  0
  5  1  1  0  0  0  0
  7  8  1  0  0  0  0
  7  6  1  0  0  0  0
  9 11  1  0  0  0  0
 10 13  1  6  0  0  0
 10 12  1  0  0  0  0
 10  9  1  0  0  0  0
 11  8  1  0  0  0  0
 12 11  1  0  0  0  0
 14 15  2  0  0  0  0
 14 13  1  0  0  0  0
 16 18  1  6  0  0  0
 16 20  1  0  0  0  0
 16 14  1  0  0  0  0
 17 18  1  0  0  0  0
 20 19  1  6  0  0  0
 20 21  1  0  0  0  0
 21 27  1  6  0  0  0
 21 22  1  0  0  0  0
 22 23  1  0  0  0  0
 23 24  1  0  0  0  0
 24 25  2  0  0  0  0
 24 26  1  0  0  0  0
 27 29  1  0  0  0  0
 28 29  1  0  0  0  0
 30  2  1  0  0  0  0
 31 30  1  0  0  0  0
 32 31  1  6  0  0  0
 32 35  1  0  0  0  0
 33 36  1  0  0  0  0
 33 34  2  0  0  0  0
 35 33  1  0  0  0  0
 36 40  1  0  0  0  0
 37 41  1  0  0  0  0
 37 38  1  0  0  0  0
 38 39  1  0  0  0  0
 40 39  1  0  0  0  0
 41 40  1  0  0  0  0
 42 52  1  1  0  0  0
 42 32  1  0  0  0  0
 44 47  1  0  0  0  0
 45 48  1  0  0  0  0
 46 44  1  0  0  0  0
 46 45  1  0  0  0  0
 47 43  1  0  0  0  0
 48 43  1  0  0  0  0
 48 42  1  0  0  0  0
 49 45  2  0  0  0  0
 51 52  1  0  0  0  0
 52 50  2  0  0  0  0
 53 55  1  6  0  0  0
 53 51  1  0  0  0  0
 53 54  1  0  0  0  0
M  END
>  <MODEL>
1

>  <REMARK>
 VINA RESULT:      -3.3      0.000      0.000
  Name = 
  25 active torsions:
  status: ('A' for Active; 'I' for Inactive)
    1  A    between atoms: C_1  and  C_29
    2  A    between atoms: C_2  and  C_28
    3  A    between atoms: C_2  and  C_31
    4  A    between atoms: C_3  and  S_25
    5  A    between atoms: C_3  and  C_38
    6  A    between atoms: C_4  and  N_40
    7  A    between atoms: C_6  and  C_14
    8  A    between atoms: C_6  and  C_20
    9  A    between atoms: C_6  and  C_53
   10  A    between atoms: O_7  and  C_20
   11  A    between atoms: O_7  and  C_22
   12  A    between atoms: C_13  and  C_48
   13  A    between atoms: C_14  and  C_38
   14  A    between atoms: O_21  and  C_29
   15  A    between atoms: O_21  and  C_38
   16  A    between atoms: N_26  and  C_49
   17  A    between atoms: C_27  and  C_31
   18  A    between atoms: C_27  and  C_54
   19  A    between atoms: C_28  and  C_33
   20  A    between atoms: C_33  and  C_49
   21  A    between atoms: C_33  and  N_52
   22  A    between atoms: N_35  and  C_51
   23  A    between atoms: C_39  and  C_48
   24  A    between atoms: C_45  and  C_49
   25  A    between atoms: C_51  and  C_54
                            x       y       z     vdW  Elec       q    Type
                         _______ _______ _______ _____ _____    ______ ____

>  <TORSDO>
F 25

$$$$
=
 OpenBabel11062408593D

 55 58  0  0  1  0  0  0  0  0999 V2000
  161.1210  207.5820  148.3670 C   0  0  0  0  0  2  0  0  0  0  0  0
  161.4830  207.9160  150.3960 C   0  0  2  0  0  0  0  0  0  0  0  0
  163.3580  207.7610  148.7730 O   0  0  0  0  0  1  0  0  0  0  0  0
  160.4220  207.1190  149.6140 C   0  0  0  0  0  2  0  0  0  0  0  0
  162.1450  208.4150  149.0920 C   0  0  1  0  0  3  0  0  0  0  0  0
  162.4480  207.3680  151.5420 C   0  0  0  0  0  2  0  0  0  0  0  0
  161.7080  206.5460  152.6640 C   0  0  0  0  0  2  0  0  0  0  0  0
  161.9550  205.0480  152.3030 C   0  0  0  0  0  2  0  0  0  0  0  0
  161.7390  203.4830  150.7040 O   0  0  0  0  0  0  0  0  0  0  0  0
  161.7010  202.3160  151.5000 C   0  0  1  0  0  3  0  0  0  0  0  0
  160.9930  204.1960  151.6220 N   0  0  0  0  0  0  0  0  0  0  0  0
  160.8240  203.0450  152.4760 C   0  0  0  0  0  2  0  0  0  0  0  0
  160.9840  201.2870  150.8200 O   0  0  0  0  0  0  0  0  0  0  0  0
  161.0760  201.2810  149.4010 C   0  0  0  0  0  0  0  0  0  0  0  0
  162.0380  200.7100  148.8870 O   0  0  0  0  0  0  0  0  0  0  0  0
  160.0510  201.9700  148.4780 C   0  0  2  0  0  3  0  0  0  0  0  0
  158.5580  200.3950  149.4730 O   0  0  0  0  0  1  0  0  0  0  0  0
  158.5870  201.5760  148.7320 C   0  0  0  0  0  2  0  0  0  0  0  0
  161.1010  200.4470  146.8840 O   0  0  0  0  0  1  0  0  0  0  0  0
  160.5000  201.7080  147.0220 C   0  0  2  0  0  3  0  0  0  0  0  0
  161.3780  202.7800  146.3460 C   0  0  1  0  0  3  0  0  0  0  0  0
  161.0890  202.9940  144.9760 O   0  0  0  0  0  0  0  0  0  0  0  0
  160.0160  203.8960  144.8560 C   0  0  0  0  0  2  0  0  0  0  0  0
  160.4730  205.2650  144.5530 C   0  0  0  0  0  0  0  0  0  0  0  0
  161.4600  205.4960  143.5940 O   0  0  0  0  0  0  0  0  0  0  0  0
  159.9310  206.2440  145.1270 O   0  0  0  0  0  1  0  0  0  0  0  0
  161.6540  204.0530  147.2620 C   0  0  0  0  0  2  0  0  0  0  0  0
  163.9200  203.9230  145.6480 C   0  0  0  0  0  1  0  0  0  0  0  0
  163.0860  205.0860  146.7730 S   0  0  0  0  0  0  0  0  0  0  0  0
  160.8110  209.1780  150.9160 C   0  0  0  0  0  2  0  0  0  0  0  0
  161.0770  209.3790  152.4390 C   0  0  0  0  0  2  0  0  0  0  0  0
  160.9590  210.9000  153.0930 C   0  0  2  0  0  3  0  0  0  0  0  0
  162.2910  210.6220  155.5850 C   0  0  0  0  0  0  0  0  0  0  0  0
  163.5240  210.8290  155.2110 O   0  0  0  0  0  0  0  0  0  0  0  0
  161.2320  210.6810  154.5530 N   0  0  0  0  0  2  0  0  0  0  0  0
  161.8490  210.1940  157.0470 C   0  0  0  0  0  2  0  0  0  0  0  0
  159.6240  207.6440  156.5420 O   0  0  0  0  0  0  0  0  0  0  0  0
  160.4780  207.5110  155.5230 O   0  0  0  0  0  0  0  0  0  0  0  0
  161.7240  207.9940  155.9590 C   0  0  0  0  0  2  0  0  0  0  0  0
  161.5220  208.7550  157.2560 C   0  0  0  0  0  3  0  0  0  0  0  0
  160.0650  208.7740  157.2540 C   0  0  0  0  0  2  0  0  0  0  0  0
  159.5720  211.7650  152.8650 C   0  0  1  0  0  3  0  0  0  0  0  0
  159.7030  213.1720  154.9400 N   0  0  0  0  0  2  0  0  0  0  0  0
  157.8450  213.3390  156.5170 C   0  0  0  0  0  2  0  0  0  0  0  0
  157.5340  211.8840  154.5380 C   0  0  0  0  0  0  0  0  0  0  0  0
  156.9050  212.3340  155.8410 C   0  0  0  0  0  2  0  0  0  0  0  0
  159.2970  212.9320  156.3220 C   0  0  0  0  0  2  0  0  0  0  0  0
  158.8650  212.3140  154.0560 N   0  0  0  0  0  0  0  0  0  0  0  0
  156.9870  210.7850  154.1050 O   0  0  0  0  0  0  0  0  0  0  0  0
  159.1200  213.8950  152.1430 O   0  0  0  0  0  0  0  0  0  0  0  0
  160.3280  212.6030  150.4490 N   0  0  0  0  0  2  0  0  0  0  0  0
  159.6850  212.8060  151.7820 C   0  0  0  0  0  0  0  0  0  0  0  0
  160.2060  213.7700  149.6100 C   0  0  1  0  0  3  0  0  0  0  0  0
  161.4370  214.2080  149.1430 O   0  0  0  0  0  1  0  0  0  0  0  0
  159.1350  213.6710  148.5950 C   0  0  0  0  0  1  0  0  0  0  0  0
  1  5  1  0  0  0  0
  1  4  1  0  0  0  0
  2 30  1  1  0  0  0
  2  6  1  0  0  0  0
  4  2  1  0  0  0  0
  5  3  1  1  0  0  0
  5  2  1  0  0  0  0
  6  7  1  0  0  0  0
  8  7  1  0  0  0  0
  9 10  1  0  0  0  0
  9 11  1  0  0  0  0
 10 13  1  6  0  0  0
 10 12  1  0  0  0  0
 11  8  1  0  0  0  0
 11 12  1  0  0  0  0
 14 13  1  0  0  0  0
 15 14  2  0  0  0  0
 16 18  1  6  0  0  0
 16 14  1  0  0  0  0
 18 17  1  0  0  0  0
 20 19  1  1  0  0  0
 20 16  1  0  0  0  0
 21 20  1  0  0  0  0
 21 27  1  1  0  0  0
 22 21  1  0  0  0  0
 23 22  1  0  0  0  0
 24 23  1  0  0  0  0
 24 26  1  0  0  0  0
 25 24  2  0  0  0  0
 28 29  1  0  0  0  0
 29 27  1  0  0  0  0
 30 31  1  0  0  0  0
 32 31  1  6  0  0  0
 32 35  1  0  0  0  0
 33 36  1  0  0  0  0
 34 33  2  0  0  0  0
 35 33  1  0  0  0  0
 36 40  1  0  0  0  0
 37 41  1  0  0  0  0
 38 39  1  0  0  0  0
 38 37  1  0  0  0  0
 39 40  1  0  0  0  0
 41 40  1  0  0  0  0
 42 52  1  6  0  0  0
 42 32  1  0  0  0  0
 42 48  1  0  0  0  0
 43 47  1  0  0  0  0
 45 46  1  0  0  0  0
 46 44  1  0  0  0  0
 47 44  1  0  0  0  0
 48 45  1  0  0  0  0
 48 43  1  0  0  0  0
 49 45  2  0  0  0  0
 51 52  1  0  0  0  0
 52 50  2  0  0  0  0
 53 55  1  6  0  0  0
 53 51  1  0  0  0  0
 54 53  1  0  0  0  0
M  END
>  <MODEL>
2

>  <REMARK>
 VINA RESULT:      -3.1      2.062      5.370
  Name = 
  25 active torsions:
  status: ('A' for Active; 'I' for Inactive)
    1  A    between atoms: C_1  and  C_29
    2  A    between atoms: C_2  and  C_28
    3  A    between atoms: C_2  and  C_31
    4  A    between atoms: C_3  and  S_25
    5  A    between atoms: C_3  and  C_38
    6  A    between atoms: C_4  and  N_40
    7  A    between atoms: C_6  and  C_14
    8  A    between atoms: C_6  and  C_20
    9  A    between atoms: C_6  and  C_53
   10  A    between atoms: O_7  and  C_20
   11  A    between atoms: O_7  and  C_22
   12  A    between atoms: C_13  and  C_48
   13  A    between atoms: C_14  and  C_38
   14  A    between atoms: O_21  and  C_29
   15  A    between atoms: O_21  and  C_38
   16  A    between atoms: N_26  and  C_49
   17  A    between atoms: C_27  and  C_31
   18  A    between atoms: C_27  and  C_54
   19  A    between atoms: C_28  and  C_33
   20  A    between atoms: C_33  and  C_49
   21  A    between atoms: C_33  and  N_52
   22  A    between atoms: N_35  and  C_51
   23  A    between atoms: C_39  and  C_48
   24  A    between atoms: C_45  and  C_49
   25  A    between atoms: C_51  and  C_54
                            x       y       z     vdW  Elec       q    Type
                         _______ _______ _______ _____ _____    ______ ____

>  <TORSDO>
F 25

$$$$
=
 OpenBabel11062408593D

 55 58  0  0  1  0  0  0  0  0999 V2000
  161.4850  203.5830  146.2840 C   0  0  0  0  0  2  0  0  0  0  0  0
  162.1010  205.4570  145.6010 C   0  0  2  0  0  0  0  0  0  0  0  0
  159.6920  204.8540  145.6760 O   0  0  0  0  0  1  0  0  0  0  0  0
  162.7010  204.0410  145.5290 C   0  0  0  0  0  2  0  0  0  0  0  0
  160.8900  204.9600  146.4210 C   0  0  1  0  0  3  0  0  0  0  0  0
  161.8030  206.4400  144.3800 C   0  0  0  0  0  2  0  0  0  0  0  0
  161.3210  205.7060  143.0710 C   0  0  0  0  0  2  0  0  0  0  0  0
  162.2710  206.2180  141.9440 C   0  0  0  0  0  2  0  0  0  0  0  0
  161.1900  207.7870  140.7520 O   0  0  0  0  0  0  0  0  0  0  0  0
  162.2890  208.5020  140.2240 C   0  0  1  0  0  3  0  0  0  0  0  0
  161.8380  206.5780  140.6020 N   0  0  0  0  0  0  0  0  0  0  0  0
  162.9840  207.1940  139.9790 C   0  0  0  0  0  2  0  0  0  0  0  0
  161.9160  209.1340  139.0000 O   0  0  0  0  0  0  0  0  0  0  0  0
  162.1320  210.5370  138.9210 C   0  0  0  0  0  0  0  0  0  0  0  0
  162.7570  211.0780  139.8330 O   0  0  0  0  0  0  0  0  0  0  0  0
  161.6050  211.4150  137.7690 C   0  0  2  0  0  3  0  0  0  0  0  0
  163.6110  212.5630  137.1710 O   0  0  0  0  0  1  0  0  0  0  0  0
  162.3080  212.7740  137.6190 C   0  0  0  0  0  2  0  0  0  0  0  0
  159.5580  212.6380  137.2430 O   0  0  0  0  0  1  0  0  0  0  0  0
  160.0760  211.5470  137.9580 C   0  0  2  0  0  3  0  0  0  0  0  0
  159.5390  211.5690  139.4040 C   0  0  1  0  0  3  0  0  0  0  0  0
  159.6790  212.8160  140.0600 O   0  0  0  0  0  0  0  0  0  0  0  0
  158.8440  212.8500  141.1910 C   0  0  0  0  0  2  0  0  0  0  0  0
  159.6020  212.6890  142.4450 C   0  0  0  0  0  0  0  0  0  0  0  0
  160.9530  212.3360  142.4280 O   0  0  0  0  0  0  0  0  0  0  0  0
  159.0420  212.9250  143.5470 O   0  0  0  0  0  1  0  0  0  0  0  0
  158.1740  210.7710  139.5920 C   0  0  0  0  0  2  0  0  0  0  0  0
  155.9850  209.2550  138.7760 C   0  0  0  0  0  1  0  0  0  0  0  0
  157.4440  210.0770  138.0620 S   0  0  0  0  0  0  0  0  0  0  0  0
  162.8930  206.2350  146.6420 C   0  0  0  0  0  2  0  0  0  0  0  0
  161.9530  207.0030  147.6190 C   0  0  0  0  0  2  0  0  0  0  0  0
  162.3340  207.0700  149.2330 C   0  0  2  0  0  3  0  0  0  0  0  0
  160.9010  204.7780  150.1010 C   0  0  0  0  0  0  0  0  0  0  0  0
  159.6770  205.2140  149.9840 O   0  0  0  0  0  0  0  0  0  0  0  0
  162.0040  205.6940  149.7340 N   0  0  0  0  0  2  0  0  0  0  0  0
  161.3060  203.3750  150.7200 C   0  0  0  0  0  2  0  0  0  0  0  0
  160.3420  201.1410  148.3150 O   0  0  0  0  0  0  0  0  0  0  0  0
  161.3050  200.4880  148.9700 O   0  0  0  0  0  0  0  0  0  0  0  0
  161.2960  200.9540  150.2960 C   0  0  0  0  0  2  0  0  0  0  0  0
  160.4480  202.2100  150.3630 C   0  0  0  0  0  3  0  0  0  0  0  0
  160.2610  202.4030  148.9310 C   0  0  0  0  0  2  0  0  0  0  0  0
  161.6360  208.2340  150.1720 C   0  0  1  0  0  3  0  0  0  0  0  0
  162.2200  206.7690  152.1250 N   0  0  0  0  0  2  0  0  0  0  0  0
  161.5190  207.3000  154.4050 C   0  0  0  0  0  2  0  0  0  0  0  0
  160.8280  208.8560  152.6070 C   0  0  0  0  0  0  0  0  0  0  0  0
  160.6810  208.5440  154.0820 C   0  0  0  0  0  2  0  0  0  0  0  0
  161.4450  206.2920  153.2680 C   0  0  0  0  0  2  0  0  0  0  0  0
  161.6070  208.0420  151.6490 N   0  0  0  0  0  0  0  0  0  0  0  0
  159.8810  209.6490  152.1970 O   0  0  0  0  0  0  0  0  0  0  0  0
  162.7270  210.1550  150.7900 O   0  0  0  0  0  0  0  0  0  0  0  0
  161.7700  210.3410  148.5440 N   0  0  0  0  0  2  0  0  0  0  0  0
  162.0750  209.6320  149.8220 C   0  0  0  0  0  0  0  0  0  0  0  0
  162.2700  211.6940  148.5470 C   0  0  1  0  0  3  0  0  0  0  0  0
  163.3880  211.8400  147.7400 O   0  0  0  0  0  1  0  0  0  0  0  0
  161.2200  212.7230  148.3780 C   0  0  0  0  0  1  0  0  0  0  0  0
  1  5  1  0  0  0  0
  2  6  1  6  0  0  0
  2  5  1  0  0  0  0
  2 30  1  0  0  0  0
  4  2  1  0  0  0  0
  4  1  1  0  0  0  0
  5  3  1  6  0  0  0
  7  6  1  0  0  0  0
  8  7  1  0  0  0  0
 10 13  1  6  0  0  0
 10  9  1  0  0  0  0
 11  9  1  0  0  0  0
 11  8  1  0  0  0  0
 12 10  1  0  0  0  0
 12 11  1  0  0  0  0
 14 13  1  0  0  0  0
 14 15  2  0  0  0  0
 16 18  1  1  0  0  0
 16 20  1  0  0  0  0
 16 14  1  0  0  0  0
 17 18  1  0  0  0  0
 20 19  1  1  0  0  0
 20 21  1  0  0  0  0
 21 27  1  6  0  0  0
 21 22  1  0  0  0  0
 22 23  1  0  0  0  0
 23 24  1  0  0  0  0
 24 26  1  0  0  0  0
 25 24  2  0  0  0  0
 29 28  1  0  0  0  0
 29 27  1  0  0  0  0
 30 31  1  0  0  0  0
 32 31  1  6  0  0  0
 32 35  1  0  0  0  0
 32 42  1  0  0  0  0
 33 36  1  0  0  0  0
 34 33  2  0  0  0  0
 35 33  1  0  0  0  0
 37 41  1  0  0  0  0
 37 38  1  0  0  0  0
 38 39  1  0  0  0  0
 39 40  1  0  0  0  0
 40 36  1  0  0  0  0
 41 40  1  0  0  0  0
 42 52  1  1  0  0  0
 42 48  1  0  0  0  0
 43 47  1  0  0  0  0
 45 46  1  0  0  0  0
 46 44  1  0  0  0  0
 47 44  1  0  0  0  0
 48 43  1  0  0  0  0
 48 45  1  0  0  0  0
 49 45  2  0  0  0  0
 51 53  1  0  0  0  0
 51 52  1  0  0  0  0
 52 50  2  0  0  0  0
 53 55  1  6  0  0  0
 54 53  1  0  0  0  0
M  END
>  <MODEL>
3

>  <REMARK>
 VINA RESULT:      -2.9      5.427     10.250
  Name = 
  25 active torsions:
  status: ('A' for Active; 'I' for Inactive)
    1  A    between atoms: C_1  and  C_29
    2  A    between atoms: C_2  and  C_28
    3  A    between atoms: C_2  and  C_31
    4  A    between atoms: C_3  and  S_25
    5  A    between atoms: C_3  and  C_38
    6  A    between atoms: C_4  and  N_40
    7  A    between atoms: C_6  and  C_14
    8  A    between atoms: C_6  and  C_20
    9  A    between atoms: C_6  and  C_53
   10  A    between atoms: O_7  and  C_20
   11  A    between atoms: O_7  and  C_22
   12  A    between atoms: C_13  and  C_48
   13  A    between atoms: C_14  and  C_38
   14  A    between atoms: O_21  and  C_29
   15  A    between atoms: O_21  and  C_38
   16  A    between atoms: N_26  and  C_49
   17  A    between atoms: C_27  and  C_31
   18  A    between atoms: C_27  and  C_54
   19  A    between atoms: C_28  and  C_33
   20  A    between atoms: C_33  and  C_49
   21  A    between atoms: C_33  and  N_52
   22  A    between atoms: N_35  and  C_51
   23  A    between atoms: C_39  and  C_48
   24  A    between atoms: C_45  and  C_49
   25  A    between atoms: C_51  and  C_54
                            x       y       z     vdW  Elec       q    Type
                         _______ _______ _______ _____ _____    ______ ____

>  <TORSDO>
F 25

$$$$
=
 OpenBabel11062408593D

 55 58  0  0  1  0  0  0  0  0999 V2000
  160.8820  214.0240  149.8270 C   0  0  0  0  0  2  0  0  0  0  0  0
  161.2890  212.2460  148.8100 C   0  0  2  0  0  0  0  0  0  0  0  0
  161.7650  214.4510  147.7690 O   0  0  0  0  0  1  0  0  0  0  0  0
  160.2030  212.6830  149.8110 C   0  0  0  0  0  2  0  0  0  0  0  0
  161.9900  213.6210  148.8910 C   0  0  1  0  0  3  0  0  0  0  0  0
  161.0670  211.6240  147.3580 C   0  0  0  0  0  2  0  0  0  0  0  0
  159.5530  211.3860  146.9890 C   0  0  0  0  0  2  0  0  0  0  0  0
  159.2690  212.3420  145.7900 C   0  0  0  0  0  2  0  0  0  0  0  0
  159.9300  212.1680  143.6480 O   0  0  0  0  0  0  0  0  0  0  0  0
  159.3890  213.3640  143.1220 C   0  0  1  0  0  3  0  0  0  0  0  0
  160.2730  212.7850  144.8350 N   0  0  0  0  0  0  0  0  0  0  0  0
  159.8230  214.0750  144.3710 C   0  0  0  0  0  2  0  0  0  0  0  0
  160.1490  213.7850  141.9900 O   0  0  0  0  0  0  0  0  0  0  0  0
  159.4360  213.9350  140.7680 C   0  0  0  0  0  0  0  0  0  0  0  0
  158.2930  214.3880  140.8200 O   0  0  0  0  0  0  0  0  0  0  0  0
  160.0100  213.5390  139.3940 C   0  0  2  0  0  3  0  0  0  0  0  0
  159.2390  213.5600  137.1350 O   0  0  0  0  0  1  0  0  0  0  0  0
  159.5160  214.3950  138.2170 C   0  0  0  0  0  2  0  0  0  0  0  0
  159.7910  211.3320  140.4150 O   0  0  0  0  0  1  0  0  0  0  0  0
  159.7290  212.0310  139.2000 C   0  0  2  0  0  3  0  0  0  0  0  0
  160.5530  211.2870  138.1290 C   0  0  1  0  0  3  0  0  0  0  0  0
  161.6700  210.5800  138.6370 O   0  0  0  0  0  0  0  0  0  0  0  0
  162.8180  210.9190  137.9000 C   0  0  0  0  0  2  0  0  0  0  0  0
  163.4790  212.1270  138.4290 C   0  0  0  0  0  0  0  0  0  0  0  0
  164.8020  212.0860  138.8730 O   0  0  0  0  0  1  0  0  0  0  0  0
  162.8630  213.2240  138.4310 O   0  0  0  0  0  0  0  0  0  0  0  0
  159.6640  210.5830  137.0110 C   0  0  0  0  0  2  0  0  0  0  0  0
  157.1590  211.1170  138.1050 C   0  0  0  0  0  1  0  0  0  0  0  0
  158.1840  209.6920  137.6210 S   0  0  0  0  0  0  0  0  0  0  0  0
  162.2620  211.3470  149.5580 C   0  0  0  0  0  2  0  0  0  0  0  0
  161.5480  210.5560  150.6950 C   0  0  0  0  0  2  0  0  0  0  0  0
  162.2140  209.1370  151.2440 C   0  0  2  0  0  3  0  0  0  0  0  0
  161.8510  207.8530  148.7380 C   0  0  0  0  0  0  0  0  0  0  0  0
  162.3760  208.7470  147.9430 O   0  0  0  0  0  0  0  0  0  0  0  0
  161.8380  208.1360  150.1900 N   0  0  0  0  0  2  0  0  0  0  0  0
  161.1180  206.5330  148.2540 C   0  0  0  0  0  2  0  0  0  0  0  0
  161.3810  203.3990  146.9080 O   0  0  0  0  0  0  0  0  0  0  0  0
  161.8770  204.1860  145.9500 O   0  0  0  0  0  0  0  0  0  0  0  0
  162.4380  205.3080  146.5820 C   0  0  0  0  0  2  0  0  0  0  0  0
  161.9740  205.3340  148.0260 C   0  0  0  0  0  3  0  0  0  0  0  0
  160.9820  204.2700  147.9370 C   0  0  0  0  0  2  0  0  0  0  0  0
  161.8180  208.5980  152.7530 C   0  0  1  0  0  3  0  0  0  0  0  0
  159.5740  209.6880  153.0350 N   0  0  0  0  0  2  0  0  0  0  0  0
  159.0770  211.1760  154.9080 C   0  0  0  0  0  2  0  0  0  0  0  0
  161.3550  210.2120  154.7890 C   0  0  0  0  0  0  0  0  0  0  0  0
  160.4740  211.1880  155.5420 C   0  0  0  0  0  2  0  0  0  0  0  0
  159.1750  211.0460  153.3960 C   0  0  0  0  0  2  0  0  0  0  0  0
  160.9290  209.4370  153.6040 N   0  0  0  0  0  0  0  0  0  0  0  0
  162.6160  210.4380  155.0250 O   0  0  0  0  0  0  0  0  0  0  0  0
  160.9900  206.8270  153.9520 O   0  0  0  0  0  0  0  0  0  0  0  0
  161.4300  206.2150  151.6230 N   0  0  0  0  0  2  0  0  0  0  0  0
  161.3830  207.1570  152.7810 C   0  0  0  0  0  0  0  0  0  0  0  0
  161.0120  204.8850  151.9930 C   0  0  1  0  0  3  0  0  0  0  0  0
  159.7160  204.6110  151.5820 O   0  0  0  0  0  1  0  0  0  0  0  0
  162.0130  203.8360  151.6960 C   0  0  0  0  0  1  0  0  0  0  0  0
  2  6  1  6  0  0  0
  2  5  1  0  0  0  0
  2 30  1  0  0  0  0
  2  4  1  0  0  0  0
  4  1  1  0  0  0  0
  5  3  1  6  0  0  0
  5  1  1  0  0  0  0
  7  6  1  0  0  0  0
  8  7  1  0  0  0  0
  9 11  1  0  0  0  0
 10 13  1  6  0  0  0
 10  9  1  0  0  0  0
 10 12  1  0  0  0  0
 11  8  1  0  0  0  0
 12 11  1  0  0  0  0
 14 15  2  0  0  0  0
 14 13  1  0  0  0  0
 16 18  1  6  0  0  0
 16 14  1  0  0  0  0
 17 18  1  0  0  0  0
 20 16  1  0  0  0  0
 20 19  1  1  0  0  0
 21 27  1  1  0  0  0
 21 22  1  0  0  0  0
 21 20  1  0  0  0  0
 23 24  1  0  0  0  0
 23 22  1  0  0  0  0
 24 26  2  0  0  0  0
 24 25  1  0  0  0  0
 27 29  1  0  0  0  0
 29 28  1  0  0  0  0
 30 31  1  0  0  0  0
 32 31  1  6  0  0  0
 32 42  1  0  0  0  0
 33 35  1  0  0  0  0
 34 33  2  0  0  0  0
 35 32  1  0  0  0  0
 36 33  1  0  0  0  0
 37 41  1  0  0  0  0
 38 39  1  0  0  0  0
 38 37  1  0  0  0  0
 39 40  1  0  0  0  0
 40 36  1  0  0  0  0
 41 40  1  0  0  0  0
 42 52  1  6  0  0  0
 42 48  1  0  0  0  0
 43 47  1  0  0  0  0
 43 48  1  0  0  0  0
 44 46  1  0  0  0  0
 45 49  2  0  0  0  0
 45 46  1  0  0  0  0
 47 44  1  0  0  0  0
 48 45  1  0  0  0  0
 51 53  1  0  0  0  0
 51 52  1  0  0  0  0
 52 50  2  0  0  0  0
 53 55  1  6  0  0  0
 54 53  1  0  0  0  0
M  END
>  <MODEL>
4

>  <REMARK>
 VINA RESULT:      -2.7      5.643     10.090
  Name = 
  25 active torsions:
  status: ('A' for Active; 'I' for Inactive)
    1  A    between atoms: C_1  and  C_29
    2  A    between atoms: C_2  and  C_28
    3  A    between atoms: C_2  and  C_31
    4  A    between atoms: C_3  and  S_25
    5  A    between atoms: C_3  and  C_38
    6  A    between atoms: C_4  and  N_40
    7  A    between atoms: C_6  and  C_14
    8  A    between atoms: C_6  and  C_20
    9  A    between atoms: C_6  and  C_53
   10  A    between atoms: O_7  and  C_20
   11  A    between atoms: O_7  and  C_22
   12  A    between atoms: C_13  and  C_48
   13  A    between atoms: C_14  and  C_38
   14  A    between atoms: O_21  and  C_29
   15  A    between atoms: O_21  and  C_38
   16  A    between atoms: N_26  and  C_49
   17  A    between atoms: C_27  and  C_31
   18  A    between atoms: C_27  and  C_54
   19  A    between atoms: C_28  and  C_33
   20  A    between atoms: C_33  and  C_49
   21  A    between atoms: C_33  and  N_52
   22  A    between atoms: N_35  and  C_51
   23  A    between atoms: C_39  and  C_48
   24  A    between atoms: C_45  and  C_49
   25  A    between atoms: C_51  and  C_54
                            x       y       z     vdW  Elec       q    Type
                         _______ _______ _______ _____ _____    ______ ____

>  <TORSDO>
F 25

$$$$
=
 OpenBabel11062408593D

 55 58  0  0  1  0  0  0  0  0999 V2000
  161.2240  207.3880  149.3730 C   0  0  0  0  0  2  0  0  0  0  0  0
  161.4160  208.2770  151.2530 C   0  0  2  0  0  0  0  0  0  0  0  0
  163.1540  206.7250  150.3910 O   0  0  0  0  0  1  0  0  0  0  0  0
  160.2190  207.7840  150.4180 C   0  0  0  0  0  2  0  0  0  0  0  0
  162.4160  207.9050  150.1360 C   0  0  1  0  0  3  0  0  0  0  0  0
  161.7920  207.8480  152.7430 C   0  0  0  0  0  2  0  0  0  0  0  0
  160.8320  206.7590  153.3580 C   0  0  0  0  0  2  0  0  0  0  0  0
  161.2320  205.4220  152.6630 C   0  0  0  0  0  2  0  0  0  0  0  0
  160.6090  204.4280  150.7440 O   0  0  0  0  0  0  0  0  0  0  0  0
  161.2500  203.1770  150.8910 C   0  0  1  0  0  3  0  0  0  0  0  0
  160.2860  204.4790  152.0860 N   0  0  0  0  0  0  0  0  0  0  0  0
  160.8430  203.1710  152.3370 C   0  0  0  0  0  2  0  0  0  0  0  0
  160.5500  202.1810  150.1470 O   0  0  0  0  0  0  0  0  0  0  0  0
  161.1820  201.7160  148.9610 C   0  0  0  0  0  0  0  0  0  0  0  0
  161.7370  200.6190  148.9960 O   0  0  0  0  0  0  0  0  0  0  0  0
  161.2250  202.5220  147.6470 C   0  0  2  0  0  3  0  0  0  0  0  0
  162.6920  204.2950  147.0120 O   0  0  0  0  0  1  0  0  0  0  0  0
  161.5870  204.0060  147.8130 C   0  0  0  0  0  2  0  0  0  0  0  0
  159.0720  201.3700  147.6110 O   0  0  0  0  0  1  0  0  0  0  0  0
  159.8680  202.3100  146.9370 C   0  0  2  0  0  3  0  0  0  0  0  0
  159.8990  201.9810  145.4310 C   0  0  1  0  0  3  0  0  0  0  0  0
  160.6000  202.9250  144.6400 O   0  0  0  0  0  0  0  0  0  0  0  0
  159.9050  204.1480  144.6400 C   0  0  0  0  0  2  0  0  0  0  0  0
  160.8190  205.3050  144.6480 C   0  0  0  0  0  0  0  0  0  0  0  0
  160.5770  206.4060  145.4710 O   0  0  0  0  0  1  0  0  0  0  0  0
  161.8620  205.2800  143.9440 O   0  0  0  0  0  0  0  0  0  0  0  0
  160.1120  200.4340  145.1170 C   0  0  0  0  0  2  0  0  0  0  0  0
  161.5300  198.0370  145.1000 C   0  0  0  0  0  1  0  0  0  0  0  0
  161.5390  199.6450  145.9530 S   0  0  0  0  0  0  0  0  0  0  0  0
  161.4190  209.7970  151.1920 C   0  0  0  0  0  2  0  0  0  0  0  0
  160.3690  210.4100  152.1660 C   0  0  0  0  0  2  0  0  0  0  0  0
  160.6330  211.9190  152.8060 C   0  0  2  0  0  3  0  0  0  0  0  0
  161.5600  211.0680  155.3500 C   0  0  0  0  0  0  0  0  0  0  0  0
  162.6860  210.5020  155.0080 O   0  0  0  0  0  0  0  0  0  0  0  0
  160.7300  211.6680  154.2830 N   0  0  0  0  0  2  0  0  0  0  0  0
  160.9540  211.0590  156.8160 C   0  0  0  0  0  2  0  0  0  0  0  0
  159.6450  208.0280  155.9190 O   0  0  0  0  0  0  0  0  0  0  0  0
  160.8920  207.7250  156.2890 O   0  0  0  0  0  0  0  0  0  0  0  0
  161.2770  208.6640  157.2610 C   0  0  0  0  0  2  0  0  0  0  0  0
  160.2780  209.8050  157.2560 C   0  0  0  0  0  3  0  0  0  0  0  0
  159.5440  209.4230  156.0560 C   0  0  0  0  0  2  0  0  0  0  0  0
  159.5600  213.1280  152.4720 C   0  0  1  0  0  3  0  0  0  0  0  0
  157.7320  213.4750  150.7860 N   0  0  0  0  0  2  0  0  0  0  0  0
  158.1910  213.6860  148.3950 C   0  0  0  0  0  2  0  0  0  0  0  0
  160.1240  213.3270  149.9010 C   0  0  0  0  0  0  0  0  0  0  0  0
  159.7030  213.4360  148.4490 C   0  0  0  0  0  2  0  0  0  0  0  0
  157.4750  212.8870  149.4740 C   0  0  0  0  0  2  0  0  0  0  0  0
  159.1970  213.3920  151.0510 N   0  0  0  0  0  0  0  0  0  0  0  0
  161.2910  212.7610  150.0120 O   0  0  0  0  0  0  0  0  0  0  0  0
  158.1220  214.2490  153.8630 O   0  0  0  0  0  0  0  0  0  0  0  0
  157.4850  211.8990  153.6070 N   0  0  0  0  0  2  0  0  0  0  0  0
  158.3320  213.1000  153.3430 C   0  0  0  0  0  0  0  0  0  0  0  0
  156.4250  212.1830  154.5420 C   0  0  1  0  0  3  0  0  0  0  0  0
  155.3500  212.8200  153.9370 O   0  0  0  0  0  1  0  0  0  0  0  0
  156.0800  211.0470  155.4250 C   0  0  0  0  0  1  0  0  0  0  0  0
  1  5  1  0  0  0  0
  1  4  1  0  0  0  0
  2 30  1  1  0  0  0
  2  6  1  0  0  0  0
  4  2  1  0  0  0  0
  5  3  1  1  0  0  0
  5  2  1  0  0  0  0
  6  7  1  0  0  0  0
  8  7  1  0  0  0  0
  9 10  1  0  0  0  0
  9 11  1  0  0  0  0
 10 13  1  6  0  0  0
 10 12  1  0  0  0  0
 11 12  1  0  0  0  0
 11  8  1  0  0  0  0
 14 15  2  0  0  0  0
 14 13  1  0  0  0  0
 16 18  1  1  0  0  0
 16 14  1  0  0  0  0
 17 18  1  0  0  0  0
 20 19  1  1  0  0  0
 20 16  1  0  0  0  0
 21 27  1  1  0  0  0
 21 20  1  0  0  0  0
 22 21  1  0  0  0  0
 23 22  1  0  0  0  0
 23 24  1  0  0  0  0
 24 25  1  0  0  0  0
 26 24  2  0  0  0  0
 27 29  1  0  0  0  0
 28 29  1  0  0  0  0
 30 31  1  0  0  0  0
 32 31  1  6  0  0  0
 32 35  1  0  0  0  0
 33 36  1  0  0  0  0
 34 33  2  0  0  0  0
 35 33  1  0  0  0  0
 36 40  1  0  0  0  0
 37 41  1  0  0  0  0
 37 38  1  0  0  0  0
 38 39  1  0  0  0  0
 40 39  1  0  0  0  0
 41 40  1  0  0  0  0
 42 32  1  0  0  0  0
 42 52  1  1  0  0  0
 43 48  1  0  0  0  0
 44 46  1  0  0  0  0
 44 47  1  0  0  0  0
 45 49  2  0  0  0  0
 45 48  1  0  0  0  0
 46 45  1  0  0  0  0
 47 43  1  0  0  0  0
 48 42  1  0  0  0  0
 51 53  1  0  0  0  0
 52 51  1  0  0  0  0
 52 50  2  0  0  0  0
 53 55  1  6  0  0  0
 54 53  1  0  0  0  0
M  END
>  <MODEL>
5

>  <REMARK>
 VINA RESULT:      -2.5      1.958      4.386
  Name = 
  25 active torsions:
  status: ('A' for Active; 'I' for Inactive)
    1  A    between atoms: C_1  and  C_29
    2  A    between atoms: C_2  and  C_28
    3  A    between atoms: C_2  and  C_31
    4  A    between atoms: C_3  and  S_25
    5  A    between atoms: C_3  and  C_38
    6  A    between atoms: C_4  and  N_40
    7  A    between atoms: C_6  and  C_14
    8  A    between atoms: C_6  and  C_20
    9  A    between atoms: C_6  and  C_53
   10  A    between atoms: O_7  and  C_20
   11  A    between atoms: O_7  and  C_22
   12  A    between atoms: C_13  and  C_48
   13  A    between atoms: C_14  and  C_38
   14  A    between atoms: O_21  and  C_29
   15  A    between atoms: O_21  and  C_38
   16  A    between atoms: N_26  and  C_49
   17  A    between atoms: C_27  and  C_31
   18  A    between atoms: C_27  and  C_54
   19  A    between atoms: C_28  and  C_33
   20  A    between atoms: C_33  and  C_49
   21  A    between atoms: C_33  and  N_52
   22  A    between atoms: N_35  and  C_51
   23  A    between atoms: C_39  and  C_48
   24  A    between atoms: C_45  and  C_49
   25  A    between atoms: C_51  and  C_54
                            x       y       z     vdW  Elec       q    Type
                         _______ _______ _______ _____ _____    ______ ____

>  <TORSDO>
F 25

$$$$
=
 OpenBabel11062408593D

 55 58  0  0  1  0  0  0  0  0999 V2000
  161.0740  202.8400  145.8720 C   0  0  0  0  0  2  0  0  0  0  0  0
  161.8760  204.7680  145.8630 C   0  0  2  0  0  0  0  0  0  0  0  0
  159.6830  204.2930  144.7970 O   0  0  0  0  0  1  0  0  0  0  0  0
  162.4850  203.3550  145.8010 C   0  0  0  0  0  2  0  0  0  0  0  0
  160.4440  204.2030  145.9860 C   0  0  1  0  0  3  0  0  0  0  0  0
  162.1050  205.9610  144.8290 C   0  0  0  0  0  2  0  0  0  0  0  0
  161.2810  205.8170  143.4930 C   0  0  0  0  0  2  0  0  0  0  0  0
  162.2760  206.2060  142.3560 C   0  0  0  0  0  2  0  0  0  0  0  0
  161.2840  207.7240  141.0270 O   0  0  0  0  0  0  0  0  0  0  0  0
  162.4230  208.3560  140.4770 C   0  0  1  0  0  3  0  0  0  0  0  0
  161.8870  206.4830  140.9810 N   0  0  0  0  0  0  0  0  0  0  0  0
  163.0710  207.0080  140.3440 C   0  0  0  0  0  2  0  0  0  0  0  0
  162.1030  208.9100  139.2010 O   0  0  0  0  0  0  0  0  0  0  0  0
  162.3610  210.2990  139.0310 C   0  0  0  0  0  0  0  0  0  0  0  0
  162.8180  210.9220  139.9890 O   0  0  0  0  0  0  0  0  0  0  0  0
  162.0760  211.0630  137.7240 C   0  0  2  0  0  3  0  0  0  0  0  0
  162.7020  213.3160  138.2040 O   0  0  0  0  0  1  0  0  0  0  0  0
  163.0500  212.2140  137.4240 C   0  0  0  0  0  2  0  0  0  0  0  0
  160.4210  212.7590  137.1370 O   0  0  0  0  0  1  0  0  0  0  0  0
  160.6010  211.5230  137.7760 C   0  0  2  0  0  3  0  0  0  0  0  0
  159.9130  211.5460  139.1570 C   0  0  1  0  0  3  0  0  0  0  0  0
  159.8820  212.8200  139.7740 O   0  0  0  0  0  0  0  0  0  0  0  0
  159.2290  212.7270  141.0160 C   0  0  0  0  0  2  0  0  0  0  0  0
  160.1680  212.4340  142.1150 C   0  0  0  0  0  0  0  0  0  0  0  0
  161.3870  213.1050  142.2160 O   0  0  0  0  0  0  0  0  0  0  0  0
  159.8450  211.6060  143.0070 O   0  0  0  0  0  1  0  0  0  0  0  0
  158.6040  210.6420  139.2350 C   0  0  0  0  0  2  0  0  0  0  0  0
  158.9010  208.5900  137.3760 C   0  0  0  0  0  1  0  0  0  0  0  0
  157.9170  210.1010  137.6250 S   0  0  0  0  0  0  0  0  0  0  0  0
  162.1270  205.3100  147.2630 C   0  0  0  0  0  2  0  0  0  0  0  0
  162.1570  206.8680  147.2740 C   0  0  0  0  0  2  0  0  0  0  0  0
  161.5450  207.6860  148.5820 C   0  0  2  0  0  3  0  0  0  0  0  0
  161.9200  210.4780  148.2280 C   0  0  0  0  0  0  0  0  0  0  0  0
  160.6920  210.8460  147.9850 O   0  0  0  0  0  0  0  0  0  0  0  0
  162.1790  209.0430  148.4820 N   0  0  0  0  0  2  0  0  0  0  0  0
  163.1820  211.4360  148.1570 C   0  0  0  0  0  2  0  0  0  0  0  0
  161.8710  213.9990  146.3080 O   0  0  0  0  0  0  0  0  0  0  0  0
  160.8660  213.6630  147.1220 O   0  0  0  0  0  0  0  0  0  0  0  0
  161.4370  213.1600  148.3030 C   0  0  0  0  0  2  0  0  0  0  0  0
  162.9110  212.8980  148.0560 C   0  0  0  0  0  3  0  0  0  0  0  0
  162.9120  213.1050  146.6130 C   0  0  0  0  0  2  0  0  0  0  0  0
  161.7380  207.0430  150.0900 C   0  0  1  0  0  3  0  0  0  0  0  0
  161.3700  209.3330  151.0520 N   0  0  0  0  0  2  0  0  0  0  0  0
  160.8350  209.6820  153.4110 C   0  0  0  0  0  2  0  0  0  0  0  0
  161.1830  207.3510  152.6520 C   0  0  0  0  0  0  0  0  0  0  0  0
  160.9440  208.2230  153.8690 C   0  0  0  0  0  2  0  0  0  0  0  0
  161.8200  209.9690  152.2880 C   0  0  0  0  0  2  0  0  0  0  0  0
  161.3430  207.8590  151.2730 N   0  0  0  0  0  0  0  0  0  0  0  0
  161.6460  206.1830  152.9940 O   0  0  0  0  0  0  0  0  0  0  0  0
  160.0000  205.5680  149.8340 O   0  0  0  0  0  0  0  0  0  0  0  0
  161.9930  204.4710  150.7400 N   0  0  0  0  0  2  0  0  0  0  0  0
  161.2200  205.6350  150.2140 C   0  0  0  0  0  0  0  0  0  0  0  0
  161.1910  203.2740  150.7990 C   0  0  1  0  0  3  0  0  0  0  0  0
  160.3830  203.2400  151.9260 O   0  0  0  0  0  1  0  0  0  0  0  0
  160.5210  202.9350  149.5230 C   0  0  0  0  0  1  0  0  0  0  0  0
  1  5  1  0  0  0  0
  2  6  1  6  0  0  0
  2  5  1  0  0  0  0
  2 30  1  0  0  0  0
  4  2  1  0  0  0  0
  4  1  1  0  0  0  0
  5  3  1  6  0  0  0
  7  6  1  0  0  0  0
  8  7  1  0  0  0  0
 10 13  1  6  0  0  0
 10  9  1  0  0  0  0
 11  9  1  0  0  0  0
 11  8  1  0  0  0  0
 12 10  1  0  0  0  0
 12 11  1  0  0  0  0
 14 13  1  0  0  0  0
 14 15  2  0  0  0  0
 16 18  1  1  0  0  0
 16 20  1  0  0  0  0
 16 14  1  0  0  0  0
 18 17  1  0  0  0  0
 20 19  1  1  0  0  0
 20 21  1  0  0  0  0
 21 27  1  6  0  0  0
 21 22  1  0  0  0  0
 22 23  1  0  0  0  0
 23 24  1  0  0  0  0
 24 25  2  0  0  0  0
 24 26  1  0  0  0  0
 28 29  1  0  0  0  0
 29 27  1  0  0  0  0
 30 31  1  0  0  0  0
 32 31  1  6  0  0  0
 32 42  1  0  0  0  0
 33 35  1  0  0  0  0
 34 33  2  0  0  0  0
 35 32  1  0  0  0  0
 36 33  1  0  0  0  0
 37 41  1  0  0  0  0
 37 38  1  0  0  0  0
 38 39  1  0  0  0  0
 40 36  1  0  0  0  0
 40 39  1  0  0  0  0
 41 40  1  0  0  0  0
 42 52  1  6  0  0  0
 42 48  1  0  0  0  0
 43 48  1  0  0  0  0
 43 47  1  0  0  0  0
 44 46  1  0  0  0  0
 45 49  2  0  0  0  0
 45 46  1  0  0  0  0
 47 44  1  0  0  0  0
 48 45  1  0  0  0  0
 50 52  2  0  0  0  0
 51 53  1  0  0  0  0
 52 51  1  0  0  0  0
 53 55  1  6  0  0  0
 53 54  1  0  0  0  0
M  END
>  <MODEL>
6

>  <REMARK>
 VINA RESULT:      -2.3      5.385     10.257
  Name = 
  25 active torsions:
  status: ('A' for Active; 'I' for Inactive)
    1  A    between atoms: C_1  and  C_29
    2  A    between atoms: C_2  and  C_28
    3  A    between atoms: C_2  and  C_31
    4  A    between atoms: C_3  and  S_25
    5  A    between atoms: C_3  and  C_38
    6  A    between atoms: C_4  and  N_40
    7  A    between atoms: C_6  and  C_14
    8  A    between atoms: C_6  and  C_20
    9  A    between atoms: C_6  and  C_53
   10  A    between atoms: O_7  and  C_20
   11  A    between atoms: O_7  and  C_22
   12  A    between atoms: C_13  and  C_48
   13  A    between atoms: C_14  and  C_38
   14  A    between atoms: O_21  and  C_29
   15  A    between atoms: O_21  and  C_38
   16  A    between atoms: N_26  and  C_49
   17  A    between atoms: C_27  and  C_31
   18  A    between atoms: C_27  and  C_54
   19  A    between atoms: C_28  and  C_33
   20  A    between atoms: C_33  and  C_49
   21  A    between atoms: C_33  and  N_52
   22  A    between atoms: N_35  and  C_51
   23  A    between atoms: C_39  and  C_48
   24  A    between atoms: C_45  and  C_49
   25  A    between atoms: C_51  and  C_54
                            x       y       z     vdW  Elec       q    Type
                         _______ _______ _______ _____ _____    ______ ____

>  <TORSDO>
F 25

$$$$
=
 OpenBabel11062408593D

 55 58  0  0  1  0  0  0  0  0999 V2000
  161.8620  207.3140  147.7110 C   0  0  0  0  0  2  0  0  0  0  0  0
  161.6560  208.9940  148.9330 C   0  0  2  0  0  0  0  0  0  0  0  0
  163.7440  207.6480  148.9550 O   0  0  0  0  0  1  0  0  0  0  0  0
  160.6820  207.9180  148.4180 C   0  0  0  0  0  2  0  0  0  0  0  0
  162.8360  208.3750  148.1510 C   0  0  1  0  0  3  0  0  0  0  0  0
  161.9220  209.4050  150.4520 C   0  0  0  0  0  2  0  0  0  0  0  0
  162.6150  208.2780  151.3080 C   0  0  0  0  0  2  0  0  0  0  0  0
  161.5410  207.8370  152.3500 C   0  0  0  0  0  2  0  0  0  0  0  0
  160.8220  206.2550  150.9240 O   0  0  0  0  0  0  0  0  0  0  0  0
  161.7570  205.2300  151.1960 C   0  0  1  0  0  3  0  0  0  0  0  0
  160.7550  206.6170  152.2550 N   0  0  0  0  0  0  0  0  0  0  0  0
  161.6430  205.5530  152.6580 C   0  0  0  0  0  2  0  0  0  0  0  0
  161.1860  203.9580  150.8950 O   0  0  0  0  0  0  0  0  0  0  0  0
  161.0200  203.6470  149.5170 C   0  0  0  0  0  0  0  0  0  0  0  0
  161.3560  204.4950  148.6900 O   0  0  0  0  0  0  0  0  0  0  0  0
  160.4240  202.3200  149.0090 C   0  0  2  0  0  3  0  0  0  0  0  0
  161.2790  200.3140  149.9810 O   0  0  0  0  0  1  0  0  0  0  0  0
  160.2420  201.2400  150.0870 C   0  0  0  0  0  2  0  0  0  0  0  0
  162.6210  202.3200  147.9420 O   0  0  0  0  0  1  0  0  0  0  0  0
  161.3050  201.8470  147.8280 C   0  0  2  0  0  3  0  0  0  0  0  0
  160.7790  202.1090  146.4020 C   0  0  1  0  0  3  0  0  0  0  0  0
  161.3990  203.1980  145.7410 O   0  0  0  0  0  0  0  0  0  0  0  0
  160.5090  203.7470  144.8010 C   0  0  0  0  0  2  0  0  0  0  0  0
  160.6240  205.2150  144.7210 C   0  0  0  0  0  0  0  0  0  0  0  0
  161.5970  205.8160  143.9210 O   0  0  0  0  0  0  0  0  0  0  0  0
  159.8000  205.9390  145.3380 O   0  0  0  0  0  1  0  0  0  0  0  0
  160.5060  200.7810  145.5660 C   0  0  0  0  0  2  0  0  0  0  0  0
  160.8630  198.1130  144.8530 C   0  0  0  0  0  1  0  0  0  0  0  0
  161.4140  199.2910  146.1260 S   0  0  0  0  0  0  0  0  0  0  0  0
  161.3840  210.2680  148.1470 C   0  0  0  0  0  2  0  0  0  0  0  0
  162.2230  211.4630  148.6890 C   0  0  0  0  0  2  0  0  0  0  0  0
  161.4470  212.8360  149.2080 C   0  0  2  0  0  3  0  0  0  0  0  0
  159.9170  212.8140  151.5990 C   0  0  0  0  0  0  0  0  0  0  0  0
  159.8360  214.0960  151.8320 O   0  0  0  0  0  0  0  0  0  0  0  0
  160.6590  212.3710  150.3980 N   0  0  0  0  0  2  0  0  0  0  0  0
  159.3800  211.6830  152.5720 C   0  0  0  0  0  2  0  0  0  0  0  0
  160.0130  211.5070  155.9290 O   0  0  0  0  0  0  0  0  0  0  0  0
  159.4220  210.3390  155.6680 O   0  0  0  0  0  0  0  0  0  0  0  0
  159.7240  210.0080  154.3370 C   0  0  0  0  0  2  0  0  0  0  0  0
  160.3020  211.2320  153.6520 C   0  0  0  0  0  3  0  0  0  0  0  0
  160.0280  212.2000  154.7060 C   0  0  0  0  0  2  0  0  0  0  0  0
  160.4970  213.6680  148.1450 C   0  0  1  0  0  3  0  0  0  0  0  0
  159.8230  212.7830  145.8940 N   0  0  0  0  0  2  0  0  0  0  0  0
  161.2280  213.0620  143.9140 C   0  0  0  0  0  2  0  0  0  0  0  0
  162.0710  213.9860  146.0510 C   0  0  0  0  0  0  0  0  0  0  0  0
  162.4230  213.7360  144.5980 C   0  0  0  0  0  2  0  0  0  0  0  0
  160.5590  212.0700  144.8540 C   0  0  0  0  0  2  0  0  0  0  0  0
  160.8010  213.5790  146.6900 N   0  0  0  0  0  0  0  0  0  0  0  0
  163.1390  214.2060  146.7630 O   0  0  0  0  0  0  0  0  0  0  0  0
  158.5880  212.4370  147.8240 O   0  0  0  0  0  0  0  0  0  0  0  0
  158.1590  214.4370  149.1710 N   0  0  0  0  0  2  0  0  0  0  0  0
  159.0220  213.4950  148.3960 C   0  0  0  0  0  0  0  0  0  0  0  0
  156.7770  214.0270  149.1670 C   0  0  1  0  0  3  0  0  0  0  0  0
  156.6250  212.7000  148.7890 O   0  0  0  0  0  1  0  0  0  0  0  0
  156.0240  214.4370  150.3730 C   0  0  0  0  0  1  0  0  0  0  0  0
  1  5  1  0  0  0  0
  1  4  1  0  0  0  0
  2 30  1  6  0  0  0
  2  6  1  0  0  0  0
  4  2  1  0  0  0  0
  5  2  1  0  0  0  0
  5  3  1  1  0  0  0
  6  7  1  0  0  0  0
  7  8  1  0  0  0  0
  9 10  1  0  0  0  0
  9 11  1  0  0  0  0
 10 13  1  1  0  0  0
 10 12  1  0  0  0  0
 11  8  1  0  0  0  0
 11 12  1  0  0  0  0
 14 13  1  0  0  0  0
 15 14  2  0  0  0  0
 16 14  1  0  0  0  0
 16 18  1  1  0  0  0
 17 18  1  0  0  0  0
 20 19  1  6  0  0  0
 20 16  1  0  0  0  0
 21 27  1  6  0  0  0
 21 20  1  0  0  0  0
 22 21  1  0  0  0  0
 23 22  1  0  0  0  0
 24 23  1  0  0  0  0
 24 26  1  0  0  0  0
 25 24  2  0  0  0  0
 27 29  1  0  0  0  0
 28 29  1  0  0  0  0
 30 31  1  0  0  0  0
 32 31  1  6  0  0  0
 32 35  1  0  0  0  0
 33 34  2  0  0  0  0
 33 36  1  0  0  0  0
 35 33  1  0  0  0  0
 36 40  1  0  0  0  0
 38 37  1  0  0  0  0
 39 38  1  0  0  0  0
 40 39  1  0  0  0  0
 40 41  1  0  0  0  0
 41 37  1  0  0  0  0
 42 52  1  6  0  0  0
 42 32  1  0  0  0  0
 43 48  1  0  0  0  0
 44 46  1  0  0  0  0
 44 47  1  0  0  0  0
 45 48  1  0  0  0  0
 45 49  2  0  0  0  0
 46 45  1  0  0  0  0
 47 43  1  0  0  0  0
 48 42  1  0  0  0  0
 50 52  2  0  0  0  0
 52 51  1  0  0  0  0
 53 51  1  0  0  0  0
 53 55  1  1  0  0  0
 54 53  1  0  0  0  0
M  END
>  <MODEL>
7

>  <REMARK>
 VINA RESULT:      -2.0      2.362      4.946
  Name = 
  25 active torsions:
  status: ('A' for Active; 'I' for Inactive)
    1  A    between atoms: C_1  and  C_29
    2  A    between atoms: C_2  and  C_28
    3  A    between atoms: C_2  and  C_31
    4  A    between atoms: C_3  and  S_25
    5  A    between atoms: C_3  and  C_38
    6  A    between atoms: C_4  and  N_40
    7  A    between atoms: C_6  and  C_14
    8  A    between atoms: C_6  and  C_20
    9  A    between atoms: C_6  and  C_53
   10  A    between atoms: O_7  and  C_20
   11  A    between atoms: O_7  and  C_22
   12  A    between atoms: C_13  and  C_48
   13  A    between atoms: C_14  and  C_38
   14  A    between atoms: O_21  and  C_29
   15  A    between atoms: O_21  and  C_38
   16  A    between atoms: N_26  and  C_49
   17  A    between atoms: C_27  and  C_31
   18  A    between atoms: C_27  and  C_54
   19  A    between atoms: C_28  and  C_33
   20  A    between atoms: C_33  and  C_49
   21  A    between atoms: C_33  and  N_52
   22  A    between atoms: N_35  and  C_51
   23  A    between atoms: C_39  and  C_48
   24  A    between atoms: C_45  and  C_49
   25  A    between atoms: C_51  and  C_54
                            x       y       z     vdW  Elec       q    Type
                         _______ _______ _______ _____ _____    ______ ____

>  <TORSDO>
F 25

$$$$
=
 OpenBabel11062408593D

 55 58  0  0  1  0  0  0  0  0999 V2000
  161.3180  207.1150  147.8110 C   0  0  0  0  0  2  0  0  0  0  0  0
  161.5400  208.2270  149.5640 C   0  0  2  0  0  0  0  0  0  0  0  0
  163.5190  207.3060  148.3780 O   0  0  0  0  0  1  0  0  0  0  0  0
  160.4710  207.2480  149.0450 C   0  0  0  0  0  2  0  0  0  0  0  0
  162.3590  208.1070  148.2600 C   0  0  1  0  0  3  0  0  0  0  0  0
  162.3410  208.1380  150.9410 C   0  0  0  0  0  2  0  0  0  0  0  0
  162.6900  206.6660  151.3850 C   0  0  0  0  0  2  0  0  0  0  0  0
  161.5630  206.2640  152.3860 C   0  0  0  0  0  2  0  0  0  0  0  0
  160.5470  205.0780  150.7680 O   0  0  0  0  0  0  0  0  0  0  0  0
  161.3020  203.8840  150.8230 C   0  0  1  0  0  3  0  0  0  0  0  0
  160.5780  205.2210  152.1410 N   0  0  0  0  0  0  0  0  0  0  0  0
  161.2830  203.9750  152.3210 C   0  0  0  0  0  2  0  0  0  0  0  0
  160.5140  202.7890  150.3550 O   0  0  0  0  0  0  0  0  0  0  0  0
  161.0710  202.0130  149.3020 C   0  0  0  0  0  0  0  0  0  0  0  0
  161.3310  200.8320  149.5310 O   0  0  0  0  0  0  0  0  0  0  0  0
  161.3850  202.5770  147.9020 C   0  0  2  0  0  3  0  0  0  0  0  0
  163.0650  204.0090  146.9940 O   0  0  0  0  0  1  0  0  0  0  0  0
  162.0040  203.9840  147.8980 C   0  0  0  0  0  2  0  0  0  0  0  0
  159.0860  201.7700  147.7490 O   0  0  0  0  0  1  0  0  0  0  0  0
  160.0830  202.4910  147.0730 C   0  0  2  0  0  3  0  0  0  0  0  0
  160.1980  201.9840  145.6210 C   0  0  1  0  0  3  0  0  0  0  0  0
  159.5530  200.7460  145.3810 O   0  0  0  0  0  0  0  0  0  0  0  0
  160.3670  199.9420  144.5630 C   0  0  0  0  0  2  0  0  0  0  0  0
  161.2110  199.0250  145.3520 C   0  0  0  0  0  0  0  0  0  0  0  0
  161.6390  199.3680  146.6360 O   0  0  0  0  0  1  0  0  0  0  0  0
  161.5070  197.8940  144.8860 O   0  0  0  0  0  0  0  0  0  0  0  0
  160.0480  203.1330  144.5280 C   0  0  0  0  0  2  0  0  0  0  0  0
  160.0480  205.8230  145.2470 C   0  0  0  0  0  1  0  0  0  0  0  0
  161.2110  204.5380  144.6920 S   0  0  0  0  0  0  0  0  0  0  0  0
  160.9640  209.6310  149.4520 C   0  0  0  0  0  2  0  0  0  0  0  0
  162.0230  210.7140  149.8170 C   0  0  0  0  0  2  0  0  0  0  0  0
  161.5340  212.1170  150.5550 C   0  0  2  0  0  3  0  0  0  0  0  0
  160.3720  210.8780  152.8300 C   0  0  0  0  0  0  0  0  0  0  0  0
  161.4320  210.3320  153.3600 O   0  0  0  0  0  0  0  0  0  0  0  0
  160.5410  211.6530  151.5800 N   0  0  0  0  0  2  0  0  0  0  0  0
  158.8910  210.6790  153.3590 C   0  0  0  0  0  2  0  0  0  0  0  0
  160.0160  211.6330  156.4450 O   0  0  0  0  0  0  0  0  0  0  0  0
  160.1040  212.7560  155.7280 O   0  0  0  0  0  0  0  0  0  0  0  0
  159.1040  212.6990  154.7420 C   0  0  0  0  0  2  0  0  0  0  0  0
  158.5630  211.2830  154.6820 C   0  0  0  0  0  3  0  0  0  0  0  0
  159.5490  210.6540  155.5510 C   0  0  0  0  0  2  0  0  0  0  0  0
  160.9150  213.3360  149.6280 C   0  0  1  0  0  3  0  0  0  0  0  0
  159.7660  212.6040  147.5200 N   0  0  0  0  0  2  0  0  0  0  0  0
  160.8810  212.6540  145.3460 C   0  0  0  0  0  2  0  0  0  0  0  0
  162.1860  213.3960  147.3160 C   0  0  0  0  0  0  0  0  0  0  0  0
  162.2650  213.1030  145.8310 C   0  0  0  0  0  2  0  0  0  0  0  0
  160.2010  211.7840  146.3920 C   0  0  0  0  0  2  0  0  0  0  0  0
  160.9760  213.2100  148.1450 N   0  0  0  0  0  0  0  0  0  0  0  0
  163.3710  213.4200  147.8550 O   0  0  0  0  0  0  0  0  0  0  0  0
  159.6280  214.4330  151.1780 O   0  0  0  0  0  0  0  0  0  0  0  0
  158.2700  213.5220  149.3550 N   0  0  0  0  0  2  0  0  0  0  0  0
  159.5520  213.7950  150.0720 C   0  0  0  0  0  0  0  0  0  0  0  0
  157.1310  214.0340  150.0760 C   0  0  1  0  0  3  0  0  0  0  0  0
  155.9310  213.6780  149.4790 O   0  0  0  0  0  1  0  0  0  0  0  0
  157.2030  213.8280  151.5400 C   0  0  0  0  0  1  0  0  0  0  0  0
  1  5  1  0  0  0  0
  1  4  1  0  0  0  0
  2 30  1  6  0  0  0
  2  6  1  0  0  0  0
  4  2  1  0  0  0  0
  5  3  1  1  0  0  0
  5  2  1  0  0  0  0
  6  7  1  0  0  0  0
  7  8  1  0  0  0  0
  9 10  1  0  0  0  0
  9 11  1  0  0  0  0
 10 13  1  1  0  0  0
 10 12  1  0  0  0  0
 11 12  1  0  0  0  0
 11  8  1  0  0  0  0
 14 15  2  0  0  0  0
 14 13  1  0  0  0  0
 16 18  1  1  0  0  0
 16 14  1  0  0  0  0
 17 18  1  0  0  0  0
 20 19  1  1  0  0  0
 20 16  1  0  0  0  0
 21 27  1  6  0  0  0
 21 20  1  0  0  0  0
 22 21  1  0  0  0  0
 23 24  1  0  0  0  0
 23 22  1  0  0  0  0
 24 25  1  0  0  0  0
 26 24  2  0  0  0  0
 27 29  1  0  0  0  0
 29 28  1  0  0  0  0
 30 31  1  0  0  0  0
 32 31  1  6  0  0  0
 32 35  1  0  0  0  0
 33 36  1  0  0  0  0
 33 34  2  0  0  0  0
 35 33  1  0  0  0  0
 36 40  1  0  0  0  0
 38 37  1  0  0  0  0
 39 38  1  0  0  0  0
 40 39  1  0  0  0  0
 40 41  1  0  0  0  0
 41 37  1  0  0  0  0
 42 52  1  1  0  0  0
 42 32  1  0  0  0  0
 43 48  1  0  0  0  0
 44 46  1  0  0  0  0
 44 47  1  0  0  0  0
 45 49  2  0  0  0  0
 45 48  1  0  0  0  0
 46 45  1  0  0  0  0
 47 43  1  0  0  0  0
 48 42  1  0  0  0  0
 51 52  1  0  0  0  0
 51 53  1  0  0  0  0
 52 50  2  0  0  0  0
 53 55  1  1  0  0  0
 54 53  1  0  0  0  0
M  END
>  <MODEL>
8

>  <REMARK>
 VINA RESULT:      -1.6      2.310      4.480
  Name = 
  25 active torsions:
  status: ('A' for Active; 'I' for Inactive)
    1  A    between atoms: C_1  and  C_29
    2  A    between atoms: C_2  and  C_28
    3  A    between atoms: C_2  and  C_31
    4  A    between atoms: C_3  and  S_25
    5  A    between atoms: C_3  and  C_38
    6  A    between atoms: C_4  and  N_40
    7  A    between atoms: C_6  and  C_14
    8  A    between atoms: C_6  and  C_20
    9  A    between atoms: C_6  and  C_53
   10  A    between atoms: O_7  and  C_20
   11  A    between atoms: O_7  and  C_22
   12  A    between atoms: C_13  and  C_48
   13  A    between atoms: C_14  and  C_38
   14  A    between atoms: O_21  and  C_29
   15  A    between atoms: O_21  and  C_38
   16  A    between atoms: N_26  and  C_49
   17  A    between atoms: C_27  and  C_31
   18  A    between atoms: C_27  and  C_54
   19  A    between atoms: C_28  and  C_33
   20  A    between atoms: C_33  and  C_49
   21  A    between atoms: C_33  and  N_52
   22  A    between atoms: N_35  and  C_51
   23  A    between atoms: C_39  and  C_48
   24  A    between atoms: C_45  and  C_49
   25  A    between atoms: C_51  and  C_54
                            x       y       z     vdW  Elec       q    Type
                         _______ _______ _______ _____ _____    ______ ____

>  <TORSDO>
F 25

$$$$
=
 OpenBabel11062408593D

 55 58  0  0  1  0  0  0  0  0999 V2000
  161.9710  206.8450  147.8400 C   0  0  0  0  0  2  0  0  0  0  0  0
  161.6740  208.5340  149.0310 C   0  0  2  0  0  0  0  0  0  0  0  0
  163.9560  207.6340  148.6400 O   0  0  0  0  0  1  0  0  0  0  0  0
  160.8620  207.2520  148.7680 C   0  0  0  0  0  2  0  0  0  0  0  0
  162.7710  208.1070  148.0310 C   0  0  1  0  0  3  0  0  0  0  0  0
  162.1540  209.0970  150.4450 C   0  0  0  0  0  2  0  0  0  0  0  0
  162.5960  207.9790  151.4630 C   0  0  0  0  0  2  0  0  0  0  0  0
  161.4480  207.9090  152.5170 C   0  0  0  0  0  2  0  0  0  0  0  0
  160.7040  206.0420  151.5100 O   0  0  0  0  0  0  0  0  0  0  0  0
  161.4490  205.0660  152.2120 C   0  0  1  0  0  3  0  0  0  0  0  0
  160.5200  206.7970  152.6520 N   0  0  0  0  0  0  0  0  0  0  0  0
  161.1970  205.8280  153.4810 C   0  0  0  0  0  2  0  0  0  0  0  0
  160.7510  203.8220  152.2020 O   0  0  0  0  0  0  0  0  0  0  0  0
  161.2290  202.8350  151.2960 C   0  0  0  0  0  0  0  0  0  0  0  0
  162.1980  202.1570  151.6400 O   0  0  0  0  0  0  0  0  0  0  0  0
  160.6150  202.5870  149.9050 C   0  0  2  0  0  3  0  0  0  0  0  0
  158.7390  201.1110  149.9750 O   0  0  0  0  0  1  0  0  0  0  0  0
  160.1000  201.1570  149.6720 C   0  0  0  0  0  2  0  0  0  0  0  0
  162.0200  204.3740  149.0130 O   0  0  0  0  0  1  0  0  0  0  0  0
  161.6650  203.0250  148.8580 C   0  0  2  0  0  3  0  0  0  0  0  0
  161.3530  202.7360  147.3750 C   0  0  1  0  0  3  0  0  0  0  0  0
  160.5840  201.5660  147.1570 O   0  0  0  0  0  0  0  0  0  0  0  0
  161.4300  200.5130  146.7650 C   0  0  0  0  0  2  0  0  0  0  0  0
  160.8230  199.6770  145.7130 C   0  0  0  0  0  0  0  0  0  0  0  0
  159.7090  200.1190  144.9970 O   0  0  0  0  0  0  0  0  0  0  0  0
  161.3460  198.5710  145.4160 O   0  0  0  0  0  1  0  0  0  0  0  0
  160.9940  204.0370  146.5300 C   0  0  0  0  0  2  0  0  0  0  0  0
  161.2780  205.8700  144.4520 C   0  0  0  0  0  1  0  0  0  0  0  0
  161.9230  204.2470  144.9660 S   0  0  0  0  0  0  0  0  0  0  0  0
  160.9870  209.6690  148.2870 C   0  0  0  0  0  2  0  0  0  0  0  0
  161.9130  210.9170  148.1670 C   0  0  0  0  0  2  0  0  0  0  0  0
  161.3900  212.3800  148.7510 C   0  0  2  0  0  3  0  0  0  0  0  0
  160.1480  212.4970  151.3020 C   0  0  0  0  0  0  0  0  0  0  0  0
  160.4700  213.7100  151.6590 O   0  0  0  0  0  0  0  0  0  0  0  0
  160.6120  212.0140  149.9820 N   0  0  0  0  0  2  0  0  0  0  0  0
  159.3920  211.4530  152.2260 C   0  0  0  0  0  2  0  0  0  0  0  0
  158.4000  210.4880  155.3540 O   0  0  0  0  0  0  0  0  0  0  0  0
  159.7180  210.2740  155.3720 O   0  0  0  0  0  0  0  0  0  0  0  0
  160.3020  211.2030  154.4950 C   0  0  0  0  0  2  0  0  0  0  0  0
  159.2070  211.8330  153.6560 C   0  0  0  0  0  3  0  0  0  0  0  0
  158.1150  210.9560  154.0600 C   0  0  0  0  0  2  0  0  0  0  0  0
  160.5160  213.3710  147.7620 C   0  0  1  0  0  3  0  0  0  0  0  0
  159.3910  212.7530  145.6050 N   0  0  0  0  0  2  0  0  0  0  0  0
  160.6180  212.5910  143.4980 C   0  0  0  0  0  2  0  0  0  0  0  0
  161.9060  213.1940  145.5250 C   0  0  0  0  0  0  0  0  0  0  0  0
  162.0230  212.8550  144.0520 C   0  0  0  0  0  2  0  0  0  0  0  0
  159.7670  211.8510  144.5180 C   0  0  0  0  0  2  0  0  0  0  0  0
  160.6380  213.2000  146.2870 N   0  0  0  0  0  0  0  0  0  0  0  0
  163.0510  213.0670  146.1300 O   0  0  0  0  0  0  0  0  0  0  0  0
  158.3360  212.7130  147.4860 O   0  0  0  0  0  0  0  0  0  0  0  0
  158.5470  214.4530  149.1960 N   0  0  0  0  0  2  0  0  0  0  0  0
  159.0730  213.5060  148.1680 C   0  0  0  0  0  0  0  0  0  0  0  0
  157.1100  214.3900  149.3010 C   0  0  1  0  0  3  0  0  0  0  0  0
  156.5010  214.2350  148.0640 O   0  0  0  0  0  1  0  0  0  0  0  0
  156.6240  213.4890  150.3700 C   0  0  0  0  0  1  0  0  0  0  0  0
  1  5  1  0  0  0  0
  1  4  1  0  0  0  0
  2 30  1  6  0  0  0
  2  6  1  0  0  0  0
  4  2  1  0  0  0  0
  5  3  1  1  0  0  0
  5  2  1  0  0  0  0
  6  7  1  0  0  0  0
  7  8  1  0  0  0  0
  8 11  1  0  0  0  0
  9 10  1  0  0  0  0
  9 11  1  0  0  0  0
 10 13  1  1  0  0  0
 10 12  1  0  0  0  0
 11 12  1  0  0  0  0
 14 15  2  0  0  0  0
 14 13  1  0  0  0  0
 16 18  1  6  0  0  0
 16 14  1  0  0  0  0
 18 17  1  0  0  0  0
 20 19  1  6  0  0  0
 20 16  1  0  0  0  0
 21 27  1  1  0  0  0
 21 20  1  0  0  0  0
 22 21  1  0  0  0  0
 23 22  1  0  0  0  0
 24 23  1  0  0  0  0
 25 24  2  0  0  0  0
 26 24  1  0  0  0  0
 28 29  1  0  0  0  0
 29 27  1  0  0  0  0
 31 30  1  0  0  0  0
 32 31  1  6  0  0  0
 32 35  1  0  0  0  0
 33 34  2  0  0  0  0
 33 36  1  0  0  0  0
 35 33  1  0  0  0  0
 36 40  1  0  0  0  0
 37 38  1  0  0  0  0
 39 38  1  0  0  0  0
 40 41  1  0  0  0  0
 40 39  1  0  0  0  0
 41 37  1  0  0  0  0
 42 52  1  1  0  0  0
 42 32  1  0  0  0  0
 43 48  1  0  0  0  0
 44 46  1  0  0  0  0
 44 47  1  0  0  0  0
 45 49  2  0  0  0  0
 45 48  1  0  0  0  0
 46 45  1  0  0  0  0
 47 43  1  0  0  0  0
 48 42  1  0  0  0  0
 50 52  2  0  0  0  0
 51 53  1  0  0  0  0
 52 51  1  0  0  0  0
 53 55  1  1  0  0  0
 54 53  1  0  0  0  0
M  END
>  <MODEL>
9

>  <REMARK>
 VINA RESULT:      -1.5      2.647      4.972
  Name = 
  25 active torsions:
  status: ('A' for Active; 'I' for Inactive)
    1  A    between atoms: C_1  and  C_29
    2  A    between atoms: C_2  and  C_28
    3  A    between atoms: C_2  and  C_31
    4  A    between atoms: C_3  and  S_25
    5  A    between atoms: C_3  and  C_38
    6  A    between atoms: C_4  and  N_40
    7  A    between atoms: C_6  and  C_14
    8  A    between atoms: C_6  and  C_20
    9  A    between atoms: C_6  and  C_53
   10  A    between atoms: O_7  and  C_20
   11  A    between atoms: O_7  and  C_22
   12  A    between atoms: C_13  and  C_48
   13  A    between atoms: C_14  and  C_38
   14  A    between atoms: O_21  and  C_29
   15  A    between atoms: O_21  and  C_38
   16  A    between atoms: N_26  and  C_49
   17  A    between atoms: C_27  and  C_31
   18  A    between atoms: C_27  and  C_54
   19  A    between atoms: C_28  and  C_33
   20  A    between atoms: C_33  and  C_49
   21  A    between atoms: C_33  and  N_52
   22  A    between atoms: N_35  and  C_51
   23  A    between atoms: C_39  and  C_48
   24  A    between atoms: C_45  and  C_49
   25  A    between atoms: C_51  and  C_54
                            x       y       z     vdW  Elec       q    Type
                         _______ _______ _______ _____ _____    ______ ____

>  <TORSDO>
F 25

$$$$
