=
 OpenBabel11062407493D

 34 38  0  0  1  0  0  0  0  0999 V2000
  161.3190  208.1210  153.3320 C   0  0  0  0  0  0  0  0  0  0  0  0
  161.0930  205.7840  152.5510 C   0  0  0  0  0  0  0  0  0  0  0  0
  161.3630  207.5960  150.9200 C   0  0  0  0  0  0  0  0  0  0  0  0
  162.5860  207.4930  147.9090 C   0  0  0  0  0  2  0  0  0  0  0  0
  161.5980  210.7060  154.2850 Cl  0  0  0  0  0  0  0  0  0  0  0  0
  161.0040  205.2880  153.8100 F   0  0  0  0  0  0  0  0  0  0  0  0
  161.1000  205.3030  150.2250 N   0  0  0  0  0  0  0  0  0  0  0  0
  161.2550  207.1630  152.2820 C   0  0  0  0  0  0  0  0  0  0  0  0
  161.2400  206.9700  148.4160 C   0  0  2  0  0  3  0  0  0  0  0  0
  161.1840  207.7340  154.7740 C   0  0  0  0  0  1  0  0  0  0  0  0
  161.5980  208.9800  150.6510 C   0  0  0  0  0  0  0  0  0  0  0  0
  161.5090  209.4750  153.0310 C   0  0  0  0  0  0  0  0  0  0  0  0
  161.0290  204.8780  151.5050 C   0  0  0  0  0  3  0  0  0  0  0  0
  163.0250  208.7820  148.6010 C   0  0  0  0  0  2  0  0  0  0  0  0
  161.8470  209.5090  149.2480 C   0  0  2  0  0  3  0  0  0  0  0  0
  161.2480  206.6120  149.8890 C   0  0  0  0  0  0  0  0  0  0  0  0
  161.6570  209.8820  151.7160 C   0  0  0  0  0  3  0  0  0  0  0  0
  160.8030  211.9350  147.0280 C   0  0  1  0  0  3  0  0  0  0  0  0
  161.9090  212.9710  146.7910 C   0  0  0  0  0  2  0  0  0  0  0  0
  161.9410  211.0380  149.1100 C   0  0  2  0  0  3  0  0  0  0  0  0
  163.0500  212.9010  147.8150 C   0  0  0  0  0  2  0  0  0  0  0  0
  160.6440  211.6090  148.5120 C   0  0  0  0  0  2  0  0  0  0  0  0
  163.2150  211.4900  148.3690 C   0  0  0  0  0  2  0  0  0  0  0  0
  159.5960  212.4120  146.5190 O   0  0  0  0  0  1  0  0  0  0  0  0
  160.6280  205.9140  147.4850 C   0  0  0  0  0  2  0  0  0  0  0  0
  161.6660  205.1800  146.6440 C   0  0  0  0  0  2  0  0  0  0  0  0
  162.0100  203.8320  147.2630 C   0  0  0  0  0  2  0  0  0  0  0  0
  159.5290  201.8420  149.1380 O   0  0  0  0  0  1  0  0  0  0  0  0
  160.7880  202.9220  147.4090 C   0  0  2  0  0  3  0  0  0  0  0  0
  160.8310  202.0660  148.6890 C   0  0  2  0  0  3  0  0  0  0  0  0
  161.5180  200.1540  147.2660 C   0  0  0  0  0  3  0  0  0  0  0  0
  160.9150  200.8220  146.0990 C   0  0  0  0  0  3  0  0  0  0  0  0
  160.5440  202.1030  146.1650 C   0  0  0  0  0  3  0  0  0  0  0  0
  161.5150  200.7410  148.4660 C   0  0  0  0  0  3  0  0  0  0  0  0
  1 10  1  0  0  0  0
  2  6  1  0  0  0  0
  3  8  1  0  0  0  0
  4  9  1  0  0  0  0
  4 14  1  0  0  0  0
  7 13  1  0  0  0  0
  8  2  1  0  0  0  0
  8  1  2  0  0  0  0
  9 25  1  6  0  0  0
  9 16  1  0  0  0  0
 11  3  2  0  0  0  0
 11 17  1  0  0  0  0
 12  1  1  0  0  0  0
 12  5  1  0  0  0  0
 13  2  2  0  0  0  0
 15 14  1  1  0  0  0
 15 11  1  0  0  0  0
 16  7  2  0  0  0  0
 16  3  1  0  0  0  0
 17 12  2  0  0  0  0
 18 24  1  1  0  0  0
 18 22  1  0  0  0  0
 19 18  1  0  0  0  0
 19 21  1  0  0  0  0
 20 23  1  6  0  0  0
 20 15  1  0  0  0  0
 21 23  1  0  0  0  0
 22 20  1  0  0  0  0
 26 27  1  0  0  0  0
 26 25  1  0  0  0  0
 29 27  1  6  0  0  0
 29 30  1  0  0  0  0
 30 28  1  6  0  0  0
 31 34  2  0  0  0  0
 32 33  2  0  0  0  0
 32 31  1  0  0  0  0
 33 29  1  0  0  0  0
 34 30  1  0  0  0  0
M  END
>  <MODEL>
1

>  <REMARK>
 VINA RESULT:      -8.5      0.000      0.000
  Name = 
  5 active torsions:
  status: ('A' for Active; 'I' for Inactive)
    1  A    between atoms: C_3  and  C_13
    2  A    between atoms: C_3  and  C_17
    3  A    between atoms: C_12  and  C_28
    4  A    between atoms: C_17  and  C_29
    5  A    between atoms: C_18  and  C_29
                            x       y       z     vdW  Elec       q    Type
                         _______ _______ _______ _____ _____    ______ ____

>  <TORSDO>
F 5

$$$$
=
 OpenBabel11062407493D

 34 38  0  0  1  0  0  0  0  0999 V2000
  161.0400  204.1010  149.8790 C   0  0  0  0  0  0  0  0  0  0  0  0
  161.8240  205.0900  147.7510 C   0  0  0  0  0  0  0  0  0  0  0  0
  161.3860  206.5380  149.6800 C   0  0  0  0  0  0  0  0  0  0  0  0
  162.6540  209.4420  150.4080 C   0  0  0  0  0  2  0  0  0  0  0  0
  160.1960  202.9190  152.2360 Cl  0  0  0  0  0  0  0  0  0  0  0  0
  161.9010  203.8870  147.1280 F   0  0  0  0  0  0  0  0  0  0  0  0
  162.1160  207.4400  147.5680 N   0  0  0  0  0  0  0  0  0  0  0  0
  161.4150  205.2290  149.0970 C   0  0  0  0  0  0  0  0  0  0  0  0
  161.6240  209.0870  149.3320 C   0  0  2  0  0  3  0  0  0  0  0  0
  161.0230  202.7120  149.3180 C   0  0  0  0  0  1  0  0  0  0  0  0
  161.0410  206.6720  151.0610 C   0  0  0  0  0  0  0  0  0  0  0  0
  160.6680  204.2730  151.2180 C   0  0  0  0  0  0  0  0  0  0  0  0
  162.1780  206.2090  147.0150 C   0  0  0  0  0  3  0  0  0  0  0  0
  162.4980  208.6140  151.6820 C   0  0  0  0  0  2  0  0  0  0  0  0
  161.1020  208.0020  151.7930 C   0  0  2  0  0  3  0  0  0  0  0  0
  161.7240  207.6530  148.8520 C   0  0  0  0  0  0  0  0  0  0  0  0
  160.6840  205.5340  151.7890 C   0  0  0  0  0  3  0  0  0  0  0  0
  161.3990  209.9600  154.6190 C   0  0  1  0  0  3  0  0  0  0  0  0
  161.5530  209.0890  155.8730 C   0  0  0  0  0  2  0  0  0  0  0  0
  160.5640  208.0050  153.2350 C   0  0  2  0  0  3  0  0  0  0  0  0
  161.2010  207.6130  155.6460 C   0  0  0  0  0  2  0  0  0  0  0  0
  160.2880  209.4420  153.7060 C   0  0  0  0  0  2  0  0  0  0  0  0
  161.4510  207.1960  154.2010 C   0  0  0  0  0  2  0  0  0  0  0  0
  161.1280  211.2750  154.9920 O   0  0  0  0  0  1  0  0  0  0  0  0
  161.5360  210.1480  148.2260 C   0  0  0  0  0  2  0  0  0  0  0  0
  161.8950  211.5500  148.7080 C   0  0  0  0  0  2  0  0  0  0  0  0
  162.6900  212.3000  147.6470 C   0  0  0  0  0  2  0  0  0  0  0  0
  159.7270  214.4520  147.1800 O   0  0  0  0  0  1  0  0  0  0  0  0
  161.8930  213.4400  147.0100 C   0  0  2  0  0  3  0  0  0  0  0  0
  160.3700  213.2170  147.0870 C   0  0  2  0  0  3  0  0  0  0  0  0
  160.4490  212.5440  144.7010 C   0  0  0  0  0  3  0  0  0  0  0  0
  161.7040  213.3000  144.5420 C   0  0  0  0  0  3  0  0  0  0  0  0
  162.3690  213.7470  145.6110 C   0  0  0  0  0  3  0  0  0  0  0  0
  159.8410  212.4710  145.8880 C   0  0  0  0  0  3  0  0  0  0  0  0
  1 12  1  0  0  0  0
  2  8  1  0  0  0  0
  3 11  2  0  0  0  0
  4 14  1  0  0  0  0
  6  2  1  0  0  0  0
  7 16  2  0  0  0  0
  8  3  1  0  0  0  0
  8  1  2  0  0  0  0
  9 25  1  6  0  0  0
  9  4  1  0  0  0  0
 10  1  1  0  0  0  0
 11 17  1  0  0  0  0
 11 15  1  0  0  0  0
 12 17  2  0  0  0  0
 12  5  1  0  0  0  0
 13  7  1  0  0  0  0
 13  2  2  0  0  0  0
 15 14  1  1  0  0  0
 15 20  1  0  0  0  0
 16  9  1  0  0  0  0
 16  3  1  0  0  0  0
 18 24  1  1  0  0  0
 18 19  1  0  0  0  0
 20 22  1  1  0  0  0
 20 23  1  0  0  0  0
 21 19  1  0  0  0  0
 22 18  1  0  0  0  0
 23 21  1  0  0  0  0
 25 26  1  0  0  0  0
 27 26  1  0  0  0  0
 29 30  1  0  0  0  0
 29 27  1  6  0  0  0
 30 28  1  6  0  0  0
 31 34  2  0  0  0  0
 32 31  1  0  0  0  0
 32 33  2  0  0  0  0
 33 29  1  0  0  0  0
 34 30  1  0  0  0  0
M  END
>  <MODEL>
2

>  <REMARK>
 VINA RESULT:      -7.8      3.112      7.584
  Name = 
  5 active torsions:
  status: ('A' for Active; 'I' for Inactive)
    1  A    between atoms: C_3  and  C_13
    2  A    between atoms: C_3  and  C_17
    3  A    between atoms: C_12  and  C_28
    4  A    between atoms: C_17  and  C_29
    5  A    between atoms: C_18  and  C_29
                            x       y       z     vdW  Elec       q    Type
                         _______ _______ _______ _____ _____    ______ ____

>  <TORSDO>
F 5

$$$$
=
 OpenBabel11062407493D

 34 38  0  0  1  0  0  0  0  0999 V2000
  160.3920  209.6970  155.7490 C   0  0  0  0  0  0  0  0  0  0  0  0
  160.7260  207.3100  155.1920 C   0  0  0  0  0  0  0  0  0  0  0  0
  160.7750  208.9960  153.4130 C   0  0  0  0  0  0  0  0  0  0  0  0
  162.2780  208.9090  150.5310 C   0  0  0  0  0  2  0  0  0  0  0  0
  160.0410  212.3520  156.4550 Cl  0  0  0  0  0  0  0  0  0  0  0  0
  160.6200  206.9110  156.4840 F   0  0  0  0  0  0  0  0  0  0  0  0
  161.0570  206.6510  152.9340 N   0  0  0  0  0  0  0  0  0  0  0  0
  160.6270  208.6650  154.7990 C   0  0  0  0  0  0  0  0  0  0  0  0
  161.0260  208.1550  150.9830 C   0  0  2  0  0  3  0  0  0  0  0  0
  160.2010  209.4100  157.2080 C   0  0  0  0  0  1  0  0  0  0  0  0
  160.7460  210.3720  153.0240 C   0  0  0  0  0  0  0  0  0  0  0  0
  160.3290  211.0310  155.3290 C   0  0  0  0  0  0  0  0  0  0  0  0
  160.9510  206.3270  154.2410 C   0  0  0  0  0  3  0  0  0  0  0  0
  162.3760  210.3150  151.1210 C   0  0  0  0  0  2  0  0  0  0  0  0
  161.0160  210.8240  151.5990 C   0  0  2  0  0  3  0  0  0  0  0  0
  160.9640  207.9290  152.4800 C   0  0  0  0  0  0  0  0  0  0  0  0
  160.5170  211.3500  153.9950 C   0  0  0  0  0  3  0  0  0  0  0  0
  158.3670  212.9780  151.1010 C   0  0  1  0  0  3  0  0  0  0  0  0
  158.6620  213.9510  149.9520 C   0  0  0  0  0  2  0  0  0  0  0  0
  160.8080  212.3220  151.3150 C   0  0  2  0  0  3  0  0  0  0  0  0
  160.1380  213.9820  149.5340 C   0  0  0  0  0  2  0  0  0  0  0  0
  159.5600  212.8430  152.0460 C   0  0  0  0  0  2  0  0  0  0  0  0
  160.8230  212.6480  149.8080 C   0  0  0  0  0  2  0  0  0  0  0  0
  157.2510  213.4160  151.8110 O   0  0  0  0  0  1  0  0  0  0  0  0
  160.7360  206.9200  150.1180 C   0  0  0  0  0  2  0  0  0  0  0  0
  161.0390  207.1370  148.6390 C   0  0  0  0  0  2  0  0  0  0  0  0
  160.6350  205.9190  147.8190 C   0  0  0  0  0  2  0  0  0  0  0  0
  163.6470  204.6750  146.0830 O   0  0  0  0  0  1  0  0  0  0  0  0
  161.8000  204.9550  147.5840 C   0  0  2  0  0  3  0  0  0  0  0  0
  162.2780  204.9430  146.1190 C   0  0  2  0  0  3  0  0  0  0  0  0
  161.0470  202.8060  145.8430 C   0  0  0  0  0  3  0  0  0  0  0  0
  161.1250  202.5870  147.2980 C   0  0  0  0  0  3  0  0  0  0  0  0
  161.5030  203.5740  148.1150 C   0  0  0  0  0  3  0  0  0  0  0  0
  161.5490  203.9150  145.2910 C   0  0  0  0  0  3  0  0  0  0  0  0
  1 10  1  0  0  0  0
  2  6  1  0  0  0  0
  3  8  1  0  0  0  0
  4  9  1  0  0  0  0
  4 14  1  0  0  0  0
  7 13  1  0  0  0  0
  8  2  1  0  0  0  0
  8  1  2  0  0  0  0
  9 25  1  6  0  0  0
  9 16  1  0  0  0  0
 11  3  2  0  0  0  0
 11 17  1  0  0  0  0
 12  1  1  0  0  0  0
 12  5  1  0  0  0  0
 13  2  2  0  0  0  0
 15 14  1  1  0  0  0
 15 11  1  0  0  0  0
 16  7  2  0  0  0  0
 16  3  1  0  0  0  0
 17 12  2  0  0  0  0
 18 24  1  1  0  0  0
 18 22  1  0  0  0  0
 19 18  1  0  0  0  0
 20 23  1  6  0  0  0
 20 15  1  0  0  0  0
 20 22  1  0  0  0  0
 21 23  1  0  0  0  0
 21 19  1  0  0  0  0
 26 25  1  0  0  0  0
 27 26  1  0  0  0  0
 29 27  1  6  0  0  0
 29 33  1  0  0  0  0
 30 28  1  1  0  0  0
 30 29  1  0  0  0  0
 31 32  1  0  0  0  0
 32 33  2  0  0  0  0
 34 31  2  0  0  0  0
 34 30  1  0  0  0  0
M  END
>  <MODEL>
3

>  <REMARK>
 VINA RESULT:      -7.7      2.430      3.419
  Name = 
  5 active torsions:
  status: ('A' for Active; 'I' for Inactive)
    1  A    between atoms: C_3  and  C_13
    2  A    between atoms: C_3  and  C_17
    3  A    between atoms: C_12  and  C_28
    4  A    between atoms: C_17  and  C_29
    5  A    between atoms: C_18  and  C_29
                            x       y       z     vdW  Elec       q    Type
                         _______ _______ _______ _____ _____    ______ ____

>  <TORSDO>
F 5

$$$$
=
 OpenBabel11062407493D

 34 38  0  0  1  0  0  0  0  0999 V2000
  161.1390  205.1370  152.2350 C   0  0  0  0  0  0  0  0  0  0  0  0
  161.0090  207.5400  152.8070 C   0  0  0  0  0  0  0  0  0  0  0  0
  161.5630  206.8590  150.5180 C   0  0  0  0  0  0  0  0  0  0  0  0
  161.1170  208.4630  147.7250 C   0  0  0  0  0  2  0  0  0  0  0  0
  161.2340  202.4290  151.6650 Cl  0  0  0  0  0  0  0  0  0  0  0  0
  160.6730  207.2970  154.0980 F   0  0  0  0  0  0  0  0  0  0  0  0
  161.4560  209.1820  151.1500 N   0  0  0  0  0  0  0  0  0  0  0  0
  161.2350  206.5070  151.8680 C   0  0  0  0  0  0  0  0  0  0  0  0
  162.1440  208.7260  148.8290 C   0  0  2  0  0  3  0  0  0  0  0  0
  160.8270  204.7060  153.6370 C   0  0  0  0  0  1  0  0  0  0  0  0
  161.7220  205.8170  149.5510 C   0  0  0  0  0  0  0  0  0  0  0  0
  161.3400  204.1400  151.2730 C   0  0  0  0  0  0  0  0  0  0  0  0
  161.1160  208.8660  152.4180 C   0  0  0  0  0  3  0  0  0  0  0  0
  160.8280  206.9770  147.5180 C   0  0  0  0  0  2  0  0  0  0  0  0
  161.9480  206.0990  148.0760 C   0  0  2  0  0  3  0  0  0  0  0  0
  161.6970  208.2450  150.1950 C   0  0  0  0  0  0  0  0  0  0  0  0
  161.6130  204.4860  149.9600 C   0  0  0  0  0  3  0  0  0  0  0  0
  161.1920  205.0190  144.8870 C   0  0  1  0  0  3  0  0  0  0  0  0
  160.8330  203.5270  144.8860 C   0  0  0  0  0  2  0  0  0  0  0  0
  162.2410  204.8740  147.1910 C   0  0  2  0  0  3  0  0  0  0  0  0
  161.2160  202.8000  146.1810 C   0  0  0  0  0  2  0  0  0  0  0  0
  162.4370  205.2990  145.7270 C   0  0  0  0  0  2  0  0  0  0  0  0
  161.2070  203.7470  147.3760 C   0  0  0  0  0  2  0  0  0  0  0  0
  161.3980  205.4520  143.5780 O   0  0  0  0  0  1  0  0  0  0  0  0
  162.7060  210.1540  148.7840 C   0  0  0  0  0  2  0  0  0  0  0  0
  161.7050  211.1770  148.2590 C   0  0  0  0  0  2  0  0  0  0  0  0
  162.4220  212.3430  147.5900 C   0  0  0  0  0  2  0  0  0  0  0  0
  159.1140  213.8990  147.0750 O   0  0  0  0  0  1  0  0  0  0  0  0
  161.4530  213.3820  147.0220 C   0  0  2  0  0  3  0  0  0  0  0  0
  160.0140  212.8480  146.8940 C   0  0  2  0  0  3  0  0  0  0  0  0
  160.4380  212.5800  144.4640 C   0  0  0  0  0  3  0  0  0  0  0  0
  161.5090  213.5880  144.5520 C   0  0  0  0  0  3  0  0  0  0  0  0
  161.9680  213.9900  145.7400 C   0  0  0  0  0  3  0  0  0  0  0  0
  159.7620  212.2040  145.5540 C   0  0  0  0  0  3  0  0  0  0  0  0
  1 10  1  0  0  0  0
  2  6  1  0  0  0  0
  3  8  1  0  0  0  0
  4  9  1  0  0  0  0
  7 13  2  0  0  0  0
  8  1  1  0  0  0  0
  8  2  2  0  0  0  0
  9 25  1  1  0  0  0
  9 16  1  0  0  0  0
 11 17  2  0  0  0  0
 11  3  1  0  0  0  0
 12  5  1  0  0  0  0
 12  1  2  0  0  0  0
 13  2  1  0  0  0  0
 14  4  1  0  0  0  0
 15 14  1  6  0  0  0
 15 11  1  0  0  0  0
 16  3  2  0  0  0  0
 16  7  1  0  0  0  0
 17 12  1  0  0  0  0
 18 24  1  6  0  0  0
 18 22  1  0  0  0  0
 19 18  1  0  0  0  0
 19 21  1  0  0  0  0
 20 22  1  6  0  0  0
 20 23  1  0  0  0  0
 20 15  1  0  0  0  0
 21 23  1  0  0  0  0
 26 25  1  0  0  0  0
 27 26  1  0  0  0  0
 29 27  1  6  0  0  0
 30 29  1  0  0  0  0
 30 28  1  6  0  0  0
 31 32  1  0  0  0  0
 31 34  2  0  0  0  0
 32 33  2  0  0  0  0
 33 29  1  0  0  0  0
 34 30  1  0  0  0  0
M  END
>  <MODEL>
4

>  <REMARK>
 VINA RESULT:      -7.4      2.424      7.373
  Name = 
  5 active torsions:
  status: ('A' for Active; 'I' for Inactive)
    1  A    between atoms: C_3  and  C_13
    2  A    between atoms: C_3  and  C_17
    3  A    between atoms: C_12  and  C_28
    4  A    between atoms: C_17  and  C_29
    5  A    between atoms: C_18  and  C_29
                            x       y       z     vdW  Elec       q    Type
                         _______ _______ _______ _____ _____    ______ ____

>  <TORSDO>
F 5

$$$$
=
 OpenBabel11062407493D

 34 38  0  0  1  0  0  0  0  0999 V2000
  160.9370  202.5830  150.1080 C   0  0  0  0  0  0  0  0  0  0  0  0
  160.7630  203.7920  152.2600 C   0  0  0  0  0  0  0  0  0  0  0  0
  161.4040  205.0050  150.2270 C   0  0  0  0  0  0  0  0  0  0  0  0
  161.0410  208.1530  149.5040 C   0  0  0  0  0  2  0  0  0  0  0  0
  161.0800  201.1670  147.7330 Cl  0  0  0  0  0  0  0  0  0  0  0  0
  160.3850  202.6840  152.9430 F   0  0  0  0  0  0  0  0  0  0  0  0
  161.2520  206.1140  152.3600 N   0  0  0  0  0  0  0  0  0  0  0  0
  161.0330  203.7790  150.8710 C   0  0  0  0  0  0  0  0  0  0  0  0
  162.0250  207.5000  150.4760 C   0  0  2  0  0  3  0  0  0  0  0  0
  160.5810  201.2660  150.7300 C   0  0  0  0  0  1  0  0  0  0  0  0
  161.6080  205.0070  148.8110 C   0  0  0  0  0  0  0  0  0  0  0  0
  161.1830  202.6120  148.7300 C   0  0  0  0  0  0  0  0  0  0  0  0
  160.8700  204.9740  152.9750 C   0  0  0  0  0  3  0  0  0  0  0  0
  160.7750  207.3050  148.2610 C   0  0  0  0  0  2  0  0  0  0  0  0
  161.8830  206.2790  148.0280 C   0  0  2  0  0  3  0  0  0  0  0  0
  161.5360  206.1780  151.0330 C   0  0  0  0  0  0  0  0  0  0  0  0
  161.4980  203.8070  148.1050 C   0  0  0  0  0  3  0  0  0  0  0  0
  160.5400  204.6590  145.2930 C   0  0  1  0  0  3  0  0  0  0  0  0
  161.6380  203.9730  144.4710 C   0  0  0  0  0  2  0  0  0  0  0  0
  162.2200  206.0950  146.5380 C   0  0  2  0  0  3  0  0  0  0  0  0
  163.0570  204.4340  144.8300 C   0  0  0  0  0  2  0  0  0  0  0  0
  160.9380  206.0800  145.6900 C   0  0  0  0  0  2  0  0  0  0  0  0
  163.1440  204.8880  146.2830 C   0  0  0  0  0  2  0  0  0  0  0  0
  159.3550  204.6890  144.5600 O   0  0  0  0  0  1  0  0  0  0  0  0
  162.5750  208.4890  151.5140 C   0  0  0  0  0  2  0  0  0  0  0  0
  161.7400  209.7600  151.6340 C   0  0  0  0  0  2  0  0  0  0  0  0
  160.7310  209.6400  152.7690 C   0  0  0  0  0  2  0  0  0  0  0  0
  161.3470  207.7480  155.8780 O   0  0  0  0  0  1  0  0  0  0  0  0
  161.3950  209.3780  154.1220 C   0  0  2  0  0  3  0  0  0  0  0  0
  160.5230  208.5180  155.0570 C   0  0  2  0  0  3  0  0  0  0  0  0
  159.9360  210.6070  156.2610 C   0  0  0  0  0  3  0  0  0  0  0  0
  161.1670  211.2330  155.7500 C   0  0  0  0  0  3  0  0  0  0  0  0
  161.8710  210.6540  154.7730 C   0  0  0  0  0  3  0  0  0  0  0  0
  159.6110  209.3570  155.9160 C   0  0  0  0  0  3  0  0  0  0  0  0
  1 10  1  0  0  0  0
  1  8  1  0  0  0  0
  2  6  1  0  0  0  0
  2 13  1  0  0  0  0
  3  8  1  0  0  0  0
  3 16  2  0  0  0  0
  4  9  1  0  0  0  0
  5 12  1  0  0  0  0
  7 13  2  0  0  0  0
  8  2  2  0  0  0  0
  9 16  1  0  0  0  0
  9 25  1  1  0  0  0
 11  3  1  0  0  0  0
 12  1  2  0  0  0  0
 14  4  1  0  0  0  0
 15 14  1  6  0  0  0
 15 11  1  0  0  0  0
 16  7  1  0  0  0  0
 17 12  1  0  0  0  0
 17 11  2  0  0  0  0
 18 24  1  6  0  0  0
 18 22  1  0  0  0  0
 19 21  1  0  0  0  0
 19 18  1  0  0  0  0
 20 22  1  6  0  0  0
 20 15  1  0  0  0  0
 21 23  1  0  0  0  0
 23 20  1  0  0  0  0
 25 26  1  0  0  0  0
 26 27  1  0  0  0  0
 29 27  1  6  0  0  0
 29 33  1  0  0  0  0
 29 30  1  0  0  0  0
 30 28  1  1  0  0  0
 30 34  1  0  0  0  0
 32 31  1  0  0  0  0
 33 32  2  0  0  0  0
 34 31  2  0  0  0  0
M  END
>  <MODEL>
5

>  <REMARK>
 VINA RESULT:      -7.1      3.488      7.500
  Name = 
  5 active torsions:
  status: ('A' for Active; 'I' for Inactive)
    1  A    between atoms: C_3  and  C_13
    2  A    between atoms: C_3  and  C_17
    3  A    between atoms: C_12  and  C_28
    4  A    between atoms: C_17  and  C_29
    5  A    between atoms: C_18  and  C_29
                            x       y       z     vdW  Elec       q    Type
                         _______ _______ _______ _____ _____    ______ ____

>  <TORSDO>
F 5

$$$$
=
 OpenBabel11062407493D

 34 38  0  0  1  0  0  0  0  0999 V2000
  160.9740  204.5290  149.9210 C   0  0  0  0  0  0  0  0  0  0  0  0
  161.7710  205.4420  147.7650 C   0  0  0  0  0  0  0  0  0  0  0  0
  161.3520  206.9540  149.6490 C   0  0  0  0  0  0  0  0  0  0  0  0
  162.6590  209.8610  150.2890 C   0  0  0  0  0  2  0  0  0  0  0  0
  160.1140  203.4290  152.3130 Cl  0  0  0  0  0  0  0  0  0  0  0  0
  161.8320  204.2200  147.1790 F   0  0  0  0  0  0  0  0  0  0  0  0
  162.0940  207.7810  147.5110 N   0  0  0  0  0  0  0  0  0  0  0  0
  161.3640  205.6270  149.1060 C   0  0  0  0  0  0  0  0  0  0  0  0
  161.6240  209.4880  149.2250 C   0  0  2  0  0  3  0  0  0  0  0  0
  160.9390  203.1230  149.4030 C   0  0  0  0  0  1  0  0  0  0  0  0
  161.0090  207.1340  151.0260 C   0  0  0  0  0  0  0  0  0  0  0  0
  160.6050  204.7460  151.2540 C   0  0  0  0  0  0  0  0  0  0  0  0
  162.1400  206.5340  146.9950 C   0  0  0  0  0  3  0  0  0  0  0  0
  162.4920  209.0740  151.5880 C   0  0  0  0  0  2  0  0  0  0  0  0
  161.0880  208.4850  151.7170 C   0  0  2  0  0  3  0  0  0  0  0  0
  161.7050  208.0390  148.7880 C   0  0  0  0  0  0  0  0  0  0  0  0
  160.6370  206.0230  151.7870 C   0  0  0  0  0  3  0  0  0  0  0  0
  160.9150  210.7790  154.2880 C   0  0  1  0  0  3  0  0  0  0  0  0
  161.2490  210.1200  155.6330 C   0  0  0  0  0  2  0  0  0  0  0  0
  160.5500  208.5380  153.1580 C   0  0  2  0  0  3  0  0  0  0  0  0
  161.2370  208.5860  155.5870 C   0  0  0  0  0  2  0  0  0  0  0  0
  159.9560  209.9230  153.4620 C   0  0  0  0  0  2  0  0  0  0  0  0
  161.5870  208.0670  154.1960 C   0  0  0  0  0  2  0  0  0  0  0  0
  160.3550  212.0360  154.5090 O   0  0  0  0  0  1  0  0  0  0  0  0
  161.5500  210.5160  148.0870 C   0  0  0  0  0  2  0  0  0  0  0  0
  161.5130  211.9580  148.5820 C   0  0  0  0  0  2  0  0  0  0  0  0
  160.2660  212.6720  148.0790 C   0  0  0  0  0  2  0  0  0  0  0  0
  160.0430  214.4530  151.3050 O   0  0  0  0  0  1  0  0  0  0  0  0
  159.8170  213.8000  149.0100 C   0  0  2  0  0  3  0  0  0  0  0  0
  159.7480  213.3630  150.4860 C   0  0  2  0  0  3  0  0  0  0  0  0
  157.2850  213.2160  150.2210 C   0  0  0  0  0  3  0  0  0  0  0  0
  157.3650  214.1510  149.0840 C   0  0  0  0  0  3  0  0  0  0  0  0
  158.5430  214.4520  148.5320 C   0  0  0  0  0  3  0  0  0  0  0  0
  158.3920  212.8170  150.8550 C   0  0  0  0  0  3  0  0  0  0  0  0
  1 12  1  0  0  0  0
  2  8  1  0  0  0  0
  3 11  2  0  0  0  0
  4 14  1  0  0  0  0
  6  2  1  0  0  0  0
  7 16  2  0  0  0  0
  8  3  1  0  0  0  0
  8  1  2  0  0  0  0
  9 25  1  6  0  0  0
  9  4  1  0  0  0  0
 10  1  1  0  0  0  0
 11 15  1  0  0  0  0
 11 17  1  0  0  0  0
 12 17  2  0  0  0  0
 12  5  1  0  0  0  0
 13  7  1  0  0  0  0
 13  2  2  0  0  0  0
 15 14  1  1  0  0  0
 15 20  1  0  0  0  0
 16  9  1  0  0  0  0
 16  3  1  0  0  0  0
 18 24  1  1  0  0  0
 18 19  1  0  0  0  0
 20 22  1  1  0  0  0
 20 23  1  0  0  0  0
 21 19  1  0  0  0  0
 22 18  1  0  0  0  0
 23 21  1  0  0  0  0
 25 26  1  0  0  0  0
 27 26  1  0  0  0  0
 29 27  1  6  0  0  0
 29 30  1  0  0  0  0
 30 34  1  0  0  0  0
 30 28  1  1  0  0  0
 31 34  2  0  0  0  0
 32 31  1  0  0  0  0
 33 29  1  0  0  0  0
 33 32  2  0  0  0  0
M  END
>  <MODEL>
6

>  <REMARK>
 VINA RESULT:      -6.6      3.302      7.711
  Name = 
  5 active torsions:
  status: ('A' for Active; 'I' for Inactive)
    1  A    between atoms: C_3  and  C_13
    2  A    between atoms: C_3  and  C_17
    3  A    between atoms: C_12  and  C_28
    4  A    between atoms: C_17  and  C_29
    5  A    between atoms: C_18  and  C_29
                            x       y       z     vdW  Elec       q    Type
                         _______ _______ _______ _____ _____    ______ ____

>  <TORSDO>
F 5

$$$$
=
 OpenBabel11062407493D

 34 38  0  0  1  0  0  0  0  0999 V2000
  160.5020  209.9710  155.7790 C   0  0  0  0  0  0  0  0  0  0  0  0
  160.6840  207.5350  155.3880 C   0  0  0  0  0  0  0  0  0  0  0  0
  160.7580  209.0850  153.4880 C   0  0  0  0  0  0  0  0  0  0  0  0
  162.1450  208.7060  150.5720 C   0  0  0  0  0  2  0  0  0  0  0  0
  160.3250  212.6850  156.2990 Cl  0  0  0  0  0  0  0  0  0  0  0  0
  160.6050  207.2370  156.7080 F   0  0  0  0  0  0  0  0  0  0  0  0
  160.8930  206.7000  153.1740 N   0  0  0  0  0  0  0  0  0  0  0  0
  160.6450  208.8620  154.9000 C   0  0  0  0  0  0  0  0  0  0  0  0
  160.8710  208.0590  151.1200 C   0  0  2  0  0  3  0  0  0  0  0  0
  160.3510  209.8010  157.2600 C   0  0  0  0  0  1  0  0  0  0  0  0
  160.7910  210.4290  153.0010 C   0  0  0  0  0  0  0  0  0  0  0  0
  160.4970  211.2740  155.2640 C   0  0  0  0  0  0  0  0  0  0  0  0
  160.8190  206.4760  154.5040 C   0  0  0  0  0  3  0  0  0  0  0  0
  162.3410  210.1420  151.0530 C   0  0  0  0  0  2  0  0  0  0  0  0
  161.0310  210.7620  151.5390 C   0  0  2  0  0  3  0  0  0  0  0  0
  160.8530  207.9450  152.6310 C   0  0  0  0  0  0  0  0  0  0  0  0
  160.6520  211.4850  153.9040 C   0  0  0  0  0  3  0  0  0  0  0  0
  158.5140  212.9300  150.6050 C   0  0  1  0  0  3  0  0  0  0  0  0
  158.9710  213.8330  149.4510 C   0  0  0  0  0  2  0  0  0  0  0  0
  160.8940  212.2450  151.1520 C   0  0  2  0  0  3  0  0  0  0  0  0
  160.4870  213.8160  149.2180 C   0  0  0  0  0  2  0  0  0  0  0  0
  159.5790  212.8270  151.6960 C   0  0  0  0  0  2  0  0  0  0  0  0
  161.1020  212.4870  149.6440 C   0  0  0  0  0  2  0  0  0  0  0  0
  157.3300  213.4260  151.1470 O   0  0  0  0  0  1  0  0  0  0  0  0
  160.4810  206.7840  150.3580 C   0  0  0  0  0  2  0  0  0  0  0  0
  161.5210  206.3590  149.3270 C   0  0  0  0  0  2  0  0  0  0  0  0
  161.8740  204.8860  149.4890 C   0  0  0  0  0  2  0  0  0  0  0  0
  160.4100  203.4300  152.5490 O   0  0  0  0  0  1  0  0  0  0  0  0
  160.8240  204.1140  150.2900 C   0  0  2  0  0  3  0  0  0  0  0  0
  161.4000  203.4740  151.5680 C   0  0  2  0  0  3  0  0  0  0  0  0
  161.4110  201.3090  150.3560 C   0  0  0  0  0  3  0  0  0  0  0  0
  160.3740  201.8270  149.4470 C   0  0  0  0  0  3  0  0  0  0  0  0
  160.0720  203.1280  149.4290 C   0  0  0  0  0  3  0  0  0  0  0  0
  161.9200  202.0800  151.3220 C   0  0  0  0  0  3  0  0  0  0  0  0
  1 10  1  0  0  0  0
  2  6  1  0  0  0  0
  3  8  1  0  0  0  0
  4 14  1  0  0  0  0
  4  9  1  0  0  0  0
  7 13  1  0  0  0  0
  8  2  1  0  0  0  0
  8  1  2  0  0  0  0
  9 25  1  6  0  0  0
  9 16  1  0  0  0  0
 11  3  2  0  0  0  0
 11 17  1  0  0  0  0
 12  1  1  0  0  0  0
 12  5  1  0  0  0  0
 13  2  2  0  0  0  0
 15 14  1  1  0  0  0
 15 11  1  0  0  0  0
 16  7  2  0  0  0  0
 16  3  1  0  0  0  0
 17 12  2  0  0  0  0
 18 24  1  1  0  0  0
 18 22  1  0  0  0  0
 19 18  1  0  0  0  0
 20 23  1  6  0  0  0
 20 15  1  0  0  0  0
 20 22  1  0  0  0  0
 21 19  1  0  0  0  0
 21 23  1  0  0  0  0
 26 27  1  0  0  0  0
 26 25  1  0  0  0  0
 29 27  1  6  0  0  0
 29 30  1  0  0  0  0
 30 28  1  1  0  0  0
 31 34  2  0  0  0  0
 32 31  1  0  0  0  0
 33 32  2  0  0  0  0
 33 29  1  0  0  0  0
 34 30  1  0  0  0  0
M  END
>  <MODEL>
7

>  <REMARK>
 VINA RESULT:      -6.4      2.398      3.290
  Name = 
  5 active torsions:
  status: ('A' for Active; 'I' for Inactive)
    1  A    between atoms: C_3  and  C_13
    2  A    between atoms: C_3  and  C_17
    3  A    between atoms: C_12  and  C_28
    4  A    between atoms: C_17  and  C_29
    5  A    between atoms: C_18  and  C_29
                            x       y       z     vdW  Elec       q    Type
                         _______ _______ _______ _____ _____    ______ ____

>  <TORSDO>
F 5

$$$$
=
 OpenBabel11062407493D

 34 38  0  0  1  0  0  0  0  0999 V2000
  161.5780  204.9660  148.6350 C   0  0  0  0  0  0  0  0  0  0  0  0
  160.8850  203.6310  150.5990 C   0  0  0  0  0  0  0  0  0  0  0  0
  161.4320  206.0060  150.8700 C   0  0  0  0  0  0  0  0  0  0  0  0
  160.4010  208.1150  153.1200 C   0  0  0  0  0  2  0  0  0  0  0  0
  162.3140  206.4030  146.3850 Cl  0  0  0  0  0  0  0  0  0  0  0  0
  160.7140  202.5010  149.8700 F   0  0  0  0  0  0  0  0  0  0  0  0
  160.7860  204.6400  152.7470 N   0  0  0  0  0  0  0  0  0  0  0  0
  161.2990  204.8560  150.0260 C   0  0  0  0  0  0  0  0  0  0  0  0
  161.4020  206.9680  153.2680 C   0  0  2  0  0  3  0  0  0  0  0  0
  161.4850  203.7940  147.7070 C   0  0  0  0  0  1  0  0  0  0  0  0
  161.7810  207.2610  150.2790 C   0  0  0  0  0  0  0  0  0  0  0  0
  161.9570  206.2020  148.0960 C   0  0  0  0  0  0  0  0  0  0  0  0
  160.6270  203.5550  151.9590 C   0  0  0  0  0  3  0  0  0  0  0  0
  160.4830  208.8090  151.7620 C   0  0  0  0  0  2  0  0  0  0  0  0
  161.8250  208.5540  151.0750 C   0  0  2  0  0  3  0  0  0  0  0  0
  161.1890  205.8470  152.2700 C   0  0  0  0  0  0  0  0  0  0  0  0
  162.0410  207.3200  148.9080 C   0  0  0  0  0  3  0  0  0  0  0  0
  160.7870  211.7800  150.4260 C   0  0  1  0  0  3  0  0  0  0  0  0
  161.0810  212.1670  148.9700 C   0  0  0  0  0  2  0  0  0  0  0  0
  162.3560  209.7900  150.3270 C   0  0  2  0  0  3  0  0  0  0  0  0
  162.0450  211.2070  148.2610 C   0  0  0  0  0  2  0  0  0  0  0  0
  161.9790  211.0790  151.0750 C   0  0  0  0  0  2  0  0  0  0  0  0
  161.9560  209.7990  148.8380 C   0  0  0  0  0  2  0  0  0  0  0  0
  160.4560  212.9210  151.1560 O   0  0  0  0  0  1  0  0  0  0  0  0
  161.5810  206.5250  154.7270 C   0  0  0  0  0  2  0  0  0  0  0  0
  161.5810  207.6890  155.7130 C   0  0  0  0  0  2  0  0  0  0  0  0
  160.1590  208.0830  156.0860 C   0  0  0  0  0  2  0  0  0  0  0  0
  158.4370  211.2680  156.8080 O   0  0  0  0  0  1  0  0  0  0  0  0
  160.0630  209.5190  156.6060 C   0  0  2  0  0  3  0  0  0  0  0  0
  158.9520  210.3320  155.9120 C   0  0  2  0  0  3  0  0  0  0  0  0
  160.7300  211.4180  154.5650 C   0  0  0  0  0  3  0  0  0  0  0  0
  161.7120  211.0790  155.6090 C   0  0  0  0  0  3  0  0  0  0  0  0
  161.4010  210.2170  156.5810 C   0  0  0  0  0  3  0  0  0  0  0  0
  159.4520  211.0440  154.6810 C   0  0  0  0  0  3  0  0  0  0  0  0
  1  8  1  0  0  0  0
  2 13  1  0  0  0  0
  3 16  2  0  0  0  0
  4  9  1  0  0  0  0
  5 12  1  0  0  0  0
  6  2  1  0  0  0  0
  8  2  2  0  0  0  0
  8  3  1  0  0  0  0
  9 25  1  1  0  0  0
 10  1  1  0  0  0  0
 11  3  1  0  0  0  0
 11 15  1  0  0  0  0
 12  1  2  0  0  0  0
 12 17  1  0  0  0  0
 13  7  2  0  0  0  0
 14  4  1  0  0  0  0
 15 14  1  6  0  0  0
 16  7  1  0  0  0  0
 16  9  1  0  0  0  0
 17 11  2  0  0  0  0
 18 22  1  0  0  0  0
 18 24  1  1  0  0  0
 19 18  1  0  0  0  0
 20 23  1  6  0  0  0
 20 22  1  0  0  0  0
 20 15  1  0  0  0  0
 21 23  1  0  0  0  0
 21 19  1  0  0  0  0
 25 26  1  0  0  0  0
 26 27  1  0  0  0  0
 29 27  1  6  0  0  0
 30 29  1  0  0  0  0
 30 28  1  1  0  0  0
 31 34  2  0  0  0  0
 31 32  1  0  0  0  0
 32 33  2  0  0  0  0
 33 29  1  0  0  0  0
 34 30  1  0  0  0  0
M  END
>  <MODEL>
8

>  <REMARK>
 VINA RESULT:      -6.2      3.194      7.223
  Name = 
  5 active torsions:
  status: ('A' for Active; 'I' for Inactive)
    1  A    between atoms: C_3  and  C_13
    2  A    between atoms: C_3  and  C_17
    3  A    between atoms: C_12  and  C_28
    4  A    between atoms: C_17  and  C_29
    5  A    between atoms: C_18  and  C_29
                            x       y       z     vdW  Elec       q    Type
                         _______ _______ _______ _____ _____    ______ ____

>  <TORSDO>
F 5

$$$$
=
 OpenBabel11062407493D

 34 38  0  0  1  0  0  0  0  0999 V2000
  159.6030  211.6450  154.4380 C   0  0  0  0  0  0  0  0  0  0  0  0
  160.2930  209.2820  154.6870 C   0  0  0  0  0  0  0  0  0  0  0  0
  160.4420  210.3730  152.4960 C   0  0  0  0  0  0  0  0  0  0  0  0
  162.3990  209.7010  149.9880 C   0  0  0  0  0  2  0  0  0  0  0  0
  158.8420  214.3010  154.2460 Cl  0  0  0  0  0  0  0  0  0  0  0  0
  160.0210  209.2600  156.0150 F   0  0  0  0  0  0  0  0  0  0  0  0
  161.0630  208.0650  152.7990 N   0  0  0  0  0  0  0  0  0  0  0  0
  160.1070  210.4340  153.8880 C   0  0  0  0  0  0  0  0  0  0  0  0
  161.1830  208.9210  150.4920 C   0  0  2  0  0  3  0  0  0  0  0  0
  159.2080  211.7630  155.8790 C   0  0  0  0  0  1  0  0  0  0  0  0
  160.3220  211.5570  151.7030 C   0  0  0  0  0  0  0  0  0  0  0  0
  159.4590  212.7750  153.6240 C   0  0  0  0  0  0  0  0  0  0  0  0
  160.7810  208.1170  154.1180 C   0  0  0  0  0  3  0  0  0  0  0  0
  162.2380  211.2140  150.1250 C   0  0  0  0  0  2  0  0  0  0  0  0
  160.7700  211.6180  150.2530 C   0  0  2  0  0  3  0  0  0  0  0  0
  160.9020  209.1270  151.9660 C   0  0  0  0  0  0  0  0  0  0  0  0
  159.8260  212.7240  152.2900 C   0  0  0  0  0  3  0  0  0  0  0  0
  159.5390  212.5300  147.1610 C   0  0  1  0  0  3  0  0  0  0  0  0
  160.3210  213.7200  146.5900 C   0  0  0  0  0  2  0  0  0  0  0  0
  160.4420  212.9190  149.4990 C   0  0  2  0  0  3  0  0  0  0  0  0
  161.2010  214.4330  147.6260 C   0  0  0  0  0  2  0  0  0  0  0  0
  159.1850  212.7410  148.6320 C   0  0  0  0  0  2  0  0  0  0  0  0
  161.6530  213.4770  148.7250 C   0  0  0  0  0  2  0  0  0  0  0  0
  158.3750  212.3360  146.4190 O   0  0  0  0  0  1  0  0  0  0  0  0
  161.1820  207.4600  150.0190 C   0  0  0  0  0  2  0  0  0  0  0  0
  161.3640  207.3160  148.5120 C   0  0  0  0  0  2  0  0  0  0  0  0
  160.7960  205.9900  148.0210 C   0  0  0  0  0  2  0  0  0  0  0  0
  163.7650  204.7430  146.2150 O   0  0  0  0  0  1  0  0  0  0  0  0
  161.8870  204.9700  147.6870 C   0  0  2  0  0  3  0  0  0  0  0  0
  162.4220  205.1200  146.2490 C   0  0  2  0  0  3  0  0  0  0  0  0
  161.0320  203.1580  145.6370 C   0  0  0  0  0  3  0  0  0  0  0  0
  161.0320  202.7330  147.0470 C   0  0  0  0  0  3  0  0  0  0  0  0
  161.4560  203.5600  148.0070 C   0  0  0  0  0  3  0  0  0  0  0  0
  161.6460  204.2850  145.2630 C   0  0  0  0  0  3  0  0  0  0  0  0
  1 10  1  0  0  0  0
  2  6  1  0  0  0  0
  3  8  1  0  0  0  0
  4 14  1  0  0  0  0
  4  9  1  0  0  0  0
  7 13  2  0  0  0  0
  8  1  1  0  0  0  0
  8  2  2  0  0  0  0
  9 25  1  1  0  0  0
  9 16  1  0  0  0  0
 11 17  2  0  0  0  0
 11  3  1  0  0  0  0
 12  5  1  0  0  0  0
 12  1  2  0  0  0  0
 13  2  1  0  0  0  0
 15 14  1  1  0  0  0
 15 11  1  0  0  0  0
 16  3  2  0  0  0  0
 16  7  1  0  0  0  0
 17 12  1  0  0  0  0
 18 24  1  6  0  0  0
 18 22  1  0  0  0  0
 19 18  1  0  0  0  0
 19 21  1  0  0  0  0
 20 22  1  6  0  0  0
 20 15  1  0  0  0  0
 21 23  1  0  0  0  0
 23 20  1  0  0  0  0
 26 25  1  0  0  0  0
 27 26  1  0  0  0  0
 29 33  1  0  0  0  0
 29 27  1  6  0  0  0
 30 28  1  1  0  0  0
 30 29  1  0  0  0  0
 31 32  1  0  0  0  0
 32 33  2  0  0  0  0
 34 31  2  0  0  0  0
 34 30  1  0  0  0  0
M  END
>  <MODEL>
9

>  <REMARK>
 VINA RESULT:      -6.2      2.401      3.391
  Name = 
  5 active torsions:
  status: ('A' for Active; 'I' for Inactive)
    1  A    between atoms: C_3  and  C_13
    2  A    between atoms: C_3  and  C_17
    3  A    between atoms: C_12  and  C_28
    4  A    between atoms: C_17  and  C_29
    5  A    between atoms: C_18  and  C_29
                            x       y       z     vdW  Elec       q    Type
                         _______ _______ _______ _____ _____    ______ ____

>  <TORSDO>
F 5

$$$$
