=
 OpenBabel11062408173D

 32 37  0  0  1  0  0  0  0  0999 V2000
  160.6750  208.7970  153.0850 C   0  0  1  0  0  3  0  0  0  0  0  0
  159.1780  210.4420  153.8540 C   0  0  0  0  0  2  0  0  0  0  0  0
  160.7010  207.3010  153.4260 C   0  0  0  0  0  2  0  0  0  0  0  0
  160.3830  209.6870  154.2270 N   0  0  1  0  0  0  0  0  0  0  0  0
  158.4860  211.1470  155.0320 C   0  0  1  0  0  0  0  0  0  0  0  0
  156.1820  211.0830  155.5840 C   0  0  0  0  0  0  0  0  0  0  0  0
  156.2490  212.5330  155.3020 C   0  0  2  0  0  3  0  0  0  0  0  0
  160.1640  208.9720  155.5010 C   0  0  2  0  0  3  0  0  0  0  0  0
  157.8540  212.7810  154.4740 S   0  0  0  0  0  0  0  0  0  0  0  0
  160.0710  209.9670  156.6600 C   0  0  0  0  0  2  0  0  0  0  0  0
  161.3050  207.9980  155.7980 C   0  0  0  0  0  2  0  0  0  0  0  0
  157.3580  210.3790  155.4140 O   0  0  0  0  0  0  0  0  0  0  0  0
  159.4150  211.2940  156.2560 C   0  0  1  0  0  3  0  0  0  0  0  0
  161.5740  207.0270  154.6470 C   0  0  0  0  0  2  0  0  0  0  0  0
  155.1200  210.5130  155.9470 O   0  0  0  0  0  0  0  0  0  0  0  0
  155.2170  214.4420  156.5030 C   0  0  0  0  0  2  0  0  0  0  0  0
  156.2260  213.3150  156.6060 C   0  0  0  0  0  3  0  0  0  0  0  0
  154.8630  213.1780  157.2550 C   0  0  0  0  0  2  0  0  0  0  0  0
  160.4510  212.4200  156.1610 C   0  0  0  0  0  2  0  0  0  0  0  0
  160.1580  213.4650  157.0370 O   0  0  0  0  0  1  0  0  0  0  0  0
  162.5270  210.3290  153.0050 O   0  0  0  0  0  1  0  0  0  0  0  0
  161.9480  209.2360  152.3520 C   0  0  2  0  0  3  0  0  0  0  0  0
  161.3490  210.1220  148.2600 O   0  0  0  0  0  0  0  0  0  0  0  0
  162.0760  208.9330  148.4790 C   0  0  0  0  0  2  0  0  0  0  0  0
  161.9400  211.1890  148.9980 C   0  0  1  0  0  3  0  0  0  0  0  0
  161.6430  209.5870  150.8910 C   0  0  1  0  0  3  0  0  0  0  0  0
  162.3900  210.8330  150.4260 C   0  0  0  0  0  2  0  0  0  0  0  0
  161.8960  208.4210  149.9130 C   0  0  2  0  0  3  0  0  0  0  0  0
  163.0350  207.6990  150.2750 O   0  0  0  0  0  1  0  0  0  0  0  0
  162.9750  212.0360  148.2380 C   0  0  0  0  0  3  0  0  0  0  0  0
  162.3810  212.6500  146.9830 C   0  0  0  0  0  2  0  0  0  0  0  0
  162.6220  213.5130  148.2030 C   0  0  0  0  0  2  0  0  0  0  0  0
  1 22  1  1  0  0  0
  1  3  1  0  0  0  0
  1  4  1  0  0  0  0
  3 14  1  0  0  0  0
  4  2  1  6  0  0  0
  4  8  1  0  0  0  0
  5  2  1  6  0  0  0
  5 12  1  0  0  0  0
  5 13  1  0  0  0  0
  6 15  2  0  0  0  0
  7  6  1  0  0  0  0
  7 17  1  1  0  0  0
  8 11  1  1  0  0  0
  8 10  1  0  0  0  0
  9  5  1  0  0  0  0
  9  7  1  0  0  0  0
 12  6  1  0  0  0  0
 13 19  1  6  0  0  0
 13 10  1  0  0  0  0
 14 11  1  0  0  0  0
 16 17  1  0  0  0  0
 16 18  1  0  0  0  0
 17 18  1  0  0  0  0
 19 20  1  0  0  0  0
 22 21  1  1  0  0  0
 23 24  1  0  0  0  0
 23 25  1  0  0  0  0
 24 28  1  0  0  0  0
 25 30  1  6  0  0  0
 25 27  1  0  0  0  0
 26 22  1  1  0  0  0
 27 26  1  0  0  0  0
 28 29  1  1  0  0  0
 28 26  1  0  0  0  0
 31 32  1  0  0  0  0
 31 30  1  0  0  0  0
 32 30  1  0  0  0  0
M  END
>  <MODEL>
1

>  <REMARK>
 VINA RESULT:      -5.1      0.000      0.000
  Name = 
  5 active torsions:
  status: ('A' for Active; 'I' for Inactive)
    1  A    between atoms: C_1  and  C_27
    2  A    between atoms: C_7  and  C_15
    3  A    between atoms: C_11  and  C_12
    4  A    between atoms: C_13  and  C_29
    5  A    between atoms: C_16  and  C_27
                            x       y       z     vdW  Elec       q    Type
                         _______ _______ _______ _____ _____    ______ ____

>  <TORSDO>
F 5

$$$$
=
 OpenBabel11062408173D

 32 37  0  0  1  0  0  0  0  0999 V2000
  160.8970  208.6750  153.0780 C   0  0  1  0  0  3  0  0  0  0  0  0
  159.4740  210.3730  153.8710 C   0  0  0  0  0  2  0  0  0  0  0  0
  160.7490  207.1570  153.2420 C   0  0  0  0  0  2  0  0  0  0  0  0
  160.5540  209.4630  154.2800 N   0  0  1  0  0  0  0  0  0  0  0  0
  158.7140  211.0150  155.0440 C   0  0  1  0  0  0  0  0  0  0  0  0
  156.3650  211.1280  155.3360 C   0  0  0  0  0  0  0  0  0  0  0  0
  156.5940  212.5860  155.2350 C   0  0  2  0  0  3  0  0  0  0  0  0
  160.1240  208.6430  155.4290 C   0  0  2  0  0  3  0  0  0  0  0  0
  158.3010  212.7550  154.6180 S   0  0  0  0  0  0  0  0  0  0  0  0
  159.9840  209.5120  156.6820 C   0  0  0  0  0  2  0  0  0  0  0  0
  161.1300  207.5310  155.7300 C   0  0  0  0  0  2  0  0  0  0  0  0
  157.4840  210.3300  155.2100 O   0  0  0  0  0  0  0  0  0  0  0  0
  159.5020  210.9340  156.3690 C   0  0  1  0  0  3  0  0  0  0  0  0
  161.4450  206.6650  154.5080 C   0  0  0  0  0  2  0  0  0  0  0  0
  155.2210  210.6340  155.5140 O   0  0  0  0  0  0  0  0  0  0  0  0
  155.6060  214.4530  156.5350 C   0  0  0  0  0  2  0  0  0  0  0  0
  156.4870  213.2220  156.6120 C   0  0  0  0  0  3  0  0  0  0  0  0
  155.0500  213.1590  157.0900 C   0  0  0  0  0  2  0  0  0  0  0  0
  160.6390  211.9530  156.5180 C   0  0  0  0  0  2  0  0  0  0  0  0
  161.7640  211.3840  157.1160 O   0  0  0  0  0  1  0  0  0  0  0  0
  162.5070  210.4260  152.7230 O   0  0  0  0  0  1  0  0  0  0  0  0
  162.2820  209.0580  152.5420 C   0  0  2  0  0  3  0  0  0  0  0  0
  162.4080  208.1370  148.4160 O   0  0  0  0  0  0  0  0  0  0  0  0
  161.8200  209.3880  148.6970 C   0  0  0  0  0  2  0  0  0  0  0  0
  161.7920  207.1270  149.2110 C   0  0  1  0  0  3  0  0  0  0  0  0
  162.4150  208.6860  151.0610 C   0  0  1  0  0  3  0  0  0  0  0  0
  161.5130  207.5180  150.6740 C   0  0  0  0  0  2  0  0  0  0  0  0
  162.1820  209.8750  150.1050 C   0  0  2  0  0  3  0  0  0  0  0  0
  161.1540  210.6980  150.5690 O   0  0  0  0  0  1  0  0  0  0  0  0
  160.6150  206.3840  148.5560 C   0  0  0  0  0  3  0  0  0  0  0  0
  160.8650  206.1360  147.0790 C   0  0  0  0  0  2  0  0  0  0  0  0
  160.9890  204.9950  148.0670 C   0  0  0  0  0  2  0  0  0  0  0  0
  1 22  1  1  0  0  0
  1  3  1  0  0  0  0
  1  4  1  0  0  0  0
  3 14  1  0  0  0  0
  4  2  1  6  0  0  0
  4  8  1  0  0  0  0
  5  2  1  6  0  0  0
  5 12  1  0  0  0  0
  5 13  1  0  0  0  0
  6 15  2  0  0  0  0
  7  6  1  0  0  0  0
  7 17  1  1  0  0  0
  8 11  1  1  0  0  0
  8 10  1  0  0  0  0
  9  5  1  0  0  0  0
  9  7  1  0  0  0  0
 12  6  1  0  0  0  0
 13 19  1  6  0  0  0
 13 10  1  0  0  0  0
 14 11  1  0  0  0  0
 16 17  1  0  0  0  0
 16 18  1  0  0  0  0
 17 18  1  0  0  0  0
 19 20  1  0  0  0  0
 22 21  1  6  0  0  0
 23 24  1  0  0  0  0
 23 25  1  0  0  0  0
 24 28  1  0  0  0  0
 25 30  1  6  0  0  0
 25 27  1  0  0  0  0
 26 22  1  1  0  0  0
 27 26  1  0  0  0  0
 28 29  1  1  0  0  0
 28 26  1  0  0  0  0
 31 32  1  0  0  0  0
 31 30  1  0  0  0  0
 32 30  1  0  0  0  0
M  END
>  <MODEL>
2

>  <REMARK>
 VINA RESULT:      -5.1      1.430      2.607
  Name = 
  5 active torsions:
  status: ('A' for Active; 'I' for Inactive)
    1  A    between atoms: C_1  and  C_27
    2  A    between atoms: C_7  and  C_15
    3  A    between atoms: C_11  and  C_12
    4  A    between atoms: C_13  and  C_29
    5  A    between atoms: C_16  and  C_27
                            x       y       z     vdW  Elec       q    Type
                         _______ _______ _______ _____ _____    ______ ____

>  <TORSDO>
F 5

$$$$
=
 OpenBabel11062408173D

 32 37  0  0  1  0  0  0  0  0999 V2000
  161.7440  206.9030  151.5500 C   0  0  1  0  0  3  0  0  0  0  0  0
  161.1920  208.2400  153.4060 C   0  0  0  0  0  2  0  0  0  0  0  0
  163.0000  206.9680  150.6710 C   0  0  0  0  0  2  0  0  0  0  0  0
  161.1910  208.2180  151.9360 N   0  0  1  0  0  0  0  0  0  0  0  0
  161.0120  209.6410  154.0150 C   0  0  1  0  0  0  0  0  0  0  0  0
  162.3270  210.6420  155.7130 C   0  0  0  0  0  0  0  0  0  0  0  0
  161.0610  210.6080  156.4760 C   0  0  2  0  0  3  0  0  0  0  0  0
  161.9540  209.3650  151.4060 C   0  0  2  0  0  3  0  0  0  0  0  0
  159.9580  209.5180  155.5160 S   0  0  0  0  0  0  0  0  0  0  0  0
  161.2070  210.6730  151.6800 C   0  0  0  0  0  2  0  0  0  0  0  0
  162.1690  209.2440  149.8970 C   0  0  0  0  0  2  0  0  0  0  0  0
  162.2800  210.1110  154.4400 O   0  0  0  0  0  0  0  0  0  0  0  0
  160.4300  210.6510  153.0020 C   0  0  1  0  0  3  0  0  0  0  0  0
  162.8020  207.9130  149.4900 C   0  0  0  0  0  2  0  0  0  0  0  0
  163.3910  211.1150  156.1900 O   0  0  0  0  0  0  0  0  0  0  0  0
  159.1690  212.0380  155.7510 C   0  0  0  0  0  2  0  0  0  0  0  0
  160.4600  212.0030  156.5440 C   0  0  0  0  0  3  0  0  0  0  0  0
  159.1250  211.9470  157.2610 C   0  0  0  0  0  2  0  0  0  0  0  0
  158.9200  210.5370  152.7580 C   0  0  0  0  0  2  0  0  0  0  0  0
  158.3760  211.7460  152.3240 O   0  0  0  0  0  1  0  0  0  0  0  0
  160.1100  205.1760  151.9120 O   0  0  0  0  0  1  0  0  0  0  0  0
  160.6620  206.0070  150.9320 C   0  0  2  0  0  3  0  0  0  0  0  0
  162.0140  203.7160  147.6440 O   0  0  0  0  0  0  0  0  0  0  0  0
  161.1680  204.7840  147.2780 C   0  0  0  0  0  2  0  0  0  0  0  0
  161.3950  202.9420  148.6680 C   0  0  1  0  0  3  0  0  0  0  0  0
  161.2380  205.1710  149.7840 C   0  0  1  0  0  3  0  0  0  0  0  0
  160.6820  203.7510  149.7670 C   0  0  0  0  0  2  0  0  0  0  0  0
  161.0610  205.8260  148.3980 C   0  0  2  0  0  3  0  0  0  0  0  0
  159.8230  206.4630  148.2970 O   0  0  0  0  0  1  0  0  0  0  0  0
  160.5740  201.7320  148.1880 C   0  0  0  0  0  3  0  0  0  0  0  0
  160.9660  201.3150  146.7820 C   0  0  0  0  0  2  0  0  0  0  0  0
  161.4210  200.4910  147.9680 C   0  0  0  0  0  2  0  0  0  0  0  0
  1 22  1  6  0  0  0
  1  4  1  0  0  0  0
  3  1  1  0  0  0  0
  4  2  1  1  0  0  0
  5  2  1  6  0  0  0
  5 12  1  0  0  0  0
  5  9  1  0  0  0  0
  6 15  2  0  0  0  0
  6  7  1  0  0  0  0
  7 17  1  6  0  0  0
  8 11  1  6  0  0  0
  8 10  1  0  0  0  0
  8  4  1  0  0  0  0
  9  7  1  0  0  0  0
 10 13  1  0  0  0  0
 12  6  1  0  0  0  0
 13 19  1  6  0  0  0
 13  5  1  0  0  0  0
 14 11  1  0  0  0  0
 14  3  1  0  0  0  0
 16 17  1  0  0  0  0
 16 18  1  0  0  0  0
 17 18  1  0  0  0  0
 20 19  1  0  0  0  0
 22 21  1  1  0  0  0
 23 25  1  0  0  0  0
 24 23  1  0  0  0  0
 24 28  1  0  0  0  0
 25 30  1  6  0  0  0
 25 27  1  0  0  0  0
 26 22  1  1  0  0  0
 27 26  1  0  0  0  0
 28 29  1  1  0  0  0
 28 26  1  0  0  0  0
 31 32  1  0  0  0  0
 31 30  1  0  0  0  0
 32 30  1  0  0  0  0
M  END
>  <MODEL>
3

>  <REMARK>
 VINA RESULT:      -4.7      3.614      5.985
  Name = 
  5 active torsions:
  status: ('A' for Active; 'I' for Inactive)
    1  A    between atoms: C_1  and  C_27
    2  A    between atoms: C_7  and  C_15
    3  A    between atoms: C_11  and  C_12
    4  A    between atoms: C_13  and  C_29
    5  A    between atoms: C_16  and  C_27
                            x       y       z     vdW  Elec       q    Type
                         _______ _______ _______ _____ _____    ______ ____

>  <TORSDO>
F 5

$$$$
=
 OpenBabel11062408173D

 32 37  0  0  1  0  0  0  0  0999 V2000
  160.1570  208.2210  154.1440 C   0  0  1  0  0  3  0  0  0  0  0  0
  158.5600  209.9330  154.3820 C   0  0  0  0  0  2  0  0  0  0  0  0
  160.5000  207.0970  155.1300 C   0  0  0  0  0  2  0  0  0  0  0  0
  159.9230  209.5400  154.7670 N   0  0  1  0  0  0  0  0  0  0  0  0
  157.9750  211.0840  155.2180 C   0  0  1  0  0  0  0  0  0  0  0  0
  155.8510  211.1550  156.2660 C   0  0  0  0  0  0  0  0  0  0  0  0
  155.6160  212.2760  155.3300 C   0  0  2  0  0  3  0  0  0  0  0  0
  160.0580  209.5380  156.2380 C   0  0  2  0  0  3  0  0  0  0  0  0
  156.9840  212.1820  154.1270 S   0  0  0  0  0  0  0  0  0  0  0  0
  160.0010  210.9690  156.7790 C   0  0  0  0  0  2  0  0  0  0  0  0
  161.3840  208.9150  156.6760 C   0  0  0  0  0  2  0  0  0  0  0  0
  157.0810  210.5360  156.1720 O   0  0  0  0  0  0  0  0  0  0  0  0
  159.0670  211.8770  155.9690 C   0  0  1  0  0  3  0  0  0  0  0  0
  161.6090  207.5200  156.0890 C   0  0  0  0  0  2  0  0  0  0  0  0
  154.9840  210.7750  157.0960 O   0  0  0  0  0  0  0  0  0  0  0  0
  154.4920  214.4530  155.7130 C   0  0  0  0  0  2  0  0  0  0  0  0
  155.6900  213.5980  156.0780 C   0  0  0  0  0  3  0  0  0  0  0  0
  154.5160  213.7080  157.0300 C   0  0  0  0  0  2  0  0  0  0  0  0
  159.8600  212.8710  155.1130 C   0  0  0  0  0  2  0  0  0  0  0  0
  159.7410  214.1750  155.5940 O   0  0  0  0  0  1  0  0  0  0  0  0
  161.2610  209.6350  152.5410 O   0  0  0  0  0  1  0  0  0  0  0  0
  161.1870  208.3190  153.0110 C   0  0  2  0  0  3  0  0  0  0  0  0
  160.4580  205.6000  149.8550 O   0  0  0  0  0  0  0  0  0  0  0  0
  161.3410  205.1020  150.8360 C   0  0  0  0  0  2  0  0  0  0  0  0
  160.9000  206.8820  149.4180 C   0  0  1  0  0  3  0  0  0  0  0  0
  160.8310  207.3620  151.8680 C   0  0  1  0  0  3  0  0  0  0  0  0
  161.4000  207.8230  150.5300 C   0  0  0  0  0  2  0  0  0  0  0  0
  161.2370  205.8990  152.1420 C   0  0  2  0  0  3  0  0  0  0  0  0
  162.4660  205.8340  152.8030 O   0  0  0  0  0  1  0  0  0  0  0  0
  161.8080  206.8900  148.1750 C   0  0  0  0  0  3  0  0  0  0  0  0
  161.9470  205.5010  147.5780 C   0  0  0  0  0  2  0  0  0  0  0  0
  161.0680  206.5290  146.8990 C   0  0  0  0  0  2  0  0  0  0  0  0
  1 22  1  6  0  0  0
  1  4  1  0  0  0  0
  1  3  1  0  0  0  0
  3 14  1  0  0  0  0
  4  2  1  1  0  0  0
  4  8  1  0  0  0  0
  5  2  1  6  0  0  0
  5 13  1  0  0  0  0
  5 12  1  0  0  0  0
  6 15  2  0  0  0  0
  7 17  1  1  0  0  0
  7  6  1  0  0  0  0
  8 11  1  6  0  0  0
  8 10  1  0  0  0  0
  9  5  1  0  0  0  0
  9  7  1  0  0  0  0
 12  6  1  0  0  0  0
 13 19  1  6  0  0  0
 13 10  1  0  0  0  0
 14 11  1  0  0  0  0
 16 17  1  0  0  0  0
 16 18  1  0  0  0  0
 17 18  1  0  0  0  0
 19 20  1  0  0  0  0
 22 21  1  6  0  0  0
 23 24  1  0  0  0  0
 24 28  1  0  0  0  0
 25 30  1  6  0  0  0
 25 23  1  0  0  0  0
 25 27  1  0  0  0  0
 26 28  1  0  0  0  0
 26 22  1  1  0  0  0
 27 26  1  0  0  0  0
 28 29  1  6  0  0  0
 31 30  1  0  0  0  0
 32 31  1  0  0  0  0
 32 30  1  0  0  0  0
M  END
>  <MODEL>
4

>  <REMARK>
 VINA RESULT:      -4.5      2.395      2.869
  Name = 
  5 active torsions:
  status: ('A' for Active; 'I' for Inactive)
    1  A    between atoms: C_1  and  C_27
    2  A    between atoms: C_7  and  C_15
    3  A    between atoms: C_11  and  C_12
    4  A    between atoms: C_13  and  C_29
    5  A    between atoms: C_16  and  C_27
                            x       y       z     vdW  Elec       q    Type
                         _______ _______ _______ _____ _____    ______ ____

>  <TORSDO>
F 5

$$$$
=
 OpenBabel11062408173D

 32 37  0  0  1  0  0  0  0  0999 V2000
  161.0800  207.1810  151.7980 C   0  0  1  0  0  3  0  0  0  0  0  0
  160.3930  209.3090  152.5300 C   0  0  0  0  0  2  0  0  0  0  0  0
  160.5280  205.8100  152.2090 C   0  0  0  0  0  2  0  0  0  0  0  0
  161.2160  208.1500  152.9050 N   0  0  1  0  0  0  0  0  0  0  0  0
  160.0900  210.2690  153.6920 C   0  0  1  0  0  0  0  0  0  0  0  0
  157.9760  211.1420  154.3120 C   0  0  0  0  0  0  0  0  0  0  0  0
  158.5980  212.4370  153.9600 C   0  0  2  0  0  3  0  0  0  0  0  0
  160.7890  207.6220  154.2160 C   0  0  2  0  0  3  0  0  0  0  0  0
  160.1320  212.0000  153.0760 S   0  0  0  0  0  0  0  0  0  0  0  0
  161.1490  208.6090  155.3300 C   0  0  0  0  0  2  0  0  0  0  0  0
  161.4640  206.2850  154.5270 C   0  0  0  0  0  2  0  0  0  0  0  0
  158.7680  210.0250  154.1420 O   0  0  0  0  0  0  0  0  0  0  0  0
  161.0550  210.0730  154.8820 C   0  0  1  0  0  3  0  0  0  0  0  0
  161.2750  205.2500  153.4160 C   0  0  0  0  0  2  0  0  0  0  0  0
  156.7930  211.0540  154.7320 O   0  0  0  0  0  0  0  0  0  0  0  0
  158.0790  214.4460  155.3180 C   0  0  0  0  0  2  0  0  0  0  0  0
  158.9450  213.2050  155.2260 C   0  0  0  0  0  3  0  0  0  0  0  0
  157.7440  213.2280  156.1500 C   0  0  0  0  0  2  0  0  0  0  0  0
  162.4470  210.6920  154.7040 C   0  0  0  0  0  2  0  0  0  0  0  0
  163.1410  210.7540  155.9120 O   0  0  0  0  0  1  0  0  0  0  0  0
  162.7580  208.2980  150.4850 O   0  0  0  0  0  1  0  0  0  0  0  0
  162.3890  207.0540  151.0090 C   0  0  2  0  0  3  0  0  0  0  0  0
  161.7490  204.2630  147.8960 O   0  0  0  0  0  0  0  0  0  0  0  0
  161.0160  205.4590  147.7410 C   0  0  0  0  0  2  0  0  0  0  0  0
  161.5280  203.7310  149.1990 C   0  0  1  0  0  3  0  0  0  0  0  0
  162.2510  206.0210  149.8850 C   0  0  1  0  0  3  0  0  0  0  0  0
  161.5200  204.7630  150.3420 C   0  0  0  0  0  2  0  0  0  0  0  0
  161.5890  206.5850  148.6100 C   0  0  2  0  0  3  0  0  0  0  0  0
  160.5580  207.4710  148.9280 O   0  0  0  0  0  1  0  0  0  0  0  0
  160.3930  202.6990  149.3170 C   0  0  0  0  0  3  0  0  0  0  0  0
  160.5070  201.6190  148.2550 C   0  0  0  0  0  2  0  0  0  0  0  0
  160.8900  201.3110  149.6870 C   0  0  0  0  0  2  0  0  0  0  0  0
  1 22  1  1  0  0  0
  1  3  1  0  0  0  0
  1  4  1  0  0  0  0
  3 14  1  0  0  0  0
  4  2  1  6  0  0  0
  4  8  1  0  0  0  0
  5  2  1  6  0  0  0
  5 12  1  0  0  0  0
  5 13  1  0  0  0  0
  6 15  2  0  0  0  0
  7  6  1  0  0  0  0
  7 17  1  1  0  0  0
  8 11  1  1  0  0  0
  8 10  1  0  0  0  0
  9  5  1  0  0  0  0
  9  7  1  0  0  0  0
 12  6  1  0  0  0  0
 13 19  1  6  0  0  0
 13 10  1  0  0  0  0
 14 11  1  0  0  0  0
 16 18  1  0  0  0  0
 17 16  1  0  0  0  0
 17 18  1  0  0  0  0
 19 20  1  0  0  0  0
 22 21  1  6  0  0  0
 23 25  1  0  0  0  0
 24 23  1  0  0  0  0
 24 28  1  0  0  0  0
 25 30  1  6  0  0  0
 25 27  1  0  0  0  0
 26 27  1  0  0  0  0
 26 22  1  1  0  0  0
 28 29  1  1  0  0  0
 28 26  1  0  0  0  0
 30 32  1  0  0  0  0
 31 30  1  0  0  0  0
 31 32  1  0  0  0  0
M  END
>  <MODEL>
5

>  <REMARK>
 VINA RESULT:      -4.4      3.041      4.651
  Name = 
  5 active torsions:
  status: ('A' for Active; 'I' for Inactive)
    1  A    between atoms: C_1  and  C_27
    2  A    between atoms: C_7  and  C_15
    3  A    between atoms: C_11  and  C_12
    4  A    between atoms: C_13  and  C_29
    5  A    between atoms: C_16  and  C_27
                            x       y       z     vdW  Elec       q    Type
                         _______ _______ _______ _____ _____    ______ ____

>  <TORSDO>
F 5

$$$$
=
 OpenBabel11062408173D

 32 37  0  0  1  0  0  0  0  0999 V2000
  160.7390  207.2910  152.1950 C   0  0  1  0  0  3  0  0  0  0  0  0
  160.2190  209.4430  152.9910 C   0  0  0  0  0  2  0  0  0  0  0  0
  160.2670  205.9360  152.7400 C   0  0  0  0  0  2  0  0  0  0  0  0
  161.0910  208.2850  153.2300 N   0  0  1  0  0  0  0  0  0  0  0  0
  160.1500  210.4340  154.1650 C   0  0  1  0  0  0  0  0  0  0  0  0
  158.2000  211.3460  155.1560 C   0  0  0  0  0  0  0  0  0  0  0  0
  158.7520  212.6250  154.6580 C   0  0  2  0  0  3  0  0  0  0  0  0
  160.9200  207.7930  154.6120 C   0  0  2  0  0  3  0  0  0  0  0  0
  160.0840  212.1490  153.5080 S   0  0  0  0  0  0  0  0  0  0  0  0
  161.4940  208.8030  155.6110 C   0  0  0  0  0  2  0  0  0  0  0  0
  161.6340  206.4570  154.8220 C   0  0  0  0  0  2  0  0  0  0  0  0
  158.9380  210.2160  154.8660 O   0  0  0  0  0  0  0  0  0  0  0  0
  161.3240  210.2570  155.1520 C   0  0  1  0  0  3  0  0  0  0  0  0
  161.2280  205.3970  153.7950 C   0  0  0  0  0  2  0  0  0  0  0  0
  157.1190  211.2800  155.7970 O   0  0  0  0  0  0  0  0  0  0  0  0
  158.3340  214.4530  156.2810 C   0  0  0  0  0  2  0  0  0  0  0  0
  159.3390  213.4190  155.8140 C   0  0  0  0  0  3  0  0  0  0  0  0
  158.5220  213.1730  157.0660 C   0  0  0  0  0  2  0  0  0  0  0  0
  162.6600  210.8550  154.6940 C   0  0  0  0  0  2  0  0  0  0  0  0
  163.5850  210.9090  155.7380 O   0  0  0  0  0  1  0  0  0  0  0  0
  162.3860  208.3840  150.8250 O   0  0  0  0  0  1  0  0  0  0  0  0
  161.8720  207.1310  151.1740 C   0  0  2  0  0  3  0  0  0  0  0  0
  160.7170  204.9200  147.7580 O   0  0  0  0  0  0  0  0  0  0  0  0
  161.2030  204.1170  148.8120 C   0  0  0  0  0  2  0  0  0  0  0  0
  161.6480  205.9620  147.4790 C   0  0  1  0  0  3  0  0  0  0  0  0
  161.3790  206.3890  149.9250 C   0  0  1  0  0  3  0  0  0  0  0  0
  162.2730  206.6360  148.7150 C   0  0  0  0  0  2  0  0  0  0  0  0
  161.1900  204.8740  150.1450 C   0  0  2  0  0  3  0  0  0  0  0  0
  162.1980  204.3550  150.9610 O   0  0  0  0  0  1  0  0  0  0  0  0
  162.6790  205.6620  146.3770 C   0  0  0  0  0  3  0  0  0  0  0  0
  162.4020  204.3310  145.7020 C   0  0  0  0  0  2  0  0  0  0  0  0
  162.0650  205.6220  144.9880 C   0  0  0  0  0  2  0  0  0  0  0  0
  1 22  1  6  0  0  0
  1  3  1  0  0  0  0
  1  4  1  0  0  0  0
  3 14  1  0  0  0  0
  4  2  1  1  0  0  0
  4  8  1  0  0  0  0
  5  2  1  6  0  0  0
  5 12  1  0  0  0  0
  5 13  1  0  0  0  0
  6 15  2  0  0  0  0
  7  6  1  0  0  0  0
  7 17  1  1  0  0  0
  8 11  1  6  0  0  0
  8 10  1  0  0  0  0
  9  5  1  0  0  0  0
  9  7  1  0  0  0  0
 12  6  1  0  0  0  0
 13 19  1  6  0  0  0
 13 10  1  0  0  0  0
 14 11  1  0  0  0  0
 16 18  1  0  0  0  0
 17 16  1  0  0  0  0
 17 18  1  0  0  0  0
 19 20  1  0  0  0  0
 22 21  1  6  0  0  0
 23 24  1  0  0  0  0
 24 28  1  0  0  0  0
 25 30  1  6  0  0  0
 25 23  1  0  0  0  0
 25 27  1  0  0  0  0
 26 28  1  0  0  0  0
 26 22  1  1  0  0  0
 27 26  1  0  0  0  0
 28 29  1  1  0  0  0
 31 30  1  0  0  0  0
 32 31  1  0  0  0  0
 32 30  1  0  0  0  0
M  END
>  <MODEL>
6

>  <REMARK>
 VINA RESULT:      -4.0      2.913      3.811
  Name = 
  5 active torsions:
  status: ('A' for Active; 'I' for Inactive)
    1  A    between atoms: C_1  and  C_27
    2  A    between atoms: C_7  and  C_15
    3  A    between atoms: C_11  and  C_12
    4  A    between atoms: C_13  and  C_29
    5  A    between atoms: C_16  and  C_27
                            x       y       z     vdW  Elec       q    Type
                         _______ _______ _______ _____ _____    ______ ____

>  <TORSDO>
F 5

$$$$
