=
 OpenBabel11052421503D

 30 34  0  0  1  0  0  0  0  0999 V2000
  159.4150  210.5910  152.5520 C   0  0  0  0  0  2  0  0  0  0  0  0
  160.9870  212.1840  150.1450 C   0  0  0  0  0  0  0  0  0  0  0  0
  155.6600  213.3280  153.8860 C   0  0  0  0  0  2  0  0  0  0  0  0
  159.5210  209.8770  153.8940 C   0  0  0  0  0  2  0  0  0  0  0  0
  160.2440  211.8650  152.5240 C   0  0  0  0  0  2  0  0  0  0  0  0
  162.2590  208.7090  156.9240 C   0  0  0  0  0  2  0  0  0  0  0  0
  158.3160  212.8640  157.2370 O   0  0  0  0  0  0  0  0  0  0  0  0
  160.9170  209.2920  154.1360 C   0  0  1  0  0  0  0  0  0  0  0  0
  161.6380  209.9140  156.2450 C   0  0  0  0  0  0  0  0  0  0  0  0
  156.9970  212.7190  154.3250 C   0  0  0  0  0  2  0  0  0  0  0  0
  155.7360  214.2330  152.6490 C   0  0  0  0  0  2  0  0  0  0  0  0
  161.8680  210.0510  154.8580 O   0  0  0  0  0  0  0  0  0  0  0  0
  160.9110  207.9240  154.4670 O   0  0  0  0  0  0  0  0  0  0  0  0
  160.7950  212.6910  148.9000 N   0  0  0  0  0  0  0  0  0  0  0  0
  159.3110  212.7070  156.4810 C   0  0  0  0  0  0  0  0  0  0  0  0
  159.2720  213.1400  155.1210 N   0  0  0  0  0  2  0  0  0  0  0  0
  162.9070  210.0780  157.0560 C   0  0  0  0  0  2  0  0  0  0  0  0
  162.0770  211.2960  150.3750 N   0  0  0  0  0  1  0  0  0  0  0  0
  159.0370  213.3960  150.8910 C   0  0  0  0  0  0  0  0  0  0  0  0
  159.7540  213.5210  148.6350 C   0  0  0  0  0  3  0  0  0  0  0  0
  160.3980  210.5350  156.8820 C   0  0  0  0  0  2  0  0  0  0  0  0
  160.1050  212.5220  151.1840 C   0  0  0  0  0  0  0  0  0  0  0  0
  158.5630  214.4510  153.2030 C   0  0  0  0  0  2  0  0  0  0  0  0
  156.7590  213.7720  151.6530 C   0  0  0  0  0  3  0  0  0  0  0  0
  158.1110  213.7600  154.5040 C   0  0  1  0  0  3  0  0  0  0  0  0
  160.5390  212.0440  156.9920 C   0  0  0  0  0  2  0  0  0  0  0  0
  161.4980  208.2650  153.2300 C   0  0  1  0  0  3  0  0  0  0  0  0
  158.8880  213.8630  149.6220 N   0  0  0  0  0  0  0  0  0  0  0  0
  158.0690  213.8260  151.9190 C   0  0  0  0  0  0  0  0  0  0  0  0
  160.6230  207.9160  152.1990 O   0  0  0  0  0  1  0  0  0  0  0  0
  1  4  1  0  0  0  0
  2 18  1  0  0  0  0
  2 22  1  0  0  0  0
  3 10  1  0  0  0  0
  5  1  1  0  0  0  0
  6 17  1  0  0  0  0
  8  4  1  6  0  0  0
  8 13  1  0  0  0  0
  8 12  1  0  0  0  0
  9 21  1  0  0  0  0
  9  6  1  0  0  0  0
  9 17  1  0  0  0  0
 10 25  1  0  0  0  0
 11  3  1  0  0  0  0
 12  9  1  0  0  0  0
 14  2  2  0  0  0  0
 15 26  1  0  0  0  0
 15  7  2  0  0  0  0
 16 15  1  0  0  0  0
 19 22  2  0  0  0  0
 19 29  1  0  0  0  0
 20 14  1  0  0  0  0
 20 28  2  0  0  0  0
 21 26  1  0  0  0  0
 22  5  1  0  0  0  0
 24 29  2  0  0  0  0
 24 11  1  0  0  0  0
 25 23  1  6  0  0  0
 25 16  1  0  0  0  0
 27 30  1  6  0  0  0
 27  8  1  0  0  0  0
 27 13  1  0  0  0  0
 28 19  1  0  0  0  0
 29 23  1  0  0  0  0
M  END
>  <MODEL>
1

>  <REMARK>
 VINA RESULT:      -4.7      0.000      0.000
  Name = 
  0 active torsions:
  status: ('A' for Active; 'I' for Inactive)
                            x       y       z     vdW  Elec       q    Type
                         _______ _______ _______ _____ _____    ______ ____

>  <TORSDO>
F 0

$$$$
=
 OpenBabel11052421503D

 30 34  0  0  1  0  0  0  0  0999 V2000
  161.4000  210.6590  152.2300 C   0  0  0  0  0  2  0  0  0  0  0  0
  161.0390  207.4870  151.4500 C   0  0  0  0  0  0  0  0  0  0  0  0
  161.4510  210.9660  157.0540 C   0  0  0  0  0  2  0  0  0  0  0  0
  160.9130  212.0880  152.0280 C   0  0  0  0  0  2  0  0  0  0  0  0
  160.2420  209.6840  152.3740 C   0  0  0  0  0  2  0  0  0  0  0  0
  158.0590  214.4530  149.9520 C   0  0  0  0  0  2  0  0  0  0  0  0
  158.0860  213.1790  155.5460 O   0  0  0  0  0  0  0  0  0  0  0  0
  160.2270  212.2860  150.6710 C   0  0  1  0  0  0  0  0  0  0  0  0
  158.2070  213.3670  150.9990 C   0  0  0  0  0  0  0  0  0  0  0  0
  160.6970  211.3430  155.7740 C   0  0  0  0  0  2  0  0  0  0  0  0
  161.6650  209.4600  157.2590 C   0  0  0  0  0  2  0  0  0  0  0  0
  158.8200  212.1630  150.5840 O   0  0  0  0  0  0  0  0  0  0  0  0
  160.7530  213.3530  149.9180 O   0  0  0  0  0  0  0  0  0  0  0  0
  161.6290  206.2760  151.6130 N   0  0  0  0  0  0  0  0  0  0  0  0
  158.0140  212.4520  154.5200 C   0  0  0  0  0  0  0  0  0  0  0  0
  158.6190  211.1590  154.4960 N   0  0  0  0  0  2  0  0  0  0  0  0
  156.8670  213.5880  150.3290 C   0  0  0  0  0  2  0  0  0  0  0  0
  160.7050  207.9280  150.1370 N   0  0  0  0  0  1  0  0  0  0  0  0
  161.1430  207.8110  153.8400 C   0  0  0  0  0  0  0  0  0  0  0  0
  161.9830  205.8300  152.8450 C   0  0  0  0  0  3  0  0  0  0  0  0
  158.2560  213.7860  152.4660 C   0  0  0  0  0  2  0  0  0  0  0  0
  160.7790  208.2970  152.5670 C   0  0  0  0  0  0  0  0  0  0  0  0
  159.5010  209.0780  155.3830 C   0  0  0  0  0  2  0  0  0  0  0  0
  161.8770  208.7210  155.9710 C   0  0  0  0  0  3  0  0  0  0  0  0
  159.3660  210.5960  155.6080 C   0  0  1  0  0  3  0  0  0  0  0  0
  157.3120  212.9430  153.3060 C   0  0  0  0  0  2  0  0  0  0  0  0
  160.9530  212.0590  149.3930 C   0  0  1  0  0  3  0  0  0  0  0  0
  161.7440  206.5940  153.9410 N   0  0  0  0  0  0  0  0  0  0  0  0
  160.8940  208.5790  155.0760 C   0  0  0  0  0  0  0  0  0  0  0  0
  162.2810  211.6830  149.6000 O   0  0  0  0  0  1  0  0  0  0  0  0
  1  5  1  0  0  0  0
  2 14  2  0  0  0  0
  2 22  1  0  0  0  0
  3 11  1  0  0  0  0
  4  1  1  0  0  0  0
  5 22  1  0  0  0  0
  6 17  1  0  0  0  0
  6  9  1  0  0  0  0
  8  4  1  1  0  0  0
  9 21  1  0  0  0  0
 10  3  1  0  0  0  0
 12  8  1  0  0  0  0
 12  9  1  0  0  0  0
 13  8  1  0  0  0  0
 14 20  1  0  0  0  0
 15  7  2  0  0  0  0
 16 15  1  0  0  0  0
 16 25  1  0  0  0  0
 17  9  1  0  0  0  0
 18  2  1  0  0  0  0
 19 28  1  0  0  0  0
 19 29  1  0  0  0  0
 20 28  2  0  0  0  0
 21 26  1  0  0  0  0
 22 19  2  0  0  0  0
 24 11  1  0  0  0  0
 25 23  1  6  0  0  0
 25 10  1  0  0  0  0
 26 15  1  0  0  0  0
 27 30  1  1  0  0  0
 27 13  1  0  0  0  0
 27  8  1  0  0  0  0
 29 23  1  0  0  0  0
 29 24  2  0  0  0  0
M  END
>  <MODEL>
2

>  <REMARK>
 VINA RESULT:      -3.6      2.606      6.096
  Name = 
  0 active torsions:
  status: ('A' for Active; 'I' for Inactive)
                            x       y       z     vdW  Elec       q    Type
                         _______ _______ _______ _____ _____    ______ ____

>  <TORSDO>
F 0

$$$$
=
 OpenBabel11052421503D

 30 34  0  0  1  0  0  0  0  0999 V2000
  159.4160  210.4670  153.0190 C   0  0  0  0  0  2  0  0  0  0  0  0
  160.9510  210.8170  155.9030 C   0  0  0  0  0  0  0  0  0  0  0  0
  160.6330  206.1360  151.2490 C   0  0  0  0  0  2  0  0  0  0  0  0
  159.1080  211.0680  151.6530 C   0  0  0  0  0  2  0  0  0  0  0  0
  160.8770  210.6460  153.3970 C   0  0  0  0  0  2  0  0  0  0  0  0
  159.8110  214.4530  149.1850 C   0  0  0  0  0  2  0  0  0  0  0  0
  162.0000  209.1890  148.5450 O   0  0  0  0  0  0  0  0  0  0  0  0
  159.1990  212.5980  151.6540 C   0  0  1  0  0  0  0  0  0  0  0  0
  160.4910  213.2780  149.8590 C   0  0  0  0  0  0  0  0  0  0  0  0
  160.7210  207.6530  151.0440 C   0  0  0  0  0  2  0  0  0  0  0  0
  161.2060  205.6290  152.5790 C   0  0  0  0  0  2  0  0  0  0  0  0
  160.4090  213.2190  151.2690 O   0  0  0  0  0  0  0  0  0  0  0  0
  158.0470  213.2360  151.1540 O   0  0  0  0  0  0  0  0  0  0  0  0
  161.0610  210.2440  157.1290 N   0  0  0  0  0  0  0  0  0  0  0  0
  162.0970  210.0300  149.4770 C   0  0  0  0  0  0  0  0  0  0  0  0
  162.1770  209.6080  150.8380 N   0  0  0  0  0  2  0  0  0  0  0  0
  161.3180  214.4530  149.3810 C   0  0  0  0  0  2  0  0  0  0  0  0
  160.6460  212.2060  155.8090 N   0  0  0  0  0  1  0  0  0  0  0  0
  161.4090  208.6670  154.9050 C   0  0  0  0  0  0  0  0  0  0  0  0
  161.3270  208.9200  157.2610 C   0  0  0  0  0  3  0  0  0  0  0  0
  160.6830  212.0000  149.0480 C   0  0  0  0  0  2  0  0  0  0  0  0
  161.1210  210.0400  154.7470 C   0  0  0  0  0  0  0  0  0  0  0  0
  162.6520  208.1270  152.7040 C   0  0  0  0  0  2  0  0  0  0  0  0
  160.9940  206.5920  153.7090 C   0  0  0  0  0  3  0  0  0  0  0  0
  162.1330  208.2160  151.2560 C   0  0  1  0  0  3  0  0  0  0  0  0
  162.1080  211.4840  149.1710 C   0  0  0  0  0  2  0  0  0  0  0  0
  158.3220  213.4280  152.5250 C   0  0  1  0  0  3  0  0  0  0  0  0
  161.4940  208.1460  156.1590 N   0  0  0  0  0  0  0  0  0  0  0  0
  161.6230  207.7710  153.7520 C   0  0  0  0  0  0  0  0  0  0  0  0
  157.4410  212.6510  153.2800 O   0  0  0  0  0  1  0  0  0  0  0  0
  1  5  1  0  0  0  0
  2 14  1  0  0  0  0
  3 11  1  0  0  0  0
  4  1  1  0  0  0  0
  5 22  1  0  0  0  0
  6 17  1  0  0  0  0
  6  9  1  0  0  0  0
  7 15  2  0  0  0  0
  8  4  1  1  0  0  0
  8 27  1  0  0  0  0
  9 12  1  0  0  0  0
 10  3  1  0  0  0  0
 11 24  1  0  0  0  0
 12  8  1  0  0  0  0
 13  8  1  0  0  0  0
 13 27  1  0  0  0  0
 14 20  2  0  0  0  0
 15 16  1  0  0  0  0
 16 25  1  0  0  0  0
 17  9  1  0  0  0  0
 18  2  1  0  0  0  0
 19 28  2  0  0  0  0
 21 26  1  0  0  0  0
 21  9  1  0  0  0  0
 22 19  1  0  0  0  0
 22  2  2  0  0  0  0
 23 29  1  0  0  0  0
 24 29  2  0  0  0  0
 25 10  1  1  0  0  0
 25 23  1  0  0  0  0
 26 15  1  0  0  0  0
 27 30  1  1  0  0  0
 28 20  1  0  0  0  0
 29 19  1  0  0  0  0
M  END
>  <MODEL>
3

>  <REMARK>
 VINA RESULT:      -3.4      2.623      7.310
  Name = 
  0 active torsions:
  status: ('A' for Active; 'I' for Inactive)
                            x       y       z     vdW  Elec       q    Type
                         _______ _______ _______ _____ _____    ______ ____

>  <TORSDO>
F 0

$$$$
=
 OpenBabel11052421503D

 30 34  0  0  1  0  0  0  0  0999 V2000
  161.9830  210.8800  150.8650 C   0  0  0  0  0  2  0  0  0  0  0  0
  161.7430  207.6510  150.3070 C   0  0  0  0  0  0  0  0  0  0  0  0
  160.9390  211.6260  155.5250 C   0  0  0  0  0  2  0  0  0  0  0  0
  161.5860  212.2850  150.4300 C   0  0  0  0  0  2  0  0  0  0  0  0
  160.8030  209.9230  150.8250 C   0  0  0  0  0  2  0  0  0  0  0  0
  159.3320  214.4520  147.5540 C   0  0  0  0  0  2  0  0  0  0  0  0
  158.0550  213.6940  153.0950 O   0  0  0  0  0  0  0  0  0  0  0  0
  161.2320  212.3580  148.9400 C   0  0  1  0  0  0  0  0  0  0  0  0
  159.2140  213.4650  148.6990 C   0  0  0  0  0  0  0  0  0  0  0  0
  160.5050  211.8850  154.0770 C   0  0  0  0  0  2  0  0  0  0  0  0
  161.0690  210.1460  155.9070 C   0  0  0  0  0  2  0  0  0  0  0  0
  159.8800  212.2290  148.5440 O   0  0  0  0  0  0  0  0  0  0  0  0
  161.9390  213.3520  148.2360 O   0  0  0  0  0  0  0  0  0  0  0  0
  162.2550  206.4590  150.7090 N   0  0  0  0  0  0  0  0  0  0  0  0
  158.2030  212.8760  152.1490 C   0  0  0  0  0  0  0  0  0  0  0  0
  158.7700  211.5860  152.3790 N   0  0  0  0  0  2  0  0  0  0  0  0
  158.0670  213.6250  147.7220 C   0  0  0  0  0  2  0  0  0  0  0  0
  161.7270  207.9690  148.9190 N   0  0  0  0  0  1  0  0  0  0  0  0
  161.3060  208.1910  152.6190 C   0  0  0  0  0  0  0  0  0  0  0  0
  162.3080  206.1270  152.0240 C   0  0  0  0  0  3  0  0  0  0  0  0
  158.9360  214.0170  150.0940 C   0  0  0  0  0  2  0  0  0  0  0  0
  161.2520  208.5590  151.2580 C   0  0  0  0  0  0  0  0  0  0  0  0
  159.3830  209.5940  153.6260 C   0  0  0  0  0  2  0  0  0  0  0  0
  161.5540  209.2920  154.7730 C   0  0  0  0  0  3  0  0  0  0  0  0
  159.2320  211.1270  153.6790 C   0  0  1  0  0  3  0  0  0  0  0  0
  157.8070  213.2540  150.7680 C   0  0  0  0  0  2  0  0  0  0  0  0
  162.2250  212.0150  147.8870 C   0  0  1  0  0  3  0  0  0  0  0  0
  161.8420  206.9890  152.9630 N   0  0  0  0  0  0  0  0  0  0  0  0
  160.7980  209.0690  153.6920 C   0  0  0  0  0  0  0  0  0  0  0  0
  163.4630  211.6590  148.4270 O   0  0  0  0  0  1  0  0  0  0  0  0
  2 14  2  0  0  0  0
  2 22  1  0  0  0  0
  3 11  1  0  0  0  0
  4  1  1  0  0  0  0
  5  1  1  0  0  0  0
  5 22  1  0  0  0  0
  6 17  1  0  0  0  0
  6  9  1  0  0  0  0
  8  4  1  1  0  0  0
  9 21  1  0  0  0  0
 10  3  1  0  0  0  0
 12  9  1  0  0  0  0
 12  8  1  0  0  0  0
 13  8  1  0  0  0  0
 14 20  1  0  0  0  0
 15 16  1  0  0  0  0
 15  7  2  0  0  0  0
 16 25  1  0  0  0  0
 17  9  1  0  0  0  0
 18  2  1  0  0  0  0
 19 28  1  0  0  0  0
 19 29  1  0  0  0  0
 20 28  2  0  0  0  0
 21 26  1  0  0  0  0
 22 19  2  0  0  0  0
 23 29  1  0  0  0  0
 24 11  1  0  0  0  0
 25 23  1  6  0  0  0
 25 10  1  0  0  0  0
 26 15  1  0  0  0  0
 27 13  1  0  0  0  0
 27 30  1  1  0  0  0
 27  8  1  0  0  0  0
 29 24  2  0  0  0  0
M  END
>  <MODEL>
4

>  <REMARK>
 VINA RESULT:      -3.0      2.952      6.452
  Name = 
  0 active torsions:
  status: ('A' for Active; 'I' for Inactive)
                            x       y       z     vdW  Elec       q    Type
                         _______ _______ _______ _____ _____    ______ ____

>  <TORSDO>
F 0

$$$$
=
 OpenBabel11052421503D

 30 34  0  0  1  0  0  0  0  0999 V2000
  161.9960  209.9630  151.4280 C   0  0  0  0  0  2  0  0  0  0  0  0
  160.9490  206.9150  150.7820 C   0  0  0  0  0  0  0  0  0  0  0  0
  162.0010  210.5030  156.2320 C   0  0  0  0  0  2  0  0  0  0  0  0
  161.8480  211.4520  151.1430 C   0  0  0  0  0  2  0  0  0  0  0  0
  160.6460  209.2800  151.5760 C   0  0  0  0  0  2  0  0  0  0  0  0
  159.6490  214.2820  148.8640 C   0  0  0  0  0  2  0  0  0  0  0  0
  159.2570  213.3300  154.5070 O   0  0  0  0  0  0  0  0  0  0  0  0
  161.2560  211.7260  149.7560 C   0  0  1  0  0  0  0  0  0  0  0  0
  159.5240  213.2470  149.9630 C   0  0  0  0  0  0  0  0  0  0  0  0
  161.3810  210.9710  154.9100 C   0  0  0  0  0  2  0  0  0  0  0  0
  161.8660  209.0000  156.5130 C   0  0  0  0  0  2  0  0  0  0  0  0
  159.8610  211.9170  149.6260 O   0  0  0  0  0  0  0  0  0  0  0  0
  162.0260  212.6080  148.9740 O   0  0  0  0  0  0  0  0  0  0  0  0
  161.2480  205.6130  151.0210 N   0  0  0  0  0  0  0  0  0  0  0  0
  159.0470  212.5840  153.5140 C   0  0  0  0  0  0  0  0  0  0  0  0
  159.3460  211.1900  153.5700 N   0  0  0  0  0  2  0  0  0  0  0  0
  158.2840  213.7270  149.2370 C   0  0  0  0  0  2  0  0  0  0  0  0
  160.7550  207.3500  149.4390 N   0  0  0  0  0  1  0  0  0  0  0  0
  161.0680  207.3320  153.1570 C   0  0  0  0  0  0  0  0  0  0  0  0
  161.4630  205.1640  152.2840 C   0  0  0  0  0  3  0  0  0  0  0  0
  159.6310  213.7210  151.4100 C   0  0  0  0  0  2  0  0  0  0  0  0
  160.8520  207.8200  151.8500 C   0  0  0  0  0  0  0  0  0  0  0  0
  159.7170  209.0130  154.5820 C   0  0  0  0  0  2  0  0  0  0  0  0
  161.9370  208.1660  155.2690 C   0  0  0  0  0  3  0  0  0  0  0  0
  159.9210  210.5330  154.7330 C   0  0  1  0  0  3  0  0  0  0  0  0
  158.5020  213.1550  152.2550 C   0  0  0  0  0  2  0  0  0  0  0  0
  161.9420  211.2760  148.5150 C   0  0  1  0  0  3  0  0  0  0  0  0
  161.3770  206.0190  153.3340 N   0  0  0  0  0  0  0  0  0  0  0  0
  160.9690  208.2010  154.3460 C   0  0  0  0  0  0  0  0  0  0  0  0
  163.1470  210.6240  148.7860 O   0  0  0  0  0  1  0  0  0  0  0  0
  1  5  1  0  0  0  0
  2 14  2  0  0  0  0
  2 22  1  0  0  0  0
  3 11  1  0  0  0  0
  4  1  1  0  0  0  0
  5 22  1  0  0  0  0
  6 17  1  0  0  0  0
  6  9  1  0  0  0  0
  8  4  1  1  0  0  0
  9 21  1  0  0  0  0
 10  3  1  0  0  0  0
 12  8  1  0  0  0  0
 12  9  1  0  0  0  0
 13  8  1  0  0  0  0
 14 20  1  0  0  0  0
 15 16  1  0  0  0  0
 15  7  2  0  0  0  0
 16 25  1  0  0  0  0
 17  9  1  0  0  0  0
 18  2  1  0  0  0  0
 19 28  1  0  0  0  0
 19 29  1  0  0  0  0
 20 28  2  0  0  0  0
 21 26  1  0  0  0  0
 22 19  2  0  0  0  0
 24 11  1  0  0  0  0
 25 23  1  6  0  0  0
 25 10  1  0  0  0  0
 26 15  1  0  0  0  0
 27 30  1  1  0  0  0
 27 13  1  0  0  0  0
 27  8  1  0  0  0  0
 29 23  1  0  0  0  0
 29 24  2  0  0  0  0
M  END
>  <MODEL>
5

>  <REMARK>
 VINA RESULT:      -2.9      2.863      6.339
  Name = 
  0 active torsions:
  status: ('A' for Active; 'I' for Inactive)
                            x       y       z     vdW  Elec       q    Type
                         _______ _______ _______ _____ _____    ______ ____

>  <TORSDO>
F 0

$$$$
=
 OpenBabel11052421503D

 30 34  0  0  1  0  0  0  0  0999 V2000
  161.7360  211.6870  150.3040 C   0  0  0  0  0  2  0  0  0  0  0  0
  161.8740  208.4050  150.2140 C   0  0  0  0  0  0  0  0  0  0  0  0
  159.9940  212.9440  154.6340 C   0  0  0  0  0  2  0  0  0  0  0  0
  161.2750  212.9660  149.6170 C   0  0  0  0  0  2  0  0  0  0  0  0
  160.6660  210.6080  150.2640 C   0  0  0  0  0  2  0  0  0  0  0  0
  159.2490  214.4530  146.1920 C   0  0  0  0  0  2  0  0  0  0  0  0
  157.2940  214.3240  151.5840 O   0  0  0  0  0  0  0  0  0  0  0  0
  161.1240  212.7950  148.1010 C   0  0  1  0  0  0  0  0  0  0  0  0
  159.0660  213.6260  147.4490 C   0  0  0  0  0  0  0  0  0  0  0  0
  159.7420  212.9520  153.1220 C   0  0  0  0  0  2  0  0  0  0  0  0
  160.2050  211.5530  155.2470 C   0  0  0  0  0  2  0  0  0  0  0  0
  159.8590  212.4620  147.5650 O   0  0  0  0  0  0  0  0  0  0  0  0
  161.8270  213.7550  147.3480 O   0  0  0  0  0  0  0  0  0  0  0  0
  162.4330  207.3440  150.8500 N   0  0  0  0  0  0  0  0  0  0  0  0
  157.6470  213.4060  150.7970 C   0  0  0  0  0  0  0  0  0  0  0  0
  158.2930  212.2320  151.2870 N   0  0  0  0  0  2  0  0  0  0  0  0
  158.0550  213.5220  146.3260 C   0  0  0  0  0  2  0  0  0  0  0  0
  162.0210  208.5270  148.8020 N   0  0  0  0  0  1  0  0  0  0  0  0
  161.0740  209.2050  152.3460 C   0  0  0  0  0  0  0  0  0  0  0  0
  162.3350  207.2040  152.1960 C   0  0  0  0  0  3  0  0  0  0  0  0
  158.5480  214.3290  148.7010 C   0  0  0  0  0  2  0  0  0  0  0  0
  161.1750  209.3750  150.9490 C   0  0  0  0  0  0  0  0  0  0  0  0
  158.9090  210.5100  152.8860 C   0  0  0  0  0  2  0  0  0  0  0  0
  160.9190  210.6110  154.3230 C   0  0  0  0  0  3  0  0  0  0  0  0
  158.6110  212.0090  152.6880 C   0  0  1  0  0  3  0  0  0  0  0  0
  157.4120  213.5450  149.3370 C   0  0  0  0  0  2  0  0  0  0  0  0
  162.2810  212.4230  147.2430 C   0  0  1  0  0  3  0  0  0  0  0  0
  161.6660  208.1280  152.9300 N   0  0  0  0  0  0  0  0  0  0  0  0
  160.3440  210.1600  153.2030 C   0  0  0  0  0  0  0  0  0  0  0  0
  163.4600  212.2840  147.9780 O   0  0  0  0  0  1  0  0  0  0  0  0
  2 14  2  0  0  0  0
  2 22  1  0  0  0  0
  3 11  1  0  0  0  0
  4  1  1  0  0  0  0
  5  1  1  0  0  0  0
  5 22  1  0  0  0  0
  6 17  1  0  0  0  0
  6  9  1  0  0  0  0
  8  4  1  1  0  0  0
  9 12  1  0  0  0  0
  9 21  1  0  0  0  0
 10  3  1  0  0  0  0
 12  8  1  0  0  0  0
 13  8  1  0  0  0  0
 14 20  1  0  0  0  0
 15 16  1  0  0  0  0
 15  7  2  0  0  0  0
 16 25  1  0  0  0  0
 17  9  1  0  0  0  0
 18  2  1  0  0  0  0
 19 28  1  0  0  0  0
 19 29  1  0  0  0  0
 20 28  2  0  0  0  0
 21 26  1  0  0  0  0
 22 19  2  0  0  0  0
 23 29  1  0  0  0  0
 24 11  1  0  0  0  0
 25 23  1  6  0  0  0
 25 10  1  0  0  0  0
 26 15  1  0  0  0  0
 27 13  1  0  0  0  0
 27 30  1  1  0  0  0
 27  8  1  0  0  0  0
 29 24  2  0  0  0  0
M  END
>  <MODEL>
6

>  <REMARK>
 VINA RESULT:      -2.5      3.298      6.681
  Name = 
  0 active torsions:
  status: ('A' for Active; 'I' for Inactive)
                            x       y       z     vdW  Elec       q    Type
                         _______ _______ _______ _____ _____    ______ ____

>  <TORSDO>
F 0

$$$$
=
 OpenBabel11052421503D

 30 34  0  0  1  0  0  0  0  0999 V2000
  161.3240  210.8970  152.3150 C   0  0  0  0  0  2  0  0  0  0  0  0
  158.3330  212.2450  152.5050 C   0  0  0  0  0  0  0  0  0  0  0  0
  163.4640  212.6740  148.3620 C   0  0  0  0  0  2  0  0  0  0  0  0
  162.1530  209.6190  152.3320 C   0  0  0  0  0  2  0  0  0  0  0  0
  160.0640  210.7410  151.4780 C   0  0  0  0  0  2  0  0  0  0  0  0
  161.8920  205.3940  152.6790 C   0  0  0  0  0  2  0  0  0  0  0  0
  163.0640  208.4120  147.9430 O   0  0  0  0  0  0  0  0  0  0  0  0
  161.4620  208.4840  153.0970 C   0  0  1  0  0  0  0  0  0  0  0  0
  161.5040  206.5670  151.8010 C   0  0  0  0  0  0  0  0  0  0  0  0
  162.9140  211.4140  149.0410 C   0  0  0  0  0  2  0  0  0  0  0  0
  162.4480  213.8100  148.1860 C   0  0  0  0  0  2  0  0  0  0  0  0
  160.6740  207.5510  152.3860 O   0  0  0  0  0  0  0  0  0  0  0  0
  162.2630  207.9060  154.1000 O   0  0  0  0  0  0  0  0  0  0  0  0
  157.7100  213.4480  152.5940 N   0  0  0  0  0  0  0  0  0  0  0  0
  162.0550  208.3900  148.6950 C   0  0  0  0  0  0  0  0  0  0  0  0
  161.3010  209.5770  148.9430 N   0  0  0  0  0  2  0  0  0  0  0  0
  160.7940  205.2400  151.6390 C   0  0  0  0  0  2  0  0  0  0  0  0
  158.0170  211.2250  153.4480 N   0  0  0  0  0  1  0  0  0  0  0  0
  159.5670  213.0770  150.6030 C   0  0  0  0  0  0  0  0  0  0  0  0
  157.9990  214.4530  151.7290 C   0  0  0  0  0  3  0  0  0  0  0  0
  162.4300  206.9340  150.6450 C   0  0  0  0  0  2  0  0  0  0  0  0
  159.2880  212.0240  151.5000 C   0  0  0  0  0  0  0  0  0  0  0  0
  160.4050  211.7950  148.5210 C   0  0  0  0  0  2  0  0  0  0  0  0
  161.4600  213.8870  149.3120 C   0  0  0  0  0  3  0  0  0  0  0  0
  161.6350  210.8770  148.3840 C   0  0  1  0  0  3  0  0  0  0  0  0
  161.6450  207.1250  149.3570 C   0  0  0  0  0  2  0  0  0  0  0  0
  161.1250  208.6130  154.5410 C   0  0  1  0  0  3  0  0  0  0  0  0
  158.9200  214.2650  150.7510 N   0  0  0  0  0  0  0  0  0  0  0  0
  160.5400  212.9350  149.5030 C   0  0  0  0  0  0  0  0  0  0  0  0
  161.5280  209.8410  155.0690 O   0  0  0  0  0  1  0  0  0  0  0  0
  1  4  1  0  0  0  0
  2 14  1  0  0  0  0
  2 18  1  0  0  0  0
  3 10  1  0  0  0  0
  5 22  1  0  0  0  0
  5  1  1  0  0  0  0
  7 15  2  0  0  0  0
  8  4  1  6  0  0  0
  8 13  1  0  0  0  0
  8 27  1  0  0  0  0
  9 12  1  0  0  0  0
  9  6  1  0  0  0  0
 11  3  1  0  0  0  0
 11 24  1  0  0  0  0
 12  8  1  0  0  0  0
 13 27  1  0  0  0  0
 15 16  1  0  0  0  0
 15 26  1  0  0  0  0
 17  9  1  0  0  0  0
 17  6  1  0  0  0  0
 19 28  2  0  0  0  0
 19 22  1  0  0  0  0
 20 14  2  0  0  0  0
 21  9  1  0  0  0  0
 22  2  2  0  0  0  0
 23 29  1  0  0  0  0
 24 29  2  0  0  0  0
 25 23  1  1  0  0  0
 25 16  1  0  0  0  0
 25 10  1  0  0  0  0
 26 21  1  0  0  0  0
 27 30  1  1  0  0  0
 28 20  1  0  0  0  0
 29 19  1  0  0  0  0
M  END
>  <MODEL>
7

>  <REMARK>
 VINA RESULT:      -1.7      2.365      5.793
  Name = 
  0 active torsions:
  status: ('A' for Active; 'I' for Inactive)
                            x       y       z     vdW  Elec       q    Type
                         _______ _______ _______ _____ _____    ______ ____

>  <TORSDO>
F 0

$$$$
