=
 OpenBabel11062407413D

 27 29  0  0  1  0  0  0  0  0999 V2000
  160.8370  207.0160  151.5780 C   0  0  1  0  0  3  0  0  0  0  0  0
  162.1520  207.2970  150.8680 C   0  0  1  0  0  3  0  0  0  0  0  0
  161.2910  205.5920  151.8450 C   0  0  2  0  0  3  0  0  0  0  0  0
  163.6510  205.8610  152.0270 O   0  0  0  0  0  1  0  0  0  0  0  0
  162.5960  205.8670  151.1150 C   0  0  2  0  0  3  0  0  0  0  0  0
  161.5870  209.0560  148.8800 O   0  0  0  0  0  0  0  0  0  0  0  0
  161.8790  207.6020  149.1260 S   0  0  0  0  0  0  0  0  0  0  0  0
  163.1000  207.2050  148.3440 O   0  0  0  0  0  0  0  0  0  0  0  0
  160.4890  206.6250  148.5820 C   0  0  0  0  0  2  0  0  0  0  0  0
  161.5130  204.2260  145.1770 C   0  0  0  0  0  3  0  0  0  0  0  0
  160.8590  205.7990  147.3970 C   0  0  0  0  0  0  0  0  0  0  0  0
  161.3870  204.5150  147.5770 C   0  0  0  0  0  3  0  0  0  0  0  0
  161.7160  203.7300  146.4680 C   0  0  0  0  0  3  0  0  0  0  0  0
  160.9820  205.5060  144.9930 C   0  0  0  0  0  3  0  0  0  0  0  0
  160.6530  206.2920  146.1030 C   0  0  0  0  0  3  0  0  0  0  0  0
  160.4480  204.6380  151.0620 C   0  0  0  0  0  3  0  0  0  0  0  0
  160.4960  203.4420  151.2930 O   0  0  0  0  0  0  0  0  0  0  0  0
  160.7850  207.7550  152.8320 N   0  0  0  0  0  2  0  0  0  0  0  0
  161.3590  209.0720  152.5910 C   0  0  0  0  0  2  0  0  0  0  0  0
  158.9750  211.3860  154.0840 C   0  0  0  0  0  3  0  0  0  0  0  0
  158.6600  210.6830  155.3730 C   0  0  0  0  0  2  0  0  0  0  0  0
  159.9170  210.0910  155.9940 C   0  0  0  0  0  2  0  0  0  0  0  0
  161.0260  210.0090  153.7440 C   0  0  2  0  0  3  0  0  0  0  0  0
  160.5830  209.1930  154.9630 C   0  0  0  0  0  2  0  0  0  0  0  0
  160.0220  211.0550  153.3070 C   0  0  0  0  0  0  0  0  0  0  0  0
  159.6690  212.9890  151.7890 C   0  0  0  0  0  1  0  0  0  0  0  0
  160.2590  211.7340  152.1050 O   0  0  0  0  0  0  0  0  0  0  0  0
  1  3  1  0  0  0  0
  1 18  1  1  0  0  0
  2  7  1  6  0  0  0
  2  5  1  0  0  0  0
  2  1  1  0  0  0  0
  3 16  1  6  0  0  0
  5  3  1  0  0  0  0
  5  4  1  1  0  0  0
  6  7  2  0  0  0  0
  8  7  2  0  0  0  0
  9  7  1  0  0  0  0
 10 13  1  0  0  0  0
 11 12  1  0  0  0  0
 11  9  1  0  0  0  0
 13 12  2  0  0  0  0
 14 10  2  0  0  0  0
 14 15  1  0  0  0  0
 15 11  2  0  0  0  0
 16 17  2  0  0  0  0
 19 18  1  0  0  0  0
 20 21  1  0  0  0  0
 21 22  1  0  0  0  0
 23 19  1  6  0  0  0
 23 24  1  0  0  0  0
 24 22  1  0  0  0  0
 25 23  1  0  0  0  0
 25 20  2  0  0  0  0
 26 27  1  0  0  0  0
 27 25  1  0  0  0  0
M  END
>  <MODEL>
1

>  <REMARK>
 VINA RESULT:      -6.3      0.000      0.000
  Name = 
  8 active torsions:
  status: ('A' for Active; 'I' for Inactive)
    1  A    between atoms: S_2  and  C_15
    2  A    between atoms: S_2  and  C_18
    3  A    between atoms: C_3  and  N_26
    4  A    between atoms: C_9  and  C_15
    5  A    between atoms: C_10  and  C_20
    6  A    between atoms: C_12  and  C_14
    7  A    between atoms: C_12  and  N_26
    8  A    between atoms: C_17  and  O_21
                            x       y       z     vdW  Elec       q    Type
                         _______ _______ _______ _____ _____    ______ ____

>  <TORSDO>
F 8

$$$$
=
 OpenBabel11062407413D

 27 29  0  0  1  0  0  0  0  0999 V2000
  161.3920  209.4550  154.5220 C   0  0  1  0  0  3  0  0  0  0  0  0
  160.0370  210.0070  154.9380 C   0  0  1  0  0  3  0  0  0  0  0  0
  161.8920  209.6200  155.9460 C   0  0  2  0  0  3  0  0  0  0  0  0
  159.8940  209.2950  157.2020 O   0  0  0  0  0  1  0  0  0  0  0  0
  160.5450  210.1930  156.3570 C   0  0  2  0  0  3  0  0  0  0  0  0
  159.9350  212.7120  155.1150 O   0  0  0  0  0  0  0  0  0  0  0  0
  159.7240  211.5810  154.1480 S   0  0  0  0  0  0  0  0  0  0  0  0
  160.6510  211.7540  152.9770 O   0  0  0  0  0  0  0  0  0  0  0  0
  158.0360  211.6110  153.5720 C   0  0  0  0  0  2  0  0  0  0  0  0
  155.3860  213.0950  156.6000 C   0  0  0  0  0  3  0  0  0  0  0  0
  157.1280  212.1300  154.6330 C   0  0  0  0  0  0  0  0  0  0  0  0
  156.6180  213.4310  154.5430 C   0  0  0  0  0  3  0  0  0  0  0  0
  155.7500  213.9140  155.5270 C   0  0  0  0  0  3  0  0  0  0  0  0
  155.8900  211.7940  156.6910 C   0  0  0  0  0  3  0  0  0  0  0  0
  156.7600  211.3110  155.7070 C   0  0  0  0  0  3  0  0  0  0  0  0
  162.9440  210.6810  155.9920 C   0  0  0  0  0  3  0  0  0  0  0  0
  163.6680  210.7870  156.9670 O   0  0  0  0  0  0  0  0  0  0  0  0
  161.2730  208.0390  154.2080 N   0  0  0  0  0  2  0  0  0  0  0  0
  161.5440  207.8780  152.7850 C   0  0  0  0  0  2  0  0  0  0  0  0
  161.3990  205.2740  150.2430 C   0  0  0  0  0  3  0  0  0  0  0  0
  161.6070  204.0440  151.0790 C   0  0  0  0  0  2  0  0  0  0  0  0
  160.8310  204.1330  152.3850 C   0  0  0  0  0  2  0  0  0  0  0  0
  160.8380  206.6390  152.2530 C   0  0  2  0  0  3  0  0  0  0  0  0
  161.2300  205.4180  153.0930 C   0  0  0  0  0  2  0  0  0  0  0  0
  161.0960  206.4740  150.7700 C   0  0  0  0  0  0  0  0  0  0  0  0
  161.5150  207.7020  148.6520 C   0  0  0  0  0  1  0  0  0  0  0  0
  160.9300  207.5920  149.9440 O   0  0  0  0  0  0  0  0  0  0  0  0
  1 18  1  1  0  0  0
  1  2  1  0  0  0  0
  1  3  1  0  0  0  0
  2  7  1  6  0  0  0
  2  5  1  0  0  0  0
  3 16  1  6  0  0  0
  3  5  1  0  0  0  0
  5  4  1  1  0  0  0
  7  6  2  0  0  0  0
  8  7  2  0  0  0  0
  9  7  1  0  0  0  0
  9 11  1  0  0  0  0
 10 14  1  0  0  0  0
 11 15  1  0  0  0  0
 12 11  2  0  0  0  0
 12 13  1  0  0  0  0
 13 10  2  0  0  0  0
 15 14  2  0  0  0  0
 16 17  2  0  0  0  0
 19 18  1  0  0  0  0
 20 25  2  0  0  0  0
 20 21  1  0  0  0  0
 21 22  1  0  0  0  0
 22 24  1  0  0  0  0
 23 19  1  1  0  0  0
 23 24  1  0  0  0  0
 25 23  1  0  0  0  0
 26 27  1  0  0  0  0
 27 25  1  0  0  0  0
M  END
>  <MODEL>
2

>  <REMARK>
 VINA RESULT:      -6.1      2.886      8.419
  Name = 
  8 active torsions:
  status: ('A' for Active; 'I' for Inactive)
    1  A    between atoms: S_2  and  C_15
    2  A    between atoms: S_2  and  C_18
    3  A    between atoms: C_3  and  N_26
    4  A    between atoms: C_9  and  C_15
    5  A    between atoms: C_10  and  C_20
    6  A    between atoms: C_12  and  C_14
    7  A    between atoms: C_12  and  N_26
    8  A    between atoms: C_17  and  O_21
                            x       y       z     vdW  Elec       q    Type
                         _______ _______ _______ _____ _____    ______ ____

>  <TORSDO>
F 8

$$$$
=
 OpenBabel11062407413D

 27 29  0  0  1  0  0  0  0  0999 V2000
  160.8950  206.9970  151.8090 C   0  0  1  0  0  3  0  0  0  0  0  0
  162.1970  207.2590  151.0680 C   0  0  1  0  0  3  0  0  0  0  0  0
  161.3110  205.5520  152.0220 C   0  0  2  0  0  3  0  0  0  0  0  0
  163.6830  205.7440  152.1410 O   0  0  0  0  0  1  0  0  0  0  0  0
  162.6030  205.8090  151.2610 C   0  0  2  0  0  3  0  0  0  0  0  0
  161.5630  209.0790  149.1590 O   0  0  0  0  0  0  0  0  0  0  0  0
  161.8830  207.6220  149.3450 S   0  0  0  0  0  0  0  0  0  0  0  0
  163.0940  207.2740  148.5240 O   0  0  0  0  0  0  0  0  0  0  0  0
  160.4970  206.6430  148.7930 C   0  0  0  0  0  2  0  0  0  0  0  0
  161.6170  204.3100  145.3720 C   0  0  0  0  0  3  0  0  0  0  0  0
  160.8720  205.8250  147.6050 C   0  0  0  0  0  0  0  0  0  0  0  0
  160.7040  206.3440  146.3160 C   0  0  0  0  0  3  0  0  0  0  0  0
  161.0730  205.5870  145.2000 C   0  0  0  0  0  3  0  0  0  0  0  0
  161.7910  203.7900  146.6580 C   0  0  0  0  0  3  0  0  0  0  0  0
  161.4210  204.5480  147.7740 C   0  0  0  0  0  3  0  0  0  0  0  0
  160.4160  204.6490  151.2380 C   0  0  0  0  0  3  0  0  0  0  0  0
  160.5020  203.4390  151.3630 O   0  0  0  0  0  0  0  0  0  0  0  0
  160.9030  207.7000  153.0840 N   0  0  0  0  0  2  0  0  0  0  0  0
  161.0400  209.1230  152.8020 C   0  0  0  0  0  2  0  0  0  0  0  0
  160.4700  211.8910  155.1000 C   0  0  0  0  0  3  0  0  0  0  0  0
  159.5490  212.7540  154.2890 C   0  0  0  0  0  2  0  0  0  0  0  0
  158.5180  211.9120  153.5510 C   0  0  0  0  0  2  0  0  0  0  0  0
  160.0440  209.9210  153.6320 C   0  0  2  0  0  3  0  0  0  0  0  0
  159.2540  210.8700  152.7230 C   0  0  0  0  0  2  0  0  0  0  0  0
  160.7430  210.6120  154.7840 C   0  0  0  0  0  0  0  0  0  0  0  0
  162.7510  210.4150  156.2320 C   0  0  0  0  0  1  0  0  0  0  0  0
  161.6240  209.8570  155.5690 O   0  0  0  0  0  0  0  0  0  0  0  0
  1  3  1  0  0  0  0
  1 18  1  1  0  0  0
  2  7  1  6  0  0  0
  2  5  1  0  0  0  0
  2  1  1  0  0  0  0
  3 16  1  6  0  0  0
  5  3  1  0  0  0  0
  5  4  1  1  0  0  0
  6  7  2  0  0  0  0
  8  7  2  0  0  0  0
  9  7  1  0  0  0  0
 10 14  1  0  0  0  0
 11 15  1  0  0  0  0
 11  9  1  0  0  0  0
 12 11  2  0  0  0  0
 13 10  2  0  0  0  0
 13 12  1  0  0  0  0
 14 15  2  0  0  0  0
 16 17  2  0  0  0  0
 19 18  1  0  0  0  0
 21 20  1  0  0  0  0
 22 21  1  0  0  0  0
 23 19  1  6  0  0  0
 23 25  1  0  0  0  0
 24 22  1  0  0  0  0
 24 23  1  0  0  0  0
 25 20  2  0  0  0  0
 25 27  1  0  0  0  0
 27 26  1  0  0  0  0
M  END
>  <MODEL>
3

>  <REMARK>
 VINA RESULT:      -6.0      1.157      2.038
  Name = 
  8 active torsions:
  status: ('A' for Active; 'I' for Inactive)
    1  A    between atoms: S_2  and  C_15
    2  A    between atoms: S_2  and  C_18
    3  A    between atoms: C_3  and  N_26
    4  A    between atoms: C_9  and  C_15
    5  A    between atoms: C_10  and  C_20
    6  A    between atoms: C_12  and  C_14
    7  A    between atoms: C_12  and  N_26
    8  A    between atoms: C_17  and  O_21
                            x       y       z     vdW  Elec       q    Type
                         _______ _______ _______ _____ _____    ______ ____

>  <TORSDO>
F 8

$$$$
=
 OpenBabel11062407413D

 27 29  0  0  1  0  0  0  0  0999 V2000
  161.4760  209.6160  153.9030 C   0  0  1  0  0  3  0  0  0  0  0  0
  160.0170  209.9510  154.1710 C   0  0  1  0  0  3  0  0  0  0  0  0
  161.7370  209.5710  155.3970 C   0  0  2  0  0  3  0  0  0  0  0  0
  159.6310  208.8350  156.2360 O   0  0  0  0  0  1  0  0  0  0  0  0
  160.2840  209.9290  155.6660 C   0  0  2  0  0  3  0  0  0  0  0  0
  159.9170  212.6140  154.6790 O   0  0  0  0  0  0  0  0  0  0  0  0
  159.6310  211.6030  153.6040 S   0  0  0  0  0  0  0  0  0  0  0  0
  160.4560  211.9280  152.3900 O   0  0  0  0  0  0  0  0  0  0  0  0
  157.9010  211.6770  153.1770 C   0  0  0  0  0  2  0  0  0  0  0  0
  155.5290  212.9560  156.5130 C   0  0  0  0  0  3  0  0  0  0  0  0
  157.0900  212.1240  154.3450 C   0  0  0  0  0  0  0  0  0  0  0  0
  156.6270  213.4430  154.4110 C   0  0  0  0  0  3  0  0  0  0  0  0
  155.8490  213.8590  155.4960 C   0  0  0  0  0  3  0  0  0  0  0  0
  155.9860  211.6360  156.4480 C   0  0  0  0  0  3  0  0  0  0  0  0
  156.7650  211.2200  155.3640 C   0  0  0  0  0  3  0  0  0  0  0  0
  162.6310  210.7030  155.7870 C   0  0  0  0  0  3  0  0  0  0  0  0
  163.4560  210.5580  156.6730 O   0  0  0  0  0  0  0  0  0  0  0  0
  161.5800  208.2730  153.3490 N   0  0  0  0  0  2  0  0  0  0  0  0
  160.8690  208.2650  152.0770 C   0  0  0  0  0  2  0  0  0  0  0  0
  161.0200  205.7220  149.4730 C   0  0  0  0  0  3  0  0  0  0  0  0
  161.3130  206.5640  148.2650 C   0  0  0  0  0  2  0  0  0  0  0  0
  162.3310  207.6480  148.5870 C   0  0  0  0  0  2  0  0  0  0  0  0
  161.7010  207.5600  151.0150 C   0  0  2  0  0  3  0  0  0  0  0  0
  161.8190  208.4510  149.7730 C   0  0  0  0  0  2  0  0  0  0  0  0
  161.1470  206.1800  150.7320 C   0  0  0  0  0  0  0  0  0  0  0  0
  161.2060  203.9810  151.8850 C   0  0  0  0  0  1  0  0  0  0  0  0
  160.8440  205.3550  151.8220 O   0  0  0  0  0  0  0  0  0  0  0  0
  1 18  1  1  0  0  0
  1  2  1  0  0  0  0
  1  3  1  0  0  0  0
  2  7  1  6  0  0  0
  2  5  1  0  0  0  0
  3  5  1  0  0  0  0
  3 16  1  6  0  0  0
  5  4  1  1  0  0  0
  7  6  2  0  0  0  0
  8  7  2  0  0  0  0
  9  7  1  0  0  0  0
  9 11  1  0  0  0  0
 11 12  2  0  0  0  0
 11 15  1  0  0  0  0
 12 13  1  0  0  0  0
 13 10  2  0  0  0  0
 14 10  1  0  0  0  0
 15 14  2  0  0  0  0
 16 17  2  0  0  0  0
 19 18  1  0  0  0  0
 20 25  2  0  0  0  0
 21 22  1  0  0  0  0
 21 20  1  0  0  0  0
 22 24  1  0  0  0  0
 23 19  1  1  0  0  0
 24 23  1  0  0  0  0
 25 23  1  0  0  0  0
 25 27  1  0  0  0  0
 27 26  1  0  0  0  0
M  END
>  <MODEL>
4

>  <REMARK>
 VINA RESULT:      -5.9      2.727      8.433
  Name = 
  8 active torsions:
  status: ('A' for Active; 'I' for Inactive)
    1  A    between atoms: S_2  and  C_15
    2  A    between atoms: S_2  and  C_18
    3  A    between atoms: C_3  and  N_26
    4  A    between atoms: C_9  and  C_15
    5  A    between atoms: C_10  and  C_20
    6  A    between atoms: C_12  and  C_14
    7  A    between atoms: C_12  and  N_26
    8  A    between atoms: C_17  and  O_21
                            x       y       z     vdW  Elec       q    Type
                         _______ _______ _______ _____ _____    ______ ____

>  <TORSDO>
F 8

$$$$
=
 OpenBabel11062407413D

 27 29  0  0  1  0  0  0  0  0999 V2000
  160.3600  209.2620  154.0830 C   0  0  1  0  0  3  0  0  0  0  0  0
  160.6100  210.0900  155.3330 C   0  0  1  0  0  3  0  0  0  0  0  0
  161.3800  210.0960  153.3300 C   0  0  2  0  0  3  0  0  0  0  0  0
  162.8950  210.6940  155.0700 O   0  0  0  0  0  1  0  0  0  0  0  0
  161.6140  210.9390  154.5740 C   0  0  2  0  0  3  0  0  0  0  0  0
  157.9310  210.4610  155.1110 O   0  0  0  0  0  0  0  0  0  0  0  0
  159.1550  211.0370  155.7680 S   0  0  0  0  0  0  0  0  0  0  0  0
  158.9680  211.0230  157.2590 O   0  0  0  0  0  0  0  0  0  0  0  0
  159.3780  212.7190  155.2180 C   0  0  0  0  0  2  0  0  0  0  0  0
  155.7210  214.2170  153.5500 C   0  0  0  0  0  3  0  0  0  0  0  0
  158.1120  213.2550  154.6410 C   0  0  0  0  0  0  0  0  0  0  0  0
  157.9840  213.4080  153.2560 C   0  0  0  0  0  3  0  0  0  0  0  0
  156.7910  213.8910  152.7100 C   0  0  0  0  0  3  0  0  0  0  0  0
  155.8440  214.0620  154.9340 C   0  0  0  0  0  3  0  0  0  0  0  0
  157.0380  213.5790  155.4790 C   0  0  0  0  0  3  0  0  0  0  0  0
  160.6940  210.9030  152.2770 C   0  0  0  0  0  3  0  0  0  0  0  0
  161.2180  211.0650  151.1880 O   0  0  0  0  0  0  0  0  0  0  0  0
  160.8750  207.9130  154.2730 N   0  0  0  0  0  2  0  0  0  0  0  0
  161.5800  207.5350  153.0550 C   0  0  0  0  0  2  0  0  0  0  0  0
  161.3780  205.3180  150.1710 C   0  0  0  0  0  3  0  0  0  0  0  0
  161.5520  203.9780  150.8260 C   0  0  0  0  0  2  0  0  0  0  0  0
  160.7750  203.9020  152.1310 C   0  0  0  0  0  2  0  0  0  0  0  0
  160.8450  206.4010  152.3530 C   0  0  2  0  0  3  0  0  0  0  0  0
  161.2040  205.0650  153.0130 C   0  0  0  0  0  2  0  0  0  0  0  0
  161.1040  206.4400  150.8620 C   0  0  0  0  0  0  0  0  0  0  0  0
  161.9390  208.1770  149.2960 C   0  0  0  0  0  1  0  0  0  0  0  0
  160.9680  207.6670  150.2010 O   0  0  0  0  0  0  0  0  0  0  0  0
  1 18  1  1  0  0  0
  1  2  1  0  0  0  0
  2  7  1  6  0  0  0
  3 16  1  6  0  0  0
  3  1  1  0  0  0  0
  3  5  1  0  0  0  0
  5  4  1  1  0  0  0
  5  2  1  0  0  0  0
  6  7  2  0  0  0  0
  7  8  2  0  0  0  0
  9  7  1  0  0  0  0
 10 14  1  0  0  0  0
 11  9  1  0  0  0  0
 11 15  1  0  0  0  0
 12 11  2  0  0  0  0
 13 12  1  0  0  0  0
 13 10  2  0  0  0  0
 14 15  2  0  0  0  0
 17 16  2  0  0  0  0
 19 18  1  0  0  0  0
 20 21  1  0  0  0  0
 20 25  2  0  0  0  0
 21 22  1  0  0  0  0
 22 24  1  0  0  0  0
 23 24  1  0  0  0  0
 23 19  1  1  0  0  0
 25 23  1  0  0  0  0
 26 27  1  0  0  0  0
 27 25  1  0  0  0  0
M  END
>  <MODEL>
5

>  <REMARK>
 VINA RESULT:      -5.8      3.006      8.205
  Name = 
  8 active torsions:
  status: ('A' for Active; 'I' for Inactive)
    1  A    between atoms: S_2  and  C_15
    2  A    between atoms: S_2  and  C_18
    3  A    between atoms: C_3  and  N_26
    4  A    between atoms: C_9  and  C_15
    5  A    between atoms: C_10  and  C_20
    6  A    between atoms: C_12  and  C_14
    7  A    between atoms: C_12  and  N_26
    8  A    between atoms: C_17  and  O_21
                            x       y       z     vdW  Elec       q    Type
                         _______ _______ _______ _____ _____    ______ ____

>  <TORSDO>
F 8

$$$$
=
 OpenBabel11062407413D

 27 29  0  0  1  0  0  0  0  0999 V2000
  160.1100  210.5230  155.4480 C   0  0  1  0  0  3  0  0  0  0  0  0
  161.2130  211.0060  154.5190 C   0  0  1  0  0  3  0  0  0  0  0  0
  161.0800  209.5440  156.0850 C   0  0  2  0  0  3  0  0  0  0  0  0
  163.1520  210.7000  155.8610 O   0  0  0  0  0  1  0  0  0  0  0  0
  162.1770  210.0110  155.1400 C   0  0  2  0  0  3  0  0  0  0  0  0
  159.6450  209.6750  152.7490 O   0  0  0  0  0  0  0  0  0  0  0  0
  160.8430  210.5790  152.8210 S   0  0  0  0  0  0  0  0  0  0  0  0
  160.5670  211.8290  152.0330 O   0  0  0  0  0  0  0  0  0  0  0  0
  162.2520  209.7400  152.1180 C   0  0  0  0  0  2  0  0  0  0  0  0
  161.0150  206.0430  150.3290 C   0  0  0  0  0  3  0  0  0  0  0  0
  161.8370  208.4520  151.4930 C   0  0  0  0  0  0  0  0  0  0  0  0
  161.6400  207.3190  152.2900 C   0  0  0  0  0  3  0  0  0  0  0  0
  161.2310  206.1150  151.7090 C   0  0  0  0  0  3  0  0  0  0  0  0
  161.2070  207.1740  149.5300 C   0  0  0  0  0  3  0  0  0  0  0  0
  161.6170  208.3790  150.1120 C   0  0  0  0  0  3  0  0  0  0  0  0
  160.6720  208.1450  155.7570 C   0  0  0  0  0  3  0  0  0  0  0  0
  160.5520  207.3160  156.6430 O   0  0  0  0  0  0  0  0  0  0  0  0
  159.7760  211.5710  156.4030 N   0  0  0  0  0  2  0  0  0  0  0  0
  159.3380  212.7350  155.6440 C   0  0  0  0  0  2  0  0  0  0  0  0
  156.0620  211.4900  154.6510 C   0  0  0  0  0  3  0  0  0  0  0  0
  155.4870  211.0990  155.9810 C   0  0  0  0  0  2  0  0  0  0  0  0
  155.8210  212.1330  157.0460 C   0  0  0  0  0  2  0  0  0  0  0  0
  157.8250  212.8810  155.7340 C   0  0  2  0  0  3  0  0  0  0  0  0
  157.3290  212.3230  157.0740 C   0  0  0  0  0  2  0  0  0  0  0  0
  157.1570  212.2620  154.5250 C   0  0  0  0  0  0  0  0  0  0  0  0
  157.4390  213.8360  152.6250 C   0  0  0  0  0  1  0  0  0  0  0  0
  157.6600  212.5820  153.2580 O   0  0  0  0  0  0  0  0  0  0  0  0
  1  3  1  0  0  0  0
  1 18  1  1  0  0  0
  2  7  1  6  0  0  0
  2  5  1  0  0  0  0
  2  1  1  0  0  0  0
  3 16  1  6  0  0  0
  5  4  1  1  0  0  0
  5  3  1  0  0  0  0
  6  7  2  0  0  0  0
  8  7  2  0  0  0  0
  9  7  1  0  0  0  0
 10 13  1  0  0  0  0
 11  9  1  0  0  0  0
 11 12  1  0  0  0  0
 13 12  2  0  0  0  0
 14 15  1  0  0  0  0
 14 10  2  0  0  0  0
 15 11  2  0  0  0  0
 16 17  2  0  0  0  0
 19 18  1  0  0  0  0
 20 21  1  0  0  0  0
 21 22  1  0  0  0  0
 22 24  1  0  0  0  0
 23 19  1  6  0  0  0
 23 24  1  0  0  0  0
 25 20  2  0  0  0  0
 25 23  1  0  0  0  0
 26 27  1  0  0  0  0
 27 25  1  0  0  0  0
M  END
>  <MODEL>
6

>  <REMARK>
 VINA RESULT:      -5.7      3.404      5.027
  Name = 
  8 active torsions:
  status: ('A' for Active; 'I' for Inactive)
    1  A    between atoms: S_2  and  C_15
    2  A    between atoms: S_2  and  C_18
    3  A    between atoms: C_3  and  N_26
    4  A    between atoms: C_9  and  C_15
    5  A    between atoms: C_10  and  C_20
    6  A    between atoms: C_12  and  C_14
    7  A    between atoms: C_12  and  N_26
    8  A    between atoms: C_17  and  O_21
                            x       y       z     vdW  Elec       q    Type
                         _______ _______ _______ _____ _____    ______ ____

>  <TORSDO>
F 8

$$$$
=
 OpenBabel11062407413D

 27 29  0  0  1  0  0  0  0  0999 V2000
  160.6080  209.3800  153.0070 C   0  0  1  0  0  3  0  0  0  0  0  0
  161.0650  208.6850  151.7330 C   0  0  1  0  0  3  0  0  0  0  0  0
  161.7950  210.3210  152.9150 C   0  0  2  0  0  3  0  0  0  0  0  0
  162.1200  210.4630  150.5580 O   0  0  0  0  0  1  0  0  0  0  0  0
  162.2640  209.6120  151.6540 C   0  0  2  0  0  3  0  0  0  0  0  0
  162.9420  206.7360  151.5320 O   0  0  0  0  0  0  0  0  0  0  0  0
  161.5650  207.0020  152.0740 S   0  0  0  0  0  0  0  0  0  0  0  0
  161.5660  206.7630  153.5580 O   0  0  0  0  0  0  0  0  0  0  0  0
  160.4070  205.8880  151.3000 C   0  0  0  0  0  2  0  0  0  0  0  0
  161.5680  204.9970  147.2680 C   0  0  0  0  0  3  0  0  0  0  0  0
  160.8250  205.5840  149.9020 C   0  0  0  0  0  0  0  0  0  0  0  0
  161.2000  204.2810  149.5510 C   0  0  0  0  0  3  0  0  0  0  0  0
  161.5740  203.9890  148.2360 C   0  0  0  0  0  3  0  0  0  0  0  0
  161.1910  206.2980  147.6130 C   0  0  0  0  0  3  0  0  0  0  0  0
  160.8180  206.5910  148.9290 C   0  0  0  0  0  3  0  0  0  0  0  0
  162.7390  210.0550  154.0430 C   0  0  0  0  0  3  0  0  0  0  0  0
  162.6640  210.7030  155.0720 O   0  0  0  0  0  0  0  0  0  0  0  0
  159.3790  210.1180  152.7530 N   0  0  0  0  0  2  0  0  0  0  0  0
  159.6730  211.5350  152.9190 C   0  0  0  0  0  2  0  0  0  0  0  0
  156.4600  212.9450  153.8980 C   0  0  0  0  0  3  0  0  0  0  0  0
  156.0040  211.9410  154.9170 C   0  0  0  0  0  2  0  0  0  0  0  0
  157.1560  211.5070  155.8110 C   0  0  0  0  0  2  0  0  0  0  0  0
  158.8110  212.1230  154.0280 C   0  0  2  0  0  3  0  0  0  0  0  0
  158.2840  210.9990  154.9270 C   0  0  0  0  0  2  0  0  0  0  0  0
  157.7260  213.0060  153.4470 C   0  0  0  0  0  0  0  0  0  0  0  0
  157.4980  214.0230  151.1930 C   0  0  0  0  0  1  0  0  0  0  0  0
  158.0930  213.9530  152.4820 O   0  0  0  0  0  0  0  0  0  0  0  0
  1 18  1  6  0  0  0
  2  7  1  1  0  0  0
  2  1  1  0  0  0  0
  3  1  1  0  0  0  0
  3 16  1  1  0  0  0
  5  4  1  6  0  0  0
  5  2  1  0  0  0  0
  5  3  1  0  0  0  0
  6  7  2  0  0  0  0
  7  8  2  0  0  0  0
  9  7  1  0  0  0  0
 10 14  2  0  0  0  0
 10 13  1  0  0  0  0
 11  9  1  0  0  0  0
 12 11  1  0  0  0  0
 13 12  2  0  0  0  0
 14 15  1  0  0  0  0
 15 11  2  0  0  0  0
 16 17  2  0  0  0  0
 18 19  1  0  0  0  0
 20 21  1  0  0  0  0
 21 22  1  0  0  0  0
 23 19  1  6  0  0  0
 23 24  1  0  0  0  0
 24 22  1  0  0  0  0
 25 20  2  0  0  0  0
 25 23  1  0  0  0  0
 26 27  1  0  0  0  0
 27 25  1  0  0  0  0
M  END
>  <MODEL>
7

>  <REMARK>
 VINA RESULT:      -5.7      1.979      3.715
  Name = 
  8 active torsions:
  status: ('A' for Active; 'I' for Inactive)
    1  A    between atoms: S_2  and  C_15
    2  A    between atoms: S_2  and  C_18
    3  A    between atoms: C_3  and  N_26
    4  A    between atoms: C_9  and  C_15
    5  A    between atoms: C_10  and  C_20
    6  A    between atoms: C_12  and  C_14
    7  A    between atoms: C_12  and  N_26
    8  A    between atoms: C_17  and  O_21
                            x       y       z     vdW  Elec       q    Type
                         _______ _______ _______ _____ _____    ______ ____

>  <TORSDO>
F 8

$$$$
=
 OpenBabel11062407413D

 27 29  0  0  1  0  0  0  0  0999 V2000
  160.0660  210.7990  155.4560 C   0  0  1  0  0  3  0  0  0  0  0  0
  161.2120  211.0810  154.4970 C   0  0  1  0  0  3  0  0  0  0  0  0
  160.9290  209.7820  156.1820 C   0  0  2  0  0  3  0  0  0  0  0  0
  163.1100  210.6900  155.8750 O   0  0  0  0  0  1  0  0  0  0  0  0
  162.0670  210.0480  155.2090 C   0  0  2  0  0  3  0  0  0  0  0  0
  159.6120  209.6250  152.8590 O   0  0  0  0  0  0  0  0  0  0  0  0
  160.7970  210.5510  152.8400 S   0  0  0  0  0  0  0  0  0  0  0  0
  160.4730  211.7480  151.9900 O   0  0  0  0  0  0  0  0  0  0  0  0
  162.1970  209.6950  152.1400 C   0  0  0  0  0  2  0  0  0  0  0  0
  161.0210  205.9570  150.3950 C   0  0  0  0  0  3  0  0  0  0  0  0
  161.7730  208.3990  151.5380 C   0  0  0  0  0  0  0  0  0  0  0  0
  161.5810  208.3000  150.1540 C   0  0  0  0  0  3  0  0  0  0  0  0
  161.2030  207.0810  149.5840 C   0  0  0  0  0  3  0  0  0  0  0  0
  161.2160  206.0510  151.7770 C   0  0  0  0  0  3  0  0  0  0  0  0
  161.5930  207.2710  152.3470 C   0  0  0  0  0  3  0  0  0  0  0  0
  160.3760  208.4100  155.9720 C   0  0  0  0  0  3  0  0  0  0  0  0
  160.3690  207.6040  156.8870 O   0  0  0  0  0  0  0  0  0  0  0  0
  159.8460  211.9540  156.3150 N   0  0  0  0  0  2  0  0  0  0  0  0
  158.4110  212.1970  156.3670 C   0  0  0  0  0  2  0  0  0  0  0  0
  155.5680  213.0550  154.2560 C   0  0  0  0  0  3  0  0  0  0  0  0
  156.1200  214.2210  153.4890 C   0  0  0  0  0  2  0  0  0  0  0  0
  157.5620  213.9700  153.0750 C   0  0  0  0  0  2  0  0  0  0  0  0
  157.8500  212.3360  154.9580 C   0  0  2  0  0  3  0  0  0  0  0  0
  158.3670  213.6300  154.3190 C   0  0  0  0  0  2  0  0  0  0  0  0
  156.3410  212.2160  154.9700 C   0  0  0  0  0  0  0  0  0  0  0  0
  155.2070  210.0080  155.0530 C   0  0  0  0  0  1  0  0  0  0  0  0
  155.7700  211.1530  155.6810 O   0  0  0  0  0  0  0  0  0  0  0  0
  1  3  1  0  0  0  0
  1 18  1  1  0  0  0
  2  7  1  6  0  0  0
  2  5  1  0  0  0  0
  2  1  1  0  0  0  0
  3 16  1  6  0  0  0
  5  4  1  1  0  0  0
  5  3  1  0  0  0  0
  7  6  2  0  0  0  0
  8  7  2  0  0  0  0
  9  7  1  0  0  0  0
 10 14  1  0  0  0  0
 11  9  1  0  0  0  0
 11 15  1  0  0  0  0
 12 11  2  0  0  0  0
 13 12  1  0  0  0  0
 13 10  2  0  0  0  0
 14 15  2  0  0  0  0
 16 17  2  0  0  0  0
 18 19  1  0  0  0  0
 20 25  2  0  0  0  0
 21 20  1  0  0  0  0
 22 21  1  0  0  0  0
 22 24  1  0  0  0  0
 23 25  1  0  0  0  0
 23 19  1  1  0  0  0
 24 23  1  0  0  0  0
 25 27  1  0  0  0  0
 26 27  1  0  0  0  0
M  END
>  <MODEL>
8

>  <REMARK>
 VINA RESULT:      -5.6      3.419      5.480
  Name = 
  8 active torsions:
  status: ('A' for Active; 'I' for Inactive)
    1  A    between atoms: S_2  and  C_15
    2  A    between atoms: S_2  and  C_18
    3  A    between atoms: C_3  and  N_26
    4  A    between atoms: C_9  and  C_15
    5  A    between atoms: C_10  and  C_20
    6  A    between atoms: C_12  and  C_14
    7  A    between atoms: C_12  and  N_26
    8  A    between atoms: C_17  and  O_21
                            x       y       z     vdW  Elec       q    Type
                         _______ _______ _______ _____ _____    ______ ____

>  <TORSDO>
F 8

$$$$
=
 OpenBabel11062407413D

 27 29  0  0  1  0  0  0  0  0999 V2000
  160.3070  209.4320  152.3880 C   0  0  1  0  0  3  0  0  0  0  0  0
  161.6820  209.5680  151.7510 C   0  0  1  0  0  3  0  0  0  0  0  0
  160.9600  209.0960  153.7160 C   0  0  2  0  0  3  0  0  0  0  0  0
  162.9950  210.3280  153.5820 O   0  0  0  0  0  1  0  0  0  0  0  0
  162.3340  209.2100  153.0740 C   0  0  2  0  0  3  0  0  0  0  0  0
  162.2720  208.8900  149.1910 O   0  0  0  0  0  0  0  0  0  0  0  0
  161.9450  208.2880  150.5290 S   0  0  0  0  0  0  0  0  0  0  0  0
  163.0780  207.4000  150.9610 O   0  0  0  0  0  0  0  0  0  0  0  0
  160.4560  207.3150  150.3850 C   0  0  0  0  0  2  0  0  0  0  0  0
  161.2730  203.4740  148.6600 C   0  0  0  0  0  3  0  0  0  0  0  0
  160.7560  205.9830  149.7870 C   0  0  0  0  0  0  0  0  0  0  0  0
  160.7480  204.8370  150.5910 C   0  0  0  0  0  3  0  0  0  0  0  0
  161.0080  203.5840  150.0280 C   0  0  0  0  0  3  0  0  0  0  0  0
  161.2770  204.6160  147.8530 C   0  0  0  0  0  3  0  0  0  0  0  0
  161.0180  205.8700  148.4160 C   0  0  0  0  0  3  0  0  0  0  0  0
  160.6710  207.6740  154.0750 C   0  0  0  0  0  3  0  0  0  0  0  0
  160.6320  207.3310  155.2450 O   0  0  0  0  0  0  0  0  0  0  0  0
  159.6710  210.7390  152.4730 N   0  0  0  0  0  2  0  0  0  0  0  0
  160.4540  211.6630  151.6630 C   0  0  0  0  0  2  0  0  0  0  0  0
  158.5460  213.7590  149.3740 C   0  0  0  0  0  3  0  0  0  0  0  0
  157.2120  213.7960  150.0610 C   0  0  0  0  0  2  0  0  0  0  0  0
  157.3770  213.9490  151.5660 C   0  0  0  0  0  2  0  0  0  0  0  0
  159.6780  212.9560  151.4450 C   0  0  2  0  0  3  0  0  0  0  0  0
  158.2820  212.8330  152.0650 C   0  0  0  0  0  2  0  0  0  0  0  0
  159.6690  213.3310  149.9790 C   0  0  0  0  0  0  0  0  0  0  0  0
  160.9710  213.2130  147.8670 C   0  0  0  0  0  1  0  0  0  0  0  0
  160.8850  213.3020  149.2830 O   0  0  0  0  0  0  0  0  0  0  0  0
  1 18  1  1  0  0  0
  1  3  1  0  0  0  0
  2  7  1  6  0  0  0
  2  1  1  0  0  0  0
  2  5  1  0  0  0  0
  3 16  1  6  0  0  0
  5  4  1  1  0  0  0
  5  3  1  0  0  0  0
  6  7  2  0  0  0  0
  7  8  2  0  0  0  0
  9  7  1  0  0  0  0
 10 13  1  0  0  0  0
 11  9  1  0  0  0  0
 11 12  1  0  0  0  0
 13 12  2  0  0  0  0
 14 15  1  0  0  0  0
 14 10  2  0  0  0  0
 15 11  2  0  0  0  0
 16 17  2  0  0  0  0
 19 18  1  0  0  0  0
 20 25  2  0  0  0  0
 20 21  1  0  0  0  0
 21 22  1  0  0  0  0
 22 24  1  0  0  0  0
 23 19  1  6  0  0  0
 23 24  1  0  0  0  0
 25 23  1  0  0  0  0
 26 27  1  0  0  0  0
 27 25  1  0  0  0  0
M  END
>  <MODEL>
9

>  <REMARK>
 VINA RESULT:      -5.6      2.169      3.850
  Name = 
  8 active torsions:
  status: ('A' for Active; 'I' for Inactive)
    1  A    between atoms: S_2  and  C_15
    2  A    between atoms: S_2  and  C_18
    3  A    between atoms: C_3  and  N_26
    4  A    between atoms: C_9  and  C_15
    5  A    between atoms: C_10  and  C_20
    6  A    between atoms: C_12  and  C_14
    7  A    between atoms: C_12  and  N_26
    8  A    between atoms: C_17  and  O_21
                            x       y       z     vdW  Elec       q    Type
                         _______ _______ _______ _____ _____    ______ ____

>  <TORSDO>
F 8

$$$$
