=
 OpenBabel11052422563D

 28 31  0  0  1  0  0  0  0  0999 V2000
  160.8390  205.1250  148.8020 C   0  0  2  0  0  0  0  0  0  0  0  0
  161.7090  205.6840  150.9380 C   0  0  1  0  0  3  0  0  0  0  0  0
  160.0010  206.3790  148.7920 C   0  0  0  0  0  2  0  0  0  0  0  0
  161.5490  203.2080  150.2200 C   0  0  0  0  0  2  0  0  0  0  0  0
  161.7480  204.2060  151.3940 C   0  0  0  0  0  2  0  0  0  0  0  0
  160.5000  203.6870  149.1860 C   0  0  0  0  0  2  0  0  0  0  0  0
  160.4270  205.8270  150.1290 C   0  0  1  0  0  3  0  0  0  0  0  0
  162.2720  205.3540  148.2250 C   0  0  2  0  0  3  0  0  0  0  0  0
  162.5830  206.7090  148.0420 O   0  0  0  0  0  1  0  0  0  0  0  0
  162.5130  204.5800  146.9310 C   0  0  0  0  0  2  0  0  0  0  0  0
  161.2170  202.9560  145.5560 C   0  0  0  0  0  1  0  0  0  0  0  0
  161.2260  204.3540  146.1440 C   0  0  2  0  0  3  0  0  0  0  0  0
  161.0440  205.3670  145.0590 C   0  0  0  0  0  0  0  0  0  0  0  0
  160.1660  206.4240  145.2570 O   0  0  0  0  0  1  0  0  0  0  0  0
  161.6470  205.2590  143.9570 O   0  0  0  0  0  0  0  0  0  0  0  0
  161.8930  206.0590  153.4330 C   0  0  0  0  0  1  0  0  0  0  0  0
  161.7170  206.5960  152.0850 N   0  0  0  0  0  0  0  0  0  0  0  0
  158.7770  210.7740  154.3650 C   0  0  0  0  0  1  0  0  0  0  0  0
  161.0620  210.7360  151.5050 C   0  0  0  0  0  0  0  0  0  0  0  0
  160.5950  208.7060  152.7360 C   0  0  0  0  0  3  0  0  0  0  0  0
  159.8650  212.1870  152.4980 C   0  0  0  0  0  0  0  0  0  0  0  0
  160.4100  210.0690  152.5110 C   0  0  1  0  0  3  0  0  0  0  0  0
  162.1580  208.7080  150.8570 C   0  0  0  0  0  3  0  0  0  0  0  0
  160.7410  212.0450  151.4760 N   0  0  0  0  0  0  0  0  0  0  0  0
  161.9490  210.0830  150.6550 C   0  0  0  0  0  3  0  0  0  0  0  0
  159.2750  213.4330  152.8450 N   0  0  0  0  0  1  0  0  0  0  0  0
  159.6360  210.9920  153.1660 C   0  0  0  0  0  0  0  0  0  0  0  0
  161.4860  208.0060  151.8920 C   0  0  0  0  0  0  0  0  0  0  0  0
  1  8  1  6  0  0  0
  1  6  1  0  0  0  0
  1  7  1  0  0  0  0
  2  5  1  0  0  0  0
  2 17  1  1  0  0  0
  3  1  1  0  0  0  0
  4  5  1  0  0  0  0
  6  4  1  0  0  0  0
  7  3  1  6  0  0  0
  7  2  1  0  0  0  0
  8  9  1  6  0  0  0
 10  8  1  0  0  0  0
 12 11  1  6  0  0  0
 12 10  1  0  0  0  0
 13 14  1  0  0  0  0
 13 12  1  0  0  0  0
 15 13  2  0  0  0  0
 17 16  1  0  0  0  0
 19 22  1  0  0  0  0
 21 26  1  0  0  0  0
 21 27  2  0  0  0  0
 22 20  1  1  0  0  0
 22 27  1  0  0  0  0
 23 28  1  0  0  0  0
 24 19  2  0  0  0  0
 24 21  1  0  0  0  0
 25 23  2  0  0  0  0
 25 19  1  0  0  0  0
 27 18  1  0  0  0  0
 28 17  1  0  0  0  0
 28 20  2  0  0  0  0
M  END
>  <MODEL>
1

>  <REMARK>
 VINA RESULT:      -7.4      0.000      0.000
  Name = 
  6 active torsions:
  status: ('A' for Active; 'I' for Inactive)
    1  A    between atoms: C_1  and  C_2
    2  A    between atoms: C_2  and  C_3
    3  A    between atoms: C_3  and  C_11
    4  A    between atoms: C_6  and  C_11
    5  A    between atoms: C_16  and  N_20
    6  A    between atoms: N_20  and  C_25
                            x       y       z     vdW  Elec       q    Type
                         _______ _______ _______ _____ _____    ______ ____

>  <TORSDO>
F 6

$$$$
=
 OpenBabel11052422563D

 28 31  0  0  1  0  0  0  0  0999 V2000
  160.7020  209.9000  155.0700 C   0  0  2  0  0  0  0  0  0  0  0  0
  160.8510  208.2370  153.3840 C   0  0  1  0  0  3  0  0  0  0  0  0
  161.7560  210.7270  154.3770 C   0  0  0  0  0  2  0  0  0  0  0  0
  160.1230  207.5860  155.7740 C   0  0  0  0  0  2  0  0  0  0  0  0
  160.6230  207.0860  154.3920 C   0  0  0  0  0  2  0  0  0  0  0  0
  160.7970  208.9060  156.2240 C   0  0  0  0  0  2  0  0  0  0  0  0
  161.7350  209.2430  154.1080 C   0  0  1  0  0  3  0  0  0  0  0  0
  159.2610  210.2080  154.5550 C   0  0  2  0  0  3  0  0  0  0  0  0
  159.2400  211.0950  153.4700 O   0  0  0  0  0  1  0  0  0  0  0  0
  158.3370  210.7110  155.6630 C   0  0  0  0  0  2  0  0  0  0  0  0
  157.2990  212.9760  155.6050 C   0  0  0  0  0  1  0  0  0  0  0  0
  157.1810  211.5440  155.1160 C   0  0  2  0  0  3  0  0  0  0  0  0
  155.8500  210.9800  155.5010 C   0  0  0  0  0  0  0  0  0  0  0  0
  155.3260  211.2700  156.7530 O   0  0  0  0  0  1  0  0  0  0  0  0
  155.2150  210.2180  154.7230 O   0  0  0  0  0  0  0  0  0  0  0  0
  162.2590  208.6810  151.3290 C   0  0  0  0  0  1  0  0  0  0  0  0
  161.4920  207.7530  152.1580 N   0  0  0  0  0  0  0  0  0  0  0  0
  161.2960  204.7480  147.4430 C   0  0  0  0  0  1  0  0  0  0  0  0
  160.9650  203.7330  150.9450 C   0  0  0  0  0  0  0  0  0  0  0  0
  161.3090  206.0560  150.3620 C   0  0  0  0  0  3  0  0  0  0  0  0
  160.9100  202.7660  149.0510 C   0  0  0  0  0  0  0  0  0  0  0  0
  161.1330  204.7200  150.0070 C   0  0  0  0  0  0  0  0  0  0  0  0
  161.1370  205.3550  152.6970 C   0  0  0  0  0  3  0  0  0  0  0  0
  160.8230  202.5180  150.3790 N   0  0  0  0  0  0  0  0  0  0  0  0
  160.9620  204.0170  152.3070 C   0  0  0  0  0  3  0  0  0  0  0  0
  160.8280  201.7440  148.0660 N   0  0  0  0  0  1  0  0  0  0  0  0
  161.1060  204.1120  148.7780 C   0  0  0  0  0  0  0  0  0  0  0  0
  161.3100  206.3860  151.7360 C   0  0  1  0  0  3  0  0  0  0  0  0
  1  8  1  6  0  0  0
  1  6  1  0  0  0  0
  2 17  1  6  0  0  0
  2  7  1  0  0  0  0
  2  5  1  0  0  0  0
  3  1  1  0  0  0  0
  4  6  1  0  0  0  0
  5  4  1  0  0  0  0
  7  3  1  6  0  0  0
  7  1  1  0  0  0  0
  8  9  1  6  0  0  0
  8 10  1  0  0  0  0
 12 13  1  0  0  0  0
 12 11  1  1  0  0  0
 12 10  1  0  0  0  0
 13 14  1  0  0  0  0
 15 13  2  0  0  0  0
 16 17  1  0  0  0  0
 18 27  1  0  0  0  0
 19 25  1  0  0  0  0
 20 28  1  0  0  0  0
 21 24  1  0  0  0  0
 22 20  2  0  0  0  0
 22 19  1  0  0  0  0
 24 19  2  0  0  0  0
 25 23  2  0  0  0  0
 26 21  1  0  0  0  0
 27 21  2  0  0  0  0
 27 22  1  0  0  0  0
 28 17  1  1  0  0  0
 28 23  1  0  0  0  0
M  END
>  <MODEL>
2

>  <REMARK>
 VINA RESULT:      -7.2      4.049      8.757
  Name = 
  6 active torsions:
  status: ('A' for Active; 'I' for Inactive)
    1  A    between atoms: C_1  and  C_2
    2  A    between atoms: C_2  and  C_3
    3  A    between atoms: C_3  and  C_11
    4  A    between atoms: C_6  and  C_11
    5  A    between atoms: C_16  and  N_20
    6  A    between atoms: N_20  and  C_25
                            x       y       z     vdW  Elec       q    Type
                         _______ _______ _______ _____ _____    ______ ____

>  <TORSDO>
F 6

$$$$
=
 OpenBabel11052422563D

 28 31  0  0  1  0  0  0  0  0999 V2000
  162.1470  204.6170  145.8820 C   0  0  2  0  0  0  0  0  0  0  0  0
  161.3340  206.1810  147.4710 C   0  0  1  0  0  3  0  0  0  0  0  0
  163.5560  204.8070  146.3850 C   0  0  0  0  0  2  0  0  0  0  0  0
  160.0740  205.8350  145.2440 C   0  0  0  0  0  2  0  0  0  0  0  0
  160.2660  206.7320  146.4960 C   0  0  0  0  0  2  0  0  0  0  0  0
  161.4020  205.2460  144.7070 C   0  0  0  0  0  2  0  0  0  0  0  0
  162.5690  205.9230  146.6190 C   0  0  1  0  0  3  0  0  0  0  0  0
  161.3720  203.5110  146.6640 C   0  0  2  0  0  3  0  0  0  0  0  0
  162.0340  203.0900  147.8260 O   0  0  0  0  0  1  0  0  0  0  0  0
  161.0290  202.3060  145.7900 C   0  0  0  0  0  2  0  0  0  0  0  0
  159.8440  201.7410  147.9080 C   0  0  0  0  0  1  0  0  0  0  0  0
  160.3350  201.1990  146.5790 C   0  0  2  0  0  3  0  0  0  0  0  0
  161.2320  200.0230  146.8050 C   0  0  0  0  0  0  0  0  0  0  0  0
  161.3670  199.0700  145.8050 O   0  0  0  0  0  0  0  0  0  0  0  0
  161.8370  199.8650  147.8990 O   0  0  0  0  0  1  0  0  0  0  0  0
  162.1350  208.4640  148.2110 C   0  0  0  0  0  1  0  0  0  0  0  0
  161.6200  207.1370  148.5440 N   0  0  0  0  0  0  0  0  0  0  0  0
  160.9030  209.4910  153.5690 C   0  0  0  0  0  1  0  0  0  0  0  0
  161.1360  205.9730  152.5840 C   0  0  0  0  0  0  0  0  0  0  0  0
  161.3220  207.7300  150.9310 C   0  0  0  0  0  3  0  0  0  0  0  0
  160.8820  207.0480  154.4010 C   0  0  0  0  0  0  0  0  0  0  0  0
  161.1640  207.3030  152.2480 C   0  0  0  0  0  0  0  0  0  0  0  0
  161.4250  205.3750  150.2830 C   0  0  0  0  0  3  0  0  0  0  0  0
  160.9650  205.7900  153.9080 N   0  0  0  0  0  2  0  0  0  0  0  0
  161.2630  204.9770  151.6200 C   0  0  0  0  0  3  0  0  0  0  0  0
  160.6790  207.3270  155.7810 N   0  0  0  0  0  1  0  0  0  0  0  0
  160.9960  208.0110  153.4100 C   0  0  0  0  0  0  0  0  0  0  0  0
  161.4580  206.7490  149.9230 C   0  0  0  0  0  0  0  0  0  0  0  0
  1  3  1  0  0  0  0
  1  7  1  0  0  0  0
  1  8  1  1  0  0  0
  2 17  1  1  0  0  0
  4  5  1  0  0  0  0
  5  2  1  0  0  0  0
  6  4  1  0  0  0  0
  6  1  1  0  0  0  0
  7  3  1  1  0  0  0
  7  2  1  0  0  0  0
  8  9  1  1  0  0  0
 10 12  1  0  0  0  0
 10  8  1  0  0  0  0
 12 13  1  0  0  0  0
 12 11  1  1  0  0  0
 13 15  1  0  0  0  0
 14 13  2  0  0  0  0
 16 17  1  0  0  0  0
 17 28  1  0  0  0  0
 19 24  1  0  0  0  0
 20 22  1  0  0  0  0
 21 26  1  0  0  0  0
 22 19  2  0  0  0  0
 22 27  1  0  0  0  0
 23 25  2  0  0  0  0
 24 21  1  0  0  0  0
 25 19  1  0  0  0  0
 27 18  1  0  0  0  0
 27 21  2  0  0  0  0
 28 23  1  0  0  0  0
 28 20  2  0  0  0  0
M  END
>  <MODEL>
3

>  <REMARK>
 VINA RESULT:      -7.1      2.690      4.631
  Name = 
  6 active torsions:
  status: ('A' for Active; 'I' for Inactive)
    1  A    between atoms: C_1  and  C_2
    2  A    between atoms: C_2  and  C_3
    3  A    between atoms: C_3  and  C_11
    4  A    between atoms: C_6  and  C_11
    5  A    between atoms: C_16  and  N_20
    6  A    between atoms: N_20  and  C_25
                            x       y       z     vdW  Elec       q    Type
                         _______ _______ _______ _____ _____    ______ ____

>  <TORSDO>
F 6

$$$$
=
 OpenBabel11052422563D

 28 31  0  0  1  0  0  0  0  0999 V2000
  160.9630  209.7210  154.7780 C   0  0  2  0  0  0  0  0  0  0  0  0
  160.9740  208.6130  152.6790 C   0  0  1  0  0  3  0  0  0  0  0  0
  161.8960  210.7800  154.2470 C   0  0  0  0  0  2  0  0  0  0  0  0
  160.5600  207.2660  154.8440 C   0  0  0  0  0  2  0  0  0  0  0  0
  160.9110  207.2120  153.3320 C   0  0  0  0  0  2  0  0  0  0  0  0
  161.2320  208.4510  155.5820 C   0  0  0  0  0  2  0  0  0  0  0  0
  161.8990  209.4350  153.5670 C   0  0  1  0  0  3  0  0  0  0  0  0
  159.4600  210.0590  154.5250 C   0  0  2  0  0  3  0  0  0  0  0  0
  159.2780  211.1770  153.7000 O   0  0  0  0  0  1  0  0  0  0  0  0
  158.6700  210.2270  155.8210 C   0  0  0  0  0  2  0  0  0  0  0  0
  158.5660  212.3110  157.1830 C   0  0  0  0  0  1  0  0  0  0  0  0
  158.0450  211.6140  155.9400 C   0  0  2  0  0  3  0  0  0  0  0  0
  156.5510  211.5560  155.9730 C   0  0  0  0  0  0  0  0  0  0  0  0
  155.8910  210.6120  155.1990 O   0  0  0  0  0  0  0  0  0  0  0  0
  155.8810  212.3720  156.6620 O   0  0  0  0  0  1  0  0  0  0  0  0
  162.1140  209.7130  150.7060 C   0  0  0  0  0  1  0  0  0  0  0  0
  161.4820  208.5400  151.3070 N   0  0  0  0  0  0  0  0  0  0  0  0
  161.0640  203.0120  152.0610 C   0  0  0  0  0  1  0  0  0  0  0  0
  160.9390  205.0290  149.0080 C   0  0  0  0  0  0  0  0  0  0  0  0
  161.2750  206.0750  151.1630 C   0  0  0  0  0  3  0  0  0  0  0  0
  160.8140  202.9610  149.4920 C   0  0  0  0  0  0  0  0  0  0  0  0
  161.0920  204.9450  150.3690 C   0  0  0  0  0  0  0  0  0  0  0  0
  161.1380  207.4120  149.1210 C   0  0  0  0  0  3  0  0  0  0  0  0
  160.7670  203.8170  148.4440 N   0  0  0  0  0  0  0  0  0  0  0  0
  160.9550  206.2530  148.3480 C   0  0  0  0  0  3  0  0  0  0  0  0
  160.6580  201.5540  149.3520 N   0  0  0  0  0  1  0  0  0  0  0  0
  161.0090  203.6170  150.6990 C   0  0  0  0  0  0  0  0  0  0  0  0
  161.3000  207.3380  150.5300 C   0  0  1  0  0  3  0  0  0  0  0  0
  1  8  1  6  0  0  0
  1  6  1  0  0  0  0
  2 17  1  6  0  0  0
  2  5  1  0  0  0  0
  2  7  1  0  0  0  0
  3  1  1  0  0  0  0
  4  6  1  0  0  0  0
  5  4  1  0  0  0  0
  7  3  1  6  0  0  0
  7  1  1  0  0  0  0
  8  9  1  1  0  0  0
  8 10  1  0  0  0  0
 10 12  1  0  0  0  0
 12 13  1  0  0  0  0
 12 11  1  1  0  0  0
 13 15  1  0  0  0  0
 14 13  2  0  0  0  0
 16 17  1  0  0  0  0
 19 22  1  0  0  0  0
 21 27  2  0  0  0  0
 22 27  1  0  0  0  0
 22 20  2  0  0  0  0
 23 28  1  0  0  0  0
 24 19  2  0  0  0  0
 24 21  1  0  0  0  0
 25 19  1  0  0  0  0
 25 23  2  0  0  0  0
 26 21  1  0  0  0  0
 27 18  1  0  0  0  0
 28 20  1  0  0  0  0
 28 17  1  1  0  0  0
M  END
>  <MODEL>
4

>  <REMARK>
 VINA RESULT:      -6.9      4.023      8.586
  Name = 
  6 active torsions:
  status: ('A' for Active; 'I' for Inactive)
    1  A    between atoms: C_1  and  C_2
    2  A    between atoms: C_2  and  C_3
    3  A    between atoms: C_3  and  C_11
    4  A    between atoms: C_6  and  C_11
    5  A    between atoms: C_16  and  N_20
    6  A    between atoms: N_20  and  C_25
                            x       y       z     vdW  Elec       q    Type
                         _______ _______ _______ _____ _____    ______ ____

>  <TORSDO>
F 6

$$$$
=
 OpenBabel11052422563D

 28 31  0  0  1  0  0  0  0  0999 V2000
  161.3810  210.2210  153.7050 C   0  0  2  0  0  0  0  0  0  0  0  0
  160.7740  207.9490  153.3880 C   0  0  1  0  0  3  0  0  0  0  0  0
  162.4430  210.1070  152.6410 C   0  0  0  0  0  2  0  0  0  0  0  0
  160.4050  209.0720  155.6840 C   0  0  0  0  0  2  0  0  0  0  0  0
  160.4780  207.7380  154.8920 C   0  0  0  0  0  2  0  0  0  0  0  0
  161.4590  210.1110  155.2260 C   0  0  0  0  0  2  0  0  0  0  0  0
  162.0050  208.8430  153.3360 C   0  0  1  0  0  3  0  0  0  0  0  0
  159.9860  210.6120  153.1230 C   0  0  2  0  0  3  0  0  0  0  0  0
  160.0390  211.0060  151.7790 O   0  0  0  0  0  1  0  0  0  0  0  0
  159.2820  211.6820  153.9560 C   0  0  0  0  0  2  0  0  0  0  0  0
  157.4280  213.1770  153.2220 C   0  0  0  0  0  1  0  0  0  0  0  0
  157.7900  211.7660  153.6470 C   0  0  2  0  0  3  0  0  0  0  0  0
  156.9500  211.3500  154.8120 C   0  0  0  0  0  0  0  0  0  0  0  0
  155.5790  211.2120  154.6460 O   0  0  0  0  0  0  0  0  0  0  0  0
  157.4600  211.1590  155.9490 O   0  0  0  0  0  1  0  0  0  0  0  0
  161.2110  205.4590  153.4990 C   0  0  0  0  0  1  0  0  0  0  0  0
  161.0150  206.6730  152.7080 N   0  0  0  0  0  0  0  0  0  0  0  0
  161.1810  202.9050  148.5760 C   0  0  0  0  0  1  0  0  0  0  0  0
  161.3300  206.5620  148.4900 C   0  0  0  0  0  0  0  0  0  0  0  0
  161.1520  205.3850  150.5960 C   0  0  0  0  0  3  0  0  0  0  0  0
  161.3890  204.9860  147.0630 C   0  0  0  0  0  0  0  0  0  0  0  0
  161.2560  205.3950  149.2070 C   0  0  0  0  0  0  0  0  0  0  0  0
  161.2010  207.8280  150.5180 C   0  0  0  0  0  3  0  0  0  0  0  0
  161.4150  206.3360  147.1640 N   0  0  0  0  0  0  0  0  0  0  0  0
  161.3050  207.8040  149.1170 C   0  0  0  0  0  3  0  0  0  0  0  0
  161.4400  204.3020  145.8170 N   0  0  0  0  0  1  0  0  0  0  0  0
  161.2870  204.3670  148.3000 C   0  0  0  0  0  0  0  0  0  0  0  0
  161.1250  206.6270  151.2710 C   0  0  1  0  0  3  0  0  0  0  0  0
  1  8  1  6  0  0  0
  1  6  1  0  0  0  0
  2 17  1  1  0  0  0
  2  5  1  0  0  0  0
  3  1  1  0  0  0  0
  5  4  1  0  0  0  0
  6  4  1  0  0  0  0
  7  3  1  6  0  0  0
  7  2  1  0  0  0  0
  7  1  1  0  0  0  0
  8  9  1  6  0  0  0
  8 10  1  0  0  0  0
 12 11  1  1  0  0  0
 12 10  1  0  0  0  0
 12 13  1  0  0  0  0
 13 15  1  0  0  0  0
 14 13  2  0  0  0  0
 17 16  1  0  0  0  0
 19 25  1  0  0  0  0
 19 22  1  0  0  0  0
 20 28  1  0  0  0  0
 21 24  1  0  0  0  0
 21 27  2  0  0  0  0
 22 20  2  0  0  0  0
 23 28  1  0  0  0  0
 24 19  2  0  0  0  0
 25 23  2  0  0  0  0
 26 21  1  0  0  0  0
 27 18  1  0  0  0  0
 27 22  1  0  0  0  0
 28 17  1  6  0  0  0
M  END
>  <MODEL>
5

>  <REMARK>
 VINA RESULT:      -6.8      3.735      8.032
  Name = 
  6 active torsions:
  status: ('A' for Active; 'I' for Inactive)
    1  A    between atoms: C_1  and  C_2
    2  A    between atoms: C_2  and  C_3
    3  A    between atoms: C_3  and  C_11
    4  A    between atoms: C_6  and  C_11
    5  A    between atoms: C_16  and  N_20
    6  A    between atoms: N_20  and  C_25
                            x       y       z     vdW  Elec       q    Type
                         _______ _______ _______ _____ _____    ______ ____

>  <TORSDO>
F 6

$$$$
=
 OpenBabel11052422563D

 28 31  0  0  1  0  0  0  0  0999 V2000
  162.1050  206.7490  152.0290 C   0  0  2  0  0  0  0  0  0  0  0  0
  161.0780  204.6540  151.5940 C   0  0  1  0  0  3  0  0  0  0  0  0
  163.1710  206.4630  151.0020 C   0  0  0  0  0  2  0  0  0  0  0  0
  160.8340  205.7500  153.9200 C   0  0  0  0  0  2  0  0  0  0  0  0
  160.6790  204.4550  153.0760 C   0  0  0  0  0  2  0  0  0  0  0  0
  162.0920  206.5740  153.5460 C   0  0  0  0  0  2  0  0  0  0  0  0
  162.4620  205.2880  151.6260 C   0  0  1  0  0  3  0  0  0  0  0  0
  160.8420  207.4280  151.4120 C   0  0  2  0  0  3  0  0  0  0  0  0
  160.9550  207.6550  150.0340 O   0  0  0  0  0  1  0  0  0  0  0  0
  160.4640  208.7230  152.1290 C   0  0  0  0  0  2  0  0  0  0  0  0
  161.7970  210.2900  153.5360 C   0  0  0  0  0  1  0  0  0  0  0  0
  161.6080  209.7330  152.1370 C   0  0  2  0  0  3  0  0  0  0  0  0
  161.3800  210.8490  151.1690 C   0  0  0  0  0  0  0  0  0  0  0  0
  160.4960  211.8670  151.5010 O   0  0  0  0  0  1  0  0  0  0  0  0
  161.9470  210.8630  150.0430 O   0  0  0  0  0  0  0  0  0  0  0  0
  161.1530  202.1250  151.6200 C   0  0  0  0  0  1  0  0  0  0  0  0
  161.0940  203.3790  150.8710 N   0  0  0  0  0  0  0  0  0  0  0  0
  161.4830  206.9570  146.5880 C   0  0  0  0  0  1  0  0  0  0  0  0
  161.1740  203.3100  146.6410 C   0  0  0  0  0  0  0  0  0  0  0  0
  161.2120  204.5730  148.7040 C   0  0  0  0  0  3  0  0  0  0  0  0
  161.3200  204.8190  145.1500 C   0  0  0  0  0  0  0  0  0  0  0  0
  161.2360  204.5040  147.3120 C   0  0  0  0  0  0  0  0  0  0  0  0
  161.0570  202.1340  148.7240 C   0  0  0  0  0  3  0  0  0  0  0  0
  161.2220  203.4780  145.3050 N   0  0  0  0  0  0  0  0  0  0  0  0
  161.0840  202.0980  147.3190 C   0  0  0  0  0  3  0  0  0  0  0  0
  161.4150  205.4470  143.8770 N   0  0  0  0  0  1  0  0  0  0  0  0
  161.3360  205.4890  146.3640 C   0  0  0  0  0  0  0  0  0  0  0  0
  161.1190  203.3640  149.4300 C   0  0  1  0  0  3  0  0  0  0  0  0
  1  8  1  6  0  0  0
  1  6  1  0  0  0  0
  2 17  1  6  0  0  0
  2  7  1  0  0  0  0
  2  5  1  0  0  0  0
  3  1  1  0  0  0  0
  5  4  1  0  0  0  0
  6  4  1  0  0  0  0
  7  3  1  6  0  0  0
  7  1  1  0  0  0  0
  8  9  1  6  0  0  0
  8 10  1  0  0  0  0
 10 12  1  0  0  0  0
 12 11  1  1  0  0  0
 13 14  1  0  0  0  0
 13 12  1  0  0  0  0
 15 13  2  0  0  0  0
 17 16  1  0  0  0  0
 19 22  1  0  0  0  0
 19 25  1  0  0  0  0
 20 28  1  0  0  0  0
 21 24  1  0  0  0  0
 21 27  2  0  0  0  0
 22 20  2  0  0  0  0
 23 28  1  0  0  0  0
 24 19  2  0  0  0  0
 25 23  2  0  0  0  0
 26 21  1  0  0  0  0
 27 18  1  0  0  0  0
 27 22  1  0  0  0  0
 28 17  1  1  0  0  0
M  END
>  <MODEL>
6

>  <REMARK>
 VINA RESULT:      -6.8      3.379      7.173
  Name = 
  6 active torsions:
  status: ('A' for Active; 'I' for Inactive)
    1  A    between atoms: C_1  and  C_2
    2  A    between atoms: C_2  and  C_3
    3  A    between atoms: C_3  and  C_11
    4  A    between atoms: C_6  and  C_11
    5  A    between atoms: C_16  and  N_20
    6  A    between atoms: N_20  and  C_25
                            x       y       z     vdW  Elec       q    Type
                         _______ _______ _______ _____ _____    ______ ____

>  <TORSDO>
F 6

$$$$
=
 OpenBabel11052422563D

 28 31  0  0  1  0  0  0  0  0999 V2000
  161.5720  209.4480  152.9060 C   0  0  2  0  0  0  0  0  0  0  0  0
  161.2190  208.2540  150.8860 C   0  0  1  0  0  3  0  0  0  0  0  0
  162.5930  210.3290  152.2330 C   0  0  0  0  0  2  0  0  0  0  0  0
  160.8230  207.0880  153.1560 C   0  0  0  0  0  2  0  0  0  0  0  0
  161.0160  206.9100  151.6250 C   0  0  0  0  0  2  0  0  0  0  0  0
  161.7280  208.1910  153.7590 C   0  0  0  0  0  2  0  0  0  0  0  0
  162.3350  208.9680  151.6370 C   0  0  1  0  0  3  0  0  0  0  0  0
  160.1170  209.9960  152.7660 C   0  0  2  0  0  3  0  0  0  0  0  0
  160.0240  211.1010  151.9090 O   0  0  0  0  0  1  0  0  0  0  0  0
  159.4800  210.3230  154.1160 C   0  0  0  0  0  2  0  0  0  0  0  0
  160.7250  211.3620  156.0080 C   0  0  0  0  0  1  0  0  0  0  0  0
  160.0060  211.6310  154.7000 C   0  0  2  0  0  3  0  0  0  0  0  0
  158.9140  212.6310  154.9120 C   0  0  0  0  0  0  0  0  0  0  0  0
  159.2400  213.9160  155.3240 O   0  0  0  0  0  1  0  0  0  0  0  0
  157.7020  212.3170  154.7580 O   0  0  0  0  0  0  0  0  0  0  0  0
  161.9560  209.1820  148.6510 C   0  0  0  0  0  1  0  0  0  0  0  0
  161.5770  208.0410  149.4810 N   0  0  0  0  0  0  0  0  0  0  0  0
  160.8090  202.7370  151.0880 C   0  0  0  0  0  1  0  0  0  0  0  0
  161.3200  204.1820  147.7640 C   0  0  0  0  0  0  0  0  0  0  0  0
  161.3010  205.5910  149.7300 C   0  0  0  0  0  3  0  0  0  0  0  0
  161.0280  202.2340  148.5660 C   0  0  0  0  0  0  0  0  0  0  0  0
  161.2210  204.3400  149.1220 C   0  0  1  0  0  3  0  0  0  0  0  0
  161.5910  206.5460  147.4980 C   0  0  0  0  0  3  0  0  0  0  0  0
  161.2060  202.8900  147.3950 N   0  0  0  0  0  0  0  0  0  0  0  0
  161.5060  205.2700  146.9160 C   0  0  0  0  0  3  0  0  0  0  0  0
  160.8430  200.8260  148.6440 N   0  0  0  0  0  1  0  0  0  0  0  0
  161.0260  203.0920  149.6560 C   0  0  0  0  0  0  0  0  0  0  0  0
  161.4920  206.7220  148.9030 C   0  0  0  0  0  0  0  0  0  0  0  0
  1  8  1  6  0  0  0
  1  6  1  0  0  0  0
  2 17  1  6  0  0  0
  2  5  1  0  0  0  0
  2  7  1  0  0  0  0
  3  1  1  0  0  0  0
  4  6  1  0  0  0  0
  5  4  1  0  0  0  0
  7  3  1  6  0  0  0
  7  1  1  0  0  0  0
  8  9  1  6  0  0  0
  8 10  1  0  0  0  0
 10 12  1  0  0  0  0
 12 13  1  0  0  0  0
 12 11  1  1  0  0  0
 13 14  1  0  0  0  0
 15 13  2  0  0  0  0
 16 17  1  0  0  0  0
 19 22  1  0  0  0  0
 21 26  1  0  0  0  0
 21 27  2  0  0  0  0
 22 27  1  0  0  0  0
 22 20  1  6  0  0  0
 23 28  1  0  0  0  0
 24 19  2  0  0  0  0
 24 21  1  0  0  0  0
 25 23  2  0  0  0  0
 25 19  1  0  0  0  0
 27 18  1  0  0  0  0
 28 17  1  0  0  0  0
 28 20  2  0  0  0  0
M  END
>  <MODEL>
7

>  <REMARK>
 VINA RESULT:      -6.4      3.754      8.303
  Name = 
  6 active torsions:
  status: ('A' for Active; 'I' for Inactive)
    1  A    between atoms: C_1  and  C_2
    2  A    between atoms: C_2  and  C_3
    3  A    between atoms: C_3  and  C_11
    4  A    between atoms: C_6  and  C_11
    5  A    between atoms: C_16  and  N_20
    6  A    between atoms: N_20  and  C_25
                            x       y       z     vdW  Elec       q    Type
                         _______ _______ _______ _____ _____    ______ ____

>  <TORSDO>
F 6

$$$$
=
 OpenBabel11052422563D

 28 31  0  0  1  0  0  0  0  0999 V2000
  160.8570  205.3250  148.7830 C   0  0  2  0  0  0  0  0  0  0  0  0
  161.7710  205.9030  150.8960 C   0  0  1  0  0  3  0  0  0  0  0  0
  160.0020  206.5660  148.7900 C   0  0  0  0  0  2  0  0  0  0  0  0
  161.6270  203.4220  150.1900 C   0  0  0  0  0  2  0  0  0  0  0  0
  161.8410  204.4270  151.3550 C   0  0  0  0  0  2  0  0  0  0  0  0
  160.5470  203.8830  149.1800 C   0  0  0  0  0  2  0  0  0  0  0  0
  160.4680  206.0250  150.1180 C   0  0  1  0  0  3  0  0  0  0  0  0
  162.2720  205.5710  148.1710 C   0  0  2  0  0  3  0  0  0  0  0  0
  162.5420  206.9260  147.9330 O   0  0  0  0  0  1  0  0  0  0  0  0
  162.5110  204.7560  146.9010 C   0  0  0  0  0  2  0  0  0  0  0  0
  161.2660  203.0590  145.5680 C   0  0  0  0  0  1  0  0  0  0  0  0
  161.2150  204.4570  146.1540 C   0  0  2  0  0  3  0  0  0  0  0  0
  160.9440  205.4550  145.0740 C   0  0  0  0  0  0  0  0  0  0  0  0
  161.6170  205.3470  143.8650 O   0  0  0  0  0  0  0  0  0  0  0  0
  160.1450  206.4130  145.2550 O   0  0  0  0  0  1  0  0  0  0  0  0
  162.1190  206.3050  153.3690 C   0  0  0  0  0  1  0  0  0  0  0  0
  161.7950  206.8180  152.0400 N   0  0  0  0  0  0  0  0  0  0  0  0
  162.5940  210.9950  148.4040 C   0  0  0  0  0  1  0  0  0  0  0  0
  160.7210  210.8820  151.5470 C   0  0  0  0  0  0  0  0  0  0  0  0
  161.9010  208.9280  150.7450 C   0  0  0  0  0  3  0  0  0  0  0  0
  161.1450  212.3430  150.0610 C   0  0  0  0  0  0  0  0  0  0  0  0
  161.5230  210.2630  150.6220 C   0  0  0  0  0  0  0  0  0  0  0  0
  160.6040  208.8540  152.8160 C   0  0  0  0  0  3  0  0  0  0  0  0
  160.4750  212.1670  151.2250 N   0  0  0  0  0  0  0  0  0  0  0  0
  160.2400  210.2030  152.6630 C   0  0  0  0  0  3  0  0  0  0  0  0
  161.1440  213.5720  149.3460 N   0  0  0  0  0  1  0  0  0  0  0  0
  161.8020  211.1920  149.6520 C   0  0  0  0  0  0  0  0  0  0  0  0
  161.4360  208.2040  151.8660 C   0  0  1  0  0  3  0  0  0  0  0  0
  1  8  1  6  0  0  0
  1  3  1  0  0  0  0
  1  6  1  0  0  0  0
  1  7  1  0  0  0  0
  2  5  1  0  0  0  0
  2 17  1  1  0  0  0
  4  5  1  0  0  0  0
  6  4  1  0  0  0  0
  7  3  1  6  0  0  0
  7  2  1  0  0  0  0
  8  9  1  6  0  0  0
 10  8  1  0  0  0  0
 12 11  1  6  0  0  0
 12 10  1  0  0  0  0
 13 15  1  0  0  0  0
 13 12  1  0  0  0  0
 14 13  2  0  0  0  0
 17 16  1  0  0  0  0
 18 27  1  0  0  0  0
 19 25  1  0  0  0  0
 20 28  1  0  0  0  0
 21 24  1  0  0  0  0
 22 20  2  0  0  0  0
 22 19  1  0  0  0  0
 24 19  2  0  0  0  0
 25 23  2  0  0  0  0
 26 21  1  0  0  0  0
 27 21  2  0  0  0  0
 27 22  1  0  0  0  0
 28 17  1  6  0  0  0
 28 23  1  0  0  0  0
M  END
>  <MODEL>
8

>  <REMARK>
 VINA RESULT:      -6.4      0.881      2.120
  Name = 
  6 active torsions:
  status: ('A' for Active; 'I' for Inactive)
    1  A    between atoms: C_1  and  C_2
    2  A    between atoms: C_2  and  C_3
    3  A    between atoms: C_3  and  C_11
    4  A    between atoms: C_6  and  C_11
    5  A    between atoms: C_16  and  N_20
    6  A    between atoms: N_20  and  C_25
                            x       y       z     vdW  Elec       q    Type
                         _______ _______ _______ _____ _____    ______ ____

>  <TORSDO>
F 6

$$$$
=
 OpenBabel11052422563D

 28 31  0  0  1  0  0  0  0  0999 V2000
  160.8540  205.1010  148.6320 C   0  0  2  0  0  0  0  0  0  0  0  0
  161.7650  206.5110  150.3090 C   0  0  1  0  0  3  0  0  0  0  0  0
  160.0130  206.2360  148.1050 C   0  0  0  0  0  2  0  0  0  0  0  0
  161.5980  203.9670  150.7180 C   0  0  0  0  0  2  0  0  0  0  0  0
  161.8180  205.3680  151.3500 C   0  0  0  0  0  2  0  0  0  0  0  0
  160.5260  203.9650  149.5990 C   0  0  0  0  0  2  0  0  0  0  0  0
  160.4670  206.3040  149.5410 C   0  0  1  0  0  3  0  0  0  0  0  0
  162.2740  205.0530  147.9850 C   0  0  2  0  0  3  0  0  0  0  0  0
  162.6900  206.2910  147.4740 O   0  0  0  0  0  1  0  0  0  0  0  0
  162.3940  203.9740  146.9100 C   0  0  0  0  0  2  0  0  0  0  0  0
  160.8770  202.1210  146.2190 C   0  0  0  0  0  1  0  0  0  0  0  0
  161.0440  203.6280  146.2880 C   0  0  2  0  0  3  0  0  0  0  0  0
  160.8840  204.2230  144.9250 C   0  0  0  0  0  0  0  0  0  0  0  0
  161.7720  205.2030  144.5030 O   0  0  0  0  0  1  0  0  0  0  0  0
  159.9360  203.8780  144.1690 O   0  0  0  0  0  0  0  0  0  0  0  0
  162.3310  208.9760  150.2340 C   0  0  0  0  0  1  0  0  0  0  0  0
  161.7950  207.8250  150.9580 N   0  0  0  0  0  0  0  0  0  0  0  0
  160.0520  211.8160  154.4690 C   0  0  0  0  0  1  0  0  0  0  0  0
  160.5110  208.2190  154.9700 C   0  0  0  0  0  0  0  0  0  0  0  0
  161.0130  209.2390  152.8350 C   0  0  0  0  0  3  0  0  0  0  0  0
  159.8830  209.8690  156.1560 C   0  0  0  0  0  0  0  0  0  0  0  0
  160.5950  209.3230  154.1610 C   0  0  0  0  0  0  0  0  0  0  0  0
  161.2660  206.8310  153.1710 C   0  0  0  0  0  3  0  0  0  0  0  0
  160.0750  208.5300  156.2070 N   0  0  0  0  0  2  0  0  0  0  0  0
  160.8400  206.9490  154.5040 C   0  0  0  0  0  3  0  0  0  0  0  0
  159.4020  210.6250  157.2600 N   0  0  0  0  0  1  0  0  0  0  0  0
  160.1870  210.3980  154.9100 C   0  0  0  0  0  0  0  0  0  0  0  0
  161.3590  207.9680  152.3250 C   0  0  0  0  0  0  0  0  0  0  0  0
  1  8  1  6  0  0  0
  1  7  1  0  0  0  0
  1  6  1  0  0  0  0
  2 17  1  1  0  0  0
  2  5  1  0  0  0  0
  3  1  1  0  0  0  0
  4  5  1  0  0  0  0
  6  4  1  0  0  0  0
  7  3  1  6  0  0  0
  7  2  1  0  0  0  0
  8  9  1  6  0  0  0
 10  8  1  0  0  0  0
 12 11  1  6  0  0  0
 12 10  1  0  0  0  0
 13 12  1  0  0  0  0
 14 13  1  0  0  0  0
 15 13  2  0  0  0  0
 16 17  1  0  0  0  0
 17 28  1  0  0  0  0
 18 27  1  0  0  0  0
 19 24  1  0  0  0  0
 20 22  1  0  0  0  0
 21 24  1  0  0  0  0
 21 26  1  0  0  0  0
 22 27  1  0  0  0  0
 22 19  2  0  0  0  0
 23 25  2  0  0  0  0
 25 19  1  0  0  0  0
 27 21  2  0  0  0  0
 28 20  2  0  0  0  0
 28 23  1  0  0  0  0
M  END
>  <MODEL>
9

>  <REMARK>
 VINA RESULT:      -6.3      1.787      2.577
  Name = 
  6 active torsions:
  status: ('A' for Active; 'I' for Inactive)
    1  A    between atoms: C_1  and  C_2
    2  A    between atoms: C_2  and  C_3
    3  A    between atoms: C_3  and  C_11
    4  A    between atoms: C_6  and  C_11
    5  A    between atoms: C_16  and  N_20
    6  A    between atoms: N_20  and  C_25
                            x       y       z     vdW  Elec       q    Type
                         _______ _______ _______ _____ _____    ______ ____

>  <TORSDO>
F 6

$$$$
