=
 OpenBabel11052421543D

 30 33  0  0  1  0  0  0  0  0999 V2000
  161.0520  207.0120  152.3030 C   0  0  0  0  0  3  0  0  0  0  0  0
  160.4760  207.8810  154.5890 C   0  0  2  0  0  3  0  0  0  0  0  0
  161.7920  210.6990  150.6720 N   0  0  0  0  0  0  0  0  0  0  0  0
  161.4660  207.1810  150.9660 C   0  0  0  0  0  0  0  0  0  0  0  0
  162.1410  210.2330  149.4460 C   0  0  0  0  0  0  0  0  0  0  0  0
  159.9160  209.1380  155.2620 C   0  0  0  0  0  2  0  0  0  0  0  0
  161.6640  207.3510  155.3760 C   0  0  0  0  0  1  0  0  0  0  0  0
  161.5190  209.5670  151.3400 C   0  0  0  0  0  0  0  0  0  0  0  0
  160.8200  210.3390  154.9960 C   0  0  0  0  0  2  0  0  0  0  0  0
  160.8650  208.1240  153.1540 C   0  0  0  0  0  0  0  0  0  0  0  0
  161.6970  208.4860  150.5260 C   0  0  0  0  0  0  0  0  0  0  0  0
  162.5210  211.0970  148.3820 N   0  0  0  0  0  1  0  0  0  0  0  0
  162.0970  208.8840  149.3080 N   0  0  0  0  0  2  0  0  0  0  0  0
  160.8300  210.6560  153.5040 C   0  0  0  0  0  2  0  0  0  0  0  0
  161.1100  209.4360  152.6680 C   0  0  0  0  0  0  0  0  0  0  0  0
  161.6880  206.0090  150.0500 C   0  0  2  0  0  3  0  0  0  0  0  0
  162.7760  205.1740  147.3910 C   0  0  0  0  0  2  0  0  0  0  0  0
  159.6760  206.4970  148.8440 O   0  0  0  0  0  0  0  0  0  0  0  0
  160.8580  206.0600  148.7980 C   0  0  0  0  0  0  0  0  0  0  0  0
  160.6840  205.7040  146.2970 C   0  0  0  0  0  2  0  0  0  0  0  0
  161.4170  205.6520  147.5440 N   0  0  0  0  0  0  0  0  0  0  0  0
  162.9870  205.0120  145.8980 C   0  0  0  0  0  2  0  0  0  0  0  0
  161.6120  205.1160  145.2510 C   0  0  0  0  0  2  0  0  0  0  0  0
  161.6570  204.6550  150.7630 C   0  0  0  0  0  2  0  0  0  0  0  0
  160.4700  203.7920  150.3500 C   0  0  0  0  0  2  0  0  0  0  0  0
  160.8540  202.3240  150.3520 C   0  0  0  0  0  2  0  0  0  0  0  0
  160.0820  201.5690  149.2830 C   0  0  0  0  0  2  0  0  0  0  0  0
  161.5300  200.1480  147.9210 O   0  0  0  0  0  0  0  0  0  0  0  0
  160.9220  201.3650  148.1180 N   0  0  0  0  0  0  0  0  0  0  0  0
  160.9530  202.2260  147.2150 O   0  0  0  0  0  0  0  0  0  0  0  0
  1 10  1  0  0  0  0
  2  6  1  0  0  0  0
  2  7  1  1  0  0  0
  3  8  1  0  0  0  0
  4  1  2  0  0  0  0
  5  3  2  0  0  0  0
  8 15  1  0  0  0  0
  9  6  1  0  0  0  0
 10  2  1  0  0  0  0
 11  4  1  0  0  0  0
 11  8  2  0  0  0  0
 12  5  1  0  0  0  0
 13  5  1  0  0  0  0
 13 11  1  0  0  0  0
 14  9  1  0  0  0  0
 15 10  2  0  0  0  0
 15 14  1  0  0  0  0
 16 24  1  1  0  0  0
 16  4  1  0  0  0  0
 17 21  1  0  0  0  0
 19 18  2  0  0  0  0
 19 16  1  0  0  0  0
 20 21  1  0  0  0  0
 21 19  1  0  0  0  0
 22 17  1  0  0  0  0
 23 22  1  0  0  0  0
 23 20  1  0  0  0  0
 25 26  1  0  0  0  0
 25 24  1  0  0  0  0
 27 26  1  0  0  0  0
 28 29  2  0  0  0  0
 29 27  1  0  0  0  0
 30 29  2  0  0  0  0
M  END
>  <MODEL>
1

>  <REMARK>
 VINA RESULT:      -7.9      0.000      0.000
  Name = 
  7 active torsions:
  status: ('A' for Active; 'I' for Inactive)
    1  A    between atoms: C_4  and  C_13
    2  A    between atoms: C_7  and  N_15
    3  A    between atoms: C_7  and  C_16
    4  A    between atoms: C_8  and  C_13
    5  A    between atoms: C_13  and  C_27
    6  A    between atoms: C_16  and  C_30
    7  A    between atoms: C_27  and  C_30
                            x       y       z     vdW  Elec       q    Type
                         _______ _______ _______ _____ _____    ______ ____

>  <TORSDO>
F 7

$$$$
=
 OpenBabel11052421543D

 30 33  0  0  1  0  0  0  0  0999 V2000
  160.7660  207.3330  152.6260 C   0  0  0  0  0  3  0  0  0  0  0  0
  160.4190  208.3650  154.8900 C   0  0  2  0  0  3  0  0  0  0  0  0
  161.8640  210.8260  150.7840 N   0  0  0  0  0  0  0  0  0  0  0  0
  161.1280  207.3920  151.2640 C   0  0  0  0  0  0  0  0  0  0  0  0
  162.0900  210.2680  149.5660 C   0  0  0  0  0  0  0  0  0  0  0  0
  160.0510  209.7090  155.5260 C   0  0  0  0  0  2  0  0  0  0  0  0
  161.5730  207.7270  155.6470 C   0  0  0  0  0  1  0  0  0  0  0  0
  161.4900  209.7670  151.5180 C   0  0  0  0  0  0  0  0  0  0  0  0
  161.0790  210.7760  155.1600 C   0  0  0  0  0  2  0  0  0  0  0  0
  160.7600  208.4950  153.4290 C   0  0  0  0  0  0  0  0  0  0  0  0
  161.4930  208.6380  150.7510 C   0  0  0  0  0  0  0  0  0  0  0  0
  162.5170  211.0330  148.4450 N   0  0  0  0  0  1  0  0  0  0  0  0
  161.8750  208.9310  149.4970 N   0  0  0  0  0  2  0  0  0  0  0  0
  161.0510  211.0260  153.6550 C   0  0  0  0  0  2  0  0  0  0  0  0
  161.1370  209.7450  152.8680 C   0  0  0  0  0  0  0  0  0  0  0  0
  161.1590  206.1630  150.3980 C   0  0  2  0  0  3  0  0  0  0  0  0
  160.4960  203.4370  149.3580 C   0  0  0  0  0  2  0  0  0  0  0  0
  162.1120  204.9960  152.2620 O   0  0  0  0  0  0  0  0  0  0  0  0
  161.5320  204.9130  151.1450 C   0  0  0  0  0  0  0  0  0  0  0  0
  161.4970  202.3850  151.2930 C   0  0  0  0  0  2  0  0  0  0  0  0
  161.1950  203.6260  150.6120 N   0  0  0  0  0  0  0  0  0  0  0  0
  160.2120  201.9500  149.2690 C   0  0  0  0  0  2  0  0  0  0  0  0
  161.0440  201.2830  150.3550 C   0  0  0  0  0  2  0  0  0  0  0  0
  161.9200  206.3540  149.0840 C   0  0  0  0  0  2  0  0  0  0  0  0
  161.0230  206.2450  147.8560 C   0  0  0  0  0  2  0  0  0  0  0  0
  161.8590  206.1380  146.5940 C   0  0  0  0  0  2  0  0  0  0  0  0
  162.3540  204.7140  146.4010 C   0  0  0  0  0  2  0  0  0  0  0  0
  160.9130  204.5390  144.4340 O   0  0  0  0  0  0  0  0  0  0  0  0
  161.4130  203.9720  145.5820 N   0  0  0  0  0  0  0  0  0  0  0  0
  161.1950  202.7670  145.8240 O   0  0  0  0  0  0  0  0  0  0  0  0
  1 10  1  0  0  0  0
  2  6  1  0  0  0  0
  2  7  1  1  0  0  0
  3  8  1  0  0  0  0
  4  1  2  0  0  0  0
  5  3  2  0  0  0  0
  8 15  1  0  0  0  0
  9  6  1  0  0  0  0
 10  2  1  0  0  0  0
 11  4  1  0  0  0  0
 11  8  2  0  0  0  0
 12  5  1  0  0  0  0
 13  5  1  0  0  0  0
 13 11  1  0  0  0  0
 14  9  1  0  0  0  0
 15 10  2  0  0  0  0
 15 14  1  0  0  0  0
 16 24  1  6  0  0  0
 16 19  1  0  0  0  0
 16  4  1  0  0  0  0
 17 21  1  0  0  0  0
 19 18  2  0  0  0  0
 21 19  1  0  0  0  0
 21 20  1  0  0  0  0
 22 17  1  0  0  0  0
 22 23  1  0  0  0  0
 23 20  1  0  0  0  0
 25 24  1  0  0  0  0
 26 25  1  0  0  0  0
 27 26  1  0  0  0  0
 28 29  2  0  0  0  0
 29 30  2  0  0  0  0
 29 27  1  0  0  0  0
M  END
>  <MODEL>
2

>  <REMARK>
 VINA RESULT:      -6.9      1.470      3.060
  Name = 
  7 active torsions:
  status: ('A' for Active; 'I' for Inactive)
    1  A    between atoms: C_4  and  C_13
    2  A    between atoms: C_7  and  N_15
    3  A    between atoms: C_7  and  C_16
    4  A    between atoms: C_8  and  C_13
    5  A    between atoms: C_13  and  C_27
    6  A    between atoms: C_16  and  C_30
    7  A    between atoms: C_27  and  C_30
                            x       y       z     vdW  Elec       q    Type
                         _______ _______ _______ _____ _____    ______ ____

>  <TORSDO>
F 7

$$$$
=
 OpenBabel11052421543D

 30 33  0  0  1  0  0  0  0  0999 V2000
  161.2400  208.5290  151.0440 C   0  0  0  0  0  3  0  0  0  0  0  0
  161.1520  209.4340  153.3870 C   0  0  2  0  0  3  0  0  0  0  0  0
  160.8940  204.5960  152.1450 N   0  0  0  0  0  0  0  0  0  0  0  0
  161.2040  207.4780  150.1040 C   0  0  0  0  0  0  0  0  0  0  0  0
  160.9040  204.1030  150.8800 C   0  0  0  0  0  0  0  0  0  0  0  0
  161.4790  209.0130  154.8220 C   0  0  0  0  0  2  0  0  0  0  0  0
  159.8050  210.1390  153.3420 C   0  0  0  0  0  1  0  0  0  0  0  0
  160.9990  205.9180  151.9370 C   0  0  0  0  0  0  0  0  0  0  0  0
  160.6570  207.7930  155.2260 C   0  0  0  0  0  2  0  0  0  0  0  0
  161.1640  208.2690  152.4300 C   0  0  0  0  0  0  0  0  0  0  0  0
  161.0730  206.1800  150.6000 C   0  0  0  0  0  0  0  0  0  0  0  0
  160.8100  202.7110  150.6030 N   0  0  0  0  0  1  0  0  0  0  0  0
  161.0130  205.0350  149.9000 N   0  0  0  0  0  2  0  0  0  0  0  0
  161.0470  206.5980  154.3620 C   0  0  0  0  0  2  0  0  0  0  0  0
  161.0330  206.9330  152.8940 C   0  0  0  0  0  0  0  0  0  0  0  0
  161.2650  207.7360  148.6240 C   0  0  2  0  0  3  0  0  0  0  0  0
  160.5590  206.2510  146.1240 C   0  0  0  0  0  2  0  0  0  0  0  0
  163.4220  206.7220  148.3730 O   0  0  0  0  0  0  0  0  0  0  0  0
  162.2590  206.8670  147.9050 C   0  0  0  0  0  0  0  0  0  0  0  0
  162.7790  205.2990  145.9870 C   0  0  0  0  0  2  0  0  0  0  0  0
  161.8810  206.1730  146.7110 N   0  0  0  0  0  0  0  0  0  0  0  0
  160.5570  205.2490  144.9850 C   0  0  0  0  0  2  0  0  0  0  0  0
  162.0070  204.8410  144.7630 C   0  0  0  0  0  2  0  0  0  0  0  0
  161.3540  209.2190  148.2590 C   0  0  0  0  0  2  0  0  0  0  0  0
  162.4210  209.9640  149.0540 C   0  0  0  0  0  2  0  0  0  0  0  0
  162.1070  211.4480  149.1050 C   0  0  0  0  0  2  0  0  0  0  0  0
  162.8480  212.1880  148.0040 C   0  0  0  0  0  2  0  0  0  0  0  0
  160.5660  212.6480  147.2600 O   0  0  0  0  0  0  0  0  0  0  0  0
  161.9120  212.6210  146.9830 N   0  0  0  0  0  0  0  0  0  0  0  0
  162.3360  213.1270  145.9240 O   0  0  0  0  0  0  0  0  0  0  0  0
  1 10  1  0  0  0  0
  2  7  1  1  0  0  0
  2  6  1  0  0  0  0
  4 11  1  0  0  0  0
  4  1  2  0  0  0  0
  5  3  2  0  0  0  0
  6  9  1  0  0  0  0
  8  3  1  0  0  0  0
  8 15  1  0  0  0  0
 10 15  2  0  0  0  0
 10  2  1  0  0  0  0
 11  8  2  0  0  0  0
 12  5  1  0  0  0  0
 13 11  1  0  0  0  0
 13  5  1  0  0  0  0
 14  9  1  0  0  0  0
 15 14  1  0  0  0  0
 16 24  1  1  0  0  0
 16  4  1  0  0  0  0
 17 21  1  0  0  0  0
 19 18  2  0  0  0  0
 19 16  1  0  0  0  0
 20 21  1  0  0  0  0
 21 19  1  0  0  0  0
 22 17  1  0  0  0  0
 23 22  1  0  0  0  0
 23 20  1  0  0  0  0
 24 25  1  0  0  0  0
 25 26  1  0  0  0  0
 27 26  1  0  0  0  0
 29 28  2  0  0  0  0
 29 27  1  0  0  0  0
 30 29  2  0  0  0  0
M  END
>  <MODEL>
3

>  <REMARK>
 VINA RESULT:      -6.6      2.509      5.731
  Name = 
  7 active torsions:
  status: ('A' for Active; 'I' for Inactive)
    1  A    between atoms: C_4  and  C_13
    2  A    between atoms: C_7  and  N_15
    3  A    between atoms: C_7  and  C_16
    4  A    between atoms: C_8  and  C_13
    5  A    between atoms: C_13  and  C_27
    6  A    between atoms: C_16  and  C_30
    7  A    between atoms: C_27  and  C_30
                            x       y       z     vdW  Elec       q    Type
                         _______ _______ _______ _____ _____    ______ ____

>  <TORSDO>
F 7

$$$$
=
 OpenBabel11052421543D

 30 33  0  0  1  0  0  0  0  0999 V2000
  161.5800  205.8050  150.7970 C   0  0  0  0  0  3  0  0  0  0  0  0
  161.5810  203.4370  151.6350 C   0  0  2  0  0  3  0  0  0  0  0  0
  160.7540  204.8290  146.9030 N   0  0  0  0  0  0  0  0  0  0  0  0
  161.4260  206.7780  149.7870 C   0  0  0  0  0  0  0  0  0  0  0  0
  160.7150  206.1090  146.4520 C   0  0  0  0  0  0  0  0  0  0  0  0
  161.8430  202.0130  151.1350 C   0  0  0  0  0  2  0  0  0  0  0  0
  160.3300  203.4660  152.4990 C   0  0  0  0  0  1  0  0  0  0  0  0
  161.0190  204.9950  148.2090 C   0  0  0  0  0  0  0  0  0  0  0  0
  160.8770  201.6510  150.0110 C   0  0  0  0  0  2  0  0  0  0  0  0
  161.4610  204.4280  150.5070 C   0  0  0  0  0  0  0  0  0  0  0  0
  161.1350  206.3240  148.5000 C   0  0  0  0  0  0  0  0  0  0  0  0
  160.4560  206.4290  145.0900 N   0  0  0  0  0  1  0  0  0  0  0  0
  160.9430  207.0590  147.3920 N   0  0  0  0  0  2  0  0  0  0  0  0
  161.1270  202.5500  148.8040 C   0  0  0  0  0  2  0  0  0  0  0  0
  161.1660  204.0070  149.1830 C   0  0  0  0  0  0  0  0  0  0  0  0
  161.5300  208.2490  150.0800 C   0  0  2  0  0  3  0  0  0  0  0  0
  161.2060  211.2020  149.7220 C   0  0  0  0  0  2  0  0  0  0  0  0
  163.0820  208.4050  148.2610 O   0  0  0  0  0  0  0  0  0  0  0  0
  162.2970  209.0150  149.0390 C   0  0  0  0  0  0  0  0  0  0  0  0
  162.7980  211.2200  147.9000 C   0  0  0  0  0  2  0  0  0  0  0  0
  162.1130  210.4280  148.9000 N   0  0  0  0  0  0  0  0  0  0  0  0
  161.2090  212.5990  149.1320 C   0  0  0  0  0  2  0  0  0  0  0  0
  162.3750  212.6550  148.1540 C   0  0  0  0  0  2  0  0  0  0  0  0
  161.9470  208.5630  151.5190 C   0  0  0  0  0  2  0  0  0  0  0  0
  160.7600  208.8310  152.4370 C   0  0  0  0  0  2  0  0  0  0  0  0
  160.8480  207.9700  153.6840 C   0  0  0  0  0  2  0  0  0  0  0  0
  160.7130  208.8250  154.9330 C   0  0  0  0  0  2  0  0  0  0  0  0
  160.0700  206.9610  156.3770 O   0  0  0  0  0  0  0  0  0  0  0  0
  160.9200  208.0090  156.1150 N   0  0  0  0  0  0  0  0  0  0  0  0
  161.9590  208.1470  156.7920 O   0  0  0  0  0  0  0  0  0  0  0  0
  2  7  1  6  0  0  0
  3  8  1  0  0  0  0
  4 16  1  0  0  0  0
  4  1  2  0  0  0  0
  5  3  2  0  0  0  0
  5 13  1  0  0  0  0
  6  2  1  0  0  0  0
  8 11  2  0  0  0  0
  8 15  1  0  0  0  0
  9  6  1  0  0  0  0
 10  1  1  0  0  0  0
 10  2  1  0  0  0  0
 11  4  1  0  0  0  0
 12  5  1  0  0  0  0
 13 11  1  0  0  0  0
 14 15  1  0  0  0  0
 14  9  1  0  0  0  0
 15 10  2  0  0  0  0
 16 24  1  1  0  0  0
 18 19  2  0  0  0  0
 19 16  1  0  0  0  0
 20 23  1  0  0  0  0
 20 21  1  0  0  0  0
 21 19  1  0  0  0  0
 21 17  1  0  0  0  0
 22 17  1  0  0  0  0
 23 22  1  0  0  0  0
 24 25  1  0  0  0  0
 25 26  1  0  0  0  0
 26 27  1  0  0  0  0
 27 29  1  0  0  0  0
 29 28  2  0  0  0  0
 29 30  2  0  0  0  0
M  END
>  <MODEL>
4

>  <REMARK>
 VINA RESULT:      -6.5      2.799      6.710
  Name = 
  7 active torsions:
  status: ('A' for Active; 'I' for Inactive)
    1  A    between atoms: C_4  and  C_13
    2  A    between atoms: C_7  and  N_15
    3  A    between atoms: C_7  and  C_16
    4  A    between atoms: C_8  and  C_13
    5  A    between atoms: C_13  and  C_27
    6  A    between atoms: C_16  and  C_30
    7  A    between atoms: C_27  and  C_30
                            x       y       z     vdW  Elec       q    Type
                         _______ _______ _______ _____ _____    ______ ____

>  <TORSDO>
F 7

$$$$
=
 OpenBabel11052421543D

 30 33  0  0  1  0  0  0  0  0999 V2000
  161.0410  203.7210  150.7340 C   0  0  0  0  0  3  0  0  0  0  0  0
  161.0190  201.3740  149.8360 C   0  0  2  0  0  3  0  0  0  0  0  0
  161.1950  205.5300  147.0600 N   0  0  0  0  0  0  0  0  0  0  0  0
  161.0520  205.1220  150.5780 C   0  0  0  0  0  0  0  0  0  0  0  0
  161.1690  206.8010  147.5370 C   0  0  0  0  0  0  0  0  0  0  0  0
  161.4880  200.5780  148.6150 C   0  0  0  0  0  2  0  0  0  0  0  0
  159.6050  200.9630  150.2170 C   0  0  0  0  0  1  0  0  0  0  0  0
  161.1430  204.8010  148.1860 C   0  0  0  0  0  0  0  0  0  0  0  0
  160.8310  201.1080  147.3430 C   0  0  0  0  0  2  0  0  0  0  0  0
  161.0890  202.8620  149.6140 C   0  0  0  0  0  0  0  0  0  0  0  0
  161.0960  205.6220  149.2750 C   0  0  0  0  0  0  0  0  0  0  0  0
  161.2060  207.9370  146.6820 N   0  0  0  0  0  1  0  0  0  0  0  0
  161.1100  206.9070  148.8880 N   0  0  0  0  0  2  0  0  0  0  0  0
  161.2860  202.5400  147.0850 C   0  0  0  0  0  2  0  0  0  0  0  0
  161.1350  203.4110  148.3040 C   0  0  0  0  0  0  0  0  0  0  0  0
  160.9830  206.0520  151.7580 C   0  0  2  0  0  3  0  0  0  0  0  0
  160.1280  208.8500  152.3830 C   0  0  0  0  0  2  0  0  0  0  0  0
  163.1160  207.0300  151.2740 O   0  0  0  0  0  0  0  0  0  0  0  0
  161.9300  207.2160  151.6610 C   0  0  0  0  0  0  0  0  0  0  0  0
  162.3310  209.7070  151.8680 C   0  0  0  0  0  2  0  0  0  0  0  0
  161.4800  208.5400  151.9690 N   0  0  0  0  0  0  0  0  0  0  0  0
  160.0560  210.3640  152.4430 C   0  0  0  0  0  2  0  0  0  0  0  0
  161.4880  210.8720  152.3530 C   0  0  0  0  0  2  0  0  0  0  0  0
  161.0110  205.3360  153.1100 C   0  0  0  0  0  2  0  0  0  0  0  0
  161.5780  206.2020  154.2300 C   0  0  0  0  0  2  0  0  0  0  0  0
  160.4570  206.8260  155.0390 C   0  0  0  0  0  2  0  0  0  0  0  0
  161.0210  207.6820  156.1610 C   0  0  0  0  0  2  0  0  0  0  0  0
  159.6800  209.7010  155.8510 O   0  0  0  0  0  0  0  0  0  0  0  0
  160.9090  209.0870  155.8150 N   0  0  0  0  0  0  0  0  0  0  0  0
  161.9390  209.7720  155.6560 O   0  0  0  0  0  0  0  0  0  0  0  0
  2  7  1  6  0  0  0
  3  5  2  0  0  0  0
  3  8  1  0  0  0  0
  4  1  1  0  0  0  0
  4 16  1  0  0  0  0
  5 13  1  0  0  0  0
  6  2  1  0  0  0  0
  8 15  2  0  0  0  0
  8 11  1  0  0  0  0
  9  6  1  0  0  0  0
 10  2  1  0  0  0  0
 10  1  2  0  0  0  0
 11  4  2  0  0  0  0
 12  5  1  0  0  0  0
 13 11  1  0  0  0  0
 14  9  1  0  0  0  0
 14 15  1  0  0  0  0
 15 10  1  0  0  0  0
 16 24  1  1  0  0  0
 17 22  1  0  0  0  0
 18 19  2  0  0  0  0
 19 16  1  0  0  0  0
 19 21  1  0  0  0  0
 20 21  1  0  0  0  0
 20 23  1  0  0  0  0
 21 17  1  0  0  0  0
 23 22  1  0  0  0  0
 24 25  1  0  0  0  0
 25 26  1  0  0  0  0
 26 27  1  0  0  0  0
 29 28  2  0  0  0  0
 29 27  1  0  0  0  0
 30 29  2  0  0  0  0
M  END
>  <MODEL>
5

>  <REMARK>
 VINA RESULT:      -6.4      2.778      7.352
  Name = 
  7 active torsions:
  status: ('A' for Active; 'I' for Inactive)
    1  A    between atoms: C_4  and  C_13
    2  A    between atoms: C_7  and  N_15
    3  A    between atoms: C_7  and  C_16
    4  A    between atoms: C_8  and  C_13
    5  A    between atoms: C_13  and  C_27
    6  A    between atoms: C_16  and  C_30
    7  A    between atoms: C_27  and  C_30
                            x       y       z     vdW  Elec       q    Type
                         _______ _______ _______ _____ _____    ______ ____

>  <TORSDO>
F 7

$$$$
=
 OpenBabel11052421543D

 30 33  0  0  1  0  0  0  0  0999 V2000
  160.6940  208.9600  151.5320 C   0  0  0  0  0  3  0  0  0  0  0  0
  160.9930  206.9560  150.0460 C   0  0  2  0  0  3  0  0  0  0  0  0
  161.2970  206.9230  155.0380 N   0  0  0  0  0  0  0  0  0  0  0  0
  160.6710  209.5930  152.7920 C   0  0  0  0  0  0  0  0  0  0  0  0
  161.1740  208.0080  155.8440 C   0  0  0  0  0  0  0  0  0  0  0  0
  160.8320  205.4340  150.0790 C   0  0  0  0  0  2  0  0  0  0  0  0
  162.3000  207.3300  149.3650 C   0  0  0  0  0  1  0  0  0  0  0  0
  161.1220  207.4530  153.8170 C   0  0  0  0  0  0  0  0  0  0  0  0
  161.7360  204.8200  151.1450 C   0  0  0  0  0  2  0  0  0  0  0  0
  160.9240  207.5710  151.4200 C   0  0  0  0  0  0  0  0  0  0  0  0
  160.9000  208.7960  153.9150 C   0  0  0  0  0  0  0  0  0  0  0  0
  161.2890  207.9230  157.2590 N   0  0  0  0  0  1  0  0  0  0  0  0
  160.9290  209.1780  155.2020 N   0  0  0  0  0  2  0  0  0  0  0  0
  161.3020  205.2970  152.5270 C   0  0  0  0  0  2  0  0  0  0  0  0
  161.1510  206.7940  152.5870 C   0  0  0  0  0  0  0  0  0  0  0  0
  160.4470  211.0730  152.9310 C   0  0  2  0  0  3  0  0  0  0  0  0
  160.1790  212.5540  155.5180 C   0  0  0  0  0  2  0  0  0  0  0  0
  158.0500  211.0640  152.9250 O   0  0  0  0  0  0  0  0  0  0  0  0
  159.1060  211.4250  153.5140 C   0  0  0  0  0  0  0  0  0  0  0  0
  157.7640  212.4770  155.3850 C   0  0  0  0  0  2  0  0  0  0  0  0
  159.0210  212.1340  154.7550 N   0  0  0  0  0  0  0  0  0  0  0  0
  159.6320  213.1150  156.8160 C   0  0  0  0  0  2  0  0  0  0  0  0
  158.1310  213.2780  156.6210 C   0  0  0  0  0  2  0  0  0  0  0  0
  160.8100  211.8730  151.6770 C   0  0  0  0  0  2  0  0  0  0  0  0
  159.8680  213.0450  151.4250 C   0  0  0  0  0  2  0  0  0  0  0  0
  160.4140  213.9400  150.3280 C   0  0  0  0  0  2  0  0  0  0  0  0
  160.3570  213.2330  148.9850 C   0  0  0  0  0  2  0  0  0  0  0  0
  162.1440  211.6910  148.3490 O   0  0  0  0  0  0  0  0  0  0  0  0
  161.7030  212.9840  148.5010 N   0  0  0  0  0  0  0  0  0  0  0  0
  162.3900  213.9280  148.0620 O   0  0  0  0  0  0  0  0  0  0  0  0
  1  4  1  0  0  0  0
  2  7  1  1  0  0  0
  2  6  1  0  0  0  0
  2 10  1  0  0  0  0
  3  5  2  0  0  0  0
  4 16  1  0  0  0  0
  4 11  2  0  0  0  0
  5 12  1  0  0  0  0
  6  9  1  0  0  0  0
  8 11  1  0  0  0  0
  8  3  1  0  0  0  0
  9 14  1  0  0  0  0
 10  1  2  0  0  0  0
 10 15  1  0  0  0  0
 11 13  1  0  0  0  0
 13  5  1  0  0  0  0
 14 15  1  0  0  0  0
 15  8  2  0  0  0  0
 16 24  1  6  0  0  0
 16 19  1  0  0  0  0
 17 22  1  0  0  0  0
 18 19  2  0  0  0  0
 19 21  1  0  0  0  0
 20 23  1  0  0  0  0
 21 20  1  0  0  0  0
 21 17  1  0  0  0  0
 23 22  1  0  0  0  0
 25 24  1  0  0  0  0
 26 25  1  0  0  0  0
 27 26  1  0  0  0  0
 28 29  2  0  0  0  0
 29 27  1  0  0  0  0
 30 29  2  0  0  0  0
M  END
>  <MODEL>
6

>  <REMARK>
 VINA RESULT:      -6.4      4.245      8.465
  Name = 
  7 active torsions:
  status: ('A' for Active; 'I' for Inactive)
    1  A    between atoms: C_4  and  C_13
    2  A    between atoms: C_7  and  N_15
    3  A    between atoms: C_7  and  C_16
    4  A    between atoms: C_8  and  C_13
    5  A    between atoms: C_13  and  C_27
    6  A    between atoms: C_16  and  C_30
    7  A    between atoms: C_27  and  C_30
                            x       y       z     vdW  Elec       q    Type
                         _______ _______ _______ _____ _____    ______ ____

>  <TORSDO>
F 7

$$$$
=
 OpenBabel11052421543D

 30 33  0  0  1  0  0  0  0  0999 V2000
  160.7070  208.9370  151.5560 C   0  0  0  0  0  3  0  0  0  0  0  0
  160.9880  206.9700  150.0180 C   0  0  2  0  0  3  0  0  0  0  0  0
  161.1990  206.7870  155.0110 N   0  0  0  0  0  0  0  0  0  0  0  0
  160.6740  209.5340  152.8330 C   0  0  0  0  0  0  0  0  0  0  0  0
  161.0850  207.8520  155.8460 C   0  0  0  0  0  0  0  0  0  0  0  0
  160.7930  205.4510  150.0040 C   0  0  0  0  0  2  0  0  0  0  0  0
  162.3160  207.3320  149.3720 C   0  0  0  0  0  1  0  0  0  0  0  0
  161.0590  207.3560  153.8030 C   0  0  0  0  0  0  0  0  0  0  0  0
  161.6630  204.7870  151.0680 C   0  0  0  0  0  2  0  0  0  0  0  0
  160.9070  207.5460  151.4070 C   0  0  0  0  0  0  0  0  0  0  0  0
  160.8650  208.7010  153.9360 C   0  0  0  0  0  0  0  0  0  0  0  0
  161.1720  207.7240  157.2600 N   0  0  0  0  0  1  0  0  0  0  0  0
  160.8790  209.0440  155.2340 N   0  0  0  0  0  2  0  0  0  0  0  0
  161.2140  205.2340  152.4550 C   0  0  0  0  0  2  0  0  0  0  0  0
  161.0960  206.7320  152.5560 C   0  0  0  0  0  0  0  0  0  0  0  0
  160.4810  211.0150  153.0110 C   0  0  2  0  0  3  0  0  0  0  0  0
  160.4080  212.3610  155.6820 C   0  0  0  0  0  2  0  0  0  0  0  0
  158.0890  211.0760  153.1430 O   0  0  0  0  0  0  0  0  0  0  0  0
  159.1880  211.3740  153.6880 C   0  0  0  0  0  0  0  0  0  0  0  0
  157.9880  212.3630  155.6860 C   0  0  0  0  0  2  0  0  0  0  0  0
  159.1960  212.0180  154.9670 N   0  0  0  0  0  0  0  0  0  0  0  0
  159.9530  212.8680  157.0370 C   0  0  0  0  0  2  0  0  0  0  0  0
  158.4500  213.0860  156.9380 C   0  0  0  0  0  2  0  0  0  0  0  0
  160.7710  211.8310  151.7490 C   0  0  0  0  0  2  0  0  0  0  0  0
  160.0150  213.1540  151.7090 C   0  0  0  0  0  2  0  0  0  0  0  0
  159.1080  213.2130  150.4930 C   0  0  0  0  0  2  0  0  0  0  0  0
  157.8850  214.0680  150.7800 C   0  0  0  0  0  2  0  0  0  0  0  0
  155.5730  213.9680  149.9960 O   0  0  0  0  0  0  0  0  0  0  0  0
  156.9160  213.9180  149.7100 N   0  0  0  0  0  0  0  0  0  0  0  0
  157.2960  213.9170  148.5220 O   0  0  0  0  0  0  0  0  0  0  0  0
  1  4  1  0  0  0  0
  2  7  1  1  0  0  0
  2 10  1  0  0  0  0
  3  5  2  0  0  0  0
  4 16  1  0  0  0  0
  4 11  2  0  0  0  0
  5 12  1  0  0  0  0
  6  2  1  0  0  0  0
  6  9  1  0  0  0  0
  8 11  1  0  0  0  0
  8  3  1  0  0  0  0
  9 14  1  0  0  0  0
 10  1  2  0  0  0  0
 10 15  1  0  0  0  0
 11 13  1  0  0  0  0
 13  5  1  0  0  0  0
 14 15  1  0  0  0  0
 15  8  2  0  0  0  0
 16 24  1  6  0  0  0
 16 19  1  0  0  0  0
 17 22  1  0  0  0  0
 18 19  2  0  0  0  0
 19 21  1  0  0  0  0
 20 23  1  0  0  0  0
 21 17  1  0  0  0  0
 21 20  1  0  0  0  0
 23 22  1  0  0  0  0
 25 24  1  0  0  0  0
 26 27  1  0  0  0  0
 26 25  1  0  0  0  0
 29 28  2  0  0  0  0
 29 27  1  0  0  0  0
 30 29  2  0  0  0  0
M  END
>  <MODEL>
7

>  <REMARK>
 VINA RESULT:      -6.0      4.737      8.808
  Name = 
  7 active torsions:
  status: ('A' for Active; 'I' for Inactive)
    1  A    between atoms: C_4  and  C_13
    2  A    between atoms: C_7  and  N_15
    3  A    between atoms: C_7  and  C_16
    4  A    between atoms: C_8  and  C_13
    5  A    between atoms: C_13  and  C_27
    6  A    between atoms: C_16  and  C_30
    7  A    between atoms: C_27  and  C_30
                            x       y       z     vdW  Elec       q    Type
                         _______ _______ _______ _____ _____    ______ ____

>  <TORSDO>
F 7

$$$$
=
 OpenBabel11052421543D

 30 33  0  0  1  0  0  0  0  0999 V2000
  161.4330  211.0360  150.7250 C   0  0  0  0  0  3  0  0  0  0  0  0
  161.8460  212.5300  148.7470 C   0  0  2  0  0  3  0  0  0  0  0  0
  158.4380  213.3360  152.3170 N   0  0  0  0  0  0  0  0  0  0  0  0
  160.7470  210.6780  151.9040 C   0  0  0  0  0  0  0  0  0  0  0  0
  158.1840  212.5130  153.3680 C   0  0  0  0  0  0  0  0  0  0  0  0
  161.7140  213.9990  148.3360 C   0  0  0  0  0  2  0  0  0  0  0  0
  161.3460  211.6270  147.6300 C   0  0  0  0  0  1  0  0  0  0  0  0
  159.4270  212.6880  151.6810 C   0  0  0  0  0  0  0  0  0  0  0  0
  160.2580  214.4520  148.4180 C   0  0  0  0  0  2  0  0  0  0  0  0
  161.1190  212.2250  150.0310 C   0  0  0  0  0  0  0  0  0  0  0  0
  159.7380  211.5370  152.3440 C   0  0  0  0  0  0  0  0  0  0  0  0
  157.1840  212.8020  154.3370 N   0  0  0  0  0  1  0  0  0  0  0  0
  158.9560  211.4000  153.4270 N   0  0  0  0  0  2  0  0  0  0  0  0
  159.7810  214.3980  149.8650 C   0  0  0  0  0  2  0  0  0  0  0  0
  160.0860  213.0730  150.5130 C   0  0  0  0  0  0  0  0  0  0  0  0
  161.0540  209.4070  152.6460 C   0  0  2  0  0  3  0  0  0  0  0  0
  160.3270  207.6600  154.9630 C   0  0  0  0  0  2  0  0  0  0  0  0
  162.3860  210.6100  154.2340 O   0  0  0  0  0  0  0  0  0  0  0  0
  161.6120  209.6360  154.0230 C   0  0  0  0  0  0  0  0  0  0  0  0
  161.7140  208.9590  156.4600 C   0  0  0  0  0  2  0  0  0  0  0  0
  161.2380  208.7770  155.1060 N   0  0  0  0  0  0  0  0  0  0  0  0
  160.0950  207.1400  156.3690 C   0  0  0  0  0  2  0  0  0  0  0  0
  161.1420  207.8010  157.2550 C   0  0  0  0  0  2  0  0  0  0  0  0
  161.8370  208.3840  151.8190 C   0  0  0  0  0  2  0  0  0  0  0  0
  160.9420  207.5300  150.9270 C   0  0  0  0  0  2  0  0  0  0  0  0
  161.5050  206.1270  150.7970 C   0  0  0  0  0  2  0  0  0  0  0  0
  160.7180  205.3290  149.7710 C   0  0  0  0  0  2  0  0  0  0  0  0
  160.9270  203.2980  151.1130 O   0  0  0  0  0  0  0  0  0  0  0  0
  161.0360  203.9180  149.8920 N   0  0  0  0  0  0  0  0  0  0  0  0
  161.2390  203.2370  148.8660 O   0  0  0  0  0  0  0  0  0  0  0  0
  1  4  1  0  0  0  0
  2  7  1  6  0  0  0
  2 10  1  0  0  0  0
  3  5  2  0  0  0  0
  4 11  2  0  0  0  0
  4 16  1  0  0  0  0
  5 13  1  0  0  0  0
  5 12  1  0  0  0  0
  6  9  1  0  0  0  0
  6  2  1  0  0  0  0
  8  3  1  0  0  0  0
  8 11  1  0  0  0  0
  9 14  1  0  0  0  0
 10 15  1  0  0  0  0
 10  1  2  0  0  0  0
 11 13  1  0  0  0  0
 14 15  1  0  0  0  0
 15  8  2  0  0  0  0
 16 24  1  6  0  0  0
 16 19  1  0  0  0  0
 17 21  1  0  0  0  0
 17 22  1  0  0  0  0
 19 18  2  0  0  0  0
 19 21  1  0  0  0  0
 20 23  1  0  0  0  0
 21 20  1  0  0  0  0
 22 23  1  0  0  0  0
 25 24  1  0  0  0  0
 26 25  1  0  0  0  0
 27 29  1  0  0  0  0
 27 26  1  0  0  0  0
 29 28  2  0  0  0  0
 30 29  2  0  0  0  0
M  END
>  <MODEL>
8

>  <REMARK>
 VINA RESULT:      -5.9      3.261      6.576
  Name = 
  7 active torsions:
  status: ('A' for Active; 'I' for Inactive)
    1  A    between atoms: C_4  and  C_13
    2  A    between atoms: C_7  and  N_15
    3  A    between atoms: C_7  and  C_16
    4  A    between atoms: C_8  and  C_13
    5  A    between atoms: C_13  and  C_27
    6  A    between atoms: C_16  and  C_30
    7  A    between atoms: C_27  and  C_30
                            x       y       z     vdW  Elec       q    Type
                         _______ _______ _______ _____ _____    ______ ____

>  <TORSDO>
F 7

$$$$
=
 OpenBabel11052421543D

 30 33  0  0  1  0  0  0  0  0999 V2000
  161.4250  207.3020  148.6200 C   0  0  0  0  0  3  0  0  0  0  0  0
  161.3510  205.3900  146.9900 C   0  0  2  0  0  3  0  0  0  0  0  0
  161.1380  204.9550  151.9680 N   0  0  0  0  0  0  0  0  0  0  0  0
  161.4380  207.8360  149.9240 C   0  0  0  0  0  0  0  0  0  0  0  0
  161.2160  205.9810  152.8550 C   0  0  0  0  0  0  0  0  0  0  0  0
  160.8060  203.9640  146.8760 C   0  0  0  0  0  2  0  0  0  0  0  0
  162.7710  205.4530  146.4510 C   0  0  0  0  0  1  0  0  0  0  0  0
  161.2270  205.5910  150.7890 C   0  0  0  0  0  0  0  0  0  0  0  0
  161.4140  203.0680  147.9520 C   0  0  0  0  0  2  0  0  0  0  0  0
  161.3040  205.9110  148.4030 C   0  0  0  0  0  0  0  0  0  0  0  0
  161.3450  206.9360  150.9870 C   0  0  0  0  0  0  0  0  0  0  0  0
  161.1650  205.7770  154.2620 N   0  0  0  0  0  1  0  0  0  0  0  0
  161.3410  207.2130  152.3010 N   0  0  0  0  0  2  0  0  0  0  0  0
  160.9800  203.5510  149.3320 C   0  0  0  0  0  2  0  0  0  0  0  0
  161.2090  205.0280  149.5120 C   0  0  0  0  0  0  0  0  0  0  0  0
  161.5850  209.3120  150.1750 C   0  0  2  0  0  3  0  0  0  0  0  0
  161.0460  212.2070  149.6450 C   0  0  0  0  0  2  0  0  0  0  0  0
  163.0210  209.4390  148.2610 O   0  0  0  0  0  0  0  0  0  0  0  0
  162.2410  210.0500  149.0430 C   0  0  0  0  0  0  0  0  0  0  0  0
  162.5300  212.1990  147.7340 C   0  0  0  0  0  2  0  0  0  0  0  0
  161.9560  211.4370  148.8220 N   0  0  0  0  0  0  0  0  0  0  0  0
  160.9230  213.5570  148.9650 C   0  0  0  0  0  2  0  0  0  0  0  0
  162.0270  213.6190  147.9190 C   0  0  0  0  0  2  0  0  0  0  0  0
  162.1580  209.6490  151.5540 C   0  0  0  0  0  2  0  0  0  0  0  0
  161.1820  210.4260  152.4300 C   0  0  0  0  0  2  0  0  0  0  0  0
  161.5840  210.3280  153.8900 C   0  0  0  0  0  2  0  0  0  0  0  0
  160.3720  210.0350  154.7590 C   0  0  0  0  0  2  0  0  0  0  0  0
  159.7060  208.1470  156.1600 O   0  0  0  0  0  0  0  0  0  0  0  0
  160.6930  208.9950  155.7200 N   0  0  0  0  0  0  0  0  0  0  0  0
  161.8840  208.7630  156.0100 O   0  0  0  0  0  0  0  0  0  0  0  0
  1  4  1  0  0  0  0
  2  7  1  1  0  0  0
  2 10  1  0  0  0  0
  3  5  2  0  0  0  0
  4 16  1  0  0  0  0
  4 11  2  0  0  0  0
  5 12  1  0  0  0  0
  6  2  1  0  0  0  0
  6  9  1  0  0  0  0
  8 11  1  0  0  0  0
  8  3  1  0  0  0  0
  9 14  1  0  0  0  0
 10  1  2  0  0  0  0
 10 15  1  0  0  0  0
 11 13  1  0  0  0  0
 13  5  1  0  0  0  0
 14 15  1  0  0  0  0
 15  8  2  0  0  0  0
 16 24  1  1  0  0  0
 18 19  2  0  0  0  0
 19 16  1  0  0  0  0
 20 23  1  0  0  0  0
 20 21  1  0  0  0  0
 21 19  1  0  0  0  0
 21 17  1  0  0  0  0
 22 17  1  0  0  0  0
 23 22  1  0  0  0  0
 24 25  1  0  0  0  0
 25 26  1  0  0  0  0
 26 27  1  0  0  0  0
 27 29  1  0  0  0  0
 29 30  2  0  0  0  0
 29 28  2  0  0  0  0
M  END
>  <MODEL>
9

>  <REMARK>
 VINA RESULT:      -5.9      3.146      7.379
  Name = 
  7 active torsions:
  status: ('A' for Active; 'I' for Inactive)
    1  A    between atoms: C_4  and  C_13
    2  A    between atoms: C_7  and  N_15
    3  A    between atoms: C_7  and  C_16
    4  A    between atoms: C_8  and  C_13
    5  A    between atoms: C_13  and  C_27
    6  A    between atoms: C_16  and  C_30
    7  A    between atoms: C_27  and  C_30
                            x       y       z     vdW  Elec       q    Type
                         _______ _______ _______ _____ _____    ______ ____

>  <TORSDO>
F 7

$$$$
