=
 OpenBabel11052421553D

 30 32  0  0  1  0  0  0  0  0999 V2000
  161.0520  204.9570  150.2170 C   0  0  0  0  0  3  0  0  0  0  0  0
  160.5340  202.6350  150.9740 C   0  0  1  0  0  3  0  0  0  0  0  0
  161.7420  203.7440  146.2500 C   0  0  0  0  0  3  0  0  0  0  0  0
  161.3810  205.9180  149.2550 C   0  0  0  0  0  0  0  0  0  0  0  0
  162.0900  204.6870  145.2810 C   0  0  0  0  0  3  0  0  0  0  0  0
  160.7760  201.1770  150.5980 C   0  0  0  0  0  2  0  0  0  0  0  0
  161.1850  202.9100  152.1640 F   0  0  0  0  0  0  0  0  0  0  0  0
  161.5040  204.1370  147.5780 C   0  0  0  0  0  0  0  0  0  0  0  0
  160.2670  200.9150  149.1910 C   0  0  0  0  0  2  0  0  0  0  0  0
  160.9660  203.6020  149.8960 C   0  0  0  0  0  0  0  0  0  0  0  0
  161.6150  205.5090  147.9260 C   0  0  0  0  0  0  0  0  0  0  0  0
  162.2090  206.0320  145.6260 C   0  0  0  0  0  3  0  0  0  0  0  0
  161.9750  206.4390  146.9390 C   0  0  0  0  0  3  0  0  0  0  0  0
  161.1040  201.7170  148.2040 C   0  0  0  0  0  2  0  0  0  0  0  0
  161.1630  203.1840  148.5610 C   0  0  0  0  0  0  0  0  0  0  0  0
  160.8430  208.8200  151.3200 O   0  0  0  0  0  0  0  0  0  0  0  0
  161.3580  207.7070  151.0240 C   0  0  0  0  0  0  0  0  0  0  0  0
  161.4420  207.3050  149.6420 N   0  0  0  0  0  0  0  0  0  0  0  0
  163.0170  206.3150  151.9810 O   0  0  0  0  0  0  0  0  0  0  0  0
  161.8850  206.8570  152.1090 C   0  0  0  0  0  0  0  0  0  0  0  0
  161.1220  206.6320  153.2590 O   0  0  0  0  0  0  0  0  0  0  0  0
  160.1360  207.1100  155.4030 C   0  0  0  0  0  1  0  0  0  0  0  0
  161.2660  207.4130  154.4370 C   0  0  0  0  0  2  0  0  0  0  0  0
  161.3460  208.3280  148.6040 C   0  0  0  0  0  2  0  0  0  0  0  0
  162.3690  209.4250  148.8550 C   0  0  0  0  0  2  0  0  0  0  0  0
  161.7710  210.7870  148.5420 C   0  0  0  0  0  2  0  0  0  0  0  0
  162.8520  211.8170  148.2270 C   0  0  0  0  0  2  0  0  0  0  0  0
  162.1840  214.2150  148.0720 C   0  0  0  0  0  1  0  0  0  0  0  0
  162.3290  212.9120  147.3090 C   0  0  2  0  0  3  0  0  0  0  0  0
  161.0330  212.5210  146.7870 N   0  0  0  0  0  1  0  0  0  0  0  0
  2  7  1  1  0  0  0
  3  8  1  0  0  0  0
  4 18  1  0  0  0  0
  4  1  2  0  0  0  0
  5 12  1  0  0  0  0
  5  3  2  0  0  0  0
  6  2  1  0  0  0  0
  8 11  2  0  0  0  0
  8 15  1  0  0  0  0
  9  6  1  0  0  0  0
 10  1  1  0  0  0  0
 10  2  1  0  0  0  0
 11  4  1  0  0  0  0
 12 13  2  0  0  0  0
 13 11  1  0  0  0  0
 14 15  1  0  0  0  0
 14  9  1  0  0  0  0
 15 10  2  0  0  0  0
 17 16  2  0  0  0  0
 17 20  1  0  0  0  0
 18 17  1  0  0  0  0
 19 20  2  0  0  0  0
 20 21  1  0  0  0  0
 21 23  1  0  0  0  0
 23 22  1  0  0  0  0
 24 25  1  0  0  0  0
 24 18  1  0  0  0  0
 26 25  1  0  0  0  0
 27 26  1  0  0  0  0
 29 28  1  1  0  0  0
 29 27  1  0  0  0  0
 30 29  1  0  0  0  0
M  END
>  <MODEL>
1

>  <REMARK>
 VINA RESULT:      -8.6      0.000      0.000
  Name = 
  9 active torsions:
  status: ('A' for Active; 'I' for Inactive)
    1  A    between atoms: C_4  and  N_13
    2  A    between atoms: O_5  and  C_12
    3  A    between atoms: O_5  and  C_21
    4  A    between atoms: C_7  and  C_15
    5  A    between atoms: C_7  and  C_16
    6  A    between atoms: C_8  and  C_12
    7  A    between atoms: N_13  and  C_27
    8  A    between atoms: C_16  and  C_30
    9  A    between atoms: C_27  and  C_30
                            x       y       z     vdW  Elec       q    Type
                         _______ _______ _______ _____ _____    ______ ____

>  <TORSDO>
F 9

$$$$
=
 OpenBabel11052421553D

 30 32  0  0  1  0  0  0  0  0999 V2000
  161.2130  206.6950  148.4770 C   0  0  0  0  0  3  0  0  0  0  0  0
  161.2290  205.8290  146.1360 C   0  0  1  0  0  3  0  0  0  0  0  0
  161.1150  202.8330  150.1380 C   0  0  0  0  0  3  0  0  0  0  0  0
  161.2190  206.5490  149.8680 C   0  0  0  0  0  0  0  0  0  0  0  0
  161.1000  202.6680  151.5240 C   0  0  0  0  0  3  0  0  0  0  0  0
  160.8490  204.6000  145.3170 C   0  0  0  0  0  2  0  0  0  0  0  0
  160.4120  206.8860  145.7710 F   0  0  0  0  0  0  0  0  0  0  0  0
  161.1520  204.1190  149.5700 C   0  0  0  0  0  0  0  0  0  0  0  0
  161.5700  203.3770  145.8570 C   0  0  0  0  0  2  0  0  0  0  0  0
  161.1560  205.5920  147.6260 C   0  0  0  0  0  0  0  0  0  0  0  0
  161.1820  205.2530  150.4230 C   0  0  0  0  0  0  0  0  0  0  0  0
  161.1190  203.7830  152.3610 C   0  0  0  0  0  3  0  0  0  0  0  0
  161.1570  205.0650  151.8130 C   0  0  0  0  0  3  0  0  0  0  0  0
  161.0640  203.0830  147.2620 C   0  0  0  0  0  2  0  0  0  0  0  0
  161.1560  204.2870  148.1690 C   0  0  0  0  0  0  0  0  0  0  0  0
  162.5940  209.6040  151.1890 O   0  0  0  0  0  0  0  0  0  0  0  0
  162.0640  208.8780  150.3040 C   0  0  0  0  0  0  0  0  0  0  0  0
  161.2910  207.7250  150.6970 N   0  0  0  0  0  0  0  0  0  0  0  0
  162.9970  208.5700  148.1510 O   0  0  0  0  0  0  0  0  0  0  0  0
  162.2300  209.2490  148.8860 C   0  0  0  0  0  0  0  0  0  0  0  0
  161.5640  210.3660  148.3700 O   0  0  0  0  0  0  0  0  0  0  0  0
  163.0580  212.1890  147.8780 C   0  0  0  0  0  1  0  0  0  0  0  0
  161.9070  211.6950  148.7340 C   0  0  0  0  0  2  0  0  0  0  0  0
  160.7720  207.6560  152.0610 C   0  0  0  0  0  2  0  0  0  0  0  0
  160.3970  209.0470  152.5480 C   0  0  0  0  0  2  0  0  0  0  0  0
  160.7030  209.1890  154.0300 C   0  0  0  0  0  2  0  0  0  0  0  0
  161.0490  207.8450  154.6650 C   0  0  0  0  0  2  0  0  0  0  0  0
  160.0590  207.0670  156.8180 C   0  0  0  0  0  1  0  0  0  0  0  0
  161.1190  207.9450  156.1810 C   0  0  2  0  0  3  0  0  0  0  0  0
  160.8970  209.3220  156.5810 N   0  0  0  0  0  1  0  0  0  0  0  0
  1  4  1  0  0  0  0
  2  7  1  1  0  0  0
  2 10  1  0  0  0  0
  3  5  2  0  0  0  0
  4 11  2  0  0  0  0
  4 18  1  0  0  0  0
  5 12  1  0  0  0  0
  6  9  1  0  0  0  0
  6  2  1  0  0  0  0
  8  3  1  0  0  0  0
  8 11  1  0  0  0  0
  9 14  1  0  0  0  0
 10 15  1  0  0  0  0
 10  1  2  0  0  0  0
 11 13  1  0  0  0  0
 13 12  2  0  0  0  0
 14 15  1  0  0  0  0
 15  8  2  0  0  0  0
 17 18  1  0  0  0  0
 17 16  2  0  0  0  0
 18 24  1  0  0  0  0
 19 20  2  0  0  0  0
 20 17  1  0  0  0  0
 21 23  1  0  0  0  0
 21 20  1  0  0  0  0
 22 23  1  0  0  0  0
 24 25  1  0  0  0  0
 25 26  1  0  0  0  0
 26 27  1  0  0  0  0
 27 29  1  0  0  0  0
 29 30  1  0  0  0  0
 29 28  1  1  0  0  0
M  END
>  <MODEL>
2

>  <REMARK>
 VINA RESULT:      -8.6      2.414      5.803
  Name = 
  9 active torsions:
  status: ('A' for Active; 'I' for Inactive)
    1  A    between atoms: C_4  and  N_13
    2  A    between atoms: O_5  and  C_12
    3  A    between atoms: O_5  and  C_21
    4  A    between atoms: C_7  and  C_15
    5  A    between atoms: C_7  and  C_16
    6  A    between atoms: C_8  and  C_12
    7  A    between atoms: N_13  and  C_27
    8  A    between atoms: C_16  and  C_30
    9  A    between atoms: C_27  and  C_30
                            x       y       z     vdW  Elec       q    Type
                         _______ _______ _______ _____ _____    ______ ____

>  <TORSDO>
F 9

$$$$
=
 OpenBabel11052421553D

 30 32  0  0  1  0  0  0  0  0999 V2000
  160.8650  208.5740  153.3710 C   0  0  0  0  0  3  0  0  0  0  0  0
  160.7260  206.0820  153.4130 C   0  0  1  0  0  3  0  0  0  0  0  0
  162.0010  208.6620  149.3230 C   0  0  0  0  0  3  0  0  0  0  0  0
  161.0730  209.8080  152.7450 C   0  0  0  0  0  0  0  0  0  0  0  0
  162.2320  209.8830  148.6870 C   0  0  0  0  0  3  0  0  0  0  0  0
  161.2490  204.8470  152.6870 C   0  0  0  0  0  2  0  0  0  0  0  0
  161.2440  206.1050  154.6960 F   0  0  0  0  0  0  0  0  0  0  0  0
  161.6160  208.6190  150.6740 C   0  0  0  0  0  0  0  0  0  0  0  0
  160.8820  204.9200  151.2140 C   0  0  0  0  0  2  0  0  0  0  0  0
  161.0430  207.3700  152.6890 C   0  0  0  0  0  0  0  0  0  0  0  0
  161.4570  209.8350  151.3890 C   0  0  0  0  0  0  0  0  0  0  0  0
  162.0860  211.0760  149.3930 C   0  0  0  0  0  3  0  0  0  0  0  0
  161.7040  211.0520  150.7340 C   0  0  0  0  0  3  0  0  0  0  0  0
  161.6190  206.0890  150.5770 C   0  0  0  0  0  2  0  0  0  0  0  0
  161.3920  207.3840  151.3200 C   0  0  0  0  0  0  0  0  0  0  0  0
  160.5820  211.8720  155.6560 O   0  0  0  0  0  0  0  0  0  0  0  0
  161.2420  211.1250  154.8820 C   0  0  0  0  0  0  0  0  0  0  0  0
  160.8610  211.0200  153.4960 N   0  0  0  0  0  0  0  0  0  0  0  0
  163.5700  210.8210  155.1860 O   0  0  0  0  0  0  0  0  0  0  0  0
  162.4060  210.3960  155.4210 C   0  0  0  0  0  0  0  0  0  0  0  0
  162.2200  209.2240  156.1620 O   0  0  0  0  0  0  0  0  0  0  0  0
  160.2240  208.1450  156.9680 C   0  0  0  0  0  1  0  0  0  0  0  0
  161.3220  209.1500  157.2600 C   0  0  0  0  0  2  0  0  0  0  0  0
  160.0320  212.0710  152.9120 C   0  0  0  0  0  2  0  0  0  0  0  0
  158.5690  211.6540  152.9300 C   0  0  0  0  0  2  0  0  0  0  0  0
  157.6750  212.8670  153.1300 C   0  0  0  0  0  2  0  0  0  0  0  0
  156.9500  212.8170  154.4710 C   0  0  0  0  0  2  0  0  0  0  0  0
  155.6400  210.7500  154.9530 C   0  0  0  0  0  1  0  0  0  0  0  0
  156.9940  211.4220  155.0770 C   0  0  2  0  0  3  0  0  0  0  0  0
  157.3470  211.5210  156.4810 N   0  0  0  0  0  1  0  0  0  0  0  0
  2  7  1  1  0  0  0
  3  8  1  0  0  0  0
  4  1  1  0  0  0  0
  4 18  1  0  0  0  0
  5  3  2  0  0  0  0
  5 12  1  0  0  0  0
  6  2  1  0  0  0  0
  8 15  2  0  0  0  0
  8 11  1  0  0  0  0
  9  6  1  0  0  0  0
 10  1  2  0  0  0  0
 10  2  1  0  0  0  0
 11  4  2  0  0  0  0
 12 13  2  0  0  0  0
 13 11  1  0  0  0  0
 14  9  1  0  0  0  0
 14 15  1  0  0  0  0
 15 10  1  0  0  0  0
 17 20  1  0  0  0  0
 17 16  2  0  0  0  0
 18 17  1  0  0  0  0
 19 20  2  0  0  0  0
 20 21  1  0  0  0  0
 21 23  1  0  0  0  0
 22 23  1  0  0  0  0
 24 25  1  0  0  0  0
 24 18  1  0  0  0  0
 25 26  1  0  0  0  0
 26 27  1  0  0  0  0
 27 29  1  0  0  0  0
 29 28  1  1  0  0  0
 29 30  1  0  0  0  0
M  END
>  <MODEL>
3

>  <REMARK>
 VINA RESULT:      -7.8      3.955      5.951
  Name = 
  9 active torsions:
  status: ('A' for Active; 'I' for Inactive)
    1  A    between atoms: C_4  and  N_13
    2  A    between atoms: O_5  and  C_12
    3  A    between atoms: O_5  and  C_21
    4  A    between atoms: C_7  and  C_15
    5  A    between atoms: C_7  and  C_16
    6  A    between atoms: C_8  and  C_12
    7  A    between atoms: N_13  and  C_27
    8  A    between atoms: C_16  and  C_30
    9  A    between atoms: C_27  and  C_30
                            x       y       z     vdW  Elec       q    Type
                         _______ _______ _______ _____ _____    ______ ____

>  <TORSDO>
F 9

$$$$
=
 OpenBabel11052421553D

 30 32  0  0  1  0  0  0  0  0999 V2000
  159.7290  210.3460  152.6220 C   0  0  0  0  0  3  0  0  0  0  0  0
  158.3440  212.4040  152.9040 C   0  0  1  0  0  3  0  0  0  0  0  0
  160.0230  209.7100  156.7680 C   0  0  0  0  0  3  0  0  0  0  0  0
  160.4270  209.2300  153.0940 C   0  0  0  0  0  0  0  0  0  0  0  0
  160.7320  208.6120  157.2590 C   0  0  0  0  0  3  0  0  0  0  0  0
  158.0250  213.4950  153.9200 C   0  0  0  0  0  2  0  0  0  0  0  0
  159.0150  212.9660  151.8320 F   0  0  0  0  0  0  0  0  0  0  0  0
  159.9140  209.9310  155.3840 C   0  0  0  0  0  0  0  0  0  0  0  0
  157.4960  212.8700  155.2000 C   0  0  0  0  0  2  0  0  0  0  0  0
  159.1440  211.2650  153.4930 C   0  0  0  0  0  0  0  0  0  0  0  0
  160.5270  209.0200  154.4850 C   0  0  0  0  0  0  0  0  0  0  0  0
  161.3430  207.7240  156.3750 C   0  0  0  0  0  3  0  0  0  0  0  0
  161.2430  207.9280  154.9990 C   0  0  0  0  0  3  0  0  0  0  0  0
  158.6040  212.0480  155.8440 C   0  0  0  0  0  2  0  0  0  0  0  0
  159.2060  211.0460  154.8880 C   0  0  0  0  0  0  0  0  0  0  0  0
  161.5590  208.0280  149.8930 O   0  0  0  0  0  0  0  0  0  0  0  0
  161.5990  208.7640  150.9170 C   0  0  0  0  0  0  0  0  0  0  0  0
  161.0000  208.3070  152.1470 N   0  0  0  0  0  0  0  0  0  0  0  0
  163.2330  210.3260  151.6180 O   0  0  0  0  0  0  0  0  0  0  0  0
  162.2840  210.0670  150.8290 C   0  0  0  0  0  0  0  0  0  0  0  0
  161.8640  211.0200  149.8960 O   0  0  0  0  0  0  0  0  0  0  0  0
  162.6470  212.4420  148.1170 C   0  0  0  0  0  1  0  0  0  0  0  0
  162.3200  211.0250  148.5510 C   0  0  0  0  0  2  0  0  0  0  0  0
  160.7560  206.8780  152.3230 C   0  0  0  0  0  2  0  0  0  0  0  0
  162.0550  206.1030  152.1730 C   0  0  0  0  0  2  0  0  0  0  0  0
  161.7690  204.6560  151.8060 C   0  0  0  0  0  2  0  0  0  0  0  0
  160.7150  204.5510  150.7090 C   0  0  0  0  0  2  0  0  0  0  0  0
  161.2260  204.8790  148.2890 C   0  0  0  0  0  1  0  0  0  0  0  0
  161.2790  203.9060  149.4520 C   0  0  2  0  0  3  0  0  0  0  0  0
  160.4950  202.7310  149.1220 N   0  0  0  0  0  1  0  0  0  0  0  0
  1  4  2  0  0  0  0
  1 10  1  0  0  0  0
  2  7  1  6  0  0  0
  2 10  1  0  0  0  0
  2  6  1  0  0  0  0
  3  5  1  0  0  0  0
  4 11  1  0  0  0  0
  6  9  1  0  0  0  0
  8  3  2  0  0  0  0
  9 14  1  0  0  0  0
 10 15  2  0  0  0  0
 11 13  2  0  0  0  0
 11  8  1  0  0  0  0
 12  5  2  0  0  0  0
 13 12  1  0  0  0  0
 15  8  1  0  0  0  0
 15 14  1  0  0  0  0
 16 17  2  0  0  0  0
 17 18  1  0  0  0  0
 18 24  1  0  0  0  0
 18  4  1  0  0  0  0
 20 17  1  0  0  0  0
 20 19  2  0  0  0  0
 21 20  1  0  0  0  0
 22 23  1  0  0  0  0
 23 21  1  0  0  0  0
 25 24  1  0  0  0  0
 26 25  1  0  0  0  0
 27 26  1  0  0  0  0
 29 28  1  6  0  0  0
 29 27  1  0  0  0  0
 30 29  1  0  0  0  0
M  END
>  <MODEL>
4

>  <REMARK>
 VINA RESULT:      -7.5      3.649      8.693
  Name = 
  9 active torsions:
  status: ('A' for Active; 'I' for Inactive)
    1  A    between atoms: C_4  and  N_13
    2  A    between atoms: O_5  and  C_12
    3  A    between atoms: O_5  and  C_21
    4  A    between atoms: C_7  and  C_15
    5  A    between atoms: C_7  and  C_16
    6  A    between atoms: C_8  and  C_12
    7  A    between atoms: N_13  and  C_27
    8  A    between atoms: C_16  and  C_30
    9  A    between atoms: C_27  and  C_30
                            x       y       z     vdW  Elec       q    Type
                         _______ _______ _______ _____ _____    ______ ____

>  <TORSDO>
F 9

$$$$
=
 OpenBabel11052421553D

 30 32  0  0  1  0  0  0  0  0999 V2000
  161.3790  208.1780  152.8760 C   0  0  0  0  0  3  0  0  0  0  0  0
  161.1220  207.0490  155.0880 C   0  0  1  0  0  3  0  0  0  0  0  0
  159.3710  211.6410  154.1640 C   0  0  0  0  0  3  0  0  0  0  0  0
  161.2320  209.2520  151.9920 C   0  0  0  0  0  0  0  0  0  0  0  0
  159.1980  212.7150  153.2890 C   0  0  0  0  0  3  0  0  0  0  0  0
  160.2560  207.0700  156.3430 C   0  0  0  0  0  2  0  0  0  0  0  0
  160.9250  205.8530  154.4210 F   0  0  0  0  0  0  0  0  0  0  0  0
  160.0440  210.4790  153.7470 C   0  0  0  0  0  0  0  0  0  0  0  0
  160.2810  208.4550  156.9660 C   0  0  0  0  0  2  0  0  0  0  0  0
  160.8580  208.2190  154.1700 C   0  0  0  0  0  0  0  0  0  0  0  0
  160.5560  210.4100  152.4250 C   0  0  0  0  0  0  0  0  0  0  0  0
  159.6910  212.6420  151.9870 C   0  0  0  0  0  3  0  0  0  0  0  0
  160.3630  211.4980  151.5590 C   0  0  0  0  0  3  0  0  0  0  0  0
  159.6140  209.4380  156.0140 C   0  0  0  0  0  2  0  0  0  0  0  0
  160.2100  209.3890  154.6270 C   0  0  0  0  0  0  0  0  0  0  0  0
  162.9480  207.7310  149.2140 O   0  0  0  0  0  0  0  0  0  0  0  0
  161.9900  207.8840  150.0220 C   0  0  0  0  0  0  0  0  0  0  0  0
  161.8030  209.1570  150.6720 N   0  0  0  0  0  0  0  0  0  0  0  0
  160.0350  206.6360  149.5480 O   0  0  0  0  0  0  0  0  0  0  0  0
  161.0720  206.7530  150.2560 C   0  0  0  0  0  0  0  0  0  0  0  0
  161.3350  205.8350  151.2780 O   0  0  0  0  0  0  0  0  0  0  0  0
  160.8000  203.6120  152.0330 C   0  0  0  0  0  1  0  0  0  0  0  0
  161.5590  204.4550  151.0260 C   0  0  0  0  0  2  0  0  0  0  0  0
  162.4180  210.3450  150.0870 C   0  0  0  0  0  2  0  0  0  0  0  0
  161.9350  210.5330  148.6570 C   0  0  0  0  0  2  0  0  0  0  0  0
  162.3810  211.8830  148.1210 C   0  0  0  0  0  2  0  0  0  0  0  0
  161.4370  213.0010  148.5530 C   0  0  0  0  0  2  0  0  0  0  0  0
  159.1740  213.1880  147.5220 C   0  0  0  0  0  1  0  0  0  0  0  0
  160.6410  213.5450  147.3770 C   0  0  2  0  0  3  0  0  0  0  0  0
  161.1490  212.9700  146.1460 N   0  0  0  0  0  1  0  0  0  0  0  0
  1 10  1  0  0  0  0
  2  7  1  6  0  0  0
  2  6  1  0  0  0  0
  4 11  1  0  0  0  0
  4  1  2  0  0  0  0
  5  3  2  0  0  0  0
  6  9  1  0  0  0  0
  8  3  1  0  0  0  0
  8 15  1  0  0  0  0
 10 15  2  0  0  0  0
 10  2  1  0  0  0  0
 11  8  2  0  0  0  0
 12  5  1  0  0  0  0
 13 12  2  0  0  0  0
 13 11  1  0  0  0  0
 14  9  1  0  0  0  0
 15 14  1  0  0  0  0
 16 17  2  0  0  0  0
 17 20  1  0  0  0  0
 17 18  1  0  0  0  0
 18  4  1  0  0  0  0
 19 20  2  0  0  0  0
 20 21  1  0  0  0  0
 23 21  1  0  0  0  0
 23 22  1  0  0  0  0
 24 18  1  0  0  0  0
 25 24  1  0  0  0  0
 26 27  1  0  0  0  0
 26 25  1  0  0  0  0
 29 28  1  1  0  0  0
 29 27  1  0  0  0  0
 30 29  1  0  0  0  0
M  END
>  <MODEL>
5

>  <REMARK>
 VINA RESULT:      -6.8      2.654      6.210
  Name = 
  9 active torsions:
  status: ('A' for Active; 'I' for Inactive)
    1  A    between atoms: C_4  and  N_13
    2  A    between atoms: O_5  and  C_12
    3  A    between atoms: O_5  and  C_21
    4  A    between atoms: C_7  and  C_15
    5  A    between atoms: C_7  and  C_16
    6  A    between atoms: C_8  and  C_12
    7  A    between atoms: N_13  and  C_27
    8  A    between atoms: C_16  and  C_30
    9  A    between atoms: C_27  and  C_30
                            x       y       z     vdW  Elec       q    Type
                         _______ _______ _______ _____ _____    ______ ____

>  <TORSDO>
F 9

$$$$
=
 OpenBabel11052421553D

 30 32  0  0  1  0  0  0  0  0999 V2000
  161.4020  208.6850  151.8980 C   0  0  0  0  0  3  0  0  0  0  0  0
  160.8160  209.6020  154.1450 C   0  0  1  0  0  3  0  0  0  0  0  0
  160.8290  204.7050  153.1300 C   0  0  0  0  0  3  0  0  0  0  0  0
  161.5770  207.6510  150.9730 C   0  0  0  0  0  0  0  0  0  0  0  0
  161.0180  203.6590  152.2260 C   0  0  0  0  0  3  0  0  0  0  0  0
  160.7600  209.2050  155.6170 C   0  0  0  0  0  2  0  0  0  0  0  0
  161.7950  210.5650  153.9740 F   0  0  0  0  0  0  0  0  0  0  0  0
  161.0130  206.0400  152.7300 C   0  0  0  0  0  0  0  0  0  0  0  0
  159.8590  207.9940  155.7910 C   0  0  0  0  0  2  0  0  0  0  0  0
  161.0600  208.4280  153.2260 C   0  0  0  0  0  0  0  0  0  0  0  0
  161.3870  206.3170  151.3890 C   0  0  0  0  0  0  0  0  0  0  0  0
  161.3960  203.9310  150.9120 C   0  0  0  0  0  3  0  0  0  0  0  0
  161.5810  205.2500  150.4980 C   0  0  0  0  0  3  0  0  0  0  0  0
  160.4920  206.8010  155.0880 C   0  0  0  0  0  2  0  0  0  0  0  0
  160.8320  207.0980  153.6460 C   0  0  0  0  0  0  0  0  0  0  0  0
  161.5770  209.5470  147.9100 O   0  0  0  0  0  0  0  0  0  0  0  0
  161.8540  209.3330  149.1230 C   0  0  0  0  0  0  0  0  0  0  0  0
  161.9170  207.9780  149.6110 N   0  0  0  0  0  0  0  0  0  0  0  0
  163.0800  210.4210  150.8310 O   0  0  0  0  0  0  0  0  0  0  0  0
  162.1320  210.4850  150.0020 C   0  0  0  0  0  0  0  0  0  0  0  0
  161.3290  211.6280  149.9360 O   0  0  0  0  0  0  0  0  0  0  0  0
  160.5260  213.7660  149.1730 C   0  0  0  0  0  1  0  0  0  0  0  0
  161.5780  212.6840  149.0190 C   0  0  0  0  0  2  0  0  0  0  0  0
  162.0950  206.8910  148.6520 C   0  0  0  0  0  2  0  0  0  0  0  0
  160.8580  206.7560  147.7790 C   0  0  0  0  0  2  0  0  0  0  0  0
  161.2310  206.2020  146.4130 C   0  0  0  0  0  2  0  0  0  0  0  0
  162.3750  205.1970  146.5080 C   0  0  0  0  0  2  0  0  0  0  0  0
  160.8560  203.8450  145.0630 C   0  0  0  0  0  1  0  0  0  0  0  0
  161.9160  203.7920  146.1470 C   0  0  2  0  0  3  0  0  0  0  0  0
  161.3600  203.1530  147.3240 N   0  0  0  0  0  1  0  0  0  0  0  0
  1 10  1  0  0  0  0
  2  7  1  1  0  0  0
  2  6  1  0  0  0  0
  4 11  1  0  0  0  0
  4  1  2  0  0  0  0
  5  3  2  0  0  0  0
  6  9  1  0  0  0  0
  8  3  1  0  0  0  0
  8 15  1  0  0  0  0
 10 15  2  0  0  0  0
 10  2  1  0  0  0  0
 11  8  2  0  0  0  0
 12  5  1  0  0  0  0
 13 12  2  0  0  0  0
 13 11  1  0  0  0  0
 14  9  1  0  0  0  0
 15 14  1  0  0  0  0
 16 17  2  0  0  0  0
 17 18  1  0  0  0  0
 17 20  1  0  0  0  0
 18  4  1  0  0  0  0
 20 19  2  0  0  0  0
 21 20  1  0  0  0  0
 23 22  1  0  0  0  0
 23 21  1  0  0  0  0
 24 18  1  0  0  0  0
 25 24  1  0  0  0  0
 26 27  1  0  0  0  0
 26 25  1  0  0  0  0
 29 28  1  6  0  0  0
 29 27  1  0  0  0  0
 29 30  1  0  0  0  0
M  END
>  <MODEL>
6

>  <REMARK>
 VINA RESULT:      -6.7      2.648      6.521
  Name = 
  9 active torsions:
  status: ('A' for Active; 'I' for Inactive)
    1  A    between atoms: C_4  and  N_13
    2  A    between atoms: O_5  and  C_12
    3  A    between atoms: O_5  and  C_21
    4  A    between atoms: C_7  and  C_15
    5  A    between atoms: C_7  and  C_16
    6  A    between atoms: C_8  and  C_12
    7  A    between atoms: N_13  and  C_27
    8  A    between atoms: C_16  and  C_30
    9  A    between atoms: C_27  and  C_30
                            x       y       z     vdW  Elec       q    Type
                         _______ _______ _______ _____ _____    ______ ____

>  <TORSDO>
F 9

$$$$
=
 OpenBabel11052421553D

 30 32  0  0  1  0  0  0  0  0999 V2000
  161.0560  207.7180  151.0750 C   0  0  0  0  0  3  0  0  0  0  0  0
  160.8590  208.8680  153.2820 C   0  0  1  0  0  3  0  0  0  0  0  0
  161.0380  203.8920  152.8190 C   0  0  0  0  0  3  0  0  0  0  0  0
  161.1220  206.5900  150.2500 C   0  0  0  0  0  0  0  0  0  0  0  0
  161.1230  202.7550  152.0140 C   0  0  0  0  0  3  0  0  0  0  0  0
  161.1240  208.6490  154.7670 C   0  0  0  0  0  2  0  0  0  0  0  0
  161.7100  209.8530  152.8110 F   0  0  0  0  0  0  0  0  0  0  0  0
  161.0390  205.1760  152.2480 C   0  0  0  0  0  0  0  0  0  0  0  0
  160.3690  207.4230  155.2520 C   0  0  0  0  0  2  0  0  0  0  0  0
  161.0040  207.6060  152.4640 C   0  0  0  0  0  0  0  0  0  0  0  0
  161.1200  205.3080  150.8370 C   0  0  0  0  0  0  0  0  0  0  0  0
  161.2130  202.8860  150.6280 C   0  0  0  0  0  3  0  0  0  0  0  0
  161.2130  204.1530  150.0460 C   0  0  0  0  0  3  0  0  0  0  0  0
  160.9380  206.1880  154.5670 C   0  0  0  0  0  2  0  0  0  0  0  0
  160.9630  206.3260  153.0630 C   0  0  0  0  0  0  0  0  0  0  0  0
  160.9160  208.3450  147.1110 O   0  0  0  0  0  0  0  0  0  0  0  0
  161.4280  208.0540  148.2270 C   0  0  0  0  0  0  0  0  0  0  0  0
  161.1610  206.7670  148.8200 N   0  0  0  0  0  0  0  0  0  0  0  0
  163.0800  208.6650  149.8100 O   0  0  0  0  0  0  0  0  0  0  0  0
  162.3120  209.0380  148.8820 C   0  0  0  0  0  0  0  0  0  0  0  0
  162.2760  210.3810  148.4940 O   0  0  0  0  0  0  0  0  0  0  0  0
  161.6700  212.7070  148.6300 C   0  0  0  0  0  1  0  0  0  0  0  0
  161.9500  211.4280  149.3960 C   0  0  0  0  0  2  0  0  0  0  0  0
  160.6870  205.6820  147.9650 C   0  0  0  0  0  2  0  0  0  0  0  0
  161.5270  205.6090  146.7000 C   0  0  0  0  0  2  0  0  0  0  0  0
  162.0320  204.1920  146.4810 C   0  0  0  0  0  2  0  0  0  0  0  0
  161.2020  203.4550  145.4340 C   0  0  0  0  0  2  0  0  0  0  0  0
  159.8950  201.3890  144.9370 C   0  0  0  0  0  1  0  0  0  0  0  0
  160.9380  202.0140  145.8440 C   0  0  2  0  0  3  0  0  0  0  0  0
  160.4550  201.9860  147.2120 N   0  0  0  0  0  1  0  0  0  0  0  0
  1 10  1  0  0  0  0
  2  7  1  6  0  0  0
  2  6  1  0  0  0  0
  4 11  1  0  0  0  0
  4  1  2  0  0  0  0
  5  3  2  0  0  0  0
  6  9  1  0  0  0  0
  8  3  1  0  0  0  0
  8 15  1  0  0  0  0
 10 15  2  0  0  0  0
 10  2  1  0  0  0  0
 11  8  2  0  0  0  0
 12  5  1  0  0  0  0
 13 12  2  0  0  0  0
 13 11  1  0  0  0  0
 14  9  1  0  0  0  0
 15 14  1  0  0  0  0
 16 17  2  0  0  0  0
 17 18  1  0  0  0  0
 17 20  1  0  0  0  0
 18  4  1  0  0  0  0
 20 19  2  0  0  0  0
 21 20  1  0  0  0  0
 21 23  1  0  0  0  0
 22 23  1  0  0  0  0
 24 18  1  0  0  0  0
 25 24  1  0  0  0  0
 26 25  1  0  0  0  0
 27 29  1  0  0  0  0
 27 26  1  0  0  0  0
 29 28  1  6  0  0  0
 29 30  1  0  0  0  0
M  END
>  <MODEL>
7

>  <REMARK>
 VINA RESULT:      -6.6      2.368      6.653
  Name = 
  9 active torsions:
  status: ('A' for Active; 'I' for Inactive)
    1  A    between atoms: C_4  and  N_13
    2  A    between atoms: O_5  and  C_12
    3  A    between atoms: O_5  and  C_21
    4  A    between atoms: C_7  and  C_15
    5  A    between atoms: C_7  and  C_16
    6  A    between atoms: C_8  and  C_12
    7  A    between atoms: N_13  and  C_27
    8  A    between atoms: C_16  and  C_30
    9  A    between atoms: C_27  and  C_30
                            x       y       z     vdW  Elec       q    Type
                         _______ _______ _______ _____ _____    ______ ____

>  <TORSDO>
F 9

$$$$
=
 OpenBabel11052421553D

 30 32  0  0  1  0  0  0  0  0999 V2000
  161.1550  204.3390  149.2130 C   0  0  0  0  0  3  0  0  0  0  0  0
  161.1970  203.4660  146.8750 C   0  0  1  0  0  3  0  0  0  0  0  0
  162.1000  208.2530  148.0020 C   0  0  0  0  0  3  0  0  0  0  0  0
  161.2460  205.3490  150.1760 C   0  0  0  0  0  0  0  0  0  0  0  0
  162.2150  209.2710  148.9500 C   0  0  0  0  0  3  0  0  0  0  0  0
  161.7730  203.7750  145.4970 C   0  0  0  0  0  2  0  0  0  0  0  0
  161.7680  202.2990  147.3530 F   0  0  0  0  0  0  0  0  0  0  0  0
  161.7800  206.9410  148.3930 C   0  0  0  0  0  0  0  0  0  0  0  0
  161.3370  205.1610  145.0540 C   0  0  0  0  0  2  0  0  0  0  0  0
  161.3880  204.5930  147.8610 C   0  0  0  0  0  0  0  0  0  0  0  0
  161.5670  206.6600  149.7680 C   0  0  0  0  0  0  0  0  0  0  0  0
  162.0160  208.9910  150.3020 C   0  0  0  0  0  3  0  0  0  0  0  0
  161.6960  207.6950  150.7070 C   0  0  0  0  0  3  0  0  0  0  0  0
  161.9590  206.1960  145.9800 C   0  0  0  0  0  2  0  0  0  0  0  0
  161.6740  205.9100  147.4360 C   0  0  0  0  0  0  0  0  0  0  0  0
  160.1160  203.3840  152.9750 O   0  0  0  0  0  0  0  0  0  0  0  0
  160.8750  203.6640  152.0070 C   0  0  0  0  0  0  0  0  0  0  0  0
  160.9810  205.0290  151.5560 N   0  0  0  0  0  0  0  0  0  0  0  0
  162.7210  202.1830  151.9240 O   0  0  0  0  0  0  0  0  0  0  0  0
  161.6550  202.5800  151.3790 C   0  0  0  0  0  0  0  0  0  0  0  0
  161.2290  202.0180  150.1710 O   0  0  0  0  0  0  0  0  0  0  0  0
  159.1700  201.2720  149.1700 C   0  0  0  0  0  1  0  0  0  0  0  0
  160.3090  200.9370  150.1140 C   0  0  0  0  0  2  0  0  0  0  0  0
  160.5780  206.1030  152.4600 C   0  0  0  0  0  2  0  0  0  0  0  0
  161.4410  206.0830  153.7120 C   0  0  0  0  0  2  0  0  0  0  0  0
  160.7930  206.9050  154.8150 C   0  0  0  0  0  2  0  0  0  0  0  0
  161.3690  208.3160  154.8770 C   0  0  0  0  0  2  0  0  0  0  0  0
  160.3580  210.1040  153.4610 C   0  0  0  0  0  1  0  0  0  0  0  0
  160.2760  209.3710  154.7860 C   0  0  2  0  0  3  0  0  0  0  0  0
  160.4410  210.3250  155.8670 N   0  0  0  0  0  1  0  0  0  0  0  0
  1  4  1  0  0  0  0
  2  7  1  1  0  0  0
  2 10  1  0  0  0  0
  3  8  1  0  0  0  0
  3  5  2  0  0  0  0
  4 18  1  0  0  0  0
  5 12  1  0  0  0  0
  6  2  1  0  0  0  0
  8 11  1  0  0  0  0
  9  6  1  0  0  0  0
  9 14  1  0  0  0  0
 10  1  2  0  0  0  0
 11  4  2  0  0  0  0
 11 13  1  0  0  0  0
 12 13  2  0  0  0  0
 14 15  1  0  0  0  0
 15 10  1  0  0  0  0
 15  8  2  0  0  0  0
 17 16  2  0  0  0  0
 18 17  1  0  0  0  0
 18 24  1  0  0  0  0
 20 19  2  0  0  0  0
 20 17  1  0  0  0  0
 21 20  1  0  0  0  0
 22 23  1  0  0  0  0
 23 21  1  0  0  0  0
 24 25  1  0  0  0  0
 25 26  1  0  0  0  0
 26 27  1  0  0  0  0
 29 28  1  6  0  0  0
 29 27  1  0  0  0  0
 29 30  1  0  0  0  0
M  END
>  <MODEL>
8

>  <REMARK>
 VINA RESULT:      -6.6      2.853      5.519
  Name = 
  9 active torsions:
  status: ('A' for Active; 'I' for Inactive)
    1  A    between atoms: C_4  and  N_13
    2  A    between atoms: O_5  and  C_12
    3  A    between atoms: O_5  and  C_21
    4  A    between atoms: C_7  and  C_15
    5  A    between atoms: C_7  and  C_16
    6  A    between atoms: C_8  and  C_12
    7  A    between atoms: N_13  and  C_27
    8  A    between atoms: C_16  and  C_30
    9  A    between atoms: C_27  and  C_30
                            x       y       z     vdW  Elec       q    Type
                         _______ _______ _______ _____ _____    ______ ____

>  <TORSDO>
F 9

$$$$
=
 OpenBabel11052421553D

 30 32  0  0  1  0  0  0  0  0999 V2000
  160.4490  210.2430  151.8740 C   0  0  0  0  0  3  0  0  0  0  0  0
  159.2600  212.3350  152.5390 C   0  0  1  0  0  3  0  0  0  0  0  0
  160.0200  208.5250  155.6890 C   0  0  0  0  0  3  0  0  0  0  0  0
  160.9430  208.9540  152.1030 C   0  0  0  0  0  0  0  0  0  0  0  0
  160.5240  207.2490  155.9420 C   0  0  0  0  0  3  0  0  0  0  0  0
  158.9010  213.1620  153.7690 C   0  0  0  0  0  2  0  0  0  0  0  0
  160.1460  213.0520  151.7550 F   0  0  0  0  0  0  0  0  0  0  0  0
  160.1530  209.1090  154.4170 C   0  0  0  0  0  0  0  0  0  0  0  0
  158.1160  212.3110  154.7530 C   0  0  0  0  0  2  0  0  0  0  0  0
  159.8330  210.9810  152.8860 C   0  0  0  0  0  0  0  0  0  0  0  0
  160.8010  208.3820  153.3840 C   0  0  0  0  0  0  0  0  0  0  0  0
  161.1700  206.5400  154.9300 C   0  0  0  0  0  3  0  0  0  0  0  0
  161.3090  207.1030  153.6620 C   0  0  0  0  0  3  0  0  0  0  0  0
  159.0160  211.2010  155.2770 C   0  0  0  0  0  2  0  0  0  0  0  0
  159.6530  210.4040  154.1630 C   0  0  0  0  0  0  0  0  0  0  0  0
  161.8990  208.2500  148.7030 O   0  0  0  0  0  0  0  0  0  0  0  0
  161.9240  208.8940  149.7880 C   0  0  0  0  0  0  0  0  0  0  0  0
  161.5570  208.2350  151.0160 N   0  0  0  0  0  0  0  0  0  0  0  0
  162.9920  210.7760  150.7500 O   0  0  0  0  0  0  0  0  0  0  0  0
  162.3570  210.3050  149.7670 C   0  0  0  0  0  0  0  0  0  0  0  0
  162.0380  211.1210  148.6770 O   0  0  0  0  0  0  0  0  0  0  0  0
  160.6860  212.8250  147.6460 C   0  0  0  0  0  1  0  0  0  0  0  0
  161.5540  212.4470  148.8310 C   0  0  0  0  0  2  0  0  0  0  0  0
  161.5890  206.7760  151.0700 C   0  0  0  0  0  2  0  0  0  0  0  0
  160.4300  206.1990  150.2720 C   0  0  0  0  0  2  0  0  0  0  0  0
  160.8230  204.8670  149.6550 C   0  0  0  0  0  2  0  0  0  0  0  0
  161.2030  205.0180  148.1850 C   0  0  0  0  0  2  0  0  0  0  0  0
  161.5060  203.6580  146.1160 C   0  0  0  0  0  1  0  0  0  0  0  0
  161.7470  203.7180  147.6120 C   0  0  2  0  0  3  0  0  0  0  0  0
  161.0770  202.5970  148.2460 N   0  0  0  0  0  1  0  0  0  0  0  0
  1  4  2  0  0  0  0
  1 10  1  0  0  0  0
  2  7  1  1  0  0  0
  2 10  1  0  0  0  0
  2  6  1  0  0  0  0
  3  5  1  0  0  0  0
  4 11  1  0  0  0  0
  6  9  1  0  0  0  0
  8  3  2  0  0  0  0
  9 14  1  0  0  0  0
 10 15  2  0  0  0  0
 11 13  2  0  0  0  0
 11  8  1  0  0  0  0
 12  5  2  0  0  0  0
 13 12  1  0  0  0  0
 15  8  1  0  0  0  0
 15 14  1  0  0  0  0
 16 17  2  0  0  0  0
 17 18  1  0  0  0  0
 18 24  1  0  0  0  0
 18  4  1  0  0  0  0
 20 17  1  0  0  0  0
 20 19  2  0  0  0  0
 21 23  1  0  0  0  0
 21 20  1  0  0  0  0
 22 23  1  0  0  0  0
 25 24  1  0  0  0  0
 26 25  1  0  0  0  0
 27 26  1  0  0  0  0
 29 28  1  6  0  0  0
 29 27  1  0  0  0  0
 29 30  1  0  0  0  0
M  END
>  <MODEL>
9

>  <REMARK>
 VINA RESULT:      -6.4      3.352      8.184
  Name = 
  9 active torsions:
  status: ('A' for Active; 'I' for Inactive)
    1  A    between atoms: C_4  and  N_13
    2  A    between atoms: O_5  and  C_12
    3  A    between atoms: O_5  and  C_21
    4  A    between atoms: C_7  and  C_15
    5  A    between atoms: C_7  and  C_16
    6  A    between atoms: C_8  and  C_12
    7  A    between atoms: N_13  and  C_27
    8  A    between atoms: C_16  and  C_30
    9  A    between atoms: C_27  and  C_30
                            x       y       z     vdW  Elec       q    Type
                         _______ _______ _______ _____ _____    ______ ____

>  <TORSDO>
F 9

$$$$
