=
 OpenBabel11062408003D

 34 38  0  0  1  0  0  0  0  0999 V2000
  160.9880  203.3440  150.7640 C   0  0  0  0  0  0  0  0  0  0  0  0
  161.1730  203.8620  148.4040 C   0  0  0  0  0  3  0  0  0  0  0  0
  161.4160  205.6520  150.0870 C   0  0  0  0  0  0  0  0  0  0  0  0
  161.6540  208.0940  149.5060 N   0  0  0  0  0  0  0  0  0  0  0  0
  160.7500  201.5870  149.1160 C   0  0  0  0  0  3  0  0  0  0  0  0
  160.9310  202.0790  146.6750 C   0  0  0  0  0  1  0  0  0  0  0  0
  161.9810  206.4380  147.8970 O   0  0  0  0  0  0  0  0  0  0  0  0
  161.1990  204.2970  149.7400 C   0  0  0  0  0  0  0  0  0  0  0  0
  160.7680  202.0000  150.4500 C   0  0  0  0  0  3  0  0  0  0  0  0
  161.3860  206.0130  151.4540 C   0  0  0  0  0  0  0  0  0  0  0  0
  161.0030  203.7500  152.0950 C   0  0  0  0  0  3  0  0  0  0  0  0
  160.9520  202.5170  148.0940 C   0  0  0  0  0  0  0  0  0  0  0  0
  161.1470  208.4350  150.8310 C   0  0  0  0  0  2  0  0  0  0  0  0
  161.6670  207.4430  151.8710 C   0  0  1  0  0  3  0  0  0  0  0  0
  161.6840  206.7220  149.0880 C   0  0  0  0  0  0  0  0  0  0  0  0
  161.2050  205.0550  152.4060 N   0  0  0  0  0  0  0  0  0  0  0  0
  160.2930  209.3880  154.8460 C   0  0  0  0  0  0  0  0  0  0  0  0
  160.0890  208.3570  155.7670 C   0  0  0  0  0  3  0  0  0  0  0  0
  161.1210  207.7780  153.2280 C   0  0  0  0  0  0  0  0  0  0  0  0
  160.3990  207.0390  155.4210 C   0  0  0  0  0  3  0  0  0  0  0  0
  160.8080  209.1020  153.5780 C   0  0  0  0  0  3  0  0  0  0  0  0
  160.9140  206.7500  154.1540 C   0  0  0  0  0  3  0  0  0  0  0  0
  159.9920  210.6650  155.1810 F   0  0  0  0  0  0  0  0  0  0  0  0
  162.1510  209.1510  148.6320 C   0  0  0  0  0  2  0  0  0  0  0  0
  161.9560  210.5190  149.2740 C   0  0  0  0  0  2  0  0  0  0  0  0
  162.2680  211.6450  148.2990 C   0  0  0  0  0  2  0  0  0  0  0  0
  161.3400  212.8260  148.5350 C   0  0  0  0  0  2  0  0  0  0  0  0
  161.1300  213.8530  145.6610 N   0  0  0  0  0  1  0  0  0  0  0  0
  160.2220  212.7980  147.6030 N   0  0  0  0  0  0  0  0  0  0  0  0
  160.4970  212.6470  146.1670 C   0  0  1  0  0  3  0  0  0  0  0  0
  158.0280  212.6170  145.8840 C   0  0  0  0  0  3  0  0  0  0  0  0
  157.8630  213.0870  147.2670 C   0  0  0  0  0  3  0  0  0  0  0  0
  158.9180  213.1620  148.0770 C   0  0  0  0  0  3  0  0  0  0  0  0
  159.2410  212.3790  145.3790 C   0  0  0  0  0  3  0  0  0  0  0  0
  1 11  1  0  0  0  0
  2  8  1  0  0  0  0
  3 10  2  0  0  0  0
  4 13  1  0  0  0  0
  5  9  2  0  0  0  0
  6 12  1  0  0  0  0
  7 15  2  0  0  0  0
  8  3  1  0  0  0  0
  8  1  2  0  0  0  0
  9  1  1  0  0  0  0
 10 14  1  0  0  0  0
 10 16  1  0  0  0  0
 11 16  2  0  0  0  0
 12  2  2  0  0  0  0
 12  5  1  0  0  0  0
 13 14  1  0  0  0  0
 14 19  1  1  0  0  0
 15  4  1  0  0  0  0
 15  3  1  0  0  0  0
 17 23  1  0  0  0  0
 17 18  1  0  0  0  0
 19 21  1  0  0  0  0
 19 22  2  0  0  0  0
 20 18  2  0  0  0  0
 21 17  2  0  0  0  0
 22 20  1  0  0  0  0
 24 25  1  0  0  0  0
 24  4  1  0  0  0  0
 26 27  1  0  0  0  0
 26 25  1  0  0  0  0
 29 33  1  0  0  0  0
 29 27  1  0  0  0  0
 30 28  1  6  0  0  0
 30 29  1  0  0  0  0
 31 32  1  0  0  0  0
 32 33  2  0  0  0  0
 34 31  2  0  0  0  0
 34 30  1  0  0  0  0
M  END
>  <MODEL>
1

>  <REMARK>
 VINA RESULT:     -11.1      0.000      0.000
  Name = 
  6 active torsions:
  status: ('A' for Active; 'I' for Inactive)
    1  A    between atoms: C_3  and  N_13
    2  A    between atoms: C_3  and  C_17
    3  A    between atoms: N_5  and  C_18
    4  A    between atoms: C_12  and  C_28
    5  A    between atoms: C_17  and  C_29
    6  A    between atoms: C_18  and  C_29
                            x       y       z     vdW  Elec       q    Type
                         _______ _______ _______ _____ _____    ______ ____

>  <TORSDO>
F 6

$$$$
=
 OpenBabel11062408003D

 34 38  0  0  1  0  0  0  0  0999 V2000
  161.0000  203.4910  150.9900 C   0  0  0  0  0  0  0  0  0  0  0  0
  161.1890  203.9540  148.6200 C   0  0  0  0  0  3  0  0  0  0  0  0
  161.4110  205.7850  150.2600 C   0  0  0  0  0  0  0  0  0  0  0  0
  161.6300  208.2150  149.6220 N   0  0  0  0  0  0  0  0  0  0  0  0
  160.7820  201.6930  149.3840 C   0  0  0  0  0  3  0  0  0  0  0  0
  160.9670  202.1290  146.9320 C   0  0  0  0  0  1  0  0  0  0  0  0
  161.9770  206.5240  148.0550 O   0  0  0  0  0  0  0  0  0  0  0  0
  161.2060  204.4210  149.9450 C   0  0  0  0  0  0  0  0  0  0  0  0
  160.7920  202.1380  150.7070 C   0  0  0  0  0  3  0  0  0  0  0  0
  161.3730  206.1780  151.6190 C   0  0  0  0  0  0  0  0  0  0  0  0
  161.0060  203.9280  152.3110 C   0  0  0  0  0  3  0  0  0  0  0  0
  160.9790  202.6010  148.3400 C   0  0  0  0  0  0  0  0  0  0  0  0
  161.1160  208.5830  150.9380 C   0  0  0  0  0  2  0  0  0  0  0  0
  161.6410  207.6200  152.0020 C   0  0  1  0  0  3  0  0  0  0  0  0
  161.6730  206.8330  149.2370 C   0  0  0  0  0  0  0  0  0  0  0  0
  161.1970  205.2410  152.5930 N   0  0  0  0  0  0  0  0  0  0  0  0
  160.4510  207.3850  155.6150 C   0  0  0  0  0  0  0  0  0  0  0  0
  160.0620  208.7070  155.8540 C   0  0  0  0  0  3  0  0  0  0  0  0
  161.0870  207.9820  153.3490 C   0  0  0  0  0  0  0  0  0  0  0  0
  160.1850  209.6650  154.8440 C   0  0  0  0  0  3  0  0  0  0  0  0
  160.9620  207.0220  154.3660 C   0  0  0  0  0  3  0  0  0  0  0  0
  160.6970  209.3040  153.5950 C   0  0  0  0  0  3  0  0  0  0  0  0
  160.3320  206.4570  156.5940 F   0  0  0  0  0  0  0  0  0  0  0  0
  162.1210  209.2550  148.7260 C   0  0  0  0  0  2  0  0  0  0  0  0
  162.0390  210.6240  149.3900 C   0  0  0  0  0  2  0  0  0  0  0  0
  162.3190  211.7450  148.4000 C   0  0  0  0  0  2  0  0  0  0  0  0
  161.4820  212.9700  148.7310 C   0  0  0  0  0  2  0  0  0  0  0  0
  158.4980  213.5130  149.1250 N   0  0  0  0  0  1  0  0  0  0  0  0
  160.4190  213.1480  147.7520 N   0  0  0  0  0  0  0  0  0  0  0  0
  159.3170  214.0690  148.0600 C   0  0  1  0  0  3  0  0  0  0  0  0
  158.4840  213.5450  145.7780 C   0  0  0  0  0  3  0  0  0  0  0  0
  159.4260  212.4200  145.6920 C   0  0  0  0  0  3  0  0  0  0  0  0
  160.3480  212.2470  146.6380 C   0  0  0  0  0  3  0  0  0  0  0  0
  158.4500  214.3320  146.8560 C   0  0  0  0  0  3  0  0  0  0  0  0
  1 11  1  0  0  0  0
  2  8  1  0  0  0  0
  3 10  2  0  0  0  0
  4 13  1  0  0  0  0
  5  9  2  0  0  0  0
  6 12  1  0  0  0  0
  7 15  2  0  0  0  0
  8  3  1  0  0  0  0
  8  1  2  0  0  0  0
  9  1  1  0  0  0  0
 10 14  1  0  0  0  0
 10 16  1  0  0  0  0
 11 16  2  0  0  0  0
 12  2  2  0  0  0  0
 12  5  1  0  0  0  0
 13 14  1  0  0  0  0
 14 19  1  1  0  0  0
 15  4  1  0  0  0  0
 15  3  1  0  0  0  0
 17 18  1  0  0  0  0
 17 23  1  0  0  0  0
 19 22  2  0  0  0  0
 19 21  1  0  0  0  0
 20 18  2  0  0  0  0
 21 17  2  0  0  0  0
 22 20  1  0  0  0  0
 24 25  1  0  0  0  0
 24  4  1  0  0  0  0
 26 27  1  0  0  0  0
 26 25  1  0  0  0  0
 29 30  1  0  0  0  0
 29 27  1  0  0  0  0
 30 28  1  1  0  0  0
 31 34  2  0  0  0  0
 32 31  1  0  0  0  0
 32 33  2  0  0  0  0
 33 29  1  0  0  0  0
 34 30  1  0  0  0  0
M  END
>  <MODEL>
2

>  <REMARK>
 VINA RESULT:     -10.8      0.973      1.619
  Name = 
  6 active torsions:
  status: ('A' for Active; 'I' for Inactive)
    1  A    between atoms: C_3  and  N_13
    2  A    between atoms: C_3  and  C_17
    3  A    between atoms: N_5  and  C_18
    4  A    between atoms: C_12  and  C_28
    5  A    between atoms: C_17  and  C_29
    6  A    between atoms: C_18  and  C_29
                            x       y       z     vdW  Elec       q    Type
                         _______ _______ _______ _____ _____    ______ ____

>  <TORSDO>
F 6

$$$$
=
 OpenBabel11062408003D

 34 38  0  0  1  0  0  0  0  0999 V2000
  160.9880  203.4160  150.7570 C   0  0  0  0  0  0  0  0  0  0  0  0
  161.2020  203.9270  148.3990 C   0  0  0  0  0  3  0  0  0  0  0  0
  161.4530  205.7160  150.0810 C   0  0  0  0  0  0  0  0  0  0  0  0
  161.7280  208.1550  149.4990 N   0  0  0  0  0  0  0  0  0  0  0  0
  160.7430  201.6590  149.1100 C   0  0  0  0  0  3  0  0  0  0  0  0
  160.9520  202.1450  146.6690 C   0  0  0  0  0  1  0  0  0  0  0  0
  162.0480  206.4910  147.8960 O   0  0  0  0  0  0  0  0  0  0  0  0
  161.2210  204.3640  149.7340 C   0  0  0  0  0  0  0  0  0  0  0  0
  160.7540  202.0740  150.4420 C   0  0  0  0  0  3  0  0  0  0  0  0
  161.4150  206.0790  151.4470 C   0  0  0  0  0  0  0  0  0  0  0  0
  160.9960  203.8230  152.0870 C   0  0  0  0  0  3  0  0  0  0  0  0
  160.9650  202.5850  148.0880 C   0  0  0  0  0  0  0  0  0  0  0  0
  161.2140  208.5040  150.8190 C   0  0  0  0  0  2  0  0  0  0  0  0
  161.7110  207.5060  151.8650 C   0  0  1  0  0  3  0  0  0  0  0  0
  161.7440  206.7810  149.0830 C   0  0  0  0  0  0  0  0  0  0  0  0
  161.2120  205.1250  152.3990 N   0  0  0  0  0  0  0  0  0  0  0  0
  160.2750  209.4640  154.8020 C   0  0  0  0  0  0  0  0  0  0  0  0
  160.1120  208.4460  155.7460 C   0  0  0  0  0  3  0  0  0  0  0  0
  161.1560  207.8500  153.2160 C   0  0  0  0  0  0  0  0  0  0  0  0
  160.4690  207.1330  155.4280 C   0  0  0  0  0  3  0  0  0  0  0  0
  160.7970  209.1690  153.5400 C   0  0  0  0  0  3  0  0  0  0  0  0
  160.9900  206.8360  154.1650 C   0  0  0  0  0  3  0  0  0  0  0  0
  159.9290  210.7360  155.1110 F   0  0  0  0  0  0  0  0  0  0  0  0
  162.2470  209.2030  148.6280 C   0  0  0  0  0  2  0  0  0  0  0  0
  161.9140  210.5820  149.1860 C   0  0  0  0  0  2  0  0  0  0  0  0
  161.8730  211.6350  148.0890 C   0  0  0  0  0  2  0  0  0  0  0  0
  161.7200  213.0240  148.6880 C   0  0  0  0  0  2  0  0  0  0  0  0
  159.8870  212.8700  151.1320 N   0  0  0  0  0  1  0  0  0  0  0  0
  160.3140  213.3700  148.8350 N   0  0  0  0  0  0  0  0  0  0  0  0
  159.8450  213.9110  150.1180 C   0  0  1  0  0  3  0  0  0  0  0  0
  157.6340  214.1390  149.0060 C   0  0  0  0  0  3  0  0  0  0  0  0
  158.1070  213.3020  147.8930 C   0  0  0  0  0  3  0  0  0  0  0  0
  159.3890  212.9490  147.8220 C   0  0  0  0  0  3  0  0  0  0  0  0
  158.4420  214.4520  150.0210 C   0  0  0  0  0  3  0  0  0  0  0  0
  1 11  1  0  0  0  0
  2  8  1  0  0  0  0
  3 10  2  0  0  0  0
  4 13  1  0  0  0  0
  5  9  2  0  0  0  0
  6 12  1  0  0  0  0
  7 15  2  0  0  0  0
  8  3  1  0  0  0  0
  8  1  2  0  0  0  0
  9  1  1  0  0  0  0
 10 14  1  0  0  0  0
 10 16  1  0  0  0  0
 11 16  2  0  0  0  0
 12  2  2  0  0  0  0
 12  5  1  0  0  0  0
 13 14  1  0  0  0  0
 14 19  1  1  0  0  0
 15  4  1  0  0  0  0
 15  3  1  0  0  0  0
 17 23  1  0  0  0  0
 17 18  1  0  0  0  0
 19 21  1  0  0  0  0
 19 22  2  0  0  0  0
 20 18  2  0  0  0  0
 21 17  2  0  0  0  0
 22 20  1  0  0  0  0
 24 25  1  0  0  0  0
 24  4  1  0  0  0  0
 26 27  1  0  0  0  0
 26 25  1  0  0  0  0
 27 29  1  0  0  0  0
 29 30  1  0  0  0  0
 30 28  1  1  0  0  0
 31 34  2  0  0  0  0
 32 31  1  0  0  0  0
 33 32  2  0  0  0  0
 33 29  1  0  0  0  0
 34 30  1  0  0  0  0
M  END
>  <MODEL>
3

>  <REMARK>
 VINA RESULT:     -10.7      0.948      1.645
  Name = 
  6 active torsions:
  status: ('A' for Active; 'I' for Inactive)
    1  A    between atoms: C_3  and  N_13
    2  A    between atoms: C_3  and  C_17
    3  A    between atoms: N_5  and  C_18
    4  A    between atoms: C_12  and  C_28
    5  A    between atoms: C_17  and  C_29
    6  A    between atoms: C_18  and  C_29
                            x       y       z     vdW  Elec       q    Type
                         _______ _______ _______ _____ _____    ______ ____

>  <TORSDO>
F 6

$$$$
=
 OpenBabel11062408003D

 34 38  0  0  1  0  0  0  0  0999 V2000
  161.2100  205.1270  152.1050 C   0  0  0  0  0  0  0  0  0  0  0  0
  161.3180  205.0930  149.6850 C   0  0  0  0  0  3  0  0  0  0  0  0
  161.5960  207.2190  150.9070 C   0  0  0  0  0  0  0  0  0  0  0  0
  161.7930  209.4650  149.7760 N   0  0  0  0  0  0  0  0  0  0  0  0
  160.9370  203.0390  150.9100 C   0  0  0  0  0  3  0  0  0  0  0  0
  161.0390  202.9620  148.4160 C   0  0  0  0  0  1  0  0  0  0  0  0
  162.0870  207.4860  148.5790 O   0  0  0  0  0  0  0  0  0  0  0  0
  161.3810  205.8210  150.8840 C   0  0  0  0  0  0  0  0  0  0  0  0
  160.9920  203.7460  152.1120 C   0  0  0  0  0  3  0  0  0  0  0  0
  161.6050  207.8830  152.1560 C   0  0  0  0  0  0  0  0  0  0  0  0
  161.2610  205.8250  153.3070 C   0  0  0  0  0  3  0  0  0  0  0  0
  161.0990  203.7120  149.6960 C   0  0  0  0  0  0  0  0  0  0  0  0
  161.3250  210.0990  151.0050 C   0  0  0  0  0  2  0  0  0  0  0  0
  161.8850  209.3710  152.2260 C   0  0  1  0  0  3  0  0  0  0  0  0
  161.8230  208.0340  149.6820 C   0  0  0  0  0  0  0  0  0  0  0  0
  161.4610  207.1670  153.3060 N   0  0  0  0  0  0  0  0  0  0  0  0
  159.5560  210.8200  154.8720 C   0  0  0  0  0  0  0  0  0  0  0  0
  160.4730  211.1800  155.8650 C   0  0  0  0  0  3  0  0  0  0  0  0
  161.3780  210.0060  153.4880 C   0  0  0  0  0  0  0  0  0  0  0  0
  161.8380  210.9540  155.6710 C   0  0  0  0  0  3  0  0  0  0  0  0
  160.0060  210.2340  153.6850 C   0  0  0  0  0  3  0  0  0  0  0  0
  162.2900  210.3680  154.4860 C   0  0  0  0  0  3  0  0  0  0  0  0
  158.2340  211.0390  155.0600 F   0  0  0  0  0  0  0  0  0  0  0  0
  162.2540  210.2960  148.6690 C   0  0  0  0  0  2  0  0  0  0  0  0
  162.0950  211.7750  149.0010 C   0  0  0  0  0  2  0  0  0  0  0  0
  161.6990  212.5840  147.7750 C   0  0  0  0  0  2  0  0  0  0  0  0
  161.0450  213.8930  148.1880 C   0  0  0  0  0  2  0  0  0  0  0  0
  159.3430  213.3340  150.6670 N   0  0  0  0  0  1  0  0  0  0  0  0
  159.6050  213.7290  148.3250 N   0  0  0  0  0  0  0  0  0  0  0  0
  158.9520  214.1890  149.5580 C   0  0  1  0  0  3  0  0  0  0  0  0
  156.8250  213.5070  148.4690 C   0  0  0  0  0  3  0  0  0  0  0  0
  157.5840  212.7900  147.4340 C   0  0  0  0  0  3  0  0  0  0  0  0
  158.9090  212.9110  147.3740 C   0  0  0  0  0  3  0  0  0  0  0  0
  157.4500  214.1840  149.4350 C   0  0  0  0  0  3  0  0  0  0  0  0
  1  9  1  0  0  0  0
  1 11  1  0  0  0  0
  2 12  2  0  0  0  0
  2  8  1  0  0  0  0
  3 10  2  0  0  0  0
  4 13  1  0  0  0  0
  5  9  2  0  0  0  0
  6 12  1  0  0  0  0
  7 15  2  0  0  0  0
  8  3  1  0  0  0  0
  8  1  2  0  0  0  0
 10 14  1  0  0  0  0
 10 16  1  0  0  0  0
 12  5  1  0  0  0  0
 13 14  1  0  0  0  0
 14 19  1  1  0  0  0
 15  4  1  0  0  0  0
 15  3  1  0  0  0  0
 16 11  2  0  0  0  0
 17 23  1  0  0  0  0
 17 18  1  0  0  0  0
 19 21  1  0  0  0  0
 19 22  2  0  0  0  0
 20 18  2  0  0  0  0
 21 17  2  0  0  0  0
 22 20  1  0  0  0  0
 24 25  1  0  0  0  0
 24  4  1  0  0  0  0
 26 27  1  0  0  0  0
 26 25  1  0  0  0  0
 27 29  1  0  0  0  0
 29 30  1  0  0  0  0
 30 28  1  1  0  0  0
 31 34  2  0  0  0  0
 32 31  1  0  0  0  0
 33 32  2  0  0  0  0
 33 29  1  0  0  0  0
 34 30  1  0  0  0  0
M  END
>  <MODEL>
4

>  <REMARK>
 VINA RESULT:     -10.3      1.465      2.426
  Name = 
  6 active torsions:
  status: ('A' for Active; 'I' for Inactive)
    1  A    between atoms: C_3  and  N_13
    2  A    between atoms: C_3  and  C_17
    3  A    between atoms: N_5  and  C_18
    4  A    between atoms: C_12  and  C_28
    5  A    between atoms: C_17  and  C_29
    6  A    between atoms: C_18  and  C_29
                            x       y       z     vdW  Elec       q    Type
                         _______ _______ _______ _____ _____    ______ ____

>  <TORSDO>
F 6

$$$$
=
 OpenBabel11062408003D

 34 38  0  0  1  0  0  0  0  0999 V2000
  161.1570  205.2430  152.0110 C   0  0  0  0  0  0  0  0  0  0  0  0
  161.4150  205.2640  149.6020 C   0  0  0  0  0  3  0  0  0  0  0  0
  161.6460  207.3570  150.8900 C   0  0  0  0  0  0  0  0  0  0  0  0
  161.9420  209.6260  149.8300 N   0  0  0  0  0  0  0  0  0  0  0  0
  160.9320  203.1890  150.7500 C   0  0  0  0  0  3  0  0  0  0  0  0
  161.1870  203.1680  148.2660 C   0  0  0  0  0  1  0  0  0  0  0  0
  162.2830  207.6720  148.6040 O   0  0  0  0  0  0  0  0  0  0  0  0
  161.4130  205.9630  150.8210 C   0  0  0  0  0  0  0  0  0  0  0  0
  160.9220  203.8650  151.9710 C   0  0  0  0  0  3  0  0  0  0  0  0
  161.5850  207.9910  152.1530 C   0  0  0  0  0  0  0  0  0  0  0  0
  161.1440  205.9120  153.2310 C   0  0  0  0  0  3  0  0  0  0  0  0
  161.1780  203.8870  149.5660 C   0  0  0  0  0  0  0  0  0  0  0  0
  161.4070  210.2370  151.0420 C   0  0  0  0  0  2  0  0  0  0  0  0
  161.8810  209.4720  152.2770 C   0  0  1  0  0  3  0  0  0  0  0  0
  161.9590  208.1970  149.7020 C   0  0  0  0  0  0  0  0  0  0  0  0
  161.3610  207.2500  153.2750 N   0  0  0  0  0  0  0  0  0  0  0  0
  159.4150  210.9180  154.7980 C   0  0  0  0  0  0  0  0  0  0  0  0
  160.2690  211.2150  155.8650 C   0  0  0  0  0  3  0  0  0  0  0  0
  161.3040  210.0850  153.5200 C   0  0  0  0  0  0  0  0  0  0  0  0
  161.6370  210.9470  155.7620 C   0  0  0  0  0  3  0  0  0  0  0  0
  159.9300  210.3550  153.6270 C   0  0  0  0  0  3  0  0  0  0  0  0
  162.1530  210.3830  154.5920 C   0  0  0  0  0  3  0  0  0  0  0  0
  158.0900  211.1770  154.8990 F   0  0  0  0  0  0  0  0  0  0  0  0
  162.4820  210.4750  148.7740 C   0  0  0  0  0  2  0  0  0  0  0  0
  161.6660  211.7560  148.6400 C   0  0  0  0  0  2  0  0  0  0  0  0
  162.4300  212.8300  147.8810 C   0  0  0  0  0  2  0  0  0  0  0  0
  161.4660  213.7970  147.2110 C   0  0  0  0  0  2  0  0  0  0  0  0
  159.5730  212.2060  145.4110 N   0  0  0  0  0  1  0  0  0  0  0  0
  161.4710  213.6130  145.7680 N   0  0  0  0  0  0  0  0  0  0  0  0
  160.1880  213.4770  145.0640 C   0  0  1  0  0  3  0  0  0  0  0  0
  161.5450  213.3980  142.9840 C   0  0  0  0  0  3  0  0  0  0  0  0
  162.7640  213.2150  143.7850 C   0  0  0  0  0  3  0  0  0  0  0  0
  162.7140  213.3270  145.1120 C   0  0  0  0  0  3  0  0  0  0  0  0
  160.3550  213.5540  143.5690 C   0  0  0  0  0  3  0  0  0  0  0  0
  1 11  1  0  0  0  0
  2  8  1  0  0  0  0
  3 10  2  0  0  0  0
  4 13  1  0  0  0  0
  5  9  2  0  0  0  0
  6 12  1  0  0  0  0
  7 15  2  0  0  0  0
  8  3  1  0  0  0  0
  8  1  2  0  0  0  0
  9  1  1  0  0  0  0
 10 14  1  0  0  0  0
 10 16  1  0  0  0  0
 11 16  2  0  0  0  0
 12  2  2  0  0  0  0
 12  5  1  0  0  0  0
 13 14  1  0  0  0  0
 14 19  1  1  0  0  0
 15  4  1  0  0  0  0
 15  3  1  0  0  0  0
 17 23  1  0  0  0  0
 17 18  1  0  0  0  0
 19 21  1  0  0  0  0
 19 22  2  0  0  0  0
 20 18  2  0  0  0  0
 21 17  2  0  0  0  0
 22 20  1  0  0  0  0
 24  4  1  0  0  0  0
 25 24  1  0  0  0  0
 26 25  1  0  0  0  0
 27 26  1  0  0  0  0
 29 27  1  0  0  0  0
 30 28  1  6  0  0  0
 30 29  1  0  0  0  0
 31 34  2  0  0  0  0
 31 32  1  0  0  0  0
 32 33  2  0  0  0  0
 33 29  1  0  0  0  0
 34 30  1  0  0  0  0
M  END
>  <MODEL>
5

>  <REMARK>
 VINA RESULT:     -10.1      1.686      2.594
  Name = 
  6 active torsions:
  status: ('A' for Active; 'I' for Inactive)
    1  A    between atoms: C_3  and  N_13
    2  A    between atoms: C_3  and  C_17
    3  A    between atoms: N_5  and  C_18
    4  A    between atoms: C_12  and  C_28
    5  A    between atoms: C_17  and  C_29
    6  A    between atoms: C_18  and  C_29
                            x       y       z     vdW  Elec       q    Type
                         _______ _______ _______ _____ _____    ______ ____

>  <TORSDO>
F 6

$$$$
=
 OpenBabel11062408003D

 34 38  0  0  1  0  0  0  0  0999 V2000
  161.0890  207.1920  153.3300 C   0  0  0  0  0  0  0  0  0  0  0  0
  161.4900  209.5660  153.5980 C   0  0  0  0  0  3  0  0  0  0  0  0
  161.3410  208.5830  151.3390 C   0  0  0  0  0  0  0  0  0  0  0  0
  161.7880  209.8750  149.2190 N   0  0  0  0  0  0  0  0  0  0  0  0
  161.2330  208.1540  155.5470 C   0  0  0  0  0  3  0  0  0  0  0  0
  161.6490  210.5950  155.8660 C   0  0  0  0  0  1  0  0  0  0  0  0
  161.4090  210.9740  151.2410 O   0  0  0  0  0  0  0  0  0  0  0  0
  161.3050  208.4630  152.7480 C   0  0  0  0  0  0  0  0  0  0  0  0
  161.0520  207.0440  154.7200 C   0  0  0  0  0  3  0  0  0  0  0  0
  161.1870  207.4150  150.5560 C   0  0  0  0  0  0  0  0  0  0  0  0
  160.9090  206.0820  152.5110 C   0  0  0  0  0  3  0  0  0  0  0  0
  161.4540  209.4140  154.9870 C   0  0  0  0  0  0  0  0  0  0  0  0
  162.0910  208.6180  148.5440 C   0  0  0  0  0  2  0  0  0  0  0  0
  161.1660  207.5090  149.0430 C   0  0  1  0  0  3  0  0  0  0  0  0
  161.5260  209.8790  150.6300 C   0  0  0  0  0  0  0  0  0  0  0  0
  160.9550  206.2170  151.1620 N   0  0  0  0  0  0  0  0  0  0  0  0
  162.6800  204.9420  146.6670 C   0  0  0  0  0  0  0  0  0  0  0  0
  162.1070  203.7620  147.1500 C   0  0  0  0  0  3  0  0  0  0  0  0
  161.5000  206.2100  148.3690 C   0  0  0  0  0  0  0  0  0  0  0  0
  161.2330  203.8040  148.2400 C   0  0  0  0  0  3  0  0  0  0  0  0
  162.3780  206.1650  147.2740 C   0  0  0  0  0  3  0  0  0  0  0  0
  160.9310  205.0250  148.8480 C   0  0  0  0  0  3  0  0  0  0  0  0
  163.5260  204.9020  145.6110 F   0  0  0  0  0  0  0  0  0  0  0  0
  161.7260  211.1100  148.4460 C   0  0  0  0  0  2  0  0  0  0  0  0
  163.0990  211.7660  148.3640 C   0  0  0  0  0  2  0  0  0  0  0  0
  163.0220  213.1520  147.7410 C   0  0  0  0  0  2  0  0  0  0  0  0
  161.6240  213.4180  147.2040 C   0  0  0  0  0  2  0  0  0  0  0  0
  159.6880  212.1030  145.2350 N   0  0  0  0  0  1  0  0  0  0  0  0
  161.6200  213.4110  145.7490 N   0  0  0  0  0  0  0  0  0  0  0  0
  160.3330  213.3910  145.0410 C   0  0  1  0  0  3  0  0  0  0  0  0
  161.6820  213.5330  142.9590 C   0  0  0  0  0  3  0  0  0  0  0  0
  162.8980  213.2240  143.7260 C   0  0  0  0  0  3  0  0  0  0  0  0
  162.8540  213.1760  145.0560 C   0  0  0  0  0  3  0  0  0  0  0  0
  160.4980  213.6450  143.5650 C   0  0  0  0  0  3  0  0  0  0  0  0
  1  9  2  0  0  0  0
  2 12  1  0  0  0  0
  3  8  1  0  0  0  0
  4 15  1  0  0  0  0
  8  1  1  0  0  0  0
  8  2  2  0  0  0  0
  9  5  1  0  0  0  0
 10 16  1  0  0  0  0
 10  3  2  0  0  0  0
 11  1  1  0  0  0  0
 12  5  2  0  0  0  0
 12  6  1  0  0  0  0
 13 14  1  0  0  0  0
 13  4  1  0  0  0  0
 14 19  1  6  0  0  0
 14 10  1  0  0  0  0
 15  7  2  0  0  0  0
 15  3  1  0  0  0  0
 16 11  2  0  0  0  0
 17 18  2  0  0  0  0
 17 21  1  0  0  0  0
 18 20  1  0  0  0  0
 19 22  1  0  0  0  0
 20 22  2  0  0  0  0
 21 19  2  0  0  0  0
 23 17  1  0  0  0  0
 24  4  1  0  0  0  0
 25 24  1  0  0  0  0
 26 25  1  0  0  0  0
 27 26  1  0  0  0  0
 29 27  1  0  0  0  0
 30 28  1  6  0  0  0
 30 29  1  0  0  0  0
 31 34  2  0  0  0  0
 31 32  1  0  0  0  0
 32 33  2  0  0  0  0
 33 29  1  0  0  0  0
 34 30  1  0  0  0  0
M  END
>  <MODEL>
6

>  <REMARK>
 VINA RESULT:      -9.5      2.774      5.917
  Name = 
  6 active torsions:
  status: ('A' for Active; 'I' for Inactive)
    1  A    between atoms: C_3  and  N_13
    2  A    between atoms: C_3  and  C_17
    3  A    between atoms: N_5  and  C_18
    4  A    between atoms: C_12  and  C_28
    5  A    between atoms: C_17  and  C_29
    6  A    between atoms: C_18  and  C_29
                            x       y       z     vdW  Elec       q    Type
                         _______ _______ _______ _____ _____    ______ ____

>  <TORSDO>
F 6

$$$$
=
 OpenBabel11062408003D

 34 38  0  0  1  0  0  0  0  0999 V2000
  161.6090  209.0930  151.2020 C   0  0  0  0  0  0  0  0  0  0  0  0
  160.9460  207.9890  153.2540 C   0  0  0  0  0  3  0  0  0  0  0  0
  161.3670  206.6630  151.2150 C   0  0  0  0  0  0  0  0  0  0  0  0
  160.9520  204.1810  151.0510 N   0  0  0  0  0  0  0  0  0  0  0  0
  161.1970  210.3960  153.2000 C   0  0  0  0  0  3  0  0  0  0  0  0
  160.5090  209.2970  155.3340 C   0  0  0  0  0  1  0  0  0  0  0  0
  161.0610  205.2480  153.1220 O   0  0  0  0  0  0  0  0  0  0  0  0
  161.3080  207.9000  151.9000 C   0  0  0  0  0  0  0  0  0  0  0  0
  161.5550  210.3290  151.8530 C   0  0  0  0  0  3  0  0  0  0  0  0
  161.7010  206.6660  149.8410 C   0  0  0  0  0  0  0  0  0  0  0  0
  161.9650  209.0340  149.8580 C   0  0  0  0  0  3  0  0  0  0  0  0
  160.8910  209.2270  153.9010 C   0  0  0  0  0  0  0  0  0  0  0  0
  160.8330  204.3200  149.6030 C   0  0  0  0  0  2  0  0  0  0  0  0
  161.8280  205.3580  149.0850 C   0  0  1  0  0  3  0  0  0  0  0  0
  161.1050  205.3510  151.8680 C   0  0  0  0  0  0  0  0  0  0  0  0
  162.0080  207.8390  149.2180 N   0  0  0  0  0  0  0  0  0  0  0  0
  160.3230  205.9460  145.6330 C   0  0  0  0  0  0  0  0  0  0  0  0
  161.4590  205.8320  144.8250 C   0  0  0  0  0  3  0  0  0  0  0  0
  161.6820  205.5210  147.6000 C   0  0  0  0  0  0  0  0  0  0  0  0
  162.7030  205.5640  145.4010 C   0  0  0  0  0  3  0  0  0  0  0  0
  160.4330  205.7900  147.0180 C   0  0  0  0  0  3  0  0  0  0  0  0
  162.8150  205.4090  146.7860 C   0  0  0  0  0  3  0  0  0  0  0  0
  159.1180  206.2060  145.0740 F   0  0  0  0  0  0  0  0  0  0  0  0
  160.9460  202.8500  151.6490 C   0  0  0  0  0  2  0  0  0  0  0  0
  161.6800  201.8550  150.7590 C   0  0  0  0  0  2  0  0  0  0  0  0
  160.7670  201.2850  149.6840 C   0  0  0  0  0  2  0  0  0  0  0  0
  161.5770  200.5300  148.6420 C   0  0  0  0  0  2  0  0  0  0  0  0
  161.9550  199.0110  146.0150 N   0  0  0  0  0  1  0  0  0  0  0  0
  161.1050  200.8360  147.3000 N   0  0  0  0  0  0  0  0  0  0  0  0
  160.7520  199.7300  146.4000 C   0  0  1  0  0  3  0  0  0  0  0  0
  160.0790  201.4960  144.7870 C   0  0  0  0  0  3  0  0  0  0  0  0
  160.7520  202.5080  145.6150 C   0  0  0  0  0  3  0  0  0  0  0  0
  161.2300  202.1800  146.8140 C   0  0  0  0  0  3  0  0  0  0  0  0
  160.0460  200.2150  145.1610 C   0  0  0  0  0  3  0  0  0  0  0  0
  1  9  2  0  0  0  0
  1  8  1  0  0  0  0
  2 12  1  0  0  0  0
  3 15  1  0  0  0  0
  3  8  1  0  0  0  0
  4 24  1  0  0  0  0
  4 15  1  0  0  0  0
  5 12  2  0  0  0  0
  8  2  2  0  0  0  0
  9  5  1  0  0  0  0
 10  3  2  0  0  0  0
 11  1  1  0  0  0  0
 12  6  1  0  0  0  0
 13  4  1  0  0  0  0
 14 19  1  6  0  0  0
 14 13  1  0  0  0  0
 14 10  1  0  0  0  0
 15  7  2  0  0  0  0
 16 10  1  0  0  0  0
 16 11  2  0  0  0  0
 17 21  1  0  0  0  0
 18 20  1  0  0  0  0
 18 17  2  0  0  0  0
 20 22  2  0  0  0  0
 21 19  2  0  0  0  0
 22 19  1  0  0  0  0
 23 17  1  0  0  0  0
 25 24  1  0  0  0  0
 26 25  1  0  0  0  0
 27 26  1  0  0  0  0
 29 27  1  0  0  0  0
 30 28  1  6  0  0  0
 30 29  1  0  0  0  0
 31 34  2  0  0  0  0
 31 32  1  0  0  0  0
 32 33  2  0  0  0  0
 33 29  1  0  0  0  0
 34 30  1  0  0  0  0
M  END
>  <MODEL>
7

>  <REMARK>
 VINA RESULT:      -9.4      3.702      8.858
  Name = 
  6 active torsions:
  status: ('A' for Active; 'I' for Inactive)
    1  A    between atoms: C_3  and  N_13
    2  A    between atoms: C_3  and  C_17
    3  A    between atoms: N_5  and  C_18
    4  A    between atoms: C_12  and  C_28
    5  A    between atoms: C_17  and  C_29
    6  A    between atoms: C_18  and  C_29
                            x       y       z     vdW  Elec       q    Type
                         _______ _______ _______ _____ _____    ______ ____

>  <TORSDO>
F 6

$$$$
=
 OpenBabel11062408003D

 34 38  0  0  1  0  0  0  0  0999 V2000
  160.9530  206.8110  153.1280 C   0  0  0  0  0  0  0  0  0  0  0  0
  161.4710  209.1200  153.6440 C   0  0  0  0  0  3  0  0  0  0  0  0
  161.4080  208.3610  151.2960 C   0  0  0  0  0  0  0  0  0  0  0  0
  162.0610  209.8130  149.3390 N   0  0  0  0  0  0  0  0  0  0  0  0
  161.0130  207.5530  155.4310 C   0  0  0  0  0  3  0  0  0  0  0  0
  161.5460  209.9240  156.0060 C   0  0  0  0  0  1  0  0  0  0  0  0
  161.6180  210.7420  151.4320 O   0  0  0  0  0  0  0  0  0  0  0  0
  161.2770  208.1140  152.6840 C   0  0  0  0  0  0  0  0  0  0  0  0
  160.8200  206.5380  154.4920 C   0  0  0  0  0  3  0  0  0  0  0  0
  161.2370  207.2820  150.3980 C   0  0  0  0  0  0  0  0  0  0  0  0
  160.7620  205.7940  152.1970 C   0  0  0  0  0  3  0  0  0  0  0  0
  161.3390  208.8440  155.0080 C   0  0  0  0  0  0  0  0  0  0  0  0
  162.3330  208.6060  148.5650 C   0  0  0  0  0  2  0  0  0  0  0  0
  161.3160  207.5160  148.9020 C   0  0  1  0  0  3  0  0  0  0  0  0
  161.7110  209.7030  150.7270 C   0  0  0  0  0  0  0  0  0  0  0  0
  160.9000  206.0500  150.8720 N   0  0  0  0  0  0  0  0  0  0  0  0
  161.4750  203.8600  147.8380 C   0  0  0  0  0  0  0  0  0  0  0  0
  162.1890  203.9620  146.6400 C   0  0  0  0  0  3  0  0  0  0  0  0
  161.6170  206.2670  148.1270 C   0  0  0  0  0  0  0  0  0  0  0  0
  162.6160  205.2130  146.1850 C   0  0  0  0  0  3  0  0  0  0  0  0
  161.1890  205.0090  148.5810 C   0  0  0  0  0  3  0  0  0  0  0  0
  162.3300  206.3630  146.9270 C   0  0  0  0  0  3  0  0  0  0  0  0
  161.0610  202.6480  148.2780 F   0  0  0  0  0  0  0  0  0  0  0  0
  162.1170  211.1150  148.6860 C   0  0  0  0  0  2  0  0  0  0  0  0
  160.9070  211.3190  147.7820 C   0  0  0  0  0  2  0  0  0  0  0  0
  160.5280  212.7880  147.6770 C   0  0  0  0  0  2  0  0  0  0  0  0
  160.3920  213.4040  149.0600 C   0  0  0  0  0  2  0  0  0  0  0  0
  158.8300  212.6130  151.5680 N   0  0  0  0  0  1  0  0  0  0  0  0
  158.9910  213.6040  149.4000 N   0  0  0  0  0  0  0  0  0  0  0  0
  158.6250  213.8330  150.8040 C   0  0  1  0  0  3  0  0  0  0  0  0
  156.3030  214.1110  149.9650 C   0  0  0  0  0  3  0  0  0  0  0  0
  156.7060  213.5590  148.6640 C   0  0  0  0  0  3  0  0  0  0  0  0
  157.9930  213.3280  148.4070 C   0  0  0  0  0  3  0  0  0  0  0  0
  157.1910  214.2720  150.9490 C   0  0  0  0  0  3  0  0  0  0  0  0
  1  9  2  0  0  0  0
  2 12  1  0  0  0  0
  3  8  1  0  0  0  0
  4 15  1  0  0  0  0
  8  1  1  0  0  0  0
  8  2  2  0  0  0  0
  9  5  1  0  0  0  0
 10 16  1  0  0  0  0
 10  3  2  0  0  0  0
 11  1  1  0  0  0  0
 12  5  2  0  0  0  0
 12  6  1  0  0  0  0
 13 14  1  0  0  0  0
 13  4  1  0  0  0  0
 14 19  1  6  0  0  0
 14 10  1  0  0  0  0
 15  3  1  0  0  0  0
 15  7  2  0  0  0  0
 16 11  2  0  0  0  0
 17 23  1  0  0  0  0
 17 21  1  0  0  0  0
 18 17  2  0  0  0  0
 19 21  2  0  0  0  0
 20 18  1  0  0  0  0
 20 22  2  0  0  0  0
 22 19  1  0  0  0  0
 24  4  1  0  0  0  0
 25 24  1  0  0  0  0
 26 25  1  0  0  0  0
 26 27  1  0  0  0  0
 27 29  1  0  0  0  0
 29 30  1  0  0  0  0
 30 34  1  0  0  0  0
 30 28  1  1  0  0  0
 31 34  2  0  0  0  0
 32 31  1  0  0  0  0
 33 32  2  0  0  0  0
 33 29  1  0  0  0  0
M  END
>  <MODEL>
8

>  <REMARK>
 VINA RESULT:      -9.2      2.709      5.937
  Name = 
  6 active torsions:
  status: ('A' for Active; 'I' for Inactive)
    1  A    between atoms: C_3  and  N_13
    2  A    between atoms: C_3  and  C_17
    3  A    between atoms: N_5  and  C_18
    4  A    between atoms: C_12  and  C_28
    5  A    between atoms: C_17  and  C_29
    6  A    between atoms: C_18  and  C_29
                            x       y       z     vdW  Elec       q    Type
                         _______ _______ _______ _____ _____    ______ ____

>  <TORSDO>
F 6

$$$$
=
 OpenBabel11062408003D

 34 38  0  0  1  0  0  0  0  0999 V2000
  160.9380  205.9610  152.2710 C   0  0  0  0  0  0  0  0  0  0  0  0
  161.4400  208.0570  153.3770 C   0  0  0  0  0  3  0  0  0  0  0  0
  161.3380  207.9520  150.9130 C   0  0  0  0  0  0  0  0  0  0  0  0
  161.9330  209.8830  149.4050 N   0  0  0  0  0  0  0  0  0  0  0  0
  161.0360  206.0620  154.6870 C   0  0  0  0  0  3  0  0  0  0  0  0
  161.5540  208.2020  155.8660 C   0  0  0  0  0  1  0  0  0  0  0  0
  161.5230  210.2130  151.6770 O   0  0  0  0  0  0  0  0  0  0  0  0
  161.2380  207.3410  152.1860 C   0  0  0  0  0  0  0  0  0  0  0  0
  160.8360  205.3320  153.5140 C   0  0  0  0  0  3  0  0  0  0  0  0
  161.1600  207.1490  149.7620 C   0  0  0  0  0  0  0  0  0  0  0  0
  160.7390  205.2270  151.1050 C   0  0  0  0  0  3  0  0  0  0  0  0
  161.3390  207.4240  154.6190 C   0  0  0  0  0  0  0  0  0  0  0  0
  162.2030  208.9320  148.3310 C   0  0  0  0  0  2  0  0  0  0  0  0
  161.2060  207.7750  148.3820 C   0  0  1  0  0  3  0  0  0  0  0  0
  161.6130  209.4010  150.7180 C   0  0  0  0  0  0  0  0  0  0  0  0
  160.8470  205.8290  149.8950 N   0  0  0  0  0  0  0  0  0  0  0  0
  162.9590  205.1310  146.2700 C   0  0  0  0  0  0  0  0  0  0  0  0
  162.0150  204.9320  145.2570 C   0  0  0  0  0  3  0  0  0  0  0  0
  161.5050  206.7830  147.2960 C   0  0  0  0  0  0  0  0  0  0  0  0
  160.8200  205.6550  145.2620 C   0  0  0  0  0  3  0  0  0  0  0  0
  162.7060  206.0550  147.2870 C   0  0  0  0  0  3  0  0  0  0  0  0
  160.5650  206.5780  146.2800 C   0  0  0  0  0  3  0  0  0  0  0  0
  164.1170  204.4300  146.2640 F   0  0  0  0  0  0  0  0  0  0  0  0
  161.9620  211.3140  149.1220 C   0  0  0  0  0  2  0  0  0  0  0  0
  162.6930  211.5920  147.8140 C   0  0  0  0  0  2  0  0  0  0  0  0
  162.4040  212.9930  147.2970 C   0  0  0  0  0  2  0  0  0  0  0  0
  161.4580  212.9380  146.1080 C   0  0  0  0  0  2  0  0  0  0  0  0
  158.9140  213.4280  144.4820 N   0  0  0  0  0  1  0  0  0  0  0  0
  160.0760  213.0830  146.5410 N   0  0  0  0  0  0  0  0  0  0  0  0
  159.0020  212.5910  145.6670 C   0  0  1  0  0  3  0  0  0  0  0  0
  157.4560  213.2700  147.4900 C   0  0  0  0  0  3  0  0  0  0  0  0
  158.5450  214.0160  148.1360 C   0  0  0  0  0  3  0  0  0  0  0  0
  159.7910  213.9110  147.6760 C   0  0  0  0  0  3  0  0  0  0  0  0
  157.6680  212.5810  146.3660 C   0  0  0  0  0  3  0  0  0  0  0  0
  1  9  2  0  0  0  0
  2 12  1  0  0  0  0
  3  8  1  0  0  0  0
  4 15  1  0  0  0  0
  8  1  1  0  0  0  0
  8  2  2  0  0  0  0
  9  5  1  0  0  0  0
 10 16  1  0  0  0  0
 10  3  2  0  0  0  0
 11  1  1  0  0  0  0
 12  5  2  0  0  0  0
 12  6  1  0  0  0  0
 13 14  1  0  0  0  0
 13  4  1  0  0  0  0
 14 19  1  6  0  0  0
 14 10  1  0  0  0  0
 15  3  1  0  0  0  0
 15  7  2  0  0  0  0
 16 11  2  0  0  0  0
 17 21  1  0  0  0  0
 18 20  1  0  0  0  0
 18 17  2  0  0  0  0
 20 22  2  0  0  0  0
 21 19  2  0  0  0  0
 22 19  1  0  0  0  0
 23 17  1  0  0  0  0
 24  4  1  0  0  0  0
 25 24  1  0  0  0  0
 26 25  1  0  0  0  0
 27 29  1  0  0  0  0
 27 26  1  0  0  0  0
 29 33  1  0  0  0  0
 30 28  1  6  0  0  0
 30 34  1  0  0  0  0
 30 29  1  0  0  0  0
 31 32  1  0  0  0  0
 33 32  2  0  0  0  0
 34 31  2  0  0  0  0
M  END
>  <MODEL>
9

>  <REMARK>
 VINA RESULT:      -9.1      2.824      5.595
  Name = 
  6 active torsions:
  status: ('A' for Active; 'I' for Inactive)
    1  A    between atoms: C_3  and  N_13
    2  A    between atoms: C_3  and  C_17
    3  A    between atoms: N_5  and  C_18
    4  A    between atoms: C_12  and  C_28
    5  A    between atoms: C_17  and  C_29
    6  A    between atoms: C_18  and  C_29
                            x       y       z     vdW  Elec       q    Type
                         _______ _______ _______ _____ _____    ______ ____

>  <TORSDO>
F 6

$$$$
