=
 OpenBabel11052422153D

 25 28  0  0  0  0  0  0  0  0999 V2000
  161.4000  205.2400  149.1960 C   0  0  0  0  0  0  0  0  0  0  0  0
  161.4190  206.2220  150.2090 C   0  0  0  0  0  0  0  0  0  0  0  0
  161.9430  206.9110  147.5020 C   0  0  0  0  0  3  0  0  0  0  0  0
  161.1430  203.8600  149.3170 C   0  0  0  0  0  0  0  0  0  0  0  0
  160.6890  201.1040  149.1620 C   0  0  0  0  0  3  0  0  0  0  0  0
  161.9640  207.8900  148.4990 C   0  0  0  0  0  3  0  0  0  0  0  0
  161.2090  203.1880  148.0970 C   0  0  0  0  0  0  0  0  0  0  0  0
  160.9880  201.8170  147.9920 C   0  0  0  0  0  3  0  0  0  0  0  0
  161.7260  208.5900  150.8850 C   0  0  0  0  0  0  0  0  0  0  0  0
  161.9780  209.7900  150.5950 O   0  0  0  0  0  0  0  0  0  0  0  0
  161.1420  205.8650  151.6490 C   0  0  0  0  0  2  0  0  0  0  0  0
  160.6180  201.7660  150.4010 C   0  0  0  0  0  3  0  0  0  0  0  0
  161.6620  205.6010  147.8730 C   0  0  0  0  0  0  0  0  0  0  0  0
  161.5820  204.2600  146.8540 S   0  0  0  0  0  0  0  0  0  0  0  0
  161.4570  208.2340  152.2410 N   0  0  0  0  0  0  0  0  0  0  0  0
  160.8440  203.1480  150.4850 C   0  0  0  0  0  3  0  0  0  0  0  0
  161.1910  207.0170  152.6210 C   0  0  0  0  0  0  0  0  0  0  0  0
  161.7040  207.5560  149.8420 C   0  0  0  0  0  0  0  0  0  0  0  0
  160.9230  206.7240  154.0330 C   0  0  0  0  0  3  0  0  0  0  0  0
  160.4780  207.6460  154.8800 C   0  0  0  0  0  3  0  0  0  0  0  0
  160.1710  207.2190  156.5870 S   0  0  0  0  0  0  0  0  0  0  0  0
  160.3120  208.9510  157.1230 C   0  0  0  0  0  2  0  0  0  0  0  0
  161.4600  209.6360  156.4060 C   0  0  0  0  0  3  0  0  0  0  0  0
  161.0930  211.0800  156.1400 C   0  0  0  0  0  1  0  0  0  0  0  0
  162.7120  209.5910  157.2610 C   0  0  0  0  0  1  0  0  0  0  0  0
  1  4  1  0  0  0  0
  1  2  2  0  0  0  0
  2 11  1  0  0  0  0
  3 13  2  0  0  0  0
  3  6  1  0  0  0  0
  4 16  1  0  0  0  0
  5 12  1  0  0  0  0
  6 18  2  0  0  0  0
  7  4  2  0  0  0  0
  8  7  1  0  0  0  0
  8  5  2  0  0  0  0
  9 15  1  0  0  0  0
 10  9  2  0  0  0  0
 11 17  1  0  0  0  0
 12 16  2  0  0  0  0
 13  1  1  0  0  0  0
 14 13  1  0  0  0  0
 14  7  1  0  0  0  0
 15 17  2  0  0  0  0
 17 19  1  0  0  0  0
 18  2  1  0  0  0  0
 18  9  1  0  0  0  0
 19 20  2  0  0  0  0
 20 21  1  0  0  0  0
 21 22  1  0  0  0  0
 23 22  1  0  0  0  0
 23 25  1  0  0  0  0
 24 23  1  0  0  0  0
M  END
>  <MODEL>
1

>  <REMARK>
 VINA RESULT:      -9.9      0.000      0.000
  Name = 
  4 active torsions:
  status: ('A' for Active; 'I' for Inactive)
    1  A    between atoms: C_2  and  C_25
    2  A    between atoms: C_6  and  C_23
    3  A    between atoms: C_15  and  S_21
    4  A    between atoms: S_21  and  C_25
                            x       y       z     vdW  Elec       q    Type
                         _______ _______ _______ _____ _____    ______ ____

>  <TORSDO>
F 4

$$$$
=
 OpenBabel11052422153D

 25 28  0  0  0  0  0  0  0  0999 V2000
  161.1360  204.2650  149.7340 C   0  0  0  0  0  0  0  0  0  0  0  0
  161.3140  205.5900  150.1860 C   0  0  0  0  0  0  0  0  0  0  0  0
  160.8180  203.4780  152.0220 C   0  0  0  0  0  3  0  0  0  0  0  0
  161.1650  203.7780  148.4120 C   0  0  0  0  0  0  0  0  0  0  0  0
  161.1510  202.4520  145.9490 C   0  0  0  0  0  3  0  0  0  0  0  0
  160.9950  204.7870  152.4790 C   0  0  0  0  0  3  0  0  0  0  0  0
  160.9460  202.4030  148.3370 C   0  0  0  0  0  0  0  0  0  0  0  0
  160.9340  201.7190  147.1240 C   0  0  0  0  0  3  0  0  0  0  0  0
  161.4270  207.2110  152.0610 C   0  0  0  0  0  0  0  0  0  0  0  0
  161.3670  207.4720  153.2920 O   0  0  0  0  0  0  0  0  0  0  0  0
  161.5770  206.7170  149.2170 C   0  0  0  0  0  2  0  0  0  0  0  0
  161.3740  203.8400  146.0060 C   0  0  0  0  0  3  0  0  0  0  0  0
  160.8920  203.2440  150.6540 C   0  0  0  0  0  0  0  0  0  0  0  0
  160.7140  201.7590  149.8750 S   0  0  0  0  0  0  0  0  0  0  0  0
  161.6790  208.2650  151.1300 N   0  0  0  0  0  0  0  0  0  0  0  0
  161.3820  204.5100  147.2390 C   0  0  0  0  0  3  0  0  0  0  0  0
  161.7540  208.0780  149.8430 C   0  0  0  0  0  0  0  0  0  0  0  0
  161.2410  205.8380  151.5740 C   0  0  0  0  0  0  0  0  0  0  0  0
  162.0170  209.2070  148.9450 C   0  0  0  0  0  3  0  0  0  0  0  0
  162.0400  210.4660  149.3710 C   0  0  0  0  0  3  0  0  0  0  0  0
  162.3690  211.7940  148.2230 S   0  0  0  0  0  0  0  0  0  0  0  0
  161.1070  212.8620  148.9790 C   0  0  0  0  0  2  0  0  0  0  0  0
  160.1670  213.4030  147.9190 C   0  0  0  0  0  3  0  0  0  0  0  0
  160.0650  212.4070  146.7850 C   0  0  0  0  0  1  0  0  0  0  0  0
  158.7880  213.6280  148.5080 C   0  0  0  0  0  1  0  0  0  0  0  0
  1  2  2  0  0  0  0
  1 13  1  0  0  0  0
  2 18  1  0  0  0  0
  3  6  1  0  0  0  0
  4  1  1  0  0  0  0
  5 12  2  0  0  0  0
  5  8  1  0  0  0  0
  7  4  1  0  0  0  0
  7 14  1  0  0  0  0
  8  7  2  0  0  0  0
  9 10  2  0  0  0  0
 11 17  1  0  0  0  0
 11  2  1  0  0  0  0
 12 16  1  0  0  0  0
 13  3  2  0  0  0  0
 14 13  1  0  0  0  0
 15  9  1  0  0  0  0
 16  4  2  0  0  0  0
 17 15  2  0  0  0  0
 18  9  1  0  0  0  0
 18  6  2  0  0  0  0
 19 20  2  0  0  0  0
 19 17  1  0  0  0  0
 21 22  1  0  0  0  0
 21 20  1  0  0  0  0
 23 25  1  0  0  0  0
 23 22  1  0  0  0  0
 24 23  1  0  0  0  0
M  END
>  <MODEL>
2

>  <REMARK>
 VINA RESULT:      -9.7      3.200      5.372
  Name = 
  4 active torsions:
  status: ('A' for Active; 'I' for Inactive)
    1  A    between atoms: C_2  and  C_25
    2  A    between atoms: C_6  and  C_23
    3  A    between atoms: C_15  and  S_21
    4  A    between atoms: S_21  and  C_25
                            x       y       z     vdW  Elec       q    Type
                         _______ _______ _______ _____ _____    ______ ____

>  <TORSDO>
F 4

$$$$
=
 OpenBabel11052422153D

 25 28  0  0  0  0  0  0  0  0999 V2000
  161.3130  205.0650  149.2820 C   0  0  0  0  0  0  0  0  0  0  0  0
  161.3880  206.1970  150.1210 C   0  0  0  0  0  0  0  0  0  0  0  0
  160.8190  203.6260  151.1910 C   0  0  0  0  0  3  0  0  0  0  0  0
  161.4860  204.9950  147.8850 C   0  0  0  0  0  0  0  0  0  0  0  0
  161.7620  204.4640  145.1530 C   0  0  0  0  0  3  0  0  0  0  0  0
  160.8930  204.7420  152.0290 C   0  0  0  0  0  3  0  0  0  0  0  0
  161.3380  203.7020  147.3860 C   0  0  0  0  0  0  0  0  0  0  0  0
  161.4700  203.4100  146.0310 C   0  0  0  0  0  3  0  0  0  0  0  0
  161.2520  207.1870  152.3920 C   0  0  0  0  0  0  0  0  0  0  0  0
  161.0660  207.0670  153.6330 O   0  0  0  0  0  0  0  0  0  0  0  0
  161.6890  207.5660  149.5610 C   0  0  0  0  0  2  0  0  0  0  0  0
  161.9160  205.7750  145.6400 C   0  0  0  0  0  3  0  0  0  0  0  0
  161.0300  203.8120  149.8300 C   0  0  0  0  0  0  0  0  0  0  0  0
  160.9920  202.6250  148.6330 S   0  0  0  0  0  0  0  0  0  0  0  0
  161.5430  208.4730  151.8450 N   0  0  0  0  0  0  0  0  0  0  0  0
  161.7790  206.0470  147.0100 C   0  0  0  0  0  3  0  0  0  0  0  0
  161.7450  208.6800  150.5750 C   0  0  0  0  0  0  0  0  0  0  0  0
  161.1750  206.0190  151.5060 C   0  0  0  0  0  0  0  0  0  0  0  0
  162.0410  210.0300  150.0830 C   0  0  0  0  0  3  0  0  0  0  0  0
  162.0900  210.3200  148.7870 C   0  0  0  0  0  3  0  0  0  0  0  0
  162.4530  211.9860  148.2560 S   0  0  0  0  0  0  0  0  0  0  0  0
  160.8210  212.1730  147.4750 C   0  0  0  0  0  2  0  0  0  0  0  0
  160.9160  213.0750  146.2590 C   0  0  0  0  0  3  0  0  0  0  0  0
  162.3680  213.2310  145.8640 C   0  0  0  0  0  1  0  0  0  0  0  0
  160.1470  212.4710  145.0990 C   0  0  0  0  0  1  0  0  0  0  0  0
  1 13  1  0  0  0  0
  1  2  2  0  0  0  0
  2 18  1  0  0  0  0
  3  6  1  0  0  0  0
  4  1  1  0  0  0  0
  5 12  2  0  0  0  0
  5  8  1  0  0  0  0
  7  4  1  0  0  0  0
  7 14  1  0  0  0  0
  8  7  2  0  0  0  0
  9 10  2  0  0  0  0
 11  2  1  0  0  0  0
 11 17  1  0  0  0  0
 12 16  1  0  0  0  0
 13  3  2  0  0  0  0
 14 13  1  0  0  0  0
 15  9  1  0  0  0  0
 16  4  2  0  0  0  0
 17 15  2  0  0  0  0
 18  6  2  0  0  0  0
 18  9  1  0  0  0  0
 19 17  1  0  0  0  0
 20 19  2  0  0  0  0
 21 20  1  0  0  0  0
 22 21  1  0  0  0  0
 23 22  1  0  0  0  0
 24 23  1  0  0  0  0
 25 23  1  0  0  0  0
M  END
>  <MODEL>
3

>  <REMARK>
 VINA RESULT:      -9.4      3.158      5.905
  Name = 
  4 active torsions:
  status: ('A' for Active; 'I' for Inactive)
    1  A    between atoms: C_2  and  C_25
    2  A    between atoms: C_6  and  C_23
    3  A    between atoms: C_15  and  S_21
    4  A    between atoms: S_21  and  C_25
                            x       y       z     vdW  Elec       q    Type
                         _______ _______ _______ _____ _____    ______ ____

>  <TORSDO>
F 4

$$$$
=
 OpenBabel11052422153D

 25 28  0  0  0  0  0  0  0  0999 V2000
  161.1740  204.1630  149.1900 C   0  0  0  0  0  0  0  0  0  0  0  0
  161.1740  205.0720  150.2700 C   0  0  0  0  0  0  0  0  0  0  0  0
  161.0130  202.2700  150.7230 C   0  0  0  0  0  3  0  0  0  0  0  0
  161.2470  204.4400  147.8110 C   0  0  0  0  0  0  0  0  0  0  0  0
  161.3750  204.5940  145.0210 C   0  0  0  0  0  3  0  0  0  0  0  0
  161.0120  203.1630  151.7990 C   0  0  0  0  0  3  0  0  0  0  0  0
  161.2220  203.2880  147.0260 C   0  0  0  0  0  0  0  0  0  0  0  0
  161.2840  203.3370  145.6360 C   0  0  0  0  0  3  0  0  0  0  0  0
  161.0920  205.4850  152.7160 C   0  0  0  0  0  0  0  0  0  0  0  0
  161.0180  205.0580  153.8990 O   0  0  0  0  0  0  0  0  0  0  0  0
  161.2580  206.5600  150.0380 C   0  0  0  0  0  2  0  0  0  0  0  0
  161.4010  205.7660  145.7980 C   0  0  0  0  0  3  0  0  0  0  0  0
  161.0930  202.7910  149.4370 C   0  0  0  0  0  0  0  0  0  0  0  0
  161.1110  201.9170  147.9950 S   0  0  0  0  0  0  0  0  0  0  0  0
  161.1770  206.8900  152.4780 N   0  0  0  0  0  0  0  0  0  0  0  0
  161.3380  205.6950  147.1980 C   0  0  0  0  0  3  0  0  0  0  0  0
  161.2530  207.4090  151.2850 C   0  0  0  0  0  0  0  0  0  0  0  0
  161.0910  204.5520  151.5810 C   0  0  0  0  0  0  0  0  0  0  0  0
  161.3390  208.8630  151.1150 C   0  0  0  0  0  3  0  0  0  0  0  0
  162.0370  209.4250  150.1330 C   0  0  0  0  0  3  0  0  0  0  0  0
  162.0970  211.2040  149.9820 S   0  0  0  0  0  0  0  0  0  0  0  0
  162.0160  211.1280  148.1670 C   0  0  0  0  0  2  0  0  0  0  0  0
  161.5870  212.4670  147.6000 C   0  0  0  0  0  3  0  0  0  0  0  0
  160.2300  212.3210  146.9450 C   0  0  0  0  0  1  0  0  0  0  0  0
  161.4950  213.4990  148.7080 C   0  0  0  0  0  1  0  0  0  0  0  0
  1 13  1  0  0  0  0
  1  2  2  0  0  0  0
  2 18  1  0  0  0  0
  3  6  1  0  0  0  0
  4  1  1  0  0  0  0
  5  8  2  0  0  0  0
  5 12  1  0  0  0  0
  7  4  2  0  0  0  0
  7 14  1  0  0  0  0
  8  7  1  0  0  0  0
  9 10  2  0  0  0  0
 11  2  1  0  0  0  0
 11 17  1  0  0  0  0
 12 16  2  0  0  0  0
 13  3  2  0  0  0  0
 14 13  1  0  0  0  0
 15  9  1  0  0  0  0
 16  4  1  0  0  0  0
 17 15  2  0  0  0  0
 18  6  2  0  0  0  0
 18  9  1  0  0  0  0
 19 17  1  0  0  0  0
 20 19  2  0  0  0  0
 21 20  1  0  0  0  0
 22 21  1  0  0  0  0
 23 22  1  0  0  0  0
 23 25  1  0  0  0  0
 24 23  1  0  0  0  0
M  END
>  <MODEL>
4

>  <REMARK>
 VINA RESULT:      -8.9      3.301      5.314
  Name = 
  4 active torsions:
  status: ('A' for Active; 'I' for Inactive)
    1  A    between atoms: C_2  and  C_25
    2  A    between atoms: C_6  and  C_23
    3  A    between atoms: C_15  and  S_21
    4  A    between atoms: S_21  and  C_25
                            x       y       z     vdW  Elec       q    Type
                         _______ _______ _______ _____ _____    ______ ____

>  <TORSDO>
F 4

$$$$
=
 OpenBabel11052422153D

 25 28  0  0  0  0  0  0  0  0999 V2000
  161.1420  204.1150  149.1210 C   0  0  0  0  0  0  0  0  0  0  0  0
  161.1330  204.9590  150.2510 C   0  0  0  0  0  0  0  0  0  0  0  0
  161.0380  202.1330  150.5420 C   0  0  0  0  0  3  0  0  0  0  0  0
  161.1930  204.4730  147.7590 C   0  0  0  0  0  0  0  0  0  0  0  0
  161.2860  204.7910  144.9810 C   0  0  0  0  0  3  0  0  0  0  0  0
  161.0300  202.9620  151.6680 C   0  0  0  0  0  3  0  0  0  0  0  0
  161.1840  203.3690  146.9080 C   0  0  0  0  0  0  0  0  0  0  0  0
  161.2290  203.4990  145.5230 C   0  0  0  0  0  3  0  0  0  0  0  0
  161.0700  205.2280  152.7170 C   0  0  0  0  0  0  0  0  0  0  0  0
  161.0190  204.7320  153.8750 O   0  0  0  0  0  0  0  0  0  0  0  0
  161.1830  206.4610  150.1060 C   0  0  0  0  0  2  0  0  0  0  0  0
  161.2960  205.9170  145.8250 C   0  0  0  0  0  3  0  0  0  0  0  0
  161.0930  202.7290  149.2880 C   0  0  0  0  0  0  0  0  0  0  0  0
  161.1130  201.9410  147.7970 S   0  0  0  0  0  0  0  0  0  0  0  0
  161.1220  206.6460  152.5610 N   0  0  0  0  0  0  0  0  0  0  0  0
  161.2500  205.7630  147.2190 C   0  0  0  0  0  3  0  0  0  0  0  0
  161.1740  207.2350  151.4000 C   0  0  0  0  0  0  0  0  0  0  0  0
  161.0770  204.3630  151.5310 C   0  0  0  0  0  0  0  0  0  0  0  0
  161.2270  208.6980  151.3130 C   0  0  0  0  0  3  0  0  0  0  0  0
  160.7110  209.4860  152.2510 C   0  0  0  0  0  3  0  0  0  0  0  0
  160.8120  211.2620  152.0830 S   0  0  0  0  0  0  0  0  0  0  0  0
  159.9610  211.5350  153.6670 C   0  0  0  0  0  2  0  0  0  0  0  0
  160.3820  210.4880  154.6820 C   0  0  0  0  0  3  0  0  0  0  0  0
  161.5740  210.9990  155.4600 C   0  0  0  0  0  1  0  0  0  0  0  0
  159.2430  210.2070  155.6440 C   0  0  0  0  0  1  0  0  0  0  0  0
  1 13  1  0  0  0  0
  1  2  2  0  0  0  0
  2 18  1  0  0  0  0
  3  6  1  0  0  0  0
  4  1  1  0  0  0  0
  5  8  2  0  0  0  0
  5 12  1  0  0  0  0
  7  4  2  0  0  0  0
  7 14  1  0  0  0  0
  8  7  1  0  0  0  0
  9 10  2  0  0  0  0
 11  2  1  0  0  0  0
 11 17  1  0  0  0  0
 12 16  2  0  0  0  0
 13  3  2  0  0  0  0
 14 13  1  0  0  0  0
 15  9  1  0  0  0  0
 16  4  1  0  0  0  0
 17 15  2  0  0  0  0
 18  6  2  0  0  0  0
 18  9  1  0  0  0  0
 19 17  1  0  0  0  0
 19 20  2  0  0  0  0
 21 20  1  0  0  0  0
 21 22  1  0  0  0  0
 22 23  1  0  0  0  0
 23 24  1  0  0  0  0
 23 25  1  0  0  0  0
M  END
>  <MODEL>
5

>  <REMARK>
 VINA RESULT:      -8.9      2.341      3.795
  Name = 
  4 active torsions:
  status: ('A' for Active; 'I' for Inactive)
    1  A    between atoms: C_2  and  C_25
    2  A    between atoms: C_6  and  C_23
    3  A    between atoms: C_15  and  S_21
    4  A    between atoms: S_21  and  C_25
                            x       y       z     vdW  Elec       q    Type
                         _______ _______ _______ _____ _____    ______ ____

>  <TORSDO>
F 4

$$$$
=
 OpenBabel11052422153D

 25 28  0  0  0  0  0  0  0  0999 V2000
  161.4420  205.5070  149.3300 C   0  0  0  0  0  0  0  0  0  0  0  0
  161.5780  206.8300  149.8020 C   0  0  0  0  0  0  0  0  0  0  0  0
  161.7750  206.2450  147.0270 C   0  0  0  0  0  3  0  0  0  0  0  0
  161.2060  204.3320  150.0700 C   0  0  0  0  0  0  0  0  0  0  0  0
  160.7460  201.8090  151.1870 C   0  0  0  0  0  3  0  0  0  0  0  0
  161.9100  207.5590  147.4860 C   0  0  0  0  0  3  0  0  0  0  0  0
  161.1290  203.1940  149.2680 C   0  0  0  0  0  0  0  0  0  0  0  0
  160.9010  201.9270  149.7990 C   0  0  0  0  0  3  0  0  0  0  0  0
  161.9560  209.2380  149.3340 C   0  0  0  0  0  0  0  0  0  0  0  0
  162.1680  210.1790  148.5230 O   0  0  0  0  0  0  0  0  0  0  0  0
  161.4760  207.1490  151.2730 C   0  0  0  0  0  2  0  0  0  0  0  0
  160.8200  202.9470  152.0110 C   0  0  0  0  0  3  0  0  0  0  0  0
  161.5440  205.2430  147.9620 C   0  0  0  0  0  0  0  0  0  0  0  0
  161.3480  203.5990  147.6490 S   0  0  0  0  0  0  0  0  0  0  0  0
  161.8510  209.5220  150.7300 N   0  0  0  0  0  0  0  0  0  0  0  0
  161.0510  204.2150  151.4560 C   0  0  0  0  0  3  0  0  0  0  0  0
  161.6360  208.6060  151.6310 C   0  0  0  0  0  0  0  0  0  0  0  0
  161.8140  207.8560  148.8590 C   0  0  0  0  0  0  0  0  0  0  0  0
  161.5390  208.9690  153.0480 C   0  0  0  0  0  3  0  0  0  0  0  0
  161.6950  210.2180  153.4760 C   0  0  0  0  0  3  0  0  0  0  0  0
  161.5620  210.5920  155.2170 S   0  0  0  0  0  0  0  0  0  0  0  0
  160.0800  209.5550  155.4040 C   0  0  0  0  0  2  0  0  0  0  0  0
  160.2610  208.5730  156.5450 C   0  0  0  0  0  3  0  0  0  0  0  0
  159.7060  207.2250  156.1380 C   0  0  0  0  0  1  0  0  0  0  0  0
  161.7340  208.4230  156.8770 C   0  0  0  0  0  1  0  0  0  0  0  0
  1  2  1  0  0  0  0
  1  4  1  0  0  0  0
  2 11  1  0  0  0  0
  3  6  2  0  0  0  0
  3 13  1  0  0  0  0
  4 16  1  0  0  0  0
  5 12  1  0  0  0  0
  6 18  1  0  0  0  0
  7  8  1  0  0  0  0
  7  4  2  0  0  0  0
  8  5  2  0  0  0  0
  9 15  1  0  0  0  0
 10  9  2  0  0  0  0
 11 17  1  0  0  0  0
 13  1  2  0  0  0  0
 14 13  1  0  0  0  0
 14  7  1  0  0  0  0
 15 17  2  0  0  0  0
 16 12  2  0  0  0  0
 17 19  1  0  0  0  0
 18  9  1  0  0  0  0
 18  2  2  0  0  0  0
 19 20  2  0  0  0  0
 20 21  1  0  0  0  0
 21 22  1  0  0  0  0
 22 23  1  0  0  0  0
 23 25  1  0  0  0  0
 24 23  1  0  0  0  0
M  END
>  <MODEL>
6

>  <REMARK>
 VINA RESULT:      -8.8      1.531      1.949
  Name = 
  4 active torsions:
  status: ('A' for Active; 'I' for Inactive)
    1  A    between atoms: C_2  and  C_25
    2  A    between atoms: C_6  and  C_23
    3  A    between atoms: C_15  and  S_21
    4  A    between atoms: S_21  and  C_25
                            x       y       z     vdW  Elec       q    Type
                         _______ _______ _______ _____ _____    ______ ____

>  <TORSDO>
F 4

$$$$
=
 OpenBabel11052422153D

 25 28  0  0  0  0  0  0  0  0999 V2000
  161.3090  205.8620  150.8610 C   0  0  0  0  0  0  0  0  0  0  0  0
  161.4090  207.1840  151.3440 C   0  0  0  0  0  0  0  0  0  0  0  0
  161.0200  205.0050  153.1280 C   0  0  0  0  0  3  0  0  0  0  0  0
  161.3760  205.4080  149.5280 C   0  0  0  0  0  0  0  0  0  0  0  0
  161.4560  204.1410  147.0360 C   0  0  0  0  0  3  0  0  0  0  0  0
  161.1180  206.3120  153.6160 C   0  0  0  0  0  3  0  0  0  0  0  0
  161.2360  204.0250  149.4210 C   0  0  0  0  0  0  0  0  0  0  0  0
  161.2710  203.3700  148.1930 C   0  0  0  0  0  3  0  0  0  0  0  0
  161.4160  208.7650  153.2570 C   0  0  0  0  0  0  0  0  0  0  0  0
  161.3320  208.9930  154.4930 O   0  0  0  0  0  0  0  0  0  0  0  0
  161.6150  208.3460  150.4040 C   0  0  0  0  0  2  0  0  0  0  0  0
  161.5980  205.5370  147.1270 C   0  0  0  0  0  3  0  0  0  0  0  0
  161.1170  204.8070  151.7560 C   0  0  0  0  0  0  0  0  0  0  0  0
  161.0280  203.3340  150.9410 S   0  0  0  0  0  0  0  0  0  0  0  0
  161.6150  209.8530  152.3520 N   0  0  0  0  0  0  0  0  0  0  0  0
  161.5600  206.1780  148.3750 C   0  0  0  0  0  3  0  0  0  0  0  0
  161.7100  209.7000  151.0620 C   0  0  0  0  0  0  0  0  0  0  0  0
  161.3120  207.3960  152.7370 C   0  0  0  0  0  0  0  0  0  0  0  0
  161.9160  210.8630  150.1920 C   0  0  0  0  0  3  0  0  0  0  0  0
  162.1410  210.7460  148.8880 C   0  0  0  0  0  3  0  0  0  0  0  0
  162.3810  212.2040  147.8860 S   0  0  0  0  0  0  0  0  0  0  0  0
  161.2020  213.1710  148.8770 C   0  0  0  0  0  2  0  0  0  0  0  0
  160.0490  213.6460  148.0130 C   0  0  0  0  0  3  0  0  0  0  0  0
  159.8720  212.6960  146.8490 C   0  0  0  0  0  1  0  0  0  0  0  0
  158.7680  213.6820  148.8240 C   0  0  0  0  0  1  0  0  0  0  0  0
  1  2  2  0  0  0  0
  1 13  1  0  0  0  0
  2 18  1  0  0  0  0
  3  6  1  0  0  0  0
  4  1  1  0  0  0  0
  5 12  2  0  0  0  0
  5  8  1  0  0  0  0
  7  4  1  0  0  0  0
  7 14  1  0  0  0  0
  8  7  2  0  0  0  0
  9 10  2  0  0  0  0
 11 17  1  0  0  0  0
 11  2  1  0  0  0  0
 12 16  1  0  0  0  0
 13  3  2  0  0  0  0
 14 13  1  0  0  0  0
 15  9  1  0  0  0  0
 16  4  2  0  0  0  0
 17 15  2  0  0  0  0
 18  9  1  0  0  0  0
 18  6  2  0  0  0  0
 19 17  1  0  0  0  0
 20 19  2  0  0  0  0
 21 22  1  0  0  0  0
 21 20  1  0  0  0  0
 23 25  1  0  0  0  0
 23 22  1  0  0  0  0
 24 23  1  0  0  0  0
M  END
>  <MODEL>
7

>  <REMARK>
 VINA RESULT:      -8.7      3.238      5.562
  Name = 
  4 active torsions:
  status: ('A' for Active; 'I' for Inactive)
    1  A    between atoms: C_2  and  C_25
    2  A    between atoms: C_6  and  C_23
    3  A    between atoms: C_15  and  S_21
    4  A    between atoms: S_21  and  C_25
                            x       y       z     vdW  Elec       q    Type
                         _______ _______ _______ _____ _____    ______ ____

>  <TORSDO>
F 4

$$$$
=
 OpenBabel11052422153D

 25 28  0  0  0  0  0  0  0  0999 V2000
  161.4580  207.4480  151.4890 C   0  0  0  0  0  0  0  0  0  0  0  0
  161.3200  206.0920  151.1200 C   0  0  0  0  0  0  0  0  0  0  0  0
  161.2160  206.8770  153.8500 C   0  0  0  0  0  3  0  0  0  0  0  0
  161.6560  208.5680  150.6570 C   0  0  0  0  0  0  0  0  0  0  0  0
  162.0490  211.0050  149.3430 C   0  0  0  0  0  3  0  0  0  0  0  0
  161.0780  205.5330  153.4930 C   0  0  0  0  0  3  0  0  0  0  0  0
  161.7500  209.7610  151.3700 C   0  0  0  0  0  0  0  0  0  0  0  0
  161.9460  210.9880  150.7410 C   0  0  0  0  0  3  0  0  0  0  0  0
  160.9810  203.7230  151.7750 C   0  0  0  0  0  0  0  0  0  0  0  0
  160.8100  202.8420  152.6590 O   0  0  0  0  0  0  0  0  0  0  0  0
  161.3750  205.6670  149.6730 C   0  0  0  0  0  2  0  0  0  0  0  0
  161.9570  209.8100  148.6070 C   0  0  0  0  0  3  0  0  0  0  0  0
  161.4050  207.8100  152.8370 C   0  0  0  0  0  0  0  0  0  0  0  0
  161.5950  209.4750  153.0220 S   0  0  0  0  0  0  0  0  0  0  0  0
  161.0310  203.3400  150.4000 N   0  0  0  0  0  0  0  0  0  0  0  0
  161.7590  208.5840  149.2620 C   0  0  0  0  0  3  0  0  0  0  0  0
  161.2070  204.1890  149.4280 C   0  0  0  0  0  0  0  0  0  0  0  0
  161.1280  205.1370  152.1430 C   0  0  0  0  0  0  0  0  0  0  0  0
  161.2470  203.7240  148.0370 C   0  0  0  0  0  3  0  0  0  0  0  0
  160.8000  202.5270  147.6730 C   0  0  0  0  0  3  0  0  0  0  0  0
  160.8770  202.0250  145.9610 S   0  0  0  0  0  0  0  0  0  0  0  0
  161.6840  203.5770  145.4640 C   0  0  0  0  0  2  0  0  0  0  0  0
  160.7960  204.3540  144.5110 C   0  0  0  0  0  3  0  0  0  0  0  0
  159.5160  203.5810  144.2770 C   0  0  0  0  0  1  0  0  0  0  0  0
  160.4560  205.7100  145.1010 C   0  0  0  0  0  1  0  0  0  0  0  0
  1 13  1  0  0  0  0
  2  1  2  0  0  0  0
  2 18  1  0  0  0  0
  4  7  1  0  0  0  0
  4  1  1  0  0  0  0
  5  8  1  0  0  0  0
  6  3  1  0  0  0  0
  7 14  1  0  0  0  0
  8  7  2  0  0  0  0
  9 18  1  0  0  0  0
  9 10  2  0  0  0  0
 11  2  1  0  0  0  0
 12 16  1  0  0  0  0
 12  5  2  0  0  0  0
 13 14  1  0  0  0  0
 13  3  2  0  0  0  0
 15  9  1  0  0  0  0
 16  4  2  0  0  0  0
 17 11  1  0  0  0  0
 17 15  2  0  0  0  0
 18  6  2  0  0  0  0
 19 17  1  0  0  0  0
 20 19  2  0  0  0  0
 21 20  1  0  0  0  0
 22 21  1  0  0  0  0
 23 25  1  0  0  0  0
 23 22  1  0  0  0  0
 24 23  1  0  0  0  0
M  END
>  <MODEL>
8

>  <REMARK>
 VINA RESULT:      -8.4      2.898      8.144
  Name = 
  4 active torsions:
  status: ('A' for Active; 'I' for Inactive)
    1  A    between atoms: C_2  and  C_25
    2  A    between atoms: C_6  and  C_23
    3  A    between atoms: C_15  and  S_21
    4  A    between atoms: S_21  and  C_25
                            x       y       z     vdW  Elec       q    Type
                         _______ _______ _______ _____ _____    ______ ____

>  <TORSDO>
F 4

$$$$
=
 OpenBabel11052422153D

 25 28  0  0  0  0  0  0  0  0999 V2000
  161.2340  208.5080  152.7490 C   0  0  0  0  0  0  0  0  0  0  0  0
  161.3140  207.6390  151.6400 C   0  0  0  0  0  0  0  0  0  0  0  0
  161.9010  210.4070  151.3690 C   0  0  0  0  0  3  0  0  0  0  0  0
  160.8790  208.2020  154.0780 C   0  0  0  0  0  0  0  0  0  0  0  0
  160.2350  207.9850  156.7920 C   0  0  0  0  0  3  0  0  0  0  0  0
  161.9840  209.5540  150.2650 C   0  0  0  0  0  3  0  0  0  0  0  0
  160.9060  209.3170  154.9150 C   0  0  0  0  0  0  0  0  0  0  0  0
  160.5890  209.2370  156.2680 C   0  0  0  0  0  3  0  0  0  0  0  0
  161.7860  207.2900  149.2290 C   0  0  0  0  0  0  0  0  0  0  0  0
  162.1210  207.7370  148.0990 O   0  0  0  0  0  0  0  0  0  0  0  0
  161.0030  206.1680  151.7750 C   0  0  0  0  0  2  0  0  0  0  0  0
  160.2040  206.8490  155.9620 C   0  0  0  0  0  3  0  0  0  0  0  0
  161.5250  209.8640  152.5920 C   0  0  0  0  0  0  0  0  0  0  0  0
  161.3580  210.6900  154.0520 S   0  0  0  0  0  0  0  0  0  0  0  0
  161.4930  205.9000  149.3760 N   0  0  0  0  0  0  0  0  0  0  0  0
  160.5270  206.9530  154.6000 C   0  0  0  0  0  3  0  0  0  0  0  0
  161.1380  205.3620  150.5080 C   0  0  0  0  0  0  0  0  0  0  0  0
  161.6950  208.1810  150.3920 C   0  0  0  0  0  0  0  0  0  0  0  0
  160.8520  203.9250  150.5870 C   0  0  0  0  0  3  0  0  0  0  0  0
  160.6920  203.1700  149.5050 C   0  0  0  0  0  3  0  0  0  0  0  0
  160.3480  201.4250  149.6730 S   0  0  0  0  0  0  0  0  0  0  0  0
  161.5200  200.9900  148.3520 C   0  0  0  0  0  2  0  0  0  0  0  0
  160.7770  200.6730  147.0690 C   0  0  0  0  0  3  0  0  0  0  0  0
  160.7840  201.8920  146.1730 C   0  0  0  0  0  1  0  0  0  0  0  0
  161.4500  199.5220  146.3460 C   0  0  0  0  0  1  0  0  0  0  0  0
  1  4  1  0  0  0  0
  2 11  1  0  0  0  0
  2  1  1  0  0  0  0
  3 13  1  0  0  0  0
  4 16  2  0  0  0  0
  4  7  1  0  0  0  0
  6 18  1  0  0  0  0
  6  3  2  0  0  0  0
  7  8  2  0  0  0  0
  8  5  1  0  0  0  0
  9 15  1  0  0  0  0
  9 18  1  0  0  0  0
 10  9  2  0  0  0  0
 12  5  2  0  0  0  0
 13  1  2  0  0  0  0
 13 14  1  0  0  0  0
 14  7  1  0  0  0  0
 15 17  2  0  0  0  0
 16 12  1  0  0  0  0
 17 19  1  0  0  0  0
 17 11  1  0  0  0  0
 18  2  2  0  0  0  0
 20 21  1  0  0  0  0
 20 19  2  0  0  0  0
 22 21  1  0  0  0  0
 23 22  1  0  0  0  0
 24 23  1  0  0  0  0
 25 23  1  0  0  0  0
M  END
>  <MODEL>
9

>  <REMARK>
 VINA RESULT:      -8.3      2.008      7.849
  Name = 
  4 active torsions:
  status: ('A' for Active; 'I' for Inactive)
    1  A    between atoms: C_2  and  C_25
    2  A    between atoms: C_6  and  C_23
    3  A    between atoms: C_15  and  S_21
    4  A    between atoms: S_21  and  C_25
                            x       y       z     vdW  Elec       q    Type
                         _______ _______ _______ _____ _____    ______ ____

>  <TORSDO>
F 4

$$$$
