=
 OpenBabel11062408583D

 55 60  0  0  1  0  0  0  0  0999 V2000
  161.7670  204.8970  151.7650 C   0  0  0  0  0  2  0  0  0  0  0  0
  161.0820  207.5370  152.4270 C   0  0  2  0  0  3  0  0  0  0  0  0
  160.3190  206.8930  151.2570 C   0  0  0  0  0  2  0  0  0  0  0  0
  162.1510  205.5230  153.1180 C   0  0  0  0  0  2  0  0  0  0  0  0
  160.3920  205.3630  151.2950 C   0  0  1  0  0  3  0  0  0  0  0  0
  161.2340  206.5930  153.5290 N   0  0  0  0  0  2  0  0  0  0  0  0
  160.9370  209.5800  153.7850 C   0  0  0  0  0  3  0  0  0  0  0  0
  160.3730  208.7540  152.9100 C   0  0  0  0  0  3  0  0  0  0  0  0
  159.8500  212.9490  156.6380 O   0  0  0  0  0  1  0  0  0  0  0  0
  160.2660  211.9970  153.5290 C   0  0  1  0  0  3  0  0  0  0  0  0
  159.0850  212.2900  155.6640 C   0  0  1  0  0  0  0  0  0  0  0  0
  159.3350  212.9250  154.2870 C   0  0  1  0  0  3  0  0  0  0  0  0
  160.2610  210.7490  154.2710 N   0  0  0  0  0  0  0  0  0  0  0  0
  159.8930  214.2030  154.3800 O   0  0  0  0  0  1  0  0  0  0  0  0
  159.7130  211.7900  152.1300 C   0  0  0  0  0  1  0  0  0  0  0  0
  159.5390  210.8240  155.5340 C   0  0  1  0  0  3  0  0  0  0  0  0
  155.5790  211.3860  155.9840 C   0  0  0  0  0  0  0  0  0  0  0  0
  157.5950  212.4050  156.0510 C   0  0  1  0  0  3  0  0  0  0  0  0
  156.8890  213.3260  153.7780 C   0  0  0  0  0  1  0  0  0  0  0  0
  156.7060  213.3820  155.2890 C   0  0  1  0  0  3  0  0  0  0  0  0
  154.8610  210.9620  157.2600 C   0  0  0  0  0  1  0  0  0  0  0  0
  155.3410  212.8610  155.6190 C   0  0  2  0  0  3  0  0  0  0  0  0
  155.0610  210.5220  154.8490 C   0  0  0  0  0  1  0  0  0  0  0  0
  154.8200  213.5960  156.6910 O   0  0  0  0  0  1  0  0  0  0  0  0
  156.9630  211.1520  156.1310 O   0  0  0  0  0  0  0  0  0  0  0  0
  160.3780  210.4400  156.5920 O   0  0  0  0  0  0  0  0  0  0  0  0
  159.8940  209.2020  157.0250 C   0  0  0  0  0  2  0  0  0  0  0  0
  161.0300  208.2020  157.1320 C   0  0  0  0  0  2  0  0  0  0  0  0
  160.6030  206.9510  156.7270 F   0  0  0  0  0  0  0  0  0  0  0  0
  160.1200  204.8360  150.0320 O   0  0  0  0  0  0  0  0  0  0  0  0
  161.2930  204.1760  149.6510 C   0  0  0  0  0  2  0  0  0  0  0  0
  160.3560  201.9110  145.2860 C   0  0  0  0  0  2  0  0  0  0  0  0
  163.0290  206.5240  149.2300 C   0  0  0  0  0  2  0  0  0  0  0  0
  159.4140  203.3290  143.7020 C   0  0  0  0  0  2  0  0  0  0  0  0
  160.8190  204.3780  145.4580 N   0  0  0  0  0  0  0  0  0  0  0  0
  159.9680  204.6210  144.2910 C   0  0  0  0  0  2  0  0  0  0  0  0
  159.0860  202.4050  144.7740 N   0  0  0  0  0  2  0  0  0  0  0  0
  161.1620  203.0350  145.9590 C   0  0  1  0  0  3  0  0  0  0  0  0
  161.6310  205.4130  147.4130 C   0  0  0  0  0  0  0  0  0  0  0  0
  161.9320  207.8200  147.5920 O   0  0  0  0  0  0  0  0  0  0  0  0
  161.3000  205.4930  146.1590 N   0  0  0  0  0  0  0  0  0  0  0  0
  162.0630  208.6220  148.7390 C   0  0  1  0  0  3  0  0  0  0  0  0
  161.1150  203.0000  147.4710 C   0  0  0  0  0  0  0  0  0  0  0  0
  163.0820  207.9590  149.6570 C   0  0  0  0  0  2  0  0  0  0  0  0
  161.3870  204.1380  148.1560 C   0  0  0  0  0  0  0  0  0  0  0  0
  162.1980  206.5720  148.0480 N   0  0  0  0  0  0  0  0  0  0  0  0
  160.9380  201.6510  148.1360 C   0  0  2  0  0  3  0  0  0  0  0  0
  160.2170  201.6360  149.4870 C   0  0  0  0  0  2  0  0  0  0  0  0
  161.0240  200.9950  150.6040 C   0  0  0  0  0  1  0  0  0  0  0  0
  161.9350  199.7390  147.1340 O   0  0  0  0  0  0  0  0  0  0  0  0
  162.0480  200.6600  147.9300 C   0  0  0  0  0  3  0  0  0  0  0  0
  162.5220  210.0170  148.3480 C   0  0  0  0  0  2  0  0  0  0  0  0
  161.9020  211.0110  149.2120 N   0  0  0  0  0  2  0  0  0  0  0  0
  161.2130  211.9660  148.3590 C   0  0  0  0  0  2  0  0  0  0  0  0
  161.5330  213.2680  148.7530 O   0  0  0  0  0  1  0  0  0  0  0  0
  1  4  1  0  0  0  0
  2  8  1  1  0  0  0
  2  6  1  0  0  0  0
  3  5  1  0  0  0  0
  3  2  1  0  0  0  0
  4  6  1  0  0  0  0
  5 30  1  6  0  0  0
  5  1  1  0  0  0  0
  7 13  1  0  0  0  0
  8  7  2  0  0  0  0
 10 15  1  6  0  0  0
 10 13  1  0  0  0  0
 10 12  1  0  0  0  0
 11 18  1  0  0  0  0
 11  9  1  1  0  0  0
 12 14  1  1  0  0  0
 12 11  1  0  0  0  0
 13 16  1  0  0  0  0
 16 11  1  0  0  0  0
 16 26  1  1  0  0  0
 17 25  1  0  0  0  0
 17 21  1  0  0  0  0
 18 25  1  6  0  0  0
 20 19  1  6  0  0  0
 20 22  1  0  0  0  0
 20 18  1  0  0  0  0
 22 17  1  0  0  0  0
 22 24  1  1  0  0  0
 23 17  1  0  0  0  0
 26 27  1  0  0  0  0
 27 28  1  0  0  0  0
 29 28  1  0  0  0  0
 31 30  1  0  0  0  0
 33 44  1  0  0  0  0
 34 36  1  0  0  0  0
 34 37  1  0  0  0  0
 35 38  1  0  0  0  0
 35 41  1  0  0  0  0
 36 35  1  0  0  0  0
 37 32  1  0  0  0  0
 38 32  1  6  0  0  0
 38 43  1  0  0  0  0
 39 46  1  0  0  0  0
 39 45  1  0  0  0  0
 40 46  1  0  0  0  0
 40 42  1  0  0  0  0
 41 39  2  0  0  0  0
 42 52  1  6  0  0  0
 42 44  1  0  0  0  0
 43 47  1  0  0  0  0
 43 45  2  0  0  0  0
 45 31  1  0  0  0  0
 46 33  1  0  0  0  0
 47 51  1  1  0  0  0
 47 48  1  0  0  0  0
 48 49  1  0  0  0  0
 50 51  2  0  0  0  0
 52 53  1  0  0  0  0
 54 55  1  0  0  0  0
 54 53  1  0  0  0  0
M  END
>  <MODEL>
1

>  <REMARK>
 VINA RESULT:      -4.1      0.000      0.000
  Name = 
  15 active torsions:
  status: ('A' for Active; 'I' for Inactive)
    1  A    between atoms: O_2  and  C_28
    2  A    between atoms: O_2  and  C_44
    3  A    between atoms: O_3  and  C_38
    4  A    between atoms: O_3  and  C_46
    5  A    between atoms: C_4  and  C_19
    6  A    between atoms: C_6  and  C_20
    7  A    between atoms: C_10  and  N_18
    8  A    between atoms: C_11  and  C_38
    9  A    between atoms: N_18  and  C_32
   10  A    between atoms: C_19  and  C_40
   11  A    between atoms: C_19  and  C_45
   12  A    between atoms: C_27  and  C_54
   13  A    between atoms: C_28  and  C_49
   14  A    between atoms: C_32  and  C_39
   15  A    between atoms: N_35  and  C_51
                            x       y       z     vdW  Elec       q    Type
                         _______ _______ _______ _____ _____    ______ ____

>  <TORSDO>
F 15

$$$$
=
 OpenBabel11062408583D

 55 60  0  0  1  0  0  0  0  0999 V2000
  160.7540  210.4590  154.2320 C   0  0  0  0  0  2  0  0  0  0  0  0
  160.9110  207.9450  152.9950 C   0  0  2  0  0  3  0  0  0  0  0  0
  160.2580  209.0780  152.1860 C   0  0  0  0  0  2  0  0  0  0  0  0
  161.7030  209.3580  154.7420 C   0  0  0  0  0  2  0  0  0  0  0  0
  160.6570  210.4610  152.7100 C   0  0  1  0  0  3  0  0  0  0  0  0
  162.1050  208.4220  153.6860 N   0  0  0  0  0  2  0  0  0  0  0  0
  160.4650  206.4070  151.1300 C   0  0  0  0  0  3  0  0  0  0  0  0
  161.2750  206.8060  152.1050 C   0  0  0  0  0  3  0  0  0  0  0  0
  162.8290  203.9650  148.1090 O   0  0  0  0  0  1  0  0  0  0  0  0
  160.9450  203.9550  150.7910 C   0  0  1  0  0  3  0  0  0  0  0  0
  161.4540  203.9970  148.3880 C   0  0  1  0  0  0  0  0  0  0  0  0
  161.1420  203.0700  149.5740 C   0  0  1  0  0  3  0  0  0  0  0  0
  160.7950  205.3030  150.2740 N   0  0  0  0  0  0  0  0  0  0  0  0
  162.1570  202.1390  149.8100 O   0  0  0  0  0  1  0  0  0  0  0  0
  159.6830  203.5150  151.5130 C   0  0  0  0  0  1  0  0  0  0  0  0
  161.0360  205.4080  148.8410 C   0  0  1  0  0  3  0  0  0  0  0  0
  160.2210  201.7920  145.7740 C   0  0  0  0  0  0  0  0  0  0  0  0
  160.6880  203.5400  147.1280 C   0  0  1  0  0  3  0  0  0  0  0  0
  162.6910  203.8420  145.5770 C   0  0  0  0  0  1  0  0  0  0  0  0
  161.1860  203.9840  145.7570 C   0  0  1  0  0  3  0  0  0  0  0  0
  158.8010  201.2550  145.6310 C   0  0  0  0  0  1  0  0  0  0  0  0
  160.5080  202.9950  144.8600 C   0  0  2  0  0  3  0  0  0  0  0  0
  161.1800  200.6740  145.4100 C   0  0  0  0  0  1  0  0  0  0  0  0
  159.3350  203.5680  144.3540 O   0  0  0  0  0  1  0  0  0  0  0  0
  160.4450  202.1560  147.1190 O   0  0  0  0  0  0  0  0  0  0  0  0
  162.0390  206.3570  148.5890 O   0  0  0  0  0  0  0  0  0  0  0  0
  161.4020  207.4070  147.9200 C   0  0  0  0  0  2  0  0  0  0  0  0
  161.9430  208.7410  148.4010 C   0  0  0  0  0  2  0  0  0  0  0  0
  162.4880  208.6050  149.6640 F   0  0  0  0  0  0  0  0  0  0  0  0
  159.7290  211.4190  152.2970 O   0  0  0  0  0  0  0  0  0  0  0  0
  160.4890  212.4310  151.7020 C   0  0  0  0  0  2  0  0  0  0  0  0
  159.1760  214.2040  147.2080 C   0  0  0  0  0  2  0  0  0  0  0  0
  158.9560  213.7930  153.8230 C   0  0  0  0  0  2  0  0  0  0  0  0
  156.8960  214.0310  146.7850 C   0  0  0  0  0  2  0  0  0  0  0  0
  157.5930  214.1680  149.1630 N   0  0  0  0  0  0  0  0  0  0  0  0
  156.4610  214.0170  148.2460 C   0  0  0  0  0  2  0  0  0  0  0  0
  158.1590  213.3280  146.6450 N   0  0  0  0  0  2  0  0  0  0  0  0
  158.9830  214.3840  148.7230 C   0  0  1  0  0  3  0  0  0  0  0  0
  158.2690  213.7010  151.3720 C   0  0  0  0  0  0  0  0  0  0  0  0
  156.6910  213.5320  153.2160 O   0  0  0  0  0  0  0  0  0  0  0  0
  157.3380  214.0590  150.5380 N   0  0  0  0  0  0  0  0  0  0  0  0
  156.8550  212.9400  154.4800 C   0  0  1  0  0  3  0  0  0  0  0  0
  159.9420  213.5680  149.5630 C   0  0  0  0  0  0  0  0  0  0  0  0
  158.1830  213.4190  155.0510 C   0  0  0  0  0  2  0  0  0  0  0  0
  159.6060  213.2880  150.8460 C   0  0  0  0  0  0  0  0  0  0  0  0
  157.9630  213.6940  152.7770 N   0  0  0  0  0  0  0  0  0  0  0  0
  161.3030  213.2610  148.9730 C   0  0  2  0  0  3  0  0  0  0  0  0
  162.0950  214.4450  148.4080 C   0  0  0  0  0  2  0  0  0  0  0  0
  162.9670  214.0840  147.2180 C   0  0  0  0  0  1  0  0  0  0  0  0
  160.5570  211.5160  147.5400 O   0  0  0  0  0  0  0  0  0  0  0  0
  161.4390  211.9380  148.2740 C   0  0  0  0  0  3  0  0  0  0  0  0
  155.7050  213.3380  155.3920 C   0  0  0  0  0  2  0  0  0  0  0  0
  155.9810  212.9210  156.7590 N   0  0  0  0  0  2  0  0  0  0  0  0
  155.2870  211.6630  156.9830 C   0  0  0  0  0  2  0  0  0  0  0  0
  155.5870  210.7680  155.9530 O   0  0  0  0  0  1  0  0  0  0  0  0
  1  4  1  0  0  0  0
  2  8  1  6  0  0  0
  2  6  1  0  0  0  0
  3  5  1  0  0  0  0
  3  2  1  0  0  0  0
  5 30  1  1  0  0  0
  5  1  1  0  0  0  0
  6  4  1  0  0  0  0
  7  8  2  0  0  0  0
 10 15  1  6  0  0  0
 11  9  1  6  0  0  0
 11 16  1  0  0  0  0
 11 12  1  0  0  0  0
 12 14  1  1  0  0  0
 12 10  1  0  0  0  0
 13 10  1  0  0  0  0
 13  7  1  0  0  0  0
 16 26  1  1  0  0  0
 16 13  1  0  0  0  0
 17 25  1  0  0  0  0
 18 25  1  6  0  0  0
 18 11  1  0  0  0  0
 20 19  1  1  0  0  0
 20 18  1  0  0  0  0
 21 17  1  0  0  0  0
 22 24  1  1  0  0  0
 22 20  1  0  0  0  0
 22 17  1  0  0  0  0
 23 17  1  0  0  0  0
 27 28  1  0  0  0  0
 27 26  1  0  0  0  0
 28 29  1  0  0  0  0
 31 30  1  0  0  0  0
 33 44  1  0  0  0  0
 34 36  1  0  0  0  0
 35 41  1  0  0  0  0
 36 35  1  0  0  0  0
 37 34  1  0  0  0  0
 37 32  1  0  0  0  0
 38 32  1  6  0  0  0
 38 35  1  0  0  0  0
 38 43  1  0  0  0  0
 39 46  1  0  0  0  0
 40 42  1  0  0  0  0
 41 39  2  0  0  0  0
 42 44  1  0  0  0  0
 42 52  1  1  0  0  0
 43 45  2  0  0  0  0
 45 39  1  0  0  0  0
 45 31  1  0  0  0  0
 46 40  1  0  0  0  0
 46 33  1  0  0  0  0
 47 51  1  6  0  0  0
 47 43  1  0  0  0  0
 48 47  1  0  0  0  0
 49 48  1  0  0  0  0
 50 51  2  0  0  0  0
 52 53  1  0  0  0  0
 53 54  1  0  0  0  0
 55 54  1  0  0  0  0
M  END
>  <MODEL>
2

>  <REMARK>
 VINA RESULT:      -3.0      2.827     10.554
  Name = 
  15 active torsions:
  status: ('A' for Active; 'I' for Inactive)
    1  A    between atoms: O_2  and  C_28
    2  A    between atoms: O_2  and  C_44
    3  A    between atoms: O_3  and  C_38
    4  A    between atoms: O_3  and  C_46
    5  A    between atoms: C_4  and  C_19
    6  A    between atoms: C_6  and  C_20
    7  A    between atoms: C_10  and  N_18
    8  A    between atoms: C_11  and  C_38
    9  A    between atoms: N_18  and  C_32
   10  A    between atoms: C_19  and  C_40
   11  A    between atoms: C_19  and  C_45
   12  A    between atoms: C_27  and  C_54
   13  A    between atoms: C_28  and  C_49
   14  A    between atoms: C_32  and  C_39
   15  A    between atoms: N_35  and  C_51
                            x       y       z     vdW  Elec       q    Type
                         _______ _______ _______ _____ _____    ______ ____

>  <TORSDO>
F 15

$$$$
