=
 OpenBabel11052423133D

 27 30  0  0  0  0  0  0  0  0999 V2000
  161.3690  206.4690  150.9970 C   0  0  0  0  0  0  0  0  0  0  0  0
  161.4290  208.6500  149.8750 O   0  0  0  0  0  0  0  0  0  0  0  0
  160.5110  208.5510  154.9610 C   0  0  0  0  0  3  0  0  0  0  0  0
  160.4010  210.9340  154.7750 F   0  0  0  0  0  0  0  0  0  0  0  0
  161.1750  206.0640  152.2190 N   0  0  0  0  0  0  0  0  0  0  0  0
  160.8450  209.6480  152.8040 C   0  0  0  0  0  0  0  0  0  0  0  0
  160.9210  210.7940  152.0210 O   0  0  0  0  0  1  0  0  0  0  0  0
  161.0250  208.3830  152.2490 C   0  0  0  0  0  0  0  0  0  0  0  0
  161.6760  205.5730  149.9070 N   0  0  0  0  0  0  0  0  0  0  0  0
  160.5830  209.7270  154.1840 C   0  0  0  0  0  0  0  0  0  0  0  0
  160.9540  207.2370  153.0030 C   0  0  0  0  0  0  0  0  0  0  0  0
  161.3020  207.9350  150.9040 C   0  0  0  0  0  0  0  0  0  0  0  0
  160.6970  207.2870  154.3720 C   0  0  0  0  0  3  0  0  0  0  0  0
  160.6100  201.4470  149.9650 C   0  0  0  0  0  3  0  0  0  0  0  0
  161.2970  204.1770  149.9260 C   0  0  0  0  0  0  0  0  0  0  0  0
  161.4640  203.4100  151.0930 C   0  0  0  0  0  3  0  0  0  0  0  0
  161.1190  202.0550  151.1140 C   0  0  0  0  0  3  0  0  0  0  0  0
  160.4470  202.1920  148.7950 C   0  0  0  0  0  3  0  0  0  0  0  0
  160.7910  203.5460  148.7760 C   0  0  0  0  0  3  0  0  0  0  0  0
  162.3910  206.1000  148.7430 C   0  0  0  0  0  2  0  0  0  0  0  0
  161.1140  203.9620  145.0750 C   0  0  0  0  0  2  0  0  0  0  0  0
  160.7030  205.3490  144.6010 C   0  0  0  0  0  2  0  0  0  0  0  0
  161.7910  205.5610  147.4520 C   0  0  0  0  0  3  0  0  0  0  0  0
  162.5330  203.9180  145.6540 C   0  0  0  0  0  2  0  0  0  0  0  0
  160.0090  206.0930  145.7360 C   0  0  0  0  0  2  0  0  0  0  0  0
  161.0010  206.6580  146.7480 C   0  0  0  0  0  2  0  0  0  0  0  0
  162.9210  205.1050  146.5410 C   0  0  0  0  0  2  0  0  0  0  0  0
  1  5  2  0  0  0  0
  2 12  2  0  0  0  0
  5 11  1  0  0  0  0
  6 10  1  0  0  0  0
  7  6  1  0  0  0  0
  8  6  2  0  0  0  0
  8 11  1  0  0  0  0
  9 15  1  0  0  0  0
  9  1  1  0  0  0  0
 10  4  1  0  0  0  0
 10  3  2  0  0  0  0
 11 13  2  0  0  0  0
 12  1  1  0  0  0  0
 12  8  1  0  0  0  0
 13  3  1  0  0  0  0
 14 17  1  0  0  0  0
 15 16  1  0  0  0  0
 16 17  2  0  0  0  0
 18 14  2  0  0  0  0
 19 18  1  0  0  0  0
 19 15  2  0  0  0  0
 20  9  1  0  0  0  0
 21 24  1  0  0  0  0
 22 21  1  0  0  0  0
 22 25  1  0  0  0  0
 23 20  1  0  0  0  0
 24 27  1  0  0  0  0
 25 26  1  0  0  0  0
 26 23  1  0  0  0  0
 27 23  1  0  0  0  0
M  END
>  <MODEL>
1

>  <REMARK>
 VINA RESULT:      -9.7      0.000      0.000
  Name = 
  3 active torsions:
  status: ('A' for Active; 'I' for Inactive)
    1  A    between atoms: C_1  and  N_15
    2  A    between atoms: C_1  and  C_18
    3  A    between atoms: C_9  and  N_15
                            x       y       z     vdW  Elec       q    Type
                         _______ _______ _______ _____ _____    ______ ____

>  <TORSDO>
F 3

$$$$
=
 OpenBabel11052423133D

 27 30  0  0  0  0  0  0  0  0999 V2000
  161.0260  207.6320  152.0750 C   0  0  0  0  0  0  0  0  0  0  0  0
  161.7110  209.0270  150.1760 O   0  0  0  0  0  0  0  0  0  0  0  0
  161.1490  203.9480  149.3910 C   0  0  0  0  0  3  0  0  0  0  0  0
  161.7760  204.4400  147.1360 F   0  0  0  0  0  0  0  0  0  0  0  0
  160.7900  206.3640  152.2520 N   0  0  0  0  0  0  0  0  0  0  0  0
  161.6490  206.2410  148.7100 C   0  0  0  0  0  0  0  0  0  0  0  0
  162.0210  207.1690  147.7450 O   0  0  0  0  0  1  0  0  0  0  0  0
  161.3820  206.6320  150.0200 C   0  0  0  0  0  0  0  0  0  0  0  0
  160.8620  208.6200  153.1150 N   0  0  0  0  0  0  0  0  0  0  0  0
  161.5290  204.8740  148.3960 C   0  0  0  0  0  0  0  0  0  0  0  0
  161.0140  205.7320  150.9910 C   0  0  0  0  0  0  0  0  0  0  0  0
  161.4050  207.9150  150.6820 C   0  0  0  0  0  0  0  0  0  0  0  0
  160.8860  204.3730  150.7070 C   0  0  0  0  0  3  0  0  0  0  0  0
  161.0380  207.6460  157.2610 C   0  0  0  0  0  3  0  0  0  0  0  0
  160.9360  208.2800  154.5190 C   0  0  0  0  0  0  0  0  0  0  0  0
  160.0020  207.3950  155.0880 C   0  0  0  0  0  3  0  0  0  0  0  0
  160.0550  207.0770  156.4480 C   0  0  0  0  0  3  0  0  0  0  0  0
  161.9660  208.5330  156.7140 C   0  0  0  0  0  3  0  0  0  0  0  0
  161.9130  208.8500  155.3540 C   0  0  0  0  0  3  0  0  0  0  0  0
  160.6160  210.0110  152.7320 C   0  0  0  0  0  2  0  0  0  0  0  0
  157.6890  211.8050  155.5380 C   0  0  0  0  0  2  0  0  0  0  0  0
  158.7610  212.8690  155.7250 C   0  0  0  0  0  2  0  0  0  0  0  0
  159.8140  210.7330  153.8070 C   0  0  0  0  0  3  0  0  0  0  0  0
  157.3980  211.4940  154.0660 C   0  0  0  0  0  2  0  0  0  0  0  0
  160.1270  212.2040  155.8410 C   0  0  0  0  0  2  0  0  0  0  0  0
  160.6840  211.7860  154.4840 C   0  0  0  0  0  2  0  0  0  0  0  0
  158.6250  211.4200  153.1520 C   0  0  0  0  0  2  0  0  0  0  0  0
  1  5  2  0  0  0  0
  1  9  1  0  0  0  0
  2 12  2  0  0  0  0
  3 13  1  0  0  0  0
  4 10  1  0  0  0  0
  6  8  2  0  0  0  0
  7  6  1  0  0  0  0
  8 12  1  0  0  0  0
  8 11  1  0  0  0  0
  9 15  1  0  0  0  0
 10  6  1  0  0  0  0
 10  3  2  0  0  0  0
 11  5  1  0  0  0  0
 12  1  1  0  0  0  0
 13 11  2  0  0  0  0
 15 16  2  0  0  0  0
 15 19  1  0  0  0  0
 16 17  1  0  0  0  0
 17 14  2  0  0  0  0
 18 14  1  0  0  0  0
 19 18  2  0  0  0  0
 20  9  1  0  0  0  0
 20 23  1  0  0  0  0
 21 22  1  0  0  0  0
 22 25  1  0  0  0  0
 23 26  1  0  0  0  0
 24 21  1  0  0  0  0
 26 25  1  0  0  0  0
 27 23  1  0  0  0  0
 27 24  1  0  0  0  0
M  END
>  <MODEL>
2

>  <REMARK>
 VINA RESULT:      -8.9      2.784      7.901
  Name = 
  3 active torsions:
  status: ('A' for Active; 'I' for Inactive)
    1  A    between atoms: C_1  and  N_15
    2  A    between atoms: C_1  and  C_18
    3  A    between atoms: C_9  and  N_15
                            x       y       z     vdW  Elec       q    Type
                         _______ _______ _______ _____ _____    ______ ____

>  <TORSDO>
F 3

$$$$
=
 OpenBabel11052423133D

 27 30  0  0  0  0  0  0  0  0999 V2000
  161.2350  207.9240  152.1200 C   0  0  0  0  0  0  0  0  0  0  0  0
  162.3480  209.2760  150.4020 O   0  0  0  0  0  0  0  0  0  0  0  0
  160.9460  204.4540  149.1760 C   0  0  0  0  0  3  0  0  0  0  0  0
  161.8720  204.9540  147.0280 F   0  0  0  0  0  0  0  0  0  0  0  0
  160.7540  206.7150  152.1760 N   0  0  0  0  0  0  0  0  0  0  0  0
  161.9210  206.6470  148.7220 C   0  0  0  0  0  0  0  0  0  0  0  0
  162.5510  207.5450  147.8680 O   0  0  0  0  0  1  0  0  0  0  0  0
  161.6030  207.0010  150.0310 C   0  0  0  0  0  0  0  0  0  0  0  0
  161.1520  208.8590  153.2170 N   0  0  0  0  0  0  0  0  0  0  0  0
  161.5850  205.3500  148.2930 C   0  0  0  0  0  0  0  0  0  0  0  0
  160.9820  206.1300  150.8930 C   0  0  0  0  0  0  0  0  0  0  0  0
  161.7950  208.2140  150.7910 C   0  0  0  0  0  0  0  0  0  0  0  0
  160.6370  204.8400  150.4930 C   0  0  0  0  0  3  0  0  0  0  0  0
  160.8160  207.5540  157.2600 C   0  0  0  0  0  3  0  0  0  0  0  0
  161.0240  208.4260  154.5910 C   0  0  0  0  0  0  0  0  0  0  0  0
  161.9260  208.8820  155.5690 C   0  0  0  0  0  3  0  0  0  0  0  0
  161.8210  208.4520  156.8950 C   0  0  0  0  0  3  0  0  0  0  0  0
  159.9180  207.0850  156.2990 C   0  0  0  0  0  3  0  0  0  0  0  0
  160.0230  207.5150  154.9750 C   0  0  0  0  0  3  0  0  0  0  0  0
  161.2040  210.2930  152.9240 C   0  0  0  0  0  2  0  0  0  0  0  0
  157.4040  212.2230  154.1470 C   0  0  0  0  0  2  0  0  0  0  0  0
  158.3060  213.0800  155.0230 C   0  0  0  0  0  2  0  0  0  0  0  0
  160.0240  211.0160  153.5580 C   0  0  0  0  0  3  0  0  0  0  0  0
  157.8940  212.1160  152.6990 C   0  0  0  0  0  2  0  0  0  0  0  0
  159.3550  212.1990  155.6920 C   0  0  0  0  0  2  0  0  0  0  0  0
  160.4990  211.8430  154.7480 C   0  0  0  0  0  2  0  0  0  0  0  0
  159.4070  211.9460  152.5250 C   0  0  0  0  0  2  0  0  0  0  0  0
  1  5  2  0  0  0  0
  1  9  1  0  0  0  0
  2 12  2  0  0  0  0
  3 13  1  0  0  0  0
  4 10  1  0  0  0  0
  6  8  2  0  0  0  0
  7  6  1  0  0  0  0
  8 12  1  0  0  0  0
  8 11  1  0  0  0  0
  9 15  1  0  0  0  0
 10  6  1  0  0  0  0
 10  3  2  0  0  0  0
 11  5  1  0  0  0  0
 12  1  1  0  0  0  0
 13 11  2  0  0  0  0
 15 19  2  0  0  0  0
 15 16  1  0  0  0  0
 16 17  2  0  0  0  0
 17 14  1  0  0  0  0
 18 14  2  0  0  0  0
 19 18  1  0  0  0  0
 20  9  1  0  0  0  0
 20 23  1  0  0  0  0
 21 22  1  0  0  0  0
 22 25  1  0  0  0  0
 23 26  1  0  0  0  0
 24 21  1  0  0  0  0
 26 25  1  0  0  0  0
 27 24  1  0  0  0  0
 27 23  1  0  0  0  0
M  END
>  <MODEL>
3

>  <REMARK>
 VINA RESULT:      -8.6      2.815      7.745
  Name = 
  3 active torsions:
  status: ('A' for Active; 'I' for Inactive)
    1  A    between atoms: C_1  and  N_15
    2  A    between atoms: C_1  and  C_18
    3  A    between atoms: C_9  and  N_15
                            x       y       z     vdW  Elec       q    Type
                         _______ _______ _______ _____ _____    ______ ____

>  <TORSDO>
F 3

$$$$
=
 OpenBabel11052423133D

 27 30  0  0  0  0  0  0  0  0999 V2000
  161.1120  205.6270  149.9790 C   0  0  0  0  0  0  0  0  0  0  0  0
  161.1490  204.2220  151.9900 O   0  0  0  0  0  0  0  0  0  0  0  0
  161.2480  209.3550  152.6010 C   0  0  0  0  0  3  0  0  0  0  0  0
  161.2970  208.8650  154.9420 F   0  0  0  0  0  0  0  0  0  0  0  0
  161.1240  206.9080  149.7460 N   0  0  0  0  0  0  0  0  0  0  0  0
  161.2210  207.0420  153.3890 C   0  0  0  0  0  0  0  0  0  0  0  0
  161.2270  206.1080  154.4180 O   0  0  0  0  0  1  0  0  0  0  0  0
  161.1790  206.6440  152.0550 C   0  0  0  0  0  0  0  0  0  0  0  0
  161.0170  204.6350  148.9340 N   0  0  0  0  0  0  0  0  0  0  0  0
  161.2560  208.4230  153.6600 C   0  0  0  0  0  0  0  0  0  0  0  0
  161.1730  207.5490  151.0220 C   0  0  0  0  0  0  0  0  0  0  0  0
  161.1370  205.3460  151.4220 C   0  0  0  0  0  0  0  0  0  0  0  0
  161.2060  208.9220  151.2630 C   0  0  0  0  0  3  0  0  0  0  0  0
  162.2300  205.3870  144.9180 C   0  0  0  0  0  3  0  0  0  0  0  0
  161.4400  204.9020  147.5770 C   0  0  0  0  0  0  0  0  0  0  0  0
  160.5900  205.5830  146.6860 C   0  0  0  0  0  3  0  0  0  0  0  0
  160.9840  205.8270  145.3670 C   0  0  0  0  0  3  0  0  0  0  0  0
  163.0820  204.7010  145.7860 C   0  0  0  0  0  3  0  0  0  0  0  0
  162.6880  204.4580  147.1040 C   0  0  0  0  0  3  0  0  0  0  0  0
  160.4770  203.3150  149.2640 C   0  0  0  0  0  2  0  0  0  0  0  0
  161.2060  200.8460  145.6550 C   0  0  0  0  0  2  0  0  0  0  0  0
  161.2060  199.6870  146.6420 C   0  0  0  0  0  2  0  0  0  0  0  0
  160.8340  202.3010  148.1860 C   0  0  0  0  0  3  0  0  0  0  0  0
  160.0110  201.7880  145.8310 C   0  0  0  0  0  2  0  0  0  0  0  0
  161.9980  200.0750  147.8850 C   0  0  0  0  0  2  0  0  0  0  0  0
  161.1950  200.9660  148.8270 C   0  0  0  0  0  2  0  0  0  0  0  0
  159.6270  202.1030  147.2810 C   0  0  0  0  0  2  0  0  0  0  0  0
  1 12  1  0  0  0  0
  3 10  1  0  0  0  0
  5  1  2  0  0  0  0
  5 11  1  0  0  0  0
  6 10  2  0  0  0  0
  6  7  1  0  0  0  0
  8  6  1  0  0  0  0
  9 20  1  0  0  0  0
  9  1  1  0  0  0  0
 10  4  1  0  0  0  0
 11 13  1  0  0  0  0
 11  8  2  0  0  0  0
 12  2  2  0  0  0  0
 12  8  1  0  0  0  0
 13  3  2  0  0  0  0
 14 17  2  0  0  0  0
 14 18  1  0  0  0  0
 15  9  1  0  0  0  0
 16 15  2  0  0  0  0
 17 16  1  0  0  0  0
 18 19  2  0  0  0  0
 19 15  1  0  0  0  0
 21 24  1  0  0  0  0
 21 22  1  0  0  0  0
 22 25  1  0  0  0  0
 23 26  1  0  0  0  0
 23 20  1  0  0  0  0
 24 27  1  0  0  0  0
 25 26  1  0  0  0  0
 27 23  1  0  0  0  0
M  END
>  <MODEL>
4

>  <REMARK>
 VINA RESULT:      -8.3      2.085      4.063
  Name = 
  3 active torsions:
  status: ('A' for Active; 'I' for Inactive)
    1  A    between atoms: C_1  and  N_15
    2  A    between atoms: C_1  and  C_18
    3  A    between atoms: C_9  and  N_15
                            x       y       z     vdW  Elec       q    Type
                         _______ _______ _______ _____ _____    ______ ____

>  <TORSDO>
F 3

$$$$
=
 OpenBabel11052423133D

 27 30  0  0  0  0  0  0  0  0999 V2000
  161.7810  208.6080  149.2630 C   0  0  0  0  0  0  0  0  0  0  0  0
  160.9280  207.6440  151.3520 O   0  0  0  0  0  0  0  0  0  0  0  0
  161.6840  204.4760  147.3380 C   0  0  0  0  0  3  0  0  0  0  0  0
  160.9110  202.7610  148.8150 F   0  0  0  0  0  0  0  0  0  0  0  0
  162.0860  208.1400  148.0870 N   0  0  0  0  0  0  0  0  0  0  0  0
  161.0400  205.0080  149.6340 C   0  0  0  0  0  0  0  0  0  0  0  0
  160.5720  204.6250  150.8860 O   0  0  0  0  0  1  0  0  0  0  0  0
  161.3590  206.3360  149.3600 C   0  0  0  0  0  0  0  0  0  0  0  0
  161.9560  209.9930  149.6330 N   0  0  0  0  0  0  0  0  0  0  0  0
  161.2060  204.0670  148.6010 C   0  0  0  0  0  0  0  0  0  0  0  0
  161.8230  206.7370  148.1300 C   0  0  0  0  0  0  0  0  0  0  0  0
  161.3130  207.5380  150.1580 C   0  0  0  0  0  0  0  0  0  0  0  0
  161.9980  205.8250  147.0910 C   0  0  0  0  0  3  0  0  0  0  0  0
  162.0130  213.1590  146.7810 C   0  0  0  0  0  3  0  0  0  0  0  0
  161.9750  211.0560  148.6520 C   0  0  0  0  0  0  0  0  0  0  0  0
  163.1350  211.8280  148.4610 C   0  0  0  0  0  3  0  0  0  0  0  0
  163.1550  212.8700  147.5300 C   0  0  0  0  0  3  0  0  0  0  0  0
  160.8500  212.4080  146.9650 C   0  0  0  0  0  3  0  0  0  0  0  0
  160.8310  211.3670  147.8960 C   0  0  0  0  0  3  0  0  0  0  0  0
  162.1150  210.3280  151.0490 C   0  0  0  0  0  2  0  0  0  0  0  0
  158.3310  212.4170  152.0360 C   0  0  0  0  0  2  0  0  0  0  0  0
  158.7850  212.2220  153.4760 C   0  0  0  0  0  2  0  0  0  0  0  0
  160.8310  210.9230  151.6100 C   0  0  0  0  0  3  0  0  0  0  0  0
  159.4260  212.9920  151.1310 C   0  0  0  0  0  2  0  0  0  0  0  0
  159.3390  210.8130  153.6510 C   0  0  0  0  0  2  0  0  0  0  0  0
  160.7600  210.6800  153.1140 C   0  0  0  0  0  2  0  0  0  0  0  0
  160.8310  212.4220  151.3510 C   0  0  0  0  0  2  0  0  0  0  0  0
  1  9  1  0  0  0  0
  1 12  1  0  0  0  0
  3 10  1  0  0  0  0
  5 11  1  0  0  0  0
  5  1  2  0  0  0  0
  6  7  1  0  0  0  0
  8  6  1  0  0  0  0
  8 12  1  0  0  0  0
  9 20  1  0  0  0  0
 10  4  1  0  0  0  0
 10  6  2  0  0  0  0
 11  8  2  0  0  0  0
 12  2  2  0  0  0  0
 13  3  2  0  0  0  0
 13 11  1  0  0  0  0
 14 18  2  0  0  0  0
 14 17  1  0  0  0  0
 15  9  1  0  0  0  0
 16 15  1  0  0  0  0
 17 16  2  0  0  0  0
 18 19  1  0  0  0  0
 19 15  2  0  0  0  0
 20 23  1  0  0  0  0
 21 22  1  0  0  0  0
 22 25  1  0  0  0  0
 23 26  1  0  0  0  0
 24 27  1  0  0  0  0
 24 21  1  0  0  0  0
 26 25  1  0  0  0  0
 27 23  1  0  0  0  0
M  END
>  <MODEL>
5

>  <REMARK>
 VINA RESULT:      -8.0      3.860      7.975
  Name = 
  3 active torsions:
  status: ('A' for Active; 'I' for Inactive)
    1  A    between atoms: C_1  and  N_15
    2  A    between atoms: C_1  and  C_18
    3  A    between atoms: C_9  and  N_15
                            x       y       z     vdW  Elec       q    Type
                         _______ _______ _______ _____ _____    ______ ____

>  <TORSDO>
F 3

$$$$
=
 OpenBabel11052423133D

 27 30  0  0  0  0  0  0  0  0999 V2000
  161.3900  205.9280  151.0720 C   0  0  0  0  0  0  0  0  0  0  0  0
  160.8060  203.9690  152.4280 O   0  0  0  0  0  0  0  0  0  0  0  0
  161.2420  203.3480  147.3150 C   0  0  0  0  0  3  0  0  0  0  0  0
  160.7000  201.0600  147.7580 F   0  0  0  0  0  0  0  0  0  0  0  0
  161.5830  206.1480  149.8030 N   0  0  0  0  0  0  0  0  0  0  0  0
  160.8320  202.5860  149.6000 C   0  0  0  0  0  0  0  0  0  0  0  0
  160.5170  201.5830  150.5090 O   0  0  0  0  0  1  0  0  0  0  0  0
  161.0690  203.8920  150.0220 C   0  0  0  0  0  0  0  0  0  0  0  0
  161.5520  206.9440  152.0840 N   0  0  0  0  0  0  0  0  0  0  0  0
  160.9200  202.3150  148.2220 C   0  0  0  0  0  0  0  0  0  0  0  0
  161.3800  204.8990  149.1410 C   0  0  0  0  0  0  0  0  0  0  0  0
  161.0630  204.5160  151.3240 C   0  0  0  0  0  0  0  0  0  0  0  0
  161.4750  204.6580  147.7710 C   0  0  0  0  0  3  0  0  0  0  0  0
  161.2170  211.1080  151.2390 C   0  0  0  0  0  3  0  0  0  0  0  0
  161.4240  208.3540  151.7880 C   0  0  0  0  0  0  0  0  0  0  0  0
  162.3310  208.9850  150.9170 C   0  0  0  0  0  3  0  0  0  0  0  0
  162.2260  210.3510  150.6410 C   0  0  0  0  0  3  0  0  0  0  0  0
  160.3140  210.5000  152.1130 C   0  0  0  0  0  3  0  0  0  0  0  0
  160.4190  209.1350  152.3880 C   0  0  0  0  0  3  0  0  0  0  0  0
  161.8510  206.5300  153.4560 C   0  0  0  0  0  2  0  0  0  0  0  0
  160.2330  209.6740  156.1310 C   0  0  0  0  0  2  0  0  0  0  0  0
  159.8280  208.4960  157.0070 C   0  0  0  0  0  2  0  0  0  0  0  0
  161.1380  207.4270  154.4580 C   0  0  0  0  0  3  0  0  0  0  0  0
  161.6900  209.6030  155.6610 C   0  0  0  0  0  2  0  0  0  0  0  0
  159.2460  207.3890  156.1370 C   0  0  0  0  0  2  0  0  0  0  0  0
  160.3280  206.5780  155.4320 C   0  0  0  0  0  2  0  0  0  0  0  0
  162.1800  208.2140  155.2380 C   0  0  0  0  0  2  0  0  0  0  0  0
  1 12  1  0  0  0  0
  1  9  1  0  0  0  0
  3 13  2  0  0  0  0
  3 10  1  0  0  0  0
  4 10  1  0  0  0  0
  5  1  2  0  0  0  0
  6  8  1  0  0  0  0
  6  7  1  0  0  0  0
  8 12  1  0  0  0  0
  9 20  1  0  0  0  0
 10  6  2  0  0  0  0
 11  5  1  0  0  0  0
 11  8  2  0  0  0  0
 12  2  2  0  0  0  0
 13 11  1  0  0  0  0
 14 18  1  0  0  0  0
 15  9  1  0  0  0  0
 15 19  1  0  0  0  0
 16 15  2  0  0  0  0
 17 16  1  0  0  0  0
 17 14  2  0  0  0  0
 18 19  2  0  0  0  0
 20 23  1  0  0  0  0
 21 22  1  0  0  0  0
 23 27  1  0  0  0  0
 23 26  1  0  0  0  0
 24 21  1  0  0  0  0
 25 22  1  0  0  0  0
 26 25  1  0  0  0  0
 27 24  1  0  0  0  0
M  END
>  <MODEL>
6

>  <REMARK>
 VINA RESULT:      -7.9      3.239      8.086
  Name = 
  3 active torsions:
  status: ('A' for Active; 'I' for Inactive)
    1  A    between atoms: C_1  and  N_15
    2  A    between atoms: C_1  and  C_18
    3  A    between atoms: C_9  and  N_15
                            x       y       z     vdW  Elec       q    Type
                         _______ _______ _______ _____ _____    ______ ____

>  <TORSDO>
F 3

$$$$
=
 OpenBabel11052423133D

 27 30  0  0  0  0  0  0  0  0999 V2000
  161.8510  208.6100  149.9320 C   0  0  0  0  0  0  0  0  0  0  0  0
  161.3670  207.2180  151.8930 O   0  0  0  0  0  0  0  0  0  0  0  0
  161.4590  204.9420  147.2530 C   0  0  0  0  0  3  0  0  0  0  0  0
  160.9550  202.9380  148.4590 F   0  0  0  0  0  0  0  0  0  0  0  0
  161.9570  208.3980  148.6520 N   0  0  0  0  0  0  0  0  0  0  0  0
  161.2060  204.9810  149.6830 C   0  0  0  0  0  0  0  0  0  0  0  0
  160.9570  204.3400  150.8900 O   0  0  0  0  0  1  0  0  0  0  0  0
  161.4660  206.3490  149.6340 C   0  0  0  0  0  0  0  0  0  0  0  0
  162.0770  209.9000  150.5400 N   0  0  0  0  0  0  0  0  0  0  0  0
  161.2020  204.2710  148.4680 C   0  0  0  0  0  0  0  0  0  0  0  0
  161.7140  207.0050  148.4520 C   0  0  0  0  0  0  0  0  0  0  0  0
  161.5470  207.3670  150.6560 C   0  0  0  0  0  0  0  0  0  0  0  0
  161.7180  206.3250  147.2360 C   0  0  0  0  0  3  0  0  0  0  0  0
  161.5860  213.5240  148.3510 C   0  0  0  0  0  3  0  0  0  0  0  0
  161.9250  211.1360  149.8050 C   0  0  0  0  0  0  0  0  0  0  0  0
  160.8930  212.0360  150.1290 C   0  0  0  0  0  3  0  0  0  0  0  0
  160.7270  213.2230  149.4100 C   0  0  0  0  0  3  0  0  0  0  0  0
  162.6090  212.6370  148.0100 C   0  0  0  0  0  3  0  0  0  0  0  0
  162.7750  211.4510  148.7290 C   0  0  0  0  0  3  0  0  0  0  0  0
  162.4690  209.9540  151.9490 C   0  0  0  0  0  2  0  0  0  0  0  0
  159.9000  212.1600  154.8100 C   0  0  0  0  0  2  0  0  0  0  0  0
  158.8170  211.2030  154.3310 C   0  0  0  0  0  2  0  0  0  0  0  0
  161.3940  210.6370  152.7830 C   0  0  0  0  0  3  0  0  0  0  0  0
  161.2060  211.4530  155.1880 C   0  0  0  0  0  2  0  0  0  0  0  0
  158.8990  211.0570  152.8160 C   0  0  0  0  0  2  0  0  0  0  0  0
  160.0180  210.1140  152.3860 C   0  0  0  0  0  2  0  0  0  0  0  0
  161.6380  210.3210  154.2510 C   0  0  0  0  0  2  0  0  0  0  0  0
  1  9  1  0  0  0  0
  1 12  1  0  0  0  0
  3 10  1  0  0  0  0
  4 10  1  0  0  0  0
  5  1  2  0  0  0  0
  6  7  1  0  0  0  0
  8  6  1  0  0  0  0
  8 12  1  0  0  0  0
  9 20  1  0  0  0  0
 10  6  2  0  0  0  0
 11  5  1  0  0  0  0
 11  8  2  0  0  0  0
 12  2  2  0  0  0  0
 13  3  2  0  0  0  0
 13 11  1  0  0  0  0
 14 17  1  0  0  0  0
 15 16  1  0  0  0  0
 15  9  1  0  0  0  0
 17 16  2  0  0  0  0
 18 14  2  0  0  0  0
 18 19  1  0  0  0  0
 19 15  2  0  0  0  0
 20 23  1  0  0  0  0
 21 24  1  0  0  0  0
 22 21  1  0  0  0  0
 23 27  1  0  0  0  0
 25 22  1  0  0  0  0
 26 23  1  0  0  0  0
 26 25  1  0  0  0  0
 27 24  1  0  0  0  0
M  END
>  <MODEL>
7

>  <REMARK>
 VINA RESULT:      -7.8      3.503      8.090
  Name = 
  3 active torsions:
  status: ('A' for Active; 'I' for Inactive)
    1  A    between atoms: C_1  and  N_15
    2  A    between atoms: C_1  and  C_18
    3  A    between atoms: C_9  and  N_15
                            x       y       z     vdW  Elec       q    Type
                         _______ _______ _______ _____ _____    ______ ____

>  <TORSDO>
F 3

$$$$
=
 OpenBabel11052423133D

 27 30  0  0  0  0  0  0  0  0999 V2000
  161.3940  208.2890  151.1620 C   0  0  0  0  0  0  0  0  0  0  0  0
  161.1130  206.9940  153.2270 O   0  0  0  0  0  0  0  0  0  0  0  0
  161.0520  204.4480  148.7280 C   0  0  0  0  0  3  0  0  0  0  0  0
  160.7410  202.4970  150.0770 F   0  0  0  0  0  0  0  0  0  0  0  0
  161.4340  208.0050  149.8920 N   0  0  0  0  0  0  0  0  0  0  0  0
  160.9470  204.6220  151.1630 C   0  0  0  0  0  0  0  0  0  0  0  0
  160.8100  204.0420  152.4190 O   0  0  0  0  0  1  0  0  0  0  0  0
  161.1240  205.9960  151.0200 C   0  0  0  0  0  0  0  0  0  0  0  0
  161.5820  209.6240  151.6800 N   0  0  0  0  0  0  0  0  0  0  0  0
  160.9100  203.8400  149.9940 C   0  0  0  0  0  0  0  0  0  0  0  0
  161.2600  206.5910  149.7890 C   0  0  0  0  0  0  0  0  0  0  0  0
  161.2080  207.0770  151.9740 C   0  0  0  0  0  0  0  0  0  0  0  0
  161.2290  205.8400  148.6150 C   0  0  0  0  0  3  0  0  0  0  0  0
  160.8350  213.1180  149.3560 C   0  0  0  0  0  3  0  0  0  0  0  0
  161.3130  210.8030  150.8860 C   0  0  0  0  0  0  0  0  0  0  0  0
  162.0260  211.0390  149.6960 C   0  0  0  0  0  3  0  0  0  0  0  0
  161.7860  212.1860  148.9350 C   0  0  0  0  0  3  0  0  0  0  0  0
  160.1260  212.9030  150.5390 C   0  0  0  0  0  3  0  0  0  0  0  0
  160.3660  211.7570  151.3000 C   0  0  0  0  0  3  0  0  0  0  0  0
  162.0560  209.7850  153.0550 C   0  0  0  0  0  2  0  0  0  0  0  0
  158.5840  211.2110  155.4150 C   0  0  0  0  0  2  0  0  0  0  0  0
  159.1730  210.3350  156.5120 C   0  0  0  0  0  2  0  0  0  0  0  0
  160.8930  210.0590  153.9980 C   0  0  0  0  0  3  0  0  0  0  0  0
  159.6180  212.1290  154.7560 C   0  0  0  0  0  2  0  0  0  0  0  0
  159.6250  209.0070  155.9190 C   0  0  0  0  0  2  0  0  0  0  0  0
  160.9650  209.1220  155.1990 C   0  0  0  0  0  2  0  0  0  0  0  0
  160.9880  211.4960  154.4880 C   0  0  0  0  0  2  0  0  0  0  0  0
  1  9  1  0  0  0  0
  1 12  1  0  0  0  0
  3 10  1  0  0  0  0
  5  1  2  0  0  0  0
  6  7  1  0  0  0  0
  8  6  1  0  0  0  0
  8 12  1  0  0  0  0
  9 20  1  0  0  0  0
 10  4  1  0  0  0  0
 10  6  2  0  0  0  0
 11  5  1  0  0  0  0
 11  8  2  0  0  0  0
 12  2  2  0  0  0  0
 13  3  2  0  0  0  0
 13 11  1  0  0  0  0
 14 18  1  0  0  0  0
 15 19  1  0  0  0  0
 15  9  1  0  0  0  0
 16 15  2  0  0  0  0
 17 14  2  0  0  0  0
 17 16  1  0  0  0  0
 18 19  2  0  0  0  0
 20 23  1  0  0  0  0
 21 22  1  0  0  0  0
 23 27  1  0  0  0  0
 23 26  1  0  0  0  0
 24 21  1  0  0  0  0
 25 22  1  0  0  0  0
 26 25  1  0  0  0  0
 27 24  1  0  0  0  0
M  END
>  <MODEL>
8

>  <REMARK>
 VINA RESULT:      -7.4      3.209      8.179
  Name = 
  3 active torsions:
  status: ('A' for Active; 'I' for Inactive)
    1  A    between atoms: C_1  and  N_15
    2  A    between atoms: C_1  and  C_18
    3  A    between atoms: C_9  and  N_15
                            x       y       z     vdW  Elec       q    Type
                         _______ _______ _______ _____ _____    ______ ____

>  <TORSDO>
F 3

$$$$
