=
 OpenBabel11052423023D

 28 32  0  0  1  0  0  0  0  0999 V2000
  161.6270  204.2240  149.9460 C   0  0  2  0  0  3  0  0  0  0  0  0
  162.1480  209.3430  149.0870 C   0  0  0  0  0  3  0  0  0  0  0  0
  160.7820  206.4250  154.2390 O   0  0  0  0  0  0  0  0  0  0  0  0
  161.3550  210.3600  151.1480 C   0  0  0  0  0  0  0  0  0  0  0  0
  161.6300  207.9350  151.0270 C   0  0  0  0  0  0  0  0  0  0  0  0
  161.8640  211.7450  149.2280 C   0  0  0  0  0  0  0  0  0  0  0  0
  161.7150  209.2020  150.4150 C   0  0  0  0  0  0  0  0  0  0  0  0
  160.8490  208.9930  153.0770 C   0  0  0  0  0  3  0  0  0  0  0  0
  161.4310  211.6210  150.5490 C   0  0  0  0  0  3  0  0  0  0  0  0
  161.4430  205.2630  152.2430 C   0  0  1  0  0  3  0  0  0  0  0  0
  162.0600  206.6950  150.2870 C   0  0  0  0  0  2  0  0  0  0  0  0
  160.9260  210.2470  152.4710 C   0  0  0  0  0  3  0  0  0  0  0  0
  161.0660  202.8140  151.9520 C   0  0  0  0  0  2  0  0  0  0  0  0
  161.0940  206.5080  153.0190 C   0  0  0  0  0  0  0  0  0  0  0  0
  160.6240  204.0600  152.7100 C   0  0  0  0  0  2  0  0  0  0  0  0
  161.9360  212.9680  148.6510 F   0  0  0  0  0  0  0  0  0  0  0  0
  162.2220  210.6080  148.4970 C   0  0  0  0  0  3  0  0  0  0  0  0
  161.2000  207.8360  152.3700 C   0  0  0  0  0  0  0  0  0  0  0  0
  160.8510  203.0050  150.4550 C   0  0  0  0  0  2  0  0  0  0  0  0
  161.2390  205.4850  150.7360 C   0  0  1  0  0  3  0  0  0  0  0  0
  161.4000  204.3940  148.4730 C   0  0  0  0  0  0  0  0  0  0  0  0
  161.1940  203.2850  147.6380 C   0  0  0  0  0  3  0  0  0  0  0  0
  160.9650  204.7580  145.7280 C   0  0  0  0  0  0  0  0  0  0  0  0
  161.3890  205.6810  147.9280 C   0  0  0  0  0  3  0  0  0  0  0  0
  160.7170  202.0590  145.2520 Cl  0  0  0  0  0  0  0  0  0  0  0  0
  160.9760  203.4650  146.2690 C   0  0  0  0  0  0  0  0  0  0  0  0
  160.7490  204.9550  144.3690 O   0  0  0  0  0  1  0  0  0  0  0  0
  161.1730  205.8630  146.5600 C   0  0  0  0  0  3  0  0  0  0  0  0
  1 21  1  6  0  0  0
  1 19  1  0  0  0  0
  1 20  1  0  0  0  0
  2  7  1  0  0  0  0
  4 12  1  0  0  0  0
  5 18  2  0  0  0  0
  6  9  2  0  0  0  0
  7  5  1  0  0  0  0
  7  4  2  0  0  0  0
  9  4  1  0  0  0  0
 10 15  1  1  0  0  0
 10 14  1  0  0  0  0
 11  5  1  0  0  0  0
 12  8  2  0  0  0  0
 13 15  1  0  0  0  0
 14  3  2  0  0  0  0
 16  6  1  0  0  0  0
 17  2  2  0  0  0  0
 17  6  1  0  0  0  0
 18 14  1  0  0  0  0
 18  8  1  0  0  0  0
 19 13  1  0  0  0  0
 20 11  1  6  0  0  0
 20 10  1  0  0  0  0
 22 21  2  0  0  0  0
 23 26  2  0  0  0  0
 23 28  1  0  0  0  0
 24 21  1  0  0  0  0
 25 26  1  0  0  0  0
 26 22  1  0  0  0  0
 27 23  1  0  0  0  0
 28 24  2  0  0  0  0
M  END
>  <MODEL>
1

>  <REMARK>
 VINA RESULT:     -10.6      0.000      0.000
  Name = 
  1 active torsions:
  status: ('A' for Active; 'I' for Inactive)
    1  A    between atoms: C_1  and  C_2
                            x       y       z     vdW  Elec       q    Type
                         _______ _______ _______ _____ _____    ______ ____

>  <TORSDO>
F 1

$$$$
=
 OpenBabel11052423023D

 28 32  0  0  1  0  0  0  0  0999 V2000
  160.7550  207.5820  151.7870 C   0  0  2  0  0  3  0  0  0  0  0  0
  160.6810  206.1940  146.7600 C   0  0  0  0  0  3  0  0  0  0  0  0
  161.2460  202.7100  151.7050 O   0  0  0  0  0  0  0  0  0  0  0  0
  161.2990  203.8440  146.7990 C   0  0  0  0  0  0  0  0  0  0  0  0
  160.8770  205.0150  148.9000 C   0  0  0  0  0  0  0  0  0  0  0  0
  161.1080  205.0150  144.6870 C   0  0  0  0  0  0  0  0  0  0  0  0
  160.9490  205.0270  147.4930 C   0  0  0  0  0  0  0  0  0  0  0  0
  161.4860  202.6570  148.8960 C   0  0  0  0  0  3  0  0  0  0  0  0
  161.3770  203.8460  145.4030 C   0  0  0  0  0  3  0  0  0  0  0  0
  160.7430  205.0550  151.8390 C   0  0  1  0  0  3  0  0  0  0  0  0
  160.4530  206.2470  149.6580 C   0  0  0  0  0  2  0  0  0  0  0  0
  161.5640  202.6690  147.5040 C   0  0  0  0  0  3  0  0  0  0  0  0
  160.9860  206.3410  153.9640 C   0  0  0  0  0  2  0  0  0  0  0  0
  161.0830  203.7960  151.0820 C   0  0  0  0  0  0  0  0  0  0  0  0
  161.4200  205.0900  153.2080 C   0  0  0  0  0  2  0  0  0  0  0  0
  161.1860  205.0130  143.3350 F   0  0  0  0  0  0  0  0  0  0  0  0
  160.7610  206.1870  145.3640 C   0  0  0  0  0  3  0  0  0  0  0  0
  161.1420  203.8170  149.6030 C   0  0  0  0  0  0  0  0  0  0  0  0
  161.3840  207.5900  153.1840 C   0  0  0  0  0  2  0  0  0  0  0  0
  161.1330  206.3000  151.0270 C   0  0  1  0  0  3  0  0  0  0  0  0
  161.1610  208.8180  151.0400 C   0  0  0  0  0  0  0  0  0  0  0  0
  160.7480  210.0910  151.4620 C   0  0  0  0  0  3  0  0  0  0  0  0
  161.9550  211.1010  149.6210 C   0  0  0  0  0  0  0  0  0  0  0  0
  161.9700  208.6950  149.9060 C   0  0  0  0  0  3  0  0  0  0  0  0
  160.6140  212.8080  151.3130 Cl  0  0  0  0  0  0  0  0  0  0  0  0
  161.1430  211.2300  150.7560 C   0  0  0  0  0  0  0  0  0  0  0  0
  162.3590  212.2240  148.9080 O   0  0  0  0  0  1  0  0  0  0  0  0
  162.3650  209.8330  149.1980 C   0  0  0  0  0  3  0  0  0  0  0  0
  1 21  1  6  0  0  0
  1 19  1  0  0  0  0
  2  7  1  0  0  0  0
  4  7  2  0  0  0  0
  4 12  1  0  0  0  0
  5 18  2  0  0  0  0
  5 11  1  0  0  0  0
  6 17  1  0  0  0  0
  6  9  2  0  0  0  0
  7  5  1  0  0  0  0
  8 18  1  0  0  0  0
  9  4  1  0  0  0  0
 10 15  1  1  0  0  0
 12  8  2  0  0  0  0
 14  3  2  0  0  0  0
 14 10  1  0  0  0  0
 15 13  1  0  0  0  0
 16  6  1  0  0  0  0
 17  2  2  0  0  0  0
 18 14  1  0  0  0  0
 19 13  1  0  0  0  0
 20 11  1  6  0  0  0
 20  1  1  0  0  0  0
 20 10  1  0  0  0  0
 21 22  1  0  0  0  0
 23 26  1  0  0  0  0
 24 21  2  0  0  0  0
 26 25  1  0  0  0  0
 26 22  2  0  0  0  0
 27 23  1  0  0  0  0
 28 23  2  0  0  0  0
 28 24  1  0  0  0  0
M  END
>  <MODEL>
2

>  <REMARK>
 VINA RESULT:     -10.6      3.537      6.406
  Name = 
  1 active torsions:
  status: ('A' for Active; 'I' for Inactive)
    1  A    between atoms: C_1  and  C_2
                            x       y       z     vdW  Elec       q    Type
                         _______ _______ _______ _____ _____    ______ ____

>  <TORSDO>
F 1

$$$$
=
 OpenBabel11052423023D

 28 32  0  0  1  0  0  0  0  0999 V2000
  161.7940  203.3160  148.4620 C   0  0  2  0  0  3  0  0  0  0  0  0
  162.2380  208.4810  149.0400 C   0  0  0  0  0  3  0  0  0  0  0  0
  160.7510  204.2630  153.1520 O   0  0  0  0  0  0  0  0  0  0  0  0
  161.3510  208.8930  151.2650 C   0  0  0  0  0  0  0  0  0  0  0  0
  161.6810  206.5950  150.5040 C   0  0  0  0  0  0  0  0  0  0  0  0
  161.8990  210.7510  149.8120 C   0  0  0  0  0  0  0  0  0  0  0  0
  161.7610  207.9810  150.2620 C   0  0  0  0  0  0  0  0  0  0  0  0
  160.8050  207.0500  152.7310 C   0  0  0  0  0  3  0  0  0  0  0  0
  161.4220  210.2700  151.0320 C   0  0  0  0  0  3  0  0  0  0  0  0
  161.5070  203.6920  150.9450 C   0  0  1  0  0  3  0  0  0  0  0  0
  162.1630  205.6060  149.4740 C   0  0  0  0  0  2  0  0  0  0  0  0
  160.8770  208.4220  152.4900 C   0  0  0  0  0  3  0  0  0  0  0  0
  161.1920  201.4080  149.9880 C   0  0  0  0  0  2  0  0  0  0  0  0
  161.1040  204.6770  152.0130 C   0  0  0  0  0  0  0  0  0  0  0  0
  160.6980  202.3990  151.0360 C   0  0  0  0  0  2  0  0  0  0  0  0
  161.9650  212.0860  149.5910 F   0  0  0  0  0  0  0  0  0  0  0  0
  162.3070  209.8590  148.8160 C   0  0  0  0  0  3  0  0  0  0  0  0
  161.2060  206.1310  151.7520 C   0  0  0  0  0  0  0  0  0  0  0  0
  161.0270  201.9960  148.5910 C   0  0  0  0  0  2  0  0  0  0  0  0
  161.3530  204.3110  149.5470 C   0  0  1  0  0  3  0  0  0  0  0  0
  161.6170  203.8750  147.0820 C   0  0  0  0  0  0  0  0  0  0  0  0
  160.6440  203.3630  146.2090 C   0  0  0  0  0  3  0  0  0  0  0  0
  161.3110  204.9620  144.5160 C   0  0  0  0  0  0  0  0  0  0  0  0
  162.4340  204.9300  146.6630 C   0  0  0  0  0  3  0  0  0  0  0  0
  159.2610  203.2440  143.8650 Cl  0  0  0  0  0  0  0  0  0  0  0  0
  160.4900  203.9040  144.9300 C   0  0  0  0  0  0  0  0  0  0  0  0
  161.1690  205.5120  143.2470 O   0  0  0  0  0  1  0  0  0  0  0  0
  162.2820  205.4710  145.3840 C   0  0  0  0  0  3  0  0  0  0  0  0
  1 21  1  6  0  0  0
  1 19  1  0  0  0  0
  1 20  1  0  0  0  0
  2  7  1  0  0  0  0
  4 12  1  0  0  0  0
  5 18  2  0  0  0  0
  6  9  2  0  0  0  0
  7  5  1  0  0  0  0
  7  4  2  0  0  0  0
  9  4  1  0  0  0  0
 10 15  1  6  0  0  0
 10 14  1  0  0  0  0
 11  5  1  0  0  0  0
 12  8  2  0  0  0  0
 13 15  1  0  0  0  0
 14  3  2  0  0  0  0
 16  6  1  0  0  0  0
 17  2  2  0  0  0  0
 17  6  1  0  0  0  0
 18 14  1  0  0  0  0
 18  8  1  0  0  0  0
 19 13  1  0  0  0  0
 20 11  1  1  0  0  0
 20 10  1  0  0  0  0
 22 21  2  0  0  0  0
 23 26  2  0  0  0  0
 23 28  1  0  0  0  0
 24 21  1  0  0  0  0
 25 26  1  0  0  0  0
 26 22  1  0  0  0  0
 27 23  1  0  0  0  0
 28 24  2  0  0  0  0
M  END
>  <MODEL>
3

>  <REMARK>
 VINA RESULT:     -10.2      1.209      1.716
  Name = 
  1 active torsions:
  status: ('A' for Active; 'I' for Inactive)
    1  A    between atoms: C_1  and  C_2
                            x       y       z     vdW  Elec       q    Type
                         _______ _______ _______ _____ _____    ______ ____

>  <TORSDO>
F 1

$$$$
=
 OpenBabel11052423023D

 28 32  0  0  1  0  0  0  0  0999 V2000
  161.8980  208.8970  152.0380 C   0  0  2  0  0  3  0  0  0  0  0  0
  161.4150  203.7430  151.4020 C   0  0  0  0  0  3  0  0  0  0  0  0
  161.8400  208.1140  147.2040 O   0  0  0  0  0  0  0  0  0  0  0  0
  161.0220  203.4870  149.0170 C   0  0  0  0  0  0  0  0  0  0  0  0
  161.6170  205.6800  149.9140 C   0  0  0  0  0  0  0  0  0  0  0  0
  160.8190  201.5780  150.4930 C   0  0  0  0  0  0  0  0  0  0  0  0
  161.3550  204.3110  150.1200 C   0  0  0  0  0  0  0  0  0  0  0  0
  161.2270  205.3810  147.5290 C   0  0  0  0  0  3  0  0  0  0  0  0
  160.7560  202.1290  149.2120 C   0  0  0  0  0  3  0  0  0  0  0  0
  162.1440  208.5510  149.5460 C   0  0  1  0  0  3  0  0  0  0  0  0
  162.0280  206.5650  151.0630 C   0  0  0  0  0  2  0  0  0  0  0  0
  160.9610  204.0270  147.7320 C   0  0  0  0  0  3  0  0  0  0  0  0
  162.0770  210.8650  150.4790 C   0  0  0  0  0  2  0  0  0  0  0  0
  161.8190  207.6540  148.3790 C   0  0  0  0  0  0  0  0  0  0  0  0
  161.6580  209.9810  149.3100 C   0  0  0  0  0  2  0  0  0  0  0  0
  160.5590  200.2610  150.6770 F   0  0  0  0  0  0  0  0  0  0  0  0
  161.1480  202.3830  151.5870 C   0  0  0  0  0  3  0  0  0  0  0  0
  161.5590  206.2130  148.6060 C   0  0  0  0  0  0  0  0  0  0  0  0
  161.4660  210.3440  151.7760 C   0  0  0  0  0  2  0  0  0  0  0  0
  161.5370  207.9970  150.8440 C   0  0  1  0  0  3  0  0  0  0  0  0
  161.2860  208.4070  153.3160 C   0  0  0  0  0  0  0  0  0  0  0  0
  160.8620  209.3030  154.3090 C   0  0  0  0  0  3  0  0  0  0  0  0
  160.1330  207.4460  155.6830 C   0  0  0  0  0  0  0  0  0  0  0  0
  161.1320  207.0310  153.5150 C   0  0  0  0  0  3  0  0  0  0  0  0
  159.7630  209.9710  156.7110 Cl  0  0  0  0  0  0  0  0  0  0  0  0
  160.2870  208.8250  155.4900 C   0  0  0  0  0  0  0  0  0  0  0  0
  159.5620  206.9540  156.8510 O   0  0  0  0  0  1  0  0  0  0  0  0
  160.5570  206.5520  154.6950 C   0  0  0  0  0  3  0  0  0  0  0  0
  1 21  1  1  0  0  0
  2 17  1  0  0  0  0
  3 14  2  0  0  0  0
  4  9  2  0  0  0  0
  4  7  1  0  0  0  0
  5  7  1  0  0  0  0
  5 11  1  0  0  0  0
  6 16  1  0  0  0  0
  6 17  2  0  0  0  0
  7  2  2  0  0  0  0
  8 12  2  0  0  0  0
  8 18  1  0  0  0  0
  9  6  1  0  0  0  0
 10 15  1  6  0  0  0
 10 20  1  0  0  0  0
 12  4  1  0  0  0  0
 13 19  1  0  0  0  0
 14 18  1  0  0  0  0
 14 10  1  0  0  0  0
 15 13  1  0  0  0  0
 18  5  2  0  0  0  0
 19  1  1  0  0  0  0
 20 11  1  1  0  0  0
 20  1  1  0  0  0  0
 21 24  2  0  0  0  0
 21 22  1  0  0  0  0
 22 26  2  0  0  0  0
 23 27  1  0  0  0  0
 24 28  1  0  0  0  0
 26 23  1  0  0  0  0
 26 25  1  0  0  0  0
 28 23  2  0  0  0  0
M  END
>  <MODEL>
4

>  <REMARK>
 VINA RESULT:      -9.9      3.917      7.982
  Name = 
  1 active torsions:
  status: ('A' for Active; 'I' for Inactive)
    1  A    between atoms: C_1  and  C_2
                            x       y       z     vdW  Elec       q    Type
                         _______ _______ _______ _____ _____    ______ ____

>  <TORSDO>
F 1

$$$$
=
 OpenBabel11052423023D

 28 32  0  0  1  0  0  0  0  0999 V2000
  160.7180  206.3040  151.7300 C   0  0  2  0  0  3  0  0  0  0  0  0
  160.7250  206.1080  146.5170 C   0  0  0  0  0  3  0  0  0  0  0  0
  161.0800  201.5680  150.5390 O   0  0  0  0  0  0  0  0  0  0  0  0
  161.2780  203.7930  146.0250 C   0  0  0  0  0  0  0  0  0  0  0  0
  160.8390  204.4640  148.3330 C   0  0  0  0  0  0  0  0  0  0  0  0
  161.1690  205.4220  144.2370 C   0  0  0  0  0  0  0  0  0  0  0  0
  160.9440  204.7960  146.9670 C   0  0  0  0  0  0  0  0  0  0  0  0
  161.3850  202.1520  147.7980 C   0  0  0  0  0  3  0  0  0  0  0  0
  161.3890  204.1130  144.6690 C   0  0  0  0  0  3  0  0  0  0  0  0
  160.6370  203.8340  151.1990 C   0  0  1  0  0  3  0  0  0  0  0  0
  160.4300  205.5020  149.3460 C   0  0  0  0  0  2  0  0  0  0  0  0
  161.4960  202.4810  146.4470 C   0  0  0  0  0  3  0  0  0  0  0  0
  160.8640  204.5910  153.5660 C   0  0  0  0  0  2  0  0  0  0  0  0
  160.9610  202.7720  150.1800 C   0  0  0  0  0  0  0  0  0  0  0  0
  161.2820  203.5340  152.5520 C   0  0  0  0  0  2  0  0  0  0  0  0
  161.2780  205.7280  142.9220 F   0  0  0  0  0  0  0  0  0  0  0  0
  160.8370  206.4190  145.1590 C   0  0  0  0  0  3  0  0  0  0  0  0
  161.0550  203.1300  148.7460 C   0  0  0  0  0  0  0  0  0  0  0  0
  161.3130  205.9720  153.1020 C   0  0  0  0  0  2  0  0  0  0  0  0
  161.0790  205.2190  150.7020 C   0  0  1  0  0  3  0  0  0  0  0  0
  161.1740  207.6650  151.2930 C   0  0  0  0  0  0  0  0  0  0  0  0
  161.6730  207.8840  150.0000 C   0  0  0  0  0  3  0  0  0  0  0  0
  161.9990  210.2280  150.5150 C   0  0  0  0  0  0  0  0  0  0  0  0
  161.0920  208.7330  152.1920 C   0  0  0  0  0  3  0  0  0  0  0  0
  162.7010  209.4020  147.9850 Cl  0  0  0  0  0  0  0  0  0  0  0  0
  162.0850  209.1610  149.6100 C   0  0  0  0  0  0  0  0  0  0  0  0
  162.4040  211.5050  150.1430 O   0  0  0  0  0  1  0  0  0  0  0  0
  161.5040  210.0110  151.8040 C   0  0  0  0  0  3  0  0  0  0  0  0
  1 21  1  6  0  0  0
  1 19  1  0  0  0  0
  2  7  1  0  0  0  0
  4 12  2  0  0  0  0
  4  7  1  0  0  0  0
  5 18  1  0  0  0  0
  5 11  1  0  0  0  0
  6  9  2  0  0  0  0
  6 17  1  0  0  0  0
  7  5  2  0  0  0  0
  8 18  2  0  0  0  0
  9  4  1  0  0  0  0
 10 15  1  1  0  0  0
 12  8  1  0  0  0  0
 14  3  2  0  0  0  0
 14 10  1  0  0  0  0
 15 13  1  0  0  0  0
 16  6  1  0  0  0  0
 17  2  2  0  0  0  0
 18 14  1  0  0  0  0
 19 13  1  0  0  0  0
 20 11  1  6  0  0  0
 20 10  1  0  0  0  0
 20  1  1  0  0  0  0
 21 24  1  0  0  0  0
 22 21  2  0  0  0  0
 23 28  1  0  0  0  0
 25 26  1  0  0  0  0
 26 22  1  0  0  0  0
 26 23  2  0  0  0  0
 27 23  1  0  0  0  0
 28 24  2  0  0  0  0
M  END
>  <MODEL>
5

>  <REMARK>
 VINA RESULT:      -9.6      3.073      6.211
  Name = 
  1 active torsions:
  status: ('A' for Active; 'I' for Inactive)
    1  A    between atoms: C_1  and  C_2
                            x       y       z     vdW  Elec       q    Type
                         _______ _______ _______ _____ _____    ______ ____

>  <TORSDO>
F 1

$$$$
=
 OpenBabel11052423023D

 28 32  0  0  1  0  0  0  0  0999 V2000
  160.8410  209.7180  152.1350 C   0  0  2  0  0  3  0  0  0  0  0  0
  160.7810  206.3140  148.1840 C   0  0  0  0  0  3  0  0  0  0  0  0
  161.2300  205.2730  154.1530 O   0  0  0  0  0  0  0  0  0  0  0  0
  161.3480  204.1970  149.2340 C   0  0  0  0  0  0  0  0  0  0  0  0
  160.9330  206.1610  150.6260 C   0  0  0  0  0  0  0  0  0  0  0  0
  161.2000  204.3550  146.8220 C   0  0  0  0  0  0  0  0  0  0  0  0
  161.0170  205.5690  149.3500 C   0  0  0  0  0  0  0  0  0  0  0  0
  161.4930  204.0190  151.6400 C   0  0  0  0  0  3  0  0  0  0  0  0
  161.4380  203.6010  147.9730 C   0  0  0  0  0  3  0  0  0  0  0  0
  160.7750  207.4560  153.2620 C   0  0  1  0  0  3  0  0  0  0  0  0
  160.5290  207.6050  150.7770 C   0  0  0  0  0  2  0  0  0  0  0  0
  161.5820  203.4330  150.3780 C   0  0  0  0  0  3  0  0  0  0  0  0
  161.0270  209.5240  154.6370 C   0  0  0  0  0  2  0  0  0  0  0  0
  161.0950  205.9890  153.1230 C   0  0  0  0  0  0  0  0  0  0  0  0
  161.4410  208.0640  154.4960 C   0  0  0  0  0  2  0  0  0  0  0  0
  161.2890  203.7730  145.6020 F   0  0  0  0  0  0  0  0  0  0  0  0
  160.8720  205.7090  146.9260 C   0  0  0  0  0  3  0  0  0  0  0  0
  161.1670  205.3750  151.7770 C   0  0  0  0  0  0  0  0  0  0  0  0
  161.4580  210.3130  153.4050 C   0  0  0  0  0  2  0  0  0  0  0  0
  161.1980  208.2280  152.0030 C   0  0  1  0  0  3  0  0  0  0  0  0
  161.2790  210.5090  150.9380 C   0  0  0  0  0  0  0  0  0  0  0  0
  160.8510  211.8310  150.7450 C   0  0  0  0  0  3  0  0  0  0  0  0
  162.1340  211.9540  148.6940 C   0  0  0  0  0  0  0  0  0  0  0  0
  162.1330  209.9150  150.0040 C   0  0  0  0  0  3  0  0  0  0  0  0
  160.7280  214.2060  149.4160 Cl  0  0  0  0  0  0  0  0  0  0  0  0
  161.2770  212.5530  149.6270 C   0  0  0  0  0  0  0  0  0  0  0  0
  162.5680  212.6590  147.5770 O   0  0  0  0  0  1  0  0  0  0  0  0
  162.5590  210.6350  148.8850 C   0  0  0  0  0  3  0  0  0  0  0  0
  1 21  1  6  0  0  0
  1 19  1  0  0  0  0
  2  7  1  0  0  0  0
  4  7  2  0  0  0  0
  4 12  1  0  0  0  0
  5 11  1  0  0  0  0
  5 18  2  0  0  0  0
  6 17  1  0  0  0  0
  6  9  2  0  0  0  0
  7  5  1  0  0  0  0
  8 18  1  0  0  0  0
  9  4  1  0  0  0  0
 10 15  1  1  0  0  0
 12  8  2  0  0  0  0
 14 10  1  0  0  0  0
 14  3  2  0  0  0  0
 15 13  1  0  0  0  0
 16  6  1  0  0  0  0
 17  2  2  0  0  0  0
 18 14  1  0  0  0  0
 19 13  1  0  0  0  0
 20 11  1  6  0  0  0
 20  1  1  0  0  0  0
 20 10  1  0  0  0  0
 22 21  1  0  0  0  0
 23 28  2  0  0  0  0
 23 26  1  0  0  0  0
 24 21  2  0  0  0  0
 25 26  1  0  0  0  0
 26 22  2  0  0  0  0
 27 23  1  0  0  0  0
 28 24  1  0  0  0  0
M  END
>  <MODEL>
6

>  <REMARK>
 VINA RESULT:      -9.3      3.564      6.478
  Name = 
  1 active torsions:
  status: ('A' for Active; 'I' for Inactive)
    1  A    between atoms: C_1  and  C_2
                            x       y       z     vdW  Elec       q    Type
                         _______ _______ _______ _____ _____    ______ ____

>  <TORSDO>
F 1

$$$$
=
 OpenBabel11052423023D

 28 32  0  0  1  0  0  0  0  0999 V2000
  161.9050  206.8460  151.6400 C   0  0  2  0  0  3  0  0  0  0  0  0
  161.9060  211.2920  148.9120 C   0  0  0  0  0  3  0  0  0  0  0  0
  160.0750  210.2770  154.6160 O   0  0  0  0  0  0  0  0  0  0  0  0
  160.6530  212.8320  150.3140 C   0  0  0  0  0  0  0  0  0  0  0  0
  161.2520  210.6270  151.1800 C   0  0  0  0  0  0  0  0  0  0  0  0
  161.2980  213.4810  148.0720 C   0  0  0  0  0  0  0  0  0  0  0  0
  161.2760  211.5730  150.1350 C   0  0  0  0  0  0  0  0  0  0  0  0
  160.0080  212.2030  152.5570 C   0  0  0  0  0  3  0  0  0  0  0  0
  160.6680  213.7750  149.2830 C   0  0  0  0  0  3  0  0  0  0  0  0
  161.2060  208.6050  153.3150 C   0  0  1  0  0  3  0  0  0  0  0  0
  161.9560  209.3020  151.0330 C   0  0  0  0  0  2  0  0  0  0  0  0
  160.0250  213.1370  151.5220 C   0  0  0  0  0  3  0  0  0  0  0  0
  161.1990  206.1950  153.9650 C   0  0  0  0  0  2  0  0  0  0  0  0
  160.5750  209.9610  153.5010 C   0  0  0  0  0  0  0  0  0  0  0  0
  160.4800  207.5300  154.1240 C   0  0  0  0  0  2  0  0  0  0  0  0
  161.3090  214.3970  147.0740 F   0  0  0  0  0  0  0  0  0  0  0  0
  161.9170  212.2410  147.8860 C   0  0  0  0  0  3  0  0  0  0  0  0
  160.6180  210.9520  152.4010 C   0  0  0  0  0  0  0  0  0  0  0  0
  161.2170  205.7800  152.4980 C   0  0  0  0  0  2  0  0  0  0  0  0
  161.2320  208.2150  151.8290 C   0  0  1  0  0  3  0  0  0  0  0  0
  161.9110  206.4170  150.2030 C   0  0  0  0  0  0  0  0  0  0  0  0
  161.5210  205.1210  149.8300 C   0  0  0  0  0  3  0  0  0  0  0  0
  161.9220  205.6630  147.5030 C   0  0  0  0  0  0  0  0  0  0  0  0
  162.3070  207.3290  149.2200 C   0  0  0  0  0  3  0  0  0  0  0  0
  161.0280  203.1180  148.0500 Cl  0  0  0  0  0  0  0  0  0  0  0  0
  161.5250  204.7440  148.4840 C   0  0  0  0  0  0  0  0  0  0  0  0
  161.9310  205.3040  146.1600 O   0  0  0  0  0  1  0  0  0  0  0  0
  162.3130  206.9530  147.8740 C   0  0  0  0  0  3  0  0  0  0  0  0
  1 21  1  6  0  0  0
  1 20  1  0  0  0  0
  1 19  1  0  0  0  0
  2  7  1  0  0  0  0
  4 12  1  0  0  0  0
  5 18  2  0  0  0  0
  6  9  2  0  0  0  0
  7  4  2  0  0  0  0
  7  5  1  0  0  0  0
  9  4  1  0  0  0  0
 10 14  1  0  0  0  0
 10 15  1  1  0  0  0
 11  5  1  0  0  0  0
 12  8  2  0  0  0  0
 13 15  1  0  0  0  0
 14  3  2  0  0  0  0
 16  6  1  0  0  0  0
 17  6  1  0  0  0  0
 17  2  2  0  0  0  0
 18  8  1  0  0  0  0
 18 14  1  0  0  0  0
 19 13  1  0  0  0  0
 20 11  1  6  0  0  0
 20 10  1  0  0  0  0
 22 21  1  0  0  0  0
 23 28  2  0  0  0  0
 23 26  1  0  0  0  0
 24 21  2  0  0  0  0
 25 26  1  0  0  0  0
 26 22  2  0  0  0  0
 27 23  1  0  0  0  0
 28 24  1  0  0  0  0
M  END
>  <MODEL>
7

>  <REMARK>
 VINA RESULT:      -9.0      1.688      2.889
  Name = 
  1 active torsions:
  status: ('A' for Active; 'I' for Inactive)
    1  A    between atoms: C_1  and  C_2
                            x       y       z     vdW  Elec       q    Type
                         _______ _______ _______ _____ _____    ______ ____

>  <TORSDO>
F 1

$$$$
=
 OpenBabel11052423023D

 28 32  0  0  1  0  0  0  0  0999 V2000
  161.2540  207.2520  153.6000 C   0  0  2  0  0  3  0  0  0  0  0  0
  161.7880  210.6650  149.6920 C   0  0  0  0  0  3  0  0  0  0  0  0
  159.6300  211.5470  155.3030 O   0  0  0  0  0  0  0  0  0  0  0  0
  160.6270  212.6460  150.4900 C   0  0  0  0  0  0  0  0  0  0  0  0
  160.9790  210.7620  152.0040 C   0  0  0  0  0  0  0  0  0  0  0  0
  161.4240  212.5430  148.2060 C   0  0  0  0  0  0  0  0  0  0  0  0
  161.1360  211.3470  150.7320 C   0  0  0  0  0  0  0  0  0  0  0  0
  159.8310  212.7690  152.7690 C   0  0  0  0  0  3  0  0  0  0  0  0
  160.7740  213.2330  149.2300 C   0  0  0  0  0  3  0  0  0  0  0  0
  160.6520  209.4800  154.6320 C   0  0  1  0  0  3  0  0  0  0  0  0
  161.5600  209.4030  152.3020 C   0  0  0  0  0  2  0  0  0  0  0  0
  159.9810  213.3460  151.5090 C   0  0  0  0  0  3  0  0  0  0  0  0
  160.3910  207.3830  155.9600 C   0  0  0  0  0  2  0  0  0  0  0  0
  160.1450  210.8750  154.3670 C   0  0  0  0  0  0  0  0  0  0  0  0
  159.7960  208.7560  155.6700 C   0  0  0  0  0  2  0  0  0  0  0  0
  161.5640  213.1150  146.9860 F   0  0  0  0  0  0  0  0  0  0  0  0
  161.9310  211.2600  148.4350 C   0  0  0  0  0  3  0  0  0  0  0  0
  160.3280  211.4840  153.0300 C   0  0  0  0  0  0  0  0  0  0  0  0
  160.4320  206.5480  154.6850 C   0  0  0  0  0  2  0  0  0  0  0  0
  160.7050  208.6630  153.3310 C   0  0  1  0  0  3  0  0  0  0  0  0
  161.2790  206.4140  152.3570 C   0  0  0  0  0  0  0  0  0  0  0  0
  161.1770  206.9980  151.0850 C   0  0  0  0  0  3  0  0  0  0  0  0
  161.3480  204.8100  150.0590 C   0  0  0  0  0  0  0  0  0  0  0  0
  161.4140  205.0270  152.4720 C   0  0  0  0  0  3  0  0  0  0  0  0
  161.0850  206.9600  148.3620 Cl  0  0  0  0  0  0  0  0  0  0  0  0
  161.2110  206.1990  149.9380 C   0  0  0  0  0  0  0  0  0  0  0  0
  161.3840  204.0010  148.9290 O   0  0  0  0  0  1  0  0  0  0  0  0
  161.4470  204.2270  151.3260 C   0  0  0  0  0  3  0  0  0  0  0  0
  1 21  1  6  0  0  0
  1 19  1  0  0  0  0
  2  7  1  0  0  0  0
  4  7  2  0  0  0  0
  4 12  1  0  0  0  0
  5 11  1  0  0  0  0
  5 18  2  0  0  0  0
  6 17  1  0  0  0  0
  6  9  2  0  0  0  0
  7  5  1  0  0  0  0
  8 18  1  0  0  0  0
  9  4  1  0  0  0  0
 10 15  1  1  0  0  0
 12  8  2  0  0  0  0
 14 10  1  0  0  0  0
 14  3  2  0  0  0  0
 15 13  1  0  0  0  0
 16  6  1  0  0  0  0
 17  2  2  0  0  0  0
 18 14  1  0  0  0  0
 19 13  1  0  0  0  0
 20 11  1  6  0  0  0
 20  1  1  0  0  0  0
 20 10  1  0  0  0  0
 21 24  1  0  0  0  0
 22 21  2  0  0  0  0
 23 28  1  0  0  0  0
 25 26  1  0  0  0  0
 26 23  2  0  0  0  0
 26 22  1  0  0  0  0
 27 23  1  0  0  0  0
 28 24  2  0  0  0  0
M  END
>  <MODEL>
8

>  <REMARK>
 VINA RESULT:      -8.9      2.468      4.170
  Name = 
  1 active torsions:
  status: ('A' for Active; 'I' for Inactive)
    1  A    between atoms: C_1  and  C_2
                            x       y       z     vdW  Elec       q    Type
                         _______ _______ _______ _____ _____    ______ ____

>  <TORSDO>
F 1

$$$$
=
 OpenBabel11052423023D

 28 32  0  0  1  0  0  0  0  0999 V2000
  160.8980  205.3600  148.3750 C   0  0  2  0  0  3  0  0  0  0  0  0
  160.5350  206.6200  153.4230 C   0  0  0  0  0  3  0  0  0  0  0  0
  162.3310  210.0290  148.7270 O   0  0  0  0  0  0  0  0  0  0  0  0
  161.6050  208.7980  153.5560 C   0  0  0  0  0  0  0  0  0  0  0  0
  161.2000  207.7830  151.3710 C   0  0  0  0  0  0  0  0  0  0  0  0
  160.9510  207.6410  155.5800 C   0  0  0  0  0  0  0  0  0  0  0  0
  161.1090  207.7250  152.7760 C   0  0  0  0  0  0  0  0  0  0  0  0
  162.2590  209.9690  151.5450 C   0  0  0  0  0  3  0  0  0  0  0  0
  161.5240  208.7480  154.9500 C   0  0  0  0  0  3  0  0  0  0  0  0
  161.3920  207.8380  148.4360 C   0  0  1  0  0  3  0  0  0  0  0  0
  160.6290  206.6800  150.5170 C   0  0  0  0  0  2  0  0  0  0  0  0
  162.1760  209.9100  152.9350 C   0  0  0  0  0  3  0  0  0  0  0  0
  161.6140  206.5780  146.2930 C   0  0  0  0  0  2  0  0  0  0  0  0
  161.8870  208.9850  149.2790 C   0  0  0  0  0  0  0  0  0  0  0  0
  162.1980  207.6980  147.1450 C   0  0  0  0  0  2  0  0  0  0  0  0
  160.8740  207.5970  156.9320 F   0  0  0  0  0  0  0  0  0  0  0  0
  160.4560  206.5780  154.8190 C   0  0  0  0  0  3  0  0  0  0  0  0
  161.7740  208.9190  150.7550 C   0  0  0  0  0  0  0  0  0  0  0  0
  161.6660  205.2570  147.0530 C   0  0  0  0  0  2  0  0  0  0  0  0
  161.4340  206.5220  149.2270 C   0  0  1  0  0  3  0  0  0  0  0  0
  160.9640  204.0510  149.1050 C   0  0  0  0  0  0  0  0  0  0  0  0
  161.2060  202.8490  148.4210 C   0  0  0  0  0  3  0  0  0  0  0  0
  161.0950  201.6310  150.5120 C   0  0  0  0  0  0  0  0  0  0  0  0
  160.7870  204.0340  150.4920 C   0  0  0  0  0  3  0  0  0  0  0  0
  161.5800  200.1570  148.2390 Cl  0  0  0  0  0  0  0  0  0  0  0  0
  161.2720  201.6420  149.1210 C   0  0  0  0  0  0  0  0  0  0  0  0
  161.1580  200.4380  151.2230 O   0  0  0  0  0  1  0  0  0  0  0  0
  160.8520  202.8270  151.1930 C   0  0  0  0  0  3  0  0  0  0  0  0
  1 21  1  1  0  0  0
  1 20  1  0  0  0  0
  2 17  1  0  0  0  0
  3 14  2  0  0  0  0
  4  9  2  0  0  0  0
  5  7  1  0  0  0  0
  6 16  1  0  0  0  0
  7  2  2  0  0  0  0
  7  4  1  0  0  0  0
  8 12  2  0  0  0  0
  9  6  1  0  0  0  0
 10 15  1  6  0  0  0
 10 20  1  0  0  0  0
 10 14  1  0  0  0  0
 11  5  1  0  0  0  0
 12  4  1  0  0  0  0
 13 19  1  0  0  0  0
 13 15  1  0  0  0  0
 14 18  1  0  0  0  0
 17  6  2  0  0  0  0
 18  5  2  0  0  0  0
 18  8  1  0  0  0  0
 19  1  1  0  0  0  0
 20 11  1  1  0  0  0
 21 24  1  0  0  0  0
 22 21  2  0  0  0  0
 22 26  1  0  0  0  0
 23 28  1  0  0  0  0
 23 27  1  0  0  0  0
 24 28  2  0  0  0  0
 25 26  1  0  0  0  0
 26 23  2  0  0  0  0
M  END
>  <MODEL>
9

>  <REMARK>
 VINA RESULT:      -8.5      2.976      4.911
  Name = 
  1 active torsions:
  status: ('A' for Active; 'I' for Inactive)
    1  A    between atoms: C_1  and  C_2
                            x       y       z     vdW  Elec       q    Type
                         _______ _______ _______ _____ _____    ______ ____

>  <TORSDO>
F 1

$$$$
