=
 OpenBabel11052422093D

 25 27  0  0  1  0  0  0  0  0999 V2000
  160.9680  207.0590  151.6850 N   0  0  1  0  0  0  0  0  0  0  0  0
  162.7750  205.6370  152.2840 O   0  0  0  0  0  1  0  0  0  0  0  0
  160.6780  204.6730  151.7510 N   0  0  0  0  0  0  0  0  0  0  0  0
  161.1100  203.5460  152.3650 O   0  0  0  0  0  1  0  0  0  0  0  0
  161.2950  207.0290  150.2510 C   0  0  0  0  0  2  0  0  0  0  0  0
  161.0300  204.5590  150.3360 C   0  0  0  0  0  2  0  0  0  0  0  0
  160.6250  205.8270  149.5890 C   0  0  2  0  0  3  0  0  0  0  0  0
  161.3850  205.8150  152.3500 C   0  0  2  0  0  3  0  0  0  0  0  0
  161.4850  208.2360  152.4080 C   0  0  2  0  0  3  0  0  0  0  0  0
  162.1530  209.7610  150.3310 C   0  0  0  0  0  1  0  0  0  0  0  0
  160.5690  208.5440  153.5870 C   0  0  2  0  0  3  0  0  0  0  0  0
  160.7690  209.7920  155.6940 C   0  0  0  0  0  0  0  0  0  0  0  0
  160.4880  210.0190  153.5150 C   0  0  0  0  0  0  0  0  0  0  0  0
  160.5840  210.6850  154.6120 N   0  0  0  0  0  0  0  0  0  0  0  0
  160.6010  210.1430  156.8900 O   0  0  0  0  0  0  0  0  0  0  0  0
  161.4700  209.5470  151.6370 C   0  0  2  0  0  3  0  0  0  0  0  0
  160.9430  210.5350  152.2800 N   0  0  0  0  0  2  0  0  0  0  0  0
  161.2600  208.1380  155.2250 S   0  0  0  0  0  0  0  0  0  0  0  0
  161.0480  205.7200  148.1650 C   0  0  0  0  0  3  0  0  0  0  0  0
  161.6320  204.6150  147.7090 C   0  0  0  0  0  3  0  0  0  0  0  0
  162.0750  204.4350  146.3150 C   0  0  0  0  0  0  0  0  0  0  0  0
  163.2860  204.7750  146.0210 N   0  0  0  0  0  2  0  0  0  0  0  0
  161.2120  203.8870  145.2460 C   0  0  0  0  0  0  0  0  0  0  0  0
  160.8270  202.5520  145.2870 O   0  0  0  0  0  1  0  0  0  0  0  0
  160.8150  204.6090  144.2940 O   0  0  0  0  0  0  0  0  0  0  0  0
  1  5  1  6  0  0  0
  1  8  1  0  0  0  0
  3  8  1  0  0  0  0
  3  4  1  0  0  0  0
  6  3  1  0  0  0  0
  7 19  1  6  0  0  0
  7  5  1  0  0  0  0
  7  6  1  0  0  0  0
  8  2  1  6  0  0  0
  9  1  1  6  0  0  0
  9 11  1  0  0  0  0
 11 13  1  1  0  0  0
 11 18  1  0  0  0  0
 12 15  2  0  0  0  0
 13 14  2  0  0  0  0
 14 12  1  0  0  0  0
 16 10  1  1  0  0  0
 16 17  1  0  0  0  0
 16  9  1  0  0  0  0
 17 13  1  0  0  0  0
 18 12  1  0  0  0  0
 20 19  2  0  0  0  0
 21 20  1  0  0  0  0
 22 21  2  0  0  0  0
 23 24  1  0  0  0  0
 23 21  1  0  0  0  0
 25 23  2  0  0  0  0
M  END
>  <MODEL>
1

>  <REMARK>
 VINA RESULT:      -8.0      0.000      0.000
  Name = 
  4 active torsions:
  status: ('A' for Active; 'I' for Inactive)
    1  A    between atoms: C_1  and  N_3
    2  A    between atoms: C_2  and  CA_21
    3  A    between atoms: C_6  and  C_23
    4  A    between atoms: C_15  and  CA_21
                            x       y       z     vdW  Elec       q    Type
                         _______ _______ _______ _____ _____    ______ ____

>  <TORSDO>
F 4

$$$$
=
 OpenBabel11052422093D

 25 27  0  0  1  0  0  0  0  0999 V2000
  161.2790  208.3980  153.8890 N   0  0  1  0  0  0  0  0  0  0  0  0
  160.0940  209.3170  152.0460 O   0  0  0  0  0  1  0  0  0  0  0  0
  162.3410  208.6300  151.7440 N   0  0  0  0  0  0  0  0  0  0  0  0
  162.3540  209.3810  150.6170 O   0  0  0  0  0  1  0  0  0  0  0  0
  160.8660  207.0190  153.5900 C   0  0  0  0  0  2  0  0  0  0  0  0
  161.9320  207.2790  151.3600 C   0  0  0  0  0  2  0  0  0  0  0  0
  161.8370  206.3870  152.5950 C   0  0  2  0  0  3  0  0  0  0  0  0
  161.3490  209.2080  152.6630 C   0  0  2  0  0  3  0  0  0  0  0  0
  160.4650  209.0750  154.9150 C   0  0  2  0  0  3  0  0  0  0  0  0
  160.0760  207.0300  156.5750 C   0  0  0  0  0  1  0  0  0  0  0  0
  161.0500  210.4550  155.1930 C   0  0  2  0  0  3  0  0  0  0  0  0
  160.2270  212.5520  156.1730 C   0  0  0  0  0  0  0  0  0  0  0  0
  160.9490  210.5230  156.6660 C   0  0  0  0  0  0  0  0  0  0  0  0
  160.5270  211.6190  157.1940 N   0  0  0  0  0  0  0  0  0  0  0  0
  160.0810  213.7790  156.4080 O   0  0  0  0  0  0  0  0  0  0  0  0
  160.4760  208.4360  156.2960 C   0  0  2  0  0  3  0  0  0  0  0  0
  160.7140  209.2630  157.2600 N   0  0  0  0  0  2  0  0  0  0  0  0
  160.0750  211.8490  154.5370 S   0  0  0  0  0  0  0  0  0  0  0  0
  161.3590  205.0350  152.1940 C   0  0  0  0  0  3  0  0  0  0  0  0
  161.4620  204.6220  150.9340 C   0  0  0  0  0  3  0  0  0  0  0  0
  161.0150  203.2990  150.4630 C   0  0  0  0  0  0  0  0  0  0  0  0
  160.7980  202.3870  151.3520 N   0  0  0  0  0  2  0  0  0  0  0  0
  160.8010  202.9670  149.0380 C   0  0  0  0  0  0  0  0  0  0  0  0
  160.1540  201.7850  148.6950 O   0  0  0  0  0  1  0  0  0  0  0  0
  161.1940  203.7370  148.1220 O   0  0  0  0  0  0  0  0  0  0  0  0
  1  5  1  6  0  0  0
  3  8  1  0  0  0  0
  4  3  1  0  0  0  0
  6  3  1  0  0  0  0
  6  7  1  0  0  0  0
  7 19  1  6  0  0  0
  7  5  1  0  0  0  0
  8  2  1  6  0  0  0
  8  1  1  0  0  0  0
  9  1  1  6  0  0  0
  9 11  1  0  0  0  0
  9 16  1  0  0  0  0
 11 18  1  6  0  0  0
 11 13  1  0  0  0  0
 12 15  2  0  0  0  0
 12 14  1  0  0  0  0
 13 14  2  0  0  0  0
 13 17  1  0  0  0  0
 16 10  1  1  0  0  0
 16 17  1  0  0  0  0
 18 12  1  0  0  0  0
 20 19  2  0  0  0  0
 21 20  1  0  0  0  0
 21 22  2  0  0  0  0
 23 21  1  0  0  0  0
 24 23  1  0  0  0  0
 25 23  2  0  0  0  0
M  END
>  <MODEL>
2

>  <REMARK>
 VINA RESULT:      -7.3      2.909      4.145
  Name = 
  4 active torsions:
  status: ('A' for Active; 'I' for Inactive)
    1  A    between atoms: C_1  and  N_3
    2  A    between atoms: C_2  and  CA_21
    3  A    between atoms: C_6  and  C_23
    4  A    between atoms: C_15  and  CA_21
                            x       y       z     vdW  Elec       q    Type
                         _______ _______ _______ _____ _____    ______ ____

>  <TORSDO>
F 4

$$$$
=
 OpenBabel11052422093D

 25 27  0  0  1  0  0  0  0  0999 V2000
  161.1690  205.8560  150.6610 N   0  0  1  0  0  0  0  0  0  0  0  0
  163.1860  207.0300  150.2150 O   0  0  0  0  0  1  0  0  0  0  0  0
  161.1900  208.2580  150.5610 N   0  0  0  0  0  0  0  0  0  0  0  0
  161.8130  209.3140  149.9830 O   0  0  0  0  0  1  0  0  0  0  0  0
  161.3740  205.8650  152.1170 C   0  0  0  0  0  2  0  0  0  0  0  0
  161.4320  208.3470  152.0010 C   0  0  0  0  0  2  0  0  0  0  0  0
  160.8080  207.1520  152.7150 C   0  0  2  0  0  3  0  0  0  0  0  0
  161.7950  207.0280  150.0300 C   0  0  2  0  0  3  0  0  0  0  0  0
  161.5920  204.6130  149.9890 C   0  0  2  0  0  3  0  0  0  0  0  0
  161.2600  202.9000  151.9990 C   0  0  0  0  0  1  0  0  0  0  0  0
  161.0140  204.5820  148.5790 C   0  0  2  0  0  3  0  0  0  0  0  0
  161.5310  203.3960  146.4900 C   0  0  0  0  0  0  0  0  0  0  0  0
  160.5830  203.1720  148.4720 C   0  0  0  0  0  0  0  0  0  0  0  0
  160.8400  202.5410  147.3800 N   0  0  0  0  0  0  0  0  0  0  0  0
  161.6430  203.1390  145.2640 O   0  0  0  0  0  0  0  0  0  0  0  0
  161.0550  203.3220  150.5870 C   0  0  2  0  0  3  0  0  0  0  0  0
  160.5280  202.5170  149.7240 N   0  0  0  0  0  2  0  0  0  0  0  0
  162.2270  204.8590  147.2450 S   0  0  0  0  0  0  0  0  0  0  0  0
  161.1180  207.2260  154.1690 C   0  0  0  0  0  3  0  0  0  0  0  0
  160.7820  208.2950  154.8840 C   0  0  0  0  0  3  0  0  0  0  0  0
  161.0540  208.4400  156.3260 C   0  0  0  0  0  0  0  0  0  0  0  0
  160.7500  207.4490  157.0970 N   0  0  0  0  0  2  0  0  0  0  0  0
  161.6510  209.6500  156.9290 C   0  0  0  0  0  0  0  0  0  0  0  0
  163.0020  209.6610  157.2600 O   0  0  0  0  0  1  0  0  0  0  0  0
  160.9600  210.6790  157.1500 O   0  0  0  0  0  0  0  0  0  0  0  0
  1  5  1  1  0  0  0
  3  6  1  0  0  0  0
  4  3  1  0  0  0  0
  5  7  1  0  0  0  0
  6  7  1  0  0  0  0
  7 19  1  1  0  0  0
  8  2  1  1  0  0  0
  8  3  1  0  0  0  0
  8  1  1  0  0  0  0
  9 16  1  0  0  0  0
  9  1  1  1  0  0  0
 11 18  1  6  0  0  0
 11  9  1  0  0  0  0
 12 18  1  0  0  0  0
 12 14  1  0  0  0  0
 13 11  1  0  0  0  0
 13 17  1  0  0  0  0
 14 13  2  0  0  0  0
 15 12  2  0  0  0  0
 16 10  1  6  0  0  0
 17 16  1  0  0  0  0
 19 20  2  0  0  0  0
 20 21  1  0  0  0  0
 21 23  1  0  0  0  0
 21 22  2  0  0  0  0
 23 25  2  0  0  0  0
 23 24  1  0  0  0  0
M  END
>  <MODEL>
3

>  <REMARK>
 VINA RESULT:      -7.0      2.666      8.559
  Name = 
  4 active torsions:
  status: ('A' for Active; 'I' for Inactive)
    1  A    between atoms: C_1  and  N_3
    2  A    between atoms: C_2  and  CA_21
    3  A    between atoms: C_6  and  C_23
    4  A    between atoms: C_15  and  CA_21
                            x       y       z     vdW  Elec       q    Type
                         _______ _______ _______ _____ _____    ______ ____

>  <TORSDO>
F 4

$$$$
=
 OpenBabel11052422093D

 25 27  0  0  1  0  0  0  0  0999 V2000
  161.7200  206.5030  148.8230 N   0  0  1  0  0  0  0  0  0  0  0  0
  160.2670  206.7270  150.6890 O   0  0  0  0  0  1  0  0  0  0  0  0
  162.5010  207.4960  150.8690 N   0  0  0  0  0  0  0  0  0  0  0  0
  162.3310  207.4840  152.2130 O   0  0  0  0  0  1  0  0  0  0  0  0
  161.3620  207.8150  148.2650 C   0  0  0  0  0  2  0  0  0  0  0  0
  162.1350  208.8310  150.3970 C   0  0  0  0  0  2  0  0  0  0  0  0
  162.2450  208.9010  148.8760 C   0  0  2  0  0  3  0  0  0  0  0  0
  161.5920  206.4970  150.2880 C   0  0  2  0  0  3  0  0  0  0  0  0
  160.9940  205.3640  148.2300 C   0  0  2  0  0  3  0  0  0  0  0  0
  160.8580  206.2040  145.7080 C   0  0  0  0  0  1  0  0  0  0  0  0
  161.5530  204.0630  148.7930 C   0  0  2  0  0  3  0  0  0  0  0  0
  160.7600  201.7460  148.9930 C   0  0  0  0  0  0  0  0  0  0  0  0
  161.6050  203.2190  147.5800 C   0  0  0  0  0  0  0  0  0  0  0  0
  161.2000  202.0000  147.6720 N   0  0  0  0  0  0  0  0  0  0  0  0
  160.5930  200.5780  149.4310 O   0  0  0  0  0  0  0  0  0  0  0  0
  161.1740  205.1710  146.7320 C   0  0  2  0  0  3  0  0  0  0  0  0
  161.4800  203.9650  146.3860 N   0  0  0  0  0  2  0  0  0  0  0  0
  160.4620  203.2070  149.9790 S   0  0  0  0  0  0  0  0  0  0  0  0
  161.8090  210.2460  148.4090 C   0  0  0  0  0  3  0  0  0  0  0  0
  162.3310  211.3510  148.9330 C   0  0  0  0  0  3  0  0  0  0  0  0
  161.9520  212.7150  148.5210 C   0  0  0  0  0  0  0  0  0  0  0  0
  162.8180  213.4030  147.8530 N   0  0  0  0  0  2  0  0  0  0  0  0
  160.6430  213.3290  148.8290 C   0  0  0  0  0  0  0  0  0  0  0  0
  159.5940  213.2080  147.9250 O   0  0  0  0  0  0  0  0  0  0  0  0
  160.4560  213.9640  149.9010 O   0  0  0  0  0  1  0  0  0  0  0  0
  1  5  1  6  0  0  0
  1  8  1  0  0  0  0
  3  4  1  0  0  0  0
  5  7  1  0  0  0  0
  6  3  1  0  0  0  0
  7 19  1  6  0  0  0
  7  6  1  0  0  0  0
  8  2  1  6  0  0  0
  8  3  1  0  0  0  0
  9 11  1  0  0  0  0
  9  1  1  1  0  0  0
 11 13  1  6  0  0  0
 11 18  1  0  0  0  0
 12 15  2  0  0  0  0
 12 18  1  0  0  0  0
 13 14  2  0  0  0  0
 14 12  1  0  0  0  0
 16 10  1  6  0  0  0
 16  9  1  0  0  0  0
 17 16  1  0  0  0  0
 17 13  1  0  0  0  0
 19 20  2  0  0  0  0
 21 23  1  0  0  0  0
 21 20  1  0  0  0  0
 22 21  2  0  0  0  0
 23 25  1  0  0  0  0
 24 23  2  0  0  0  0
M  END
>  <MODEL>
4

>  <REMARK>
 VINA RESULT:      -6.9      3.808      7.473
  Name = 
  4 active torsions:
  status: ('A' for Active; 'I' for Inactive)
    1  A    between atoms: C_1  and  N_3
    2  A    between atoms: C_2  and  CA_21
    3  A    between atoms: C_6  and  C_23
    4  A    between atoms: C_15  and  CA_21
                            x       y       z     vdW  Elec       q    Type
                         _______ _______ _______ _____ _____    ______ ____

>  <TORSDO>
F 4

$$$$
=
 OpenBabel11052422093D

 25 27  0  0  1  0  0  0  0  0999 V2000
  161.4770  204.7860  149.6160 N   0  0  1  0  0  0  0  0  0  0  0  0
  159.7880  203.4530  150.6240 O   0  0  0  0  0  1  0  0  0  0  0  0
  161.9250  203.5680  151.6410 N   0  0  0  0  0  0  0  0  0  0  0  0
  161.5880  202.4530  152.3310 O   0  0  0  0  0  1  0  0  0  0  0  0
  161.1050  205.9940  150.3660 C   0  0  0  0  0  2  0  0  0  0  0  0
  161.5340  204.7190  152.4560 C   0  0  0  0  0  2  0  0  0  0  0  0
  161.8290  206.0170  151.7110 C   0  0  2  0  0  3  0  0  0  0  0  0
  161.1650  203.5690  150.3820 C   0  0  2  0  0  3  0  0  0  0  0  0
  160.9090  204.7070  148.2570 C   0  0  2  0  0  3  0  0  0  0  0  0
  161.2060  207.2470  147.5170 C   0  0  0  0  0  1  0  0  0  0  0  0
  161.3990  203.4330  147.5800 C   0  0  2  0  0  3  0  0  0  0  0  0
  160.6610  202.0470  145.6900 C   0  0  0  0  0  0  0  0  0  0  0  0
  161.6990  203.9240  146.2180 C   0  0  0  0  0  0  0  0  0  0  0  0
  161.3250  203.2030  145.2180 N   0  0  0  0  0  0  0  0  0  0  0  0
  160.4560  201.0450  144.9570 O   0  0  0  0  0  0  0  0  0  0  0  0
  161.3650  205.7850  147.2850 C   0  0  2  0  0  3  0  0  0  0  0  0
  161.7690  205.3330  146.1450 N   0  0  0  0  0  2  0  0  0  0  0  0
  160.1400  202.1250  147.3990 S   0  0  0  0  0  0  0  0  0  0  0  0
  161.3670  207.1730  152.5270 C   0  0  0  0  0  3  0  0  0  0  0  0
  161.2490  207.0710  153.8480 C   0  0  0  0  0  3  0  0  0  0  0  0
  160.8010  208.1700  154.7220 C   0  0  0  0  0  0  0  0  0  0  0  0
  161.0670  209.3790  154.3510 N   0  0  0  0  0  2  0  0  0  0  0  0
  160.0680  207.9620  155.9880 C   0  0  0  0  0  0  0  0  0  0  0  0
  160.1850  208.8920  157.0150 O   0  0  0  0  0  1  0  0  0  0  0  0
  159.3310  206.9540  156.1580 O   0  0  0  0  0  0  0  0  0  0  0  0
  1  5  1  1  0  0  0
  1  8  1  0  0  0  0
  3  4  1  0  0  0  0
  3  6  1  0  0  0  0
  5  7  1  0  0  0  0
  7  6  1  0  0  0  0
  7 19  1  1  0  0  0
  8  2  1  1  0  0  0
  8  3  1  0  0  0  0
  9  1  1  1  0  0  0
 11 13  1  6  0  0  0
 11  9  1  0  0  0  0
 12 18  1  0  0  0  0
 14 12  1  0  0  0  0
 14 13  2  0  0  0  0
 15 12  2  0  0  0  0
 16 10  1  6  0  0  0
 16  9  1  0  0  0  0
 17 13  1  0  0  0  0
 17 16  1  0  0  0  0
 18 11  1  0  0  0  0
 19 20  2  0  0  0  0
 20 21  1  0  0  0  0
 21 23  1  0  0  0  0
 22 21  2  0  0  0  0
 23 25  2  0  0  0  0
 23 24  1  0  0  0  0
M  END
>  <MODEL>
5

>  <REMARK>
 VINA RESULT:      -6.8      2.747      8.210
  Name = 
  4 active torsions:
  status: ('A' for Active; 'I' for Inactive)
    1  A    between atoms: C_1  and  N_3
    2  A    between atoms: C_2  and  CA_21
    3  A    between atoms: C_6  and  C_23
    4  A    between atoms: C_15  and  CA_21
                            x       y       z     vdW  Elec       q    Type
                         _______ _______ _______ _____ _____    ______ ____

>  <TORSDO>
F 4

$$$$
=
 OpenBabel11052422093D

 25 27  0  0  1  0  0  0  0  0999 V2000
  161.5360  205.0780  149.7970 N   0  0  1  0  0  0  0  0  0  0  0  0
  159.8490  203.6200  150.6180 O   0  0  0  0  0  1  0  0  0  0  0  0
  161.9090  203.7670  151.7780 N   0  0  0  0  0  0  0  0  0  0  0  0
  161.5800  202.6000  152.3830 O   0  0  0  0  0  1  0  0  0  0  0  0
  161.0620  206.2250  150.5860 C   0  0  0  0  0  2  0  0  0  0  0  0
  161.4140  204.8510  152.6270 C   0  0  0  0  0  2  0  0  0  0  0  0
  161.6970  206.2010  151.9750 C   0  0  2  0  0  3  0  0  0  0  0  0
  161.2320  203.8080  150.4730 C   0  0  2  0  0  3  0  0  0  0  0  0
  161.0600  205.0540  148.4020 C   0  0  2  0  0  3  0  0  0  0  0  0
  161.5590  207.5810  147.7300 C   0  0  0  0  0  1  0  0  0  0  0  0
  161.5190  203.7620  147.7360 C   0  0  2  0  0  3  0  0  0  0  0  0
  160.8310  202.4510  145.7750 C   0  0  0  0  0  0  0  0  0  0  0  0
  161.9410  204.2530  146.4070 C   0  0  0  0  0  0  0  0  0  0  0  0
  161.5950  203.5710  145.3710 N   0  0  0  0  0  0  0  0  0  0  0  0
  160.6180  201.4740  145.0110 O   0  0  0  0  0  0  0  0  0  0  0  0
  161.6460  206.1160  147.4830 C   0  0  2  0  0  3  0  0  0  0  0  0
  162.1010  205.6560  146.3650 N   0  0  0  0  0  2  0  0  0  0  0  0
  160.1990  202.5370  147.4450 S   0  0  0  0  0  0  0  0  0  0  0  0
  161.1320  207.2880  152.8210 C   0  0  0  0  0  3  0  0  0  0  0  0
  161.1090  207.1790  154.1460 C   0  0  0  0  0  3  0  0  0  0  0  0
  160.5680  208.2110  155.0480 C   0  0  0  0  0  0  0  0  0  0  0  0
  159.9510  207.8170  156.1110 N   0  0  0  0  0  2  0  0  0  0  0  0
  160.6970  209.6630  154.8000 C   0  0  0  0  0  0  0  0  0  0  0  0
  161.9580  210.2280  154.6460 O   0  0  0  0  0  0  0  0  0  0  0  0
  159.6820  210.4060  154.7230 O   0  0  0  0  0  1  0  0  0  0  0  0
  1  8  1  0  0  0  0
  1  5  1  1  0  0  0
  3  4  1  0  0  0  0
  3  6  1  0  0  0  0
  5  7  1  0  0  0  0
  7  6  1  0  0  0  0
  7 19  1  1  0  0  0
  8  2  1  1  0  0  0
  8  3  1  0  0  0  0
  9  1  1  1  0  0  0
 11 13  1  6  0  0  0
 11  9  1  0  0  0  0
 12 18  1  0  0  0  0
 14 12  1  0  0  0  0
 14 13  2  0  0  0  0
 15 12  2  0  0  0  0
 16 10  1  6  0  0  0
 16  9  1  0  0  0  0
 17 13  1  0  0  0  0
 17 16  1  0  0  0  0
 18 11  1  0  0  0  0
 19 20  2  0  0  0  0
 20 21  1  0  0  0  0
 21 22  2  0  0  0  0
 23 21  1  0  0  0  0
 24 23  2  0  0  0  0
 25 23  1  0  0  0  0
M  END
>  <MODEL>
6

>  <REMARK>
 VINA RESULT:      -6.8      2.825      8.053
  Name = 
  4 active torsions:
  status: ('A' for Active; 'I' for Inactive)
    1  A    between atoms: C_1  and  N_3
    2  A    between atoms: C_2  and  CA_21
    3  A    between atoms: C_6  and  C_23
    4  A    between atoms: C_15  and  CA_21
                            x       y       z     vdW  Elec       q    Type
                         _______ _______ _______ _____ _____    ______ ____

>  <TORSDO>
F 4

$$$$
=
 OpenBabel11052422093D

 25 27  0  0  1  0  0  0  0  0999 V2000
  161.1530  206.0750  150.3810 N   0  0  1  0  0  0  0  0  0  0  0  0
  163.2240  207.0490  149.7440 O   0  0  0  0  0  1  0  0  0  0  0  0
  161.2810  208.4030  149.7920 N   0  0  0  0  0  0  0  0  0  0  0  0
  161.9560  209.2900  149.0220 O   0  0  0  0  0  1  0  0  0  0  0  0
  161.3420  206.3750  151.8080 C   0  0  0  0  0  2  0  0  0  0  0  0
  161.5110  208.7760  151.1880 C   0  0  0  0  0  2  0  0  0  0  0  0
  160.8270  207.7790  152.1190 C   0  0  2  0  0  3  0  0  0  0  0  0
  161.8370  207.0660  149.5360 C   0  0  2  0  0  3  0  0  0  0  0  0
  161.5280  204.7050  149.9870 C   0  0  2  0  0  3  0  0  0  0  0  0
  161.3560  203.5100  152.3590 C   0  0  0  0  0  1  0  0  0  0  0  0
  160.8450  204.3550  148.6700 C   0  0  2  0  0  3  0  0  0  0  0  0
  161.2060  202.7100  146.8810 C   0  0  0  0  0  0  0  0  0  0  0  0
  160.4120  202.9650  148.9270 C   0  0  0  0  0  0  0  0  0  0  0  0
  160.5870  202.0940  147.9950 N   0  0  0  0  0  0  0  0  0  0  0  0
  161.2250  202.1740  145.7430 O   0  0  0  0  0  0  0  0  0  0  0  0
  161.0430  203.5940  150.9070 C   0  0  2  0  0  3  0  0  0  0  0  0
  160.4540  202.6200  150.2960 N   0  0  0  0  0  2  0  0  0  0  0  0
  161.9520  204.2980  147.2210 S   0  0  0  0  0  0  0  0  0  0  0  0
  161.1240  208.1380  153.5330 C   0  0  0  0  0  3  0  0  0  0  0  0
  160.5010  209.1530  154.1240 C   0  0  0  0  0  3  0  0  0  0  0  0
  160.7400  209.5650  155.5190 C   0  0  0  0  0  0  0  0  0  0  0  0
  159.7090  209.8290  156.2520 N   0  0  0  0  0  2  0  0  0  0  0  0
  162.0860  209.6900  156.1160 C   0  0  0  0  0  0  0  0  0  0  0  0
  162.9400  210.7010  155.6900 O   0  0  0  0  0  0  0  0  0  0  0  0
  162.4790  208.8950  157.0110 O   0  0  0  0  0  1  0  0  0  0  0  0
  1  5  1  1  0  0  0
  3  6  1  0  0  0  0
  4  3  1  0  0  0  0
  5  7  1  0  0  0  0
  6  7  1  0  0  0  0
  7 19  1  1  0  0  0
  8  2  1  1  0  0  0
  8  3  1  0  0  0  0
  8  1  1  0  0  0  0
  9  1  1  1  0  0  0
  9 16  1  0  0  0  0
 11 18  1  6  0  0  0
 11 13  1  0  0  0  0
 11  9  1  0  0  0  0
 12 18  1  0  0  0  0
 12 14  1  0  0  0  0
 13 17  1  0  0  0  0
 14 13  2  0  0  0  0
 15 12  2  0  0  0  0
 16 10  1  6  0  0  0
 17 16  1  0  0  0  0
 19 20  2  0  0  0  0
 20 21  1  0  0  0  0
 21 23  1  0  0  0  0
 21 22  2  0  0  0  0
 23 25  1  0  0  0  0
 24 23  2  0  0  0  0
M  END
>  <MODEL>
7

>  <REMARK>
 VINA RESULT:      -6.8      2.733      8.425
  Name = 
  4 active torsions:
  status: ('A' for Active; 'I' for Inactive)
    1  A    between atoms: C_1  and  N_3
    2  A    between atoms: C_2  and  CA_21
    3  A    between atoms: C_6  and  C_23
    4  A    between atoms: C_15  and  CA_21
                            x       y       z     vdW  Elec       q    Type
                         _______ _______ _______ _____ _____    ______ ____

>  <TORSDO>
F 4

$$$$
=
 OpenBabel11052422093D

 25 27  0  0  1  0  0  0  0  0999 V2000
  161.5510  205.3550  149.9910 N   0  0  1  0  0  0  0  0  0  0  0  0
  160.0780  206.6130  148.6150 O   0  0  0  0  0  1  0  0  0  0  0  0
  162.2220  206.0410  147.7860 N   0  0  0  0  0  0  0  0  0  0  0  0
  162.0510  207.0080  146.8530 O   0  0  0  0  0  1  0  0  0  0  0  0
  161.0640  204.0600  149.4930 C   0  0  0  0  0  2  0  0  0  0  0  0
  161.7250  204.7910  147.2120 C   0  0  0  0  0  2  0  0  0  0  0  0
  161.8310  203.6630  148.2340 C   0  0  2  0  0  3  0  0  0  0  0  0
  161.4200  206.4010  148.9650 C   0  0  2  0  0  3  0  0  0  0  0  0
  160.9450  205.7920  151.2620 C   0  0  2  0  0  3  0  0  0  0  0  0
  160.5040  203.4130  152.3710 C   0  0  0  0  0  1  0  0  0  0  0  0
  161.7180  206.9890  151.8030 C   0  0  2  0  0  3  0  0  0  0  0  0
  161.2680  208.8010  153.4000 C   0  0  0  0  0  0  0  0  0  0  0  0
  161.7930  206.6610  153.2420 C   0  0  0  0  0  0  0  0  0  0  0  0
  161.5670  207.6030  154.0910 N   0  0  0  0  0  0  0  0  0  0  0  0
  161.2960  209.9250  153.9640 O   0  0  0  0  0  0  0  0  0  0  0  0
  161.0350  204.8030  152.4140 C   0  0  2  0  0  3  0  0  0  0  0  0
  161.4770  205.3110  153.5160 N   0  0  0  0  0  2  0  0  0  0  0  0
  160.8490  208.5880  151.6760 S   0  0  0  0  0  0  0  0  0  0  0  0
  161.2640  202.4140  147.6550 C   0  0  0  0  0  3  0  0  0  0  0  0
  161.1780  202.2510  146.3380 C   0  0  0  0  0  3  0  0  0  0  0  0
  160.6310  201.0450  145.6920 C   0  0  0  0  0  0  0  0  0  0  0  0
  159.6970  201.2040  144.8140 N   0  0  0  0  0  2  0  0  0  0  0  0
  161.0940  199.6730  145.9930 C   0  0  0  0  0  0  0  0  0  0  0  0
  161.7950  199.4240  147.1670 O   0  0  0  0  0  1  0  0  0  0  0  0
  160.8650  198.7180  145.2040 O   0  0  0  0  0  0  0  0  0  0  0  0
  1  5  1  6  0  0  0
  3  8  1  0  0  0  0
  4  3  1  0  0  0  0
  6  3  1  0  0  0  0
  6  7  1  0  0  0  0
  7 19  1  6  0  0  0
  7  5  1  0  0  0  0
  8  2  1  6  0  0  0
  8  1  1  0  0  0  0
  9  1  1  6  0  0  0
  9 11  1  0  0  0  0
  9 16  1  0  0  0  0
 11 18  1  1  0  0  0
 11 13  1  0  0  0  0
 12 15  2  0  0  0  0
 12 14  1  0  0  0  0
 13 17  1  0  0  0  0
 13 14  2  0  0  0  0
 16 10  1  1  0  0  0
 16 17  1  0  0  0  0
 18 12  1  0  0  0  0
 20 19  2  0  0  0  0
 21 23  1  0  0  0  0
 21 20  1  0  0  0  0
 22 21  2  0  0  0  0
 23 24  1  0  0  0  0
 25 23  2  0  0  0  0
M  END
>  <MODEL>
8

>  <REMARK>
 VINA RESULT:      -6.7      2.729      4.123
  Name = 
  4 active torsions:
  status: ('A' for Active; 'I' for Inactive)
    1  A    between atoms: C_1  and  N_3
    2  A    between atoms: C_2  and  CA_21
    3  A    between atoms: C_6  and  C_23
    4  A    between atoms: C_15  and  CA_21
                            x       y       z     vdW  Elec       q    Type
                         _______ _______ _______ _____ _____    ______ ____

>  <TORSDO>
F 4

$$$$
=
 OpenBabel11052422093D

 25 27  0  0  1  0  0  0  0  0999 V2000
  160.6510  206.9700  149.1620 N   0  0  1  0  0  0  0  0  0  0  0  0
  162.9220  207.1300  148.4820 O   0  0  0  0  0  1  0  0  0  0  0  0
  161.7390  209.1100  149.0240 N   0  0  0  0  0  0  0  0  0  0  0  0
  162.7060  209.7940  148.3660 O   0  0  0  0  0  1  0  0  0  0  0  0
  160.9880  206.8350  150.5870 C   0  0  0  0  0  2  0  0  0  0  0  0
  162.1430  209.0300  150.4280 C   0  0  0  0  0  2  0  0  0  0  0  0
  161.1260  208.2160  151.2230 C   0  0  2  0  0  3  0  0  0  0  0  0
  161.6680  207.7580  148.4490 C   0  0  2  0  0  3  0  0  0  0  0  0
  160.3980  205.6940  148.4670 C   0  0  2  0  0  3  0  0  0  0  0  0
  160.4560  206.5550  145.9480 C   0  0  0  0  0  1  0  0  0  0  0  0
  161.2060  204.5880  149.1360 C   0  0  2  0  0  3  0  0  0  0  0  0
  161.0980  202.1350  149.2240 C   0  0  0  0  0  0  0  0  0  0  0  0
  161.7060  203.8420  147.9610 C   0  0  0  0  0  0  0  0  0  0  0  0
  161.6630  202.5560  147.9970 N   0  0  0  0  0  0  0  0  0  0  0  0
  161.2040  200.9530  149.6420 O   0  0  0  0  0  0  0  0  0  0  0  0
  160.8790  205.6180  147.0260 C   0  0  2  0  0  3  0  0  0  0  0  0
  161.5770  204.5650  146.7540 N   0  0  0  0  0  2  0  0  0  0  0  0
  160.2260  203.4100  150.1240 S   0  0  0  0  0  0  0  0  0  0  0  0
  161.5850  208.0920  152.6340 C   0  0  0  0  0  3  0  0  0  0  0  0
  160.8090  208.4830  153.6400 C   0  0  0  0  0  3  0  0  0  0  0  0
  161.1930  208.3900  155.0600 C   0  0  0  0  0  0  0  0  0  0  0  0
  160.8440  207.3280  155.7080 N   0  0  0  0  0  2  0  0  0  0  0  0
  161.9520  209.4390  155.7740 C   0  0  0  0  0  0  0  0  0  0  0  0
  162.4100  209.2020  157.0650 O   0  0  0  0  0  1  0  0  0  0  0  0
  162.1960  210.5500  155.2340 O   0  0  0  0  0  0  0  0  0  0  0  0
  1  5  1  1  0  0  0
  3  6  1  0  0  0  0
  4  3  1  0  0  0  0
  5  7  1  0  0  0  0
  6  7  1  0  0  0  0
  7 19  1  1  0  0  0
  8  2  1  1  0  0  0
  8  3  1  0  0  0  0
  8  1  1  0  0  0  0
  9 11  1  0  0  0  0
  9  1  1  1  0  0  0
 11 13  1  6  0  0  0
 11 18  1  0  0  0  0
 12 15  2  0  0  0  0
 12 18  1  0  0  0  0
 13 14  2  0  0  0  0
 14 12  1  0  0  0  0
 16 10  1  6  0  0  0
 16  9  1  0  0  0  0
 17 16  1  0  0  0  0
 17 13  1  0  0  0  0
 19 20  2  0  0  0  0
 20 21  1  0  0  0  0
 21 22  2  0  0  0  0
 21 23  1  0  0  0  0
 23 24  1  0  0  0  0
 25 23  2  0  0  0  0
M  END
>  <MODEL>
9

>  <REMARK>
 VINA RESULT:      -6.6      2.878      7.956
  Name = 
  4 active torsions:
  status: ('A' for Active; 'I' for Inactive)
    1  A    between atoms: C_1  and  N_3
    2  A    between atoms: C_2  and  CA_21
    3  A    between atoms: C_6  and  C_23
    4  A    between atoms: C_15  and  CA_21
                            x       y       z     vdW  Elec       q    Type
                         _______ _______ _______ _____ _____    ______ ____

>  <TORSDO>
F 4

$$$$
