=
 OpenBabel11052422333D

 31 36  0  0  1  0  0  0  0  0999 V2000
  161.3400  211.4610  150.1180 C   0  0  0  0  0  0  0  0  0  0  0  0
  161.2200  208.4890  152.5320 C   0  0  0  0  0  0  0  0  0  0  0  0
  160.8360  209.0020  153.8030 C   0  0  0  0  0  0  0  0  0  0  0  0
  160.2350  210.8430  155.2890 C   0  0  0  0  0  0  0  0  0  0  0  0
  161.4430  209.3380  151.3150 C   0  0  0  0  0  0  0  0  0  0  0  0
  162.0100  210.8930  149.0340 C   0  0  0  0  0  3  0  0  0  0  0  0
  160.6050  210.3700  154.0280 C   0  0  0  0  0  3  0  0  0  0  0  0
  161.7990  206.4490  151.1140 C   0  0  1  0  0  3  0  0  0  0  0  0
  160.9700  212.7620  150.0790 F   0  0  0  0  0  0  0  0  0  0  0  0
  160.9300  206.7580  154.7240 C   0  0  0  0  0  3  0  0  0  0  0  0
  160.0090  212.1990  155.4820 O   0  0  0  0  0  1  0  0  0  0  0  0
  162.4500  207.3920  150.2110 N   0  0  0  0  0  2  0  0  0  0  0  0
  161.4550  207.0930  152.4290 C   0  0  0  0  0  0  0  0  0  0  0  0
  161.0640  210.6900  151.2500 C   0  0  0  0  0  3  0  0  0  0  0  0
  160.0910  209.9540  156.3540 C   0  0  0  0  0  3  0  0  0  0  0  0
  162.0910  208.7720  150.1990 C   0  0  0  0  0  0  0  0  0  0  0  0
  162.3860  209.5500  149.0750 C   0  0  0  0  0  3  0  0  0  0  0  0
  161.2980  206.2840  153.5090 N   0  0  0  0  0  0  0  0  0  0  0  0
  160.6930  208.1160  154.8980 C   0  0  0  0  0  0  0  0  0  0  0  0
  160.3220  208.5910  156.1590 C   0  0  0  0  0  3  0  0  0  0  0  0
  160.5300  205.9030  150.4700 C   0  0  0  0  0  2  0  0  0  0  0  0
  160.8510  205.0240  145.3020 C   0  0  2  0  0  3  0  0  0  0  0  0
  160.8310  206.3780  147.4030 C   0  0  0  0  0  3  0  0  0  0  0  0
  161.3760  202.9570  148.4720 C   0  0  0  0  0  3  0  0  0  0  0  0
  161.1030  203.6030  149.6780 C   0  0  0  0  0  3  0  0  0  0  0  0
  161.4450  205.2160  143.9930 N   0  0  0  0  0  1  0  0  0  0  0  0
  160.8600  204.9120  149.4550 N   0  0  0  0  0  0  0  0  0  0  0  0
  160.8340  206.3380  146.0640 C   0  0  0  0  0  3  0  0  0  0  0  0
  161.2580  203.9400  147.5070 C   0  0  0  0  0  0  0  0  0  0  0  0
  160.9550  205.1110  148.1340 C   0  0  0  0  0  0  0  0  0  0  0  0
  161.5670  203.8750  146.0440 C   0  0  0  0  0  2  0  0  0  0  0  0
  1 14  1  0  0  0  0
  2  3  1  0  0  0  0
  3  7  2  0  0  0  0
  3 19  1  0  0  0  0
  4 11  1  0  0  0  0
  4 15  2  0  0  0  0
  5  2  1  0  0  0  0
  6 17  1  0  0  0  0
  6  1  2  0  0  0  0
  7  4  1  0  0  0  0
  8 21  1  6  0  0  0
  8 13  1  0  0  0  0
  9  1  1  0  0  0  0
 10 19  1  0  0  0  0
 12  8  1  0  0  0  0
 13  2  2  0  0  0  0
 13 18  1  0  0  0  0
 14  5  2  0  0  0  0
 16 12  1  0  0  0  0
 16  5  1  0  0  0  0
 17 16  2  0  0  0  0
 18 10  2  0  0  0  0
 19 20  2  0  0  0  0
 20 15  1  0  0  0  0
 22 26  1  6  0  0  0
 22 31  1  0  0  0  0
 22 28  1  0  0  0  0
 23 30  1  0  0  0  0
 24 25  2  0  0  0  0
 27 25  1  0  0  0  0
 27 21  1  0  0  0  0
 28 23  2  0  0  0  0
 29 30  2  0  0  0  0
 29 24  1  0  0  0  0
 30 27  1  0  0  0  0
 31 29  1  0  0  0  0
M  END
>  <MODEL>
1

>  <REMARK>
 VINA RESULT:      -9.8      0.000      0.000
  Name = 
  2 active torsions:
  status: ('A' for Active; 'I' for Inactive)
    1  A    between atoms: N_9  and  C_23
    2  A    between atoms: C_15  and  C_23
                            x       y       z     vdW  Elec       q    Type
                         _______ _______ _______ _____ _____    ______ ____

>  <TORSDO>
F 2

$$$$
=
 OpenBabel11052422333D

 31 36  0  0  1  0  0  0  0  0999 V2000
  160.5260  201.7830  150.4680 C   0  0  0  0  0  0  0  0  0  0  0  0
  161.4310  205.0020  148.6010 C   0  0  0  0  0  0  0  0  0  0  0  0
  161.2950  204.7270  147.2100 C   0  0  0  0  0  0  0  0  0  0  0  0
  160.8070  203.2230  145.3510 C   0  0  0  0  0  0  0  0  0  0  0  0
  161.2260  203.9820  149.6830 C   0  0  0  0  0  0  0  0  0  0  0  0
  160.9890  202.0810  151.7500 C   0  0  0  0  0  3  0  0  0  0  0  0
  160.9270  203.4620  146.7220 C   0  0  0  0  0  3  0  0  0  0  0  0
  161.9430  206.7130  150.4220 C   0  0  1  0  0  3  0  0  0  0  0  0
  159.9690  200.5750  150.2140 F   0  0  0  0  0  0  0  0  0  0  0  0
  161.9380  207.0130  146.7090 C   0  0  0  0  0  3  0  0  0  0  0  0
  160.4380  201.9650  144.8960 O   0  0  0  0  0  1  0  0  0  0  0  0
  162.2110  205.5640  151.2800 N   0  0  0  0  0  2  0  0  0  0  0  0
  161.8370  206.3090  148.9780 C   0  0  0  0  0  0  0  0  0  0  0  0
  160.6480  202.7250  149.4440 C   0  0  0  0  0  3  0  0  0  0  0  0
  161.0580  204.2480  144.4390 C   0  0  0  0  0  3  0  0  0  0  0  0
  161.6610  204.2800  150.9900 C   0  0  0  0  0  0  0  0  0  0  0  0
  161.5570  203.3300  152.0100 C   0  0  0  0  0  3  0  0  0  0  0  0
  162.0660  207.2600  148.0340 N   0  0  0  0  0  0  0  0  0  0  0  0
  161.5530  205.7530  146.2690 C   0  0  0  0  0  0  0  0  0  0  0  0
  161.4320  205.5120  144.8970 C   0  0  0  0  0  3  0  0  0  0  0  0
  160.6510  207.3950  150.8540 C   0  0  0  0  0  2  0  0  0  0  0  0
  160.7470  208.7970  155.9140 C   0  0  2  0  0  3  0  0  0  0  0  0
  160.8210  207.2370  153.9640 C   0  0  0  0  0  3  0  0  0  0  0  0
  161.4040  210.5350  152.5760 C   0  0  0  0  0  3  0  0  0  0  0  0
  161.1850  209.7680  151.4310 C   0  0  0  0  0  3  0  0  0  0  0  0
  161.2850  208.7430  157.2610 N   0  0  0  0  0  1  0  0  0  0  0  0
  160.9350  208.4860  151.7760 N   0  0  0  0  0  0  0  0  0  0  0  0
  160.7660  207.4120  155.2900 C   0  0  0  0  0  3  0  0  0  0  0  0
  161.2460  209.6540  153.6300 C   0  0  0  0  0  0  0  0  0  0  0  0
  160.9730  208.4230  153.1130 C   0  0  0  0  0  0  0  0  0  0  0  0
  161.4930  209.8690  155.0910 C   0  0  0  0  0  2  0  0  0  0  0  0
  1  6  1  0  0  0  0
  2 13  1  0  0  0  0
  2  5  1  0  0  0  0
  3  2  2  0  0  0  0
  4  7  2  0  0  0  0
  5 16  2  0  0  0  0
  6 17  2  0  0  0  0
  7  3  1  0  0  0  0
  8 21  1  1  0  0  0
  8 12  1  0  0  0  0
  9  1  1  0  0  0  0
 10 18  1  0  0  0  0
 11  4  1  0  0  0  0
 13  8  1  0  0  0  0
 14  5  1  0  0  0  0
 14  1  2  0  0  0  0
 15 20  2  0  0  0  0
 15  4  1  0  0  0  0
 16 12  1  0  0  0  0
 16 17  1  0  0  0  0
 18 13  2  0  0  0  0
 19 10  2  0  0  0  0
 19  3  1  0  0  0  0
 20 19  1  0  0  0  0
 21 27  1  0  0  0  0
 22 26  1  1  0  0  0
 23 28  2  0  0  0  0
 24 29  1  0  0  0  0
 25 27  1  0  0  0  0
 25 24  2  0  0  0  0
 27 30  1  0  0  0  0
 28 22  1  0  0  0  0
 29 31  1  0  0  0  0
 30 29  2  0  0  0  0
 30 23  1  0  0  0  0
 31 22  1  0  0  0  0
M  END
>  <MODEL>
2

>  <REMARK>
 VINA RESULT:      -9.7      3.806      8.754
  Name = 
  2 active torsions:
  status: ('A' for Active; 'I' for Inactive)
    1  A    between atoms: N_9  and  C_23
    2  A    between atoms: C_15  and  C_23
                            x       y       z     vdW  Elec       q    Type
                         _______ _______ _______ _____ _____    ______ ____

>  <TORSDO>
F 2

$$$$
=
 OpenBabel11052422333D

 31 36  0  0  1  0  0  0  0  0999 V2000
  160.4580  212.3150  151.4630 C   0  0  0  0  0  0  0  0  0  0  0  0
  161.1540  208.6480  152.3220 C   0  0  0  0  0  0  0  0  0  0  0  0
  160.7930  208.4660  153.6870 C   0  0  0  0  0  0  0  0  0  0  0  0
  159.9750  209.3050  155.8280 C   0  0  0  0  0  0  0  0  0  0  0  0
  161.0910  209.9640  151.6050 C   0  0  0  0  0  0  0  0  0  0  0  0
  161.1260  212.4320  150.2440 C   0  0  0  0  0  3  0  0  0  0  0  0
  160.3160  209.5160  154.4900 C   0  0  0  0  0  3  0  0  0  0  0  0
  161.9960  207.5990  150.1550 C   0  0  1  0  0  3  0  0  0  0  0  0
  159.8330  213.3900  151.9990 F   0  0  0  0  0  0  0  0  0  0  0  0
  161.4170  206.1250  153.5270 C   0  0  0  0  0  3  0  0  0  0  0  0
  159.5020  210.3600  156.5970 O   0  0  0  0  0  1  0  0  0  0  0  0
  162.3610  208.9560  149.7630 N   0  0  0  0  0  2  0  0  0  0  0  0
  161.6530  207.5210  151.6160 C   0  0  0  0  0  0  0  0  0  0  0  0
  160.4460  211.0920  152.1390 C   0  0  0  0  0  3  0  0  0  0  0  0
  160.1100  208.0370  156.3920 C   0  0  0  0  0  3  0  0  0  0  0  0
  161.7340  210.0920  150.3570 C   0  0  0  0  0  0  0  0  0  0  0  0
  161.7640  211.3210  149.6910 C   0  0  0  0  0  3  0  0  0  0  0  0
  161.7590  206.3130  152.2290 N   0  0  0  0  0  0  0  0  0  0  0  0
  160.9300  207.1860  154.2800 C   0  0  0  0  0  0  0  0  0  0  0  0
  160.5890  206.9780  155.6190 C   0  0  0  0  0  3  0  0  0  0  0  0
  160.8090  207.1200  149.3290 C   0  0  0  0  0  2  0  0  0  0  0  0
  161.4760  201.9410  148.7710 C   0  0  2  0  0  3  0  0  0  0  0  0
  160.5170  204.0410  149.7270 C   0  0  0  0  0  3  0  0  0  0  0  0
  162.0620  205.0290  146.5990 C   0  0  0  0  0  3  0  0  0  0  0  0
  161.7980  206.2600  147.2000 C   0  0  0  0  0  3  0  0  0  0  0  0
  160.9880  200.5790  148.6540 N   0  0  0  0  0  1  0  0  0  0  0  0
  161.2200  206.0710  148.4060 N   0  0  0  0  0  0  0  0  0  0  0  0
  160.6400  202.7080  149.7810 C   0  0  0  0  0  3  0  0  0  0  0  0
  161.6380  204.0870  147.5180 C   0  0  0  0  0  0  0  0  0  0  0  0
  161.1260  204.7480  148.5940 C   0  0  0  0  0  0  0  0  0  0  0  0
  161.5410  202.6000  147.3760 C   0  0  0  0  0  2  0  0  0  0  0  0
  1  9  1  0  0  0  0
  1 14  1  0  0  0  0
  2  3  1  0  0  0  0
  3 19  2  0  0  0  0
  3  7  1  0  0  0  0
  4 15  1  0  0  0  0
  4 11  1  0  0  0  0
  5 14  2  0  0  0  0
  5  2  1  0  0  0  0
  6  1  2  0  0  0  0
  7  4  2  0  0  0  0
  8 21  1  6  0  0  0
  8 13  1  0  0  0  0
 10 19  1  0  0  0  0
 12  8  1  0  0  0  0
 12 16  1  0  0  0  0
 13 18  1  0  0  0  0
 13  2  2  0  0  0  0
 16  5  1  0  0  0  0
 17  6  1  0  0  0  0
 17 16  2  0  0  0  0
 18 10  2  0  0  0  0
 19 20  1  0  0  0  0
 20 15  2  0  0  0  0
 22 26  1  6  0  0  0
 22 28  1  0  0  0  0
 23 28  2  0  0  0  0
 24 25  2  0  0  0  0
 24 29  1  0  0  0  0
 25 27  1  0  0  0  0
 27 30  1  0  0  0  0
 27 21  1  0  0  0  0
 29 30  2  0  0  0  0
 30 23  1  0  0  0  0
 31 29  1  0  0  0  0
 31 22  1  0  0  0  0
M  END
>  <MODEL>
3

>  <REMARK>
 VINA RESULT:      -9.6      1.458      2.426
  Name = 
  2 active torsions:
  status: ('A' for Active; 'I' for Inactive)
    1  A    between atoms: N_9  and  C_23
    2  A    between atoms: C_15  and  C_23
                            x       y       z     vdW  Elec       q    Type
                         _______ _______ _______ _____ _____    ______ ____

>  <TORSDO>
F 2

$$$$
=
 OpenBabel11052422333D

 31 36  0  0  1  0  0  0  0  0999 V2000
  161.2510  211.6360  149.9230 C   0  0  0  0  0  0  0  0  0  0  0  0
  161.3300  208.8280  152.5270 C   0  0  0  0  0  0  0  0  0  0  0  0
  160.9160  209.3980  153.7640 C   0  0  0  0  0  0  0  0  0  0  0  0
  160.2000  211.2890  155.1310 C   0  0  0  0  0  0  0  0  0  0  0  0
  161.4950  209.6080  151.2560 C   0  0  0  0  0  0  0  0  0  0  0  0
  161.9540  211.0440  148.8740 C   0  0  0  0  0  3  0  0  0  0  0  0
  160.5970  210.7600  153.9000 C   0  0  0  0  0  3  0  0  0  0  0  0
  162.0370  206.7420  151.2420 C   0  0  1  0  0  3  0  0  0  0  0  0
  160.7950  212.9060  149.8020 F   0  0  0  0  0  0  0  0  0  0  0  0
  161.1590  207.2300  154.8290 C   0  0  0  0  0  3  0  0  0  0  0  0
  159.8860  212.6370  155.2360 O   0  0  0  0  0  1  0  0  0  0  0  0
  162.6240  207.6630  150.2750 N   0  0  0  0  0  2  0  0  0  0  0  0
  161.6560  207.4460  152.5140 C   0  0  0  0  0  0  0  0  0  0  0  0
  161.0280  210.9250  151.1050 C   0  0  0  0  0  3  0  0  0  0  0  0
  160.1170  210.4650  156.2520 C   0  0  0  0  0  3  0  0  0  0  0  0
  162.1760  209.0140  150.1740 C   0  0  0  0  0  0  0  0  0  0  0  0
  162.4160  209.7330  149.0000 C   0  0  0  0  0  3  0  0  0  0  0  0
  161.5540  206.7010  153.6460 N   0  0  0  0  0  0  0  0  0  0  0  0
  160.8330  208.5780  154.9160 C   0  0  0  0  0  0  0  0  0  0  0  0
  160.4350  209.1100  156.1460 C   0  0  0  0  0  3  0  0  0  0  0  0
  160.8060  206.0730  150.6430 C   0  0  0  0  0  2  0  0  0  0  0  0
  160.8490  201.3940  148.2590 C   0  0  2  0  0  3  0  0  0  0  0  0
  161.2050  203.8570  148.4860 C   0  0  0  0  0  3  0  0  0  0  0  0
  160.8190  202.6270  151.8740 C   0  0  0  0  0  3  0  0  0  0  0  0
  160.7360  204.0090  152.0510 C   0  0  0  0  0  3  0  0  0  0  0  0
  161.4660  200.3640  147.4440 N   0  0  0  0  0  1  0  0  0  0  0  0
  160.8520  204.6340  150.8590 N   0  0  0  0  0  0  0  0  0  0  0  0
  161.1900  202.7680  147.7070 C   0  0  0  0  0  3  0  0  0  0  0  0
  160.9630  202.4500  150.5110 C   0  0  0  0  0  0  0  0  0  0  0  0
  160.9890  203.6810  149.9270 C   0  0  0  0  0  0  0  0  0  0  0  0
  161.2350  201.1960  149.7400 C   0  0  0  0  0  2  0  0  0  0  0  0
  1 14  1  0  0  0  0
  2  3  1  0  0  0  0
  3  7  2  0  0  0  0
  3 19  1  0  0  0  0
  4 11  1  0  0  0  0
  4 15  2  0  0  0  0
  5  2  1  0  0  0  0
  6 17  1  0  0  0  0
  6  1  2  0  0  0  0
  7  4  1  0  0  0  0
  8 21  1  6  0  0  0
  8 13  1  0  0  0  0
  9  1  1  0  0  0  0
 10 19  1  0  0  0  0
 12  8  1  0  0  0  0
 13  2  2  0  0  0  0
 13 18  1  0  0  0  0
 14  5  2  0  0  0  0
 16 12  1  0  0  0  0
 16  5  1  0  0  0  0
 17 16  2  0  0  0  0
 18 10  2  0  0  0  0
 19 20  2  0  0  0  0
 20 15  1  0  0  0  0
 21 27  1  0  0  0  0
 22 26  1  6  0  0  0
 22 31  1  0  0  0  0
 23 30  1  0  0  0  0
 24 25  2  0  0  0  0
 27 25  1  0  0  0  0
 28 22  1  0  0  0  0
 28 23  2  0  0  0  0
 29 24  1  0  0  0  0
 30 29  2  0  0  0  0
 30 27  1  0  0  0  0
 31 29  1  0  0  0  0
M  END
>  <MODEL>
4

>  <REMARK>
 VINA RESULT:      -9.4      1.599      2.137
  Name = 
  2 active torsions:
  status: ('A' for Active; 'I' for Inactive)
    1  A    between atoms: N_9  and  C_23
    2  A    between atoms: C_15  and  C_23
                            x       y       z     vdW  Elec       q    Type
                         _______ _______ _______ _____ _____    ______ ____

>  <TORSDO>
F 2

$$$$
=
 OpenBabel11052422333D

 31 36  0  0  1  0  0  0  0  0999 V2000
  160.4330  201.9350  150.5440 C   0  0  0  0  0  0  0  0  0  0  0  0
  161.5870  205.2990  149.1220 C   0  0  0  0  0  0  0  0  0  0  0  0
  161.5660  205.1800  147.7030 C   0  0  0  0  0  0  0  0  0  0  0  0
  161.2010  203.9010  145.6560 C   0  0  0  0  0  0  0  0  0  0  0  0
  161.2600  204.1790  150.0650 C   0  0  0  0  0  0  0  0  0  0  0  0
  160.7910  202.0780  151.8850 C   0  0  0  0  0  3  0  0  0  0  0  0
  161.2070  203.9880  147.0510 C   0  0  0  0  0  3  0  0  0  0  0  0
  161.9850  206.7860  151.1550 C   0  0  1  0  0  3  0  0  0  0  0  0
  159.8670  200.7830  150.1130 F   0  0  0  0  0  0  0  0  0  0  0  0
  162.3130  207.4810  147.5100 C   0  0  0  0  0  3  0  0  0  0  0  0
  160.8390  202.7130  145.0370 O   0  0  0  0  0  1  0  0  0  0  0  0
  162.1440  205.5430  151.9030 N   0  0  0  0  0  2  0  0  0  0  0  0
  161.9950  206.5430  149.6720 C   0  0  0  0  0  0  0  0  0  0  0  0
  160.6700  202.9760  149.6420 C   0  0  0  0  0  3  0  0  0  0  0  0
  161.5590  205.0070  144.8860 C   0  0  0  0  0  3  0  0  0  0  0  0
  161.5860  204.3190  151.4290 C   0  0  0  0  0  0  0  0  0  0  0  0
  161.3680  203.2700  152.3270 C   0  0  0  0  0  3  0  0  0  0  0  0
  162.3320  207.5800  148.8610 N   0  0  0  0  0  0  0  0  0  0  0  0
  161.9330  206.2900  146.9040 C   0  0  0  0  0  0  0  0  0  0  0  0
  161.9270  206.2000  145.5090 C   0  0  0  0  0  3  0  0  0  0  0  0
  160.6800  207.4670  151.5490 C   0  0  0  0  0  2  0  0  0  0  0  0
  160.6960  211.4530  154.9680 C   0  0  2  0  0  3  0  0  0  0  0  0
  160.2650  210.2950  152.7970 C   0  0  0  0  0  3  0  0  0  0  0  0
  160.8380  207.6430  155.2010 C   0  0  0  0  0  3  0  0  0  0  0  0
  160.8810  206.9550  153.9870 C   0  0  0  0  0  3  0  0  0  0  0  0
  160.0810  212.5830  155.6400 N   0  0  0  0  0  1  0  0  0  0  0  0
  160.6930  207.8150  152.9630 N   0  0  0  0  0  0  0  0  0  0  0  0
  160.2850  211.4310  153.5060 C   0  0  0  0  0  3  0  0  0  0  0  0
  160.6420  208.9660  154.8530 C   0  0  0  0  0  0  0  0  0  0  0  0
  160.5490  209.0360  153.4950 C   0  0  0  0  0  0  0  0  0  0  0  0
  160.3800  210.1490  155.7320 C   0  0  0  0  0  2  0  0  0  0  0  0
  1  6  1  0  0  0  0
  2 13  1  0  0  0  0
  2  5  1  0  0  0  0
  3  2  2  0  0  0  0
  4  7  2  0  0  0  0
  5 16  2  0  0  0  0
  6 17  2  0  0  0  0
  7  3  1  0  0  0  0
  8 21  1  1  0  0  0
  8 12  1  0  0  0  0
  9  1  1  0  0  0  0
 10 18  1  0  0  0  0
 11  4  1  0  0  0  0
 13  8  1  0  0  0  0
 14  5  1  0  0  0  0
 14  1  2  0  0  0  0
 15 20  2  0  0  0  0
 15  4  1  0  0  0  0
 16 12  1  0  0  0  0
 16 17  1  0  0  0  0
 18 13  2  0  0  0  0
 19 10  2  0  0  0  0
 19  3  1  0  0  0  0
 20 19  1  0  0  0  0
 21 27  1  0  0  0  0
 22 26  1  1  0  0  0
 22 31  1  0  0  0  0
 23 30  1  0  0  0  0
 23 28  2  0  0  0  0
 25 24  2  0  0  0  0
 27 30  1  0  0  0  0
 27 25  1  0  0  0  0
 28 22  1  0  0  0  0
 29 24  1  0  0  0  0
 29 31  1  0  0  0  0
 30 29  2  0  0  0  0
M  END
>  <MODEL>
5

>  <REMARK>
 VINA RESULT:      -9.4      3.808      8.554
  Name = 
  2 active torsions:
  status: ('A' for Active; 'I' for Inactive)
    1  A    between atoms: N_9  and  C_23
    2  A    between atoms: C_15  and  C_23
                            x       y       z     vdW  Elec       q    Type
                         _______ _______ _______ _____ _____    ______ ____

>  <TORSDO>
F 2

$$$$
=
 OpenBabel11052422333D

 31 36  0  0  1  0  0  0  0  0999 V2000
  161.6390  204.9270  145.2380 C   0  0  0  0  0  0  0  0  0  0  0  0
  161.0430  204.2780  148.9650 C   0  0  0  0  0  0  0  0  0  0  0  0
  161.1060  202.8680  149.1560 C   0  0  0  0  0  0  0  0  0  0  0  0
  161.3680  200.5920  148.3160 C   0  0  0  0  0  0  0  0  0  0  0  0
  161.1650  204.9510  147.6300 C   0  0  0  0  0  0  0  0  0  0  0  0
  161.2490  206.2620  145.1360 C   0  0  0  0  0  3  0  0  0  0  0  0
  161.3160  201.9700  148.0960 C   0  0  0  0  0  3  0  0  0  0  0  0
  160.7780  206.5870  150.0140 C   0  0  1  0  0  3  0  0  0  0  0  0
  162.0500  204.2550  144.1360 F   0  0  0  0  0  0  0  0  0  0  0  0
  160.7070  203.1850  151.5290 C   0  0  0  0  0  3  0  0  0  0  0  0
  161.5810  199.7270  147.2510 O   0  0  0  0  0  1  0  0  0  0  0  0
  160.4100  207.0380  148.6760 N   0  0  0  0  0  2  0  0  0  0  0  0
  160.7960  205.0870  150.1050 C   0  0  0  0  0  0  0  0  0  0  0  0
  161.5920  204.2770  146.4740 C   0  0  0  0  0  3  0  0  0  0  0  0
  161.2060  200.0830  149.6050 C   0  0  0  0  0  3  0  0  0  0  0  0
  160.8050  206.3090  147.5160 C   0  0  0  0  0  0  0  0  0  0  0  0
  160.8320  206.9530  146.2750 C   0  0  0  0  0  3  0  0  0  0  0  0
  160.6460  204.5240  151.3330 N   0  0  0  0  0  0  0  0  0  0  0  0
  160.9360  202.3330  150.4570 C   0  0  0  0  0  0  0  0  0  0  0  0
  160.9890  200.9530  150.6740 C   0  0  0  0  0  3  0  0  0  0  0  0
  162.1500  207.1340  150.3890 C   0  0  0  0  0  2  0  0  0  0  0  0
  160.4550  208.5350  155.1580 C   0  0  2  0  0  3  0  0  0  0  0  0
  161.3010  206.9890  153.3860 C   0  0  0  0  0  3  0  0  0  0  0  0
  162.0190  210.3280  152.1690 C   0  0  0  0  0  3  0  0  0  0  0  0
  162.2560  209.5450  151.0390 C   0  0  0  0  0  3  0  0  0  0  0  0
  160.5230  208.5290  156.6070 N   0  0  0  0  0  1  0  0  0  0  0  0
  162.0190  208.2460  151.3200 N   0  0  0  0  0  0  0  0  0  0  0  0
  160.7980  207.1580  154.6160 C   0  0  0  0  0  3  0  0  0  0  0  0
  161.6010  209.4360  153.1390 C   0  0  0  0  0  0  0  0  0  0  0  0
  161.6210  208.1860  152.5980 C   0  0  0  0  0  0  0  0  0  0  0  0
  161.3340  209.6720  154.5930 C   0  0  0  0  0  2  0  0  0  0  0  0
  1 14  1  0  0  0  0
  2  3  2  0  0  0  0
  2 13  1  0  0  0  0
  3 19  1  0  0  0  0
  4 15  1  0  0  0  0
  5  2  1  0  0  0  0
  6  1  2  0  0  0  0
  6 17  1  0  0  0  0
  7  4  2  0  0  0  0
  7  3  1  0  0  0  0
  8 13  1  0  0  0  0
  8 21  1  6  0  0  0
  9  1  1  0  0  0  0
 11  4  1  0  0  0  0
 12  8  1  0  0  0  0
 13 18  2  0  0  0  0
 14  5  2  0  0  0  0
 15 20  2  0  0  0  0
 16  5  1  0  0  0  0
 16 12  1  0  0  0  0
 17 16  2  0  0  0  0
 18 10  1  0  0  0  0
 19 20  1  0  0  0  0
 19 10  2  0  0  0  0
 21 27  1  0  0  0  0
 22 26  1  1  0  0  0
 23 28  2  0  0  0  0
 24 29  1  0  0  0  0
 25 27  1  0  0  0  0
 25 24  2  0  0  0  0
 27 30  1  0  0  0  0
 28 22  1  0  0  0  0
 29 31  1  0  0  0  0
 30 29  2  0  0  0  0
 30 23  1  0  0  0  0
 31 22  1  0  0  0  0
M  END
>  <MODEL>
6

>  <REMARK>
 VINA RESULT:      -9.0      3.646      7.974
  Name = 
  2 active torsions:
  status: ('A' for Active; 'I' for Inactive)
    1  A    between atoms: N_9  and  C_23
    2  A    between atoms: C_15  and  C_23
                            x       y       z     vdW  Elec       q    Type
                         _______ _______ _______ _____ _____    ______ ____

>  <TORSDO>
F 2

$$$$
=
 OpenBabel11052422333D

 31 36  0  0  1  0  0  0  0  0999 V2000
  160.2690  207.3520  156.5570 C   0  0  0  0  0  0  0  0  0  0  0  0
  161.0600  208.4530  152.9750 C   0  0  0  0  0  0  0  0  0  0  0  0
  161.1850  207.2690  152.1950 C   0  0  0  0  0  0  0  0  0  0  0  0
  161.1930  204.8400  151.9550 C   0  0  0  0  0  0  0  0  0  0  0  0
  160.8100  208.4630  154.4550 C   0  0  0  0  0  0  0  0  0  0  0  0
  160.4790  208.5430  157.2520 C   0  0  0  0  0  3  0  0  0  0  0  0
  161.0590  205.9830  152.7480 C   0  0  0  0  0  3  0  0  0  0  0  0
  161.0560  211.0030  153.0400 C   0  0  1  0  0  3  0  0  0  0  0  0
  159.9140  206.2300  157.2280 F   0  0  0  0  0  0  0  0  0  0  0  0
  161.6130  208.6250  150.2280 C   0  0  0  0  0  3  0  0  0  0  0  0
  161.0610  203.5820  152.5260 O   0  0  0  0  0  1  0  0  0  0  0  0
  161.3210  210.8630  154.4680 N   0  0  0  0  0  2  0  0  0  0  0  0
  161.2350  209.6980  152.3160 C   0  0  0  0  0  0  0  0  0  0  0  0
  160.4380  207.3130  155.1710 C   0  0  0  0  0  3  0  0  0  0  0  0
  161.4600  204.9620  150.5920 C   0  0  0  0  0  3  0  0  0  0  0  0
  160.9870  209.6650  155.1680 C   0  0  0  0  0  0  0  0  0  0  0  0
  160.8390  209.6990  156.5580 C   0  0  0  0  0  3  0  0  0  0  0  0
  161.4950  209.7440  150.9820 N   0  0  0  0  0  0  0  0  0  0  0  0
  161.4630  207.3730  150.8100 C   0  0  0  0  0  0  0  0  0  0  0  0
  161.5960  206.2270  150.0200 C   0  0  0  0  0  3  0  0  0  0  0  0
  159.6370  211.5140  152.8220 C   0  0  0  0  0  2  0  0  0  0  0  0
  155.6250  211.8110  156.1990 C   0  0  2  0  0  3  0  0  0  0  0  0
  157.1160  210.7550  154.4940 C   0  0  0  0  0  3  0  0  0  0  0  0
  158.9610  213.6160  155.7400 C   0  0  0  0  0  3  0  0  0  0  0  0
  159.7110  213.2450  154.6230 C   0  0  0  0  0  3  0  0  0  0  0  0
  154.7870  211.2850  157.2600 N   0  0  0  0  0  1  0  0  0  0  0  0
  159.1440  212.1780  154.0210 N   0  0  0  0  0  0  0  0  0  0  0  0
  156.0000  210.7010  155.2320 C   0  0  0  0  0  3  0  0  0  0  0  0
  157.8970  212.7330  155.7630 C   0  0  0  0  0  0  0  0  0  0  0  0
  158.0420  211.8710  154.7180 C   0  0  0  0  0  0  0  0  0  0  0  0
  156.8360  212.5550  156.8040 C   0  0  0  0  0  2  0  0  0  0  0  0
  1  9  1  0  0  0  0
  1  6  1  0  0  0  0
  2  5  1  0  0  0  0
  3  7  1  0  0  0  0
  3  2  2  0  0  0  0
  4 11  1  0  0  0  0
  4  7  2  0  0  0  0
  5 16  2  0  0  0  0
  5 14  1  0  0  0  0
  8 21  1  1  0  0  0
  8 12  1  0  0  0  0
 10 19  2  0  0  0  0
 10 18  1  0  0  0  0
 12 16  1  0  0  0  0
 13  2  1  0  0  0  0
 13  8  1  0  0  0  0
 14  1  2  0  0  0  0
 15  4  1  0  0  0  0
 16 17  1  0  0  0  0
 17  6  2  0  0  0  0
 18 13  2  0  0  0  0
 19  3  1  0  0  0  0
 20 15  2  0  0  0  0
 20 19  1  0  0  0  0
 21 27  1  0  0  0  0
 22 31  1  0  0  0  0
 22 26  1  1  0  0  0
 23 30  1  0  0  0  0
 23 28  2  0  0  0  0
 24 29  1  0  0  0  0
 25 24  2  0  0  0  0
 27 25  1  0  0  0  0
 27 30  1  0  0  0  0
 28 22  1  0  0  0  0
 29 31  1  0  0  0  0
 30 29  2  0  0  0  0
M  END
>  <MODEL>
7

>  <REMARK>
 VINA RESULT:      -7.8      3.817      8.564
  Name = 
  2 active torsions:
  status: ('A' for Active; 'I' for Inactive)
    1  A    between atoms: N_9  and  C_23
    2  A    between atoms: C_15  and  C_23
                            x       y       z     vdW  Elec       q    Type
                         _______ _______ _______ _____ _____    ______ ____

>  <TORSDO>
F 2

$$$$
=
 OpenBabel11052422333D

 31 36  0  0  1  0  0  0  0  0999 V2000
  162.0400  204.5420  145.1400 C   0  0  0  0  0  0  0  0  0  0  0  0
  161.1210  204.6310  148.8580 C   0  0  0  0  0  0  0  0  0  0  0  0
  161.1280  203.2840  149.3190 C   0  0  0  0  0  0  0  0  0  0  0  0
  161.3920  200.8850  148.9550 C   0  0  0  0  0  0  0  0  0  0  0  0
  161.3720  205.0330  147.4340 C   0  0  0  0  0  0  0  0  0  0  0  0
  161.6990  205.8380  144.7530 C   0  0  0  0  0  3  0  0  0  0  0  0
  161.3990  202.1960  148.4720 C   0  0  0  0  0  3  0  0  0  0  0  0
  160.8380  207.1020  149.4200 C   0  0  1  0  0  3  0  0  0  0  0  0
  162.5210  203.6660  144.2260 F   0  0  0  0  0  0  0  0  0  0  0  0
  160.5440  204.0560  151.5450 C   0  0  0  0  0  3  0  0  0  0  0  0
  161.6670  199.8290  148.0970 O   0  0  0  0  0  1  0  0  0  0  0  0
  160.5950  207.2910  147.9940 N   0  0  0  0  0  2  0  0  0  0  0  0
  160.8050  205.6470  149.7970 C   0  0  0  0  0  0  0  0  0  0  0  0
  161.8730  204.1430  146.4690 C   0  0  0  0  0  3  0  0  0  0  0  0
  161.1100  200.6360  150.2980 C   0  0  0  0  0  3  0  0  0  0  0  0
  161.0620  206.3480  147.0330 C   0  0  0  0  0  0  0  0  0  0  0  0
  161.2100  206.7400  145.6990 C   0  0  0  0  0  3  0  0  0  0  0  0
  160.5390  205.3330  151.0920 N   0  0  0  0  0  0  0  0  0  0  0  0
  160.8360  203.0110  150.6780 C   0  0  0  0  0  0  0  0  0  0  0  0
  160.8310  201.6980  151.1590 C   0  0  0  0  0  3  0  0  0  0  0  0
  162.1900  207.6940  149.8000 C   0  0  0  0  0  2  0  0  0  0  0  0
  160.2350  210.3850  153.8640 C   0  0  2  0  0  3  0  0  0  0  0  0
  161.1590  208.4020  152.6570 C   0  0  0  0  0  3  0  0  0  0  0  0
  162.0090  211.2610  150.5960 C   0  0  0  0  0  3  0  0  0  0  0  0
  162.3000  210.1900  149.7500 C   0  0  0  0  0  3  0  0  0  0  0  0
  160.2150  210.7890  155.2580 N   0  0  0  0  0  1  0  0  0  0  0  0
  162.0230  209.0230  150.3700 N   0  0  0  0  0  0  0  0  0  0  0  0
  160.5860  208.9110  153.7550 C   0  0  0  0  0  3  0  0  0  0  0  0
  161.5170  210.6790  151.7500 C   0  0  0  0  0  0  0  0  0  0  0  0
  161.5480  209.3260  151.5850 C   0  0  0  0  0  0  0  0  0  0  0  0
  161.1670  211.3150  153.0580 C   0  0  0  0  0  2  0  0  0  0  0  0
  1 14  1  0  0  0  0
  2  3  2  0  0  0  0
  2 13  1  0  0  0  0
  3 19  1  0  0  0  0
  4 15  1  0  0  0  0
  5  2  1  0  0  0  0
  6  1  2  0  0  0  0
  6 17  1  0  0  0  0
  7  4  2  0  0  0  0
  7  3  1  0  0  0  0
  8 13  1  0  0  0  0
  8 21  1  6  0  0  0
  9  1  1  0  0  0  0
 11  4  1  0  0  0  0
 12  8  1  0  0  0  0
 13 18  2  0  0  0  0
 14  5  2  0  0  0  0
 15 20  2  0  0  0  0
 16  5  1  0  0  0  0
 16 12  1  0  0  0  0
 17 16  2  0  0  0  0
 18 10  1  0  0  0  0
 19 20  1  0  0  0  0
 19 10  2  0  0  0  0
 21 27  1  0  0  0  0
 22 26  1  1  0  0  0
 23 28  2  0  0  0  0
 24 29  1  0  0  0  0
 25 27  1  0  0  0  0
 25 24  2  0  0  0  0
 27 30  1  0  0  0  0
 28 22  1  0  0  0  0
 29 31  1  0  0  0  0
 30 29  2  0  0  0  0
 30 23  1  0  0  0  0
 31 22  1  0  0  0  0
M  END
>  <MODEL>
8

>  <REMARK>
 VINA RESULT:      -7.2      3.628      7.818
  Name = 
  2 active torsions:
  status: ('A' for Active; 'I' for Inactive)
    1  A    between atoms: N_9  and  C_23
    2  A    between atoms: C_15  and  C_23
                            x       y       z     vdW  Elec       q    Type
                         _______ _______ _______ _____ _____    ______ ____

>  <TORSDO>
F 2

$$$$
=
 OpenBabel11052422333D

 31 36  0  0  1  0  0  0  0  0999 V2000
  161.3240  204.9580  145.2250 C   0  0  0  0  0  0  0  0  0  0  0  0
  160.9800  204.1670  148.9570 C   0  0  0  0  0  0  0  0  0  0  0  0
  161.1050  202.7550  149.0960 C   0  0  0  0  0  0  0  0  0  0  0  0
  161.3950  200.5190  148.1630 C   0  0  0  0  0  0  0  0  0  0  0  0
  160.9960  204.8870  147.6410 C   0  0  0  0  0  0  0  0  0  0  0  0
  160.8820  206.2810  145.1940 C   0  0  0  0  0  3  0  0  0  0  0  0
  161.2820  201.9010  147.9940 C   0  0  0  0  0  3  0  0  0  0  0  0
  160.6990  206.4300  150.0990 C   0  0  1  0  0  3  0  0  0  0  0  0
  161.6900  204.3390  144.0780 F   0  0  0  0  0  0  0  0  0  0  0  0
  160.8410  202.9800  151.4980 C   0  0  0  0  0  3  0  0  0  0  0  0
  161.5730  199.6980  147.0580 O   0  0  0  0  0  1  0  0  0  0  0  0
  160.2340  206.9100  148.8020 N   0  0  0  0  0  2  0  0  0  0  0  0
  160.7750  204.9290  150.1370 C   0  0  0  0  0  0  0  0  0  0  0  0
  161.3760  204.2670  146.4390 C   0  0  0  0  0  3  0  0  0  0  0  0
  161.3310  199.9630  149.4410 C   0  0  0  0  0  3  0  0  0  0  0  0
  160.5820  206.2340  147.5960 C   0  0  0  0  0  0  0  0  0  0  0  0
  160.5110  206.9180  146.3790 C   0  0  0  0  0  3  0  0  0  0  0  0
  160.7210  204.3220  151.3520 N   0  0  0  0  0  0  0  0  0  0  0  0
  161.0340  202.1720  150.3840 C   0  0  0  0  0  0  0  0  0  0  0  0
  161.1480  200.7890  150.5510 C   0  0  0  0  0  3  0  0  0  0  0  0
  162.0710  207.0160  150.4090 C   0  0  0  0  0  2  0  0  0  0  0  0
  162.2390  212.0690  148.9870 C   0  0  2  0  0  3  0  0  0  0  0  0
  161.9340  209.6070  148.6800 C   0  0  0  0  0  3  0  0  0  0  0  0
  161.7550  210.1570  152.2590 C   0  0  0  0  0  3  0  0  0  0  0  0
  161.8550  208.7680  152.1780 C   0  0  0  0  0  3  0  0  0  0  0  0
  161.7210  213.2350  148.2970 N   0  0  0  0  0  1  0  0  0  0  0  0
  161.9450  208.3860  150.8860 N   0  0  0  0  0  0  0  0  0  0  0  0
  162.0330  210.8270  148.1360 C   0  0  0  0  0  3  0  0  0  0  0  0
  161.8160  210.5950  150.9490 C   0  0  0  0  0  0  0  0  0  0  0  0
  161.9210  209.5000  150.1440 C   0  0  0  0  0  0  0  0  0  0  0  0
  161.6230  211.9730  150.3990 C   0  0  0  0  0  2  0  0  0  0  0  0
  1 14  1  0  0  0  0
  2  3  2  0  0  0  0
  2 13  1  0  0  0  0
  3 19  1  0  0  0  0
  4 15  1  0  0  0  0
  5  2  1  0  0  0  0
  6  1  2  0  0  0  0
  6 17  1  0  0  0  0
  7  4  2  0  0  0  0
  7  3  1  0  0  0  0
  8 13  1  0  0  0  0
  8 21  1  6  0  0  0
  9  1  1  0  0  0  0
 11  4  1  0  0  0  0
 12  8  1  0  0  0  0
 13 18  2  0  0  0  0
 14  5  2  0  0  0  0
 15 20  2  0  0  0  0
 16  5  1  0  0  0  0
 16 12  1  0  0  0  0
 17 16  2  0  0  0  0
 18 10  1  0  0  0  0
 19 20  1  0  0  0  0
 19 10  2  0  0  0  0
 21 27  1  0  0  0  0
 22 26  1  6  0  0  0
 22 31  1  0  0  0  0
 23 30  1  0  0  0  0
 25 24  2  0  0  0  0
 27 25  1  0  0  0  0
 28 23  2  0  0  0  0
 28 22  1  0  0  0  0
 29 24  1  0  0  0  0
 30 27  1  0  0  0  0
 30 29  2  0  0  0  0
 31 29  1  0  0  0  0
M  END
>  <MODEL>
9

>  <REMARK>
 VINA RESULT:      -7.0      3.896      7.523
  Name = 
  2 active torsions:
  status: ('A' for Active; 'I' for Inactive)
    1  A    between atoms: N_9  and  C_23
    2  A    between atoms: C_15  and  C_23
                            x       y       z     vdW  Elec       q    Type
                         _______ _______ _______ _____ _____    ______ ____

>  <TORSDO>
F 2

$$$$
