=
 OpenBabel11052423173D

 27 31  0  0  0  0  0  0  0  0999 V2000
  161.5210  208.4550  151.0700 C   0  0  0  0  0  0  0  0  0  0  0  0
  161.1070  206.0500  151.5640 C   0  0  0  0  0  0  0  0  0  0  0  0
  161.5800  206.7940  149.2990 O   0  0  0  0  0  0  0  0  0  0  0  0
  160.8140  202.0860  150.2500 C   0  0  0  0  0  3  0  0  0  0  0  0
  160.8860  200.4890  148.4840 F   0  0  0  0  0  0  0  0  0  0  0  0
  160.8430  204.9920  152.4490 C   0  0  0  0  0  3  0  0  0  0  0  0
  161.3640  204.1150  148.3960 C   0  0  0  0  0  3  0  0  0  0  0  0
  161.2600  202.7860  147.9730 C   0  0  0  0  0  3  0  0  0  0  0  0
  161.1920  204.4370  149.7490 C   0  0  0  0  0  0  0  0  0  0  0  0
  161.2200  207.4150  152.0300 N   0  0  0  0  0  0  0  0  0  0  0  0
  160.9850  201.7740  148.8980 C   0  0  0  0  0  0  0  0  0  0  0  0
  160.9160  203.4130  150.6800 C   0  0  0  0  0  0  0  0  0  0  0  0
  161.6250  209.8020  151.4460 C   0  0  0  0  0  3  0  0  0  0  0  0
  161.2920  205.7600  150.1990 C   0  0  0  0  0  0  0  0  0  0  0  0
  161.9740  209.1180  148.7810 C   0  0  0  0  0  3  0  0  0  0  0  0
  160.7530  203.7150  151.9940 N   0  0  0  0  0  0  0  0  0  0  0  0
  162.0690  210.4460  149.2030 C   0  0  0  0  0  0  0  0  0  0  0  0
  161.8970  210.7570  150.5160 N   0  0  0  0  0  0  0  0  0  0  0  0
  161.6930  208.1220  149.7160 C   0  0  0  0  0  0  0  0  0  0  0  0
  160.6720  208.3610  156.1310 C   0  0  0  0  0  3  0  0  0  0  0  0
  161.0350  207.7350  153.4220 C   0  0  0  0  0  0  0  0  0  0  0  0
  161.1690  209.0580  153.8670 C   0  0  0  0  0  3  0  0  0  0  0  0
  160.9880  209.3700  155.2170 C   0  0  0  0  0  3  0  0  0  0  0  0
  160.5360  207.0390  155.6950 C   0  0  0  0  0  3  0  0  0  0  0  0
  160.7160  206.7270  154.3430 C   0  0  0  0  0  3  0  0  0  0  0  0
  162.3920  211.5160  148.2220 C   0  0  0  0  0  2  0  0  0  0  0  0
  161.2350  211.8960  147.5440 O   0  0  0  0  0  1  0  0  0  0  0  0
  1 13  1  0  0  0  0
  1 10  1  0  0  0  0
  2 10  1  0  0  0  0
  2  6  1  0  0  0  0
  3 19  1  0  0  0  0
  3 14  1  0  0  0  0
  4 12  1  0  0  0  0
  5 11  1  0  0  0  0
  7  9  1  0  0  0  0
  8  7  2  0  0  0  0
  8 11  1  0  0  0  0
  9 14  1  0  0  0  0
  9 12  2  0  0  0  0
 10 21  1  0  0  0  0
 11  4  2  0  0  0  0
 12 16  1  0  0  0  0
 14  2  2  0  0  0  0
 15 17  2  0  0  0  0
 15 19  1  0  0  0  0
 16  6  2  0  0  0  0
 17 18  1  0  0  0  0
 18 13  2  0  0  0  0
 19  1  2  0  0  0  0
 21 22  2  0  0  0  0
 21 25  1  0  0  0  0
 22 23  1  0  0  0  0
 23 20  2  0  0  0  0
 24 20  1  0  0  0  0
 25 24  2  0  0  0  0
 26 17  1  0  0  0  0
 27 26  1  0  0  0  0
M  END
>  <MODEL>
1

>  <REMARK>
 VINA RESULT:     -10.7      0.000      0.000
  Name = 
  2 active torsions:
  status: ('A' for Active; 'I' for Inactive)
    1  A    between atoms: C_9  and  N_15
    2  A    between atoms: C_10  and  CA_22
                            x       y       z     vdW  Elec       q    Type
                         _______ _______ _______ _____ _____    ______ ____

>  <TORSDO>
F 2

$$$$
=
 OpenBabel11052423173D

 27 31  0  0  0  0  0  0  0  0999 V2000
  161.3170  207.7580  152.4490 C   0  0  0  0  0  0  0  0  0  0  0  0
  161.4020  206.5150  150.2940 C   0  0  0  0  0  0  0  0  0  0  0  0
  161.0580  205.3450  152.3970 O   0  0  0  0  0  0  0  0  0  0  0  0
  161.1800  202.8990  148.1950 C   0  0  0  0  0  3  0  0  0  0  0  0
  160.9170  200.5320  148.1880 F   0  0  0  0  0  0  0  0  0  0  0  0
  161.5130  206.4600  148.8960 C   0  0  0  0  0  3  0  0  0  0  0  0
  160.9260  202.8890  150.9860 C   0  0  0  0  0  3  0  0  0  0  0  0
  160.8570  201.6900  150.2700 C   0  0  0  0  0  3  0  0  0  0  0  0
  161.1240  204.1000  150.3100 C   0  0  0  0  0  0  0  0  0  0  0  0
  161.4660  207.7700  151.0100 N   0  0  0  0  0  0  0  0  0  0  0  0
  160.9850  201.6950  148.8770 C   0  0  0  0  0  0  0  0  0  0  0  0
  161.2510  204.1030  148.9040 C   0  0  0  0  0  0  0  0  0  0  0  0
  161.3880  208.9350  153.2110 C   0  0  0  0  0  3  0  0  0  0  0  0
  161.1960  205.3160  151.0040 C   0  0  0  0  0  0  0  0  0  0  0  0
  160.9820  206.5160  154.5060 C   0  0  0  0  0  3  0  0  0  0  0  0
  161.4380  205.2720  148.2400 N   0  0  0  0  0  0  0  0  0  0  0  0
  161.0580  207.7140  155.2210 C   0  0  0  0  0  0  0  0  0  0  0  0
  161.2560  208.8880  154.5630 N   0  0  0  0  0  0  0  0  0  0  0  0
  161.1170  206.5390  153.1180 C   0  0  0  0  0  0  0  0  0  0  0  0
  162.0880  211.4210  148.9360 C   0  0  0  0  0  3  0  0  0  0  0  0
  161.6760  209.0080  150.3060 C   0  0  0  0  0  0  0  0  0  0  0  0
  161.5860  210.2320  150.9850 C   0  0  0  0  0  3  0  0  0  0  0  0
  161.7910  211.4340  150.3020 C   0  0  0  0  0  3  0  0  0  0  0  0
  162.1800  210.2040  148.2530 C   0  0  0  0  0  3  0  0  0  0  0  0
  161.9760  209.0010  148.9350 C   0  0  0  0  0  3  0  0  0  0  0  0
  160.8920  207.7080  156.6980 C   0  0  0  0  0  2  0  0  0  0  0  0
  159.8060  206.9060  157.0450 O   0  0  0  0  0  1  0  0  0  0  0  0
  1 19  2  0  0  0  0
  1 13  1  0  0  0  0
  2 14  1  0  0  0  0
  2 10  1  0  0  0  0
  3 19  1  0  0  0  0
  4 11  2  0  0  0  0
  4 12  1  0  0  0  0
  5 11  1  0  0  0  0
  6  2  2  0  0  0  0
  8  7  2  0  0  0  0
  9  7  1  0  0  0  0
  9 14  2  0  0  0  0
 10  1  1  0  0  0  0
 11  8  1  0  0  0  0
 12  9  1  0  0  0  0
 13 18  2  0  0  0  0
 14  3  1  0  0  0  0
 15 17  2  0  0  0  0
 16  6  1  0  0  0  0
 16 12  2  0  0  0  0
 17 26  1  0  0  0  0
 18 17  1  0  0  0  0
 19 15  1  0  0  0  0
 20 23  1  0  0  0  0
 21 22  1  0  0  0  0
 21 10  1  0  0  0  0
 23 22  2  0  0  0  0
 24 25  1  0  0  0  0
 24 20  2  0  0  0  0
 25 21  2  0  0  0  0
 26 27  1  0  0  0  0
M  END
>  <MODEL>
2

>  <REMARK>
 VINA RESULT:      -9.6      2.121      4.802
  Name = 
  2 active torsions:
  status: ('A' for Active; 'I' for Inactive)
    1  A    between atoms: C_9  and  N_15
    2  A    between atoms: C_10  and  CA_22
                            x       y       z     vdW  Elec       q    Type
                         _______ _______ _______ _____ _____    ______ ____

>  <TORSDO>
F 2

$$$$
=
 OpenBabel11052423173D

 27 31  0  0  0  0  0  0  0  0999 V2000
  161.6050  209.7100  151.0790 C   0  0  0  0  0  0  0  0  0  0  0  0
  161.2730  207.5040  152.1840 C   0  0  0  0  0  0  0  0  0  0  0  0
  161.5460  207.6630  149.7740 O   0  0  0  0  0  0  0  0  0  0  0  0
  160.9390  203.3390  151.9160 C   0  0  0  0  0  3  0  0  0  0  0  0
  160.8920  201.3550  150.5980 F   0  0  0  0  0  0  0  0  0  0  0  0
  161.1000  206.6980  153.3200 C   0  0  0  0  0  3  0  0  0  0  0  0
  161.3010  204.8450  149.5800 C   0  0  0  0  0  3  0  0  0  0  0  0
  161.1850  203.4530  149.5070 C   0  0  0  0  0  3  0  0  0  0  0  0
  161.2360  205.4910  150.8210 C   0  0  0  0  0  0  0  0  0  0  0  0
  161.4010  208.9410  152.2870 N   0  0  0  0  0  0  0  0  0  0  0  0
  161.0030  202.7020  150.6730 C   0  0  0  0  0  0  0  0  0  0  0  0
  161.0540  204.7310  151.9960 C   0  0  0  0  0  0  0  0  0  0  0  0
  161.7180  211.1080  151.1010 C   0  0  0  0  0  3  0  0  0  0  0  0
  161.3500  206.8850  150.9210 C   0  0  0  0  0  0  0  0  0  0  0  0
  161.8580  209.7850  148.6680 C   0  0  0  0  0  3  0  0  0  0  0  0
  160.9930  205.3480  153.2040 N   0  0  0  0  0  0  0  0  0  0  0  0
  161.9660  211.1760  148.7400 C   0  0  0  0  0  0  0  0  0  0  0  0
  161.8970  211.8030  149.9460 N   0  0  0  0  0  0  0  0  0  0  0  0
  161.6720  209.0520  149.8390 C   0  0  0  0  0  0  0  0  0  0  0  0
  161.1800  210.8730  156.0600 C   0  0  0  0  0  3  0  0  0  0  0  0
  161.3260  209.5950  153.5680 C   0  0  0  0  0  0  0  0  0  0  0  0
  162.4960  210.0030  154.2240 C   0  0  0  0  0  3  0  0  0  0  0  0
  162.4230  210.6390  155.4660 C   0  0  0  0  0  3  0  0  0  0  0  0
  160.0090  210.4710  155.4110 C   0  0  0  0  0  3  0  0  0  0  0  0
  160.0810  209.8340  154.1680 C   0  0  0  0  0  3  0  0  0  0  0  0
  162.1900  211.9690  147.5020 C   0  0  0  0  0  2  0  0  0  0  0  0
  162.9760  213.0830  147.7940 O   0  0  0  0  0  1  0  0  0  0  0  0
  1 13  1  0  0  0  0
  1 10  1  0  0  0  0
  2 10  1  0  0  0  0
  2  6  1  0  0  0  0
  3 19  1  0  0  0  0
  3 14  1  0  0  0  0
  4 12  1  0  0  0  0
  5 11  1  0  0  0  0
  7  9  1  0  0  0  0
  8  7  2  0  0  0  0
  8 11  1  0  0  0  0
  9 14  1  0  0  0  0
  9 12  2  0  0  0  0
 10 21  1  0  0  0  0
 11  4  2  0  0  0  0
 12 16  1  0  0  0  0
 14  2  2  0  0  0  0
 15 17  2  0  0  0  0
 15 19  1  0  0  0  0
 16  6  2  0  0  0  0
 17 18  1  0  0  0  0
 18 13  2  0  0  0  0
 19  1  2  0  0  0  0
 21 25  2  0  0  0  0
 21 22  1  0  0  0  0
 22 23  2  0  0  0  0
 23 20  1  0  0  0  0
 24 20  2  0  0  0  0
 25 24  1  0  0  0  0
 26 27  1  0  0  0  0
 26 17  1  0  0  0  0
M  END
>  <MODEL>
3

>  <REMARK>
 VINA RESULT:      -9.4      1.363      1.834
  Name = 
  2 active torsions:
  status: ('A' for Active; 'I' for Inactive)
    1  A    between atoms: C_9  and  N_15
    2  A    between atoms: C_10  and  CA_22
                            x       y       z     vdW  Elec       q    Type
                         _______ _______ _______ _____ _____    ______ ____

>  <TORSDO>
F 2

$$$$
=
 OpenBabel11052423173D

 27 31  0  0  0  0  0  0  0  0999 V2000
  161.4530  209.5210  151.7980 C   0  0  0  0  0  0  0  0  0  0  0  0
  161.5620  208.2640  149.6520 C   0  0  0  0  0  0  0  0  0  0  0  0
  161.2210  207.1040  151.7610 O   0  0  0  0  0  0  0  0  0  0  0  0
  161.3920  204.6330  147.5760 C   0  0  0  0  0  3  0  0  0  0  0  0
  161.1550  202.2620  147.5830 F   0  0  0  0  0  0  0  0  0  0  0  0
  161.6810  208.2010  148.2550 C   0  0  0  0  0  3  0  0  0  0  0  0
  161.1230  204.6370  150.3660 C   0  0  0  0  0  3  0  0  0  0  0  0
  161.0720  203.4330  149.6570 C   0  0  0  0  0  3  0  0  0  0  0  0
  161.3110  205.8460  149.6830 C   0  0  0  0  0  0  0  0  0  0  0  0
  161.6090  209.5240  150.3600 N   0  0  0  0  0  0  0  0  0  0  0  0
  161.2060  203.4310  148.2650 C   0  0  0  0  0  0  0  0  0  0  0  0
  161.4460  205.8410  148.2770 C   0  0  0  0  0  0  0  0  0  0  0  0
  161.5070  210.7030  152.5520 C   0  0  0  0  0  3  0  0  0  0  0  0
  161.3660  207.0670  150.3690 C   0  0  0  0  0  0  0  0  0  0  0  0
  161.1210  208.2880  153.8610 C   0  0  0  0  0  3  0  0  0  0  0  0
  161.6230  207.0080  147.6070 N   0  0  0  0  0  0  0  0  0  0  0  0
  161.1810  209.4910  154.5690 C   0  0  0  0  0  0  0  0  0  0  0  0
  161.3680  210.6640  153.9050 N   0  0  0  0  0  0  0  0  0  0  0  0
  161.2630  208.3040  152.4740 C   0  0  0  0  0  0  0  0  0  0  0  0
  162.1990  213.1660  148.2610 C   0  0  0  0  0  3  0  0  0  0  0  0
  161.8090  210.7600  149.6490 C   0  0  0  0  0  0  0  0  0  0  0  0
  162.9100  210.9140  148.7930 C   0  0  0  0  0  3  0  0  0  0  0  0
  163.1040  212.1130  148.1010 C   0  0  0  0  0  3  0  0  0  0  0  0
  161.0990  213.0200  149.1110 C   0  0  0  0  0  3  0  0  0  0  0  0
  160.9040  211.8200  149.8030 C   0  0  0  0  0  3  0  0  0  0  0  0
  161.0070  209.4940  156.0460 C   0  0  0  0  0  2  0  0  0  0  0  0
  161.9570  208.6590  156.6320 O   0  0  0  0  0  1  0  0  0  0  0  0
  1 19  2  0  0  0  0
  1 13  1  0  0  0  0
  2 10  1  0  0  0  0
  2 14  1  0  0  0  0
  3 19  1  0  0  0  0
  4 11  2  0  0  0  0
  4 12  1  0  0  0  0
  5 11  1  0  0  0  0
  6  2  2  0  0  0  0
  8  7  2  0  0  0  0
  9  7  1  0  0  0  0
  9 14  2  0  0  0  0
 10  1  1  0  0  0  0
 11  8  1  0  0  0  0
 12  9  1  0  0  0  0
 13 18  2  0  0  0  0
 14  3  1  0  0  0  0
 15 17  2  0  0  0  0
 16  6  1  0  0  0  0
 16 12  2  0  0  0  0
 17 26  1  0  0  0  0
 18 17  1  0  0  0  0
 19 15  1  0  0  0  0
 20 24  1  0  0  0  0
 21 25  1  0  0  0  0
 21 10  1  0  0  0  0
 22 21  2  0  0  0  0
 23 20  2  0  0  0  0
 23 22  1  0  0  0  0
 24 25  2  0  0  0  0
 26 27  1  0  0  0  0
M  END
>  <MODEL>
4

>  <REMARK>
 VINA RESULT:      -9.2      2.182      5.093
  Name = 
  2 active torsions:
  status: ('A' for Active; 'I' for Inactive)
    1  A    between atoms: C_9  and  N_15
    2  A    between atoms: C_10  and  CA_22
                            x       y       z     vdW  Elec       q    Type
                         _______ _______ _______ _____ _____    ______ ____

>  <TORSDO>
F 2

$$$$
=
 OpenBabel11052423173D

 27 31  0  0  0  0  0  0  0  0999 V2000
  161.5780  209.3560  150.2240 C   0  0  0  0  0  0  0  0  0  0  0  0
  161.3690  206.8840  150.0100 C   0  0  0  0  0  0  0  0  0  0  0  0
  161.7390  208.2790  148.0530 O   0  0  0  0  0  0  0  0  0  0  0  0
  161.3740  203.4480  147.6180 C   0  0  0  0  0  3  0  0  0  0  0  0
  161.5420  202.4310  145.4710 F   0  0  0  0  0  0  0  0  0  0  0  0
  161.2080  205.6000  150.5540 C   0  0  0  0  0  3  0  0  0  0  0  0
  161.7240  205.9590  146.4230 C   0  0  0  0  0  3  0  0  0  0  0  0
  161.7200  204.8020  145.6380 C   0  0  0  0  0  3  0  0  0  0  0  0
  161.5510  205.8670  147.8100 C   0  0  0  0  0  0  0  0  0  0  0  0
  161.3790  208.0650  150.8460 N   0  0  0  0  0  0  0  0  0  0  0  0
  161.5450  203.5490  146.2350 C   0  0  0  0  0  0  0  0  0  0  0  0
  161.3760  204.6010  148.4100 C   0  0  0  0  0  0  0  0  0  0  0  0
  161.5790  210.5450  150.9690 C   0  0  0  0  0  3  0  0  0  0  0  0
  161.5520  207.0110  148.6200 C   0  0  0  0  0  0  0  0  0  0  0  0
  161.9340  210.6780  148.2210 C   0  0  0  0  0  3  0  0  0  0  0  0
  161.2120  204.5020  149.7540 N   0  0  0  0  0  0  0  0  0  0  0  0
  161.9300  211.8340  149.0060 C   0  0  0  0  0  0  0  0  0  0  0  0
  161.7570  211.7430  150.3520 N   0  0  0  0  0  0  0  0  0  0  0  0
  161.7520  209.4380  148.8320 C   0  0  0  0  0  0  0  0  0  0  0  0
  160.8310  207.7550  155.0440 C   0  0  0  0  0  3  0  0  0  0  0  0
  161.1940  207.9590  152.2700 C   0  0  0  0  0  0  0  0  0  0  0  0
  161.0320  209.1140  153.0500 C   0  0  0  0  0  3  0  0  0  0  0  0
  160.8510  209.0120  154.4320 C   0  0  0  0  0  3  0  0  0  0  0  0
  160.9910  206.6000  154.2730 C   0  0  0  0  0  3  0  0  0  0  0  0
  161.1720  206.7010  152.8900 C   0  0  0  0  0  3  0  0  0  0  0  0
  162.1470  213.1620  148.3720 C   0  0  0  0  0  2  0  0  0  0  0  0
  160.9190  213.7280  148.0350 O   0  0  0  0  0  1  0  0  0  0  0  0
  1 10  1  0  0  0  0
  1 13  1  0  0  0  0
  2  6  1  0  0  0  0
  2 10  1  0  0  0  0
  3 14  1  0  0  0  0
  3 19  1  0  0  0  0
  4 12  1  0  0  0  0
  5 11  1  0  0  0  0
  7  9  1  0  0  0  0
  8 11  1  0  0  0  0
  8  7  2  0  0  0  0
  9 12  2  0  0  0  0
  9 14  1  0  0  0  0
 10 21  1  0  0  0  0
 11  4  2  0  0  0  0
 12 16  1  0  0  0  0
 14  2  2  0  0  0  0
 15 19  1  0  0  0  0
 15 17  2  0  0  0  0
 16  6  2  0  0  0  0
 17 18  1  0  0  0  0
 18 13  2  0  0  0  0
 19  1  2  0  0  0  0
 21 25  2  0  0  0  0
 21 22  1  0  0  0  0
 22 23  2  0  0  0  0
 23 20  1  0  0  0  0
 24 20  2  0  0  0  0
 25 24  1  0  0  0  0
 26 17  1  0  0  0  0
 27 26  1  0  0  0  0
M  END
>  <MODEL>
5

>  <REMARK>
 VINA RESULT:      -8.9      1.599      2.036
  Name = 
  2 active torsions:
  status: ('A' for Active; 'I' for Inactive)
    1  A    between atoms: C_9  and  N_15
    2  A    between atoms: C_10  and  CA_22
                            x       y       z     vdW  Elec       q    Type
                         _______ _______ _______ _____ _____    ______ ____

>  <TORSDO>
F 2

$$$$
=
 OpenBabel11052423173D

 27 31  0  0  0  0  0  0  0  0999 V2000
  161.1440  204.3190  148.9820 C   0  0  0  0  0  0  0  0  0  0  0  0
  161.4080  206.7880  149.1670 C   0  0  0  0  0  0  0  0  0  0  0  0
  161.0990  205.4150  151.1490 O   0  0  0  0  0  0  0  0  0  0  0  0
  161.6530  210.2310  151.5360 C   0  0  0  0  0  3  0  0  0  0  0  0
  161.6070  211.2650  153.6820 F   0  0  0  0  0  0  0  0  0  0  0  0
  161.6210  208.0590  148.6100 C   0  0  0  0  0  3  0  0  0  0  0  0
  161.2440  207.7430  152.7610 C   0  0  0  0  0  3  0  0  0  0  0  0
  161.3250  208.9030  153.5370 C   0  0  0  0  0  3  0  0  0  0  0  0
  161.3650  207.8210  151.3670 C   0  0  0  0  0  0  0  0  0  0  0  0
  161.3380  205.6020  148.3420 N   0  0  0  0  0  0  0  0  0  0  0  0
  161.5290  210.1450  152.9260 C   0  0  0  0  0  0  0  0  0  0  0  0
  161.5720  209.0750  150.7530 C   0  0  0  0  0  0  0  0  0  0  0  0
  161.0460  203.1300  148.2440 C   0  0  0  0  0  3  0  0  0  0  0  0
  161.2880  206.6740  150.5660 C   0  0  0  0  0  0  0  0  0  0  0  0
  160.8280  203.0210  151.0070 C   0  0  0  0  0  3  0  0  0  0  0  0
  161.6950  209.1600  149.4030 N   0  0  0  0  0  0  0  0  0  0  0  0
  160.7390  201.8640  150.2290 C   0  0  0  0  0  0  0  0  0  0  0  0
  160.8520  201.9420  148.8760 N   0  0  0  0  0  0  0  0  0  0  0  0
  161.0250  204.2510  150.3800 C   0  0  0  0  0  0  0  0  0  0  0  0
  161.6900  205.8730  144.1200 C   0  0  0  0  0  3  0  0  0  0  0  0
  161.4570  205.6950  146.9100 C   0  0  0  0  0  0  0  0  0  0  0  0
  162.6640  205.3640  146.2770 C   0  0  0  0  0  3  0  0  0  0  0  0
  162.7800  205.4520  144.8870 C   0  0  0  0  0  3  0  0  0  0  0  0
  160.4830  206.2040  144.7430 C   0  0  0  0  0  3  0  0  0  0  0  0
  160.3660  206.1150  146.1340 C   0  0  0  0  0  3  0  0  0  0  0  0
  160.5540  200.5420  150.8840 C   0  0  0  0  0  2  0  0  0  0  0  0
  159.2010  200.2030  150.8850 O   0  0  0  0  0  1  0  0  0  0  0  0
  1 19  1  0  0  0  0
  2 14  1  0  0  0  0
  4 11  2  0  0  0  0
  6  2  2  0  0  0  0
  6 16  1  0  0  0  0
  7  8  2  0  0  0  0
  9  7  1  0  0  0  0
 10  1  1  0  0  0  0
 10  2  1  0  0  0  0
 11  8  1  0  0  0  0
 11  5  1  0  0  0  0
 12  9  1  0  0  0  0
 12  4  1  0  0  0  0
 13 18  1  0  0  0  0
 13  1  2  0  0  0  0
 14  3  1  0  0  0  0
 14  9  2  0  0  0  0
 16 12  2  0  0  0  0
 17 26  1  0  0  0  0
 17 15  1  0  0  0  0
 18 17  2  0  0  0  0
 19 15  2  0  0  0  0
 19  3  1  0  0  0  0
 20 24  2  0  0  0  0
 20 23  1  0  0  0  0
 21 10  1  0  0  0  0
 22 21  1  0  0  0  0
 23 22  2  0  0  0  0
 24 25  1  0  0  0  0
 25 21  2  0  0  0  0
 26 27  1  0  0  0  0
M  END
>  <MODEL>
6

>  <REMARK>
 VINA RESULT:      -8.6      3.473      7.936
  Name = 
  2 active torsions:
  status: ('A' for Active; 'I' for Inactive)
    1  A    between atoms: C_9  and  N_15
    2  A    between atoms: C_10  and  CA_22
                            x       y       z     vdW  Elec       q    Type
                         _______ _______ _______ _____ _____    ______ ____

>  <TORSDO>
F 2

$$$$
=
 OpenBabel11052423173D

 27 31  0  0  0  0  0  0  0  0999 V2000
  161.6840  207.9940  148.8950 C   0  0  0  0  0  0  0  0  0  0  0  0
  161.4960  209.3990  150.9410 C   0  0  0  0  0  0  0  0  0  0  0  0
  161.2460  206.9840  151.0600 O   0  0  0  0  0  0  0  0  0  0  0  0
  160.9140  209.7070  155.0760 C   0  0  0  0  0  3  0  0  0  0  0  0
  160.4880  208.6760  157.1810 F   0  0  0  0  0  0  0  0  0  0  0  0
  161.5360  210.6350  151.6070 C   0  0  0  0  0  3  0  0  0  0  0  0
  160.8320  207.1840  153.8580 C   0  0  0  0  0  3  0  0  0  0  0  0
  160.6370  207.3050  155.2370 C   0  0  0  0  0  3  0  0  0  0  0  0
  161.0680  208.3250  153.0790 C   0  0  0  0  0  0  0  0  0  0  0  0
  161.7110  209.3010  149.5140 N   0  0  0  0  0  0  0  0  0  0  0  0
  160.6770  208.5640  155.8450 C   0  0  0  0  0  0  0  0  0  0  0  0
  161.1090  209.5950  153.6950 C   0  0  0  0  0  0  0  0  0  0  0  0
  161.8650  207.8250  147.5140 C   0  0  0  0  0  3  0  0  0  0  0  0
  161.2670  208.2320  151.6950 C   0  0  0  0  0  0  0  0  0  0  0  0
  161.4110  205.5920  149.0950 C   0  0  0  0  0  3  0  0  0  0  0  0
  161.3420  210.7060  152.9500 N   0  0  0  0  0  0  0  0  0  0  0  0
  161.5980  205.4730  147.7160 C   0  0  0  0  0  0  0  0  0  0  0  0
  161.8220  206.5830  146.9610 N   0  0  0  0  0  0  0  0  0  0  0  0
  161.4490  206.8560  149.6840 C   0  0  0  0  0  0  0  0  0  0  0  0
  162.4030  212.7800  147.1830 C   0  0  0  0  0  3  0  0  0  0  0  0
  161.9460  210.4810  148.7230 C   0  0  0  0  0  0  0  0  0  0  0  0
  160.8940  211.0780  148.0130 C   0  0  0  0  0  3  0  0  0  0  0  0
  161.1220  212.2240  147.2460 C   0  0  0  0  0  3  0  0  0  0  0  0
  163.4560  212.1920  147.8890 C   0  0  0  0  0  3  0  0  0  0  0  0
  163.2290  211.0450  148.6580 C   0  0  0  0  0  3  0  0  0  0  0  0
  161.5850  204.1300  147.0780 C   0  0  0  0  0  2  0  0  0  0  0  0
  161.2970  203.1580  148.0350 O   0  0  0  0  0  1  0  0  0  0  0  0
  1 10  1  0  0  0  0
  1 19  1  0  0  0  0
  2  6  2  0  0  0  0
  2 14  1  0  0  0  0
  3 14  1  0  0  0  0
  4 11  2  0  0  0  0
  6 16  1  0  0  0  0
  7  8  2  0  0  0  0
  8 11  1  0  0  0  0
  9 12  1  0  0  0  0
  9  7  1  0  0  0  0
 10  2  1  0  0  0  0
 11  5  1  0  0  0  0
 12  4  1  0  0  0  0
 13  1  2  0  0  0  0
 14  9  2  0  0  0  0
 15 19  2  0  0  0  0
 16 12  2  0  0  0  0
 17 15  1  0  0  0  0
 18 13  1  0  0  0  0
 18 17  2  0  0  0  0
 19  3  1  0  0  0  0
 20 23  2  0  0  0  0
 20 24  1  0  0  0  0
 21 10  1  0  0  0  0
 22 21  2  0  0  0  0
 23 22  1  0  0  0  0
 24 25  2  0  0  0  0
 25 21  1  0  0  0  0
 26 17  1  0  0  0  0
 26 27  1  0  0  0  0
M  END
>  <MODEL>
7

>  <REMARK>
 VINA RESULT:      -8.3      3.255      6.798
  Name = 
  2 active torsions:
  status: ('A' for Active; 'I' for Inactive)
    1  A    between atoms: C_9  and  N_15
    2  A    between atoms: C_10  and  CA_22
                            x       y       z     vdW  Elec       q    Type
                         _______ _______ _______ _____ _____    ______ ____

>  <TORSDO>
F 2

$$$$
=
 OpenBabel11052423173D

 27 31  0  0  0  0  0  0  0  0999 V2000
  161.1660  205.2300  148.4940 C   0  0  0  0  0  0  0  0  0  0  0  0
  161.1600  205.9380  150.8810 C   0  0  0  0  0  0  0  0  0  0  0  0
  161.2150  207.5830  149.0910 O   0  0  0  0  0  0  0  0  0  0  0  0
  161.1650  208.9910  153.7460 C   0  0  0  0  0  3  0  0  0  0  0  0
  161.2090  211.3100  154.2890 F   0  0  0  0  0  0  0  0  0  0  0  0
  161.1150  205.6650  152.2570 C   0  0  0  0  0  3  0  0  0  0  0  0
  161.2370  209.6570  151.0250 C   0  0  0  0  0  3  0  0  0  0  0  0
  161.2410  210.6640  151.9950 C   0  0  0  0  0  3  0  0  0  0  0  0
  161.1990  208.3100  151.4110 C   0  0  0  0  0  0  0  0  0  0  0  0
  161.1450  204.8780  149.8980 N   0  0  0  0  0  0  0  0  0  0  0  0
  161.2050  210.3310  153.3530 C   0  0  0  0  0  0  0  0  0  0  0  0
  161.1610  207.9770  152.7820 C   0  0  0  0  0  0  0  0  0  0  0  0
  161.1730  204.2540  147.4860 C   0  0  0  0  0  3  0  0  0  0  0  0
  161.1930  207.2820  150.4590 C   0  0  0  0  0  0  0  0  0  0  0  0
  161.2320  206.9320  146.7670 C   0  0  0  0  0  3  0  0  0  0  0  0
  161.1190  206.6760  153.1660 N   0  0  0  0  0  0  0  0  0  0  0  0
  161.2370  205.9250  145.8000 C   0  0  0  0  0  0  0  0  0  0  0  0
  161.2040  204.6180  146.1760 N   0  0  0  0  0  0  0  0  0  0  0  0
  161.2030  206.5820  148.1170 C   0  0  0  0  0  0  0  0  0  0  0  0
  161.0480  200.8070  151.0980 C   0  0  0  0  0  3  0  0  0  0  0  0
  161.1120  203.4970  150.3060 C   0  0  0  0  0  0  0  0  0  0  0  0
  160.3760  202.5590  149.5670 C   0  0  0  0  0  3  0  0  0  0  0  0
  160.3440  201.2190  149.9620 C   0  0  0  0  0  3  0  0  0  0  0  0
  161.7850  201.7370  151.8380 C   0  0  0  0  0  3  0  0  0  0  0  0
  161.8180  203.0780  151.4430 C   0  0  0  0  0  3  0  0  0  0  0  0
  161.2440  206.2820  144.3560 C   0  0  0  0  0  2  0  0  0  0  0  0
  161.3170  205.1230  143.5860 O   0  0  0  0  0  1  0  0  0  0  0  0
  1 10  1  0  0  0  0
  2  6  1  0  0  0  0
  3 14  1  0  0  0  0
  6 16  2  0  0  0  0
  7  9  2  0  0  0  0
  7  8  1  0  0  0  0
  8 11  2  0  0  0  0
  9 12  1  0  0  0  0
 10 21  1  0  0  0  0
 10  2  1  0  0  0  0
 11  4  1  0  0  0  0
 11  5  1  0  0  0  0
 12 16  1  0  0  0  0
 12  4  2  0  0  0  0
 13  1  2  0  0  0  0
 14  2  2  0  0  0  0
 14  9  1  0  0  0  0
 15 19  2  0  0  0  0
 17 18  2  0  0  0  0
 17 15  1  0  0  0  0
 18 13  1  0  0  0  0
 19  1  1  0  0  0  0
 19  3  1  0  0  0  0
 20 24  1  0  0  0  0
 21 25  1  0  0  0  0
 22 23  1  0  0  0  0
 22 21  2  0  0  0  0
 23 20  2  0  0  0  0
 25 24  2  0  0  0  0
 26 17  1  0  0  0  0
 27 26  1  0  0  0  0
M  END
>  <MODEL>
8

>  <REMARK>
 VINA RESULT:      -7.8      3.299      6.369
  Name = 
  2 active torsions:
  status: ('A' for Active; 'I' for Inactive)
    1  A    between atoms: C_9  and  N_15
    2  A    between atoms: C_10  and  CA_22
                            x       y       z     vdW  Elec       q    Type
                         _______ _______ _______ _____ _____    ______ ____

>  <TORSDO>
F 2

$$$$
