=
 OpenBabel11062407473D

 34 38  0  0  1  0  0  0  0  0999 V2000
  160.6110  202.9560  148.7650 C   0  0  1  0  0  3  0  0  0  0  0  0
  162.0060  204.2430  147.1640 C   0  0  0  0  0  0  0  0  0  0  0  0
  161.0730  205.4130  149.1640 C   0  0  0  0  0  0  0  0  0  0  0  0
  162.6390  208.1770  150.3590 C   0  0  0  0  0  2  0  0  0  0  0  0
  160.0460  201.5980  150.6330 O   0  0  0  0  0  1  0  0  0  0  0  0
  162.1810  203.1160  146.3700 O   0  0  0  0  0  1  0  0  0  0  0  0
  162.6470  206.5630  147.5390 C   0  0  0  0  0  3  0  0  0  0  0  0
  161.2140  204.2100  148.2520 C   0  0  0  0  0  0  0  0  0  0  0  0
  161.5210  207.8580  149.3800 C   0  0  2  0  0  3  0  0  0  0  0  0
  160.0680  201.9160  147.8360 C   0  0  0  0  0  1  0  0  0  0  0  0
  161.4340  205.0280  150.5940 C   0  0  0  0  0  0  0  0  0  0  0  0
  160.5710  202.7690  150.0980 C   0  0  0  0  0  0  0  0  0  0  0  0
  162.7560  205.4560  146.8130 C   0  0  0  0  0  3  0  0  0  0  0  0
  163.0990  206.9410  151.1410 C   0  0  0  0  0  2  0  0  0  0  0  0
  161.9750  205.9990  151.6180 C   0  0  1  0  0  3  0  0  0  0  0  0
  161.7740  206.6050  148.6770 N   0  0  0  0  0  0  0  0  0  0  0  0
  161.1120  203.7970  151.0190 C   0  0  0  0  0  3  0  0  0  0  0  0
  161.3880  208.7180  153.7070 N   0  0  0  0  0  0  0  0  0  0  0  0
  160.6330  208.3600  154.9140 C   0  0  0  0  0  2  0  0  0  0  0  0
  160.9420  206.5500  152.6120 C   0  0  2  0  0  3  0  0  0  0  0  0
  160.3900  206.8480  155.0460 C   0  0  0  0  0  2  0  0  0  0  0  0
  160.7750  208.0760  152.5450 C   0  0  0  0  0  2  0  0  0  0  0  0
  161.2050  206.0470  154.0350 C   0  0  0  0  0  2  0  0  0  0  0  0
  161.2340  210.1490  153.5260 C   0  0  0  0  0  1  0  0  0  0  0  0
  161.2180  209.0130  148.4370 C   0  0  0  0  0  2  0  0  0  0  0  0
  162.2790  209.9230  148.4710 O   0  0  0  0  0  0  0  0  0  0  0  0
  161.7040  211.1560  148.7950 C   0  0  0  0  0  2  0  0  0  0  0  0
  160.3330  213.6980  148.9600 C   0  0  0  0  0  1  0  0  0  0  0  0
  161.4570  211.9290  147.5800 N   0  0  0  0  0  0  0  0  0  0  0  0
  160.2790  212.8080  147.7160 C   0  0  2  0  0  3  0  0  0  0  0  0
  161.3200  214.4530  146.2850 O   0  0  0  0  0  0  0  0  0  0  0  0
  162.3850  213.5670  146.0360 C   0  0  0  0  0  2  0  0  0  0  0  0
  162.6530  212.7130  147.2760 C   0  0  0  0  0  2  0  0  0  0  0  0
  160.1570  213.6750  146.4560 C   0  0  0  0  0  2  0  0  0  0  0  0
  1 10  1  6  0  0  0
  1 12  1  0  0  0  0
  2  8  2  0  0  0  0
  3 11  2  0  0  0  0
  4 14  1  0  0  0  0
  6  2  1  0  0  0  0
  7 16  1  0  0  0  0
  8  1  1  0  0  0  0
  8  3  1  0  0  0  0
  9 25  1  6  0  0  0
  9  4  1  0  0  0  0
 11 17  1  0  0  0  0
 11 15  1  0  0  0  0
 12  5  1  0  0  0  0
 12 17  2  0  0  0  0
 13  2  1  0  0  0  0
 13  7  2  0  0  0  0
 15 14  1  6  0  0  0
 15 20  1  0  0  0  0
 16  3  1  0  0  0  0
 16  9  1  0  0  0  0
 18 19  1  0  0  0  0
 19 21  1  0  0  0  0
 20 22  1  1  0  0  0
 20 23  1  0  0  0  0
 22 18  1  0  0  0  0
 23 21  1  0  0  0  0
 24 18  1  0  0  0  0
 25 26  1  0  0  0  0
 26 27  1  0  0  0  0
 29 30  1  0  0  0  0
 29 27  1  0  0  0  0
 30 28  1  1  0  0  0
 31 34  1  0  0  0  0
 32 31  1  0  0  0  0
 32 33  1  0  0  0  0
 33 29  1  0  0  0  0
 34 30  1  0  0  0  0
M  END
>  <MODEL>
1

>  <REMARK>
 VINA RESULT:      -8.1      0.000      0.000
  Name = 
  5 active torsions:
  status: ('A' for Active; 'I' for Inactive)
    1  A    between atoms: C_3  and  N_13
    2  A    between atoms: C_3  and  O_17
    3  A    between atoms: C_12  and  C_28
    4  A    between atoms: O_17  and  C_29
    5  A    between atoms: C_18  and  C_29
                            x       y       z     vdW  Elec       q    Type
                         _______ _______ _______ _____ _____    ______ ____

>  <TORSDO>
F 5

$$$$
=
 OpenBabel11062407473D

 34 38  0  0  1  0  0  0  0  0999 V2000
  159.1300  210.8080  154.9840 C   0  0  0  0  0  0  0  0  0  0  0  0
  160.2950  208.6420  155.3290 C   0  0  0  0  0  0  0  0  0  0  0  0
  160.0810  209.5410  153.0080 C   0  0  1  0  0  3  0  0  0  0  0  0
  162.3310  208.6060  150.6450 C   0  0  0  0  0  2  0  0  0  0  0  0
  158.8100  213.1540  154.7690 O   0  0  0  0  0  1  0  0  0  0  0  0
  160.0810  208.7150  156.7010 O   0  0  0  0  0  1  0  0  0  0  0  0
  161.3890  207.4270  153.5230 C   0  0  0  0  0  3  0  0  0  0  0  0
  159.7940  209.5740  154.4960 C   0  0  0  0  0  0  0  0  0  0  0  0
  160.9730  208.1410  151.1460 C   0  0  2  0  0  3  0  0  0  0  0  0
  158.2130  210.7830  156.1650 C   0  0  0  0  0  1  0  0  0  0  0  0
  160.7060  210.8590  152.5690 C   0  0  0  0  0  0  0  0  0  0  0  0
  159.3800  211.9610  154.3370 C   0  0  0  0  0  0  0  0  0  0  0  0
  161.1320  207.5460  154.8210 C   0  0  0  0  0  3  0  0  0  0  0  0
  162.7510  209.9460  151.2600 C   0  0  0  0  0  2  0  0  0  0  0  0
  161.6320  211.0000  151.3840 C   0  0  1  0  0  3  0  0  0  0  0  0
  160.8350  208.3580  152.5810 N   0  0  0  0  0  0  0  0  0  0  0  0
  160.2930  211.9860  153.1680 C   0  0  0  0  0  3  0  0  0  0  0  0
  162.3620  212.7630  148.4740 N   0  0  0  0  0  0  0  0  0  0  0  0
  161.2280  213.5550  147.9850 C   0  0  0  0  0  2  0  0  0  0  0  0
  160.9760  211.5150  150.0930 C   0  0  2  0  0  3  0  0  0  0  0  0
  160.0220  213.5340  148.9390 C   0  0  0  0  0  2  0  0  0  0  0  0
  161.8920  211.4330  148.8620 C   0  0  0  0  0  2  0  0  0  0  0  0
  160.3700  212.9090  150.2870 C   0  0  0  0  0  2  0  0  0  0  0  0
  163.2600  212.5780  147.3490 C   0  0  0  0  0  1  0  0  0  0  0  0
  160.6510  206.7120  150.7310 C   0  0  0  0  0  2  0  0  0  0  0  0
  161.4690  206.3520  149.6560 O   0  0  0  0  0  0  0  0  0  0  0  0
  160.6110  206.2080  148.5630 C   0  0  0  0  0  2  0  0  0  0  0  0
  161.4460  203.5810  147.6850 C   0  0  0  0  0  1  0  0  0  0  0  0
  161.3840  206.0650  147.3320 N   0  0  0  0  0  0  0  0  0  0  0  0
  162.2270  204.8530  147.3480 C   0  0  2  0  0  3  0  0  0  0  0  0
  161.9430  204.6010  144.9630 O   0  0  0  0  0  0  0  0  0  0  0  0
  161.2550  205.8280  144.9120 C   0  0  0  0  0  2  0  0  0  0  0  0
  160.4570  206.0320  146.2010 C   0  0  0  0  0  2  0  0  0  0  0  0
  162.9100  204.7030  145.9830 C   0  0  0  0  0  2  0  0  0  0  0  0
  1 10  1  0  0  0  0
  2  6  1  0  0  0  0
  3 11  1  1  0  0  0
  3  8  1  0  0  0  0
  4  9  1  0  0  0  0
  4 14  1  0  0  0  0
  7 13  2  0  0  0  0
  8  1  1  0  0  0  0
  8  2  2  0  0  0  0
  9 25  1  1  0  0  0
  9 16  1  0  0  0  0
 11 17  2  0  0  0  0
 12  5  1  0  0  0  0
 12  1  2  0  0  0  0
 13  2  1  0  0  0  0
 15 14  1  6  0  0  0
 15 11  1  0  0  0  0
 16  3  1  0  0  0  0
 16  7  1  0  0  0  0
 17 12  1  0  0  0  0
 18 22  1  0  0  0  0
 19 18  1  0  0  0  0
 19 21  1  0  0  0  0
 20 22  1  6  0  0  0
 20 23  1  0  0  0  0
 20 15  1  0  0  0  0
 21 23  1  0  0  0  0
 24 18  1  0  0  0  0
 26 25  1  0  0  0  0
 27 26  1  0  0  0  0
 29 30  1  0  0  0  0
 29 27  1  0  0  0  0
 30 28  1  6  0  0  0
 31 34  1  0  0  0  0
 32 31  1  0  0  0  0
 32 33  1  0  0  0  0
 33 29  1  0  0  0  0
 34 30  1  0  0  0  0
M  END
>  <MODEL>
2

>  <REMARK>
 VINA RESULT:      -7.0      2.657      7.764
  Name = 
  5 active torsions:
  status: ('A' for Active; 'I' for Inactive)
    1  A    between atoms: C_3  and  N_13
    2  A    between atoms: C_3  and  O_17
    3  A    between atoms: C_12  and  C_28
    4  A    between atoms: O_17  and  C_29
    5  A    between atoms: C_18  and  C_29
                            x       y       z     vdW  Elec       q    Type
                         _______ _______ _______ _____ _____    ______ ____

>  <TORSDO>
F 5

$$$$
=
 OpenBabel11062407473D

 34 38  0  0  1  0  0  0  0  0999 V2000
  161.0430  206.0070  149.6250 C   0  0  1  0  0  3  0  0  0  0  0  0
  162.0420  208.0130  148.5540 C   0  0  0  0  0  0  0  0  0  0  0  0
  160.8800  208.2690  150.7510 C   0  0  0  0  0  0  0  0  0  0  0  0
  161.7230  210.8470  152.7920 C   0  0  0  0  0  2  0  0  0  0  0  0
  160.8690  204.0600  150.9770 O   0  0  0  0  0  1  0  0  0  0  0  0
  162.4810  207.2530  147.4770 O   0  0  0  0  0  1  0  0  0  0  0  0
  162.0870  210.1990  149.6290 C   0  0  0  0  0  3  0  0  0  0  0  0
  161.3030  207.4650  149.5370 C   0  0  0  0  0  0  0  0  0  0  0  0
  160.7040  210.5700  151.6980 C   0  0  2  0  0  3  0  0  0  0  0  0
  160.7630  205.1920  148.4020 C   0  0  0  0  0  1  0  0  0  0  0  0
  161.3510  207.5770  152.0240 C   0  0  0  0  0  0  0  0  0  0  0  0
  161.0740  205.4280  150.8390 C   0  0  0  0  0  0  0  0  0  0  0  0
  162.4580  209.4210  148.6180 C   0  0  0  0  0  3  0  0  0  0  0  0
  162.4910  209.5860  153.2040 C   0  0  0  0  0  2  0  0  0  0  0  0
  161.6480  208.3000  153.3170 C   0  0  1  0  0  3  0  0  0  0  0  0
  161.2510  209.6860  150.6760 N   0  0  0  0  0  0  0  0  0  0  0  0
  161.3550  206.2360  152.0510 C   0  0  0  0  0  3  0  0  0  0  0  0
  160.8930  209.3770  156.5380 N   0  0  0  0  0  0  0  0  0  0  0  0
  160.0120  208.4520  157.2590 C   0  0  0  0  0  2  0  0  0  0  0  0
  160.5270  208.2600  154.3660 C   0  0  2  0  0  3  0  0  0  0  0  0
  159.7320  207.1560  156.4800 C   0  0  0  0  0  2  0  0  0  0  0  0
  160.3930  209.5590  155.1760 C   0  0  0  0  0  2  0  0  0  0  0  0
  160.6340  207.0180  155.2570 C   0  0  0  0  0  2  0  0  0  0  0  0
  160.7820  210.6630  157.2010 C   0  0  0  0  0  1  0  0  0  0  0  0
  160.1040  211.8430  151.1170 C   0  0  0  0  0  2  0  0  0  0  0  0
  159.8600  212.7490  152.1540 O   0  0  0  0  0  0  0  0  0  0  0  0
  158.4970  212.6310  152.4400 C   0  0  0  0  0  2  0  0  0  0  0  0
  156.2950  214.1470  153.5470 C   0  0  0  0  0  1  0  0  0  0  0  0
  158.2830  212.6530  153.8850 N   0  0  0  0  0  0  0  0  0  0  0  0
  157.5880  213.8800  154.3220 C   0  0  2  0  0  3  0  0  0  0  0  0
  156.4810  212.6490  156.0810 O   0  0  0  0  0  0  0  0  0  0  0  0
  157.2400  211.5070  155.7630 C   0  0  0  0  0  2  0  0  0  0  0  0
  157.5150  211.4660  154.2590 C   0  0  0  0  0  2  0  0  0  0  0  0
  157.2880  213.7750  155.8220 C   0  0  0  0  0  2  0  0  0  0  0  0
  1 10  1  6  0  0  0
  1 12  1  0  0  0  0
  2 13  1  0  0  0  0
  2  8  2  0  0  0  0
  3 11  2  0  0  0  0
  4 14  1  0  0  0  0
  6  2  1  0  0  0  0
  7 16  1  0  0  0  0
  8  1  1  0  0  0  0
  8  3  1  0  0  0  0
  9 25  1  6  0  0  0
  9  4  1  0  0  0  0
 11 17  1  0  0  0  0
 11 15  1  0  0  0  0
 12  5  1  0  0  0  0
 12 17  2  0  0  0  0
 13  7  2  0  0  0  0
 15 14  1  6  0  0  0
 15 20  1  0  0  0  0
 16  3  1  0  0  0  0
 16  9  1  0  0  0  0
 18 24  1  0  0  0  0
 18 19  1  0  0  0  0
 20 22  1  1  0  0  0
 20 23  1  0  0  0  0
 21 19  1  0  0  0  0
 22 18  1  0  0  0  0
 23 21  1  0  0  0  0
 25 26  1  0  0  0  0
 26 27  1  0  0  0  0
 27 29  1  0  0  0  0
 29 33  1  0  0  0  0
 29 30  1  0  0  0  0
 30 28  1  6  0  0  0
 30 34  1  0  0  0  0
 32 31  1  0  0  0  0
 33 32  1  0  0  0  0
 34 31  1  0  0  0  0
M  END
>  <MODEL>
3

>  <REMARK>
 VINA RESULT:      -6.0      3.368      5.108
  Name = 
  5 active torsions:
  status: ('A' for Active; 'I' for Inactive)
    1  A    between atoms: C_3  and  N_13
    2  A    between atoms: C_3  and  O_17
    3  A    between atoms: C_12  and  C_28
    4  A    between atoms: O_17  and  C_29
    5  A    between atoms: C_18  and  C_29
                            x       y       z     vdW  Elec       q    Type
                         _______ _______ _______ _____ _____    ______ ____

>  <TORSDO>
F 5

$$$$
=
 OpenBabel11062407473D

 34 38  0  0  1  0  0  0  0  0999 V2000
  161.0480  206.1520  149.8500 C   0  0  1  0  0  3  0  0  0  0  0  0
  161.9390  208.2540  148.8710 C   0  0  0  0  0  0  0  0  0  0  0  0
  160.8910  208.3260  151.1390 C   0  0  0  0  0  0  0  0  0  0  0  0
  161.7810  210.7810  153.3080 C   0  0  0  0  0  2  0  0  0  0  0  0
  160.9940  204.1130  151.0700 O   0  0  0  0  0  1  0  0  0  0  0  0
  162.3370  207.5810  147.7220 O   0  0  0  0  0  1  0  0  0  0  0  0
  161.9890  210.3610  150.0920 C   0  0  0  0  0  3  0  0  0  0  0  0
  161.2670  207.6190  149.8510 C   0  0  0  0  0  0  0  0  0  0  0  0
  160.7110  210.5510  152.2520 C   0  0  2  0  0  3  0  0  0  0  0  0
  160.7210  205.4150  148.5900 C   0  0  0  0  0  1  0  0  0  0  0  0
  161.4470  207.5620  152.3340 C   0  0  0  0  0  0  0  0  0  0  0  0
  161.1580  205.4920  151.0180 C   0  0  0  0  0  0  0  0  0  0  0  0
  162.3240  209.6650  149.0120 C   0  0  0  0  0  3  0  0  0  0  0  0
  162.6010  209.5160  153.5900 C   0  0  0  0  0  2  0  0  0  0  0  0
  161.7960  208.2030  153.6570 C   0  0  1  0  0  3  0  0  0  0  0  0
  161.2240  209.7540  151.1430 N   0  0  0  0  0  0  0  0  0  0  0  0
  161.4850  206.2220  152.2660 C   0  0  0  0  0  3  0  0  0  0  0  0
  160.0030  210.0820  155.9710 N   0  0  0  0  0  0  0  0  0  0  0  0
  159.6970  209.3390  157.1980 C   0  0  0  0  0  2  0  0  0  0  0  0
  160.7350  208.0590  154.7580 C   0  0  2  0  0  3  0  0  0  0  0  0
  160.3530  207.9490  157.2400 C   0  0  0  0  0  2  0  0  0  0  0  0
  159.7410  209.2300  154.8120 C   0  0  0  0  0  2  0  0  0  0  0  0
  161.3720  207.7630  156.1200 C   0  0  0  0  0  2  0  0  0  0  0  0
  159.0610  211.1840  155.9030 C   0  0  0  0  0  1  0  0  0  0  0  0
  160.0510  211.8440  151.7940 C   0  0  0  0  0  2  0  0  0  0  0  0
  158.6910  211.8030  152.1160 O   0  0  0  0  0  0  0  0  0  0  0  0
  158.1490  212.9850  151.6050 C   0  0  0  0  0  2  0  0  0  0  0  0
  156.0670  213.9680  149.8520 C   0  0  0  0  0  1  0  0  0  0  0  0
  158.3880  213.0650  150.1650 N   0  0  0  0  0  0  0  0  0  0  0  0
  157.1330  212.9720  149.3920 C   0  0  2  0  0  3  0  0  0  0  0  0
  158.0370  214.4530  147.7120 O   0  0  0  0  0  0  0  0  0  0  0  0
  159.2840  214.4400  148.3670 C   0  0  0  0  0  2  0  0  0  0  0  0
  159.0780  214.3220  149.8780 C   0  0  0  0  0  2  0  0  0  0  0  0
  157.4480  213.1880  147.9070 C   0  0  0  0  0  2  0  0  0  0  0  0
  1 10  1  6  0  0  0
  1  8  1  0  0  0  0
  1 12  1  0  0  0  0
  2 13  1  0  0  0  0
  2  8  2  0  0  0  0
  3 16  1  0  0  0  0
  3 11  2  0  0  0  0
  4 14  1  0  0  0  0
  6  2  1  0  0  0  0
  7 16  1  0  0  0  0
  8  3  1  0  0  0  0
  9 25  1  6  0  0  0
  9  4  1  0  0  0  0
 11 15  1  0  0  0  0
 12  5  1  0  0  0  0
 12 17  2  0  0  0  0
 13  7  2  0  0  0  0
 15 14  1  6  0  0  0
 15 20  1  0  0  0  0
 16  9  1  0  0  0  0
 17 11  1  0  0  0  0
 18 19  1  0  0  0  0
 19 21  1  0  0  0  0
 20 22  1  1  0  0  0
 20 23  1  0  0  0  0
 22 18  1  0  0  0  0
 23 21  1  0  0  0  0
 24 18  1  0  0  0  0
 25 26  1  0  0  0  0
 27 26  1  0  0  0  0
 29 27  1  0  0  0  0
 30 28  1  1  0  0  0
 30 29  1  0  0  0  0
 31 34  1  0  0  0  0
 31 32  1  0  0  0  0
 32 33  1  0  0  0  0
 33 29  1  0  0  0  0
 34 30  1  0  0  0  0
M  END
>  <MODEL>
4

>  <REMARK>
 VINA RESULT:      -5.7      2.417      3.754
  Name = 
  5 active torsions:
  status: ('A' for Active; 'I' for Inactive)
    1  A    between atoms: C_3  and  N_13
    2  A    between atoms: C_3  and  O_17
    3  A    between atoms: C_12  and  C_28
    4  A    between atoms: O_17  and  C_29
    5  A    between atoms: C_18  and  C_29
                            x       y       z     vdW  Elec       q    Type
                         _______ _______ _______ _____ _____    ______ ____

>  <TORSDO>
F 5

$$$$
=
 OpenBabel11062407473D

 34 38  0  0  1  0  0  0  0  0999 V2000
  160.0640  209.6000  154.6570 C   0  0  0  0  0  0  0  0  0  0  0  0
  161.0340  207.3400  154.3150 C   0  0  0  0  0  0  0  0  0  0  0  0
  160.5530  208.7620  152.3180 C   0  0  1  0  0  3  0  0  0  0  0  0
  162.2920  208.2490  149.4480 C   0  0  0  0  0  2  0  0  0  0  0  0
  159.9630  211.9480  155.0140 O   0  0  0  0  0  1  0  0  0  0  0  0
  161.0480  207.1090  155.6850 O   0  0  0  0  0  1  0  0  0  0  0  0
  161.6960  206.5040  152.1240 C   0  0  0  0  0  3  0  0  0  0  0  0
  160.5090  208.4700  153.8050 C   0  0  0  0  0  0  0  0  0  0  0  0
  160.9880  207.7730  150.0700 C   0  0  2  0  0  3  0  0  0  0  0  0
  159.3460  209.3660  155.9480 C   0  0  0  0  0  1  0  0  0  0  0  0
  161.2360  210.1020  152.0700 C   0  0  0  0  0  0  0  0  0  0  0  0
  160.3290  210.8520  154.2410 C   0  0  0  0  0  0  0  0  0  0  0  0
  161.6600  206.3380  153.4420 C   0  0  0  0  0  3  0  0  0  0  0  0
  162.9420  209.3800  150.2540 C   0  0  0  0  0  2  0  0  0  0  0  0
  161.9750  210.4500  150.7990 C   0  0  1  0  0  3  0  0  0  0  0  0
  161.1020  207.6620  151.5190 N   0  0  0  0  0  0  0  0  0  0  0  0
  161.0440  211.0850  152.9620 C   0  0  0  0  0  3  0  0  0  0  0  0
  162.4090  212.8670  148.3350 N   0  0  0  0  0  0  0  0  0  0  0  0
  161.2720  213.7890  148.2300 C   0  0  0  0  0  2  0  0  0  0  0  0
  161.1820  211.2910  149.7870 C   0  0  2  0  0  3  0  0  0  0  0  0
  160.2100  213.5620  149.3190 C   0  0  0  0  0  2  0  0  0  0  0  0
  161.9110  211.4970  148.4500 C   0  0  0  0  0  2  0  0  0  0  0  0
  160.6990  212.6080  150.4050 C   0  0  0  0  0  2  0  0  0  0  0  0
  163.1290  212.9470  147.0770 C   0  0  0  0  0  1  0  0  0  0  0  0
  160.4560  206.5040  149.4200 C   0  0  0  0  0  2  0  0  0  0  0  0
  161.5340  205.7130  149.0090 O   0  0  0  0  0  0  0  0  0  0  0  0
  160.9680  204.6470  148.3040 C   0  0  0  0  0  2  0  0  0  0  0  0
  159.7600  203.5780  150.7060 C   0  0  0  0  0  1  0  0  0  0  0  0
  161.4390  203.3770  148.8520 N   0  0  0  0  0  0  0  0  0  0  0  0
  161.2080  203.2840  150.3070 C   0  0  2  0  0  3  0  0  0  0  0  0
  160.8510  200.9030  150.1180 O   0  0  0  0  0  0  0  0  0  0  0  0
  161.2060  200.9550  148.7560 C   0  0  0  0  0  2  0  0  0  0  0  0
  160.7590  202.2880  148.1520 C   0  0  0  0  0  2  0  0  0  0  0  0
  161.6100  201.8840  150.7870 C   0  0  0  0  0  2  0  0  0  0  0  0
  1 10  1  0  0  0  0
  2  6  1  0  0  0  0
  3 11  1  1  0  0  0
  3  8  1  0  0  0  0
  4  9  1  0  0  0  0
  4 14  1  0  0  0  0
  7 13  2  0  0  0  0
  8  2  2  0  0  0  0
  8  1  1  0  0  0  0
  9 25  1  6  0  0  0
  9 16  1  0  0  0  0
 11 17  2  0  0  0  0
 12  1  2  0  0  0  0
 12  5  1  0  0  0  0
 13  2  1  0  0  0  0
 15 14  1  6  0  0  0
 15 11  1  0  0  0  0
 16  7  1  0  0  0  0
 16  3  1  0  0  0  0
 17 12  1  0  0  0  0
 18 22  1  0  0  0  0
 19 18  1  0  0  0  0
 19 21  1  0  0  0  0
 20 22  1  6  0  0  0
 20 23  1  0  0  0  0
 20 15  1  0  0  0  0
 21 23  1  0  0  0  0
 24 18  1  0  0  0  0
 26 25  1  0  0  0  0
 27 29  1  0  0  0  0
 27 26  1  0  0  0  0
 29 30  1  0  0  0  0
 30 28  1  6  0  0  0
 30 34  1  0  0  0  0
 31 34  1  0  0  0  0
 32 31  1  0  0  0  0
 33 32  1  0  0  0  0
 33 29  1  0  0  0  0
M  END
>  <MODEL>
5

>  <REMARK>
 VINA RESULT:      -5.5      2.324      8.034
  Name = 
  5 active torsions:
  status: ('A' for Active; 'I' for Inactive)
    1  A    between atoms: C_3  and  N_13
    2  A    between atoms: C_3  and  O_17
    3  A    between atoms: C_12  and  C_28
    4  A    between atoms: O_17  and  C_29
    5  A    between atoms: C_18  and  C_29
                            x       y       z     vdW  Elec       q    Type
                         _______ _______ _______ _____ _____    ______ ____

>  <TORSDO>
F 5

$$$$
