=
 OpenBabel11062408543D

 55 60  0  0  1  0  0  0  0  0999 V2000
  163.4900  212.5650  148.2190 N   0  0  0  0  0  0  0  0  0  0  0  0
  161.4280  213.7920  146.8510 C   0  0  0  0  0  0  0  0  0  0  0  0
  161.1510  212.8010  147.7970 C   0  0  0  0  0  3  0  0  0  0  0  0
  163.7790  213.5310  147.3050 C   0  0  0  0  0  3  0  0  0  0  0  0
  162.2060  212.1940  148.4800 C   0  0  0  0  0  0  0  0  0  0  0  0
  162.7500  214.1620  146.6030 C   0  0  0  0  0  3  0  0  0  0  0  0
  161.9310  211.0980  149.4440 C   0  0  0  0  0  2  0  0  0  0  0  0
  160.7900  211.5060  150.3650 C   0  0  0  0  0  2  0  0  0  0  0  0
  160.3680  211.3300  155.4770 C   0  0  0  0  0  2  0  0  0  0  0  0
  162.0740  212.0110  157.1620 C   0  0  0  0  0  1  0  0  0  0  0  0
  162.0530  210.5140  154.1400 C   0  0  0  0  0  0  0  0  0  0  0  0
  162.5200  210.4080  155.4310 O   0  0  0  0  0  0  0  0  0  0  0  0
  161.5340  210.8510  156.3520 C   0  0  2  0  0  3  0  0  0  0  0  0
  160.8310  210.9930  154.1000 C   0  0  0  0  0  0  0  0  0  0  0  0
  161.9460  209.7380  151.7680 C   0  0  2  0  0  3  0  0  0  0  0  0
  162.8520  210.1930  152.9210 C   0  0  0  0  0  2  0  0  0  0  0  0
  160.1270  211.3310  152.8150 C   0  0  1  0  0  3  0  0  0  0  0  0
  160.6680  210.5840  151.5710 C   0  0  1  0  0  3  0  0  0  0  0  0
  161.9220  207.4900  150.6860 C   0  0  0  0  0  3  0  0  0  0  0  0
  161.0590  205.5220  151.8180 C   0  0  0  0  0  0  0  0  0  0  0  0
  161.0640  207.6750  152.9420 C   0  0  0  0  0  3  0  0  0  0  0  0
  160.7750  206.3080  152.9450 C   0  0  0  0  0  3  0  0  0  0  0  0
  161.6330  206.1220  150.6890 C   0  0  0  0  0  3  0  0  0  0  0  0
  161.6410  208.2710  151.8110 C   0  0  0  0  0  0  0  0  0  0  0  0
  160.7540  204.0830  151.8150 C   0  0  0  0  0  0  0  0  0  0  0  0
  161.0970  203.3560  152.7840 O   0  0  0  0  0  1  0  0  0  0  0  0
  160.0800  203.5120  150.7400 O   0  0  0  0  0  0  0  0  0  0  0  0
  158.1280  210.5460  154.1440 C   0  0  0  0  0  1  0  0  0  0  0  0
  158.5900  211.3450  152.9390 C   0  0  1  0  0  3  0  0  0  0  0  0
  157.9560  213.5120  154.1550 C   0  0  0  0  0  1  0  0  0  0  0  0
  157.8840  212.7100  152.8670 C   0  0  0  0  0  3  0  0  0  0  0  0
  158.3440  213.5440  151.6910 C   0  0  0  0  0  1  0  0  0  0  0  0
  160.3190  214.4520  146.1000 C   0  0  0  0  0  2  0  0  0  0  0  0
  159.5290  213.4430  145.2720 C   0  0  0  0  0  2  0  0  0  0  0  0
  161.1850  214.3220  143.6160 C   0  0  0  0  0  1  0  0  0  0  0  0
  160.1640  213.2350  143.8990 C   0  0  2  0  0  3  0  0  0  0  0  0
  159.1140  213.1470  142.7910 C   0  0  0  0  0  2  0  0  0  0  0  0
  159.3590  214.1610  141.6750 C   0  0  0  0  0  2  0  0  0  0  0  0
  160.9400  210.4500  139.2930 C   0  0  2  0  0  3  0  0  0  0  0  0
  159.1070  212.1230  140.1890 C   0  0  1  0  0  3  0  0  0  0  0  0
  159.2450  214.4510  139.2600 C   0  0  0  0  0  1  0  0  0  0  0  0
  161.4440  211.4270  141.5020 O   0  0  0  0  0  0  0  0  0  0  0  0
  161.2230  210.2150  140.7930 C   0  0  0  0  0  2  0  0  0  0  0  0
  159.7700  213.5240  140.3430 C   0  0  1  0  0  0  0  0  0  0  0  0
  162.9700  211.7980  139.5750 C   0  0  0  0  0  2  0  0  0  0  0  0
  162.0600  211.1430  138.6270 N   0  0  0  0  0  0  0  0  0  0  0  0
  161.3080  213.5530  140.2170 C   0  0  0  0  0  2  0  0  0  0  0  0
  157.5830  212.1550  140.2480 C   0  0  0  0  0  1  0  0  0  0  0  0
  162.1730  212.3900  140.7450 C   0  0  1  0  0  3  0  0  0  0  0  0
  159.5970  211.1790  139.0680 C   0  0  1  0  0  3  0  0  0  0  0  0
  159.3200  211.6190  137.6600 C   0  0  0  0  0  0  0  0  0  0  0  0
  160.1270  212.3680  137.0480 O   0  0  0  0  0  0  0  0  0  0  0  0
  158.1270  211.1950  137.0150 N   0  0  0  0  0  1  0  0  0  0  0  0
  162.8150  210.1770  137.8310 C   0  0  0  0  0  2  0  0  0  0  0  0
  162.0740  209.0130  137.6080 O   0  0  0  0  0  1  0  0  0  0  0  0
  1  5  1  0  0  0  0
  2  3  1  0  0  0  0
  3  5  2  0  0  0  0
  4  1  2  0  0  0  0
  5  7  1  0  0  0  0
  6  2  2  0  0  0  0
  6  4  1  0  0  0  0
  7  8  1  0  0  0  0
  9 13  1  0  0  0  0
 11 12  1  0  0  0  0
 12 13  1  0  0  0  0
 13 10  1  6  0  0  0
 14 11  2  0  0  0  0
 14  9  1  0  0  0  0
 15 24  1  1  0  0  0
 15 16  1  0  0  0  0
 16 11  1  0  0  0  0
 17 29  1  1  0  0  0
 17 14  1  0  0  0  0
 18  8  1  6  0  0  0
 18 15  1  0  0  0  0
 18 17  1  0  0  0  0
 19 23  2  0  0  0  0
 19 24  1  0  0  0  0
 20 22  2  0  0  0  0
 21 22  1  0  0  0  0
 23 20  1  0  0  0  0
 24 21  2  0  0  0  0
 25 20  1  0  0  0  0
 25 26  1  0  0  0  0
 27 25  2  0  0  0  0
 29 28  1  1  0  0  0
 31 29  1  0  0  0  0
 31 30  1  0  0  0  0
 32 31  1  0  0  0  0
 33  2  1  0  0  0  0
 34 33  1  0  0  0  0
 36 35  1  6  0  0  0
 36 34  1  0  0  0  0
 37 36  1  0  0  0  0
 38 37  1  0  0  0  0
 39 43  1  1  0  0  0
 40 48  1  6  0  0  0
 40 44  1  0  0  0  0
 43 42  1  0  0  0  0
 44 41  1  6  0  0  0
 44 38  1  0  0  0  0
 46 39  1  0  0  0  0
 46 45  1  0  0  0  0
 47 44  1  0  0  0  0
 47 49  1  0  0  0  0
 49 45  1  6  0  0  0
 49 42  1  0  0  0  0
 50 51  1  6  0  0  0
 50 39  1  0  0  0  0
 50 40  1  0  0  0  0
 52 51  2  0  0  0  0
 53 51  1  0  0  0  0
 54 46  1  0  0  0  0
 55 54  1  0  0  0  0
M  END
>  <MODEL>
1

>  <REMARK>
 VINA RESULT:      -4.5      0.000      0.000
  Name = 
  15 active torsions:
  status: ('A' for Active; 'I' for Inactive)
    1  A    between atoms: C_1  and  C_53
    2  A    between atoms: C_2  and  C_28
    3  A    between atoms: C_2  and  C_49
    4  A    between atoms: C_8  and  C_20
    5  A    between atoms: C_8  and  C_22
    6  A    between atoms: C_10  and  C_32
    7  A    between atoms: C_11  and  N_38
    8  A    between atoms: C_19  and  C_40
    9  A    between atoms: C_22  and  C_43
   10  A    between atoms: C_27  and  C_54
   11  A    between atoms: C_28  and  C_44
   12  A    between atoms: C_33  and  C_52
   13  A    between atoms: C_40  and  C_45
   14  A    between atoms: C_43  and  C_51
   15  A    between atoms: C_51  and  C_54
                            x       y       z     vdW  Elec       q    Type
                         _______ _______ _______ _____ _____    ______ ____

>  <TORSDO>
F 15

$$$$
=
 OpenBabel11062408543D

 55 60  0  0  1  0  0  0  0  0999 V2000
  162.1870  207.4710  151.3970 N   0  0  0  0  0  0  0  0  0  0  0  0
  161.2130  205.0210  152.2210 C   0  0  0  0  0  0  0  0  0  0  0  0
  161.3050  206.0800  153.1280 C   0  0  0  0  0  3  0  0  0  0  0  0
  162.0990  206.4530  150.4980 C   0  0  0  0  0  3  0  0  0  0  0  0
  161.7980  207.3120  152.6920 C   0  0  0  0  0  0  0  0  0  0  0  0
  161.6110  205.2070  150.8960 C   0  0  0  0  0  3  0  0  0  0  0  0
  161.9580  208.4290  153.6590 C   0  0  0  0  0  2  0  0  0  0  0  0
  160.5910  208.8560  154.1720 C   0  0  0  0  0  2  0  0  0  0  0  0
  158.8140  213.1390  156.3720 C   0  0  0  0  0  2  0  0  0  0  0  0
  156.4630  213.6400  157.0320 C   0  0  0  0  0  1  0  0  0  0  0  0
  158.0290  212.0420  154.5090 C   0  0  0  0  0  0  0  0  0  0  0  0
  157.0810  212.9960  154.8030 O   0  0  0  0  0  0  0  0  0  0  0  0
  157.4880  213.7680  155.9250 C   0  0  2  0  0  3  0  0  0  0  0  0
  159.0490  212.0950  155.3340 C   0  0  0  0  0  0  0  0  0  0  0  0
  159.2700  210.6000  152.8900 C   0  0  2  0  0  3  0  0  0  0  0  0
  157.8950  211.0210  153.4280 C   0  0  0  0  0  2  0  0  0  0  0  0
  160.1640  211.0870  155.3200 C   0  0  1  0  0  3  0  0  0  0  0  0
  160.3430  210.3460  153.9720 C   0  0  1  0  0  3  0  0  0  0  0  0
  160.8470  211.0830  151.0180 C   0  0  0  0  0  3  0  0  0  0  0  0
  160.7870  213.1770  149.7880 C   0  0  0  0  0  0  0  0  0  0  0  0
  159.2090  212.7710  151.5900 C   0  0  0  0  0  3  0  0  0  0  0  0
  159.7120  213.6010  150.5840 C   0  0  0  0  0  3  0  0  0  0  0  0
  161.3500  211.9140  150.0110 C   0  0  0  0  0  3  0  0  0  0  0  0
  159.7740  211.5060  151.8080 C   0  0  0  0  0  0  0  0  0  0  0  0
  161.3220  214.0480  148.7300 C   0  0  0  0  0  0  0  0  0  0  0  0
  160.5790  214.4510  147.7980 O   0  0  0  0  0  0  0  0  0  0  0  0
  162.6580  214.4360  148.7530 O   0  0  0  0  0  1  0  0  0  0  0  0
  161.2090  212.3200  157.2610 C   0  0  0  0  0  1  0  0  0  0  0  0
  161.4740  211.6060  155.9470 C   0  0  1  0  0  3  0  0  0  0  0  0
  163.9530  211.2530  156.5030 C   0  0  0  0  0  1  0  0  0  0  0  0
  162.6430  210.6140  156.0750 C   0  0  0  0  0  3  0  0  0  0  0  0
  162.3100  209.4310  156.9580 C   0  0  0  0  0  1  0  0  0  0  0  0
  160.6970  203.6910  152.6610 C   0  0  0  0  0  2  0  0  0  0  0  0
  160.4410  202.7720  151.4700 C   0  0  0  0  0  2  0  0  0  0  0  0
  162.6330  201.9630  152.3640 C   0  0  0  0  0  1  0  0  0  0  0  0
  161.5550  201.7380  151.3190 C   0  0  2  0  0  3  0  0  0  0  0  0
  162.1350  201.7230  149.9050 C   0  0  0  0  0  2  0  0  0  0  0  0
  161.3010  200.8790  148.9420 C   0  0  0  0  0  2  0  0  0  0  0  0
  161.4600  203.7940  145.2790 C   0  0  2  0  0  3  0  0  0  0  0  0
  161.2050  201.4570  146.4760 C   0  0  1  0  0  3  0  0  0  0  0  0
  159.1360  201.1960  147.8740 C   0  0  0  0  0  1  0  0  0  0  0  0
  162.7570  203.5710  147.3660 O   0  0  0  0  0  0  0  0  0  0  0  0
  162.8420  203.8120  145.9670 C   0  0  0  0  0  2  0  0  0  0  0  0
  160.5690  201.7020  147.8760 C   0  0  1  0  0  0  0  0  0  0  0  0
  161.0030  205.3190  147.1450 C   0  0  0  0  0  2  0  0  0  0  0  0
  160.5560  204.8180  145.8400 N   0  0  0  0  0  0  0  0  0  0  0  0
  160.4970  203.1760  148.3290 C   0  0  0  0  0  2  0  0  0  0  0  0
  161.1860  199.9950  146.0400 C   0  0  0  0  0  1  0  0  0  0  0  0
  161.6140  204.1760  147.9660 C   0  0  1  0  0  3  0  0  0  0  0  0
  160.8210  202.3880  145.3040 C   0  0  1  0  0  3  0  0  0  0  0  0
  159.4010  202.3060  144.8270 C   0  0  0  0  0  0  0  0  0  0  0  0
  158.6890  201.3010  145.0900 O   0  0  0  0  0  0  0  0  0  0  0  0
  158.8570  203.3710  144.0590 N   0  0  0  0  0  1  0  0  0  0  0  0
  160.4630  205.9380  144.9050 C   0  0  0  0  0  2  0  0  0  0  0  0
  161.4500  205.8600  143.9180 O   0  0  0  0  0  1  0  0  0  0  0  0
  1  5  1  0  0  0  0
  2 33  1  0  0  0  0
  2  3  1  0  0  0  0
  4  6  1  0  0  0  0
  4  1  2  0  0  0  0
  5  3  2  0  0  0  0
  5  7  1  0  0  0  0
  6  2  2  0  0  0  0
  7  8  1  0  0  0  0
 11 12  1  0  0  0  0
 11 14  2  0  0  0  0
 12 13  1  0  0  0  0
 13  9  1  0  0  0  0
 13 10  1  1  0  0  0
 14  9  1  0  0  0  0
 15 24  1  6  0  0  0
 15 16  1  0  0  0  0
 15 18  1  0  0  0  0
 16 11  1  0  0  0  0
 17 14  1  0  0  0  0
 17 29  1  6  0  0  0
 18  8  1  1  0  0  0
 18 17  1  0  0  0  0
 19 24  1  0  0  0  0
 20 23  1  0  0  0  0
 20 22  2  0  0  0  0
 21 24  2  0  0  0  0
 22 21  1  0  0  0  0
 23 19  2  0  0  0  0
 25 27  1  0  0  0  0
 25 20  1  0  0  0  0
 26 25  2  0  0  0  0
 29 31  1  0  0  0  0
 29 28  1  1  0  0  0
 31 30  1  0  0  0  0
 31 32  1  0  0  0  0
 34 33  1  0  0  0  0
 36 34  1  0  0  0  0
 36 35  1  1  0  0  0
 37 36  1  0  0  0  0
 38 37  1  0  0  0  0
 39 50  1  0  0  0  0
 39 46  1  0  0  0  0
 39 43  1  1  0  0  0
 40 48  1  6  0  0  0
 40 44  1  0  0  0  0
 42 49  1  0  0  0  0
 43 42  1  0  0  0  0
 44 41  1  6  0  0  0
 44 47  1  0  0  0  0
 44 38  1  0  0  0  0
 46 45  1  0  0  0  0
 49 45  1  6  0  0  0
 49 47  1  0  0  0  0
 50 51  1  1  0  0  0
 50 40  1  0  0  0  0
 51 52  2  0  0  0  0
 53 51  1  0  0  0  0
 54 46  1  0  0  0  0
 55 54  1  0  0  0  0
M  END
>  <MODEL>
2

>  <REMARK>
 VINA RESULT:      -1.8      5.302      9.347
  Name = 
  15 active torsions:
  status: ('A' for Active; 'I' for Inactive)
    1  A    between atoms: C_1  and  C_53
    2  A    between atoms: C_2  and  C_28
    3  A    between atoms: C_2  and  C_49
    4  A    between atoms: C_8  and  C_20
    5  A    between atoms: C_8  and  C_22
    6  A    between atoms: C_10  and  C_32
    7  A    between atoms: C_11  and  N_38
    8  A    between atoms: C_19  and  C_40
    9  A    between atoms: C_22  and  C_43
   10  A    between atoms: C_27  and  C_54
   11  A    between atoms: C_28  and  C_44
   12  A    between atoms: C_33  and  C_52
   13  A    between atoms: C_40  and  C_45
   14  A    between atoms: C_43  and  C_51
   15  A    between atoms: C_51  and  C_54
                            x       y       z     vdW  Elec       q    Type
                         _______ _______ _______ _____ _____    ______ ____

>  <TORSDO>
F 15

$$$$
