=
 OpenBabel11052423073D

 27 32  0  0  1  0  0  0  0  0999 V2000
  162.3320  209.9480  153.4180 C   0  0  0  0  0  2  0  0  0  0  0  0
  161.7490  209.8500  151.0080 C   0  0  0  0  0  0  0  0  0  0  0  0
  160.5100  211.7750  152.0240 N   0  0  0  0  0  2  0  0  0  0  0  0
  161.7270  212.0460  147.4420 N   0  0  0  0  0  2  0  0  0  0  0  0
  162.0210  214.4530  147.6600 C   0  0  0  0  0  1  0  0  0  0  0  0
  162.3300  209.2670  149.8610 C   0  0  0  0  0  3  0  0  0  0  0  0
  160.6800  213.1460  149.3190 C   0  0  1  0  0  3  0  0  0  0  0  0
  158.4070  211.0930  155.0610 C   0  0  0  0  0  2  0  0  0  0  0  0
  159.1670  213.1710  149.4460 C   0  0  0  0  0  1  0  0  0  0  0  0
  159.3070  210.1340  155.8700 C   0  0  2  0  0  3  0  0  0  0  0  0
  161.2060  211.7980  149.6780 C   0  0  0  0  0  0  0  0  0  0  0  0
  161.8520  209.1720  152.2740 N   0  0  0  0  0  0  0  0  0  0  0  0
  161.0630  213.2900  147.8300 C   0  0  2  0  0  3  0  0  0  0  0  0
  161.7800  211.2170  148.5830 C   0  0  0  0  0  0  0  0  0  0  0  0
  161.1930  210.6800  154.1260 C   0  0  2  0  0  3  0  0  0  0  0  0
  161.1660  211.1430  150.9150 C   0  0  0  0  0  0  0  0  0  0  0  0
  159.0950  211.9270  153.9870 C   0  0  0  0  0  2  0  0  0  0  0  0
  162.3450  209.9460  148.6360 C   0  0  0  0  0  3  0  0  0  0  0  0
  160.4950  210.8350  156.4930 C   0  0  0  0  0  2  0  0  0  0  0  0
  160.7270  209.8690  155.3390 C   0  0  1  0  0  3  0  0  0  0  0  0
  160.0380  211.0520  153.1990 C   0  0  1  0  0  3  0  0  0  0  0  0
  160.8510  205.0610  152.7290 C   0  0  0  0  0  3  0  0  0  0  0  0
  161.4990  207.7810  152.4320 C   0  0  0  0  0  0  0  0  0  0  0  0
  161.4940  207.1810  153.7030 C   0  0  0  0  0  3  0  0  0  0  0  0
  161.1700  205.8310  153.8510 C   0  0  0  0  0  3  0  0  0  0  0  0
  160.8590  205.6430  151.4590 C   0  0  0  0  0  3  0  0  0  0  0  0
  161.1830  206.9950  151.3120 C   0  0  0  0  0  3  0  0  0  0  0  0
  2 12  1  0  0  0  0
  3 21  1  0  0  0  0
  4 13  1  0  0  0  0
  4 14  1  0  0  0  0
  6  2  2  0  0  0  0
  7  9  1  6  0  0  0
  7 11  1  0  0  0  0
 10  8  1  6  0  0  0
 10 19  1  0  0  0  0
 11 16  2  0  0  0  0
 12 23  1  0  0  0  0
 12  1  1  0  0  0  0
 13  5  1  1  0  0  0
 13  7  1  0  0  0  0
 14 18  2  0  0  0  0
 14 11  1  0  0  0  0
 15  1  1  6  0  0  0
 15 20  1  0  0  0  0
 16  2  1  0  0  0  0
 16  3  1  0  0  0  0
 17  8  1  0  0  0  0
 18  6  1  0  0  0  0
 20 10  1  0  0  0  0
 20 19  1  1  0  0  0
 21 17  1  1  0  0  0
 21 15  1  0  0  0  0
 22 25  1  0  0  0  0
 23 24  1  0  0  0  0
 24 25  2  0  0  0  0
 26 22  2  0  0  0  0
 27 26  1  0  0  0  0
 27 23  2  0  0  0  0
M  END
>  <MODEL>
1

>  <REMARK>
 VINA RESULT:      -5.9      0.000      0.000
  Name = 
  1 active torsions:
  status: ('A' for Active; 'I' for Inactive)
    1  A    between atoms: C_9  and  N_15
                            x       y       z     vdW  Elec       q    Type
                         _______ _______ _______ _____ _____    ______ ____

>  <TORSDO>
F 1

$$$$
=
 OpenBabel11052423073D

 27 32  0  0  1  0  0  0  0  0999 V2000
  161.2550  210.9130  137.0120 C   0  0  0  0  0  2  0  0  0  0  0  0
  159.0560  210.0610  137.7810 C   0  0  0  0  0  0  0  0  0  0  0  0
  159.3090  212.4090  138.6160 N   0  0  0  0  0  2  0  0  0  0  0  0
  154.9330  210.7970  137.7180 N   0  0  0  0  0  2  0  0  0  0  0  0
  154.2500  213.0290  137.0260 C   0  0  0  0  0  1  0  0  0  0  0  0
  158.1960  209.0130  137.3880 C   0  0  0  0  0  3  0  0  0  0  0  0
  156.2880  212.6640  138.4320 C   0  0  1  0  0  3  0  0  0  0  0  0
  162.4070  213.2470  140.5670 C   0  0  0  0  0  2  0  0  0  0  0  0
  156.4130  213.0000  139.9080 C   0  0  0  0  0  1  0  0  0  0  0  0
  163.5020  212.4990  139.7750 C   0  0  2  0  0  3  0  0  0  0  0  0
  157.1100  211.4650  138.1030 C   0  0  0  0  0  0  0  0  0  0  0  0
  160.4810  209.8760  137.6940 N   0  0  0  0  0  0  0  0  0  0  0  0
  154.8460  212.1930  138.1430 C   0  0  2  0  0  3  0  0  0  0  0  0
  156.2990  210.4370  137.7130 C   0  0  0  0  0  0  0  0  0  0  0  0
  161.6580  212.0400  137.9620 C   0  0  2  0  0  3  0  0  0  0  0  0
  158.5020  211.3160  138.1550 C   0  0  0  0  0  0  0  0  0  0  0  0
  161.0950  213.5040  139.8370 C   0  0  0  0  0  2  0  0  0  0  0  0
  156.8070  209.1920  137.3570 C   0  0  0  0  0  3  0  0  0  0  0  0
  163.8110  213.1550  138.4470 C   0  0  0  0  0  2  0  0  0  0  0  0
  163.0890  211.8150  138.4590 C   0  0  1  0  0  3  0  0  0  0  0  0
  160.6720  212.2520  139.1090 C   0  0  1  0  0  3  0  0  0  0  0  0
  162.4670  206.4870  139.3310 C   0  0  0  0  0  3  0  0  0  0  0  0
  161.1420  208.7210  138.2520 C   0  0  0  0  0  0  0  0  0  0  0  0
  161.2970  208.5830  139.6420 C   0  0  0  0  0  3  0  0  0  0  0  0
  161.9530  207.4720  140.1780 C   0  0  0  0  0  3  0  0  0  0  0  0
  162.3260  206.6150  137.9470 C   0  0  0  0  0  3  0  0  0  0  0  0
  161.6680  207.7260  137.4110 C   0  0  0  0  0  3  0  0  0  0  0  0
  1 12  1  0  0  0  0
  2 16  1  0  0  0  0
  3 21  1  0  0  0  0
  4 13  1  0  0  0  0
  6  2  2  0  0  0  0
  7  9  1  1  0  0  0
 10 19  1  6  0  0  0
 10  8  1  0  0  0  0
 11 16  2  0  0  0  0
 11  7  1  0  0  0  0
 12  2  1  0  0  0  0
 12 23  1  0  0  0  0
 13  5  1  6  0  0  0
 13  7  1  0  0  0  0
 14  4  1  0  0  0  0
 14 11  1  0  0  0  0
 15  1  1  1  0  0  0
 15 20  1  0  0  0  0
 15 21  1  0  0  0  0
 16  3  1  0  0  0  0
 17  8  1  0  0  0  0
 18  6  1  0  0  0  0
 18 14  2  0  0  0  0
 20 19  1  6  0  0  0
 20 10  1  0  0  0  0
 21 17  1  6  0  0  0
 22 25  1  0  0  0  0
 23 24  1  0  0  0  0
 24 25  2  0  0  0  0
 26 22  2  0  0  0  0
 27 26  1  0  0  0  0
 27 23  2  0  0  0  0
M  END
>  <MODEL>
2

>  <REMARK>
 VINA RESULT:      -5.8     12.114     14.030
  Name = 
  1 active torsions:
  status: ('A' for Active; 'I' for Inactive)
    1  A    between atoms: C_9  and  N_15
                            x       y       z     vdW  Elec       q    Type
                         _______ _______ _______ _____ _____    ______ ____

>  <TORSDO>
F 1

$$$$
=
 OpenBabel11052423073D

 27 32  0  0  1  0  0  0  0  0999 V2000
  162.4670  209.3980  153.4060 C   0  0  0  0  0  2  0  0  0  0  0  0
  161.8030  209.5440  151.0200 C   0  0  0  0  0  0  0  0  0  0  0  0
  160.6210  211.3690  152.2630 N   0  0  0  0  0  2  0  0  0  0  0  0
  161.6880  212.0810  147.6910 N   0  0  0  0  0  2  0  0  0  0  0  0
  162.0170  214.4520  148.1330 C   0  0  0  0  0  1  0  0  0  0  0  0
  162.3390  209.0720  149.8030 C   0  0  0  0  0  3  0  0  0  0  0  0
  160.7160  212.9990  149.7010 C   0  0  1  0  0  3  0  0  0  0  0  0
  158.6130  210.4090  155.2890 C   0  0  0  0  0  2  0  0  0  0  0  0
  159.2090  213.0240  149.8820 C   0  0  0  0  0  1  0  0  0  0  0  0
  159.5280  209.3670  155.9680 C   0  0  2  0  0  3  0  0  0  0  0  0
  161.2390  211.6180  149.9070 C   0  0  0  0  0  0  0  0  0  0  0  0
  161.9400  208.7430  152.2090 N   0  0  0  0  0  0  0  0  0  0  0  0
  161.0520  213.2860  148.2220 C   0  0  2  0  0  3  0  0  0  0  0  0
  161.7690  211.1430  148.7420 C   0  0  0  0  0  0  0  0  0  0  0  0
  161.3610  210.0670  154.2220 C   0  0  2  0  0  3  0  0  0  0  0  0
  161.2320  210.8450  151.0750 C   0  0  0  0  0  0  0  0  0  0  0  0
  159.2750  211.3390  154.2790 C   0  0  0  0  0  2  0  0  0  0  0  0
  162.3200  209.8680  148.6500 C   0  0  0  0  0  3  0  0  0  0  0  0
  160.7440  209.9930  156.6150 C   0  0  0  0  0  2  0  0  0  0  0  0
  160.9270  209.1440  155.3650 C   0  0  1  0  0  3  0  0  0  0  0  0
  160.1800  210.5380  153.3760 C   0  0  1  0  0  3  0  0  0  0  0  0
  160.8310  204.6360  152.3200 C   0  0  0  0  0  3  0  0  0  0  0  0
  161.5770  207.3460  152.2420 C   0  0  0  0  0  0  0  0  0  0  0  0
  161.1880  206.6770  151.0700 C   0  0  0  0  0  3  0  0  0  0  0  0
  160.8200  205.3300  151.1080 C   0  0  0  0  0  3  0  0  0  0  0  0
  161.2100  205.2910  153.4950 C   0  0  0  0  0  3  0  0  0  0  0  0
  161.5790  206.6390  153.4560 C   0  0  0  0  0  3  0  0  0  0  0  0
  2 16  1  0  0  0  0
  2 12  1  0  0  0  0
  3 21  1  0  0  0  0
  4 13  1  0  0  0  0
  4 14  1  0  0  0  0
  6  2  2  0  0  0  0
  7  9  1  6  0  0  0
  7 11  1  0  0  0  0
 10  8  1  6  0  0  0
 10 19  1  0  0  0  0
 11 16  2  0  0  0  0
 12 23  1  0  0  0  0
 12  1  1  0  0  0  0
 13  5  1  1  0  0  0
 13  7  1  0  0  0  0
 14 11  1  0  0  0  0
 15  1  1  6  0  0  0
 15 20  1  0  0  0  0
 16  3  1  0  0  0  0
 17  8  1  0  0  0  0
 18 14  2  0  0  0  0
 18  6  1  0  0  0  0
 20 10  1  0  0  0  0
 20 19  1  1  0  0  0
 21 15  1  0  0  0  0
 21 17  1  1  0  0  0
 22 26  1  0  0  0  0
 23 27  1  0  0  0  0
 24 25  1  0  0  0  0
 24 23  2  0  0  0  0
 25 22  2  0  0  0  0
 27 26  2  0  0  0  0
M  END
>  <MODEL>
3

>  <REMARK>
 VINA RESULT:      -5.6      0.525      1.067
  Name = 
  1 active torsions:
  status: ('A' for Active; 'I' for Inactive)
    1  A    between atoms: C_9  and  N_15
                            x       y       z     vdW  Elec       q    Type
                         _______ _______ _______ _____ _____    ______ ____

>  <TORSDO>
F 1

$$$$
=
 OpenBabel11052423073D

 27 32  0  0  1  0  0  0  0  0999 V2000
  159.6420  205.8320  149.7450 C   0  0  0  0  0  2  0  0  0  0  0  0
  160.7480  206.3090  151.9140 C   0  0  0  0  0  0  0  0  0  0  0  0
  161.4710  208.0610  150.2780 N   0  0  0  0  0  2  0  0  0  0  0  0
  161.2660  209.2230  154.8780 N   0  0  0  0  0  2  0  0  0  0  0  0
  160.6190  211.4920  154.2790 C   0  0  0  0  0  1  0  0  0  0  0  0
  160.5140  205.9440  153.2580 C   0  0  0  0  0  3  0  0  0  0  0  0
  161.7220  209.9700  152.6270 C   0  0  1  0  0  3  0  0  0  0  0  0
  162.9250  206.9110  147.0110 C   0  0  0  0  0  2  0  0  0  0  0  0
  163.1540  210.0910  152.1360 C   0  0  0  0  0  1  0  0  0  0  0  0
  162.0030  205.7280  146.6440 C   0  0  2  0  0  3  0  0  0  0  0  0
  161.3110  208.5380  152.6730 C   0  0  0  0  0  0  0  0  0  0  0  0
  160.4590  205.3660  150.8660 N   0  0  0  0  0  0  0  0  0  0  0  0
  161.6600  210.4020  154.1090 C   0  0  2  0  0  3  0  0  0  0  0  0
  161.0730  208.1630  153.9650 C   0  0  0  0  0  0  0  0  0  0  0  0
  160.4920  206.4840  148.6540 C   0  0  2  0  0  3  0  0  0  0  0  0
  161.1630  207.6350  151.6120 C   0  0  0  0  0  0  0  0  0  0  0  0
  162.3870  207.8990  148.0390 C   0  0  0  0  0  2  0  0  0  0  0  0
  160.6810  206.8700  154.2960 C   0  0  0  0  0  3  0  0  0  0  0  0
  160.6260  206.1770  146.2050 C   0  0  0  0  0  2  0  0  0  0  0  0
  160.7810  205.4690  147.5440 C   0  0  1  0  0  3  0  0  0  0  0  0
  161.7640  207.1420  149.1850 C   0  0  1  0  0  3  0  0  0  0  0  0
  161.8720  201.3540  150.9910 C   0  0  0  0  0  3  0  0  0  0  0  0
  160.9470  204.0070  150.8970 C   0  0  0  0  0  0  0  0  0  0  0  0
  160.4260  203.0360  150.0250 C   0  0  0  0  0  3  0  0  0  0  0  0
  160.8870  201.7190  150.0700 C   0  0  0  0  0  3  0  0  0  0  0  0
  162.3950  202.3080  151.8680 C   0  0  0  0  0  3  0  0  0  0  0  0
  161.9330  203.6260  151.8220 C   0  0  0  0  0  3  0  0  0  0  0  0
  1 12  1  0  0  0  0
  2  6  1  0  0  0  0
  3 16  1  0  0  0  0
  6 18  2  0  0  0  0
  7  9  1  1  0  0  0
  7 11  1  0  0  0  0
  7 13  1  0  0  0  0
  8 17  1  0  0  0  0
 10 19  1  6  0  0  0
 10  8  1  0  0  0  0
 10 20  1  0  0  0  0
 11 14  2  0  0  0  0
 12 23  1  0  0  0  0
 12  2  1  0  0  0  0
 13  5  1  6  0  0  0
 13  4  1  0  0  0  0
 14 18  1  0  0  0  0
 14  4  1  0  0  0  0
 15 21  1  0  0  0  0
 15  1  1  1  0  0  0
 16  2  2  0  0  0  0
 16 11  1  0  0  0  0
 20 19  1  6  0  0  0
 20 15  1  0  0  0  0
 21 17  1  6  0  0  0
 21  3  1  0  0  0  0
 22 26  1  0  0  0  0
 23 27  1  0  0  0  0
 24 25  1  0  0  0  0
 24 23  2  0  0  0  0
 25 22  2  0  0  0  0
 27 26  2  0  0  0  0
M  END
>  <MODEL>
4

>  <REMARK>
 VINA RESULT:      -5.5      2.957      6.501
  Name = 
  1 active torsions:
  status: ('A' for Active; 'I' for Inactive)
    1  A    between atoms: C_9  and  N_15
                            x       y       z     vdW  Elec       q    Type
                         _______ _______ _______ _____ _____    ______ ____

>  <TORSDO>
F 1

$$$$
=
 OpenBabel11052423073D

 27 32  0  0  1  0  0  0  0  0999 V2000
  161.0830  211.3730  154.4930 C   0  0  0  0  0  2  0  0  0  0  0  0
  161.1680  210.6730  152.1140 C   0  0  0  0  0  0  0  0  0  0  0  0
  159.4740  212.5060  152.3200 N   0  0  0  0  0  2  0  0  0  0  0  0
  161.8030  212.0420  148.2080 N   0  0  0  0  0  2  0  0  0  0  0  0
  161.7250  214.4530  147.8870 C   0  0  0  0  0  1  0  0  0  0  0  0
  162.0980  209.9820  151.3080 C   0  0  0  0  0  3  0  0  0  0  0  0
  160.1710  213.2950  149.4710 C   0  0  1  0  0  3  0  0  0  0  0  0
  156.7530  212.0950  154.8770 C   0  0  0  0  0  2  0  0  0  0  0  0
  158.6870  213.0690  149.2430 C   0  0  0  0  0  1  0  0  0  0  0  0
  157.5230  211.5050  156.0780 C   0  0  2  0  0  3  0  0  0  0  0  0
  160.7510  212.1710  150.2590 C   0  0  0  0  0  0  0  0  0  0  0  0
  161.0210  210.3020  153.4980 N   0  0  0  0  0  0  0  0  0  0  0  0
  160.9100  213.1960  148.1180 C   0  0  2  0  0  3  0  0  0  0  0  0
  161.6600  211.4900  149.4990 C   0  0  0  0  0  0  0  0  0  0  0  0
  159.7150  212.0140  154.7250 C   0  0  2  0  0  3  0  0  0  0  0  0
  160.4710  211.7900  151.5770 C   0  0  0  0  0  0  0  0  0  0  0  0
  157.5870  212.8000  153.8140 C   0  0  0  0  0  2  0  0  0  0  0  0
  162.3470  210.3840  149.9890 C   0  0  0  0  0  3  0  0  0  0  0  0
  158.4090  212.5250  156.7600 C   0  0  0  0  0  2  0  0  0  0  0  0
  159.0550  211.4010  155.9630 C   0  0  1  0  0  3  0  0  0  0  0  0
  158.8060  211.9690  153.4980 C   0  0  1  0  0  3  0  0  0  0  0  0
  160.4620  206.2630  154.7170 C   0  0  0  0  0  3  0  0  0  0  0  0
  160.8170  208.9330  153.9100 C   0  0  0  0  0  0  0  0  0  0  0  0
  160.4470  208.6280  155.2310 C   0  0  0  0  0  3  0  0  0  0  0  0
  160.2690  207.3020  155.6310 C   0  0  0  0  0  3  0  0  0  0  0  0
  160.8350  206.5520  153.4020 C   0  0  0  0  0  3  0  0  0  0  0  0
  161.0140  207.8800  153.0020 C   0  0  0  0  0  3  0  0  0  0  0  0
  2 12  1  0  0  0  0
  3 21  1  0  0  0  0
  4 14  1  0  0  0  0
  6  2  2  0  0  0  0
  7  9  1  6  0  0  0
  7 11  1  0  0  0  0
 10  8  1  6  0  0  0
 10 19  1  0  0  0  0
 11 16  2  0  0  0  0
 12 23  1  0  0  0  0
 12  1  1  0  0  0  0
 13  5  1  1  0  0  0
 13  4  1  0  0  0  0
 13  7  1  0  0  0  0
 14 18  2  0  0  0  0
 14 11  1  0  0  0  0
 15  1  1  6  0  0  0
 15 20  1  0  0  0  0
 16  2  1  0  0  0  0
 16  3  1  0  0  0  0
 17  8  1  0  0  0  0
 18  6  1  0  0  0  0
 20 10  1  0  0  0  0
 20 19  1  1  0  0  0
 21 17  1  1  0  0  0
 21 15  1  0  0  0  0
 22 25  1  0  0  0  0
 23 24  1  0  0  0  0
 24 25  2  0  0  0  0
 26 22  2  0  0  0  0
 27 26  1  0  0  0  0
 27 23  2  0  0  0  0
M  END
>  <MODEL>
5

>  <REMARK>
 VINA RESULT:      -5.3      1.243      1.745
  Name = 
  1 active torsions:
  status: ('A' for Active; 'I' for Inactive)
    1  A    between atoms: C_9  and  N_15
                            x       y       z     vdW  Elec       q    Type
                         _______ _______ _______ _____ _____    ______ ____

>  <TORSDO>
F 1

$$$$
=
 OpenBabel11052423073D

 27 32  0  0  1  0  0  0  0  0999 V2000
  161.3090  211.0520  154.8010 C   0  0  0  0  0  2  0  0  0  0  0  0
  159.2160  211.4940  153.5450 C   0  0  0  0  0  0  0  0  0  0  0  0
  158.5900  210.5840  155.7930 N   0  0  0  0  0  2  0  0  0  0  0  0
  155.5800  213.5700  153.6550 N   0  0  0  0  0  2  0  0  0  0  0  0
  154.9110  214.4530  155.8220 C   0  0  0  0  0  1  0  0  0  0  0  0
  158.8660  212.2860  152.4310 C   0  0  0  0  0  3  0  0  0  0  0  0
  156.0450  212.2330  155.6100 C   0  0  1  0  0  3  0  0  0  0  0  0
  160.1440  207.3350  156.8600 C   0  0  0  0  0  2  0  0  0  0  0  0
  155.3780  210.8810  155.7910 C   0  0  0  0  0  1  0  0  0  0  0  0
  161.6020  207.5000  156.3810 C   0  0  2  0  0  3  0  0  0  0  0  0
  157.1320  212.1420  154.5940 C   0  0  0  0  0  0  0  0  0  0  0  0
  160.5120  210.8690  153.5880 N   0  0  0  0  0  0  0  0  0  0  0  0
  155.0390  213.2100  154.9640 C   0  0  2  0  0  3  0  0  0  0  0  0
  156.8180  212.9080  153.5070 C   0  0  0  0  0  0  0  0  0  0  0  0
  160.9850  209.9990  155.8590 C   0  0  2  0  0  3  0  0  0  0  0  0
  158.3260  211.4120  154.6520 C   0  0  0  0  0  0  0  0  0  0  0  0
  159.3250  208.6130  156.9980 C   0  0  0  0  0  2  0  0  0  0  0  0
  157.6580  212.9960  152.4020 C   0  0  0  0  0  3  0  0  0  0  0  0
  162.3850  208.4850  157.2230 C   0  0  0  0  0  2  0  0  0  0  0  0
  162.0120  208.8640  155.7970 C   0  0  1  0  0  3  0  0  0  0  0  0
  159.5480  209.4860  155.7880 C   0  0  1  0  0  3  0  0  0  0  0  0
  161.9870  208.5610  150.3310 C   0  0  0  0  0  3  0  0  0  0  0  0
  161.0250  210.0850  152.4890 C   0  0  0  0  0  0  0  0  0  0  0  0
  161.7570  210.6920  151.4550 C   0  0  0  0  0  3  0  0  0  0  0  0
  162.2370  209.9350  150.3840 C   0  0  0  0  0  3  0  0  0  0  0  0
  161.2550  207.9460  151.3490 C   0  0  0  0  0  3  0  0  0  0  0  0
  160.7750  208.7050  152.4210 C   0  0  0  0  0  3  0  0  0  0  0  0
  2 12  1  0  0  0  0
  2 16  1  0  0  0  0
  4 13  1  0  0  0  0
  6  2  2  0  0  0  0
  7  9  1  6  0  0  0
  8 17  1  0  0  0  0
 10  8  1  1  0  0  0
 10 19  1  0  0  0  0
 11 16  2  0  0  0  0
 11  7  1  0  0  0  0
 12  1  1  0  0  0  0
 13  7  1  0  0  0  0
 13  5  1  1  0  0  0
 14  4  1  0  0  0  0
 14 11  1  0  0  0  0
 15  1  1  6  0  0  0
 16  3  1  0  0  0  0
 18  6  1  0  0  0  0
 18 14  2  0  0  0  0
 20 15  1  0  0  0  0
 20 10  1  0  0  0  0
 20 19  1  1  0  0  0
 21  3  1  0  0  0  0
 21 15  1  0  0  0  0
 21 17  1  1  0  0  0
 22 25  2  0  0  0  0
 22 26  1  0  0  0  0
 23 12  1  0  0  0  0
 24 23  2  0  0  0  0
 25 24  1  0  0  0  0
 26 27  2  0  0  0  0
 27 23  1  0  0  0  0
M  END
>  <MODEL>
6

>  <REMARK>
 VINA RESULT:      -5.3      2.530      5.439
  Name = 
  1 active torsions:
  status: ('A' for Active; 'I' for Inactive)
    1  A    between atoms: C_9  and  N_15
                            x       y       z     vdW  Elec       q    Type
                         _______ _______ _______ _____ _____    ______ ____

>  <TORSDO>
F 1

$$$$
=
 OpenBabel11052423073D

 27 32  0  0  1  0  0  0  0  0999 V2000
  162.7430  209.9530  151.8550 C   0  0  0  0  0  2  0  0  0  0  0  0
  161.2330  208.1410  152.6220 C   0  0  0  0  0  0  0  0  0  0  0  0
  161.7410  207.7500  150.2010 N   0  0  0  0  0  2  0  0  0  0  0  0
  160.8310  203.9850  152.9480 N   0  0  0  0  0  2  0  0  0  0  0  0
  162.3860  202.6480  151.6360 C   0  0  0  0  0  1  0  0  0  0  0  0
  160.8740  207.6010  153.8760 C   0  0  0  0  0  3  0  0  0  0  0  0
  161.4220  204.7780  150.7450 C   0  0  1  0  0  3  0  0  0  0  0  0
  161.1230  210.5770  147.8050 C   0  0  0  0  0  2  0  0  0  0  0  0
  160.3660  204.8830  149.6590 C   0  0  0  0  0  1  0  0  0  0  0  0
  161.6400  211.7950  148.6010 C   0  0  2  0  0  3  0  0  0  0  0  0
  161.2690  205.8930  151.7240 C   0  0  0  0  0  0  0  0  0  0  0  0
  161.4990  209.5510  152.5100 N   0  0  0  0  0  0  0  0  0  0  0  0
  161.1460  203.5200  151.5980 C   0  0  2  0  0  3  0  0  0  0  0  0
  160.9280  205.3930  152.9490 C   0  0  0  0  0  0  0  0  0  0  0  0
  162.5780  210.0650  150.3400 C   0  0  2  0  0  3  0  0  0  0  0  0
  161.4290  207.2690  151.5160 C   0  0  0  0  0  0  0  0  0  0  0  0
  161.6060  209.2070  148.2680 C   0  0  0  0  0  2  0  0  0  0  0  0
  160.7140  206.2200  154.0470 C   0  0  0  0  0  3  0  0  0  0  0  0
  163.1500  211.8270  148.7020 C   0  0  0  0  0  2  0  0  0  0  0  0
  162.3310  211.5260  149.9500 C   0  0  1  0  0  3  0  0  0  0  0  0
  161.5180  209.1250  149.7710 C   0  0  1  0  0  3  0  0  0  0  0  0
  158.8330  212.5210  153.9900 C   0  0  0  0  0  3  0  0  0  0  0  0
  160.5850  210.5480  153.0170 C   0  0  0  0  0  0  0  0  0  0  0  0
  159.4530  210.9280  152.2770 C   0  0  0  0  0  3  0  0  0  0  0  0
  158.5810  211.9050  152.7610 C   0  0  0  0  0  3  0  0  0  0  0  0
  159.9590  212.1580  154.7330 C   0  0  0  0  0  3  0  0  0  0  0  0
  160.8310  211.1780  154.2480 C   0  0  0  0  0  3  0  0  0  0  0  0
  1 12  1  0  0  0  0
  2  6  1  0  0  0  0
  3 16  1  0  0  0  0
  4 14  1  0  0  0  0
  6 18  2  0  0  0  0
  7  9  1  6  0  0  0
  7 13  1  0  0  0  0
  7 11  1  0  0  0  0
  8 17  1  0  0  0  0
 10  8  1  6  0  0  0
 10 19  1  0  0  0  0
 10 20  1  0  0  0  0
 11 14  2  0  0  0  0
 12  2  1  0  0  0  0
 12 23  1  0  0  0  0
 13  5  1  1  0  0  0
 13  4  1  0  0  0  0
 14 18  1  0  0  0  0
 15  1  1  1  0  0  0
 16 11  1  0  0  0  0
 16  2  2  0  0  0  0
 20 19  1  6  0  0  0
 20 15  1  0  0  0  0
 21 17  1  6  0  0  0
 21  3  1  0  0  0  0
 21 15  1  0  0  0  0
 22 26  1  0  0  0  0
 23 27  1  0  0  0  0
 24 25  1  0  0  0  0
 24 23  2  0  0  0  0
 25 22  2  0  0  0  0
 27 26  2  0  0  0  0
M  END
>  <MODEL>
7

>  <REMARK>
 VINA RESULT:      -5.1      1.786      6.747
  Name = 
  1 active torsions:
  status: ('A' for Active; 'I' for Inactive)
    1  A    between atoms: C_9  and  N_15
                            x       y       z     vdW  Elec       q    Type
                         _______ _______ _______ _____ _____    ______ ____

>  <TORSDO>
F 1

$$$$
=
 OpenBabel11052423073D

 27 32  0  0  1  0  0  0  0  0999 V2000
  162.8860  210.6860  150.3600 C   0  0  0  0  0  2  0  0  0  0  0  0
  161.6400  208.5520  150.5940 C   0  0  0  0  0  0  0  0  0  0  0  0
  161.5550  209.2370  148.1860 N   0  0  0  0  0  2  0  0  0  0  0  0
  161.4090  204.6040  149.2180 N   0  0  0  0  0  2  0  0  0  0  0  0
  162.6250  204.1060  147.1700 C   0  0  0  0  0  1  0  0  0  0  0  0
  161.6060  207.5140  151.5490 C   0  0  0  0  0  3  0  0  0  0  0  0
  161.4340  206.2840  147.4840 C   0  0  1  0  0  3  0  0  0  0  0  0
  160.3220  212.6950  147.3930 C   0  0  0  0  0  2  0  0  0  0  0  0
  160.1440  206.6920  146.7940 C   0  0  0  0  0  1  0  0  0  0  0  0
  160.9920  213.5400  148.4970 C   0  0  2  0  0  3  0  0  0  0  0  0
  161.5010  206.8810  148.8480 C   0  0  0  0  0  0  0  0  0  0  0  0
  161.8440  209.9080  151.0320 N   0  0  0  0  0  0  0  0  0  0  0  0
  161.3970  204.7650  147.7650 C   0  0  2  0  0  3  0  0  0  0  0  0
  161.4760  205.8920  149.7910 C   0  0  0  0  0  0  0  0  0  0  0  0
  162.3570  211.3800  149.1060 C   0  0  2  0  0  3  0  0  0  0  0  0
  161.5790  208.2320  149.2100 C   0  0  0  0  0  0  0  0  0  0  0  0
  160.9290  211.3230  147.1220 C   0  0  0  0  0  2  0  0  0  0  0  0
  161.5180  206.1730  151.1530 C   0  0  0  0  0  3  0  0  0  0  0  0
  162.4810  213.7070  148.2810 C   0  0  0  0  0  2  0  0  0  0  0  0
  161.9950  212.8330  149.4280 C   0  0  1  0  0  3  0  0  0  0  0  0
  161.2080  210.6300  148.4330 C   0  0  1  0  0  3  0  0  0  0  0  0
  159.5620  211.6870  154.1530 C   0  0  0  0  0  3  0  0  0  0  0  0
  161.0620  210.5000  152.0920 C   0  0  0  0  0  0  0  0  0  0  0  0
  159.8160  211.0900  151.8220 C   0  0  0  0  0  3  0  0  0  0  0  0
  159.0690  211.6770  152.8460 C   0  0  0  0  0  3  0  0  0  0  0  0
  160.8030  211.1100  154.4350 C   0  0  0  0  0  3  0  0  0  0  0  0
  161.5490  210.5210  153.4090 C   0  0  0  0  0  3  0  0  0  0  0  0
  1 12  1  0  0  0  0
  2 12  1  0  0  0  0
  2  6  1  0  0  0  0
  3 21  1  0  0  0  0
  3 16  1  0  0  0  0
  4 14  1  0  0  0  0
  7  9  1  1  0  0  0
  7 13  1  0  0  0  0
  7 11  1  0  0  0  0
 10  8  1  6  0  0  0
 10 20  1  0  0  0  0
 11 16  1  0  0  0  0
 11 14  2  0  0  0  0
 12 23  1  0  0  0  0
 13  5  1  6  0  0  0
 13  4  1  0  0  0  0
 14 18  1  0  0  0  0
 15 20  1  0  0  0  0
 15  1  1  1  0  0  0
 16  2  2  0  0  0  0
 17  8  1  0  0  0  0
 18  6  2  0  0  0  0
 19 10  1  0  0  0  0
 20 19  1  6  0  0  0
 21 17  1  6  0  0  0
 21 15  1  0  0  0  0
 22 26  1  0  0  0  0
 23 27  1  0  0  0  0
 24 23  2  0  0  0  0
 24 25  1  0  0  0  0
 25 22  2  0  0  0  0
 27 26  2  0  0  0  0
M  END
>  <MODEL>
8

>  <REMARK>
 VINA RESULT:      -4.6      2.322      6.098
  Name = 
  1 active torsions:
  status: ('A' for Active; 'I' for Inactive)
    1  A    between atoms: C_9  and  N_15
                            x       y       z     vdW  Elec       q    Type
                         _______ _______ _______ _____ _____    ______ ____

>  <TORSDO>
F 1

$$$$
=
 OpenBabel11052423073D

 27 32  0  0  1  0  0  0  0  0999 V2000
  163.0920  205.8280  151.2610 C   0  0  0  0  0  2  0  0  0  0  0  0
  161.8220  207.9220  151.6630 C   0  0  0  0  0  0  0  0  0  0  0  0
  161.2020  206.2860  153.4550 N   0  0  0  0  0  2  0  0  0  0  0  0
  161.0500  210.9200  154.4840 N   0  0  0  0  0  2  0  0  0  0  0  0
  161.7120  210.4360  156.7760 C   0  0  0  0  0  1  0  0  0  0  0  0
  161.9600  209.2680  151.2620 C   0  0  0  0  0  3  0  0  0  0  0  0
  160.7530  208.6640  155.2920 C   0  0  1  0  0  3  0  0  0  0  0  0
  160.0080  202.8890  152.3860 C   0  0  0  0  0  2  0  0  0  0  0  0
  159.3610  208.0700  155.4130 C   0  0  0  0  0  1  0  0  0  0  0  0
  160.9690  202.5580  151.2240 C   0  0  2  0  0  3  0  0  0  0  0  0
  161.1780  208.7000  153.8630 C   0  0  0  0  0  0  0  0  0  0  0  0
  162.2000  206.8710  150.7540 N   0  0  0  0  0  0  0  0  0  0  0  0
  160.7000  210.1570  155.6820 C   0  0  2  0  0  3  0  0  0  0  0  0
  161.3240  209.9940  153.4530 C   0  0  0  0  0  0  0  0  0  0  0  0
  162.3170  204.6960  151.9350 C   0  0  2  0  0  3  0  0  0  0  0  0
  161.4140  207.6280  152.9930 C   0  0  0  0  0  0  0  0  0  0  0  0
  160.4560  203.9810  153.3490 C   0  0  0  0  0  2  0  0  0  0  0  0
  161.7060  210.3170  152.1550 C   0  0  0  0  0  3  0  0  0  0  0  0
  162.3690  202.2360  151.6980 C   0  0  0  0  0  2  0  0  0  0  0  0
  162.1240  203.5390  150.9510 C   0  0  1  0  0  3  0  0  0  0  0  0
  161.0020  205.1490  152.5660 C   0  0  1  0  0  3  0  0  0  0  0  0
  160.8310  206.7090  146.7280 C   0  0  0  0  0  3  0  0  0  0  0  0
  161.7270  206.8280  149.3900 C   0  0  0  0  0  0  0  0  0  0  0  0
  160.4800  206.2600  149.0790 C   0  0  0  0  0  3  0  0  0  0  0  0
  160.0340  206.2030  147.7570 C   0  0  0  0  0  3  0  0  0  0  0  0
  162.0760  207.2710  147.0220 C   0  0  0  0  0  3  0  0  0  0  0  0
  162.5220  207.3280  148.3450 C   0  0  0  0  0  3  0  0  0  0  0  0
  2 16  1  0  0  0  0
  4 13  1  0  0  0  0
  6  2  2  0  0  0  0
  6 18  1  0  0  0  0
  7  9  1  6  0  0  0
  7 13  1  0  0  0  0
  8 17  1  0  0  0  0
 10 19  1  1  0  0  0
 10  8  1  0  0  0  0
 11  7  1  0  0  0  0
 12  1  1  0  0  0  0
 12  2  1  0  0  0  0
 13  5  1  1  0  0  0
 14 11  1  0  0  0  0
 14  4  1  0  0  0  0
 15  1  1  6  0  0  0
 15 21  1  0  0  0  0
 16  3  1  0  0  0  0
 16 11  2  0  0  0  0
 18 14  2  0  0  0  0
 20 10  1  0  0  0  0
 20 19  1  1  0  0  0
 20 15  1  0  0  0  0
 21 17  1  1  0  0  0
 21  3  1  0  0  0  0
 22 26  2  0  0  0  0
 22 25  1  0  0  0  0
 23 12  1  0  0  0  0
 24 23  1  0  0  0  0
 25 24  2  0  0  0  0
 26 27  1  0  0  0  0
 27 23  2  0  0  0  0
M  END
>  <MODEL>
9

>  <REMARK>
 VINA RESULT:      -4.6      2.843      6.383
  Name = 
  1 active torsions:
  status: ('A' for Active; 'I' for Inactive)
    1  A    between atoms: C_9  and  N_15
                            x       y       z     vdW  Elec       q    Type
                         _______ _______ _______ _____ _____    ______ ____

>  <TORSDO>
F 1

$$$$
