=
 OpenBabel11052423183D

 27 30  0  0  1  0  0  0  0  0999 V2000
  161.5420  206.3480  149.6180 C   0  0  2  0  0  3  0  0  0  0  0  0
  159.4200  205.4770  149.5000 O   0  0  0  0  0  0  0  0  0  0  0  0
  160.2860  206.1500  150.3500 N   0  0  0  0  0  0  0  0  0  0  0  0
  159.9040  204.7520  150.5420 C   0  0  2  0  0  3  0  0  0  0  0  0
  161.8570  201.4460  150.4250 C   0  0  0  0  0  2  0  0  0  0  0  0
  161.2350  200.9670  149.2570 O   0  0  0  0  0  0  0  0  0  0  0  0
  161.0210  202.5660  151.0400 C   0  0  0  0  0  2  0  0  0  0  0  0
  161.3450  201.9850  148.2910 C   0  0  0  0  0  2  0  0  0  0  0  0
  160.4510  203.1650  148.6730 C   0  0  0  0  0  2  0  0  0  0  0  0
  160.8990  203.7060  150.0310 C   0  0  0  0  0  3  0  0  0  0  0  0
  163.4480  207.8250  149.7590 O   0  0  0  0  0  1  0  0  0  0  0  0
  162.5840  207.0310  150.5160 C   0  0  1  0  0  3  0  0  0  0  0  0
  160.4860  209.1650  153.6490 C   0  0  0  0  0  3  0  0  0  0  0  0
  161.0270  207.4550  155.3000 C   0  0  0  0  0  1  0  0  0  0  0  0
  161.7190  207.2210  152.8270 C   0  0  0  0  0  0  0  0  0  0  0  0
  162.0550  205.8860  153.0340 O   0  0  0  0  0  1  0  0  0  0  0  0
  161.9850  207.8170  151.6510 C   0  0  0  0  0  0  0  0  0  0  0  0
  161.0530  207.9840  153.9100 C   0  0  0  0  0  0  0  0  0  0  0  0
  161.7050  209.2920  151.4820 C   0  0  0  0  0  2  0  0  0  0  0  0
  160.4390  209.6920  152.2420 C   0  0  0  0  0  2  0  0  0  0  0  0
  161.3030  207.1400  148.3320 C   0  0  0  0  0  2  0  0  0  0  0  0
  161.7970  204.6660  144.8640 C   0  0  0  0  0  3  0  0  0  0  0  0
  161.4820  206.2860  147.1230 C   0  0  0  0  0  0  0  0  0  0  0  0
  160.5110  206.2930  146.1150 C   0  0  0  0  0  3  0  0  0  0  0  0
  160.6690  205.4840  144.9860 C   0  0  0  0  0  3  0  0  0  0  0  0
  162.7670  204.6570  145.8700 C   0  0  0  0  0  3  0  0  0  0  0  0
  162.6100  205.4660  147.0000 C   0  0  0  0  0  3  0  0  0  0  0  0
  1 21  1  6  0  0  0
  1  3  1  0  0  0  0
  1 12  1  0  0  0  0
  2  3  1  0  0  0  0
  2  4  1  0  0  0  0
  3  4  1  0  0  0  0
  4 10  1  6  0  0  0
  5  7  1  0  0  0  0
  6  5  1  0  0  0  0
  8  9  1  0  0  0  0
  8  6  1  0  0  0  0
  9 10  1  0  0  0  0
 10  7  1  0  0  0  0
 12 11  1  6  0  0  0
 12 17  1  0  0  0  0
 13 18  2  0  0  0  0
 15 16  1  0  0  0  0
 15 18  1  0  0  0  0
 17 15  2  0  0  0  0
 18 14  1  0  0  0  0
 19 17  1  0  0  0  0
 19 20  1  0  0  0  0
 20 13  1  0  0  0  0
 22 25  2  0  0  0  0
 22 26  1  0  0  0  0
 23 21  1  0  0  0  0
 24 23  2  0  0  0  0
 25 24  1  0  0  0  0
 26 27  2  0  0  0  0
 27 23  1  0  0  0  0
M  END
>  <MODEL>
1

>  <REMARK>
 VINA RESULT:      -5.4      0.000      0.000
  Name = 
  6 active torsions:
  status: ('A' for Active; 'I' for Inactive)
    1  A    between atoms: C_2  and  C_6
    2  A    between atoms: C_2  and  N_15
    3  A    between atoms: C_2  and  C_19
    4  A    between atoms: C_6  and  C_9
    5  A    between atoms: C_14  and  C_19
    6  A    between atoms: C_18  and  C_26
                            x       y       z     vdW  Elec       q    Type
                         _______ _______ _______ _____ _____    ______ ____

>  <TORSDO>
F 6

$$$$
=
 OpenBabel11052423183D

 27 30  0  0  1  0  0  0  0  0999 V2000
  161.4450  207.4010  150.0790 C   0  0  2  0  0  3  0  0  0  0  0  0
  162.2230  207.7720  147.9500 O   0  0  0  0  0  0  0  0  0  0  0  0
  162.6470  207.5110  149.2450 N   0  0  0  0  0  0  0  0  0  0  0  0
  162.8220  208.8080  148.5920 C   0  0  2  0  0  3  0  0  0  0  0  0
  161.3230  211.9020  150.3060 C   0  0  0  0  0  2  0  0  0  0  0  0
  161.2990  212.6960  149.1450 O   0  0  0  0  0  0  0  0  0  0  0  0
  162.2740  210.7220  150.1120 C   0  0  0  0  0  2  0  0  0  0  0  0
  160.6420  211.9460  148.1520 C   0  0  0  0  0  2  0  0  0  0  0  0
  161.5180  210.7700  147.7210 C   0  0  0  0  0  2  0  0  0  0  0  0
  161.7840  209.8800  148.9360 C   0  0  0  0  0  3  0  0  0  0  0  0
  163.1400  206.4160  151.4890 O   0  0  0  0  0  1  0  0  0  0  0  0
  161.7880  206.7560  151.4300 C   0  0  1  0  0  3  0  0  0  0  0  0
  160.2510  209.1300  154.7130 C   0  0  0  0  0  3  0  0  0  0  0  0
  160.3470  207.2360  156.2450 C   0  0  0  0  0  1  0  0  0  0  0  0
  160.9790  207.0010  153.7560 C   0  0  0  0  0  0  0  0  0  0  0  0
  160.9790  205.6140  153.8740 O   0  0  0  0  0  1  0  0  0  0  0  0
  161.3900  207.5890  152.6180 C   0  0  0  0  0  0  0  0  0  0  0  0
  160.5110  207.8310  154.8920 C   0  0  0  0  0  0  0  0  0  0  0  0
  161.4780  209.0960  152.5470 C   0  0  0  0  0  2  0  0  0  0  0  0
  160.3420  209.7420  153.3430 C   0  0  0  0  0  2  0  0  0  0  0  0
  160.3460  206.6270  149.3490 C   0  0  0  0  0  2  0  0  0  0  0  0
  161.1530  202.4160  149.2570 C   0  0  0  0  0  3  0  0  0  0  0  0
  160.6350  205.1650  149.3230 C   0  0  0  0  0  0  0  0  0  0  0  0
  161.1130  204.5700  148.1500 C   0  0  0  0  0  3  0  0  0  0  0  0
  161.3730  203.1960  148.1180 C   0  0  0  0  0  3  0  0  0  0  0  0
  160.6740  203.0090  150.4300 C   0  0  0  0  0  3  0  0  0  0  0  0
  160.4150  204.3820  150.4630 C   0  0  0  0  0  3  0  0  0  0  0  0
  1 21  1  6  0  0  0
  1 12  1  0  0  0  0
  2  4  1  0  0  0  0
  2  3  1  0  0  0  0
  3  1  1  0  0  0  0
  4 10  1  1  0  0  0
  4  3  1  0  0  0  0
  6  5  1  0  0  0  0
  7  5  1  0  0  0  0
  8  6  1  0  0  0  0
  9  8  1  0  0  0  0
  9 10  1  0  0  0  0
 10  7  1  0  0  0  0
 12 11  1  6  0  0  0
 12 17  1  0  0  0  0
 13 18  2  0  0  0  0
 15 16  1  0  0  0  0
 15 18  1  0  0  0  0
 17 15  2  0  0  0  0
 18 14  1  0  0  0  0
 19 17  1  0  0  0  0
 19 20  1  0  0  0  0
 20 13  1  0  0  0  0
 22 26  1  0  0  0  0
 23 21  1  0  0  0  0
 23 27  1  0  0  0  0
 24 23  2  0  0  0  0
 25 24  1  0  0  0  0
 25 22  2  0  0  0  0
 26 27  2  0  0  0  0
M  END
>  <MODEL>
2

>  <REMARK>
 VINA RESULT:      -5.3      2.223      5.057
  Name = 
  6 active torsions:
  status: ('A' for Active; 'I' for Inactive)
    1  A    between atoms: C_2  and  C_6
    2  A    between atoms: C_2  and  N_15
    3  A    between atoms: C_2  and  C_19
    4  A    between atoms: C_6  and  C_9
    5  A    between atoms: C_14  and  C_19
    6  A    between atoms: C_18  and  C_26
                            x       y       z     vdW  Elec       q    Type
                         _______ _______ _______ _____ _____    ______ ____

>  <TORSDO>
F 6

$$$$
=
 OpenBabel11052423183D

 27 30  0  0  1  0  0  0  0  0999 V2000
  161.8090  206.4660  149.8010 C   0  0  2  0  0  3  0  0  0  0  0  0
  162.3610  208.1180  148.3040 O   0  0  0  0  0  0  0  0  0  0  0  0
  161.3740  207.7320  149.2000 N   0  0  0  0  0  0  0  0  0  0  0  0
  161.1980  207.6900  147.7490 C   0  0  2  0  0  3  0  0  0  0  0  0
  160.9260  204.9470  145.0730 C   0  0  0  0  0  2  0  0  0  0  0  0
  162.2850  204.9850  144.7090 O   0  0  0  0  0  0  0  0  0  0  0  0
  160.5520  206.2240  145.8240 C   0  0  0  0  0  2  0  0  0  0  0  0
  163.0280  204.8590  145.8970 C   0  0  0  0  0  2  0  0  0  0  0  0
  162.8850  206.1260  146.7390 C   0  0  0  0  0  2  0  0  0  0  0  0
  161.4090  206.3270  147.0840 C   0  0  0  0  0  3  0  0  0  0  0  0
  159.5360  205.8070  149.3230 O   0  0  0  0  0  1  0  0  0  0  0  0
  160.5930  205.6250  150.2160 C   0  0  1  0  0  3  0  0  0  0  0  0
  161.0680  201.3570  150.7950 C   0  0  0  0  0  3  0  0  0  0  0  0
  161.2700  200.9630  148.3970 C   0  0  0  0  0  1  0  0  0  0  0  0
  160.8220  203.3160  149.3540 C   0  0  0  0  0  0  0  0  0  0  0  0
  160.5230  203.7910  148.0790 O   0  0  0  0  0  1  0  0  0  0  0  0
  160.9000  204.1630  150.3960 C   0  0  0  0  0  0  0  0  0  0  0  0
  161.0460  201.8650  149.5590 C   0  0  0  0  0  0  0  0  0  0  0  0
  161.3250  203.6420  151.7490 C   0  0  0  0  0  2  0  0  0  0  0  0
  160.7780  202.2320  151.9830 C   0  0  0  0  0  2  0  0  0  0  0  0
  162.7460  206.7210  150.9830 C   0  0  0  0  0  2  0  0  0  0  0  0
  160.6660  208.4220  154.3260 C   0  0  0  0  0  3  0  0  0  0  0  0
  162.0150  207.3070  152.1430 C   0  0  0  0  0  0  0  0  0  0  0  0
  161.6340  208.6530  152.1180 C   0  0  0  0  0  3  0  0  0  0  0  0
  160.9580  209.2100  153.2080 C   0  0  0  0  0  3  0  0  0  0  0  0
  161.0460  207.0770  154.3530 C   0  0  0  0  0  3  0  0  0  0  0  0
  161.7210  206.5190  153.2630 C   0  0  0  0  0  3  0  0  0  0  0  0
  1 12  1  0  0  0  0
  1 21  1  1  0  0  0
  2  3  1  0  0  0  0
  3  1  1  0  0  0  0
  4 10  1  6  0  0  0
  4  2  1  0  0  0  0
  4  3  1  0  0  0  0
  5  7  1  0  0  0  0
  6  5  1  0  0  0  0
  6  8  1  0  0  0  0
  7 10  1  0  0  0  0
  8  9  1  0  0  0  0
  9 10  1  0  0  0  0
 12 11  1  6  0  0  0
 12 17  1  0  0  0  0
 13 20  1  0  0  0  0
 14 18  1  0  0  0  0
 15 18  1  0  0  0  0
 15 17  2  0  0  0  0
 16 15  1  0  0  0  0
 17 19  1  0  0  0  0
 18 13  2  0  0  0  0
 19 20  1  0  0  0  0
 21 23  1  0  0  0  0
 22 26  1  0  0  0  0
 23 27  1  0  0  0  0
 24 23  2  0  0  0  0
 24 25  1  0  0  0  0
 25 22  2  0  0  0  0
 27 26  2  0  0  0  0
M  END
>  <MODEL>
3

>  <REMARK>
 VINA RESULT:      -5.2      1.500      6.097
  Name = 
  6 active torsions:
  status: ('A' for Active; 'I' for Inactive)
    1  A    between atoms: C_2  and  C_6
    2  A    between atoms: C_2  and  N_15
    3  A    between atoms: C_2  and  C_19
    4  A    between atoms: C_6  and  C_9
    5  A    between atoms: C_14  and  C_19
    6  A    between atoms: C_18  and  C_26
                            x       y       z     vdW  Elec       q    Type
                         _______ _______ _______ _____ _____    ______ ____

>  <TORSDO>
F 6

$$$$
=
 OpenBabel11052423183D

 27 30  0  0  1  0  0  0  0  0999 V2000
  161.8670  206.5670  149.3300 C   0  0  2  0  0  3  0  0  0  0  0  0
  159.8010  205.8630  148.6180 O   0  0  0  0  0  0  0  0  0  0  0  0
  160.4320  206.5600  149.6370 N   0  0  0  0  0  0  0  0  0  0  0  0
  159.8530  205.2300  149.8180 C   0  0  2  0  0  3  0  0  0  0  0  0
  161.6400  202.0040  150.8950 C   0  0  0  0  0  2  0  0  0  0  0  0
  161.0880  201.2030  149.8790 O   0  0  0  0  0  0  0  0  0  0  0  0
  160.8140  203.2790  151.0600 C   0  0  0  0  0  2  0  0  0  0  0  0
  161.3260  201.8690  148.6620 C   0  0  0  0  0  2  0  0  0  0  0  0
  160.4660  203.1310  148.5810 C   0  0  0  0  0  2  0  0  0  0  0  0
  160.8310  204.0540  149.7440 C   0  0  0  0  0  3  0  0  0  0  0  0
  163.0810  208.5640  149.9400 O   0  0  0  0  0  1  0  0  0  0  0  0
  162.6440  207.3270  150.4160 C   0  0  1  0  0  3  0  0  0  0  0  0
  160.8310  207.8530  154.3160 C   0  0  0  0  0  3  0  0  0  0  0  0
  160.0810  210.1060  153.7620 C   0  0  0  0  0  1  0  0  0  0  0  0
  161.4790  208.6980  152.1160 C   0  0  0  0  0  0  0  0  0  0  0  0
  161.6920  209.8190  151.3170 O   0  0  0  0  0  1  0  0  0  0  0  0
  161.8870  207.4830  151.7060 C   0  0  0  0  0  0  0  0  0  0  0  0
  160.8070  208.8510  153.4280 C   0  0  0  0  0  0  0  0  0  0  0  0
  161.5560  206.2660  152.5400 C   0  0  0  0  0  2  0  0  0  0  0  0
  161.6130  206.6000  154.0320 C   0  0  0  0  0  2  0  0  0  0  0  0
  162.1220  207.1560  147.9410 C   0  0  0  0  0  2  0  0  0  0  0  0
  161.6260  204.1870  144.8860 C   0  0  0  0  0  3  0  0  0  0  0  0
  161.9570  206.1270  146.8740 C   0  0  0  0  0  0  0  0  0  0  0  0
  160.8710  206.2030  145.9950 C   0  0  0  0  0  3  0  0  0  0  0  0
  160.7060  205.2340  145.0010 C   0  0  0  0  0  3  0  0  0  0  0  0
  162.7110  204.1090  145.7640 C   0  0  0  0  0  3  0  0  0  0  0  0
  162.8770  205.0780  146.7580 C   0  0  0  0  0  3  0  0  0  0  0  0
  1 21  1  6  0  0  0
  1  3  1  0  0  0  0
  1 12  1  0  0  0  0
  2  3  1  0  0  0  0
  2  4  1  0  0  0  0
  3  4  1  0  0  0  0
  4 10  1  6  0  0  0
  5  7  1  0  0  0  0
  6  5  1  0  0  0  0
  8  6  1  0  0  0  0
  9  8  1  0  0  0  0
  9 10  1  0  0  0  0
 10  7  1  0  0  0  0
 12 11  1  6  0  0  0
 12 17  1  0  0  0  0
 15 18  1  0  0  0  0
 16 15  1  0  0  0  0
 17 15  2  0  0  0  0
 17 19  1  0  0  0  0
 18 14  1  0  0  0  0
 18 13  2  0  0  0  0
 19 20  1  0  0  0  0
 20 13  1  0  0  0  0
 22 25  2  0  0  0  0
 22 26  1  0  0  0  0
 23 21  1  0  0  0  0
 24 23  2  0  0  0  0
 25 24  1  0  0  0  0
 26 27  2  0  0  0  0
 27 23  1  0  0  0  0
M  END
>  <MODEL>
4

>  <REMARK>
 VINA RESULT:      -5.2      1.075      1.578
  Name = 
  6 active torsions:
  status: ('A' for Active; 'I' for Inactive)
    1  A    between atoms: C_2  and  C_6
    2  A    between atoms: C_2  and  N_15
    3  A    between atoms: C_2  and  C_19
    4  A    between atoms: C_6  and  C_9
    5  A    between atoms: C_14  and  C_19
    6  A    between atoms: C_18  and  C_26
                            x       y       z     vdW  Elec       q    Type
                         _______ _______ _______ _____ _____    ______ ____

>  <TORSDO>
F 6

$$$$
=
 OpenBabel11052423183D

 27 30  0  0  1  0  0  0  0  0999 V2000
  161.5920  205.4670  147.9500 C   0  0  2  0  0  3  0  0  0  0  0  0
  163.2140  204.4520  146.6790 O   0  0  0  0  0  0  0  0  0  0  0  0
  162.6010  205.6760  146.9060 N   0  0  0  0  0  0  0  0  0  0  0  0
  162.3940  204.8920  145.6890 C   0  0  2  0  0  3  0  0  0  0  0  0
  159.1810  203.3480  144.2570 C   0  0  0  0  0  2  0  0  0  0  0  0
  159.6880  202.0380  144.1810 O   0  0  0  0  0  0  0  0  0  0  0  0
  160.3310  204.3470  144.3780 C   0  0  0  0  0  2  0  0  0  0  0  0
  160.2150  201.7310  145.4500 C   0  0  0  0  0  2  0  0  0  0  0  0
  161.4790  202.5530  145.7020 C   0  0  0  0  0  2  0  0  0  0  0  0
  161.1230  204.0390  145.6470 C   0  0  0  0  0  3  0  0  0  0  0  0
  159.4480  206.5780  147.9260 O   0  0  0  0  0  1  0  0  0  0  0  0
  160.8040  206.7610  148.2010 C   0  0  1  0  0  3  0  0  0  0  0  0
  161.7250  208.1910  152.1860 C   0  0  0  0  0  3  0  0  0  0  0  0
  162.5310  210.3270  151.3300 C   0  0  0  0  0  1  0  0  0  0  0  0
  161.7380  208.4460  149.7550 C   0  0  0  0  0  0  0  0  0  0  0  0
  162.2720  209.1210  148.6600 O   0  0  0  0  0  1  0  0  0  0  0  0
  161.0010  207.3350  149.5780 C   0  0  0  0  0  0  0  0  0  0  0  0
  161.9940  208.9550  151.1230 C   0  0  0  0  0  0  0  0  0  0  0  0
  160.3480  206.6760  150.7700 C   0  0  0  0  0  2  0  0  0  0  0  0
  161.2460  206.7780  152.0050 C   0  0  0  0  0  2  0  0  0  0  0  0
  162.2390  204.9450  149.2340 C   0  0  0  0  0  2  0  0  0  0  0  0
  160.3360  201.3620  150.6250 C   0  0  0  0  0  3  0  0  0  0  0  0
  161.5690  203.7030  149.7170 C   0  0  0  0  0  0  0  0  0  0  0  0
  161.6670  203.3370  151.0630 C   0  0  0  0  0  3  0  0  0  0  0  0
  161.0500  202.1680  151.5180 C   0  0  0  0  0  3  0  0  0  0  0  0
  160.2380  201.7260  149.2790 C   0  0  0  0  0  3  0  0  0  0  0  0
  160.8540  202.8950  148.8240 C   0  0  0  0  0  3  0  0  0  0  0  0
  1 12  1  0  0  0  0
  1 21  1  1  0  0  0
  2  3  1  0  0  0  0
  3  1  1  0  0  0  0
  4 10  1  1  0  0  0
  4  2  1  0  0  0  0
  4  3  1  0  0  0  0
  5  7  1  0  0  0  0
  6  5  1  0  0  0  0
  6  8  1  0  0  0  0
  7 10  1  0  0  0  0
  8  9  1  0  0  0  0
 10  9  1  0  0  0  0
 12 11  1  1  0  0  0
 12 17  1  0  0  0  0
 15 18  1  0  0  0  0
 16 15  1  0  0  0  0
 17 15  2  0  0  0  0
 17 19  1  0  0  0  0
 18 14  1  0  0  0  0
 18 13  2  0  0  0  0
 19 20  1  0  0  0  0
 20 13  1  0  0  0  0
 21 23  1  0  0  0  0
 22 25  1  0  0  0  0
 23 24  1  0  0  0  0
 24 25  2  0  0  0  0
 26 22  2  0  0  0  0
 27 26  1  0  0  0  0
 27 23  2  0  0  0  0
M  END
>  <MODEL>
5

>  <REMARK>
 VINA RESULT:      -4.9      2.171      4.587
  Name = 
  6 active torsions:
  status: ('A' for Active; 'I' for Inactive)
    1  A    between atoms: C_2  and  C_6
    2  A    between atoms: C_2  and  N_15
    3  A    between atoms: C_2  and  C_19
    4  A    between atoms: C_6  and  C_9
    5  A    between atoms: C_14  and  C_19
    6  A    between atoms: C_18  and  C_26
                            x       y       z     vdW  Elec       q    Type
                         _______ _______ _______ _____ _____    ______ ____

>  <TORSDO>
F 6

$$$$
=
 OpenBabel11052423183D

 27 30  0  0  1  0  0  0  0  0999 V2000
  161.3780  206.3810  151.1510 C   0  0  2  0  0  3  0  0  0  0  0  0
  162.8500  206.1650  152.9010 O   0  0  0  0  0  0  0  0  0  0  0  0
  161.9360  205.4510  152.1390 N   0  0  0  0  0  0  0  0  0  0  0  0
  161.6960  205.8240  153.5320 C   0  0  2  0  0  3  0  0  0  0  0  0
  159.3800  208.2740  155.3730 C   0  0  0  0  0  2  0  0  0  0  0  0
  160.3390  209.2960  155.4930 O   0  0  0  0  0  0  0  0  0  0  0  0
  160.0690  206.9440  155.0720 C   0  0  0  0  0  2  0  0  0  0  0  0
  160.8600  209.5180  154.2050 C   0  0  0  0  0  2  0  0  0  0  0  0
  161.7130  208.3240  153.7740 C   0  0  0  0  0  2  0  0  0  0  0  0
  160.8370  207.0710  153.7570 C   0  0  0  0  0  3  0  0  0  0  0  0
  159.7060  206.5860  149.4200 O   0  0  0  0  0  1  0  0  0  0  0  0
  160.2810  205.6920  150.3260 C   0  0  1  0  0  3  0  0  0  0  0  0
  161.2060  202.0170  148.2270 C   0  0  0  0  0  3  0  0  0  0  0  0
  161.9550  203.2290  146.2490 C   0  0  0  0  0  1  0  0  0  0  0  0
  161.0000  204.4510  148.3090 C   0  0  0  0  0  0  0  0  0  0  0  0
  160.9100  205.6350  147.5810 O   0  0  0  0  0  1  0  0  0  0  0  0
  160.7410  204.4410  149.6290 C   0  0  0  0  0  0  0  0  0  0  0  0
  161.3720  203.1940  147.6170 C   0  0  0  0  0  0  0  0  0  0  0  0
  160.9430  203.1680  150.4180 C   0  0  0  0  0  2  0  0  0  0  0  0
  160.5580  201.9460  149.5820 C   0  0  0  0  0  2  0  0  0  0  0  0
  162.4810  206.9490  150.2560 C   0  0  0  0  0  2  0  0  0  0  0  0
  161.8580  211.1050  149.3990 C   0  0  0  0  0  3  0  0  0  0  0  0
  162.2550  208.3930  149.9610 C   0  0  0  0  0  0  0  0  0  0  0  0
  162.1550  208.8260  148.6350 C   0  0  0  0  0  3  0  0  0  0  0  0
  161.9560  210.1820  148.3540 C   0  0  0  0  0  3  0  0  0  0  0  0
  161.9590  210.6740  150.7250 C   0  0  0  0  0  3  0  0  0  0  0  0
  162.1580  209.3190  151.0070 C   0  0  0  0  0  3  0  0  0  0  0  0
  1 21  1  6  0  0  0
  1  3  1  0  0  0  0
  2  4  1  0  0  0  0
  3  2  1  0  0  0  0
  3  4  1  0  0  0  0
  4 10  1  6  0  0  0
  5  6  1  0  0  0  0
  7  5  1  0  0  0  0
  8  6  1  0  0  0  0
  9  8  1  0  0  0  0
 10  9  1  0  0  0  0
 10  7  1  0  0  0  0
 12 11  1  6  0  0  0
 12  1  1  0  0  0  0
 13 20  1  0  0  0  0
 14 18  1  0  0  0  0
 15 17  2  0  0  0  0
 16 15  1  0  0  0  0
 17 12  1  0  0  0  0
 17 19  1  0  0  0  0
 18 13  2  0  0  0  0
 18 15  1  0  0  0  0
 20 19  1  0  0  0  0
 22 26  1  0  0  0  0
 23 21  1  0  0  0  0
 23 27  1  0  0  0  0
 24 23  2  0  0  0  0
 25 24  1  0  0  0  0
 25 22  2  0  0  0  0
 26 27  2  0  0  0  0
M  END
>  <MODEL>
6

>  <REMARK>
 VINA RESULT:      -4.7      1.959      6.419
  Name = 
  6 active torsions:
  status: ('A' for Active; 'I' for Inactive)
    1  A    between atoms: C_2  and  C_6
    2  A    between atoms: C_2  and  N_15
    3  A    between atoms: C_2  and  C_19
    4  A    between atoms: C_6  and  C_9
    5  A    between atoms: C_14  and  C_19
    6  A    between atoms: C_18  and  C_26
                            x       y       z     vdW  Elec       q    Type
                         _______ _______ _______ _____ _____    ______ ____

>  <TORSDO>
F 6

$$$$
=
 OpenBabel11052423183D

 27 30  0  0  1  0  0  0  0  0999 V2000
  160.8070  210.2350  152.8120 C   0  0  2  0  0  3  0  0  0  0  0  0
  158.5700  210.7320  152.6690 O   0  0  0  0  0  0  0  0  0  0  0  0
  159.8120  211.1070  152.1780 N   0  0  0  0  0  0  0  0  0  0  0  0
  159.0390  211.9280  153.1090 C   0  0  2  0  0  3  0  0  0  0  0  0
  159.9230  213.1050  156.6580 C   0  0  0  0  0  2  0  0  0  0  0  0
  158.7510  212.6080  157.2570 O   0  0  0  0  0  0  0  0  0  0  0  0
  159.7320  213.2110  155.1460 C   0  0  0  0  0  2  0  0  0  0  0  0
  158.6410  211.2570  156.8760 C   0  0  0  0  0  2  0  0  0  0  0  0
  158.3090  211.1600  155.3870 C   0  0  0  0  0  2  0  0  0  0  0  0
  159.4300  211.8220  154.5860 C   0  0  0  0  0  3  0  0  0  0  0  0
  163.2060  210.2330  152.5310 O   0  0  0  0  0  1  0  0  0  0  0  0
  161.9980  210.0070  151.8690 C   0  0  1  0  0  3  0  0  0  0  0  0
  161.5720  206.1480  149.9470 C   0  0  0  0  0  3  0  0  0  0  0  0
  162.1030  207.0790  147.7570 C   0  0  0  0  0  1  0  0  0  0  0  0
  161.9410  208.5620  149.8600 C   0  0  0  0  0  0  0  0  0  0  0  0
  161.9560  209.7080  149.0690 O   0  0  0  0  0  1  0  0  0  0  0  0
  161.9950  208.6600  151.2010 C   0  0  0  0  0  0  0  0  0  0  0  0
  161.8540  207.2300  149.2160 C   0  0  0  0  0  0  0  0  0  0  0  0
  162.0800  207.4030  152.0350 C   0  0  0  0  0  2  0  0  0  0  0  0
  161.2500  206.2800  151.4100 C   0  0  0  0  0  2  0  0  0  0  0  0
  160.1730  208.9120  153.2440 C   0  0  0  0  0  2  0  0  0  0  0  0
  161.2740  207.8870  157.2610 C   0  0  0  0  0  3  0  0  0  0  0  0
  160.5470  208.5590  154.6440 C   0  0  0  0  0  0  0  0  0  0  0  0
  161.5340  209.2960  155.3080 C   0  0  0  0  0  3  0  0  0  0  0  0
  161.8970  208.9610  156.6160 C   0  0  0  0  0  3  0  0  0  0  0  0
  160.2890  207.1490  156.5980 C   0  0  0  0  0  3  0  0  0  0  0  0
  159.9250  207.4840  155.2910 C   0  0  0  0  0  3  0  0  0  0  0  0
  1 21  1  6  0  0  0
  2  4  1  0  0  0  0
  3  2  1  0  0  0  0
  3  1  1  0  0  0  0
  3  4  1  0  0  0  0
  4 10  1  1  0  0  0
  5  6  1  0  0  0  0
  7  5  1  0  0  0  0
  8  6  1  0  0  0  0
  9  8  1  0  0  0  0
 10  7  1  0  0  0  0
 10  9  1  0  0  0  0
 12 11  1  1  0  0  0
 12  1  1  0  0  0  0
 13 20  1  0  0  0  0
 14 18  1  0  0  0  0
 15 17  2  0  0  0  0
 16 15  1  0  0  0  0
 17 12  1  0  0  0  0
 17 19  1  0  0  0  0
 18 15  1  0  0  0  0
 18 13  2  0  0  0  0
 20 19  1  0  0  0  0
 21 23  1  0  0  0  0
 23 27  2  0  0  0  0
 23 24  1  0  0  0  0
 24 25  2  0  0  0  0
 25 22  1  0  0  0  0
 26 22  2  0  0  0  0
 27 26  1  0  0  0  0
M  END
>  <MODEL>
7

>  <REMARK>
 VINA RESULT:      -4.6      3.286      8.459
  Name = 
  6 active torsions:
  status: ('A' for Active; 'I' for Inactive)
    1  A    between atoms: C_2  and  C_6
    2  A    between atoms: C_2  and  N_15
    3  A    between atoms: C_2  and  C_19
    4  A    between atoms: C_6  and  C_9
    5  A    between atoms: C_14  and  C_19
    6  A    between atoms: C_18  and  C_26
                            x       y       z     vdW  Elec       q    Type
                         _______ _______ _______ _____ _____    ______ ____

>  <TORSDO>
F 6

$$$$
=
 OpenBabel11052423183D

 27 30  0  0  1  0  0  0  0  0999 V2000
  161.3970  206.5810  151.3980 C   0  0  2  0  0  3  0  0  0  0  0  0
  163.4560  207.0250  150.4830 O   0  0  0  0  0  0  0  0  0  0  0  0
  162.3320  207.6440  151.0120 N   0  0  0  0  0  0  0  0  0  0  0  0
  162.6670  207.6750  149.5890 C   0  0  2  0  0  3  0  0  0  0  0  0
  160.3490  206.3810  146.8120 C   0  0  0  0  0  2  0  0  0  0  0  0
  161.3830  205.8730  146.0040 O   0  0  0  0  0  0  0  0  0  0  0  0
  160.9170  207.3760  147.8220 C   0  0  0  0  0  2  0  0  0  0  0  0
  162.1710  205.0450  146.8260 C   0  0  0  0  0  2  0  0  0  0  0  0
  162.9400  205.8940  147.8380 C   0  0  0  0  0  2  0  0  0  0  0  0
  161.9380  206.6600  148.7030 C   0  0  0  0  0  3  0  0  0  0  0  0
  160.4820  206.1960  153.6000 O   0  0  0  0  0  1  0  0  0  0  0  0
  160.4600  207.0710  152.5120 C   0  0  1  0  0  3  0  0  0  0  0  0
  160.8520  211.1380  153.9540 C   0  0  0  0  0  3  0  0  0  0  0  0
  162.2440  210.4340  155.8280 C   0  0  0  0  0  1  0  0  0  0  0  0
  161.2330  208.7330  154.1750 C   0  0  0  0  0  0  0  0  0  0  0  0
  161.5770  207.6840  155.0230 O   0  0  0  0  0  1  0  0  0  0  0  0
  160.7280  208.4840  152.9530 C   0  0  0  0  0  0  0  0  0  0  0  0
  161.4150  210.1320  154.6300 C   0  0  0  0  0  0  0  0  0  0  0  0
  160.4560  209.6330  152.0110 C   0  0  0  0  0  2  0  0  0  0  0  0
  159.9560  210.8570  152.7800 C   0  0  0  0  0  2  0  0  0  0  0  0
  162.1530  205.3180  151.8140 C   0  0  0  0  0  2  0  0  0  0  0  0
  160.4920  201.8040  149.9990 C   0  0  0  0  0  3  0  0  0  0  0  0
  161.5660  204.0990  151.1860 C   0  0  0  0  0  0  0  0  0  0  0  0
  161.7440  202.8500  151.7900 C   0  0  0  0  0  3  0  0  0  0  0  0
  161.2060  201.7030  151.1970 C   0  0  0  0  0  3  0  0  0  0  0  0
  160.3150  203.0520  149.3930 C   0  0  0  0  0  3  0  0  0  0  0  0
  160.8520  204.1990  149.9860 C   0  0  0  0  0  3  0  0  0  0  0  0
  1 21  1  1  0  0  0
  1 12  1  0  0  0  0
  2  3  1  0  0  0  0
  3  1  1  0  0  0  0
  4 10  1  6  0  0  0
  4  2  1  0  0  0  0
  4  3  1  0  0  0  0
  5  7  1  0  0  0  0
  6  5  1  0  0  0  0
  6  8  1  0  0  0  0
  7 10  1  0  0  0  0
  8  9  1  0  0  0  0
  9 10  1  0  0  0  0
 12 17  1  0  0  0  0
 12 11  1  1  0  0  0
 13 18  2  0  0  0  0
 15 18  1  0  0  0  0
 15 16  1  0  0  0  0
 17 15  2  0  0  0  0
 18 14  1  0  0  0  0
 19 20  1  0  0  0  0
 19 17  1  0  0  0  0
 20 13  1  0  0  0  0
 22 25  1  0  0  0  0
 23 24  1  0  0  0  0
 23 21  1  0  0  0  0
 25 24  2  0  0  0  0
 26 27  1  0  0  0  0
 26 22  2  0  0  0  0
 27 23  2  0  0  0  0
M  END
>  <MODEL>
8

>  <REMARK>
 VINA RESULT:      -4.3      1.872      4.189
  Name = 
  6 active torsions:
  status: ('A' for Active; 'I' for Inactive)
    1  A    between atoms: C_2  and  C_6
    2  A    between atoms: C_2  and  N_15
    3  A    between atoms: C_2  and  C_19
    4  A    between atoms: C_6  and  C_9
    5  A    between atoms: C_14  and  C_19
    6  A    between atoms: C_18  and  C_26
                            x       y       z     vdW  Elec       q    Type
                         _______ _______ _______ _____ _____    ______ ____

>  <TORSDO>
F 6

$$$$
=
 OpenBabel11052423183D

 27 30  0  0  1  0  0  0  0  0999 V2000
  160.0810  210.8160  152.9930 C   0  0  2  0  0  3  0  0  0  0  0  0
  160.5650  211.6830  155.0640 O   0  0  0  0  0  0  0  0  0  0  0  0
  160.4310  210.4840  154.3790 N   0  0  0  0  0  0  0  0  0  0  0  0
  159.4700  210.9440  155.3800 C   0  0  2  0  0  3  0  0  0  0  0  0
  155.7230  211.6170  154.8610 C   0  0  0  0  0  2  0  0  0  0  0  0
  155.7150  212.8470  155.5450 O   0  0  0  0  0  0  0  0  0  0  0  0
  156.9720  210.8210  155.2340 C   0  0  0  0  0  2  0  0  0  0  0  0
  156.7430  213.6300  154.9870 C   0  0  0  0  0  2  0  0  0  0  0  0
  158.1050  213.0540  155.3740 C   0  0  0  0  0  2  0  0  0  0  0  0
  158.2090  211.6250  154.8390 C   0  0  0  0  0  3  0  0  0  0  0  0
  162.0200  210.4630  151.5980 O   0  0  0  0  0  1  0  0  0  0  0  0
  160.8180  209.8880  152.0170 C   0  0  1  0  0  3  0  0  0  0  0  0
  161.0500  205.8510  153.5720 C   0  0  0  0  0  3  0  0  0  0  0  0
  161.5480  204.9340  151.3680 C   0  0  0  0  0  1  0  0  0  0  0  0
  161.0700  207.4440  151.7180 C   0  0  0  0  0  0  0  0  0  0  0  0
  160.9570  207.6280  150.3420 O   0  0  0  0  0  1  0  0  0  0  0  0
  161.0430  208.5000  152.5510 C   0  0  0  0  0  0  0  0  0  0  0  0
  161.2090  206.0730  152.2640 C   0  0  0  0  0  0  0  0  0  0  0  0
  161.2680  208.2880  154.0300 C   0  0  0  0  0  2  0  0  0  0  0  0
  160.6420  206.9700  154.4900 C   0  0  0  0  0  2  0  0  0  0  0  0
  160.3720  212.2890  152.6980 C   0  0  0  0  0  2  0  0  0  0  0  0
  158.0930  213.6670  149.3350 C   0  0  0  0  0  3  0  0  0  0  0  0
  159.5820  212.7770  151.5300 C   0  0  0  0  0  0  0  0  0  0  0  0
  158.1850  212.7950  151.5930 C   0  0  0  0  0  3  0  0  0  0  0  0
  157.4410  213.2400  150.4960 C   0  0  0  0  0  3  0  0  0  0  0  0
  159.4900  213.6490  149.2710 C   0  0  0  0  0  3  0  0  0  0  0  0
  160.2350  213.2040  150.3670 C   0  0  0  0  0  3  0  0  0  0  0  0
  1 21  1  6  0  0  0
  1  3  1  0  0  0  0
  2  4  1  0  0  0  0
  3  2  1  0  0  0  0
  3  4  1  0  0  0  0
  4 10  1  6  0  0  0
  5  7  1  0  0  0  0
  5  6  1  0  0  0  0
  8  9  1  0  0  0  0
  8  6  1  0  0  0  0
 10  7  1  0  0  0  0
 10  9  1  0  0  0  0
 12 11  1  1  0  0  0
 12 17  1  0  0  0  0
 12  1  1  0  0  0  0
 13 20  1  0  0  0  0
 14 18  1  0  0  0  0
 15 18  1  0  0  0  0
 15 17  2  0  0  0  0
 16 15  1  0  0  0  0
 17 19  1  0  0  0  0
 18 13  2  0  0  0  0
 19 20  1  0  0  0  0
 22 25  1  0  0  0  0
 23 24  1  0  0  0  0
 23 21  1  0  0  0  0
 25 24  2  0  0  0  0
 26 22  2  0  0  0  0
 26 27  1  0  0  0  0
 27 23  2  0  0  0  0
M  END
>  <MODEL>
9

>  <REMARK>
 VINA RESULT:      -4.2      4.123      8.175
  Name = 
  6 active torsions:
  status: ('A' for Active; 'I' for Inactive)
    1  A    between atoms: C_2  and  C_6
    2  A    between atoms: C_2  and  N_15
    3  A    between atoms: C_2  and  C_19
    4  A    between atoms: C_6  and  C_9
    5  A    between atoms: C_14  and  C_19
    6  A    between atoms: C_18  and  C_26
                            x       y       z     vdW  Elec       q    Type
                         _______ _______ _______ _____ _____    ______ ____

>  <TORSDO>
F 6

$$$$
