=
 OpenBabel11062409063D

 37 41  0  0  1  0  0  0  0  0999 V2000
  159.7060  211.2670  154.5850 C   0  0  1  0  0  0  0  0  0  0  0  0
  160.5840  207.6580  155.5990 C   0  0  1  0  0  0  0  0  0  0  0  0
  160.6200  208.2260  151.8150 C   0  0  0  0  0  0  0  0  0  0  0  0
  158.3540  211.6030  155.2590 C   0  0  1  0  0  3  0  0  0  0  0  0
  161.8730  206.5520  153.7700 C   0  0  0  0  0  3  0  0  0  0  0  0
  161.0690  209.6200  151.4300 C   0  0  0  0  0  0  0  0  0  0  0  0
  157.7150  213.4740  153.6660 C   0  0  0  0  0  0  0  0  0  0  0  0
  160.2190  208.1280  153.1770 O   0  0  0  0  0  0  0  0  0  0  0  0
  161.7070  209.7740  150.2390 C   0  0  0  0  0  0  0  0  0  0  0  0
  163.2490  205.4890  151.9760 N   0  0  0  0  0  1  0  0  0  0  0  0
  157.7580  212.8700  154.9330 O   0  0  0  0  0  0  0  0  0  0  0  0
  160.4950  210.2240  155.4050 C   0  0  0  0  0  2  0  0  0  0  0  0
  161.8340  207.7670  156.4630 C   0  0  0  0  0  1  0  0  0  0  0  0
  162.1870  207.3520  150.0600 C   0  0  0  0  0  2  0  0  0  0  0  0
  162.2190  206.4030  152.3420 C   0  0  0  0  0  0  0  0  0  0  0  0
  159.7330  208.9330  155.7470 C   0  0  0  0  0  2  0  0  0  0  0  0
  158.6020  213.0700  152.5290 C   0  0  0  0  0  2  0  0  0  0  0  0
  160.9060  210.7730  152.3940 C   0  0  0  0  0  2  0  0  0  0  0  0
  161.6670  207.2190  151.4300 C   0  0  0  0  0  0  0  0  0  0  0  0
  159.5550  210.7990  153.1140 C   0  0  2  0  0  3  0  0  0  0  0  0
  160.9350  207.4290  154.1500 C   0  0  0  0  0  0  0  0  0  0  0  0
  159.8280  206.5760  156.0510 O   0  0  0  0  0  1  0  0  0  0  0  0
  158.5350  211.5760  152.2790 C   0  0  0  0  0  2  0  0  0  0  0  0
  156.9430  214.4530  153.4940 O   0  0  0  0  0  0  0  0  0  0  0  0
  160.4710  212.4230  154.6080 F   0  0  0  0  0  0  0  0  0  0  0  0
  162.1710  208.5650  149.4900 C   0  0  0  0  0  3  0  0  0  0  0  0
  163.2810  211.5140  149.8710 O   0  0  0  0  0  0  0  0  0  0  0  0
  162.0980  211.1050  149.7080 C   0  0  0  0  0  0  0  0  0  0  0  0
  160.4890  213.0330  149.5960 C   0  0  0  0  0  3  0  0  0  0  0  0
  161.1400  211.9590  148.9680 C   0  0  0  0  0  0  0  0  0  0  0  0
  160.8960  211.7180  147.6080 C   0  0  0  0  0  3  0  0  0  0  0  0
  159.7550  212.2590  145.4520 C   0  0  0  0  0  1  0  0  0  0  0  0
  159.3610  213.5880  147.5300 C   0  0  0  0  0  3  0  0  0  0  0  0
  160.0080  212.5260  146.8920 C   0  0  0  0  0  0  0  0  0  0  0  0
  159.6020  213.8410  148.8820 C   0  0  0  0  0  3  0  0  0  0  0  0
  156.1460  211.0510  155.5960 C   0  0  0  0  0  1  0  0  0  0  0  0
  157.4340  210.5360  155.3960 O   0  0  0  0  0  0  0  0  0  0  0  0
  1 25  1  6  0  0  0
  1  4  1  0  0  0  0
  1 12  1  0  0  0  0
  2 16  1  0  0  0  0
  2 22  1  0  0  0  0
  2 13  1  1  0  0  0
  3  8  1  0  0  0  0
  4 37  1  6  0  0  0
  5 21  2  0  0  0  0
  6  3  2  0  0  0  0
  6 18  1  0  0  0  0
  7 11  1  0  0  0  0
  8 21  1  0  0  0  0
  9  6  1  0  0  0  0
 10 15  1  0  0  0  0
 11  4  1  0  0  0  0
 12 16  1  0  0  0  0
 14 19  1  0  0  0  0
 15  5  1  0  0  0  0
 17  7  1  0  0  0  0
 18 20  1  0  0  0  0
 19  3  1  0  0  0  0
 19 15  2  0  0  0  0
 20 23  1  6  0  0  0
 20  1  1  0  0  0  0
 21  2  1  0  0  0  0
 23 17  1  0  0  0  0
 24  7  2  0  0  0  0
 26 14  1  0  0  0  0
 26  9  2  0  0  0  0
 28 27  2  0  0  0  0
 28  9  1  0  0  0  0
 30 29  1  0  0  0  0
 30 28  1  0  0  0  0
 31 30  2  0  0  0  0
 32 34  1  0  0  0  0
 33 35  1  0  0  0  0
 34 33  2  0  0  0  0
 34 31  1  0  0  0  0
 35 29  2  0  0  0  0
 37 36  1  0  0  0  0
M  END
>  <MODEL>
1

>  <REMARK>
 VINA RESULT:      -5.2      0.000      0.000
  Name = 
  3 active torsions:
  status: ('A' for Active; 'I' for Inactive)
    1  A    between atoms: C_5  and  O_23
    2  A    between atoms: C_6  and  C_31
    3  A    between atoms: C_14  and  C_31
                            x       y       z     vdW  Elec       q    Type
                         _______ _______ _______ _____ _____    ______ ____

>  <TORSDO>
F 3

$$$$
=
 OpenBabel11062409063D

 37 41  0  0  1  0  0  0  0  0999 V2000
  159.6710  210.0210  153.9580 C   0  0  1  0  0  0  0  0  0  0  0  0
  159.6210  213.1750  151.7510 C   0  0  1  0  0  0  0  0  0  0  0  0
  161.9860  210.4560  150.4640 C   0  0  0  0  0  0  0  0  0  0  0  0
  159.9770  210.4910  155.4000 C   0  0  1  0  0  3  0  0  0  0  0  0
  160.4020  212.6110  149.4480 C   0  0  0  0  0  3  0  0  0  0  0  0
  161.4890  209.0550  150.7500 C   0  0  0  0  0  0  0  0  0  0  0  0
  160.8510  208.2570  156.2340 C   0  0  0  0  0  0  0  0  0  0  0  0
  161.3520  211.4460  151.2670 O   0  0  0  0  0  0  0  0  0  0  0  0
  161.8350  208.0700  149.8800 C   0  0  0  0  0  0  0  0  0  0  0  0
  161.0870  212.0160  147.1210 N   0  0  0  0  0  1  0  0  0  0  0  0
  160.1610  209.4700  156.3960 O   0  0  0  0  0  0  0  0  0  0  0  0
  158.9490  211.1230  153.1530 C   0  0  0  0  0  2  0  0  0  0  0  0
  158.1820  213.3150  151.2680 C   0  0  0  0  0  1  0  0  0  0  0  0
  162.4580  209.6950  148.1200 C   0  0  0  0  0  2  0  0  0  0  0  0
  161.2000  211.7850  148.5220 C   0  0  0  0  0  0  0  0  0  0  0  0
  159.6450  212.4930  153.1310 C   0  0  0  0  0  2  0  0  0  0  0  0
  161.1850  207.6700  154.8970 C   0  0  0  0  0  2  0  0  0  0  0  0
  160.5510  208.7940  151.9070 C   0  0  0  0  0  2  0  0  0  0  0  0
  161.9070  210.7440  148.9910 C   0  0  0  0  0  0  0  0  0  0  0  0
  160.9290  209.5290  153.1960 C   0  0  2  0  0  3  0  0  0  0  0  0
  160.4570  212.3940  150.7680 C   0  0  0  0  0  0  0  0  0  0  0  0
  160.1670  214.4510  151.8860 O   0  0  0  0  0  1  0  0  0  0  0  0
  161.9010  208.6760  154.0150 C   0  0  0  0  0  2  0  0  0  0  0  0
  161.1410  207.5900  157.2610 O   0  0  0  0  0  0  0  0  0  0  0  0
  158.7700  208.9710  154.0540 F   0  0  0  0  0  0  0  0  0  0  0  0
  162.4500  208.4310  148.5660 C   0  0  0  0  0  3  0  0  0  0  0  0
  161.2070  206.2560  151.2780 O   0  0  0  0  0  0  0  0  0  0  0  0
  161.4960  206.6420  150.1120 C   0  0  0  0  0  0  0  0  0  0  0  0
  161.7220  206.0510  147.6800 C   0  0  0  0  0  3  0  0  0  0  0  0
  161.4630  205.6600  149.0040 C   0  0  0  0  0  0  0  0  0  0  0  0
  161.2020  204.3080  149.2740 C   0  0  0  0  0  3  0  0  0  0  0  0
  160.9060  201.9390  148.5400 C   0  0  0  0  0  1  0  0  0  0  0  0
  161.4380  203.7690  146.9260 C   0  0  0  0  0  3  0  0  0  0  0  0
  161.1870  203.3680  148.2410 C   0  0  0  0  0  0  0  0  0  0  0  0
  161.7060  205.1110  146.6460 C   0  0  0  0  0  3  0  0  0  0  0  0
  160.4870  212.3390  156.6720 C   0  0  0  0  0  1  0  0  0  0  0  0
  160.8400  211.6050  155.5320 O   0  0  0  0  0  0  0  0  0  0  0  0
  1 25  1  1  0  0  0
  1  4  1  0  0  0  0
  2 13  1  6  0  0  0
  2 22  1  0  0  0  0
  2 16  1  0  0  0  0
  3  6  2  0  0  0  0
  3  8  1  0  0  0  0
  4 37  1  6  0  0  0
  4 11  1  0  0  0  0
  5 21  2  0  0  0  0
  6 18  1  0  0  0  0
  7 11  1  0  0  0  0
  7 24  2  0  0  0  0
  9 28  1  0  0  0  0
  9  6  1  0  0  0  0
 10 15  1  0  0  0  0
 12  1  1  0  0  0  0
 14 26  1  0  0  0  0
 14 19  1  0  0  0  0
 15 19  2  0  0  0  0
 15  5  1  0  0  0  0
 16 12  1  0  0  0  0
 17  7  1  0  0  0  0
 19  3  1  0  0  0  0
 20 18  1  6  0  0  0
 20  1  1  0  0  0  0
 20 23  1  0  0  0  0
 21  8  1  0  0  0  0
 21  2  1  0  0  0  0
 23 17  1  0  0  0  0
 26  9  2  0  0  0  0
 28 27  2  0  0  0  0
 29 30  1  0  0  0  0
 30 31  2  0  0  0  0
 30 28  1  0  0  0  0
 33 34  2  0  0  0  0
 34 32  1  0  0  0  0
 34 31  1  0  0  0  0
 35 33  1  0  0  0  0
 35 29  2  0  0  0  0
 37 36  1  0  0  0  0
M  END
>  <MODEL>
2

>  <REMARK>
 VINA RESULT:      -4.6      2.768      6.058
  Name = 
  3 active torsions:
  status: ('A' for Active; 'I' for Inactive)
    1  A    between atoms: C_5  and  O_23
    2  A    between atoms: C_6  and  C_31
    3  A    between atoms: C_14  and  C_31
                            x       y       z     vdW  Elec       q    Type
                         _______ _______ _______ _____ _____    ______ ____

>  <TORSDO>
F 3

$$$$
=
 OpenBabel11062409063D

 37 41  0  0  1  0  0  0  0  0999 V2000
  161.7910  207.2550  153.2380 C   0  0  1  0  0  0  0  0  0  0  0  0
  161.1500  203.6770  151.9670 C   0  0  1  0  0  0  0  0  0  0  0  0
  160.3420  206.3770  149.3790 C   0  0  0  0  0  0  0  0  0  0  0  0
  161.0110  207.4020  154.5660 C   0  0  1  0  0  3  0  0  0  0  0  0
  161.1850  203.6440  149.4720 C   0  0  0  0  0  3  0  0  0  0  0  0
  161.2500  207.5840  149.4790 C   0  0  0  0  0  0  0  0  0  0  0  0
  160.8780  209.9380  154.5220 C   0  0  0  0  0  0  0  0  0  0  0  0
  160.3570  205.5710  150.5520 O   0  0  0  0  0  0  0  0  0  0  0  0
  161.5090  208.2790  148.3390 C   0  0  0  0  0  0  0  0  0  0  0  0
  161.3220  203.6030  146.9770 N   0  0  0  0  0  1  0  0  0  0  0  0
  161.0040  208.7030  155.1790 O   0  0  0  0  0  0  0  0  0  0  0  0
  162.2070  205.7880  152.9940 C   0  0  0  0  0  2  0  0  0  0  0  0
  162.5000  202.9710  152.0310 C   0  0  0  0  0  1  0  0  0  0  0  0
  160.7370  206.4170  146.9010 C   0  0  0  0  0  2  0  0  0  0  0  0
  160.9890  204.3100  148.1690 C   0  0  0  0  0  0  0  0  0  0  0  0
  161.0720  204.7540  153.0640 C   0  0  0  0  0  2  0  0  0  0  0  0
  161.1020  210.1160  153.0520 C   0  0  0  0  0  2  0  0  0  0  0  0
  161.9280  207.9290  150.7850 C   0  0  0  0  0  2  0  0  0  0  0  0
  160.6400  205.6050  148.1240 C   0  0  0  0  0  0  0  0  0  0  0  0
  161.0190  207.8090  152.0110 C   0  0  2  0  0  3  0  0  0  0  0  0
  160.9170  204.2940  150.6110 C   0  0  0  0  0  0  0  0  0  0  0  0
  160.1490  202.7360  152.2080 O   0  0  0  0  0  1  0  0  0  0  0  0
  160.2810  209.1300  152.2420 C   0  0  0  0  0  2  0  0  0  0  0  0
  160.6340  210.9620  155.2110 O   0  0  0  0  0  0  0  0  0  0  0  0
  162.9730  207.9650  153.3770 F   0  0  0  0  0  0  0  0  0  0  0  0
  161.1190  207.6970  147.0180 C   0  0  0  0  0  3  0  0  0  0  0  0
  163.5480  209.4840  148.1690 O   0  0  0  0  0  0  0  0  0  0  0  0
  162.2980  209.5370  148.3310 C   0  0  0  0  0  0  0  0  0  0  0  0
  161.5990  211.5030  149.7330 C   0  0  0  0  0  3  0  0  0  0  0  0
  161.6510  210.8610  148.4850 C   0  0  0  0  0  0  0  0  0  0  0  0
  161.1050  211.5070  147.3660 C   0  0  0  0  0  3  0  0  0  0  0  0
  159.9300  213.4370  146.3000 C   0  0  0  0  0  1  0  0  0  0  0  0
  160.4560  213.3900  148.7410 C   0  0  0  0  0  3  0  0  0  0  0  0
  160.5070  212.7640  147.4930 C   0  0  0  0  0  0  0  0  0  0  0  0
  161.0020  212.7600  149.8610 C   0  0  0  0  0  3  0  0  0  0  0  0
  159.2100  206.9290  155.9170 C   0  0  0  0  0  1  0  0  0  0  0  0
  159.7870  206.6980  154.6620 O   0  0  0  0  0  0  0  0  0  0  0  0
  1 25  1  1  0  0  0
  1  4  1  0  0  0  0
  2 13  1  1  0  0  0
  2 22  1  0  0  0  0
  2 16  1  0  0  0  0
  3  6  2  0  0  0  0
  3  8  1  0  0  0  0
  4 37  1  6  0  0  0
  4 11  1  0  0  0  0
  5 21  2  0  0  0  0
  6 18  1  0  0  0  0
  7 11  1  0  0  0  0
  7 24  2  0  0  0  0
  8 21  1  0  0  0  0
  9  6  1  0  0  0  0
 10 15  1  0  0  0  0
 12 16  1  0  0  0  0
 12  1  1  0  0  0  0
 14 26  1  0  0  0  0
 14 19  1  0  0  0  0
 15  5  1  0  0  0  0
 17  7  1  0  0  0  0
 19 15  2  0  0  0  0
 19  3  1  0  0  0  0
 20 18  1  6  0  0  0
 20 23  1  0  0  0  0
 20  1  1  0  0  0  0
 21  2  1  0  0  0  0
 23 17  1  0  0  0  0
 26  9  2  0  0  0  0
 27 28  2  0  0  0  0
 28  9  1  0  0  0  0
 28 30  1  0  0  0  0
 29 35  1  0  0  0  0
 30 29  2  0  0  0  0
 31 34  2  0  0  0  0
 31 30  1  0  0  0  0
 32 34  1  0  0  0  0
 33 35  2  0  0  0  0
 34 33  1  0  0  0  0
 37 36  1  0  0  0  0
M  END
>  <MODEL>
3

>  <REMARK>
 VINA RESULT:      -3.0      2.575      4.066
  Name = 
  3 active torsions:
  status: ('A' for Active; 'I' for Inactive)
    1  A    between atoms: C_5  and  O_23
    2  A    between atoms: C_6  and  C_31
    3  A    between atoms: C_14  and  C_31
                            x       y       z     vdW  Elec       q    Type
                         _______ _______ _______ _____ _____    ______ ____

>  <TORSDO>
F 3

$$$$
=
 OpenBabel11062409063D

 37 41  0  0  1  0  0  0  0  0999 V2000
  160.8260  207.5430  151.7930 C   0  0  1  0  0  0  0  0  0  0  0  0
  160.8360  207.6070  155.6430 C   0  0  1  0  0  0  0  0  0  0  0  0
  161.0370  211.0870  154.0640 C   0  0  2  0  0  3  0  0  0  0  0  0
  161.9640  206.5890  151.3610 C   0  0  1  0  0  3  0  0  0  0  0  0
  160.0790  209.8410  156.4570 C   0  0  0  0  0  3  0  0  0  0  0  0
  160.2760  211.1900  152.7590 C   0  0  0  0  0  0  0  0  0  0  0  0
  162.2450  207.5440  149.0240 C   0  0  0  0  0  0  0  0  0  0  0  0
  161.3090  209.7420  154.4450 O   0  0  0  0  0  0  0  0  0  0  0  0
  159.7460  212.3970  152.4280 C   0  0  0  0  0  0  0  0  0  0  0  0
  159.2240  212.0470  157.2610 N   0  0  0  0  0  1  0  0  0  0  0  0
  162.2330  206.4890  149.9510 O   0  0  0  0  0  0  0  0  0  0  0  0
  160.2610  207.1490  153.1750 C   0  0  0  0  0  2  0  0  0  0  0  0
  159.5190  206.9660  156.0670 C   0  0  0  0  0  1  0  0  0  0  0  0
  159.9450  213.2410  154.7470 C   0  0  0  0  0  3  0  0  0  0  0  0
  159.9330  211.2990  156.2770 C   0  0  0  0  0  0  0  0  0  0  0  0
  161.2980  207.0100  154.3010 C   0  0  0  0  0  2  0  0  0  0  0  0
  161.6170  208.8780  149.2860 C   0  0  0  0  0  2  0  0  0  0  0  0
  160.0290  209.9600  151.9160 C   0  0  0  0  0  2  0  0  0  0  0  0
  160.3390  211.8780  155.1350 C   0  0  0  0  0  0  0  0  0  0  0  0
  161.2450  209.0370  151.7850 C   0  0  2  0  0  3  0  0  0  0  0  0
  160.7070  209.1050  155.5320 C   0  0  0  0  0  0  0  0  0  0  0  0
  161.8000  207.3120  156.6060 O   0  0  0  0  0  1  0  0  0  0  0  0
  162.1020  209.4720  150.5950 C   0  0  0  0  0  2  0  0  0  0  0  0
  162.7430  207.3380  147.8870 O   0  0  0  0  0  0  0  0  0  0  0  0
  159.7830  207.3690  150.8960 F   0  0  0  0  0  0  0  0  0  0  0  0
  159.6970  213.4850  153.4520 C   0  0  0  0  0  3  0  0  0  0  0  0
  157.8200  212.5170  151.0440 O   0  0  0  0  0  0  0  0  0  0  0  0
  159.0720  212.6440  151.1270 C   0  0  0  0  0  0  0  0  0  0  0  0
  159.3380  214.0530  149.0630 C   0  0  0  0  0  3  0  0  0  0  0  0
  159.8320  213.0610  149.9260 C   0  0  0  0  0  0  0  0  0  0  0  0
  161.0810  212.4840  149.6530 C   0  0  0  0  0  3  0  0  0  0  0  0
  163.1380  212.2600  148.2540 C   0  0  0  0  0  1  0  0  0  0  0  0
  161.3130  213.8650  147.6780 C   0  0  0  0  0  3  0  0  0  0  0  0
  161.8180  212.8810  148.5340 C   0  0  0  0  0  0  0  0  0  0  0  0
  160.0740  214.4500  147.9440 C   0  0  0  0  0  3  0  0  0  0  0  0
  163.5160  205.2370  152.3870 C   0  0  0  0  0  1  0  0  0  0  0  0
  163.1150  206.5630  152.1840 O   0  0  0  0  0  0  0  0  0  0  0  0
  1 25  1  6  0  0  0
  1 12  1  0  0  0  0
  2 13  1  1  0  0  0
  2 22  1  0  0  0  0
  3  6  1  6  0  0  0
  3  8  1  0  0  0  0
  3 19  1  0  0  0  0
  4  1  1  0  0  0  0
  4 37  1  1  0  0  0
  7 17  1  0  0  0  0
  7 11  1  0  0  0  0
  8 21  1  0  0  0  0
  9  6  2  0  0  0  0
  9 26  1  0  0  0  0
 11  4  1  0  0  0  0
 12 16  1  0  0  0  0
 14 19  1  0  0  0  0
 15  5  1  0  0  0  0
 15 10  1  0  0  0  0
 16  2  1  0  0  0  0
 17 23  1  0  0  0  0
 18  6  1  0  0  0  0
 19 15  2  0  0  0  0
 20 23  1  6  0  0  0
 20  1  1  0  0  0  0
 20 18  1  0  0  0  0
 21  2  1  0  0  0  0
 21  5  2  0  0  0  0
 24  7  2  0  0  0  0
 26 14  2  0  0  0  0
 27 28  2  0  0  0  0
 28  9  1  0  0  0  0
 29 30  1  0  0  0  0
 30 28  1  0  0  0  0
 31 30  2  0  0  0  0
 32 34  1  0  0  0  0
 33 35  1  0  0  0  0
 33 34  2  0  0  0  0
 34 31  1  0  0  0  0
 35 29  2  0  0  0  0
 37 36  1  0  0  0  0
M  END
>  <MODEL>
4

>  <REMARK>
 VINA RESULT:      -2.4      2.665      5.406
  Name = 
  3 active torsions:
  status: ('A' for Active; 'I' for Inactive)
    1  A    between atoms: C_5  and  O_23
    2  A    between atoms: C_6  and  C_31
    3  A    between atoms: C_14  and  C_31
                            x       y       z     vdW  Elec       q    Type
                         _______ _______ _______ _____ _____    ______ ____

>  <TORSDO>
F 3

$$$$
