=
 OpenBabel11052422033D

 30 35  0  0  1  0  0  0  0  0999 V2000
  159.9970  211.4930  153.1280 C   0  0  2  0  0  3  0  0  0  0  0  0
  160.9080  207.7060  153.2840 C   0  0  0  0  0  2  0  0  0  0  0  0
  161.0680  211.4790  155.8680 C   0  0  0  0  0  2  0  0  0  0  0  0
  158.7130  212.1390  153.6740 C   0  0  2  0  0  0  0  0  0  0  0  0
  158.6430  211.3150  152.4230 C   0  0  1  0  0  3  0  0  0  0  0  0
  155.1210  213.8880  155.0350 C   0  0  0  0  0  2  0  0  0  0  0  0
  158.1190  213.4230  151.7650 C   0  0  1  0  0  3  0  0  0  0  0  0
  158.3280  212.2620  156.1630 N   0  0  0  0  0  0  0  0  0  0  0  0
  158.9120  211.4950  157.2550 C   0  0  0  0  0  2  0  0  0  0  0  0
  158.5930  212.1780  151.3090 O   0  0  0  0  0  0  0  0  0  0  0  0
  158.4100  213.5550  153.2470 C   0  0  1  0  0  3  0  0  0  0  0  0
  160.3780  207.2640  154.6370 C   0  0  0  0  0  2  0  0  0  0  0  0
  158.5030  213.7160  156.1760 C   0  0  0  0  0  2  0  0  0  0  0  0
  156.0780  214.1090  156.1130 N   0  0  0  0  0  2  0  0  0  0  0  0
  160.4710  209.1050  152.9470 C   0  0  0  0  0  3  0  0  0  0  0  0
  160.7920  210.1010  155.2600 C   0  0  1  0  0  3  0  0  0  0  0  0
  161.3370  207.6780  155.7510 C   0  0  0  0  0  2  0  0  0  0  0  0
  160.4320  210.1790  153.7680 C   0  0  0  0  0  0  0  0  0  0  0  0
  157.4650  210.4900  154.9070 O   0  0  0  0  0  0  0  0  0  0  0  0
  160.4440  211.6090  157.2610 C   0  0  0  0  0  2  0  0  0  0  0  0
  158.1060  211.5760  154.9270 C   0  0  0  0  0  0  0  0  0  0  0  0
  157.3500  214.4530  155.4830 C   0  0  2  0  0  3  0  0  0  0  0  0
  155.8980  213.5140  153.7950 C   0  0  0  0  0  2  0  0  0  0  0  0
  161.9080  209.0860  155.5770 C   0  0  2  0  0  3  0  0  0  0  0  0
  162.6140  209.4240  156.7340 O   0  0  0  0  0  1  0  0  0  0  0  0
  157.2170  214.2250  153.9730 C   0  0  2  0  0  3  0  0  0  0  0  0
  158.7510  214.4530  151.0660 O   0  0  0  0  0  0  0  0  0  0  0  0
  159.1060  213.8870  149.8410 C   0  0  0  0  0  2  0  0  0  0  0  0
  160.5660  214.1740  149.5590 C   0  0  0  0  0  2  0  0  0  0  0  0
  161.1360  213.0780  148.9130 O   0  0  0  0  0  1  0  0  0  0  0  0
  1  4  1  0  0  0  0
  1 18  1  1  0  0  0
  2 12  1  0  0  0  0
  3 20  1  0  0  0  0
  4 21  1  1  0  0  0
  5 10  1  6  0  0  0
  5  1  1  0  0  0  0
  5  4  1  0  0  0  0
  6 14  1  0  0  0  0
  7 27  1  6  0  0  0
  7 11  1  0  0  0  0
  8 13  1  0  0  0  0
  8  9  1  0  0  0  0
  9 20  1  0  0  0  0
 10  7  1  0  0  0  0
 11  4  1  0  0  0  0
 11 26  1  0  0  0  0
 12 17  1  0  0  0  0
 15  2  1  0  0  0  0
 15 18  2  0  0  0  0
 16 24  1  0  0  0  0
 16  3  1  0  0  0  0
 18 16  1  0  0  0  0
 19 21  2  0  0  0  0
 21  8  1  0  0  0  0
 22 14  1  0  0  0  0
 22 13  1  0  0  0  0
 23 26  1  0  0  0  0
 23  6  1  0  0  0  0
 24 17  1  0  0  0  0
 24 25  1  0  0  0  0
 26 22  1  0  0  0  0
 28 27  1  0  0  0  0
 29 28  1  0  0  0  0
 30 29  1  0  0  0  0
M  END
>  <MODEL>
1

>  <REMARK>
 VINA RESULT:      -5.0      0.000      0.000
  Name = 
  3 active torsions:
  status: ('A' for Active; 'I' for Inactive)
    1  A    between atoms: O_6  and  C_8
    2  A    between atoms: O_6  and  C_21
    3  A    between atoms: C_9  and  C_21
                            x       y       z     vdW  Elec       q    Type
                         _______ _______ _______ _____ _____    ______ ____

>  <TORSDO>
F 3

$$$$
=
 OpenBabel11052422033D

 30 35  0  0  1  0  0  0  0  0999 V2000
  161.2760  210.6700  152.6350 C   0  0  2  0  0  3  0  0  0  0  0  0
  161.2080  206.9070  153.6500 C   0  0  0  0  0  2  0  0  0  0  0  0
  161.1840  211.0710  155.5490 C   0  0  0  0  0  2  0  0  0  0  0  0
  160.0550  211.5960  152.5080 C   0  0  2  0  0  0  0  0  0  0  0  0
  160.2920  210.5500  151.4600 C   0  0  1  0  0  3  0  0  0  0  0  0
  156.6910  214.0960  152.0100 C   0  0  0  0  0  2  0  0  0  0  0  0
  160.5340  212.5280  150.3750 C   0  0  1  0  0  3  0  0  0  0  0  0
  158.7830  212.2900  154.5720 N   0  0  0  0  0  0  0  0  0  0  0  0
  158.7210  211.6900  155.8980 C   0  0  0  0  0  2  0  0  0  0  0  0
  160.8620  211.1590  150.3240 O   0  0  0  0  0  0  0  0  0  0  0  0
  160.2560  212.9220  151.8120 C   0  0  1  0  0  3  0  0  0  0  0  0
  160.1170  206.8390  154.7050 C   0  0  0  0  0  2  0  0  0  0  0  0
  159.2530  213.6730  154.4660 C   0  0  0  0  0  2  0  0  0  0  0  0
  157.1860  214.3950  153.3490 N   0  0  0  0  0  2  0  0  0  0  0  0
  161.2500  208.2540  152.9820 C   0  0  0  0  0  3  0  0  0  0  0  0
  160.8690  209.6520  155.0670 C   0  0  1  0  0  3  0  0  0  0  0  0
  160.6420  207.3310  156.0530 C   0  0  0  0  0  2  0  0  0  0  0  0
  161.1340  209.4700  153.5640 C   0  0  0  0  0  0  0  0  0  0  0  0
  158.1030  210.4410  153.3150 O   0  0  0  0  0  0  0  0  0  0  0  0
  160.1190  211.5780  156.5250 C   0  0  0  0  0  2  0  0  0  0  0  0
  158.9080  211.4010  153.4570 C   0  0  0  0  0  0  0  0  0  0  0  0
  158.6430  214.4110  153.2670 C   0  0  2  0  0  3  0  0  0  0  0  0
  157.7820  213.3640  151.2660 C   0  0  0  0  0  2  0  0  0  0  0  0
  161.5280  208.5730  155.9490 C   0  0  2  0  0  3  0  0  0  0  0  0
  161.7920  209.0380  157.2400 O   0  0  0  0  0  1  0  0  0  0  0  0
  159.0530  213.8940  151.8820 C   0  0  2  0  0  3  0  0  0  0  0  0
  161.5930  213.2860  149.8740 O   0  0  0  0  0  0  0  0  0  0  0  0
  161.5970  213.0290  148.5030 C   0  0  0  0  0  2  0  0  0  0  0  0
  162.9040  213.5100  147.9050 C   0  0  0  0  0  2  0  0  0  0  0  0
  162.6370  214.3400  146.8170 O   0  0  0  0  0  1  0  0  0  0  0  0
  1 18  1  1  0  0  0
  2 12  1  0  0  0  0
  3 20  1  0  0  0  0
  4  1  1  0  0  0  0
  4 21  1  1  0  0  0
  5 10  1  6  0  0  0
  5  4  1  0  0  0  0
  5  1  1  0  0  0  0
  6 14  1  0  0  0  0
  7 27  1  1  0  0  0
  7 11  1  0  0  0  0
  8  9  1  0  0  0  0
  9 20  1  0  0  0  0
 10  7  1  0  0  0  0
 11 26  1  0  0  0  0
 11  4  1  0  0  0  0
 12 17  1  0  0  0  0
 13  8  1  0  0  0  0
 15 18  2  0  0  0  0
 15  2  1  0  0  0  0
 16  3  1  0  0  0  0
 16 24  1  0  0  0  0
 18 16  1  0  0  0  0
 19 21  2  0  0  0  0
 21  8  1  0  0  0  0
 22 14  1  0  0  0  0
 22 13  1  0  0  0  0
 23 26  1  0  0  0  0
 23  6  1  0  0  0  0
 24 17  1  0  0  0  0
 24 25  1  0  0  0  0
 26 22  1  0  0  0  0
 28 27  1  0  0  0  0
 29 28  1  0  0  0  0
 30 29  1  0  0  0  0
M  END
>  <MODEL>
2

>  <REMARK>
 VINA RESULT:      -2.8      1.645      2.115
  Name = 
  3 active torsions:
  status: ('A' for Active; 'I' for Inactive)
    1  A    between atoms: O_6  and  C_8
    2  A    between atoms: O_6  and  C_21
    3  A    between atoms: C_9  and  C_21
                            x       y       z     vdW  Elec       q    Type
                         _______ _______ _______ _____ _____    ______ ____

>  <TORSDO>
F 3

$$$$
=
 OpenBabel11052422033D

 30 35  0  0  1  0  0  0  0  0999 V2000
  160.3870  209.7430  151.7110 C   0  0  2  0  0  3  0  0  0  0  0  0
  161.3030  212.9130  149.6350 C   0  0  0  0  0  2  0  0  0  0  0  0
  158.1940  211.4590  152.6620 C   0  0  0  0  0  2  0  0  0  0  0  0
  160.7660  209.4800  153.1780 C   0  0  2  0  0  0  0  0  0  0  0  0
  161.8250  209.3840  152.1200 C   0  0  1  0  0  3  0  0  0  0  0  0
  161.9370  208.6920  157.1550 C   0  0  0  0  0  2  0  0  0  0  0  0
  161.6210  207.2770  152.9370 C   0  0  1  0  0  3  0  0  0  0  0  0
  159.7120  210.8520  155.0140 N   0  0  0  0  0  0  0  0  0  0  0  0
  159.0580  212.1530  154.9730 C   0  0  0  0  0  2  0  0  0  0  0  0
  162.0550  208.0250  151.8260 O   0  0  0  0  0  0  0  0  0  0  0  0
  160.5850  208.0760  153.7030 C   0  0  1  0  0  3  0  0  0  0  0  0
  161.1900  214.0460  150.6410 C   0  0  0  0  0  2  0  0  0  0  0  0
  158.9370  209.7090  155.5010 C   0  0  0  0  0  2  0  0  0  0  0  0
  160.5810  209.2170  157.2610 N   0  0  0  0  0  2  0  0  0  0  0  0
  161.1830  211.5690  150.2990 C   0  0  0  0  0  3  0  0  0  0  0  0
  159.3160  212.1780  151.9090 C   0  0  1  0  0  3  0  0  0  0  0  0
  159.7280  214.4390  150.8460 C   0  0  0  0  0  2  0  0  0  0  0  0
  160.3150  211.2010  151.2700 C   0  0  0  0  0  0  0  0  0  0  0  0
  161.7740  211.4640  154.0990 O   0  0  0  0  0  0  0  0  0  0  0  0
  157.8780  212.1530  153.9900 C   0  0  0  0  0  2  0  0  0  0  0  0
  160.8140  210.6460  154.1240 C   0  0  0  0  0  0  0  0  0  0  0  0
  159.8180  208.6380  156.1580 C   0  0  2  0  0  3  0  0  0  0  0  0
  162.1690  208.2920  155.7180 C   0  0  0  0  0  2  0  0  0  0  0  0
  158.7780  213.2430  150.9320 C   0  0  2  0  0  3  0  0  0  0  0  0
  157.5140  213.7080  151.3040 O   0  0  0  0  0  1  0  0  0  0  0  0
  160.7940  207.9080  155.2280 C   0  0  2  0  0  3  0  0  0  0  0  0
  161.0630  206.0720  152.5060 O   0  0  0  0  0  0  0  0  0  0  0  0
  161.2790  206.0530  151.1280 C   0  0  0  0  0  2  0  0  0  0  0  0
  161.2060  204.6250  150.6270 C   0  0  0  0  0  2  0  0  0  0  0  0
  161.5370  203.7540  151.6630 O   0  0  0  0  0  1  0  0  0  0  0  0
  1 18  1  1  0  0  0
  1  5  1  0  0  0  0
  1  4  1  0  0  0  0
  2 15  1  0  0  0  0
  2 12  1  0  0  0  0
  3 20  1  0  0  0  0
  4 11  1  0  0  0  0
  4 21  1  1  0  0  0
  5 10  1  6  0  0  0
  5  4  1  0  0  0  0
  6 14  1  0  0  0  0
  7 27  1  6  0  0  0
  7 11  1  0  0  0  0
  8 13  1  0  0  0  0
  9  8  1  0  0  0  0
 10  7  1  0  0  0  0
 11 26  1  0  0  0  0
 12 17  1  0  0  0  0
 13 22  1  0  0  0  0
 15 18  2  0  0  0  0
 16  3  1  0  0  0  0
 17 24  1  0  0  0  0
 18 16  1  0  0  0  0
 19 21  2  0  0  0  0
 20  9  1  0  0  0  0
 21  8  1  0  0  0  0
 22 14  1  0  0  0  0
 23  6  1  0  0  0  0
 24 25  1  0  0  0  0
 24 16  1  0  0  0  0
 26 23  1  0  0  0  0
 26 22  1  0  0  0  0
 28 27  1  0  0  0  0
 29 28  1  0  0  0  0
 29 30  1  0  0  0  0
M  END
>  <MODEL>
3

>  <REMARK>
 VINA RESULT:      -2.4      2.678      6.317
  Name = 
  3 active torsions:
  status: ('A' for Active; 'I' for Inactive)
    1  A    between atoms: O_6  and  C_8
    2  A    between atoms: O_6  and  C_21
    3  A    between atoms: C_9  and  C_21
                            x       y       z     vdW  Elec       q    Type
                         _______ _______ _______ _____ _____    ______ ____

>  <TORSDO>
F 3

$$$$
