=
 OpenBabel11062409543D

 43 48  0  0  1  0  0  0  0  0999 V2000
  161.2970  204.1770  147.6860 C   0  0  0  0  0  0  0  0  0  0  0  0
  161.5180  208.0710  150.9070 C   0  0  0  0  0  0  0  0  0  0  0  0
  162.3790  210.3420  149.3870 C   0  0  2  0  0  3  0  0  0  0  0  0
  161.3560  205.5500  149.6800 C   0  0  0  0  0  0  0  0  0  0  0  0
  161.4020  205.3210  146.8880 C   0  0  0  0  0  3  0  0  0  0  0  0
  161.2160  202.9250  147.0930 O   0  0  0  0  0  1  0  0  0  0  0  0
  161.4650  206.7140  148.8800 C   0  0  0  0  0  0  0  0  0  0  0  0
  161.2730  204.2920  149.0790 C   0  0  0  0  0  3  0  0  0  0  0  0
  161.4860  206.5830  147.4810 C   0  0  0  0  0  3  0  0  0  0  0  0
  161.5690  209.2460  148.6830 C   0  0  0  0  0  2  0  0  0  0  0  0
  161.5500  207.9770  149.4990 C   0  0  0  0  0  0  0  0  0  0  0  0
  161.4040  206.9100  151.6810 C   0  0  0  0  0  3  0  0  0  0  0  0
  161.6070  209.3990  151.5600 C   0  0  0  0  0  0  0  0  0  0  0  0
  161.9540  210.4660  150.8280 C   0  0  0  0  0  3  0  0  0  0  0  0
  161.3230  205.6560  151.0710 C   0  0  0  0  0  3  0  0  0  0  0  0
  162.2320  211.6770  148.6550 C   0  0  1  0  0  3  0  0  0  0  0  0
  163.5910  212.2130  148.2300 C   0  0  0  0  0  1  0  0  0  0  0  0
  161.3910  211.5180  147.4750 N   0  0  0  0  0  2  0  0  0  0  0  0
  160.5010  212.5420  147.0280 C   0  0  0  0  0  0  0  0  0  0  0  0
  160.3990  213.6240  147.6670 O   0  0  0  0  0  0  0  0  0  0  0  0
  159.6730  212.3120  145.8070 C   0  0  0  0  0  2  0  0  0  0  0  0
  160.0160  213.2700  144.7640 N   0  0  0  0  0  0  0  0  0  0  0  0
  158.9610  213.5550  142.6150 C   0  0  0  0  0  2  0  0  0  0  0  0
  159.0560  214.3660  144.8590 C   0  0  0  0  0  2  0  0  0  0  0  0
  159.7930  212.6260  143.4680 C   0  0  1  0  0  3  0  0  0  0  0  0
  158.1880  214.3630  143.6170 C   0  0  0  0  0  2  0  0  0  0  0  0
  161.1290  211.6890  141.5110 N   0  0  0  0  0  0  0  0  0  0  0  0
  161.1010  212.3220  142.7990 C   0  0  0  0  0  0  0  0  0  0  0  0
  162.0680  210.3530  139.7550 C   0  0  0  0  0  2  0  0  0  0  0  0
  160.3690  210.6520  139.1840 S   0  0  0  0  0  0  0  0  0  0  0  0
  162.3810  211.3370  140.8630 C   0  0  1  0  0  3  0  0  0  0  0  0
  159.9100  211.3260  140.8060 C   0  0  0  0  0  2  0  0  0  0  0  0
  162.9660  212.4810  140.3200 O   0  0  0  0  0  1  0  0  0  0  0  0
  162.1800  212.6290  143.3770 O   0  0  0  0  0  0  0  0  0  0  0  0
  161.2630  209.5190  152.9510 N   0  0  0  0  0  2  0  0  0  0  0  0
  158.2210  211.6840  153.4070 C   0  0  0  0  0  3  0  0  0  0  0  0
  158.0280  211.5710  154.7860 C   0  0  0  0  0  0  0  0  0  0  0  0
  159.9680  210.1180  154.9260 C   0  0  0  0  0  3  0  0  0  0  0  0
  159.2810  211.0120  152.7890 C   0  0  0  0  0  3  0  0  0  0  0  0
  160.1590  210.2190  153.5440 C   0  0  0  0  0  0  0  0  0  0  0  0
  158.9080  210.7860  155.5450 C   0  0  0  0  0  3  0  0  0  0  0  0
  155.8540  211.5390  155.9530 N   0  0  0  0  0  1  0  0  0  0  0  0
  156.9290  212.2470  155.4000 N   0  0  0  0  0  2  0  0  0  0  0  0
  1  8  1  0  0  0  0
  2 13  1  0  0  0  0
  2 12  1  0  0  0  0
  3 16  1  6  0  0  0
  3 14  1  0  0  0  0
  4 15  1  0  0  0  0
  5  9  1  0  0  0  0
  5  1  2  0  0  0  0
  6  1  1  0  0  0  0
  7 11  1  0  0  0  0
  7  4  1  0  0  0  0
  8  4  2  0  0  0  0
  9  7  2  0  0  0  0
 10  3  1  0  0  0  0
 10 11  1  0  0  0  0
 11  2  2  0  0  0  0
 13 35  1  0  0  0  0
 14 13  2  0  0  0  0
 15 12  2  0  0  0  0
 16 17  1  6  0  0  0
 18 16  1  0  0  0  0
 19 18  1  0  0  0  0
 19 20  2  0  0  0  0
 21 19  1  0  0  0  0
 22 24  1  0  0  0  0
 22 21  1  0  0  0  0
 23 25  1  0  0  0  0
 23 26  1  0  0  0  0
 25 28  1  6  0  0  0
 25 22  1  0  0  0  0
 26 24  1  0  0  0  0
 27 28  1  0  0  0  0
 28 34  2  0  0  0  0
 29 31  1  0  0  0  0
 30 29  1  0  0  0  0
 30 32  1  0  0  0  0
 31 33  1  6  0  0  0
 31 27  1  0  0  0  0
 32 27  1  0  0  0  0
 35 40  1  0  0  0  0
 36 37  1  0  0  0  0
 37 43  1  0  0  0  0
 37 41  2  0  0  0  0
 38 41  1  0  0  0  0
 39 36  2  0  0  0  0
 39 40  1  0  0  0  0
 40 38  2  0  0  0  0
 43 42  1  0  0  0  0
M  END
>  <MODEL>
1

>  <REMARK>
 VINA RESULT:      -9.1      0.000      0.000
  Name = 
  8 active torsions:
  status: ('A' for Active; 'I' for Inactive)
    1  A    between atoms: N_1  and  C_34
    2  A    between atoms: N_1  and  C_35
    3  A    between atoms: C_2  and  N_6
    4  A    between atoms: C_2  and  C_13
    5  A    between atoms: C_3  and  N_4
    6  A    between atoms: C_3  and  C_12
    7  A    between atoms: C_14  and  C_22
    8  A    between atoms: C_19  and  N_37
                            x       y       z     vdW  Elec       q    Type
                         _______ _______ _______ _____ _____    ______ ____

>  <TORSDO>
F 8

$$$$
=
 OpenBabel11062409543D

 43 48  0  0  1  0  0  0  0  0999 V2000
  160.6080  208.3140  155.0360 C   0  0  0  0  0  0  0  0  0  0  0  0
  161.9710  207.9730  150.1770 C   0  0  0  0  0  0  0  0  0  0  0  0
  161.5820  210.5710  149.0340 C   0  0  2  0  0  3  0  0  0  0  0  0
  161.2300  207.4960  152.8430 C   0  0  0  0  0  0  0  0  0  0  0  0
  160.7180  209.6330  154.5820 C   0  0  0  0  0  3  0  0  0  0  0  0
  160.2420  208.0640  156.3510 O   0  0  0  0  0  1  0  0  0  0  0  0
  161.3430  208.8280  152.3740 C   0  0  0  0  0  0  0  0  0  0  0  0
  160.8650  207.2480  154.1680 C   0  0  0  0  0  3  0  0  0  0  0  0
  161.0840  209.8890  153.2580 C   0  0  0  0  0  3  0  0  0  0  0  0
  161.9370  210.4640  150.5230 C   0  0  0  0  0  2  0  0  0  0  0  0
  161.7110  209.0640  151.0340 C   0  0  0  0  0  0  0  0  0  0  0  0
  161.8610  206.6630  150.6600 C   0  0  0  0  0  3  0  0  0  0  0  0
  162.3590  208.2190  148.7680 C   0  0  0  0  0  0  0  0  0  0  0  0
  162.2290  209.4510  148.2580 C   0  0  0  0  0  3  0  0  0  0  0  0
  161.4920  206.4260  151.9860 C   0  0  0  0  0  3  0  0  0  0  0  0
  161.9960  211.9340  148.4760 C   0  0  1  0  0  3  0  0  0  0  0  0
  163.5090  212.0230  148.3360 C   0  0  0  0  0  1  0  0  0  0  0  0
  161.3840  212.1540  147.1720 N   0  0  0  0  0  2  0  0  0  0  0  0
  161.4840  213.4010  146.4820 C   0  0  0  0  0  0  0  0  0  0  0  0
  162.0970  214.3730  147.0040 O   0  0  0  0  0  0  0  0  0  0  0  0
  160.8350  213.5550  145.1460 C   0  0  0  0  0  2  0  0  0  0  0  0
  161.6530  212.9480  144.1040 N   0  0  0  0  0  0  0  0  0  0  0  0
  162.4960  213.9840  142.0970 C   0  0  0  0  0  2  0  0  0  0  0  0
  163.0310  213.3710  144.3420 C   0  0  0  0  0  2  0  0  0  0  0  0
  161.2510  213.5260  142.8200 C   0  0  1  0  0  3  0  0  0  0  0  0
  163.4670  214.2720  143.2060 C   0  0  0  0  0  2  0  0  0  0  0  0
  159.6610  212.9420  140.9170 N   0  0  0  0  0  0  0  0  0  0  0  0
  160.5030  212.5180  141.9990 C   0  0  0  0  0  0  0  0  0  0  0  0
  157.8330  212.7690  139.3750 C   0  0  0  0  0  2  0  0  0  0  0  0
  158.4530  214.4530  139.0930 S   0  0  0  0  0  0  0  0  0  0  0  0
  158.8850  211.9920  140.1380 C   0  0  1  0  0  3  0  0  0  0  0  0
  159.5050  214.3450  140.5680 C   0  0  0  0  0  2  0  0  0  0  0  0
  159.7210  211.3300  139.2370 O   0  0  0  0  0  1  0  0  0  0  0  0
  160.6190  211.2900  142.2670 O   0  0  0  0  0  0  0  0  0  0  0  0
  162.9200  207.1410  147.9980 N   0  0  0  0  0  2  0  0  0  0  0  0
  162.1410  204.1580  145.8420 C   0  0  0  0  0  3  0  0  0  0  0  0
  160.8870  204.5210  145.3430 C   0  0  0  0  0  0  0  0  0  0  0  0
  161.0020  206.5970  146.5960 C   0  0  0  0  0  3  0  0  0  0  0  0
  162.8210  205.0110  146.7180 C   0  0  0  0  0  3  0  0  0  0  0  0
  162.2530  206.2350  147.1070 C   0  0  0  0  0  0  0  0  0  0  0  0
  160.3200  205.7460  145.7220 C   0  0  0  0  0  3  0  0  0  0  0  0
  159.9290  202.3050  144.8310 N   0  0  0  0  0  1  0  0  0  0  0  0
  160.1970  203.6310  144.4650 N   0  0  0  0  0  2  0  0  0  0  0  0
  1  6  1  0  0  0  0
  2 12  2  0  0  0  0
  2 11  1  0  0  0  0
  3 16  1  6  0  0  0
  3 10  1  0  0  0  0
  4  8  1  0  0  0  0
  5  1  1  0  0  0  0
  7  4  1  0  0  0  0
  7  9  1  0  0  0  0
  8  1  2  0  0  0  0
  9  5  2  0  0  0  0
 10 11  1  0  0  0  0
 11  7  2  0  0  0  0
 12 15  1  0  0  0  0
 13  2  1  0  0  0  0
 14 13  2  0  0  0  0
 14  3  1  0  0  0  0
 15  4  2  0  0  0  0
 16 17  1  6  0  0  0
 18 16  1  0  0  0  0
 19 20  2  0  0  0  0
 19 18  1  0  0  0  0
 21 19  1  0  0  0  0
 22 24  1  0  0  0  0
 22 21  1  0  0  0  0
 23 25  1  0  0  0  0
 23 26  1  0  0  0  0
 25 28  1  6  0  0  0
 25 22  1  0  0  0  0
 26 24  1  0  0  0  0
 27 28  1  0  0  0  0
 28 34  2  0  0  0  0
 29 31  1  0  0  0  0
 30 29  1  0  0  0  0
 30 32  1  0  0  0  0
 31 33  1  6  0  0  0
 31 27  1  0  0  0  0
 32 27  1  0  0  0  0
 35 13  1  0  0  0  0
 36 39  1  0  0  0  0
 37 41  1  0  0  0  0
 37 36  2  0  0  0  0
 38 40  1  0  0  0  0
 39 40  2  0  0  0  0
 40 35  1  0  0  0  0
 41 38  2  0  0  0  0
 43 42  1  0  0  0  0
 43 37  1  0  0  0  0
M  END
>  <MODEL>
2

>  <REMARK>
 VINA RESULT:      -8.6      3.326      6.211
  Name = 
  8 active torsions:
  status: ('A' for Active; 'I' for Inactive)
    1  A    between atoms: N_1  and  C_34
    2  A    between atoms: N_1  and  C_35
    3  A    between atoms: C_2  and  N_6
    4  A    between atoms: C_2  and  C_13
    5  A    between atoms: C_3  and  N_4
    6  A    between atoms: C_3  and  C_12
    7  A    between atoms: C_14  and  C_22
    8  A    between atoms: C_19  and  N_37
                            x       y       z     vdW  Elec       q    Type
                         _______ _______ _______ _____ _____    ______ ____

>  <TORSDO>
F 8

$$$$
=
 OpenBabel11062409543D

 43 48  0  0  1  0  0  0  0  0999 V2000
  161.0460  202.5710  147.2740 C   0  0  0  0  0  0  0  0  0  0  0  0
  161.7690  207.3240  148.8480 C   0  0  0  0  0  0  0  0  0  0  0  0
  160.7300  207.4690  151.5140 C   0  0  2  0  0  3  0  0  0  0  0  0
  161.5080  204.9460  147.3760 C   0  0  0  0  0  0  0  0  0  0  0  0
  160.8350  202.5470  148.6570 C   0  0  0  0  0  3  0  0  0  0  0  0
  160.9200  201.4030  146.5340 O   0  0  0  0  0  1  0  0  0  0  0  0
  161.2950  204.9310  148.7770 C   0  0  0  0  0  0  0  0  0  0  0  0
  161.3830  203.7680  146.6360 C   0  0  0  0  0  3  0  0  0  0  0  0
  160.9590  203.7200  149.4040 C   0  0  0  0  0  3  0  0  0  0  0  0
  161.3000  206.1350  151.0140 C   0  0  0  0  0  2  0  0  0  0  0  0
  161.4230  206.1270  149.5110 C   0  0  0  0  0  0  0  0  0  0  0  0
  161.9820  207.3170  147.4640 C   0  0  0  0  0  3  0  0  0  0  0  0
  161.9040  208.5820  149.6190 C   0  0  0  0  0  0  0  0  0  0  0  0
  161.4690  208.6240  150.8860 C   0  0  0  0  0  3  0  0  0  0  0  0
  161.8520  206.1350  146.7320 C   0  0  0  0  0  3  0  0  0  0  0  0
  160.7920  207.5460  153.0410 C   0  0  1  0  0  3  0  0  0  0  0  0
  161.6830  206.4470  153.6010 C   0  0  0  0  0  1  0  0  0  0  0  0
  161.3090  208.8410  153.4620 N   0  0  0  0  0  2  0  0  0  0  0  0
  160.9390  209.4450  154.7030 C   0  0  0  0  0  0  0  0  0  0  0  0
  160.1190  208.8730  155.4720 O   0  0  0  0  0  0  0  0  0  0  0  0
  161.5120  210.7730  155.0720 C   0  0  0  0  0  2  0  0  0  0  0  0
  160.5220  211.8270  154.9000 N   0  0  0  0  0  0  0  0  0  0  0  0
  158.1270  211.5940  154.7450 C   0  0  0  0  0  2  0  0  0  0  0  0
  159.9430  212.0890  156.2150 C   0  0  0  0  0  2  0  0  0  0  0  0
  159.4430  211.3010  154.0620 C   0  0  1  0  0  3  0  0  0  0  0  0
  158.4890  211.6640  156.2010 C   0  0  0  0  0  2  0  0  0  0  0  0
  158.4550  212.8390  152.2870 N   0  0  0  0  0  0  0  0  0  0  0  0
  159.4820  211.9260  152.6990 C   0  0  0  0  0  0  0  0  0  0  0  0
  157.0580  213.9910  150.7140 C   0  0  0  0  0  2  0  0  0  0  0  0
  156.3370  214.4470  152.3190 S   0  0  0  0  0  0  0  0  0  0  0  0
  158.4400  213.4190  150.9550 C   0  0  1  0  0  3  0  0  0  0  0  0
  157.3510  213.2000  153.1630 C   0  0  0  0  0  2  0  0  0  0  0  0
  159.3870  214.4400  150.8770 O   0  0  0  0  0  1  0  0  0  0  0  0
  160.4280  211.6420  151.9130 O   0  0  0  0  0  0  0  0  0  0  0  0
  162.5520  209.7110  149.0080 N   0  0  0  0  0  2  0  0  0  0  0  0
  161.7360  213.3480  148.5050 C   0  0  0  0  0  3  0  0  0  0  0  0
  160.7500  213.2570  147.5190 C   0  0  0  0  0  0  0  0  0  0  0  0
  160.9690  210.8400  147.5400 C   0  0  0  0  0  3  0  0  0  0  0  0
  162.3380  212.1880  149.0030 C   0  0  0  0  0  3  0  0  0  0  0  0
  161.9640  210.9250  148.5190 C   0  0  0  0  0  0  0  0  0  0  0  0
  160.3660  211.9970  147.0380 C   0  0  0  0  0  3  0  0  0  0  0  0
  158.8610  214.4530  146.4730 N   0  0  0  0  0  1  0  0  0  0  0  0
  160.1570  214.4520  147.0050 N   0  0  0  0  0  2  0  0  0  0  0  0
  1  5  1  0  0  0  0
  2 11  1  0  0  0  0
  2 13  1  0  0  0  0
  3 16  1  1  0  0  0
  4  7  1  0  0  0  0
  5  9  2  0  0  0  0
  6  1  1  0  0  0  0
  7  9  1  0  0  0  0
  7 11  2  0  0  0  0
  8  1  2  0  0  0  0
  8  4  1  0  0  0  0
 10  3  1  0  0  0  0
 11 10  1  0  0  0  0
 12  2  2  0  0  0  0
 13 14  2  0  0  0  0
 14  3  1  0  0  0  0
 15  4  2  0  0  0  0
 15 12  1  0  0  0  0
 16 18  1  0  0  0  0
 16 17  1  6  0  0  0
 18 19  1  0  0  0  0
 19 21  1  0  0  0  0
 19 20  2  0  0  0  0
 22 21  1  0  0  0  0
 22 24  1  0  0  0  0
 23 26  1  0  0  0  0
 25 28  1  6  0  0  0
 25 23  1  0  0  0  0
 25 22  1  0  0  0  0
 26 24  1  0  0  0  0
 27 28  1  0  0  0  0
 27 32  1  0  0  0  0
 29 31  1  0  0  0  0
 29 30  1  0  0  0  0
 30 32  1  0  0  0  0
 31 33  1  1  0  0  0
 31 27  1  0  0  0  0
 34 28  2  0  0  0  0
 35 13  1  0  0  0  0
 36 39  1  0  0  0  0
 37 36  2  0  0  0  0
 38 40  1  0  0  0  0
 40 39  2  0  0  0  0
 40 35  1  0  0  0  0
 41 37  1  0  0  0  0
 41 38  2  0  0  0  0
 42 43  1  0  0  0  0
 43 37  1  0  0  0  0
M  END
>  <MODEL>
3

>  <REMARK>
 VINA RESULT:      -8.4      4.186      8.021
  Name = 
  8 active torsions:
  status: ('A' for Active; 'I' for Inactive)
    1  A    between atoms: N_1  and  C_34
    2  A    between atoms: N_1  and  C_35
    3  A    between atoms: C_2  and  N_6
    4  A    between atoms: C_2  and  C_13
    5  A    between atoms: C_3  and  N_4
    6  A    between atoms: C_3  and  C_12
    7  A    between atoms: C_14  and  C_22
    8  A    between atoms: C_19  and  N_37
                            x       y       z     vdW  Elec       q    Type
                         _______ _______ _______ _____ _____    ______ ____

>  <TORSDO>
F 8

$$$$
=
 OpenBabel11062409543D

 43 48  0  0  1  0  0  0  0  0999 V2000
  160.5820  207.3360  155.0620 C   0  0  0  0  0  0  0  0  0  0  0  0
  161.9140  207.4060  150.1820 C   0  0  0  0  0  0  0  0  0  0  0  0
  161.5690  210.1030  149.2790 C   0  0  2  0  0  3  0  0  0  0  0  0
  161.1780  206.7060  152.8000 C   0  0  0  0  0  0  0  0  0  0  0  0
  160.7160  208.6880  154.7260 C   0  0  0  0  0  3  0  0  0  0  0  0
  160.2190  206.9760  156.3510 O   0  0  0  0  0  1  0  0  0  0  0  0
  161.3140  208.0730  152.4510 C   0  0  0  0  0  0  0  0  0  0  0  0
  160.8140  206.3480  154.1000 C   0  0  0  0  0  3  0  0  0  0  0  0
  161.0800  209.0540  153.4280 C   0  0  0  0  0  3  0  0  0  0  0  0
  161.9290  209.8570  150.7500 C   0  0  0  0  0  2  0  0  0  0  0  0
  161.6790  208.4200  151.1350 C   0  0  0  0  0  0  0  0  0  0  0  0
  161.7810  206.0610  150.5470 C   0  0  0  0  0  3  0  0  0  0  0  0
  162.2990  207.7700  148.7980 C   0  0  0  0  0  0  0  0  0  0  0  0
  162.1900  209.0460  148.4010 C   0  0  0  0  0  3  0  0  0  0  0  0
  161.4150  205.7130  151.8490 C   0  0  0  0  0  3  0  0  0  0  0  0
  162.0060  211.5030  148.8420 C   0  0  1  0  0  3  0  0  0  0  0  0
  163.5200  211.6420  148.9140 C   0  0  0  0  0  1  0  0  0  0  0  0
  161.5670  211.7670  147.4780 N   0  0  0  0  0  2  0  0  0  0  0  0
  161.7270  213.0450  146.8580 C   0  0  0  0  0  0  0  0  0  0  0  0
  162.2420  214.0040  147.4960 O   0  0  0  0  0  0  0  0  0  0  0  0
  161.2580  213.2430  145.4550 C   0  0  0  0  0  2  0  0  0  0  0  0
  159.9340  213.8510  145.4350 N   0  0  0  0  0  0  0  0  0  0  0  0
  157.7990  212.7430  145.5920 C   0  0  0  0  0  2  0  0  0  0  0  0
  159.4750  213.9180  146.8200 C   0  0  0  0  0  2  0  0  0  0  0  0
  159.0280  212.9380  144.7360 C   0  0  1  0  0  3  0  0  0  0  0  0
  158.2940  212.9850  146.9880 C   0  0  0  0  0  2  0  0  0  0  0  0
  159.2170  212.9330  142.1950 N   0  0  0  0  0  0  0  0  0  0  0  0
  158.6560  213.4910  143.3920 C   0  0  0  0  0  0  0  0  0  0  0  0
  159.9450  212.9510  139.9100 C   0  0  0  0  0  2  0  0  0  0  0  0
  160.5400  211.3470  140.5210 S   0  0  0  0  0  0  0  0  0  0  0  0
  158.9140  213.4820  140.8840 C   0  0  1  0  0  3  0  0  0  0  0  0
  160.1510  211.8190  142.2300 C   0  0  0  0  0  2  0  0  0  0  0  0
  157.6410  213.0710  140.4860 O   0  0  0  0  0  1  0  0  0  0  0  0
  157.8420  214.4530  143.3210 O   0  0  0  0  0  0  0  0  0  0  0  0
  162.8350  206.7560  147.9310 N   0  0  0  0  0  2  0  0  0  0  0  0
  161.4970  203.5560  146.4750 C   0  0  0  0  0  3  0  0  0  0  0  0
  160.7280  204.0540  145.4200 C   0  0  0  0  0  0  0  0  0  0  0  0
  161.3660  206.3130  146.0380 C   0  0  0  0  0  3  0  0  0  0  0  0
  162.1940  204.4350  147.3110 C   0  0  0  0  0  3  0  0  0  0  0  0
  162.1290  205.8210  147.1010 C   0  0  0  0  0  0  0  0  0  0  0  0
  160.6660  205.4380  145.2030 C   0  0  0  0  0  3  0  0  0  0  0  0
  159.9560  201.7750  144.8730 N   0  0  0  0  0  1  0  0  0  0  0  0
  160.0040  203.1460  144.5880 N   0  0  0  0  0  2  0  0  0  0  0  0
  1  6  1  0  0  0  0
  2 12  2  0  0  0  0
  2 11  1  0  0  0  0
  3 16  1  6  0  0  0
  3 10  1  0  0  0  0
  4  8  1  0  0  0  0
  5  1  1  0  0  0  0
  7  4  1  0  0  0  0
  7  9  1  0  0  0  0
  8  1  2  0  0  0  0
  9  5  2  0  0  0  0
 10 11  1  0  0  0  0
 11  7  2  0  0  0  0
 12 15  1  0  0  0  0
 13  2  1  0  0  0  0
 14 13  2  0  0  0  0
 14  3  1  0  0  0  0
 15  4  2  0  0  0  0
 16 17  1  6  0  0  0
 18 16  1  0  0  0  0
 19 18  1  0  0  0  0
 19 20  2  0  0  0  0
 21 19  1  0  0  0  0
 22 21  1  0  0  0  0
 22 24  1  0  0  0  0
 23 26  1  0  0  0  0
 24 26  1  0  0  0  0
 25 28  1  6  0  0  0
 25 22  1  0  0  0  0
 25 23  1  0  0  0  0
 27 32  1  0  0  0  0
 27 28  1  0  0  0  0
 29 30  1  0  0  0  0
 29 31  1  0  0  0  0
 30 32  1  0  0  0  0
 31 33  1  6  0  0  0
 31 27  1  0  0  0  0
 34 28  2  0  0  0  0
 35 13  1  0  0  0  0
 36 39  1  0  0  0  0
 37 36  2  0  0  0  0
 38 40  1  0  0  0  0
 40 39  2  0  0  0  0
 40 35  1  0  0  0  0
 41 37  1  0  0  0  0
 41 38  2  0  0  0  0
 43 42  1  0  0  0  0
 43 37  1  0  0  0  0
M  END
>  <MODEL>
4

>  <REMARK>
 VINA RESULT:      -8.2      3.365      6.183
  Name = 
  8 active torsions:
  status: ('A' for Active; 'I' for Inactive)
    1  A    between atoms: N_1  and  C_34
    2  A    between atoms: N_1  and  C_35
    3  A    between atoms: C_2  and  N_6
    4  A    between atoms: C_2  and  C_13
    5  A    between atoms: C_3  and  N_4
    6  A    between atoms: C_3  and  C_12
    7  A    between atoms: C_14  and  C_22
    8  A    between atoms: C_19  and  N_37
                            x       y       z     vdW  Elec       q    Type
                         _______ _______ _______ _____ _____    ______ ____

>  <TORSDO>
F 8

$$$$
=
 OpenBabel11062409543D

 43 48  0  0  1  0  0  0  0  0999 V2000
  160.4770  207.3540  155.0930 C   0  0  0  0  0  0  0  0  0  0  0  0
  161.9470  207.4620  150.2540 C   0  0  0  0  0  0  0  0  0  0  0  0
  161.6190  210.1640  149.3600 C   0  0  2  0  0  3  0  0  0  0  0  0
  161.1380  206.7410  152.8460 C   0  0  0  0  0  0  0  0  0  0  0  0
  160.6150  208.7080  154.7710 C   0  0  0  0  0  3  0  0  0  0  0  0
  160.0780  206.9840  156.3700 O   0  0  0  0  0  1  0  0  0  0  0  0
  161.2800  208.1110  152.5090 C   0  0  0  0  0  0  0  0  0  0  0  0
  160.7390  206.3730  154.1320 C   0  0  0  0  0  3  0  0  0  0  0  0
  161.0150  209.0850  153.4860 C   0  0  0  0  0  3  0  0  0  0  0  0
  161.9380  209.9080  150.8390 C   0  0  0  0  0  2  0  0  0  0  0  0
  161.6820  208.4690  151.2080 C   0  0  0  0  0  0  0  0  0  0  0  0
  161.8070  206.1140  150.6060 C   0  0  0  0  0  3  0  0  0  0  0  0
  162.3700  207.8370  148.8840 C   0  0  0  0  0  0  0  0  0  0  0  0
  162.2680  209.1140  148.4930 C   0  0  0  0  0  3  0  0  0  0  0  0
  161.4050  205.7560  151.8950 C   0  0  0  0  0  3  0  0  0  0  0  0
  162.0640  211.5680  148.9450 C   0  0  1  0  0  3  0  0  0  0  0  0
  162.2780  211.6440  147.4410 C   0  0  0  0  0  1  0  0  0  0  0  0
  161.0630  212.5520  149.3350 N   0  0  0  0  0  2  0  0  0  0  0  0
  160.0440  213.0010  148.4400 C   0  0  0  0  0  0  0  0  0  0  0  0
  159.9970  212.5670  147.2560 O   0  0  0  0  0  0  0  0  0  0  0  0
  159.0470  214.0080  148.9090 C   0  0  0  0  0  2  0  0  0  0  0  0
  157.9790  213.3640  149.6610 N   0  0  0  0  0  0  0  0  0  0  0  0
  156.2350  214.4180  150.9490 C   0  0  0  0  0  2  0  0  0  0  0  0
  156.7730  213.4380  148.8390 C   0  0  0  0  0  2  0  0  0  0  0  0
  157.7220  214.1650  150.8590 C   0  0  1  0  0  3  0  0  0  0  0  0
  155.7740  214.3490  149.5220 C   0  0  0  0  0  2  0  0  0  0  0  0
  157.5300  213.6060  153.3370 N   0  0  0  0  0  0  0  0  0  0  0  0
  158.2130  213.4540  152.0840 C   0  0  0  0  0  0  0  0  0  0  0  0
  157.3320  213.6380  155.7260 C   0  0  0  0  0  2  0  0  0  0  0  0
  155.7270  214.2840  155.1700 S   0  0  0  0  0  0  0  0  0  0  0  0
  158.0140  212.9700  154.5510 C   0  0  1  0  0  3  0  0  0  0  0  0
  156.3450  214.4390  153.4700 C   0  0  0  0  0  2  0  0  0  0  0  0
  157.6880  211.6140  154.5310 O   0  0  0  0  0  1  0  0  0  0  0  0
  159.2350  212.7170  152.0060 O   0  0  0  0  0  0  0  0  0  0  0  0
  162.9340  206.8300  148.0260 N   0  0  0  0  0  2  0  0  0  0  0  0
  161.7090  203.5490  146.6510 C   0  0  0  0  0  3  0  0  0  0  0  0
  160.9000  203.9950  145.6030 C   0  0  0  0  0  0  0  0  0  0  0  0
  161.4520  206.2900  146.1690 C   0  0  0  0  0  3  0  0  0  0  0  0
  162.3830  204.4720  147.4580 C   0  0  0  0  0  3  0  0  0  0  0  0
  162.2540  205.8510  147.2260 C   0  0  0  0  0  0  0  0  0  0  0  0
  160.7750  205.3710  145.3620 C   0  0  0  0  0  3  0  0  0  0  0  0
  160.0570  201.7090  145.2090 N   0  0  0  0  0  1  0  0  0  0  0  0
  160.2020  203.0420  144.7990 N   0  0  0  0  0  2  0  0  0  0  0  0
  1  6  1  0  0  0  0
  2 12  2  0  0  0  0
  2 11  1  0  0  0  0
  3 16  1  6  0  0  0
  3 10  1  0  0  0  0
  4  8  1  0  0  0  0
  5  1  1  0  0  0  0
  7  4  1  0  0  0  0
  7  9  1  0  0  0  0
  8  1  2  0  0  0  0
  9  5  2  0  0  0  0
 10 11  1  0  0  0  0
 11  7  2  0  0  0  0
 12 15  1  0  0  0  0
 13  2  1  0  0  0  0
 14 13  2  0  0  0  0
 14  3  1  0  0  0  0
 15  4  2  0  0  0  0
 16 17  1  6  0  0  0
 16 18  1  0  0  0  0
 19 21  1  0  0  0  0
 19 18  1  0  0  0  0
 20 19  2  0  0  0  0
 21 22  1  0  0  0  0
 22 25  1  0  0  0  0
 24 26  1  0  0  0  0
 24 22  1  0  0  0  0
 25 23  1  0  0  0  0
 25 28  1  1  0  0  0
 26 23  1  0  0  0  0
 27 32  1  0  0  0  0
 27 31  1  0  0  0  0
 28 27  1  0  0  0  0
 30 29  1  0  0  0  0
 31 33  1  6  0  0  0
 31 29  1  0  0  0  0
 32 30  1  0  0  0  0
 34 28  2  0  0  0  0
 35 13  1  0  0  0  0
 36 39  1  0  0  0  0
 37 36  2  0  0  0  0
 38 40  1  0  0  0  0
 40 39  2  0  0  0  0
 40 35  1  0  0  0  0
 41 37  1  0  0  0  0
 41 38  2  0  0  0  0
 43 42  1  0  0  0  0
 43 37  1  0  0  0  0
M  END
>  <MODEL>
5

>  <REMARK>
 VINA RESULT:      -7.8      4.636      8.739
  Name = 
  8 active torsions:
  status: ('A' for Active; 'I' for Inactive)
    1  A    between atoms: N_1  and  C_34
    2  A    between atoms: N_1  and  C_35
    3  A    between atoms: C_2  and  N_6
    4  A    between atoms: C_2  and  C_13
    5  A    between atoms: C_3  and  N_4
    6  A    between atoms: C_3  and  C_12
    7  A    between atoms: C_14  and  C_22
    8  A    between atoms: C_19  and  N_37
                            x       y       z     vdW  Elec       q    Type
                         _______ _______ _______ _____ _____    ______ ____

>  <TORSDO>
F 8

$$$$
=
 OpenBabel11062409543D

 43 48  0  0  1  0  0  0  0  0999 V2000
  160.9180  202.2670  147.0260 C   0  0  0  0  0  0  0  0  0  0  0  0
  161.7420  206.7950  149.1260 C   0  0  0  0  0  0  0  0  0  0  0  0
  160.8020  206.6270  151.8280 C   0  0  2  0  0  3  0  0  0  0  0  0
  161.4050  204.6110  147.3930 C   0  0  0  0  0  0  0  0  0  0  0  0
  160.7580  202.0790  148.4030 C   0  0  0  0  0  3  0  0  0  0  0  0
  160.7540  201.1970  146.1590 O   0  0  0  0  0  1  0  0  0  0  0  0
  161.2430  204.4310  148.7890 C   0  0  0  0  0  0  0  0  0  0  0  0
  161.2420  203.5300  146.5230 C   0  0  0  0  0  3  0  0  0  0  0  0
  160.9200  203.1550  149.2800 C   0  0  0  0  0  3  0  0  0  0  0  0
  161.3410  205.3590  151.1520 C   0  0  0  0  0  2  0  0  0  0  0  0
  161.4090  205.5290  149.6550 C   0  0  0  0  0  0  0  0  0  0  0  0
  161.9040  206.9520  147.7440 C   0  0  0  0  0  3  0  0  0  0  0  0
  161.9160  207.9510  150.0360 C   0  0  0  0  0  0  0  0  0  0  0  0
  161.5280  207.8450  151.3140 C   0  0  0  0  0  3  0  0  0  0  0  0
  161.7360  205.8660  146.8830 C   0  0  0  0  0  3  0  0  0  0  0  0
  160.9200  206.5200  153.3490 C   0  0  1  0  0  3  0  0  0  0  0  0
  162.3710  206.3270  153.7660 C   0  0  0  0  0  1  0  0  0  0  0  0
  160.3980  207.7250  153.9820 N   0  0  0  0  0  2  0  0  0  0  0  0
  160.1140  207.7900  155.3810 C   0  0  0  0  0  0  0  0  0  0  0  0
  160.2870  206.7800  156.1160 O   0  0  0  0  0  0  0  0  0  0  0  0
  159.5850  209.0590  155.9630 C   0  0  0  0  0  2  0  0  0  0  0  0
  160.4620  210.1780  155.6420 N   0  0  0  0  0  0  0  0  0  0  0  0
  161.4730  211.7480  157.1660 C   0  0  0  0  0  2  0  0  0  0  0  0
  161.8280  209.7430  155.9200 C   0  0  0  0  0  2  0  0  0  0  0  0
  160.1680  211.2660  156.5760 C   0  0  1  0  0  3  0  0  0  0  0  0
  162.3670  210.5450  157.0870 C   0  0  0  0  0  2  0  0  0  0  0  0
  158.0810  212.2490  155.4940 N   0  0  0  0  0  0  0  0  0  0  0  0
  159.4580  212.3850  155.8750 C   0  0  0  0  0  0  0  0  0  0  0  0
  156.1230  212.6940  154.1840 C   0  0  0  0  0  2  0  0  0  0  0  0
  155.6100  211.3030  155.2340 S   0  0  0  0  0  0  0  0  0  0  0  0
  157.3830  213.2970  154.7690 C   0  0  1  0  0  3  0  0  0  0  0  0
  157.3230  211.0390  155.7740 C   0  0  0  0  0  2  0  0  0  0  0  0
  157.0450  214.3280  155.6460 O   0  0  0  0  0  1  0  0  0  0  0  0
  160.0810  213.4530  155.6220 O   0  0  0  0  0  0  0  0  0  0  0  0
  162.5520  209.1420  149.5400 N   0  0  0  0  0  2  0  0  0  0  0  0
  161.0040  211.9430  147.5620 C   0  0  0  0  0  3  0  0  0  0  0  0
  160.7960  212.8870  148.5720 C   0  0  0  0  0  0  0  0  0  0  0  0
  161.7510  211.3500  150.1900 C   0  0  0  0  0  3  0  0  0  0  0  0
  161.5800  210.7060  147.8680 C   0  0  0  0  0  3  0  0  0  0  0  0
  161.9520  210.3970  149.1860 C   0  0  0  0  0  0  0  0  0  0  0  0
  161.1730  212.5860  149.8890 C   0  0  0  0  0  3  0  0  0  0  0  0
  158.8130  214.2410  147.9990 N   0  0  0  0  0  1  0  0  0  0  0  0
  160.1880  214.1390  148.2480 N   0  0  0  0  0  2  0  0  0  0  0  0
  1  5  1  0  0  0  0
  2 11  1  0  0  0  0
  2 13  1  0  0  0  0
  3 16  1  1  0  0  0
  4  7  1  0  0  0  0
  5  9  2  0  0  0  0
  6  1  1  0  0  0  0
  7  9  1  0  0  0  0
  7 11  2  0  0  0  0
  8  1  2  0  0  0  0
  8  4  1  0  0  0  0
 10  3  1  0  0  0  0
 11 10  1  0  0  0  0
 12  2  2  0  0  0  0
 13 14  2  0  0  0  0
 14  3  1  0  0  0  0
 15  4  2  0  0  0  0
 15 12  1  0  0  0  0
 16 17  1  6  0  0  0
 16 18  1  0  0  0  0
 18 19  1  0  0  0  0
 19 21  1  0  0  0  0
 19 20  2  0  0  0  0
 22 24  1  0  0  0  0
 22 21  1  0  0  0  0
 22 25  1  0  0  0  0
 24 26  1  0  0  0  0
 25 28  1  6  0  0  0
 25 23  1  0  0  0  0
 26 23  1  0  0  0  0
 27 32  1  0  0  0  0
 27 28  1  0  0  0  0
 29 31  1  0  0  0  0
 29 30  1  0  0  0  0
 30 32  1  0  0  0  0
 31 27  1  0  0  0  0
 31 33  1  1  0  0  0
 34 28  2  0  0  0  0
 35 13  1  0  0  0  0
 36 39  2  0  0  0  0
 36 37  1  0  0  0  0
 37 41  2  0  0  0  0
 39 40  1  0  0  0  0
 40 35  1  0  0  0  0
 40 38  2  0  0  0  0
 41 38  1  0  0  0  0
 42 43  1  0  0  0  0
 43 37  1  0  0  0  0
M  END
>  <MODEL>
6

>  <REMARK>
 VINA RESULT:      -7.8      4.994      9.276
  Name = 
  8 active torsions:
  status: ('A' for Active; 'I' for Inactive)
    1  A    between atoms: N_1  and  C_34
    2  A    between atoms: N_1  and  C_35
    3  A    between atoms: C_2  and  N_6
    4  A    between atoms: C_2  and  C_13
    5  A    between atoms: C_3  and  N_4
    6  A    between atoms: C_3  and  C_12
    7  A    between atoms: C_14  and  C_22
    8  A    between atoms: C_19  and  N_37
                            x       y       z     vdW  Elec       q    Type
                         _______ _______ _______ _____ _____    ______ ____

>  <TORSDO>
F 8

$$$$
=
 OpenBabel11062409543D

 43 48  0  0  1  0  0  0  0  0999 V2000
  161.2050  208.6420  155.2530 C   0  0  0  0  0  0  0  0  0  0  0  0
  162.2120  207.8510  150.3590 C   0  0  0  0  0  0  0  0  0  0  0  0
  161.5430  210.2740  148.9850 C   0  0  2  0  0  3  0  0  0  0  0  0
  161.7160  207.6270  153.1150 C   0  0  0  0  0  0  0  0  0  0  0  0
  161.1810  209.9060  154.6540 C   0  0  0  0  0  3  0  0  0  0  0  0
  160.9620  208.5170  156.6140 O   0  0  0  0  0  1  0  0  0  0  0  0
  161.6930  208.9030  152.4990 C   0  0  0  0  0  0  0  0  0  0  0  0
  161.4730  207.5060  154.4850 C   0  0  0  0  0  3  0  0  0  0  0  0
  161.4240  210.0360  153.2840 C   0  0  0  0  0  3  0  0  0  0  0  0
  162.0180  210.3570  150.4410 C   0  0  0  0  0  2  0  0  0  0  0  0
  161.9380  209.0110  151.1160 C   0  0  0  0  0  0  0  0  0  0  0  0
  162.2370  206.5990  150.9870 C   0  0  0  0  0  3  0  0  0  0  0  0
  162.4710  207.9630  148.9050 C   0  0  0  0  0  0  0  0  0  0  0  0
  162.2100  209.1190  148.2800 C   0  0  0  0  0  3  0  0  0  0  0  0
  161.9910  206.4880  152.3570 C   0  0  0  0  0  3  0  0  0  0  0  0
  161.8100  211.5900  148.2520 C   0  0  1  0  0  3  0  0  0  0  0  0
  163.3050  211.8250  148.0910 C   0  0  0  0  0  1  0  0  0  0  0  0
  161.1850  211.5720  146.9360 N   0  0  0  0  0  2  0  0  0  0  0  0
  159.8680  212.0790  146.7090 C   0  0  0  0  0  0  0  0  0  0  0  0
  159.1880  212.5420  147.6650 O   0  0  0  0  0  0  0  0  0  0  0  0
  159.2920  212.0330  145.3320 C   0  0  0  0  0  2  0  0  0  0  0  0
  159.7570  213.1660  144.5420 N   0  0  0  0  0  0  0  0  0  0  0  0
  159.0430  213.8180  142.3340 C   0  0  0  0  0  2  0  0  0  0  0  0
  158.7520  214.2170  144.6700 C   0  0  0  0  0  2  0  0  0  0  0  0
  159.7670  212.7610  143.1350 C   0  0  1  0  0  3  0  0  0  0  0  0
  158.0910  214.4260  143.3220 C   0  0  0  0  0  2  0  0  0  0  0  0
  161.4470  211.8320  141.4590 N   0  0  0  0  0  0  0  0  0  0  0  0
  161.1740  212.5950  142.6440 C   0  0  0  0  0  0  0  0  0  0  0  0
  162.7700  210.4710  139.9950 C   0  0  0  0  0  2  0  0  0  0  0  0
  161.1250  210.4280  139.2250 S   0  0  0  0  0  0  0  0  0  0  0  0
  162.8040  211.6120  140.9890 C   0  0  1  0  0  3  0  0  0  0  0  0
  160.3850  211.2010  140.6910 C   0  0  0  0  0  2  0  0  0  0  0  0
  163.2750  212.7660  140.3620 O   0  0  0  0  0  1  0  0  0  0  0  0
  162.1210  213.1350  143.2800 O   0  0  0  0  0  0  0  0  0  0  0  0
  163.0500  206.8460  148.2090 N   0  0  0  0  0  2  0  0  0  0  0  0
  161.6160  203.5920  146.9790 C   0  0  0  0  0  3  0  0  0  0  0  0
  161.1150  203.9860  145.7350 C   0  0  0  0  0  0  0  0  0  0  0  0
  161.9020  206.2450  146.1450 C   0  0  0  0  0  3  0  0  0  0  0  0
  162.2540  204.5250  147.8040 C   0  0  0  0  0  3  0  0  0  0  0  0
  162.3960  205.8600  147.3950 C   0  0  0  0  0  0  0  0  0  0  0  0
  161.2620  205.3170  145.3190 C   0  0  0  0  0  3  0  0  0  0  0  0
  160.0280  201.7920  145.4220 N   0  0  0  0  0  1  0  0  0  0  0  0
  160.4490  203.0270  144.9110 N   0  0  0  0  0  2  0  0  0  0  0  0
  1  6  1  0  0  0  0
  2 12  2  0  0  0  0
  2 11  1  0  0  0  0
  3 16  1  6  0  0  0
  3 10  1  0  0  0  0
  4  8  1  0  0  0  0
  5  1  1  0  0  0  0
  7  4  1  0  0  0  0
  7  9  1  0  0  0  0
  8  1  2  0  0  0  0
  9  5  2  0  0  0  0
 10 11  1  0  0  0  0
 11  7  2  0  0  0  0
 12 15  1  0  0  0  0
 13  2  1  0  0  0  0
 14 13  2  0  0  0  0
 14  3  1  0  0  0  0
 15  4  2  0  0  0  0
 16 17  1  6  0  0  0
 18 16  1  0  0  0  0
 19 18  1  0  0  0  0
 19 20  2  0  0  0  0
 21 19  1  0  0  0  0
 22 24  1  0  0  0  0
 22 21  1  0  0  0  0
 23 25  1  0  0  0  0
 23 26  1  0  0  0  0
 25 28  1  6  0  0  0
 25 22  1  0  0  0  0
 26 24  1  0  0  0  0
 27 28  1  0  0  0  0
 28 34  2  0  0  0  0
 29 31  1  0  0  0  0
 30 29  1  0  0  0  0
 30 32  1  0  0  0  0
 31 33  1  6  0  0  0
 31 27  1  0  0  0  0
 32 27  1  0  0  0  0
 35 13  1  0  0  0  0
 36 39  1  0  0  0  0
 37 36  2  0  0  0  0
 38 40  1  0  0  0  0
 40 39  2  0  0  0  0
 40 35  1  0  0  0  0
 41 37  1  0  0  0  0
 41 38  2  0  0  0  0
 43 42  1  0  0  0  0
 43 37  1  0  0  0  0
M  END
>  <MODEL>
7

>  <REMARK>
 VINA RESULT:      -7.7      3.044      5.993
  Name = 
  8 active torsions:
  status: ('A' for Active; 'I' for Inactive)
    1  A    between atoms: N_1  and  C_34
    2  A    between atoms: N_1  and  C_35
    3  A    between atoms: C_2  and  N_6
    4  A    between atoms: C_2  and  C_13
    5  A    between atoms: C_3  and  N_4
    6  A    between atoms: C_3  and  C_12
    7  A    between atoms: C_14  and  C_22
    8  A    between atoms: C_19  and  N_37
                            x       y       z     vdW  Elec       q    Type
                         _______ _______ _______ _____ _____    ______ ____

>  <TORSDO>
F 8

$$$$
=
 OpenBabel11062409543D

 43 48  0  0  1  0  0  0  0  0999 V2000
  161.3510  204.1910  146.7590 C   0  0  0  0  0  0  0  0  0  0  0  0
  161.6640  207.7520  150.3390 C   0  0  0  0  0  0  0  0  0  0  0  0
  162.1860  210.2250  148.9890 C   0  0  2  0  0  3  0  0  0  0  0  0
  161.5400  205.3600  148.8720 C   0  0  0  0  0  0  0  0  0  0  0  0
  161.2850  205.4140  146.0820 C   0  0  0  0  0  3  0  0  0  0  0  0
  161.2910  203.0020  146.0460 O   0  0  0  0  0  1  0  0  0  0  0  0
  161.4760  206.6030  148.1950 C   0  0  0  0  0  0  0  0  0  0  0  0
  161.4770  204.1650  148.1510 C   0  0  0  0  0  3  0  0  0  0  0  0
  161.3460  206.6140  146.7960 C   0  0  0  0  0  3  0  0  0  0  0  0
  161.3790  209.1410  148.2620 C   0  0  0  0  0  2  0  0  0  0  0  0
  161.5420  207.8010  148.9330 C   0  0  0  0  0  0  0  0  0  0  0  0
  161.7200  206.5140  150.9910 C   0  0  0  0  0  3  0  0  0  0  0  0
  161.7330  209.0110  151.1180 C   0  0  0  0  0  0  0  0  0  0  0  0
  161.9190  210.1700  150.4730 C   0  0  0  0  0  3  0  0  0  0  0  0
  161.6580  205.3250  150.2610 C   0  0  0  0  0  3  0  0  0  0  0  0
  161.8630  211.6100  148.4260 C   0  0  1  0  0  3  0  0  0  0  0  0
  163.1300  212.4390  148.2740 C   0  0  0  0  0  1  0  0  0  0  0  0
  161.2130  211.4880  147.1260 N   0  0  0  0  0  2  0  0  0  0  0  0
  160.5590  212.5900  146.4940 C   0  0  0  0  0  0  0  0  0  0  0  0
  160.5030  213.7140  147.0650 O   0  0  0  0  0  0  0  0  0  0  0  0
  159.9180  212.3950  145.1600 C   0  0  0  0  0  2  0  0  0  0  0  0
  160.9080  212.4910  144.0950 N   0  0  0  0  0  0  0  0  0  0  0  0
  161.5240  214.4450  142.8240 C   0  0  0  0  0  2  0  0  0  0  0  0
  162.1140  213.0690  144.6840 C   0  0  0  0  0  2  0  0  0  0  0  0
  160.4180  213.4560  143.1090 C   0  0  1  0  0  3  0  0  0  0  0  0
  162.3390  214.4410  144.0840 C   0  0  0  0  0  2  0  0  0  0  0  0
  158.7910  213.1390  141.1730 N   0  0  0  0  0  0  0  0  0  0  0  0
  159.9960  212.7550  141.8510 C   0  0  0  0  0  0  0  0  0  0  0  0
  156.8790  212.8100  139.7640 C   0  0  0  0  0  2  0  0  0  0  0  0
  156.5860  214.4530  140.4810 S   0  0  0  0  0  0  0  0  0  0  0  0
  158.3320  212.4440  139.9820 C   0  0  1  0  0  3  0  0  0  0  0  0
  157.9410  214.2110  141.6650 C   0  0  0  0  0  2  0  0  0  0  0  0
  159.0870  212.8510  138.8820 O   0  0  0  0  0  1  0  0  0  0  0  0
  160.7130  211.8240  141.3900 O   0  0  0  0  0  0  0  0  0  0  0  0
  161.5420  208.9640  152.5420 N   0  0  0  0  0  2  0  0  0  0  0  0
  160.2960  210.9080  155.5120 C   0  0  0  0  0  3  0  0  0  0  0  0
  159.2220  211.5940  154.9380 C   0  0  0  0  0  0  0  0  0  0  0  0
  159.6960  210.5310  152.8080 C   0  0  0  0  0  3  0  0  0  0  0  0
  161.0690  210.0400  154.7330 C   0  0  0  0  0  3  0  0  0  0  0  0
  160.7780  209.8500  153.3740 C   0  0  0  0  0  0  0  0  0  0  0  0
  158.9220  211.4010  153.5820 C   0  0  0  0  0  3  0  0  0  0  0  0
  157.5730  212.0220  156.7250 N   0  0  0  0  0  1  0  0  0  0  0  0
  158.4530  212.4920  155.7410 N   0  0  0  0  0  2  0  0  0  0  0  0
  1  8  1  0  0  0  0
  2 12  1  0  0  0  0
  2 13  1  0  0  0  0
  3 16  1  6  0  0  0
  3 14  1  0  0  0  0
  4 15  1  0  0  0  0
  5  1  2  0  0  0  0
  5  9  1  0  0  0  0
  6  1  1  0  0  0  0
  7  4  1  0  0  0  0
  7 11  1  0  0  0  0
  8  4  2  0  0  0  0
  9  7  2  0  0  0  0
 10 11  1  0  0  0  0
 10  3  1  0  0  0  0
 11  2  2  0  0  0  0
 13 35  1  0  0  0  0
 14 13  2  0  0  0  0
 15 12  2  0  0  0  0
 16 17  1  6  0  0  0
 18 16  1  0  0  0  0
 19 20  2  0  0  0  0
 19 18  1  0  0  0  0
 21 19  1  0  0  0  0
 22 24  1  0  0  0  0
 22 21  1  0  0  0  0
 23 25  1  0  0  0  0
 23 26  1  0  0  0  0
 25 28  1  6  0  0  0
 25 22  1  0  0  0  0
 26 24  1  0  0  0  0
 27 32  1  0  0  0  0
 27 28  1  0  0  0  0
 29 31  1  0  0  0  0
 29 30  1  0  0  0  0
 30 32  1  0  0  0  0
 31 33  1  6  0  0  0
 31 27  1  0  0  0  0
 34 28  2  0  0  0  0
 35 40  1  0  0  0  0
 37 36  1  0  0  0  0
 37 43  1  0  0  0  0
 38 40  2  0  0  0  0
 38 41  1  0  0  0  0
 39 36  2  0  0  0  0
 40 39  1  0  0  0  0
 41 37  2  0  0  0  0
 43 42  1  0  0  0  0
M  END
>  <MODEL>
8

>  <REMARK>
 VINA RESULT:      -7.6      1.697      2.227
  Name = 
  8 active torsions:
  status: ('A' for Active; 'I' for Inactive)
    1  A    between atoms: N_1  and  C_34
    2  A    between atoms: N_1  and  C_35
    3  A    between atoms: C_2  and  N_6
    4  A    between atoms: C_2  and  C_13
    5  A    between atoms: C_3  and  N_4
    6  A    between atoms: C_3  and  C_12
    7  A    between atoms: C_14  and  C_22
    8  A    between atoms: C_19  and  N_37
                            x       y       z     vdW  Elec       q    Type
                         _______ _______ _______ _____ _____    ______ ____

>  <TORSDO>
F 8

$$$$
=
 OpenBabel11062409543D

 43 48  0  0  1  0  0  0  0  0999 V2000
  155.6780  212.6030  156.2020 C   0  0  0  0  0  0  0  0  0  0  0  0
  158.9100  213.0050  152.3310 C   0  0  0  0  0  0  0  0  0  0  0  0
  160.8050  210.8760  152.6250 C   0  0  2  0  0  3  0  0  0  0  0  0
  156.9370  213.3970  154.2910 C   0  0  0  0  0  0  0  0  0  0  0  0
  156.3860  211.3970  156.1750 C   0  0  0  0  0  3  0  0  0  0  0  0
  154.7000  212.8100  157.1650 O   0  0  0  0  0  1  0  0  0  0  0  0
  157.6610  212.1790  154.2580 C   0  0  0  0  0  0  0  0  0  0  0  0
  155.9520  213.6000  155.2600 C   0  0  0  0  0  3  0  0  0  0  0  0
  157.3720  211.1860  155.2080 C   0  0  0  0  0  3  0  0  0  0  0  0
  159.3770  210.6710  153.1450 C   0  0  0  0  0  2  0  0  0  0  0  0
  158.6530  211.9870  153.2760 C   0  0  0  0  0  0  0  0  0  0  0  0
  158.1800  214.1990  152.3770 C   0  0  0  0  0  3  0  0  0  0  0  0
  159.9530  212.8050  151.2980 C   0  0  0  0  0  0  0  0  0  0  0  0
  160.7990  211.7720  151.4110 C   0  0  0  0  0  3  0  0  0  0  0  0
  157.1990  214.3940  153.3510 C   0  0  0  0  0  3  0  0  0  0  0  0
  161.4640  209.5320  152.3090 C   0  0  1  0  0  3  0  0  0  0  0  0
  160.8300  208.4150  153.1260 C   0  0  0  0  0  1  0  0  0  0  0  0
  161.3280  209.2220  150.8910 N   0  0  0  0  0  2  0  0  0  0  0  0
  162.1420  208.2440  150.2420 C   0  0  0  0  0  0  0  0  0  0  0  0
  163.0340  207.6250  150.8860 O   0  0  0  0  0  0  0  0  0  0  0  0
  161.9450  207.9740  148.7870 C   0  0  0  0  0  2  0  0  0  0  0  0
  162.1690  206.5650  148.4900 N   0  0  0  0  0  0  0  0  0  0  0  0
  160.7760  205.0910  147.1880 C   0  0  0  0  0  2  0  0  0  0  0  0
  162.7050  206.4960  147.1330 C   0  0  0  0  0  2  0  0  0  0  0  0
  160.8670  205.8960  148.4630 C   0  0  1  0  0  3  0  0  0  0  0  0
  161.6870  205.8160  146.2410 C   0  0  0  0  0  2  0  0  0  0  0  0
  160.8330  203.5860  149.5380 N   0  0  0  0  0  0  0  0  0  0  0  0
  160.7050  205.0100  149.6620 C   0  0  0  0  0  0  0  0  0  0  0  0
  160.4400  201.2980  150.1350 C   0  0  0  0  0  2  0  0  0  0  0  0
  161.3120  201.1660  148.5460 S   0  0  0  0  0  0  0  0  0  0  0  0
  160.6310  202.7010  150.6720 C   0  0  1  0  0  3  0  0  0  0  0  0
  161.1290  202.9500  148.2640 C   0  0  0  0  0  2  0  0  0  0  0  0
  161.7530  202.7350  151.5000 O   0  0  0  0  0  1  0  0  0  0  0  0
  160.4550  205.5270  150.7860 O   0  0  0  0  0  0  0  0  0  0  0  0
  159.9960  213.6910  150.1660 N   0  0  0  0  0  2  0  0  0  0  0  0
  158.0290  213.3620  146.9770 C   0  0  0  0  0  3  0  0  0  0  0  0
  159.0100  212.8540  146.1200 C   0  0  0  0  0  0  0  0  0  0  0  0
  160.6110  212.9050  147.9430 C   0  0  0  0  0  3  0  0  0  0  0  0
  158.3410  213.6430  148.3110 C   0  0  0  0  0  3  0  0  0  0  0  0
  159.6370  213.4220  148.8030 C   0  0  0  0  0  0  0  0  0  0  0  0
  160.3040  212.6250  146.6090 C   0  0  0  0  0  3  0  0  0  0  0  0
  159.3310  213.2550  143.7060 N   0  0  0  0  0  1  0  0  0  0  0  0
  158.6810  212.5900  144.7550 N   0  0  0  0  0  2  0  0  0  0  0  0
  1  6  1  0  0  0  0
  2 12  2  0  0  0  0
  2 11  1  0  0  0  0
  3 16  1  6  0  0  0
  3 10  1  0  0  0  0
  4  8  1  0  0  0  0
  5  1  1  0  0  0  0
  7  4  1  0  0  0  0
  7  9  1  0  0  0  0
  8  1  2  0  0  0  0
  9  5  2  0  0  0  0
 10 11  1  0  0  0  0
 11  7  2  0  0  0  0
 12 15  1  0  0  0  0
 13 14  2  0  0  0  0
 13  2  1  0  0  0  0
 14  3  1  0  0  0  0
 15  4  2  0  0  0  0
 16 17  1  1  0  0  0
 18 16  1  0  0  0  0
 19 20  2  0  0  0  0
 19 18  1  0  0  0  0
 21 19  1  0  0  0  0
 22 21  1  0  0  0  0
 23 25  1  0  0  0  0
 24 22  1  0  0  0  0
 25 22  1  0  0  0  0
 25 28  1  1  0  0  0
 26 24  1  0  0  0  0
 26 23  1  0  0  0  0
 27 28  1  0  0  0  0
 27 31  1  0  0  0  0
 28 34  2  0  0  0  0
 29 31  1  0  0  0  0
 30 29  1  0  0  0  0
 31 33  1  1  0  0  0
 32 30  1  0  0  0  0
 32 27  1  0  0  0  0
 35 13  1  0  0  0  0
 36 39  1  0  0  0  0
 37 41  1  0  0  0  0
 37 36  2  0  0  0  0
 38 40  1  0  0  0  0
 39 40  2  0  0  0  0
 40 35  1  0  0  0  0
 41 38  2  0  0  0  0
 42 43  1  0  0  0  0
 43 37  1  0  0  0  0
M  END
>  <MODEL>
9

>  <REMARK>
 VINA RESULT:      -7.5      4.361      9.341
  Name = 
  8 active torsions:
  status: ('A' for Active; 'I' for Inactive)
    1  A    between atoms: N_1  and  C_34
    2  A    between atoms: N_1  and  C_35
    3  A    between atoms: C_2  and  N_6
    4  A    between atoms: C_2  and  C_13
    5  A    between atoms: C_3  and  N_4
    6  A    between atoms: C_3  and  C_12
    7  A    between atoms: C_14  and  C_22
    8  A    between atoms: C_19  and  N_37
                            x       y       z     vdW  Elec       q    Type
                         _______ _______ _______ _____ _____    ______ ____

>  <TORSDO>
F 8

$$$$
