=
 OpenBabel11052422153D

 25 29  0  0  1  0  0  0  0  0999 V2000
  161.0290  206.6500  151.2000 C   0  0  0  0  0  0  0  0  0  0  0  0
  160.9590  207.7590  152.0460 C   0  0  0  0  0  0  0  0  0  0  0  0
  161.3340  205.1470  153.0700 C   0  0  0  0  0  3  0  0  0  0  0  0
  160.8110  206.5730  149.7320 C   0  0  2  0  0  3  0  0  0  0  0  0
  161.9300  205.4770  147.3150 C   0  0  0  0  0  3  0  0  0  0  0  0
  161.3030  206.2500  153.9380 C   0  0  0  0  0  3  0  0  0  0  0  0
  161.0210  205.1010  149.5030 C   0  0  0  0  0  0  0  0  0  0  0  0
  161.3590  204.6120  148.1640 C   0  0  0  0  0  3  0  0  0  0  0  0
  161.1080  208.6840  154.3230 N   0  0  0  0  0  0  0  0  0  0  0  0
  160.5760  208.5690  155.6720 C   0  0  0  0  0  1  0  0  0  0  0  0
  160.6970  209.0640  151.5120 N   0  0  0  0  0  2  0  0  0  0  0  0
  162.2520  206.8650  147.7420 C   0  0  0  0  0  3  0  0  0  0  0  0
  161.1860  205.3770  151.7050 C   0  0  0  0  0  0  0  0  0  0  0  0
  161.2220  204.4080  150.6220 C   0  0  0  0  0  3  0  0  0  0  0  0
  161.6130  210.2750  153.7360 S   0  0  0  0  0  0  0  0  0  0  0  0
  161.7870  207.3640  148.9010 C   0  0  0  0  0  3  0  0  0  0  0  0
  160.4130  210.2110  152.3690 C   0  0  1  0  0  3  0  0  0  0  0  0
  161.1270  207.5580  153.4350 C   0  0  0  0  0  0  0  0  0  0  0  0
  161.2020  212.6870  149.6170 C   0  0  0  0  0  0  0  0  0  0  0  0
  160.4420  211.4760  151.5740 C   0  0  0  0  0  0  0  0  0  0  0  0
  161.1690  211.5160  150.3800 C   0  0  0  0  0  3  0  0  0  0  0  0
  162.1150  212.7330  148.1250 Cl  0  0  0  0  0  0  0  0  0  0  0  0
  159.7410  212.6140  151.9990 C   0  0  0  0  0  3  0  0  0  0  0  0
  160.5050  213.8210  150.0450 C   0  0  0  0  0  3  0  0  0  0  0  0
  159.7740  213.7840  151.2360 C   0  0  0  0  0  3  0  0  0  0  0  0
  1 13  2  0  0  0  0
  1  2  1  0  0  0  0
  2 18  2  0  0  0  0
  3  6  2  0  0  0  0
  4 16  1  6  0  0  0
  4  1  1  0  0  0  0
  5 12  1  0  0  0  0
  5  8  2  0  0  0  0
  7  4  1  0  0  0  0
  7 14  2  0  0  0  0
  8  7  1  0  0  0  0
  9 10  1  0  0  0  0
 11  2  1  0  0  0  0
 11 17  1  0  0  0  0
 12 16  2  0  0  0  0
 13  3  1  0  0  0  0
 14 13  1  0  0  0  0
 15  9  1  0  0  0  0
 17 20  1  6  0  0  0
 17 15  1  0  0  0  0
 18  6  1  0  0  0  0
 18  9  1  0  0  0  0
 19 24  2  0  0  0  0
 19 21  1  0  0  0  0
 20 23  1  0  0  0  0
 21 20  2  0  0  0  0
 22 19  1  0  0  0  0
 24 25  1  0  0  0  0
 25 23  2  0  0  0  0
M  END
>  <MODEL>
1

>  <REMARK>
 VINA RESULT:      -9.0      0.000      0.000
  Name = 
  1 active torsions:
  status: ('A' for Active; 'I' for Inactive)
    1  A    between atoms: C_6  and  C_23
                            x       y       z     vdW  Elec       q    Type
                         _______ _______ _______ _____ _____    ______ ____

>  <TORSDO>
F 1

$$$$
=
 OpenBabel11052422153D

 25 29  0  0  1  0  0  0  0  0999 V2000
  160.9940  206.4430  151.1600 C   0  0  0  0  0  0  0  0  0  0  0  0
  160.8280  207.3860  152.1770 C   0  0  0  0  0  0  0  0  0  0  0  0
  161.4100  204.6780  152.7610 C   0  0  0  0  0  3  0  0  0  0  0  0
  160.7910  206.5950  149.6960 C   0  0  2  0  0  3  0  0  0  0  0  0
  162.0100  206.0120  147.1530 C   0  0  0  0  0  3  0  0  0  0  0  0
  161.2830  205.6140  153.7990 C   0  0  0  0  0  3  0  0  0  0  0  0
  161.1230  205.2030  149.2300 C   0  0  0  0  0  0  0  0  0  0  0  0
  161.5070  204.9740  147.8350 C   0  0  0  0  0  3  0  0  0  0  0  0
  160.8860  207.9260  154.5790 N   0  0  0  0  0  0  0  0  0  0  0  0
  160.3580  207.5460  155.8790 C   0  0  0  0  0  1  0  0  0  0  0  0
  160.4630  208.7360  151.8630 N   0  0  0  0  0  2  0  0  0  0  0  0
  162.2150  207.3300  147.8110 C   0  0  0  0  0  3  0  0  0  0  0  0
  161.2510  205.1200  151.4500 C   0  0  0  0  0  0  0  0  0  0  0  0
  161.3730  204.3520  150.2220 C   0  0  0  0  0  3  0  0  0  0  0  0
  161.2620  209.6280  154.2740 S   0  0  0  0  0  0  0  0  0  0  0  0
  161.7040  207.5900  149.0270 C   0  0  0  0  0  3  0  0  0  0  0  0
  160.0800  209.6980  152.8930 C   0  0  1  0  0  3  0  0  0  0  0  0
  161.0030  206.9690  153.5170 C   0  0  0  0  0  0  0  0  0  0  0  0
  159.0460  213.2990  152.3580 C   0  0  0  0  0  0  0  0  0  0  0  0
  160.0100  211.0760  152.3190 C   0  0  0  0  0  0  0  0  0  0  0  0
  159.1210  212.0010  152.8740 C   0  0  0  0  0  3  0  0  0  0  0  0
  157.9300  214.4530  153.0550 Cl  0  0  0  0  0  0  0  0  0  0  0  0
  160.8300  211.4560  151.2460 C   0  0  0  0  0  3  0  0  0  0  0  0
  159.8620  213.6750  151.2860 C   0  0  0  0  0  3  0  0  0  0  0  0
  160.7540  212.7530  150.7310 C   0  0  0  0  0  3  0  0  0  0  0  0
  1 13  2  0  0  0  0
  1  2  1  0  0  0  0
  2 18  2  0  0  0  0
  3  6  2  0  0  0  0
  4 16  1  6  0  0  0
  4  1  1  0  0  0  0
  5 12  1  0  0  0  0
  5  8  2  0  0  0  0
  7  4  1  0  0  0  0
  7 14  2  0  0  0  0
  8  7  1  0  0  0  0
  9 10  1  0  0  0  0
 11  2  1  0  0  0  0
 11 17  1  0  0  0  0
 12 16  2  0  0  0  0
 13  3  1  0  0  0  0
 14 13  1  0  0  0  0
 15  9  1  0  0  0  0
 17 20  1  6  0  0  0
 17 15  1  0  0  0  0
 18  6  1  0  0  0  0
 18  9  1  0  0  0  0
 19 21  1  0  0  0  0
 19 22  1  0  0  0  0
 20 21  2  0  0  0  0
 23 20  1  0  0  0  0
 24 19  2  0  0  0  0
 25 23  2  0  0  0  0
 25 24  1  0  0  0  0
M  END
>  <MODEL>
2

>  <REMARK>
 VINA RESULT:      -8.5      1.501      1.816
  Name = 
  1 active torsions:
  status: ('A' for Active; 'I' for Inactive)
    1  A    between atoms: C_6  and  C_23
                            x       y       z     vdW  Elec       q    Type
                         _______ _______ _______ _____ _____    ______ ____

>  <TORSDO>
F 1

$$$$
=
 OpenBabel11052422153D

 25 29  0  0  1  0  0  0  0  0999 V2000
  161.1190  205.7090  150.4940 C   0  0  0  0  0  0  0  0  0  0  0  0
  161.2180  206.9010  151.2160 C   0  0  0  0  0  0  0  0  0  0  0  0
  161.1520  204.3890  152.5210 C   0  0  0  0  0  3  0  0  0  0  0  0
  160.9120  205.5090  149.0370 C   0  0  2  0  0  3  0  0  0  0  0  0
  161.8720  203.9930  146.7850 C   0  0  0  0  0  3  0  0  0  0  0  0
  161.2870  205.5710  153.2670 C   0  0  0  0  0  3  0  0  0  0  0  0
  160.8840  204.0060  148.9710 C   0  0  0  0  0  0  0  0  0  0  0  0
  161.1570  203.3270  147.7010 C   0  0  0  0  0  3  0  0  0  0  0  0
  161.4830  208.0320  153.3870 N   0  0  0  0  0  0  0  0  0  0  0  0
  160.9210  208.1510  154.7230 C   0  0  0  0  0  1  0  0  0  0  0  0
  161.1780  208.1650  150.5410 N   0  0  0  0  0  2  0  0  0  0  0  0
  162.4090  205.3490  147.0730 C   0  0  0  0  0  3  0  0  0  0  0  0
  161.0610  204.4900  151.1350 C   0  0  0  0  0  0  0  0  0  0  0  0
  160.9550  203.4160  150.1620 C   0  0  0  0  0  3  0  0  0  0  0  0
  162.2460  209.4490  152.6530 S   0  0  0  0  0  0  0  0  0  0  0  0
  162.0150  206.0390  148.1580 C   0  0  0  0  0  3  0  0  0  0  0  0
  161.0710  209.4290  151.2630 C   0  0  1  0  0  3  0  0  0  0  0  0
  161.3320  206.8280  152.6240 C   0  0  0  0  0  0  0  0  0  0  0  0
  160.9490  212.9070  149.7750 C   0  0  0  0  0  0  0  0  0  0  0  0
  161.3150  210.5790  150.3410 C   0  0  0  0  0  0  0  0  0  0  0  0
  160.7260  211.8160  150.6210 C   0  0  0  0  0  3  0  0  0  0  0  0
  160.2070  214.4520  150.1290 Cl  0  0  0  0  0  0  0  0  0  0  0  0
  162.1350  210.4390  149.2110 C   0  0  0  0  0  3  0  0  0  0  0  0
  161.7630  212.7640  148.6470 C   0  0  0  0  0  3  0  0  0  0  0  0
  162.3560  211.5300  148.3660 C   0  0  0  0  0  3  0  0  0  0  0  0
  1 13  2  0  0  0  0
  1  2  1  0  0  0  0
  2 18  2  0  0  0  0
  3  6  2  0  0  0  0
  4 16  1  6  0  0  0
  4  1  1  0  0  0  0
  5 12  1  0  0  0  0
  5  8  2  0  0  0  0
  7  4  1  0  0  0  0
  7 14  2  0  0  0  0
  8  7  1  0  0  0  0
  9 10  1  0  0  0  0
 11  2  1  0  0  0  0
 11 17  1  0  0  0  0
 12 16  2  0  0  0  0
 13  3  1  0  0  0  0
 14 13  1  0  0  0  0
 15  9  1  0  0  0  0
 17 20  1  6  0  0  0
 17 15  1  0  0  0  0
 18  6  1  0  0  0  0
 18  9  1  0  0  0  0
 19 22  1  0  0  0  0
 19 21  1  0  0  0  0
 20 21  2  0  0  0  0
 23 20  1  0  0  0  0
 24 19  2  0  0  0  0
 25 24  1  0  0  0  0
 25 23  2  0  0  0  0
M  END
>  <MODEL>
3

>  <REMARK>
 VINA RESULT:      -8.5      1.307      1.867
  Name = 
  1 active torsions:
  status: ('A' for Active; 'I' for Inactive)
    1  A    between atoms: C_6  and  C_23
                            x       y       z     vdW  Elec       q    Type
                         _______ _______ _______ _____ _____    ______ ____

>  <TORSDO>
F 1

$$$$
=
 OpenBabel11052422153D

 25 29  0  0  1  0  0  0  0  0999 V2000
  161.3490  206.3640  149.6060 C   0  0  0  0  0  0  0  0  0  0  0  0
  161.5030  207.6410  150.1500 C   0  0  0  0  0  0  0  0  0  0  0  0
  161.2110  205.3600  151.8020 C   0  0  0  0  0  3  0  0  0  0  0  0
  161.1850  205.9630  148.1850 C   0  0  2  0  0  3  0  0  0  0  0  0
  162.1240  204.0720  146.2260 C   0  0  0  0  0  3  0  0  0  0  0  0
  161.3990  206.6280  152.3730 C   0  0  0  0  0  3  0  0  0  0  0  0
  161.0560  204.4720  148.3360 C   0  0  0  0  0  0  0  0  0  0  0  0
  161.3290  203.5960  147.1940 C   0  0  0  0  0  3  0  0  0  0  0  0
  161.7600  209.0630  152.1440 N   0  0  0  0  0  0  0  0  0  0  0  0
  161.1570  209.4140  153.4200 C   0  0  0  0  0  1  0  0  0  0  0  0
  161.5760  208.7910  149.2970 N   0  0  0  0  0  2  0  0  0  0  0  0
  162.7420  205.4200  146.3400 C   0  0  0  0  0  3  0  0  0  0  0  0
  161.1810  205.2600  150.4130 C   0  0  0  0  0  0  0  0  0  0  0  0
  161.0390  204.0620  149.6020 C   0  0  0  0  0  3  0  0  0  0  0  0
  162.6490  210.3040  151.2490 S   0  0  0  0  0  0  0  0  0  0  0  0
  162.3560  206.2870  147.2920 C   0  0  0  0  0  3  0  0  0  0  0  0
  161.5300  210.1520  149.8220 C   0  0  1  0  0  3  0  0  0  0  0  0
  161.5560  207.7710  151.5570 C   0  0  0  0  0  0  0  0  0  0  0  0
  161.2030  212.5330  146.8980 C   0  0  0  0  0  0  0  0  0  0  0  0
  161.8890  211.1350  148.7550 C   0  0  0  0  0  0  0  0  0  0  0  0
  160.8900  211.6070  147.8980 C   0  0  0  0  0  3  0  0  0  0  0  0
  159.9510  213.1190  145.8260 Cl  0  0  0  0  0  0  0  0  0  0  0  0
  163.2050  211.5990  148.6110 C   0  0  0  0  0  3  0  0  0  0  0  0
  162.5170  212.9920  146.7550 C   0  0  0  0  0  3  0  0  0  0  0  0
  163.5170  212.5250  147.6120 C   0  0  0  0  0  3  0  0  0  0  0  0
  1  2  2  0  0  0  0
  1 13  1  0  0  0  0
  2 18  1  0  0  0  0
  3  6  1  0  0  0  0
  4 16  1  6  0  0  0
  4  7  1  0  0  0  0
  4  1  1  0  0  0  0
  5 12  1  0  0  0  0
  5  8  2  0  0  0  0
  7 14  2  0  0  0  0
  8  7  1  0  0  0  0
  9 10  1  0  0  0  0
 11 17  1  0  0  0  0
 11  2  1  0  0  0  0
 12 16  2  0  0  0  0
 13  3  2  0  0  0  0
 14 13  1  0  0  0  0
 15  9  1  0  0  0  0
 17 20  1  6  0  0  0
 17 15  1  0  0  0  0
 18  9  1  0  0  0  0
 18  6  2  0  0  0  0
 19 21  1  0  0  0  0
 21 20  2  0  0  0  0
 22 19  1  0  0  0  0
 23 20  1  0  0  0  0
 24 19  2  0  0  0  0
 24 25  1  0  0  0  0
 25 23  2  0  0  0  0
M  END
>  <MODEL>
4

>  <REMARK>
 VINA RESULT:      -8.5      1.990      2.613
  Name = 
  1 active torsions:
  status: ('A' for Active; 'I' for Inactive)
    1  A    between atoms: C_6  and  C_23
                            x       y       z     vdW  Elec       q    Type
                         _______ _______ _______ _____ _____    ______ ____

>  <TORSDO>
F 1

$$$$
=
 OpenBabel11052422153D

 25 29  0  0  1  0  0  0  0  0999 V2000
  161.0910  204.0030  148.3550 C   0  0  0  0  0  0  0  0  0  0  0  0
  161.1040  204.4570  149.6760 C   0  0  0  0  0  0  0  0  0  0  0  0
  160.9470  201.6960  149.0700 C   0  0  0  0  0  3  0  0  0  0  0  0
  161.0260  204.7840  147.0940 C   0  0  2  0  0  3  0  0  0  0  0  0
  162.2180  204.9990  144.4810 C   0  0  0  0  0  3  0  0  0  0  0  0
  160.9940  202.1260  150.4050 C   0  0  0  0  0  3  0  0  0  0  0  0
  161.0260  203.6700  146.0830 C   0  0  0  0  0  0  0  0  0  0  0  0
  161.4270  203.9390  144.7000 C   0  0  0  0  0  3  0  0  0  0  0  0
  161.1440  203.9360  152.0820 N   0  0  0  0  0  0  0  0  0  0  0  0
  160.4560  203.2080  153.1360 C   0  0  0  0  0  1  0  0  0  0  0  0
  161.1110  205.8620  149.9600 N   0  0  0  0  0  2  0  0  0  0  0  0
  162.7060  205.8330  145.6100 C   0  0  0  0  0  3  0  0  0  0  0  0
  160.9880  202.6590  148.0650 C   0  0  0  0  0  0  0  0  0  0  0  0
  160.9900  202.4550  146.6260 C   0  0  0  0  0  3  0  0  0  0  0  0
  161.9550  205.4560  152.4850 S   0  0  0  0  0  0  0  0  0  0  0  0
  162.2010  205.6960  146.8490 C   0  0  0  0  0  3  0  0  0  0  0  0
  160.9190  206.3830  151.3100 C   0  0  1  0  0  3  0  0  0  0  0  0
  161.0830  203.5010  150.7170 C   0  0  0  0  0  0  0  0  0  0  0  0
  161.1240  209.9600  152.5310 C   0  0  0  0  0  0  0  0  0  0  0  0
  161.2340  207.8430  151.3560 C   0  0  0  0  0  0  0  0  0  0  0  0
  160.8310  208.5940  152.4650 C   0  0  0  0  0  3  0  0  0  0  0  0
  160.6150  210.8960  153.9200 Cl  0  0  0  0  0  0  0  0  0  0  0  0
  161.9390  208.4640  150.3140 C   0  0  0  0  0  3  0  0  0  0  0  0
  161.8230  210.5780  151.4900 C   0  0  0  0  0  3  0  0  0  0  0  0
  162.2300  209.8290  150.3810 C   0  0  0  0  0  3  0  0  0  0  0  0
  1  2  1  0  0  0  0
  2 11  1  0  0  0  0
  2 18  2  0  0  0  0
  3  6  2  0  0  0  0
  4 16  1  6  0  0  0
  4  1  1  0  0  0  0
  5  8  2  0  0  0  0
  5 12  1  0  0  0  0
  6 18  1  0  0  0  0
  7 14  2  0  0  0  0
  7  4  1  0  0  0  0
  8  7  1  0  0  0  0
  9 15  1  0  0  0  0
  9 10  1  0  0  0  0
 11 17  1  0  0  0  0
 12 16  2  0  0  0  0
 13  1  2  0  0  0  0
 13  3  1  0  0  0  0
 14 13  1  0  0  0  0
 17 20  1  6  0  0  0
 17 15  1  0  0  0  0
 18  9  1  0  0  0  0
 19 22  1  0  0  0  0
 20 21  2  0  0  0  0
 21 19  1  0  0  0  0
 23 25  2  0  0  0  0
 23 20  1  0  0  0  0
 24 19  2  0  0  0  0
 25 24  1  0  0  0  0
M  END
>  <MODEL>
5

>  <REMARK>
 VINA RESULT:      -8.0      2.769      4.343
  Name = 
  1 active torsions:
  status: ('A' for Active; 'I' for Inactive)
    1  A    between atoms: C_6  and  C_23
                            x       y       z     vdW  Elec       q    Type
                         _______ _______ _______ _____ _____    ______ ____

>  <TORSDO>
F 1

$$$$
=
 OpenBabel11052422153D

 25 29  0  0  1  0  0  0  0  0999 V2000
  161.0700  204.0140  148.2660 C   0  0  0  0  0  0  0  0  0  0  0  0
  161.1030  204.4610  149.5900 C   0  0  0  0  0  0  0  0  0  0  0  0
  160.8860  201.7070  148.9690 C   0  0  0  0  0  3  0  0  0  0  0  0
  161.0120  204.8040  147.0100 C   0  0  2  0  0  3  0  0  0  0  0  0
  162.1880  205.0100  144.3890 C   0  0  0  0  0  3  0  0  0  0  0  0
  160.9520  202.1280  150.3060 C   0  0  0  0  0  3  0  0  0  0  0  0
  160.9820  203.6960  145.9930 C   0  0  0  0  0  0  0  0  0  0  0  0
  161.3780  203.9660  144.6080 C   0  0  0  0  0  3  0  0  0  0  0  0
  161.1510  203.9250  151.9920 N   0  0  0  0  0  0  0  0  0  0  0  0
  160.4560  203.2040  153.0470 C   0  0  0  0  0  1  0  0  0  0  0  0
  161.1400  205.8630  149.8820 N   0  0  0  0  0  2  0  0  0  0  0  0
  162.7010  205.8280  145.5200 C   0  0  0  0  0  3  0  0  0  0  0  0
  160.9390  202.6750  147.9690 C   0  0  0  0  0  0  0  0  0  0  0  0
  160.9260  202.4790  146.5290 C   0  0  0  0  0  3  0  0  0  0  0  0
  161.9950  205.4260  152.3970 S   0  0  0  0  0  0  0  0  0  0  0  0
  162.2030  205.6940  146.7610 C   0  0  0  0  0  3  0  0  0  0  0  0
  160.9690  206.3800  151.2360 C   0  0  1  0  0  3  0  0  0  0  0  0
  161.0710  203.4990  150.6250 C   0  0  0  0  0  0  0  0  0  0  0  0
  161.9410  209.8660  150.1270 C   0  0  0  0  0  0  0  0  0  0  0  0
  161.3140  207.8330  151.2880 C   0  0  0  0  0  0  0  0  0  0  0  0
  161.6240  208.5040  150.1020 C   0  0  0  0  0  3  0  0  0  0  0  0
  162.3320  210.7000  148.6400 Cl  0  0  0  0  0  0  0  0  0  0  0  0
  161.3150  208.5330  152.5040 C   0  0  0  0  0  3  0  0  0  0  0  0
  161.9460  210.5610  151.3410 C   0  0  0  0  0  3  0  0  0  0  0  0
  161.6330  209.8940  152.5290 C   0  0  0  0  0  3  0  0  0  0  0  0
  1  2  1  0  0  0  0
  2 11  1  0  0  0  0
  2 18  2  0  0  0  0
  3  6  2  0  0  0  0
  4 16  1  6  0  0  0
  4  1  1  0  0  0  0
  5  8  2  0  0  0  0
  5 12  1  0  0  0  0
  6 18  1  0  0  0  0
  7 14  2  0  0  0  0
  7  4  1  0  0  0  0
  8  7  1  0  0  0  0
  9 15  1  0  0  0  0
  9 10  1  0  0  0  0
 11 17  1  0  0  0  0
 12 16  2  0  0  0  0
 13  1  2  0  0  0  0
 13  3  1  0  0  0  0
 14 13  1  0  0  0  0
 17 20  1  6  0  0  0
 17 15  1  0  0  0  0
 18  9  1  0  0  0  0
 19 24  1  0  0  0  0
 20 23  2  0  0  0  0
 21 19  2  0  0  0  0
 21 20  1  0  0  0  0
 22 19  1  0  0  0  0
 23 25  1  0  0  0  0
 24 25  2  0  0  0  0
M  END
>  <MODEL>
6

>  <REMARK>
 VINA RESULT:      -7.9      2.536      4.136
  Name = 
  1 active torsions:
  status: ('A' for Active; 'I' for Inactive)
    1  A    between atoms: C_6  and  C_23
                            x       y       z     vdW  Elec       q    Type
                         _______ _______ _______ _____ _____    ______ ____

>  <TORSDO>
F 1

$$$$
=
 OpenBabel11052422153D

 25 29  0  0  1  0  0  0  0  0999 V2000
  161.4890  205.7800  149.5720 C   0  0  0  0  0  0  0  0  0  0  0  0
  161.4930  206.9960  150.2590 C   0  0  0  0  0  0  0  0  0  0  0  0
  161.7740  206.8940  147.4440 C   0  0  0  0  0  3  0  0  0  0  0  0
  161.4730  204.3960  150.1120 C   0  0  2  0  0  3  0  0  0  0  0  0
  160.1900  201.8380  149.7910 C   0  0  0  0  0  3  0  0  0  0  0  0
  161.7470  208.1300  148.1080 C   0  0  0  0  0  3  0  0  0  0  0  0
  161.4990  203.6050  148.8320 C   0  0  0  0  0  0  0  0  0  0  0  0
  161.0410  202.2130  148.8260 C   0  0  0  0  0  3  0  0  0  0  0  0
  161.5560  209.4570  150.1850 N   0  0  0  0  0  0  0  0  0  0  0  0
  162.3140  210.5960  149.6940 C   0  0  0  0  0  1  0  0  0  0  0  0
  161.4220  207.0220  151.6900 N   0  0  0  0  0  2  0  0  0  0  0  0
  159.6950  202.8170  150.7950 C   0  0  0  0  0  3  0  0  0  0  0  0
  161.6520  205.7340  148.2040 C   0  0  0  0  0  0  0  0  0  0  0  0
  161.6150  204.3560  147.7400 C   0  0  0  0  0  3  0  0  0  0  0  0
  160.6800  209.6100  151.7150 S   0  0  0  0  0  0  0  0  0  0  0  0
  160.2450  204.0380  150.9090 C   0  0  0  0  0  3  0  0  0  0  0  0
  161.6290  208.2460  152.4570 C   0  0  1  0  0  3  0  0  0  0  0  0
  161.5960  208.1920  149.5110 C   0  0  0  0  0  0  0  0  0  0  0  0
  161.0170  208.9260  156.1300 C   0  0  0  0  0  0  0  0  0  0  0  0
  161.2400  208.0400  153.8850 C   0  0  0  0  0  0  0  0  0  0  0  0
  161.3830  209.0950  154.7910 C   0  0  0  0  0  3  0  0  0  0  0  0
  161.2000  210.2490  157.2610 Cl  0  0  0  0  0  0  0  0  0  0  0  0
  160.7220  206.8120  154.3240 C   0  0  0  0  0  3  0  0  0  0  0  0
  160.5040  207.7000  156.5660 C   0  0  0  0  0  3  0  0  0  0  0  0
  160.3570  206.6430  155.6620 C   0  0  0  0  0  3  0  0  0  0  0  0
  1  4  1  0  0  0  0
  1  2  1  0  0  0  0
  2 11  1  0  0  0  0
  3  6  2  0  0  0  0
  3 13  1  0  0  0  0
  4 16  1  6  0  0  0
  5 12  1  0  0  0  0
  6 18  1  0  0  0  0
  7  4  1  0  0  0  0
  8  7  1  0  0  0  0
  8  5  2  0  0  0  0
  9 15  1  0  0  0  0
 10  9  1  0  0  0  0
 11 17  1  0  0  0  0
 12 16  2  0  0  0  0
 13  1  2  0  0  0  0
 14 13  1  0  0  0  0
 14  7  2  0  0  0  0
 15 17  1  0  0  0  0
 17 20  1  1  0  0  0
 18  9  1  0  0  0  0
 18  2  2  0  0  0  0
 19 24  1  0  0  0  0
 19 22  1  0  0  0  0
 20 23  2  0  0  0  0
 20 21  1  0  0  0  0
 21 19  2  0  0  0  0
 23 25  1  0  0  0  0
 25 24  2  0  0  0  0
M  END
>  <MODEL>
7

>  <REMARK>
 VINA RESULT:      -7.9      2.793      5.144
  Name = 
  1 active torsions:
  status: ('A' for Active; 'I' for Inactive)
    1  A    between atoms: C_6  and  C_23
                            x       y       z     vdW  Elec       q    Type
                         _______ _______ _______ _____ _____    ______ ____

>  <TORSDO>
F 1

$$$$
=
 OpenBabel11052422153D

 25 29  0  0  1  0  0  0  0  0999 V2000
  160.9730  207.3150  151.8500 C   0  0  0  0  0  0  0  0  0  0  0  0
  160.7160  208.3910  152.7040 C   0  0  0  0  0  0  0  0  0  0  0  0
  161.6500  205.9110  153.6990 C   0  0  0  0  0  3  0  0  0  0  0  0
  160.7150  207.1900  150.3930 C   0  0  2  0  0  3  0  0  0  0  0  0
  161.9300  206.3340  147.9270 C   0  0  0  0  0  3  0  0  0  0  0  0
  161.4330  206.9880  154.5730 C   0  0  0  0  0  3  0  0  0  0  0  0
  161.2070  205.7900  150.1480 C   0  0  0  0  0  0  0  0  0  0  0  0
  161.5800  205.3740  148.7940 C   0  0  0  0  0  3  0  0  0  0  0  0
  160.7690  209.3340  154.9770 N   0  0  0  0  0  0  0  0  0  0  0  0
  160.3270  209.1200  156.3460 C   0  0  0  0  0  1  0  0  0  0  0  0
  160.1750  209.6140  152.1880 N   0  0  0  0  0  2  0  0  0  0  0  0
  161.9850  207.7590  148.3470 C   0  0  0  0  0  3  0  0  0  0  0  0
  161.4020  206.1020  152.3420 C   0  0  0  0  0  0  0  0  0  0  0  0
  161.5880  205.1560  151.2540 C   0  0  0  0  0  3  0  0  0  0  0  0
  160.9190  210.9920  154.3780 S   0  0  0  0  0  0  0  0  0  0  0  0
  161.4770  208.1590  149.5260 C   0  0  0  0  0  3  0  0  0  0  0  0
  159.7020  210.6840  153.0610 C   0  0  1  0  0  3  0  0  0  0  0  0
  160.9770  208.2320  154.0840 C   0  0  0  0  0  0  0  0  0  0  0  0
  157.9240  213.6970  151.6160 C   0  0  0  0  0  0  0  0  0  0  0  0
  159.4430  211.9260  152.2710 C   0  0  0  0  0  0  0  0  0  0  0  0
  158.1840  212.5290  152.3410 C   0  0  0  0  0  3  0  0  0  0  0  0
  156.3450  214.4460  151.7050 Cl  0  0  0  0  0  0  0  0  0  0  0  0
  160.4470  212.5000  151.4760 C   0  0  0  0  0  3  0  0  0  0  0  0
  158.9240  214.2660  150.8220 C   0  0  0  0  0  3  0  0  0  0  0  0
  160.1860  213.6670  150.7520 C   0  0  0  0  0  3  0  0  0  0  0  0
  1 13  2  0  0  0  0
  1  2  1  0  0  0  0
  2 18  2  0  0  0  0
  3  6  2  0  0  0  0
  4 16  1  6  0  0  0
  4  1  1  0  0  0  0
  5 12  1  0  0  0  0
  5  8  2  0  0  0  0
  7  4  1  0  0  0  0
  7 14  2  0  0  0  0
  8  7  1  0  0  0  0
  9 10  1  0  0  0  0
 11  2  1  0  0  0  0
 11 17  1  0  0  0  0
 12 16  2  0  0  0  0
 13  3  1  0  0  0  0
 14 13  1  0  0  0  0
 15  9  1  0  0  0  0
 17 20  1  6  0  0  0
 17 15  1  0  0  0  0
 18  6  1  0  0  0  0
 18  9  1  0  0  0  0
 19 22  1  0  0  0  0
 19 21  1  0  0  0  0
 20 21  2  0  0  0  0
 23 20  1  0  0  0  0
 24 19  2  0  0  0  0
 25 24  1  0  0  0  0
 25 23  2  0  0  0  0
M  END
>  <MODEL>
8

>  <REMARK>
 VINA RESULT:      -7.8      1.708      2.032
  Name = 
  1 active torsions:
  status: ('A' for Active; 'I' for Inactive)
    1  A    between atoms: C_6  and  C_23
                            x       y       z     vdW  Elec       q    Type
                         _______ _______ _______ _____ _____    ______ ____

>  <TORSDO>
F 1

$$$$
=
 OpenBabel11052422153D

 25 29  0  0  1  0  0  0  0  0999 V2000
  161.2470  207.5400  150.7680 C   0  0  0  0  0  0  0  0  0  0  0  0
  161.3930  206.7320  149.6390 C   0  0  0  0  0  0  0  0  0  0  0  0
  161.8320  209.5260  149.5170 C   0  0  0  0  0  3  0  0  0  0  0  0
  160.7500  207.1820  152.1220 C   0  0  2  0  0  3  0  0  0  0  0  0
  161.3330  207.5010  154.9240 C   0  0  0  0  0  3  0  0  0  0  0  0
  162.0190  208.7290  148.3760 C   0  0  0  0  0  3  0  0  0  0  0  0
  160.8420  208.5180  152.8070 C   0  0  0  0  0  0  0  0  0  0  0  0
  160.8940  208.5850  154.2700 C   0  0  0  0  0  3  0  0  0  0  0  0
  162.0170  206.5210  147.2660 N   0  0  0  0  0  0  0  0  0  0  0  0
  161.7480  207.0350  145.9330 C   0  0  0  0  0  1  0  0  0  0  0  0
  161.0960  205.3310  149.7050 N   0  0  0  0  0  2  0  0  0  0  0  0
  161.7970  206.2980  154.1820 C   0  0  0  0  0  3  0  0  0  0  0  0
  161.4370  208.9040  150.6990 C   0  0  0  0  0  0  0  0  0  0  0  0
  161.2190  209.5090  152.0020 C   0  0  0  0  0  3  0  0  0  0  0  0
  162.4760  204.8220  147.4500 S   0  0  0  0  0  0  0  0  0  0  0  0
  161.5860  206.1690  152.8600 C   0  0  0  0  0  3  0  0  0  0  0  0
  161.0360  204.4920  148.5120 C   0  0  1  0  0  3  0  0  0  0  0  0
  161.8130  207.3330  148.4300 C   0  0  0  0  0  0  0  0  0  0  0  0
  161.1870  200.7180  148.2600 C   0  0  0  0  0  0  0  0  0  0  0  0
  160.9720  203.0480  148.8920 C   0  0  0  0  0  0  0  0  0  0  0  0
  161.2330  202.0750  147.9230 C   0  0  0  0  0  3  0  0  0  0  0  0
  161.5110  199.5040  147.0430 Cl  0  0  0  0  0  0  0  0  0  0  0  0
  160.6700  202.6580  150.2060 C   0  0  0  0  0  3  0  0  0  0  0  0
  160.8820  200.3320  149.5690 C   0  0  0  0  0  3  0  0  0  0  0  0
  160.6240  201.3030  150.5420 C   0  0  0  0  0  3  0  0  0  0  0  0
  1  4  1  0  0  0  0
  2 11  1  0  0  0  0
  2  1  2  0  0  0  0
  3 13  2  0  0  0  0
  4  7  1  0  0  0  0
  4 16  1  1  0  0  0
  6 18  2  0  0  0  0
  6  3  1  0  0  0  0
  7  8  1  0  0  0  0
  8  5  2  0  0  0  0
  9 15  1  0  0  0  0
  9 18  1  0  0  0  0
 10  9  1  0  0  0  0
 12  5  1  0  0  0  0
 13  1  1  0  0  0  0
 13 14  1  0  0  0  0
 14  7  2  0  0  0  0
 15 17  1  0  0  0  0
 16 12  2  0  0  0  0
 17 20  1  1  0  0  0
 17 11  1  0  0  0  0
 18  2  1  0  0  0  0
 19 24  1  0  0  0  0
 20 23  2  0  0  0  0
 21 19  2  0  0  0  0
 21 20  1  0  0  0  0
 22 19  1  0  0  0  0
 23 25  1  0  0  0  0
 24 25  2  0  0  0  0
M  END
>  <MODEL>
9

>  <REMARK>
 VINA RESULT:      -7.6      3.947      7.938
  Name = 
  1 active torsions:
  status: ('A' for Active; 'I' for Inactive)
    1  A    between atoms: C_6  and  C_23
                            x       y       z     vdW  Elec       q    Type
                         _______ _______ _______ _____ _____    ______ ____

>  <TORSDO>
F 1

$$$$
