=
 OpenBabel11062409363D

 34 38  0  0  1  0  0  0  0  0999 V2000
  160.9250  209.2050  152.8840 C   0  0  0  0  0  0  0  0  0  0  0  0
  160.5510  212.4880  151.2720 C   0  0  0  0  0  3  0  0  0  0  0  0
  160.4660  211.8520  153.4310 O   0  0  0  0  0  0  0  0  0  0  0  0
  161.0100  206.8840  153.6330 C   0  0  0  0  0  0  0  0  0  0  0  0
  161.1460  207.8380  152.6280 C   0  0  0  0  0  3  0  0  0  0  0  0
  160.4370  208.6270  155.2140 C   0  0  0  0  0  0  0  0  0  0  0  0
  160.0730  208.9700  156.5500 N   0  0  0  0  0  1  0  0  0  0  0  0
  160.6530  207.2800  154.9200 C   0  0  0  0  0  3  0  0  0  0  0  0
  160.3980  210.9870  154.4330 C   0  0  0  0  0  0  0  0  0  0  0  0
  160.5730  209.6090  154.1970 C   0  0  0  0  0  0  0  0  0  0  0  0
  160.1520  211.4270  155.5880 O   0  0  0  0  0  0  0  0  0  0  0  0
  160.4910  212.3110  149.7940 C   0  0  0  0  0  2  0  0  0  0  0  0
  161.7620  211.7890  149.2270 C   0  0  0  0  0  0  0  0  0  0  0  0
  162.2350  210.6090  149.6150 C   0  0  0  0  0  3  0  0  0  0  0  0
  160.7280  211.5160  152.1740 C   0  0  0  0  0  0  0  0  0  0  0  0
  161.7360  209.7940  150.7370 C   0  0  0  0  0  3  0  0  0  0  0  0
  161.0920  210.1740  151.8650 C   0  0  0  0  0  0  0  0  0  0  0  0
  162.3920  212.4850  148.1420 N   0  0  0  0  0  0  0  0  0  0  0  0
  163.6280  212.4090  147.9780 O   0  0  0  0  0  0  0  0  0  0  0  0
  161.6430  213.2260  147.2560 O   0  0  0  0  0  0  0  0  0  0  0  0
  161.2250  205.4390  153.3300 C   0  0  0  0  0  2  0  0  0  0  0  0
  161.3840  203.3900  150.2430 C   0  0  0  0  0  3  0  0  0  0  0  0
  160.7560  206.1110  150.9470 C   0  0  0  0  0  2  0  0  0  0  0  0
  161.1860  204.9690  146.8160 C   0  0  0  0  0  0  0  0  0  0  0  0
  161.3350  204.0140  147.8330 C   0  0  0  0  0  3  0  0  0  0  0  0
  161.2280  204.3900  149.1740 C   0  0  0  0  0  0  0  0  0  0  0  0
  160.8030  206.6820  148.5000 C   0  0  0  0  0  3  0  0  0  0  0  0
  160.9660  205.7310  149.5090 C   0  0  0  0  0  0  0  0  0  0  0  0
  160.9200  206.3040  147.1590 C   0  0  0  0  0  3  0  0  0  0  0  0
  161.6150  205.2380  151.8740 C   0  0  2  0  0  3  0  0  0  0  0  0
  161.5170  203.7780  151.5150 C   0  0  0  0  0  3  0  0  0  0  0  0
  161.3000  204.5890  145.4380 N   0  0  0  0  0  0  0  0  0  0  0  0
  161.5260  205.5410  144.4710 O   0  0  0  0  0  0  0  0  0  0  0  0
  161.1970  203.3920  145.0990 O   0  0  0  0  0  0  0  0  0  0  0  0
  1 10  1  0  0  0  0
  2 15  2  0  0  0  0
  3  9  1  0  0  0  0
  4  8  2  0  0  0  0
  5  1  2  0  0  0  0
  5  4  1  0  0  0  0
  6  7  1  0  0  0  0
  8  6  1  0  0  0  0
  9 11  2  0  0  0  0
 10  9  1  0  0  0  0
 10  6  2  0  0  0  0
 12  2  1  0  0  0  0
 13 14  2  0  0  0  0
 13 12  1  0  0  0  0
 14 16  1  0  0  0  0
 15  3  1  0  0  0  0
 16 17  2  0  0  0  0
 17 15  1  0  0  0  0
 17  1  1  0  0  0  0
 18 13  1  0  0  0  0
 19 18  2  0  0  0  0
 20 18  2  0  0  0  0
 21  4  1  0  0  0  0
 22 31  2  0  0  0  0
 23 30  1  0  0  0  0
 24 29  2  0  0  0  0
 24 25  1  0  0  0  0
 25 26  2  0  0  0  0
 26 28  1  0  0  0  0
 26 22  1  0  0  0  0
 27 28  2  0  0  0  0
 28 23  1  0  0  0  0
 29 27  1  0  0  0  0
 30 21  1  1  0  0  0
 31 30  1  0  0  0  0
 32 24  1  0  0  0  0
 33 32  2  0  0  0  0
 34 32  2  0  0  0  0
M  END
>  <MODEL>
1

>  <REMARK>
 VINA RESULT:     -10.8      0.000      0.000
  Name = 
  4 active torsions:
  status: ('A' for Active; 'I' for Inactive)
    1  A    between atoms: N_3  and  C_25
    2  A    between atoms: C_7  and  N_11
    3  A    between atoms: C_8  and  C_18
    4  A    between atoms: C_18  and  C_30
                            x       y       z     vdW  Elec       q    Type
                         _______ _______ _______ _____ _____    ______ ____

>  <TORSDO>
F 4

$$$$
=
 OpenBabel11062409363D

 34 38  0  0  1  0  0  0  0  0999 V2000
  161.2460  206.3300  150.3180 C   0  0  0  0  0  0  0  0  0  0  0  0
  161.6680  203.6850  147.7990 C   0  0  0  0  0  3  0  0  0  0  0  0
  161.2100  203.6060  150.0030 O   0  0  0  0  0  0  0  0  0  0  0  0
  161.2300  208.2800  151.7850 C   0  0  0  0  0  0  0  0  0  0  0  0
  161.2730  207.7250  150.5090 C   0  0  0  0  0  3  0  0  0  0  0  0
  161.1160  206.0610  152.7490 C   0  0  0  0  0  0  0  0  0  0  0  0
  161.0390  205.2630  153.9290 N   0  0  0  0  0  1  0  0  0  0  0  0
  161.1560  207.4480  152.9000 C   0  0  0  0  0  3  0  0  0  0  0  0
  161.0920  204.0940  151.2300 C   0  0  0  0  0  0  0  0  0  0  0  0
  161.1590  205.4840  151.4530 C   0  0  0  0  0  0  0  0  0  0  0  0
  160.9440  203.2840  152.1840 O   0  0  0  0  0  0  0  0  0  0  0  0
  162.1680  204.2850  146.5290 C   0  0  0  0  0  2  0  0  0  0  0  0
  161.1830  205.2060  145.9040 C   0  0  0  0  0  0  0  0  0  0  0  0
  160.7640  206.2850  146.5580 C   0  0  0  0  0  3  0  0  0  0  0  0
  161.3590  204.3540  148.9150 C   0  0  0  0  0  0  0  0  0  0  0  0
  161.0170  206.6000  147.9750 C   0  0  0  0  0  3  0  0  0  0  0  0
  161.2620  205.7710  149.0170 C   0  0  0  0  0  0  0  0  0  0  0  0
  160.8100  205.0180  144.5310 N   0  0  0  0  0  0  0  0  0  0  0  0
  159.9990  204.1210  144.2170 O   0  0  0  0  0  0  0  0  0  0  0  0
  161.3210  205.8340  143.5480 O   0  0  0  0  0  0  0  0  0  0  0  0
  161.2850  209.7610  151.9610 C   0  0  0  0  0  2  0  0  0  0  0  0
  159.5070  210.9350  154.9960 C   0  0  0  0  0  3  0  0  0  0  0  0
  159.7040  211.7040  152.2270 C   0  0  0  0  0  2  0  0  0  0  0  0
  156.7640  213.5260  154.7960 C   0  0  0  0  0  0  0  0  0  0  0  0
  157.6480  212.5620  155.3050 C   0  0  0  0  0  3  0  0  0  0  0  0
  158.5790  211.9470  154.4640 C   0  0  0  0  0  0  0  0  0  0  0  0
  157.7700  213.2660  152.5960 C   0  0  0  0  0  3  0  0  0  0  0  0
  158.6370  212.2960  153.1030 C   0  0  0  0  0  0  0  0  0  0  0  0
  156.8320  213.8730  153.4370 C   0  0  0  0  0  3  0  0  0  0  0  0
  160.0420  210.2730  152.6710 C   0  0  2  0  0  3  0  0  0  0  0  0
  160.2310  210.1810  154.1630 C   0  0  0  0  0  3  0  0  0  0  0  0
  155.8020  214.1560  155.6530 N   0  0  0  0  0  0  0  0  0  0  0  0
  154.5430  214.4530  155.1830 O   0  0  0  0  0  0  0  0  0  0  0  0
  156.0940  214.4420  156.8320 O   0  0  0  0  0  0  0  0  0  0  0  0
  1  5  2  0  0  0  0
  1 10  1  0  0  0  0
  2 15  2  0  0  0  0
  3  9  1  0  0  0  0
  4 21  1  0  0  0  0
  4  8  2  0  0  0  0
  5  4  1  0  0  0  0
  6  8  1  0  0  0  0
  6  7  1  0  0  0  0
  9 10  1  0  0  0  0
  9 11  2  0  0  0  0
 10  6  2  0  0  0  0
 12  2  1  0  0  0  0
 13 12  1  0  0  0  0
 13 14  2  0  0  0  0
 14 16  1  0  0  0  0
 15 17  1  0  0  0  0
 15  3  1  0  0  0  0
 16 17  2  0  0  0  0
 17  1  1  0  0  0  0
 18 13  1  0  0  0  0
 19 18  2  0  0  0  0
 20 18  2  0  0  0  0
 23 30  1  0  0  0  0
 23 28  1  0  0  0  0
 24 25  1  0  0  0  0
 24 32  1  0  0  0  0
 26 22  1  0  0  0  0
 26 25  2  0  0  0  0
 27 28  2  0  0  0  0
 27 29  1  0  0  0  0
 28 26  1  0  0  0  0
 29 24  2  0  0  0  0
 30 21  1  6  0  0  0
 30 31  1  0  0  0  0
 31 22  2  0  0  0  0
 32 34  2  0  0  0  0
 33 32  2  0  0  0  0
M  END
>  <MODEL>
2

>  <REMARK>
 VINA RESULT:     -10.7      3.198      8.591
  Name = 
  4 active torsions:
  status: ('A' for Active; 'I' for Inactive)
    1  A    between atoms: N_3  and  C_25
    2  A    between atoms: C_7  and  N_11
    3  A    between atoms: C_8  and  C_18
    4  A    between atoms: C_18  and  C_30
                            x       y       z     vdW  Elec       q    Type
                         _______ _______ _______ _____ _____    ______ ____

>  <TORSDO>
F 4

$$$$
=
 OpenBabel11062409363D

 34 38  0  0  1  0  0  0  0  0999 V2000
  160.8630  209.2560  152.9650 C   0  0  0  0  0  0  0  0  0  0  0  0
  160.3670  212.5440  151.3970 C   0  0  0  0  0  3  0  0  0  0  0  0
  160.2550  211.8670  153.5420 O   0  0  0  0  0  0  0  0  0  0  0  0
  161.0450  206.9290  153.6790 C   0  0  0  0  0  0  0  0  0  0  0  0
  161.1600  207.9060  152.6930 C   0  0  0  0  0  3  0  0  0  0  0  0
  160.3400  208.6130  155.2700 C   0  0  0  0  0  0  0  0  0  0  0  0
  159.9220  208.9130  156.6010 N   0  0  0  0  0  1  0  0  0  0  0  0
  160.6320  207.2840  154.9610 C   0  0  0  0  0  3  0  0  0  0  0  0
  160.2030  210.9820  154.5280 C   0  0  0  0  0  0  0  0  0  0  0  0
  160.4540  209.6180  154.2740 C   0  0  0  0  0  0  0  0  0  0  0  0
  159.9030  211.3880  155.6820 O   0  0  0  0  0  0  0  0  0  0  0  0
  160.3570  212.3910  149.9150 C   0  0  0  0  0  2  0  0  0  0  0  0
  161.6690  211.9430  149.3760 C   0  0  0  0  0  0  0  0  0  0  0  0
  162.1900  210.7820  149.7590 C   0  0  0  0  0  3  0  0  0  0  0  0
  160.5680  211.5670  152.2880 C   0  0  0  0  0  0  0  0  0  0  0  0
  161.7020  209.9230  150.8520 C   0  0  0  0  0  3  0  0  0  0  0  0
  161.0090  210.2500  151.9680 C   0  0  0  0  0  0  0  0  0  0  0  0
  162.2930  212.6900  148.3220 N   0  0  0  0  0  0  0  0  0  0  0  0
  163.4860  212.4770  148.0200 O   0  0  0  0  0  0  0  0  0  0  0  0
  161.5810  213.6320  147.6150 O   0  0  0  0  0  0  0  0  0  0  0  0
  161.3410  205.5020  153.3580 C   0  0  0  0  0  2  0  0  0  0  0  0
  161.7410  205.8320  149.6870 C   0  0  0  0  0  3  0  0  0  0  0  0
  161.2890  203.7130  151.5840 C   0  0  0  0  0  2  0  0  0  0  0  0
  160.9870  202.9560  147.3540 C   0  0  0  0  0  0  0  0  0  0  0  0
  161.3240  204.2370  147.8210 C   0  0  0  0  0  3  0  0  0  0  0  0
  161.3890  204.4900  149.1940 C   0  0  0  0  0  0  0  0  0  0  0  0
  160.8010  202.1820  149.6530 C   0  0  0  0  0  3  0  0  0  0  0  0
  161.1220  203.4600  150.1130 C   0  0  0  0  0  0  0  0  0  0  0  0
  160.7270  201.9330  148.2790 C   0  0  0  0  0  3  0  0  0  0  0  0
  160.9360  205.1670  151.9310 C   0  0  2  0  0  3  0  0  0  0  0  0
  161.5770  206.1410  150.9760 C   0  0  0  0  0  3  0  0  0  0  0  0
  160.9130  202.6920  145.9460 N   0  0  0  0  0  0  0  0  0  0  0  0
  161.2840  203.6560  145.0380 O   0  0  0  0  0  0  0  0  0  0  0  0
  160.5130  201.5850  145.5290 O   0  0  0  0  0  0  0  0  0  0  0  0
  1 10  1  0  0  0  0
  2 15  2  0  0  0  0
  3  9  1  0  0  0  0
  4  8  2  0  0  0  0
  5  1  2  0  0  0  0
  5  4  1  0  0  0  0
  6  7  1  0  0  0  0
  8  6  1  0  0  0  0
  9 11  2  0  0  0  0
 10  9  1  0  0  0  0
 10  6  2  0  0  0  0
 12  2  1  0  0  0  0
 13 14  2  0  0  0  0
 13 12  1  0  0  0  0
 14 16  1  0  0  0  0
 15  3  1  0  0  0  0
 16 17  2  0  0  0  0
 17 15  1  0  0  0  0
 17  1  1  0  0  0  0
 18 13  1  0  0  0  0
 19 18  2  0  0  0  0
 20 18  2  0  0  0  0
 21  4  1  0  0  0  0
 22 31  2  0  0  0  0
 23 30  1  0  0  0  0
 24 25  2  0  0  0  0
 24 29  1  0  0  0  0
 25 26  1  0  0  0  0
 26 22  1  0  0  0  0
 26 28  2  0  0  0  0
 27 28  1  0  0  0  0
 28 23  1  0  0  0  0
 29 27  2  0  0  0  0
 30 21  1  1  0  0  0
 31 30  1  0  0  0  0
 32 24  1  0  0  0  0
 33 32  2  0  0  0  0
 34 32  2  0  0  0  0
M  END
>  <MODEL>
3

>  <REMARK>
 VINA RESULT:     -10.5      0.776      1.572
  Name = 
  4 active torsions:
  status: ('A' for Active; 'I' for Inactive)
    1  A    between atoms: N_3  and  C_25
    2  A    between atoms: C_7  and  N_11
    3  A    between atoms: C_8  and  C_18
    4  A    between atoms: C_18  and  C_30
                            x       y       z     vdW  Elec       q    Type
                         _______ _______ _______ _____ _____    ______ ____

>  <TORSDO>
F 4

$$$$
=
 OpenBabel11062409363D

 34 38  0  0  1  0  0  0  0  0999 V2000
  160.8370  209.0190  152.8640 C   0  0  0  0  0  0  0  0  0  0  0  0
  160.1950  212.4390  154.0510 C   0  0  0  0  0  3  0  0  0  0  0  0
  160.8310  211.6360  152.0450 O   0  0  0  0  0  0  0  0  0  0  0  0
  161.3870  206.6800  152.4350 C   0  0  0  0  0  0  0  0  0  0  0  0
  160.8600  207.6690  153.2630 C   0  0  0  0  0  3  0  0  0  0  0  0
  161.8810  208.3490  150.7510 C   0  0  0  0  0  0  0  0  0  0  0  0
  162.4190  208.6370  149.4620 N   0  0  0  0  0  1  0  0  0  0  0  0
  161.8980  207.0230  151.1860 C   0  0  0  0  0  3  0  0  0  0  0  0
  161.2730  210.7180  151.1970 C   0  0  0  0  0  0  0  0  0  0  0  0
  161.3470  209.3660  151.5860 C   0  0  0  0  0  0  0  0  0  0  0  0
  161.6430  211.0900  150.0520 O   0  0  0  0  0  0  0  0  0  0  0  0
  160.0000  212.4230  155.5280 C   0  0  0  0  0  2  0  0  0  0  0  0
  158.7800  211.6780  155.9380 C   0  0  0  0  0  0  0  0  0  0  0  0
  158.6500  210.3890  155.6400 C   0  0  0  0  0  3  0  0  0  0  0  0
  160.4050  211.3710  153.2740 C   0  0  0  0  0  0  0  0  0  0  0  0
  159.5170  209.6080  154.7410 C   0  0  0  0  0  3  0  0  0  0  0  0
  160.2760  210.0170  153.6970 C   0  0  0  0  0  0  0  0  0  0  0  0
  157.8190  212.3110  156.7940 N   0  0  0  0  0  0  0  0  0  0  0  0
  158.0430  213.4480  157.2610 O   0  0  0  0  0  0  0  0  0  0  0  0
  156.6300  211.6860  157.0950 O   0  0  0  0  0  0  0  0  0  0  0  0
  161.4230  205.2600  152.8930 C   0  0  0  0  0  2  0  0  0  0  0  0
  160.8170  202.0860  151.0760 C   0  0  0  0  0  3  0  0  0  0  0  0
  161.0730  204.8800  150.4260 C   0  0  0  0  0  2  0  0  0  0  0  0
  160.9530  201.9150  147.3030 C   0  0  0  0  0  0  0  0  0  0  0  0
  160.8510  201.5290  148.6490 C   0  0  0  0  0  3  0  0  0  0  0  0
  160.9240  202.4870  149.6630 C   0  0  0  0  0  0  0  0  0  0  0  0
  161.1820  204.2340  148.0000 C   0  0  0  0  0  3  0  0  0  0  0  0
  161.0950  203.8450  149.3380 C   0  0  0  0  0  0  0  0  0  0  0  0
  161.1180  203.2730  146.9870 C   0  0  0  0  0  3  0  0  0  0  0  0
  161.6700  204.3170  151.7250 C   0  0  2  0  0  3  0  0  0  0  0  0
  161.1190  202.9520  152.0470 C   0  0  0  0  0  3  0  0  0  0  0  0
  160.8850  200.9350  146.2580 N   0  0  0  0  0  0  0  0  0  0  0  0
  160.2120  201.2110  145.0900 O   0  0  0  0  0  0  0  0  0  0  0  0
  161.4340  199.8230  146.3940 O   0  0  0  0  0  0  0  0  0  0  0  0
  1  5  1  0  0  0  0
  1 17  1  0  0  0  0
  2 12  1  0  0  0  0
  3 15  1  0  0  0  0
  4 21  1  0  0  0  0
  4  5  2  0  0  0  0
  6  8  2  0  0  0  0
  6 10  1  0  0  0  0
  7  6  1  0  0  0  0
  8  4  1  0  0  0  0
  9 10  1  0  0  0  0
  9  3  1  0  0  0  0
 10  1  2  0  0  0  0
 11  9  2  0  0  0  0
 12 13  1  0  0  0  0
 13 18  1  0  0  0  0
 14 13  2  0  0  0  0
 15 17  1  0  0  0  0
 15  2  2  0  0  0  0
 16 14  1  0  0  0  0
 17 16  2  0  0  0  0
 18 20  2  0  0  0  0
 18 19  2  0  0  0  0
 22 31  2  0  0  0  0
 23 30  1  0  0  0  0
 24 25  1  0  0  0  0
 25 26  2  0  0  0  0
 26 22  1  0  0  0  0
 27 28  2  0  0  0  0
 28 26  1  0  0  0  0
 28 23  1  0  0  0  0
 29 24  2  0  0  0  0
 29 27  1  0  0  0  0
 30 31  1  0  0  0  0
 30 21  1  1  0  0  0
 32 34  2  0  0  0  0
 32 24  1  0  0  0  0
 33 32  2  0  0  0  0
M  END
>  <MODEL>
4

>  <REMARK>
 VINA RESULT:     -10.0      2.158      4.712
  Name = 
  4 active torsions:
  status: ('A' for Active; 'I' for Inactive)
    1  A    between atoms: N_3  and  C_25
    2  A    between atoms: C_7  and  N_11
    3  A    between atoms: C_8  and  C_18
    4  A    between atoms: C_18  and  C_30
                            x       y       z     vdW  Elec       q    Type
                         _______ _______ _______ _____ _____    ______ ____

>  <TORSDO>
F 4

$$$$
=
 OpenBabel11062409363D

 34 38  0  0  1  0  0  0  0  0999 V2000
  159.8280  210.6570  153.3720 C   0  0  0  0  0  0  0  0  0  0  0  0
  158.2140  213.8080  154.3650 C   0  0  0  0  0  3  0  0  0  0  0  0
  159.3160  213.2050  152.4960 O   0  0  0  0  0  0  0  0  0  0  0  0
  160.9800  208.5250  153.0890 C   0  0  0  0  0  0  0  0  0  0  0  0
  160.1150  209.3480  153.8050 C   0  0  0  0  0  3  0  0  0  0  0  0
  161.3050  210.2820  151.4550 C   0  0  0  0  0  0  0  0  0  0  0  0
  161.9450  210.7060  150.2520 N   0  0  0  0  0  1  0  0  0  0  0  0
  161.5750  208.9950  151.9200 C   0  0  0  0  0  3  0  0  0  0  0  0
  160.0870  212.4300  151.7450 C   0  0  0  0  0  0  0  0  0  0  0  0
  160.4240  211.1310  152.1760 C   0  0  0  0  0  0  0  0  0  0  0  0
  160.5230  212.8930  150.6580 O   0  0  0  0  0  0  0  0  0  0  0  0
  157.8110  213.7290  155.7980 C   0  0  0  0  0  2  0  0  0  0  0  0
  156.7580  212.7080  156.0420 C   0  0  0  0  0  0  0  0  0  0  0  0
  156.9870  211.4290  155.7600 C   0  0  0  0  0  3  0  0  0  0  0  0
  158.7870  212.8310  153.6550 C   0  0  0  0  0  0  0  0  0  0  0  0
  158.1400  210.8890  155.0190 C   0  0  0  0  0  3  0  0  0  0  0  0
  158.9250  211.4800  154.0880 C   0  0  0  0  0  0  0  0  0  0  0  0
  155.5560  213.0810  156.7310 N   0  0  0  0  0  0  0  0  0  0  0  0
  154.8370  212.2080  157.2610 O   0  0  0  0  0  0  0  0  0  0  0  0
  155.1920  214.4040  156.8370 O   0  0  0  0  0  0  0  0  0  0  0  0
  161.2880  207.1500  153.5820 C   0  0  0  0  0  2  0  0  0  0  0  0
  160.9960  203.9090  151.8050 C   0  0  0  0  0  3  0  0  0  0  0  0
  160.9900  206.7070  151.1200 C   0  0  0  0  0  2  0  0  0  0  0  0
  161.1700  203.7040  148.0350 C   0  0  0  0  0  0  0  0  0  0  0  0
  161.0970  203.3280  149.3860 C   0  0  0  0  0  3  0  0  0  0  0  0
  161.0730  204.3010  150.3880 C   0  0  0  0  0  0  0  0  0  0  0  0
  161.1740  206.0440  148.7030 C   0  0  0  0  0  3  0  0  0  0  0  0
  161.1160  205.6650  150.0450 C   0  0  0  0  0  0  0  0  0  0  0  0
  161.2080  205.0670  147.7020 C   0  0  0  0  0  3  0  0  0  0  0  0
  161.6290  206.2200  152.4290 C   0  0  2  0  0  3  0  0  0  0  0  0
  161.2090  204.8130  152.7660 C   0  0  0  0  0  3  0  0  0  0  0  0
  161.2010  202.7090  147.0030 N   0  0  0  0  0  0  0  0  0  0  0  0
  161.0540  201.3780  147.3170 O   0  0  0  0  0  0  0  0  0  0  0  0
  161.3620  203.0380  145.8100 O   0  0  0  0  0  0  0  0  0  0  0  0
  1  5  1  0  0  0  0
  1 17  1  0  0  0  0
  2 12  1  0  0  0  0
  3 15  1  0  0  0  0
  4 21  1  0  0  0  0
  4  5  2  0  0  0  0
  6  8  2  0  0  0  0
  6 10  1  0  0  0  0
  7  6  1  0  0  0  0
  8  4  1  0  0  0  0
  9 10  1  0  0  0  0
  9  3  1  0  0  0  0
 10  1  2  0  0  0  0
 11  9  2  0  0  0  0
 12 13  1  0  0  0  0
 13 18  1  0  0  0  0
 14 13  2  0  0  0  0
 15 17  1  0  0  0  0
 15  2  2  0  0  0  0
 16 14  1  0  0  0  0
 17 16  2  0  0  0  0
 18 20  2  0  0  0  0
 18 19  2  0  0  0  0
 22 31  2  0  0  0  0
 23 30  1  0  0  0  0
 24 25  1  0  0  0  0
 25 26  2  0  0  0  0
 26 22  1  0  0  0  0
 27 28  2  0  0  0  0
 28 26  1  0  0  0  0
 28 23  1  0  0  0  0
 29 24  2  0  0  0  0
 29 27  1  0  0  0  0
 30 31  1  0  0  0  0
 30 21  1  1  0  0  0
 32 33  2  0  0  0  0
 32 24  1  0  0  0  0
 34 32  2  0  0  0  0
M  END
>  <MODEL>
5

>  <REMARK>
 VINA RESULT:      -9.7      2.586      5.024
  Name = 
  4 active torsions:
  status: ('A' for Active; 'I' for Inactive)
    1  A    between atoms: N_3  and  C_25
    2  A    between atoms: C_7  and  N_11
    3  A    between atoms: C_8  and  C_18
    4  A    between atoms: C_18  and  C_30
                            x       y       z     vdW  Elec       q    Type
                         _______ _______ _______ _____ _____    ______ ____

>  <TORSDO>
F 4

$$$$
=
 OpenBabel11062409363D

 34 38  0  0  1  0  0  0  0  0999 V2000
  161.2640  204.0780  148.3720 C   0  0  0  0  0  0  0  0  0  0  0  0
  160.7160  202.3340  145.1810 C   0  0  0  0  0  3  0  0  0  0  0  0
  161.3830  204.4320  145.6550 O   0  0  0  0  0  0  0  0  0  0  0  0
  161.3380  205.0160  150.6230 C   0  0  0  0  0  0  0  0  0  0  0  0
  161.1990  203.9240  149.7700 C   0  0  0  0  0  3  0  0  0  0  0  0
  161.6350  206.4750  148.7130 C   0  0  0  0  0  0  0  0  0  0  0  0
  161.8550  207.7990  148.2310 N   0  0  0  0  0  1  0  0  0  0  0  0
  161.5520  206.2860  150.0930 C   0  0  0  0  0  3  0  0  0  0  0  0
  161.5960  205.4860  146.4320 C   0  0  0  0  0  0  0  0  0  0  0  0
  161.4940  205.3690  147.8330 C   0  0  0  0  0  0  0  0  0  0  0  0
  161.8670  206.5880  145.8850 O   0  0  0  0  0  0  0  0  0  0  0  0
  160.0740  201.0140  145.4410 C   0  0  0  0  0  2  0  0  0  0  0  0
  160.9570  200.0870  146.1970 C   0  0  0  0  0  0  0  0  0  0  0  0
  161.3910  200.4130  147.4100 C   0  0  0  0  0  3  0  0  0  0  0  0
  161.1010  203.2170  146.1090 C   0  0  0  0  0  0  0  0  0  0  0  0
  161.2610  201.7290  148.0600 C   0  0  0  0  0  3  0  0  0  0  0  0
  161.1490  202.9600  147.5100 C   0  0  0  0  0  0  0  0  0  0  0  0
  161.2070  198.7710  145.6820 N   0  0  0  0  0  0  0  0  0  0  0  0
  162.3720  198.3260  145.6290 O   0  0  0  0  0  0  0  0  0  0  0  0
  160.1660  197.9740  145.2610 O   0  0  0  0  0  0  0  0  0  0  0  0
  161.2390  204.8310  152.1010 C   0  0  0  0  0  2  0  0  0  0  0  0
  160.8440  207.0400  155.0530 C   0  0  0  0  0  3  0  0  0  0  0  0
  161.4140  207.3410  152.2460 C   0  0  0  0  0  2  0  0  0  0  0  0
  160.5930  210.7930  154.6900 C   0  0  0  0  0  0  0  0  0  0  0  0
  160.6020  209.5090  155.2580 C   0  0  0  0  0  3  0  0  0  0  0  0
  160.8350  208.3870  154.4590 C   0  0  0  0  0  0  0  0  0  0  0  0
  161.0740  209.8160  152.5140 C   0  0  0  0  0  3  0  0  0  0  0  0
  161.0670  208.5410  153.0810 C   0  0  0  0  0  0  0  0  0  0  0  0
  160.8310  210.9370  153.3140 C   0  0  0  0  0  3  0  0  0  0  0  0
  160.7030  206.0860  152.7730 C   0  0  2  0  0  3  0  0  0  0  0  0
  160.8310  205.9570  154.2690 C   0  0  0  0  0  3  0  0  0  0  0  0
  160.3490  211.9480  155.5040 N   0  0  0  0  0  0  0  0  0  0  0  0
  160.8190  211.9990  156.7950 O   0  0  0  0  0  0  0  0  0  0  0  0
  159.7080  212.9190  155.0510 O   0  0  0  0  0  0  0  0  0  0  0  0
  1  5  1  0  0  0  0
  2 12  1  0  0  0  0
  2 15  2  0  0  0  0
  3 15  1  0  0  0  0
  3  9  1  0  0  0  0
  4 21  1  0  0  0  0
  5  4  2  0  0  0  0
  6  8  2  0  0  0  0
  7  6  1  0  0  0  0
  8  4  1  0  0  0  0
  9 10  1  0  0  0  0
 10  1  2  0  0  0  0
 10  6  1  0  0  0  0
 11  9  2  0  0  0  0
 12 13  1  0  0  0  0
 13 14  2  0  0  0  0
 14 16  1  0  0  0  0
 15 17  1  0  0  0  0
 17 16  2  0  0  0  0
 17  1  1  0  0  0  0
 18 13  1  0  0  0  0
 19 18  2  0  0  0  0
 20 18  2  0  0  0  0
 23 30  1  0  0  0  0
 23 28  1  0  0  0  0
 24 25  1  0  0  0  0
 24 32  1  0  0  0  0
 26 22  1  0  0  0  0
 26 25  2  0  0  0  0
 27 28  2  0  0  0  0
 27 29  1  0  0  0  0
 28 26  1  0  0  0  0
 29 24  2  0  0  0  0
 30 21  1  6  0  0  0
 30 31  1  0  0  0  0
 31 22  2  0  0  0  0
 32 33  2  0  0  0  0
 34 32  2  0  0  0  0
M  END
>  <MODEL>
6

>  <REMARK>
 VINA RESULT:      -9.2      2.514      9.372
  Name = 
  4 active torsions:
  status: ('A' for Active; 'I' for Inactive)
    1  A    between atoms: N_3  and  C_25
    2  A    between atoms: C_7  and  N_11
    3  A    between atoms: C_8  and  C_18
    4  A    between atoms: C_18  and  C_30
                            x       y       z     vdW  Elec       q    Type
                         _______ _______ _______ _____ _____    ______ ____

>  <TORSDO>
F 4

$$$$
=
 OpenBabel11062409363D

 34 38  0  0  1  0  0  0  0  0999 V2000
  160.5530  209.3590  153.2770 C   0  0  0  0  0  0  0  0  0  0  0  0
  161.6000  205.8370  153.1290 C   0  0  0  0  0  3  0  0  0  0  0  0
  160.7340  207.0820  154.7950 O   0  0  0  0  0  0  0  0  0  0  0  0
  160.1440  211.7600  153.1240 C   0  0  0  0  0  0  0  0  0  0  0  0
  160.4610  210.5450  152.5230 C   0  0  0  0  0  3  0  0  0  0  0  0
  159.9760  210.6570  155.2730 C   0  0  0  0  0  0  0  0  0  0  0  0
  159.7230  210.7750  156.6720 N   0  0  0  0  0  1  0  0  0  0  0  0
  159.9070  211.8130  154.4950 C   0  0  0  0  0  3  0  0  0  0  0  0
  160.3570  208.2020  155.3940 C   0  0  0  0  0  0  0  0  0  0  0  0
  160.2990  209.4120  154.6720 C   0  0  0  0  0  0  0  0  0  0  0  0
  160.0770  208.1600  156.6210 O   0  0  0  0  0  0  0  0  0  0  0  0
  162.2970  205.5810  151.8370 C   0  0  0  0  0  2  0  0  0  0  0  0
  161.3980  205.7260  150.6610 C   0  0  0  0  0  0  0  0  0  0  0  0
  160.8000  206.8870  150.4130 C   0  0  0  0  0  3  0  0  0  0  0  0
  161.0450  206.9940  153.5070 C   0  0  0  0  0  0  0  0  0  0  0  0
  160.7590  208.0580  151.3080 C   0  0  0  0  0  3  0  0  0  0  0  0
  160.8480  208.1210  152.6570 C   0  0  0  0  0  0  0  0  0  0  0  0
  161.3050  204.6600  149.7060 N   0  0  0  0  0  0  0  0  0  0  0  0
  161.2070  203.4760  150.0910 O   0  0  0  0  0  0  0  0  0  0  0  0
  161.2980  204.9280  148.3560 O   0  0  0  0  0  0  0  0  0  0  0  0
  160.0790  213.0070  152.3060 C   0  0  0  0  0  2  0  0  0  0  0  0
  158.0710  213.6130  149.2480 C   0  0  0  0  0  3  0  0  0  0  0  0
  160.8300  213.1100  149.9040 C   0  0  0  0  0  2  0  0  0  0  0  0
  159.5200  213.0790  145.7990 C   0  0  0  0  0  0  0  0  0  0  0  0
  158.6080  213.3510  146.8310 C   0  0  0  0  0  3  0  0  0  0  0  0
  159.0260  213.3280  148.1640 C   0  0  0  0  0  0  0  0  0  0  0  0
  161.2800  212.7800  147.4530 C   0  0  0  0  0  3  0  0  0  0  0  0
  160.3660  213.0370  148.4770 C   0  0  0  0  0  0  0  0  0  0  0  0
  160.8570  212.7940  146.1200 C   0  0  0  0  0  3  0  0  0  0  0  0
  159.7060  212.6960  150.8650 C   0  0  2  0  0  3  0  0  0  0  0  0
  158.4010  213.3640  150.5200 C   0  0  0  0  0  3  0  0  0  0  0  0
  159.0960  213.0960  144.4300 N   0  0  0  0  0  0  0  0  0  0  0  0
  159.6220  212.1990  143.5290 O   0  0  0  0  0  0  0  0  0  0  0  0
  158.2450  213.9210  144.0390 O   0  0  0  0  0  0  0  0  0  0  0  0
  1 10  1  0  0  0  0
  2 15  2  0  0  0  0
  3  9  1  0  0  0  0
  4  8  2  0  0  0  0
  5  4  1  0  0  0  0
  5  1  2  0  0  0  0
  6  7  1  0  0  0  0
  8  6  1  0  0  0  0
  9 11  2  0  0  0  0
 10  6  2  0  0  0  0
 10  9  1  0  0  0  0
 12  2  1  0  0  0  0
 13 12  1  0  0  0  0
 14 13  2  0  0  0  0
 14 16  1  0  0  0  0
 15  3  1  0  0  0  0
 16 17  2  0  0  0  0
 17  1  1  0  0  0  0
 17 15  1  0  0  0  0
 18 19  2  0  0  0  0
 18 13  1  0  0  0  0
 20 18  2  0  0  0  0
 21  4  1  0  0  0  0
 22 31  2  0  0  0  0
 23 30  1  0  0  0  0
 24 29  2  0  0  0  0
 24 25  1  0  0  0  0
 25 26  2  0  0  0  0
 26 28  1  0  0  0  0
 26 22  1  0  0  0  0
 27 28  2  0  0  0  0
 28 23  1  0  0  0  0
 29 27  1  0  0  0  0
 30 21  1  1  0  0  0
 31 30  1  0  0  0  0
 32 24  1  0  0  0  0
 33 32  2  0  0  0  0
 34 32  2  0  0  0  0
M  END
>  <MODEL>
7

>  <REMARK>
 VINA RESULT:      -8.6      2.690      6.742
  Name = 
  4 active torsions:
  status: ('A' for Active; 'I' for Inactive)
    1  A    between atoms: N_3  and  C_25
    2  A    between atoms: C_7  and  N_11
    3  A    between atoms: C_8  and  C_18
    4  A    between atoms: C_18  and  C_30
                            x       y       z     vdW  Elec       q    Type
                         _______ _______ _______ _____ _____    ______ ____

>  <TORSDO>
F 4

$$$$
=
 OpenBabel11062409363D

 34 38  0  0  1  0  0  0  0  0999 V2000
  161.4560  207.3530  150.9960 C   0  0  0  0  0  0  0  0  0  0  0  0
  161.1470  204.8520  148.3180 C   0  0  0  0  0  3  0  0  0  0  0  0
  161.9940  206.9390  148.3390 O   0  0  0  0  0  0  0  0  0  0  0  0
  161.3310  208.8640  152.9080 C   0  0  0  0  0  0  0  0  0  0  0  0
  161.1790  207.5950  152.3550 C   0  0  0  0  0  3  0  0  0  0  0  0
  162.0670  209.7140  150.7630 C   0  0  0  0  0  0  0  0  0  0  0  0
  162.5120  210.8330  149.9990 N   0  0  0  0  0  1  0  0  0  0  0  0
  161.7710  209.9180  152.1120 C   0  0  0  0  0  3  0  0  0  0  0  0
  162.2250  208.1440  148.8420 C   0  0  0  0  0  0  0  0  0  0  0  0
  161.9150  208.4250  150.1880 C   0  0  0  0  0  0  0  0  0  0  0  0
  162.7010  209.0280  148.0820 O   0  0  0  0  0  0  0  0  0  0  0  0
  160.3190  203.7110  148.7990 C   0  0  0  0  0  2  0  0  0  0  0  0
  160.9670  202.9570  149.9050 C   0  0  0  0  0  0  0  0  0  0  0  0
  161.2650  203.5670  151.0480 C   0  0  0  0  0  3  0  0  0  0  0  0
  161.5050  205.9220  149.0380 C   0  0  0  0  0  0  0  0  0  0  0  0
  161.2080  205.0170  151.3050 C   0  0  0  0  0  3  0  0  0  0  0  0
  161.3260  206.0550  150.4450 C   0  0  0  0  0  0  0  0  0  0  0  0
  161.1230  201.5350  149.7970 N   0  0  0  0  0  0  0  0  0  0  0  0
  161.1690  200.8260  150.8240 O   0  0  0  0  0  0  0  0  0  0  0  0
  161.2010  200.9310  148.5620 O   0  0  0  0  0  0  0  0  0  0  0  0
  161.0060  209.1000  154.3450 C   0  0  0  0  0  2  0  0  0  0  0  0
  158.3660  211.3910  153.1080 C   0  0  0  0  0  3  0  0  0  0  0  0
  159.0170  210.0460  155.5700 C   0  0  0  0  0  2  0  0  0  0  0  0
  155.9130  213.0320  155.4680 C   0  0  0  0  0  0  0  0  0  0  0  0
  156.6070  212.6930  154.2960 C   0  0  0  0  0  3  0  0  0  0  0  0
  157.6370  211.7490  154.3360 C   0  0  0  0  0  0  0  0  0  0  0  0
  157.2800  211.4540  156.7170 C   0  0  0  0  0  3  0  0  0  0  0  0
  157.9780  211.1310  155.5520 C   0  0  0  0  0  0  0  0  0  0  0  0
  156.2570  212.4060  156.6770 C   0  0  0  0  0  3  0  0  0  0  0  0
  160.0960  210.3080  154.5080 C   0  0  2  0  0  3  0  0  0  0  0  0
  159.4930  210.6760  153.1780 C   0  0  0  0  0  3  0  0  0  0  0  0
  154.8590  214.0040  155.4340 N   0  0  0  0  0  0  0  0  0  0  0  0
  154.3670  214.4530  154.2300 O   0  0  0  0  0  0  0  0  0  0  0  0
  154.3760  214.4530  156.4940 O   0  0  0  0  0  0  0  0  0  0  0  0
  1  5  1  0  0  0  0
  2 12  1  0  0  0  0
  2 15  2  0  0  0  0
  3  9  1  0  0  0  0
  3 15  1  0  0  0  0
  4 21  1  0  0  0  0
  5  4  2  0  0  0  0
  6  8  2  0  0  0  0
  7  6  1  0  0  0  0
  8  4  1  0  0  0  0
  9 10  1  0  0  0  0
 10  6  1  0  0  0  0
 10  1  2  0  0  0  0
 11  9  2  0  0  0  0
 12 13  1  0  0  0  0
 13 14  2  0  0  0  0
 14 16  1  0  0  0  0
 15 17  1  0  0  0  0
 17  1  1  0  0  0  0
 17 16  2  0  0  0  0
 18 13  1  0  0  0  0
 18 19  2  0  0  0  0
 20 18  2  0  0  0  0
 22 31  2  0  0  0  0
 22 26  1  0  0  0  0
 24 29  1  0  0  0  0
 25 26  1  0  0  0  0
 25 24  2  0  0  0  0
 26 28  2  0  0  0  0
 28 23  1  0  0  0  0
 28 27  1  0  0  0  0
 29 27  2  0  0  0  0
 30 21  1  6  0  0  0
 30 23  1  0  0  0  0
 31 30  1  0  0  0  0
 32 24  1  0  0  0  0
 32 34  2  0  0  0  0
 33 32  2  0  0  0  0
M  END
>  <MODEL>
8

>  <REMARK>
 VINA RESULT:      -8.4      3.380      9.040
  Name = 
  4 active torsions:
  status: ('A' for Active; 'I' for Inactive)
    1  A    between atoms: N_3  and  C_25
    2  A    between atoms: C_7  and  N_11
    3  A    between atoms: C_8  and  C_18
    4  A    between atoms: C_18  and  C_30
                            x       y       z     vdW  Elec       q    Type
                         _______ _______ _______ _____ _____    ______ ____

>  <TORSDO>
F 4

$$$$
=
 OpenBabel11062409363D

 34 38  0  0  1  0  0  0  0  0999 V2000
  160.6050  208.9040  152.7540 C   0  0  0  0  0  0  0  0  0  0  0  0
  158.5610  210.4650  155.3820 C   0  0  0  0  0  3  0  0  0  0  0  0
  160.1140  208.8350  155.4510 O   0  0  0  0  0  0  0  0  0  0  0  0
  161.6560  207.9280  150.7800 C   0  0  0  0  0  0  0  0  0  0  0  0
  160.8650  208.9110  151.3700 C   0  0  0  0  0  3  0  0  0  0  0  0
  161.9810  206.8860  152.9410 C   0  0  0  0  0  0  0  0  0  0  0  0
  162.5730  205.8270  153.6920 N   0  0  0  0  0  1  0  0  0  0  0  0
  162.2070  206.9190  151.5650 C   0  0  0  0  0  3  0  0  0  0  0  0
  160.9320  207.9250  154.9420 C   0  0  0  0  0  0  0  0  0  0  0  0
  161.1760  207.8820  153.5550 C   0  0  0  0  0  0  0  0  0  0  0  0
  161.4620  207.0920  155.7250 O   0  0  0  0  0  0  0  0  0  0  0  0
  157.5420  211.3540  154.7550 C   0  0  0  0  0  2  0  0  0  0  0  0
  158.1480  212.5140  154.0510 C   0  0  0  0  0  0  0  0  0  0  0  0
  158.9880  212.3210  153.0390 C   0  0  0  0  0  3  0  0  0  0  0  0
  159.5040  209.7710  154.7340 C   0  0  0  0  0  0  0  0  0  0  0  0
  159.5770  211.0350  152.6260 C   0  0  0  0  0  3  0  0  0  0  0  0
  159.8230  209.9210  153.3540 C   0  0  0  0  0  0  0  0  0  0  0  0
  157.7010  213.8420  154.3600 N   0  0  0  0  0  0  0  0  0  0  0  0
  156.9500  214.4530  153.5710 O   0  0  0  0  0  0  0  0  0  0  0  0
  158.0730  214.4500  155.5370 O   0  0  0  0  0  0  0  0  0  0  0  0
  161.8960  207.9430  149.3070 C   0  0  0  0  0  2  0  0  0  0  0  0
  161.0050  204.3440  149.3160 C   0  0  0  0  0  3  0  0  0  0  0  0
  161.4000  206.4210  147.3610 C   0  0  0  0  0  2  0  0  0  0  0  0
  160.9400  202.3190  146.1260 C   0  0  0  0  0  0  0  0  0  0  0  0
  160.8820  202.6590  147.4870 C   0  0  0  0  0  3  0  0  0  0  0  0
  161.0650  203.9850  147.8900 C   0  0  0  0  0  0  0  0  0  0  0  0
  161.3460  204.6540  145.5750 C   0  0  0  0  0  3  0  0  0  0  0  0
  161.3020  204.9850  146.9300 C   0  0  0  0  0  0  0  0  0  0  0  0
  161.1730  203.3260  145.1750 C   0  0  0  0  0  3  0  0  0  0  0  0
  162.0240  206.5300  148.7600 C   0  0  2  0  0  3  0  0  0  0  0  0
  161.4080  205.5510  149.7250 C   0  0  0  0  0  3  0  0  0  0  0  0
  160.7590  200.9600  145.7070 N   0  0  0  0  0  0  0  0  0  0  0  0
  161.3570  199.9340  146.4020 O   0  0  0  0  0  0  0  0  0  0  0  0
  160.0580  200.6910  144.7100 O   0  0  0  0  0  0  0  0  0  0  0  0
  1 17  1  0  0  0  0
  1 10  1  0  0  0  0
  4  5  1  0  0  0  0
  4  8  2  0  0  0  0
  5  1  2  0  0  0  0
  6 10  2  0  0  0  0
  6  7  1  0  0  0  0
  8  6  1  0  0  0  0
  9  3  1  0  0  0  0
  9 11  2  0  0  0  0
 10  9  1  0  0  0  0
 12  2  1  0  0  0  0
 13 18  1  0  0  0  0
 13 12  1  0  0  0  0
 14 13  2  0  0  0  0
 15  2  2  0  0  0  0
 15  3  1  0  0  0  0
 16 14  1  0  0  0  0
 16 17  2  0  0  0  0
 17 15  1  0  0  0  0
 18 20  2  0  0  0  0
 19 18  2  0  0  0  0
 21  4  1  0  0  0  0
 22 31  2  0  0  0  0
 23 30  1  0  0  0  0
 24 25  1  0  0  0  0
 25 26  2  0  0  0  0
 26 22  1  0  0  0  0
 27 28  2  0  0  0  0
 28 23  1  0  0  0  0
 28 26  1  0  0  0  0
 29 27  1  0  0  0  0
 29 24  2  0  0  0  0
 30 21  1  1  0  0  0
 30 31  1  0  0  0  0
 32 24  1  0  0  0  0
 32 33  2  0  0  0  0
 34 32  2  0  0  0  0
M  END
>  <MODEL>
9

>  <REMARK>
 VINA RESULT:      -7.9      3.278      4.334
  Name = 
  4 active torsions:
  status: ('A' for Active; 'I' for Inactive)
    1  A    between atoms: N_3  and  C_25
    2  A    between atoms: C_7  and  N_11
    3  A    between atoms: C_8  and  C_18
    4  A    between atoms: C_18  and  C_30
                            x       y       z     vdW  Elec       q    Type
                         _______ _______ _______ _____ _____    ______ ____

>  <TORSDO>
F 4

$$$$
