=
 OpenBabel11062410073D

 43 50  0  0  1  0  0  0  0  0999 V2000
  161.2330  203.2400  147.4680 C   0  0  0  0  0  0  0  0  0  0  0  0
  161.8350  207.7080  149.6900 N   0  0  0  0  0  0  0  0  0  0  0  0
  160.9910  207.2590  152.3280 C   0  0  0  0  0  0  0  0  0  0  0  0
  161.7080  205.5770  147.9230 C   0  0  0  0  0  0  0  0  0  0  0  0
  160.7850  203.0700  148.7790 C   0  0  0  0  0  3  0  0  0  0  0  0
  161.2210  202.1940  146.6070 F   0  0  0  0  0  0  0  0  0  0  0  0
  161.2640  205.4080  149.2540 C   0  0  0  0  0  0  0  0  0  0  0  0
  161.6930  204.4890  147.0440 C   0  0  0  0  0  3  0  0  0  0  0  0
  160.8010  204.1480  149.6670 C   0  0  0  0  0  3  0  0  0  0  0  0
  160.9000  206.2800  151.4790 N   0  0  0  0  0  0  0  0  0  0  0  0
  161.3160  206.4350  150.1140 C   0  0  0  0  0  0  0  0  0  0  0  0
  162.1730  207.9550  148.2880 C   0  0  0  0  0  2  0  0  0  0  0  0
  161.9460  208.7740  150.6480 C   0  0  0  0  0  0  0  0  0  0  0  0
  161.5560  208.5610  151.9130 C   0  0  0  0  0  3  0  0  0  0  0  0
  162.1380  206.7260  147.4910 N   0  0  0  0  0  0  0  0  0  0  0  0
  160.5670  207.0430  153.7440 C   0  0  2  0  0  3  0  0  0  0  0  0
  161.1740  208.0750  154.6180 C   0  0  2  0  0  3  0  0  0  0  0  0
  161.6870  206.7660  154.5510 O   0  0  0  0  0  0  0  0  0  0  0  0
  160.3580  208.2380  155.8540 C   0  0  0  0  0  0  0  0  0  0  0  0
  160.1540  207.2480  156.6110 O   0  0  0  0  0  0  0  0  0  0  0  0
  159.8500  209.5000  156.1760 O   0  0  0  0  0  0  0  0  0  0  0  0
  160.5750  210.7010  155.9320 C   0  0  2  0  0  3  0  0  0  0  0  0
  159.5920  213.3330  155.9330 S   0  0  0  0  0  0  0  0  0  0  0  0
  158.8510  211.2340  153.9920 C   0  0  2  0  0  3  0  0  0  0  0  0
  160.8920  211.3620  157.2590 C   0  0  0  0  0  2  0  0  0  0  0  0
  159.7330  211.6970  155.1550 C   0  0  2  0  0  0  0  0  0  0  0  0
  160.2280  211.8330  153.7340 C   0  0  0  0  0  2  0  0  0  0  0  0
  160.9530  212.8650  157.0420 C   0  0  0  0  0  2  0  0  0  0  0  0
  157.7440  212.2010  153.6850 C   0  0  0  0  0  0  0  0  0  0  0  0
  155.6040  213.2160  154.2320 C   0  0  0  0  0  3  0  0  0  0  0  0
  156.8870  214.0430  152.3510 C   0  0  0  0  0  3  0  0  0  0  0  0
  155.7440  214.0980  153.1550 C   0  0  0  0  0  3  0  0  0  0  0  0
  157.8870  213.1020  152.6200 C   0  0  0  0  0  3  0  0  0  0  0  0
  156.6040  212.2760  154.5010 C   0  0  0  0  0  3  0  0  0  0  0  0
  162.4920  210.0050  150.2390 O   0  0  0  0  0  0  0  0  0  0  0  0
  160.3060  213.0170  149.8920 C   0  0  0  0  0  3  0  0  0  0  0  0
  160.4280  213.2590  148.5200 C   0  0  0  0  0  0  0  0  0  0  0  0
  161.9140  211.3500  148.3260 C   0  0  0  0  0  3  0  0  0  0  0  0
  160.9860  211.9460  150.4780 C   0  0  0  0  0  3  0  0  0  0  0  0
  161.8040  211.1060  149.7000 C   0  0  0  0  0  0  0  0  0  0  0  0
  161.2330  212.4210  147.7370 C   0  0  0  0  0  3  0  0  0  0  0  0
  159.0410  214.2510  146.8640 O   0  0  0  0  0  0  0  0  0  0  0  0
  159.7070  214.3880  147.9250 C   0  0  0  0  0  3  0  0  0  0  0  0
  1  5  1  0  0  0  0
  2 11  1  0  0  0  0
  2 13  1  0  0  0  0
  4  7  1  0  0  0  0
  5  9  2  0  0  0  0
  6  1  1  0  0  0  0
  7  9  1  0  0  0  0
  7 11  2  0  0  0  0
  8  1  2  0  0  0  0
  8  4  1  0  0  0  0
 10  3  2  0  0  0  0
 11 10  1  0  0  0  0
 12  2  1  0  0  0  0
 13 14  2  0  0  0  0
 14  3  1  0  0  0  0
 15  4  2  0  0  0  0
 15 12  1  0  0  0  0
 16  3  1  6  0  0  0
 16 18  1  0  0  0  0
 16 17  1  0  0  0  0
 17 19  1  1  0  0  0
 18 17  1  0  0  0  0
 19 21  1  0  0  0  0
 19 20  2  0  0  0  0
 22 21  1  1  0  0  0
 22 25  1  0  0  0  0
 23 28  1  0  0  0  0
 24 29  1  6  0  0  0
 24 26  1  0  0  0  0
 26 27  1  6  0  0  0
 26 22  1  0  0  0  0
 26 23  1  0  0  0  0
 27 24  1  0  0  0  0
 28 25  1  0  0  0  0
 29 34  1  0  0  0  0
 30 34  2  0  0  0  0
 31 33  1  0  0  0  0
 31 32  2  0  0  0  0
 32 30  1  0  0  0  0
 33 29  2  0  0  0  0
 35 13  1  0  0  0  0
 36 39  1  0  0  0  0
 37 36  2  0  0  0  0
 38 40  1  0  0  0  0
 40 35  1  0  0  0  0
 40 39  2  0  0  0  0
 41 38  2  0  0  0  0
 41 37  1  0  0  0  0
 42 43  2  0  0  0  0
 43 37  1  0  0  0  0
M  END
>  <MODEL>
1

>  <REMARK>
 VINA RESULT:      -8.8      0.000      0.000
  Name = 
  8 active torsions:
  status: ('A' for Active; 'I' for Inactive)
    1  A    between atoms: O_1  and  C_34
    2  A    between atoms: O_1  and  C_35
    3  A    between atoms: C_2  and  C_13
    4  A    between atoms: O_3  and  C_4
    5  A    between atoms: O_3  and  C_12
    6  A    between atoms: C_6  and  C_12
    7  A    between atoms: C_11  and  C_14
    8  A    between atoms: C_19  and  C_37
                            x       y       z     vdW  Elec       q    Type
                         _______ _______ _______ _____ _____    ______ ____

>  <TORSDO>
F 8

$$$$
=
 OpenBabel11062410073D

 43 50  0  0  1  0  0  0  0  0999 V2000
  160.8320  202.0410  147.3500 C   0  0  0  0  0  0  0  0  0  0  0  0
  161.1790  205.1170  151.3090 N   0  0  0  0  0  0  0  0  0  0  0  0
  162.1200  207.5190  150.2060 C   0  0  0  0  0  0  0  0  0  0  0  0
  160.8050  202.9760  149.5910 C   0  0  0  0  0  0  0  0  0  0  0  0
  161.3370  203.2410  146.8490 C   0  0  0  0  0  3  0  0  0  0  0  0
  160.6000  201.0010  146.5130 F   0  0  0  0  0  0  0  0  0  0  0  0
  161.3080  204.1970  149.0860 C   0  0  0  0  0  0  0  0  0  0  0  0
  160.5670  201.9100  148.7150 C   0  0  0  0  0  3  0  0  0  0  0  0
  161.5730  204.3130  147.7120 C   0  0  0  0  0  3  0  0  0  0  0  0
  161.9780  206.4960  149.4180 N   0  0  0  0  0  0  0  0  0  0  0  0
  161.4980  205.2360  149.9120 C   0  0  0  0  0  0  0  0  0  0  0  0
  160.7880  203.8300  151.8870 C   0  0  0  0  0  2  0  0  0  0  0  0
  161.3250  206.2650  152.1620 C   0  0  0  0  0  0  0  0  0  0  0  0
  161.7610  207.4190  151.6370 C   0  0  0  0  0  3  0  0  0  0  0  0
  160.5510  202.8170  150.8560 N   0  0  0  0  0  0  0  0  0  0  0  0
  162.6010  208.8160  149.6420 C   0  0  2  0  0  3  0  0  0  0  0  0
  161.5540  209.4120  148.7780 C   0  0  2  0  0  3  0  0  0  0  0  0
  162.6670  208.7410  148.2370 O   0  0  0  0  0  0  0  0  0  0  0  0
  161.7530  210.8860  148.6820 C   0  0  0  0  0  0  0  0  0  0  0  0
  162.0430  211.5520  149.7140 O   0  0  0  0  0  0  0  0  0  0  0  0
  161.6430  211.5100  147.4360 O   0  0  0  0  0  0  0  0  0  0  0  0
  161.1350  212.8320  147.2860 C   0  0  2  0  0  3  0  0  0  0  0  0
  159.9440  213.9670  145.0090 S   0  0  0  0  0  0  0  0  0  0  0  0
  162.7650  213.1210  145.2180 C   0  0  2  0  0  3  0  0  0  0  0  0
  159.6250  212.7970  147.4300 C   0  0  0  0  0  2  0  0  0  0  0  0
  161.4130  213.3670  145.8930 C   0  0  2  0  0  0  0  0  0  0  0  0
  162.4780  214.4380  145.9260 C   0  0  0  0  0  2  0  0  0  0  0  0
  159.0390  213.9150  146.5840 C   0  0  0  0  0  2  0  0  0  0  0  0
  162.6980  213.2540  143.7230 C   0  0  0  0  0  0  0  0  0  0  0  0
  163.2270  214.4530  141.6750 C   0  0  0  0  0  3  0  0  0  0  0  0
  162.1280  212.2960  141.5630 C   0  0  0  0  0  3  0  0  0  0  0  0
  162.6630  213.4190  140.9220 C   0  0  0  0  0  3  0  0  0  0  0  0
  162.1520  212.2120  142.9600 C   0  0  0  0  0  3  0  0  0  0  0  0
  163.2520  214.3670  143.0720 C   0  0  0  0  0  3  0  0  0  0  0  0
  160.9720  206.1560  153.5210 O   0  0  0  0  0  0  0  0  0  0  0  0
  159.9720  208.0550  156.5800 C   0  0  0  0  0  3  0  0  0  0  0  0
  160.0600  209.3660  156.1020 C   0  0  0  0  0  0  0  0  0  0  0  0
  160.7540  208.5180  153.9370 C   0  0  0  0  0  3  0  0  0  0  0  0
  160.2750  206.9800  155.7400 C   0  0  0  0  0  3  0  0  0  0  0  0
  160.6760  207.2030  154.4110 C   0  0  0  0  0  0  0  0  0  0  0  0
  160.4510  209.5950  154.7760 C   0  0  0  0  0  3  0  0  0  0  0  0
  158.8990  211.3600  156.6740 O   0  0  0  0  0  0  0  0  0  0  0  0
  159.7400  210.4790  157.0010 C   0  0  0  0  0  3  0  0  0  0  0  0
  1  8  2  0  0  0  0
  2 12  1  0  0  0  0
  2 13  1  0  0  0  0
  3 14  1  0  0  0  0
  4 15  2  0  0  0  0
  5  1  1  0  0  0  0
  5  9  2  0  0  0  0
  6  1  1  0  0  0  0
  7  4  1  0  0  0  0
  7 11  2  0  0  0  0
  8  4  1  0  0  0  0
  9  7  1  0  0  0  0
 10 11  1  0  0  0  0
 10  3  2  0  0  0  0
 11  2  1  0  0  0  0
 13 35  1  0  0  0  0
 14 13  2  0  0  0  0
 15 12  1  0  0  0  0
 16  3  1  1  0  0  0
 17 19  1  6  0  0  0
 17 16  1  0  0  0  0
 18 17  1  0  0  0  0
 18 16  1  0  0  0  0
 19 20  2  0  0  0  0
 21 19  1  0  0  0  0
 22 25  1  0  0  0  0
 22 21  1  6  0  0  0
 23 26  1  0  0  0  0
 23 28  1  0  0  0  0
 24 29  1  6  0  0  0
 24 26  1  0  0  0  0
 24 27  1  0  0  0  0
 26 27  1  1  0  0  0
 26 22  1  0  0  0  0
 28 25  1  0  0  0  0
 30 34  2  0  0  0  0
 31 33  1  0  0  0  0
 32 31  2  0  0  0  0
 32 30  1  0  0  0  0
 33 29  2  0  0  0  0
 34 29  1  0  0  0  0
 35 40  1  0  0  0  0
 37 36  1  0  0  0  0
 37 43  1  0  0  0  0
 38 40  2  0  0  0  0
 38 41  1  0  0  0  0
 39 36  2  0  0  0  0
 40 39  1  0  0  0  0
 41 37  2  0  0  0  0
 42 43  2  0  0  0  0
M  END
>  <MODEL>
2

>  <REMARK>
 VINA RESULT:      -8.4      3.143      7.869
  Name = 
  8 active torsions:
  status: ('A' for Active; 'I' for Inactive)
    1  A    between atoms: O_1  and  C_34
    2  A    between atoms: O_1  and  C_35
    3  A    between atoms: C_2  and  C_13
    4  A    between atoms: O_3  and  C_4
    5  A    between atoms: O_3  and  C_12
    6  A    between atoms: C_6  and  C_12
    7  A    between atoms: C_11  and  C_14
    8  A    between atoms: C_19  and  C_37
                            x       y       z     vdW  Elec       q    Type
                         _______ _______ _______ _____ _____    ______ ____

>  <TORSDO>
F 8

$$$$
=
 OpenBabel11062410073D

 43 50  0  0  1  0  0  0  0  0999 V2000
  159.1090  211.6550  156.2210 C   0  0  0  0  0  0  0  0  0  0  0  0
  161.1460  208.2370  153.1500 N   0  0  0  0  0  0  0  0  0  0  0  0
  161.9650  209.7420  150.9280 C   0  0  0  0  0  0  0  0  0  0  0  0
  159.8940  209.5860  155.2220 C   0  0  0  0  0  0  0  0  0  0  0  0
  159.4950  212.3590  155.0800 C   0  0  0  0  0  3  0  0  0  0  0  0
  158.5390  212.3090  157.2610 F   0  0  0  0  0  0  0  0  0  0  0  0
  160.2960  210.2960  154.0680 C   0  0  0  0  0  0  0  0  0  0  0  0
  159.3090  210.2740  156.2900 C   0  0  0  0  0  3  0  0  0  0  0  0
  160.0860  211.6840  154.0090 C   0  0  0  0  0  3  0  0  0  0  0  0
  161.3410  210.3550  151.8890 N   0  0  0  0  0  0  0  0  0  0  0  0
  160.8970  209.6510  153.0580 C   0  0  0  0  0  0  0  0  0  0  0  0
  160.6220  207.4500  154.2670 C   0  0  0  0  0  2  0  0  0  0  0  0
  161.8540  207.5790  152.0850 C   0  0  0  0  0  0  0  0  0  0  0  0
  162.2590  208.2960  151.0270 C   0  0  0  0  0  3  0  0  0  0  0  0
  160.0600  208.2990  155.3200 N   0  0  0  0  0  0  0  0  0  0  0  0
  162.4290  210.5220  149.7410 C   0  0  2  0  0  3  0  0  0  0  0  0
  161.3580  210.5700  148.7170 C   0  0  2  0  0  3  0  0  0  0  0  0
  162.4570  209.6990  148.5980 O   0  0  0  0  0  0  0  0  0  0  0  0
  161.5510  211.7560  147.8350 C   0  0  0  0  0  0  0  0  0  0  0  0
  162.5120  212.5470  148.0440 O   0  0  0  0  0  0  0  0  0  0  0  0
  160.6760  211.9610  146.7650 O   0  0  0  0  0  0  0  0  0  0  0  0
  160.2540  213.2590  146.3610 C   0  0  2  0  0  3  0  0  0  0  0  0
  158.9630  213.9810  143.9720 S   0  0  0  0  0  0  0  0  0  0  0  0
  161.7240  212.9540  144.1780 C   0  0  2  0  0  3  0  0  0  0  0  0
  158.7630  213.3890  146.6060 C   0  0  0  0  0  2  0  0  0  0  0  0
  160.4530  213.4570  144.8690 C   0  0  2  0  0  0  0  0  0  0  0  0
  161.5920  214.4130  144.5970 C   0  0  0  0  0  2  0  0  0  0  0  0
  158.1900  214.3470  145.5750 C   0  0  0  0  0  2  0  0  0  0  0  0
  161.5440  212.7690  142.6990 C   0  0  0  0  0  0  0  0  0  0  0  0
  161.9510  213.4770  140.4090 C   0  0  0  0  0  3  0  0  0  0  0  0
  160.7730  211.4050  140.8410 C   0  0  0  0  0  3  0  0  0  0  0  0
  161.2930  212.3360  139.9370 C   0  0  0  0  0  3  0  0  0  0  0  0
  160.9040  211.6180  142.2180 C   0  0  0  0  0  3  0  0  0  0  0  0
  162.0830  213.6890  141.7850 C   0  0  0  0  0  3  0  0  0  0  0  0
  162.1320  206.2040  152.1990 O   0  0  0  0  0  0  0  0  0  0  0  0
  160.8500  204.3300  149.2300 C   0  0  0  0  0  3  0  0  0  0  0  0
  160.7400  203.0460  149.7720 C   0  0  0  0  0  0  0  0  0  0  0  0
  161.5580  203.8840  151.8970 C   0  0  0  0  0  3  0  0  0  0  0  0
  161.3130  205.3870  150.0180 C   0  0  0  0  0  3  0  0  0  0  0  0
  161.6790  205.1710  151.3590 C   0  0  0  0  0  0  0  0  0  0  0  0
  161.0940  202.8260  151.1100 C   0  0  0  0  0  3  0  0  0  0  0  0
  160.8530  200.8440  148.8830 O   0  0  0  0  0  0  0  0  0  0  0  0
  160.2530  201.9520  148.9260 C   0  0  0  0  0  3  0  0  0  0  0  0
  1  8  2  0  0  0  0
  1  6  1  0  0  0  0
  2 12  1  0  0  0  0
  3 14  1  0  0  0  0
  3 10  2  0  0  0  0
  4 15  2  0  0  0  0
  4  8  1  0  0  0  0
  5  1  1  0  0  0  0
  7  4  1  0  0  0  0
  9  7  1  0  0  0  0
  9  5  2  0  0  0  0
 10 11  1  0  0  0  0
 11  2  1  0  0  0  0
 11  7  2  0  0  0  0
 12 15  1  0  0  0  0
 13 35  1  0  0  0  0
 13  2  1  0  0  0  0
 14 13  2  0  0  0  0
 16  3  1  1  0  0  0
 17 19  1  6  0  0  0
 17 16  1  0  0  0  0
 18 17  1  0  0  0  0
 18 16  1  0  0  0  0
 19 20  2  0  0  0  0
 21 19  1  0  0  0  0
 22 25  1  0  0  0  0
 22 21  1  6  0  0  0
 23 26  1  0  0  0  0
 23 28  1  0  0  0  0
 24 29  1  6  0  0  0
 24 27  1  0  0  0  0
 24 26  1  0  0  0  0
 26 27  1  1  0  0  0
 26 22  1  0  0  0  0
 28 25  1  0  0  0  0
 30 34  1  0  0  0  0
 31 33  2  0  0  0  0
 32 30  2  0  0  0  0
 32 31  1  0  0  0  0
 33 29  1  0  0  0  0
 34 29  2  0  0  0  0
 36 37  2  0  0  0  0
 36 39  1  0  0  0  0
 37 41  1  0  0  0  0
 39 40  2  0  0  0  0
 40 38  1  0  0  0  0
 40 35  1  0  0  0  0
 41 38  2  0  0  0  0
 42 43  2  0  0  0  0
 43 37  1  0  0  0  0
M  END
>  <MODEL>
3

>  <REMARK>
 VINA RESULT:      -8.2      4.435      9.700
  Name = 
  8 active torsions:
  status: ('A' for Active; 'I' for Inactive)
    1  A    between atoms: O_1  and  C_34
    2  A    between atoms: O_1  and  C_35
    3  A    between atoms: C_2  and  C_13
    4  A    between atoms: O_3  and  C_4
    5  A    between atoms: O_3  and  C_12
    6  A    between atoms: C_6  and  C_12
    7  A    between atoms: C_11  and  C_14
    8  A    between atoms: C_19  and  C_37
                            x       y       z     vdW  Elec       q    Type
                         _______ _______ _______ _____ _____    ______ ____

>  <TORSDO>
F 8

$$$$
=
 OpenBabel11062410073D

 43 50  0  0  1  0  0  0  0  0999 V2000
  160.4410  206.9900  155.1250 C   0  0  0  0  0  0  0  0  0  0  0  0
  162.0290  207.2850  150.3650 N   0  0  0  0  0  0  0  0  0  0  0  0
  162.0200  210.0390  149.8290 C   0  0  0  0  0  0  0  0  0  0  0  0
  161.2020  206.4640  152.8800 C   0  0  0  0  0  0  0  0  0  0  0  0
  160.4140  208.3470  154.8040 C   0  0  0  0  0  3  0  0  0  0  0  0
  160.0850  206.5790  156.3660 F   0  0  0  0  0  0  0  0  0  0  0  0
  161.1850  207.8390  152.5520 C   0  0  0  0  0  0  0  0  0  0  0  0
  160.8340  206.0530  154.1650 C   0  0  0  0  0  3  0  0  0  0  0  0
  160.7840  208.7700  153.5250 C   0  0  0  0  0  3  0  0  0  0  0  0
  161.5970  209.6380  150.9910 N   0  0  0  0  0  0  0  0  0  0  0  0
  161.5770  208.2450  151.3360 C   0  0  0  0  0  0  0  0  0  0  0  0
  161.9290  205.8470  150.6220 C   0  0  0  0  0  2  0  0  0  0  0  0
  162.5100  207.7490  149.0920 C   0  0  0  0  0  0  0  0  0  0  0  0
  162.5200  209.0650  148.8360 C   0  0  0  0  0  3  0  0  0  0  0  0
  161.5580  205.5640  152.0110 N   0  0  0  0  0  0  0  0  0  0  0  0
  162.0440  211.5010  149.5240 C   0  0  2  0  0  3  0  0  0  0  0  0
  160.6840  211.9640  149.1590 C   0  0  2  0  0  3  0  0  0  0  0  0
  161.6710  211.7250  148.1850 O   0  0  0  0  0  0  0  0  0  0  0  0
  160.5610  213.4280  149.4090 C   0  0  0  0  0  0  0  0  0  0  0  0
  161.1350  214.2500  148.6410 O   0  0  0  0  0  0  0  0  0  0  0  0
  159.7830  213.8750  150.4810 O   0  0  0  0  0  0  0  0  0  0  0  0
  158.4780  213.3700  150.7400 C   0  0  2  0  0  3  0  0  0  0  0  0
  156.8710  213.8370  152.9970 S   0  0  0  0  0  0  0  0  0  0  0  0
  159.4230  212.3520  152.9960 C   0  0  2  0  0  3  0  0  0  0  0  0
  157.4610  214.4520  150.4280 C   0  0  0  0  0  2  0  0  0  0  0  0
  158.3030  213.0420  152.2120 C   0  0  2  0  0  0  0  0  0  0  0  0
  158.2590  211.5480  152.4330 C   0  0  0  0  0  2  0  0  0  0  0  0
  156.2610  214.2580  151.3390 C   0  0  0  0  0  2  0  0  0  0  0  0
  159.3060  212.5610  154.4790 C   0  0  0  0  0  0  0  0  0  0  0  0
  158.8340  211.7130  156.7080 C   0  0  0  0  0  3  0  0  0  0  0  0
  159.6430  213.9780  156.4230 C   0  0  0  0  0  3  0  0  0  0  0  0
  159.2080  212.9430  157.2570 C   0  0  0  0  0  3  0  0  0  0  0  0
  159.6980  213.7850  155.0390 C   0  0  0  0  0  3  0  0  0  0  0  0
  158.8900  211.5190  155.3230 C   0  0  0  0  0  3  0  0  0  0  0  0
  162.9890  206.8090  148.1600 O   0  0  0  0  0  0  0  0  0  0  0  0
  160.3280  205.9040  145.6960 C   0  0  0  0  0  3  0  0  0  0  0  0
  160.8140  204.6740  145.2420 C   0  0  0  0  0  0  0  0  0  0  0  0
  162.7240  204.8940  146.7230 C   0  0  0  0  0  3  0  0  0  0  0  0
  161.0380  206.6260  146.6590 C   0  0  0  0  0  3  0  0  0  0  0  0
  162.2480  206.1300  147.1760 C   0  0  0  0  0  0  0  0  0  0  0  0
  162.0150  204.1700  145.7600 C   0  0  0  0  0  3  0  0  0  0  0  0
  159.6130  202.7760  144.4640 O   0  0  0  0  0  0  0  0  0  0  0  0
  160.0540  203.9340  144.2300 C   0  0  0  0  0  3  0  0  0  0  0  0
  1  6  1  0  0  0  0
  2 12  1  0  0  0  0
  2 11  1  0  0  0  0
  3 10  2  0  0  0  0
  4  8  1  0  0  0  0
  5  1  1  0  0  0  0
  7  4  1  0  0  0  0
  7  9  1  0  0  0  0
  8  1  2  0  0  0  0
  9  5  2  0  0  0  0
 10 11  1  0  0  0  0
 11  7  2  0  0  0  0
 12 15  1  0  0  0  0
 13  2  1  0  0  0  0
 14 13  2  0  0  0  0
 14  3  1  0  0  0  0
 15  4  2  0  0  0  0
 16  3  1  6  0  0  0
 17 19  1  1  0  0  0
 17 16  1  0  0  0  0
 18 17  1  0  0  0  0
 18 16  1  0  0  0  0
 19 21  1  0  0  0  0
 20 19  2  0  0  0  0
 22 21  1  1  0  0  0
 22 26  1  0  0  0  0
 24 29  1  1  0  0  0
 25 22  1  0  0  0  0
 25 28  1  0  0  0  0
 26 27  1  6  0  0  0
 26 24  1  0  0  0  0
 26 23  1  0  0  0  0
 27 24  1  0  0  0  0
 28 23  1  0  0  0  0
 29 33  2  0  0  0  0
 29 34  1  0  0  0  0
 30 32  1  0  0  0  0
 31 32  2  0  0  0  0
 33 31  1  0  0  0  0
 34 30  2  0  0  0  0
 35 13  1  0  0  0  0
 36 39  1  0  0  0  0
 37 36  2  0  0  0  0
 37 41  1  0  0  0  0
 38 40  1  0  0  0  0
 39 40  2  0  0  0  0
 40 35  1  0  0  0  0
 41 38  2  0  0  0  0
 43 42  2  0  0  0  0
 43 37  1  0  0  0  0
M  END
>  <MODEL>
4

>  <REMARK>
 VINA RESULT:      -7.5      3.107      6.400
  Name = 
  8 active torsions:
  status: ('A' for Active; 'I' for Inactive)
    1  A    between atoms: O_1  and  C_34
    2  A    between atoms: O_1  and  C_35
    3  A    between atoms: C_2  and  C_13
    4  A    between atoms: O_3  and  C_4
    5  A    between atoms: O_3  and  C_12
    6  A    between atoms: C_6  and  C_12
    7  A    between atoms: C_11  and  C_14
    8  A    between atoms: C_19  and  C_37
                            x       y       z     vdW  Elec       q    Type
                         _______ _______ _______ _____ _____    ______ ____

>  <TORSDO>
F 8

$$$$
=
 OpenBabel11062410073D

 43 50  0  0  1  0  0  0  0  0999 V2000
  155.7900  212.2720  156.2260 C   0  0  0  0  0  0  0  0  0  0  0  0
  158.7540  213.0730  152.2460 N   0  0  0  0  0  0  0  0  0  0  0  0
  160.6030  210.9660  152.3580 C   0  0  0  0  0  0  0  0  0  0  0  0
  156.8320  213.2010  154.2390 C   0  0  0  0  0  0  0  0  0  0  0  0
  156.7530  211.2640  156.2660 C   0  0  0  0  0  3  0  0  0  0  0  0
  154.8160  212.3180  157.1660 F   0  0  0  0  0  0  0  0  0  0  0  0
  157.8050  212.1750  154.2710 C   0  0  0  0  0  0  0  0  0  0  0  0
  155.8300  213.2360  155.2150 C   0  0  0  0  0  3  0  0  0  0  0  0
  157.7550  211.2150  155.2940 C   0  0  0  0  0  3  0  0  0  0  0  0
  159.7220  211.0600  153.3080 N   0  0  0  0  0  0  0  0  0  0  0  0
  158.7420  212.1100  153.3140 C   0  0  0  0  0  0  0  0  0  0  0  0
  157.8500  214.2240  152.2590 C   0  0  0  0  0  2  0  0  0  0  0  0
  159.7260  212.9420  151.1950 C   0  0  0  0  0  0  0  0  0  0  0  0
  160.6030  211.9290  151.2370 C   0  0  0  0  0  3  0  0  0  0  0  0
  156.8410  214.1170  153.3160 N   0  0  0  0  0  0  0  0  0  0  0  0
  161.5880  209.8430  152.3830 C   0  0  2  0  0  3  0  0  0  0  0  0
  161.0230  208.6590  151.6930 C   0  0  2  0  0  3  0  0  0  0  0  0
  161.0620  208.7490  153.0970 O   0  0  0  0  0  0  0  0  0  0  0  0
  162.1240  207.7790  151.2090 C   0  0  0  0  0  0  0  0  0  0  0  0
  163.0760  208.2690  150.5410 O   0  0  0  0  0  0  0  0  0  0  0  0
  162.1010  206.4180  151.5290 O   0  0  0  0  0  0  0  0  0  0  0  0
  160.9920  205.5800  151.2250 C   0  0  2  0  0  3  0  0  0  0  0  0
  160.8370  203.5790  149.2580 S   0  0  0  0  0  0  0  0  0  0  0  0
  161.1240  206.4700  148.7330 C   0  0  2  0  0  3  0  0  0  0  0  0
  161.2130  204.2210  151.8620 C   0  0  0  0  0  2  0  0  0  0  0  0
  160.8890  205.3330  149.7300 C   0  0  2  0  0  0  0  0  0  0  0  0
  159.7120  206.0700  149.1380 C   0  0  0  0  0  2  0  0  0  0  0  0
  160.5270  203.1730  151.0020 C   0  0  0  0  0  2  0  0  0  0  0  0
  161.4850  205.9740  147.3620 C   0  0  0  0  0  0  0  0  0  0  0  0
  162.9820  204.7760  145.8680 C   0  0  0  0  0  3  0  0  0  0  0  0
  160.8740  205.6300  145.0350 C   0  0  0  0  0  3  0  0  0  0  0  0
  162.0790  204.9550  144.8160 C   0  0  0  0  0  3  0  0  0  0  0  0
  160.5750  206.1320  146.3070 C   0  0  0  0  0  3  0  0  0  0  0  0
  162.6830  205.2770  147.1400 C   0  0  0  0  0  3  0  0  0  0  0  0
  159.7080  213.8640  150.1300 O   0  0  0  0  0  0  0  0  0  0  0  0
  162.2470  213.8140  147.3880 C   0  0  0  0  0  3  0  0  0  0  0  0
  161.4390  213.4610  146.3040 C   0  0  0  0  0  0  0  0  0  0  0  0
  159.5140  213.3770  147.7800 C   0  0  0  0  0  3  0  0  0  0  0  0
  161.6910  213.9480  148.6640 C   0  0  0  0  0  3  0  0  0  0  0  0
  160.3180  213.7230  148.8720 C   0  0  0  0  0  0  0  0  0  0  0  0
  160.0680  213.2440  146.5030 C   0  0  0  0  0  3  0  0  0  0  0  0
  161.5030  212.6170  144.0820 O   0  0  0  0  0  0  0  0  0  0  0  0
  162.0430  213.3240  144.9750 C   0  0  0  0  0  3  0  0  0  0  0  0
  1  5  1  0  0  0  0
  1  6  1  0  0  0  0
  2 12  1  0  0  0  0
  2 11  1  0  0  0  0
  3 10  2  0  0  0  0
  4  7  1  0  0  0  0
  4  8  1  0  0  0  0
  7  9  1  0  0  0  0
  8  1  2  0  0  0  0
  9  5  2  0  0  0  0
 10 11  1  0  0  0  0
 11  7  2  0  0  0  0
 12 15  1  0  0  0  0
 13 14  2  0  0  0  0
 13  2  1  0  0  0  0
 14  3  1  0  0  0  0
 15  4  2  0  0  0  0
 16  3  1  6  0  0  0
 16 18  1  0  0  0  0
 17 19  1  1  0  0  0
 17 16  1  0  0  0  0
 17 18  1  0  0  0  0
 19 21  1  0  0  0  0
 20 19  2  0  0  0  0
 22 21  1  6  0  0  0
 22 25  1  0  0  0  0
 23 26  1  0  0  0  0
 23 28  1  0  0  0  0
 24 29  1  6  0  0  0
 24 27  1  0  0  0  0
 24 26  1  0  0  0  0
 26 27  1  6  0  0  0
 26 22  1  0  0  0  0
 28 25  1  0  0  0  0
 30 34  2  0  0  0  0
 31 33  1  0  0  0  0
 32 31  2  0  0  0  0
 32 30  1  0  0  0  0
 33 29  2  0  0  0  0
 34 29  1  0  0  0  0
 35 13  1  0  0  0  0
 36 39  1  0  0  0  0
 37 41  1  0  0  0  0
 37 36  2  0  0  0  0
 38 40  1  0  0  0  0
 39 40  2  0  0  0  0
 40 35  1  0  0  0  0
 41 38  2  0  0  0  0
 42 43  2  0  0  0  0
 43 37  1  0  0  0  0
M  END
>  <MODEL>
5

>  <REMARK>
 VINA RESULT:      -7.5      3.997      8.480
  Name = 
  8 active torsions:
  status: ('A' for Active; 'I' for Inactive)
    1  A    between atoms: O_1  and  C_34
    2  A    between atoms: O_1  and  C_35
    3  A    between atoms: C_2  and  C_13
    4  A    between atoms: O_3  and  C_4
    5  A    between atoms: O_3  and  C_12
    6  A    between atoms: C_6  and  C_12
    7  A    between atoms: C_11  and  C_14
    8  A    between atoms: C_19  and  C_37
                            x       y       z     vdW  Elec       q    Type
                         _______ _______ _______ _____ _____    ______ ____

>  <TORSDO>
F 8

$$$$
=
 OpenBabel11062410073D

 43 50  0  0  1  0  0  0  0  0999 V2000
  160.9440  203.9250  148.8540 C   0  0  0  0  0  0  0  0  0  0  0  0
  161.5060  207.7880  152.0200 N   0  0  0  0  0  0  0  0  0  0  0  0
  161.9220  209.9840  150.3230 C   0  0  0  0  0  0  0  0  0  0  0  0
  161.1530  205.3050  150.8410 C   0  0  0  0  0  0  0  0  0  0  0  0
  161.1940  205.0360  148.0490 C   0  0  0  0  0  3  0  0  0  0  0  0
  160.7230  202.7140  148.2890 F   0  0  0  0  0  0  0  0  0  0  0  0
  161.3980  206.4360  150.0280 C   0  0  0  0  0  0  0  0  0  0  0  0
  160.9240  204.0610  150.2450 C   0  0  0  0  0  3  0  0  0  0  0  0
  161.4190  206.2850  148.6320 C   0  0  0  0  0  3  0  0  0  0  0  0
  161.7950  208.8080  149.7850 N   0  0  0  0  0  0  0  0  0  0  0  0
  161.5760  207.6410  150.5910 C   0  0  0  0  0  0  0  0  0  0  0  0
  161.3930  206.6210  152.8940 C   0  0  0  0  0  2  0  0  0  0  0  0
  161.6310  209.1000  152.5950 C   0  0  0  0  0  0  0  0  0  0  0  0
  161.8170  210.1540  151.7880 C   0  0  0  0  0  3  0  0  0  0  0  0
  161.1320  205.3930  152.1380 N   0  0  0  0  0  0  0  0  0  0  0  0
  162.1250  211.1740  149.4430 C   0  0  2  0  0  3  0  0  0  0  0  0
  161.4780  210.9470  148.1280 C   0  0  2  0  0  3  0  0  0  0  0  0
  162.8680  210.8130  148.3020 O   0  0  0  0  0  0  0  0  0  0  0  0
  161.1700  212.2540  147.4810 C   0  0  0  0  0  0  0  0  0  0  0  0
  161.8740  213.2680  147.7410 O   0  0  0  0  0  0  0  0  0  0  0  0
  160.1150  212.3320  146.5670 O   0  0  0  0  0  0  0  0  0  0  0  0
  159.7690  213.5420  145.9010 C   0  0  2  0  0  3  0  0  0  0  0  0
  158.9180  213.8590  143.2430 S   0  0  0  0  0  0  0  0  0  0  0  0
  161.6000  212.9530  144.0800 C   0  0  2  0  0  3  0  0  0  0  0  0
  158.2580  213.6650  145.8610 C   0  0  0  0  0  2  0  0  0  0  0  0
  160.2280  213.5180  144.4550 C   0  0  2  0  0  0  0  0  0  0  0  0
  161.3950  214.4530  144.2410 C   0  0  0  0  0  2  0  0  0  0  0  0
  157.8740  214.4400  144.6120 C   0  0  0  0  0  2  0  0  0  0  0  0
  161.6840  212.5410  142.6380 C   0  0  0  0  0  0  0  0  0  0  0  0
  160.9880  211.1130  140.7980 C   0  0  0  0  0  3  0  0  0  0  0  0
  162.4940  212.9660  140.3860 C   0  0  0  0  0  3  0  0  0  0  0  0
  161.7680  211.8670  139.9150 C   0  0  0  0  0  3  0  0  0  0  0  0
  162.4460  213.3050  141.7430 C   0  0  0  0  0  3  0  0  0  0  0  0
  160.9400  211.4530  142.1540 C   0  0  0  0  0  3  0  0  0  0  0  0
  161.5220  209.2460  153.9910 O   0  0  0  0  0  0  0  0  0  0  0  0
  158.7170  210.4310  156.1590 C   0  0  0  0  0  3  0  0  0  0  0  0
  158.8630  211.8150  156.0230 C   0  0  0  0  0  0  0  0  0  0  0  0
  160.7630  211.4610  154.5560 C   0  0  0  0  0  3  0  0  0  0  0  0
  159.5920  209.5650  155.4960 C   0  0  0  0  0  3  0  0  0  0  0  0
  160.6290  210.0740  154.6940 C   0  0  0  0  0  0  0  0  0  0  0  0
  159.8890  212.3280  155.2180 C   0  0  0  0  0  3  0  0  0  0  0  0
  157.1920  213.5040  156.0980 O   0  0  0  0  0  0  0  0  0  0  0  0
  157.9350  212.7050  156.7280 C   0  0  0  0  0  3  0  0  0  0  0  0
  1  8  2  0  0  0  0
  2 13  1  0  0  0  0
  2 12  1  0  0  0  0
  3 14  1  0  0  0  0
  4 15  2  0  0  0  0
  5  9  2  0  0  0  0
  5  1  1  0  0  0  0
  6  1  1  0  0  0  0
  7 11  2  0  0  0  0
  7  4  1  0  0  0  0
  8  4  1  0  0  0  0
  9  7  1  0  0  0  0
 10  3  2  0  0  0  0
 10 11  1  0  0  0  0
 11  2  1  0  0  0  0
 13 35  1  0  0  0  0
 14 13  2  0  0  0  0
 15 12  1  0  0  0  0
 16  3  1  1  0  0  0
 17 19  1  6  0  0  0
 17 18  1  0  0  0  0
 17 16  1  0  0  0  0
 18 16  1  0  0  0  0
 19 20  2  0  0  0  0
 21 19  1  0  0  0  0
 22 21  1  6  0  0  0
 23 26  1  0  0  0  0
 23 28  1  0  0  0  0
 24 29  1  6  0  0  0
 24 27  1  0  0  0  0
 24 26  1  0  0  0  0
 25 22  1  0  0  0  0
 26 27  1  1  0  0  0
 26 22  1  0  0  0  0
 28 25  1  0  0  0  0
 30 34  2  0  0  0  0
 31 33  1  0  0  0  0
 32 31  2  0  0  0  0
 32 30  1  0  0  0  0
 33 29  2  0  0  0  0
 34 29  1  0  0  0  0
 35 40  1  0  0  0  0
 37 36  1  0  0  0  0
 37 43  1  0  0  0  0
 38 40  2  0  0  0  0
 38 41  1  0  0  0  0
 39 36  2  0  0  0  0
 40 39  1  0  0  0  0
 41 37  2  0  0  0  0
 42 43  2  0  0  0  0
M  END
>  <MODEL>
6

>  <REMARK>
 VINA RESULT:      -7.5      3.682      8.336
  Name = 
  8 active torsions:
  status: ('A' for Active; 'I' for Inactive)
    1  A    between atoms: O_1  and  C_34
    2  A    between atoms: O_1  and  C_35
    3  A    between atoms: C_2  and  C_13
    4  A    between atoms: O_3  and  C_4
    5  A    between atoms: O_3  and  C_12
    6  A    between atoms: C_6  and  C_12
    7  A    between atoms: C_11  and  C_14
    8  A    between atoms: C_19  and  C_37
                            x       y       z     vdW  Elec       q    Type
                         _______ _______ _______ _____ _____    ______ ____

>  <TORSDO>
F 8

$$$$
=
 OpenBabel11062410073D

 43 50  0  0  1  0  0  0  0  0999 V2000
  162.3530  213.1430  146.6570 C   0  0  0  0  0  0  0  0  0  0  0  0
  160.1050  212.7970  151.1390 N   0  0  0  0  0  0  0  0  0  0  0  0
  161.1960  210.4650  152.2530 C   0  0  0  0  0  0  0  0  0  0  0  0
  160.9470  213.5220  148.6000 C   0  0  0  0  0  0  0  0  0  0  0  0
  162.8400  211.9690  147.2310 C   0  0  0  0  0  3  0  0  0  0  0  0
  162.7920  213.5350  145.4370 F   0  0  0  0  0  0  0  0  0  0  0  0
  161.4450  212.3370  149.1900 C   0  0  0  0  0  0  0  0  0  0  0  0
  161.4100  213.9160  147.3400 C   0  0  0  0  0  3  0  0  0  0  0  0
  162.3890  211.5680  148.4910 C   0  0  0  0  0  3  0  0  0  0  0  0
  161.5520  210.7940  151.0480 N   0  0  0  0  0  0  0  0  0  0  0  0
  161.0380  211.9760  150.4160 C   0  0  0  0  0  0  0  0  0  0  0  0
  159.4670  213.9520  150.5050 C   0  0  0  0  0  2  0  0  0  0  0  0
  159.7360  212.4260  152.4780 C   0  0  0  0  0  0  0  0  0  0  0  0
  160.2650  211.3200  153.0200 C   0  0  0  0  0  3  0  0  0  0  0  0
  160.0660  214.2630  149.2050 N   0  0  0  0  0  0  0  0  0  0  0  0
  161.7750  209.2380  152.8780 C   0  0  2  0  0  3  0  0  0  0  0  0
  161.0100  208.0420  152.4510 C   0  0  2  0  0  3  0  0  0  0  0  0
  160.8260  208.6250  153.7190 O   0  0  0  0  0  0  0  0  0  0  0  0
  161.8610  206.8240  152.5690 C   0  0  0  0  0  0  0  0  0  0  0  0
  162.4270  206.5550  153.6650 O   0  0  0  0  0  0  0  0  0  0  0  0
  161.9980  205.9770  151.4670 O   0  0  0  0  0  0  0  0  0  0  0  0
  160.9670  205.0840  151.0560 C   0  0  2  0  0  3  0  0  0  0  0  0
  160.9890  203.3220  148.8680 S   0  0  0  0  0  0  0  0  0  0  0  0
  161.0160  206.2690  148.6870 C   0  0  2  0  0  3  0  0  0  0  0  0
  161.3090  203.6860  151.5320 C   0  0  0  0  0  2  0  0  0  0  0  0
  160.8850  205.0060  149.5430 C   0  0  2  0  0  0  0  0  0  0  0  0
  159.6450  205.7000  149.0290 C   0  0  0  0  0  2  0  0  0  0  0  0
  160.7190  202.6880  150.5490 C   0  0  0  0  0  2  0  0  0  0  0  0
  161.4180  205.9710  147.2710 C   0  0  0  0  0  0  0  0  0  0  0  0
  163.0240  205.1130  145.6590 C   0  0  0  0  0  3  0  0  0  0  0  0
  160.8310  205.8280  144.9170 C   0  0  0  0  0  3  0  0  0  0  0  0
  162.0990  205.3130  144.6290 C   0  0  0  0  0  3  0  0  0  0  0  0
  160.4900  206.1490  146.2360 C   0  0  0  0  0  3  0  0  0  0  0  0
  162.6820  205.4340  146.9780 C   0  0  0  0  0  3  0  0  0  0  0  0
  158.8540  213.2550  153.1980 O   0  0  0  0  0  0  0  0  0  0  0  0
  157.4900  212.2830  156.5390 C   0  0  0  0  0  3  0  0  0  0  0  0
  156.1500  212.0650  156.2090 C   0  0  0  0  0  0  0  0  0  0  0  0
  156.6340  212.6440  153.9030 C   0  0  0  0  0  3  0  0  0  0  0  0
  158.3990  212.6820  155.5550 C   0  0  0  0  0  3  0  0  0  0  0  0
  157.9760  212.8740  154.2270 C   0  0  0  0  0  0  0  0  0  0  0  0
  155.7230  212.2450  154.8860 C   0  0  0  0  0  3  0  0  0  0  0  0
  154.4110  210.6930  157.0730 O   0  0  0  0  0  0  0  0  0  0  0  0
  155.2130  211.6480  157.2570 C   0  0  0  0  0  3  0  0  0  0  0  0
  1  5  1  0  0  0  0
  1  8  2  0  0  0  0
  2 13  1  0  0  0  0
  3 14  1  0  0  0  0
  4  7  1  0  0  0  0
  4 15  2  0  0  0  0
  5  9  2  0  0  0  0
  6  1  1  0  0  0  0
  7 11  2  0  0  0  0
  8  4  1  0  0  0  0
  9  7  1  0  0  0  0
 10  3  2  0  0  0  0
 11 10  1  0  0  0  0
 11  2  1  0  0  0  0
 12  2  1  0  0  0  0
 13 14  2  0  0  0  0
 13 35  1  0  0  0  0
 15 12  1  0  0  0  0
 16  3  1  6  0  0  0
 16 18  1  0  0  0  0
 17 19  1  1  0  0  0
 17 16  1  0  0  0  0
 17 18  1  0  0  0  0
 19 20  2  0  0  0  0
 21 19  1  0  0  0  0
 22 21  1  6  0  0  0
 22 25  1  0  0  0  0
 23 26  1  0  0  0  0
 23 28  1  0  0  0  0
 24 29  1  6  0  0  0
 24 27  1  0  0  0  0
 24 26  1  0  0  0  0
 26 27  1  6  0  0  0
 26 22  1  0  0  0  0
 28 25  1  0  0  0  0
 30 34  2  0  0  0  0
 31 33  1  0  0  0  0
 32 31  2  0  0  0  0
 32 30  1  0  0  0  0
 33 29  2  0  0  0  0
 34 29  1  0  0  0  0
 35 40  1  0  0  0  0
 37 36  1  0  0  0  0
 37 43  1  0  0  0  0
 38 40  2  0  0  0  0
 38 41  1  0  0  0  0
 39 36  2  0  0  0  0
 40 39  1  0  0  0  0
 41 37  2  0  0  0  0
 42 43  2  0  0  0  0
M  END
>  <MODEL>
7

>  <REMARK>
 VINA RESULT:      -7.1      3.510      8.387
  Name = 
  8 active torsions:
  status: ('A' for Active; 'I' for Inactive)
    1  A    between atoms: O_1  and  C_34
    2  A    between atoms: O_1  and  C_35
    3  A    between atoms: C_2  and  C_13
    4  A    between atoms: O_3  and  C_4
    5  A    between atoms: O_3  and  C_12
    6  A    between atoms: C_6  and  C_12
    7  A    between atoms: C_11  and  C_14
    8  A    between atoms: C_19  and  C_37
                            x       y       z     vdW  Elec       q    Type
                         _______ _______ _______ _____ _____    ______ ____

>  <TORSDO>
F 8

$$$$
=
 OpenBabel11062410073D

 43 50  0  0  1  0  0  0  0  0999 V2000
  161.0820  204.4670  148.6950 C   0  0  0  0  0  0  0  0  0  0  0  0
  161.5270  208.6390  151.4620 N   0  0  0  0  0  0  0  0  0  0  0  0
  161.9550  210.6570  149.5600 C   0  0  0  0  0  0  0  0  0  0  0  0
  161.2300  206.0440  150.5350 C   0  0  0  0  0  0  0  0  0  0  0  0
  161.3360  205.4940  147.7860 C   0  0  0  0  0  3  0  0  0  0  0  0
  160.8870  203.2010  148.2520 F   0  0  0  0  0  0  0  0  0  0  0  0
  161.4790  207.0900  149.6170 C   0  0  0  0  0  0  0  0  0  0  0  0
  161.0290  204.7420  150.0640 C   0  0  0  0  0  3  0  0  0  0  0  0
  161.5330  206.7990  148.2440 C   0  0  0  0  0  3  0  0  0  0  0  0
  161.8540  209.4310  149.1420 N   0  0  0  0  0  0  0  0  0  0  0  0
  161.6310  208.3480  150.0570 C   0  0  0  0  0  0  0  0  0  0  0  0
  161.4080  207.5640  152.4480 C   0  0  0  0  0  2  0  0  0  0  0  0
  161.6240  210.0040  151.9040 C   0  0  0  0  0  0  0  0  0  0  0  0
  161.8150  210.9730  150.9970 C   0  0  0  0  0  3  0  0  0  0  0  0
  161.1790  206.2630  151.8160 N   0  0  0  0  0  0  0  0  0  0  0  0
  162.1640  211.7530  148.5670 C   0  0  2  0  0  3  0  0  0  0  0  0
  160.8990  212.0310  147.8450 C   0  0  2  0  0  3  0  0  0  0  0  0
  161.9350  211.2780  147.2610 O   0  0  0  0  0  0  0  0  0  0  0  0
  160.9150  213.4210  147.3070 C   0  0  0  0  0  0  0  0  0  0  0  0
  161.0970  214.3970  148.0870 O   0  0  0  0  0  0  0  0  0  0  0  0
  160.7560  213.6230  145.9340 O   0  0  0  0  0  0  0  0  0  0  0  0
  161.7670  213.2880  144.9890 C   0  0  2  0  0  3  0  0  0  0  0  0
  162.1460  214.3640  142.4220 S   0  0  0  0  0  0  0  0  0  0  0  0
  159.8360  212.7290  143.2640 C   0  0  2  0  0  3  0  0  0  0  0  0
  162.8530  214.3460  145.0350 C   0  0  0  0  0  2  0  0  0  0  0  0
  161.2190  213.3090  143.5740 C   0  0  2  0  0  0  0  0  0  0  0  0
  161.0950  211.9090  143.0190 C   0  0  0  0  0  2  0  0  0  0  0  0
  163.4780  214.4490  143.6540 C   0  0  0  0  0  2  0  0  0  0  0  0
  159.2540  213.2710  141.9890 C   0  0  0  0  0  0  0  0  0  0  0  0
  159.2710  213.4670  139.5660 C   0  0  0  0  0  3  0  0  0  0  0  0
  157.4650  214.4530  140.8450 C   0  0  0  0  0  3  0  0  0  0  0  0
  158.0790  214.1970  139.6150 C   0  0  0  0  0  3  0  0  0  0  0  0
  158.0480  213.9860  142.0280 C   0  0  0  0  0  3  0  0  0  0  0  0
  159.8530  212.9980  140.7490 C   0  0  0  0  0  3  0  0  0  0  0  0
  161.4820  210.2890  153.2750 O   0  0  0  0  0  0  0  0  0  0  0  0
  159.6850  212.5170  155.6780 C   0  0  0  0  0  3  0  0  0  0  0  0
  158.4500  212.6360  155.0340 C   0  0  0  0  0  0  0  0  0  0  0  0
  159.2560  211.2080  153.2460 C   0  0  0  0  0  3  0  0  0  0  0  0
  160.7020  211.7470  155.1080 C   0  0  0  0  0  3  0  0  0  0  0  0
  160.4980  211.0910  153.8800 C   0  0  0  0  0  0  0  0  0  0  0  0
  158.2370  211.9780  153.8160 C   0  0  0  0  0  3  0  0  0  0  0  0
  156.1850  213.2900  155.3440 O   0  0  0  0  0  0  0  0  0  0  0  0
  157.3970  213.4500  155.6500 C   0  0  0  0  0  3  0  0  0  0  0  0
  1  8  2  0  0  0  0
  2 13  1  0  0  0  0
  2 12  1  0  0  0  0
  3 14  1  0  0  0  0
  4 15  2  0  0  0  0
  5  9  2  0  0  0  0
  5  1  1  0  0  0  0
  6  1  1  0  0  0  0
  7 11  2  0  0  0  0
  7  4  1  0  0  0  0
  8  4  1  0  0  0  0
  9  7  1  0  0  0  0
 10  3  2  0  0  0  0
 10 11  1  0  0  0  0
 11  2  1  0  0  0  0
 13 35  1  0  0  0  0
 14 13  2  0  0  0  0
 15 12  1  0  0  0  0
 16  3  1  1  0  0  0
 17 19  1  6  0  0  0
 17 16  1  0  0  0  0
 18 17  1  0  0  0  0
 18 16  1  0  0  0  0
 19 20  2  0  0  0  0
 21 19  1  0  0  0  0
 22 25  1  0  0  0  0
 22 21  1  1  0  0  0
 23 26  1  0  0  0  0
 23 28  1  0  0  0  0
 24 29  1  6  0  0  0
 24 26  1  0  0  0  0
 26 27  1  6  0  0  0
 26 22  1  0  0  0  0
 27 24  1  0  0  0  0
 28 25  1  0  0  0  0
 29 33  1  0  0  0  0
 30 32  2  0  0  0  0
 30 34  1  0  0  0  0
 31 33  2  0  0  0  0
 32 31  1  0  0  0  0
 34 29  2  0  0  0  0
 35 40  1  0  0  0  0
 37 43  1  0  0  0  0
 37 36  2  0  0  0  0
 38 41  2  0  0  0  0
 38 40  1  0  0  0  0
 39 36  1  0  0  0  0
 40 39  2  0  0  0  0
 41 37  1  0  0  0  0
 42 43  2  0  0  0  0
M  END
>  <MODEL>
8

>  <REMARK>
 VINA RESULT:      -6.7      4.080      8.451
  Name = 
  8 active torsions:
  status: ('A' for Active; 'I' for Inactive)
    1  A    between atoms: O_1  and  C_34
    2  A    between atoms: O_1  and  C_35
    3  A    between atoms: C_2  and  C_13
    4  A    between atoms: O_3  and  C_4
    5  A    between atoms: O_3  and  C_12
    6  A    between atoms: C_6  and  C_12
    7  A    between atoms: C_11  and  C_14
    8  A    between atoms: C_19  and  C_37
                            x       y       z     vdW  Elec       q    Type
                         _______ _______ _______ _____ _____    ______ ____

>  <TORSDO>
F 8

$$$$
=
 OpenBabel11062410073D

 43 50  0  0  1  0  0  0  0  0999 V2000
  161.5650  204.3900  146.0610 C   0  0  0  0  0  0  0  0  0  0  0  0
  161.4240  206.9280  150.3970 N   0  0  0  0  0  0  0  0  0  0  0  0
  161.7080  209.6070  149.6110 C   0  0  0  0  0  0  0  0  0  0  0  0
  161.4570  204.9970  148.4100 C   0  0  0  0  0  0  0  0  0  0  0  0
  161.7430  205.7300  145.7170 C   0  0  0  0  0  3  0  0  0  0  0  0
  161.5310  203.4410  145.0950 F   0  0  0  0  0  0  0  0  0  0  0  0
  161.6290  206.3580  148.0650 C   0  0  0  0  0  0  0  0  0  0  0  0
  161.4220  204.0270  147.4020 C   0  0  0  0  0  3  0  0  0  0  0  0
  161.7740  206.7090  146.7130 C   0  0  0  0  0  3  0  0  0  0  0  0
  161.7620  208.6880  148.6930 N   0  0  0  0  0  0  0  0  0  0  0  0
  161.6200  207.2980  149.0210 C   0  0  0  0  0  0  0  0  0  0  0  0
  161.3820  205.5220  150.8020 C   0  0  0  0  0  2  0  0  0  0  0  0
  161.3490  207.9590  151.3960 C   0  0  0  0  0  0  0  0  0  0  0  0
  161.4710  209.2420  151.0240 C   0  0  0  0  0  3  0  0  0  0  0  0
  161.3260  204.6220  149.6480 N   0  0  0  0  0  0  0  0  0  0  0  0
  161.8370  211.0420  149.2180 C   0  0  2  0  0  3  0  0  0  0  0  0
  161.2170  211.2610  147.8900 C   0  0  2  0  0  3  0  0  0  0  0  0
  162.6110  211.1590  148.0480 O   0  0  0  0  0  0  0  0  0  0  0  0
  160.8260  212.6920  147.7410 C   0  0  0  0  0  0  0  0  0  0  0  0
  160.6260  213.4010  148.7670 O   0  0  0  0  0  0  0  0  0  0  0  0
  160.7120  213.2400  146.4610 O   0  0  0  0  0  0  0  0  0  0  0  0
  161.6800  213.0080  145.4420 C   0  0  2  0  0  3  0  0  0  0  0  0
  161.8720  214.2640  142.9360 S   0  0  0  0  0  0  0  0  0  0  0  0
  159.6760  212.4850  143.7900 C   0  0  2  0  0  3  0  0  0  0  0  0
  162.7260  214.1040  145.5000 C   0  0  0  0  0  2  0  0  0  0  0  0
  161.0510  213.1000  144.0630 C   0  0  2  0  0  0  0  0  0  0  0  0
  160.9490  211.7350  143.4220 C   0  0  0  0  0  2  0  0  0  0  0  0
  163.2680  214.3230  144.0970 C   0  0  0  0  0  2  0  0  0  0  0  0
  159.0020  213.0840  142.5890 C   0  0  0  0  0  0  0  0  0  0  0  0
  158.7420  213.2750  140.1790 C   0  0  0  0  0  3  0  0  0  0  0  0
  157.2220  214.4500  141.6550 C   0  0  0  0  0  3  0  0  0  0  0  0
  157.6490  214.1280  140.3620 C   0  0  0  0  0  3  0  0  0  0  0  0
  157.8930  213.9240  142.7640 C   0  0  0  0  0  3  0  0  0  0  0  0
  159.4120  212.7480  141.2890 C   0  0  0  0  0  3  0  0  0  0  0  0
  161.1160  207.5960  152.7360 O   0  0  0  0  0  0  0  0  0  0  0  0
  161.2000  208.9350  156.2250 C   0  0  0  0  0  3  0  0  0  0  0  0
  160.7200  210.2300  156.0080 C   0  0  0  0  0  0  0  0  0  0  0  0
  160.5220  209.7490  153.6370 C   0  0  0  0  0  3  0  0  0  0  0  0
  161.3420  208.0510  155.1520 C   0  0  0  0  0  3  0  0  0  0  0  0
  161.0110  208.4530  153.8450 C   0  0  0  0  0  0  0  0  0  0  0  0
  160.3790  210.6350  154.7100 C   0  0  0  0  0  3  0  0  0  0  0  0
  160.9310  212.3500  157.0630 O   0  0  0  0  0  0  0  0  0  0  0  0
  160.5810  211.1420  157.1470 C   0  0  0  0  0  3  0  0  0  0  0  0
  1  8  2  0  0  0  0
  2 12  1  0  0  0  0
  2 13  1  0  0  0  0
  3 14  1  0  0  0  0
  4 15  2  0  0  0  0
  5  1  1  0  0  0  0
  5  9  2  0  0  0  0
  6  1  1  0  0  0  0
  7  4  1  0  0  0  0
  7 11  2  0  0  0  0
  8  4  1  0  0  0  0
  9  7  1  0  0  0  0
 10 11  1  0  0  0  0
 10  3  2  0  0  0  0
 11  2  1  0  0  0  0
 13 35  1  0  0  0  0
 14 13  2  0  0  0  0
 15 12  1  0  0  0  0
 16  3  1  6  0  0  0
 17 19  1  1  0  0  0
 17 18  1  0  0  0  0
 17 16  1  0  0  0  0
 18 16  1  0  0  0  0
 19 20  2  0  0  0  0
 21 19  1  0  0  0  0
 22 25  1  0  0  0  0
 22 21  1  1  0  0  0
 23 26  1  0  0  0  0
 23 28  1  0  0  0  0
 24 29  1  6  0  0  0
 24 26  1  0  0  0  0
 26 27  1  6  0  0  0
 26 22  1  0  0  0  0
 27 24  1  0  0  0  0
 28 25  1  0  0  0  0
 29 33  1  0  0  0  0
 30 32  2  0  0  0  0
 30 34  1  0  0  0  0
 31 33  2  0  0  0  0
 32 31  1  0  0  0  0
 34 29  2  0  0  0  0
 35 40  1  0  0  0  0
 37 36  1  0  0  0  0
 37 43  1  0  0  0  0
 38 40  2  0  0  0  0
 38 41  1  0  0  0  0
 39 36  2  0  0  0  0
 40 39  1  0  0  0  0
 41 37  2  0  0  0  0
 42 43  2  0  0  0  0
M  END
>  <MODEL>
9

>  <REMARK>
 VINA RESULT:      -6.3      3.757      8.204
  Name = 
  8 active torsions:
  status: ('A' for Active; 'I' for Inactive)
    1  A    between atoms: O_1  and  C_34
    2  A    between atoms: O_1  and  C_35
    3  A    between atoms: C_2  and  C_13
    4  A    between atoms: O_3  and  C_4
    5  A    between atoms: O_3  and  C_12
    6  A    between atoms: C_6  and  C_12
    7  A    between atoms: C_11  and  C_14
    8  A    between atoms: C_19  and  C_37
                            x       y       z     vdW  Elec       q    Type
                         _______ _______ _______ _____ _____    ______ ____

>  <TORSDO>
F 8

$$$$
