=
 OpenBabel11052423213D

 27 29  0  0  1  0  0  0  0  0999 V2000
  161.9240  205.8290  148.6770 N   0  0  0  0  0  0  0  0  0  0  0  0
  162.5040  204.5040  146.5640 C   0  0  0  0  0  0  0  0  0  0  0  0
  161.0550  205.9660  144.1760 C   0  0  0  0  0  2  0  0  0  0  0  0
  162.8110  203.4900  147.2430 O   0  0  0  0  0  0  0  0  0  0  0  0
  160.2080  205.7050  145.3010 O   0  0  0  0  0  0  0  0  0  0  0  0
  161.8870  205.7380  147.1980 C   0  0  0  0  0  3  0  0  0  0  0  0
  162.5340  205.6450  144.3950 C   0  0  0  0  0  2  0  0  0  0  0  0
  159.6160  206.4910  147.3700 O   0  0  0  0  0  0  0  0  0  0  0  0
  160.5180  206.0100  146.6320 C   0  0  0  0  0  0  0  0  0  0  0  0
  162.7180  204.4800  145.1870 O   0  0  0  0  0  0  0  0  0  0  0  0
  162.3440  207.1260  149.2470 C   0  0  1  0  0  3  0  0  0  0  0  0
  162.2950  208.2220  148.1900 C   0  0  0  0  0  1  0  0  0  0  0  0
  161.4650  207.5100  150.3450 N   0  0  0  0  0  2  0  0  0  0  0  0
  160.7350  209.3120  152.9350 C   0  0  0  0  0  2  0  0  0  0  0  0
  160.7850  208.2800  153.9690 N   0  0  0  0  0  2  0  0  0  0  0  0
  162.1240  206.7740  152.5790 C   0  0  0  0  0  2  0  0  0  0  0  0
  162.2980  207.8380  151.4920 C   0  0  2  0  0  3  0  0  0  0  0  0
  160.8050  206.9650  153.3290 C   0  0  0  0  0  2  0  0  0  0  0  0
  161.9210  209.1910  152.0230 C   0  0  0  0  0  0  0  0  0  0  0  0
  162.5300  210.1860  151.6670 O   0  0  0  0  0  0  0  0  0  0  0  0
  160.6770  205.3070  149.2660 C   0  0  0  0  0  2  0  0  0  0  0  0
  161.0360  201.3540  150.9180 C   0  0  0  0  0  3  0  0  0  0  0  0
  160.8000  203.9300  149.8490 C   0  0  0  0  0  0  0  0  0  0  0  0
  161.2660  203.7520  151.1570 C   0  0  0  0  0  3  0  0  0  0  0  0
  161.3820  202.4650  151.6920 C   0  0  0  0  0  3  0  0  0  0  0  0
  160.5790  201.5280  149.6090 C   0  0  0  0  0  3  0  0  0  0  0  0
  160.4630  202.8140  149.0740 C   0  0  0  0  0  3  0  0  0  0  0  0
  1 11  1  0  0  0  0
  1 21  1  0  0  0  0
  2  6  1  0  0  0  0
  2  4  2  0  0  0  0
  3  7  1  0  0  0  0
  3  5  1  0  0  0  0
  5  9  1  0  0  0  0
  6  1  1  0  0  0  0
  7 10  1  0  0  0  0
  9  6  1  0  0  0  0
  9  8  2  0  0  0  0
 10  2  1  0  0  0  0
 11 12  1  6  0  0  0
 11 13  1  0  0  0  0
 14 15  1  0  0  0  0
 16 18  1  0  0  0  0
 17 13  1  6  0  0  0
 17 19  1  0  0  0  0
 17 16  1  0  0  0  0
 18 15  1  0  0  0  0
 19 14  1  0  0  0  0
 20 19  2  0  0  0  0
 21 23  1  0  0  0  0
 22 25  1  0  0  0  0
 23 24  1  0  0  0  0
 24 25  2  0  0  0  0
 26 22  2  0  0  0  0
 27 26  1  0  0  0  0
 27 23  2  0  0  0  0
M  END
>  <MODEL>
1

>  <REMARK>
 VINA RESULT:      -6.3      0.000      0.000
  Name = 
  6 active torsions:
  status: ('A' for Active; 'I' for Inactive)
    1  A    between atoms: N_1  and  C_2
    2  A    between atoms: N_1  and  C_15
    3  A    between atoms: N_1  and  C_18
    4  A    between atoms: C_2  and  N_19
    5  A    between atoms: C_9  and  C_15
    6  A    between atoms: C_14  and  N_19
                            x       y       z     vdW  Elec       q    Type
                         _______ _______ _______ _____ _____    ______ ____

>  <TORSDO>
F 6

$$$$
=
 OpenBabel11052423213D

 27 29  0  0  1  0  0  0  0  0999 V2000
  160.6630  209.9970  153.1150 N   0  0  0  0  0  0  0  0  0  0  0  0
  160.6410  207.6710  154.1860 C   0  0  0  0  0  0  0  0  0  0  0  0
  161.1990  208.1060  157.2590 C   0  0  0  0  0  2  0  0  0  0  0  0
  160.8400  207.1190  153.0740 O   0  0  0  0  0  0  0  0  0  0  0  0
  162.1190  208.7850  156.3970 O   0  0  0  0  0  0  0  0  0  0  0  0
  160.6760  209.1800  154.3520 C   0  0  0  0  0  3  0  0  0  0  0  0
  160.0230  207.4360  156.5470 C   0  0  0  0  0  2  0  0  0  0  0  0
  162.3870  210.6720  155.1260 O   0  0  0  0  0  0  0  0  0  0  0  0
  161.7600  209.5950  155.3120 C   0  0  0  0  0  0  0  0  0  0  0  0
  160.4030  206.8690  155.3010 O   0  0  0  0  0  0  0  0  0  0  0  0
  160.0140  211.3210  153.2070 C   0  0  1  0  0  3  0  0  0  0  0  0
  160.0780  212.0480  151.8690 C   0  0  0  0  0  1  0  0  0  0  0  0
  158.6120  211.1780  153.5820 N   0  0  0  0  0  2  0  0  0  0  0  0
  156.4920  211.3950  156.0200 C   0  0  0  0  0  2  0  0  0  0  0  0
  157.4100  211.7230  157.1090 N   0  0  0  0  0  2  0  0  0  0  0  0
  159.1620  212.4790  155.5750 C   0  0  0  0  0  2  0  0  0  0  0  0
  158.2360  212.3480  154.3620 C   0  0  2  0  0  3  0  0  0  0  0  0
  158.7820  211.4770  156.6670 C   0  0  0  0  0  2  0  0  0  0  0  0
  156.8080  212.2220  154.8090 C   0  0  0  0  0  0  0  0  0  0  0  0
  155.9110  212.7320  154.1580 O   0  0  0  0  0  0  0  0  0  0  0  0
  162.0030  210.0430  152.5030 C   0  0  0  0  0  2  0  0  0  0  0  0
  162.1930  208.4470  148.5160 C   0  0  0  0  0  3  0  0  0  0  0  0
  162.0660  209.4800  151.1140 C   0  0  0  0  0  0  0  0  0  0  0  0
  162.1610  208.0980  150.9110 C   0  0  0  0  0  3  0  0  0  0  0  0
  162.2220  207.5820  149.6130 C   0  0  0  0  0  3  0  0  0  0  0  0
  162.1070  209.8280  148.7150 C   0  0  0  0  0  3  0  0  0  0  0  0
  162.0460  210.3440  150.0130 C   0  0  0  0  0  3  0  0  0  0  0  0
  1 11  1  0  0  0  0
  1  6  1  0  0  0  0
  2  6  1  0  0  0  0
  2 10  1  0  0  0  0
  4  2  2  0  0  0  0
  5  3  1  0  0  0  0
  6  9  1  0  0  0  0
  7  3  1  0  0  0  0
  8  9  2  0  0  0  0
  9  5  1  0  0  0  0
 10  7  1  0  0  0  0
 11 12  1  6  0  0  0
 11 13  1  0  0  0  0
 14 15  1  0  0  0  0
 16 18  1  0  0  0  0
 17 13  1  1  0  0  0
 17 19  1  0  0  0  0
 17 16  1  0  0  0  0
 18 15  1  0  0  0  0
 19 14  1  0  0  0  0
 20 19  2  0  0  0  0
 21  1  1  0  0  0  0
 22 26  2  0  0  0  0
 22 25  1  0  0  0  0
 23 21  1  0  0  0  0
 24 23  1  0  0  0  0
 25 24  2  0  0  0  0
 26 27  1  0  0  0  0
 27 23  2  0  0  0  0
M  END
>  <MODEL>
2

>  <REMARK>
 VINA RESULT:      -5.6      4.598      7.916
  Name = 
  6 active torsions:
  status: ('A' for Active; 'I' for Inactive)
    1  A    between atoms: N_1  and  C_2
    2  A    between atoms: N_1  and  C_15
    3  A    between atoms: N_1  and  C_18
    4  A    between atoms: C_2  and  N_19
    5  A    between atoms: C_9  and  C_15
    6  A    between atoms: C_14  and  N_19
                            x       y       z     vdW  Elec       q    Type
                         _______ _______ _______ _____ _____    ______ ____

>  <TORSDO>
F 6

$$$$
=
 OpenBabel11052423213D

 27 29  0  0  1  0  0  0  0  0999 V2000
  161.3590  206.2490  149.5450 N   0  0  0  0  0  0  0  0  0  0  0  0
  162.1060  206.9860  151.8810 C   0  0  0  0  0  0  0  0  0  0  0  0
  161.4450  210.0610  152.0930 C   0  0  0  0  0  2  0  0  0  0  0  0
  162.8640  205.9880  151.9910 O   0  0  0  0  0  0  0  0  0  0  0  0
  162.1510  209.6970  150.9010 O   0  0  0  0  0  0  0  0  0  0  0  0
  161.3810  207.3040  150.5860 C   0  0  0  0  0  3  0  0  0  0  0  0
  160.9930  208.8850  152.9600 C   0  0  0  0  0  2  0  0  0  0  0  0
  161.8740  208.8280  148.8000 O   0  0  0  0  0  0  0  0  0  0  0  0
  161.8000  208.6460  150.0450 C   0  0  0  0  0  0  0  0  0  0  0  0
  161.9490  207.8340  152.9760 O   0  0  0  0  0  0  0  0  0  0  0  0
  161.1850  204.8590  150.0190 C   0  0  1  0  0  3  0  0  0  0  0  0
  160.2050  204.8060  151.1850 C   0  0  0  0  0  1  0  0  0  0  0  0
  160.6670  204.0160  148.9480 N   0  0  0  0  0  2  0  0  0  0  0  0
  160.0920  200.9570  148.0580 C   0  0  0  0  0  2  0  0  0  0  0  0
  160.7340  200.9620  146.7440 N   0  0  0  0  0  2  0  0  0  0  0  0
  162.0790  202.9390  147.2710 C   0  0  0  0  0  2  0  0  0  0  0  0
  161.6180  202.9360  148.7310 C   0  0  2  0  0  3  0  0  0  0  0  0
  161.0080  202.3450  146.3540 C   0  0  0  0  0  2  0  0  0  0  0  0
  160.9770  201.6210  149.0710 C   0  0  0  0  0  0  0  0  0  0  0  0
  161.1220  201.1320  150.1790 O   0  0  0  0  0  0  0  0  0  0  0  0
  160.4440  206.6120  148.4480 C   0  0  0  0  0  2  0  0  0  0  0  0
  161.8550  205.5600  144.5250 C   0  0  0  0  0  3  0  0  0  0  0  0
  160.9420  206.2410  147.0820 C   0  0  0  0  0  0  0  0  0  0  0  0
  162.3160  206.1330  146.8320 C   0  0  0  0  0  3  0  0  0  0  0  0
  162.7720  205.7900  145.5550 C   0  0  0  0  0  3  0  0  0  0  0  0
  160.4840  205.6760  144.7690 C   0  0  0  0  0  3  0  0  0  0  0  0
  160.0280  206.0190  146.0460 C   0  0  0  0  0  3  0  0  0  0  0  0
  1 11  1  0  0  0  0
  1  6  1  0  0  0  0
  2  4  2  0  0  0  0
  2 10  1  0  0  0  0
  3  7  1  0  0  0  0
  5  3  1  0  0  0  0
  6  2  1  0  0  0  0
  7 10  1  0  0  0  0
  8  9  2  0  0  0  0
  9  6  1  0  0  0  0
  9  5  1  0  0  0  0
 11 12  1  1  0  0  0
 13 11  1  0  0  0  0
 14 19  1  0  0  0  0
 15 14  1  0  0  0  0
 16 17  1  0  0  0  0
 17 13  1  6  0  0  0
 17 19  1  0  0  0  0
 18 15  1  0  0  0  0
 18 16  1  0  0  0  0
 19 20  2  0  0  0  0
 21  1  1  0  0  0  0
 22 26  2  0  0  0  0
 22 25  1  0  0  0  0
 23 21  1  0  0  0  0
 24 23  1  0  0  0  0
 25 24  2  0  0  0  0
 26 27  1  0  0  0  0
 27 23  2  0  0  0  0
M  END
>  <MODEL>
3

>  <REMARK>
 VINA RESULT:      -5.6      2.360      6.546
  Name = 
  6 active torsions:
  status: ('A' for Active; 'I' for Inactive)
    1  A    between atoms: N_1  and  C_2
    2  A    between atoms: N_1  and  C_15
    3  A    between atoms: N_1  and  C_18
    4  A    between atoms: C_2  and  N_19
    5  A    between atoms: C_9  and  C_15
    6  A    between atoms: C_14  and  N_19
                            x       y       z     vdW  Elec       q    Type
                         _______ _______ _______ _____ _____    ______ ____

>  <TORSDO>
F 6

$$$$
=
 OpenBabel11052423213D

 27 29  0  0  1  0  0  0  0  0999 V2000
  160.9640  208.9410  152.5800 N   0  0  0  0  0  0  0  0  0  0  0  0
  160.8430  207.1140  154.3700 C   0  0  0  0  0  0  0  0  0  0  0  0
  160.8490  208.5970  157.1520 C   0  0  0  0  0  2  0  0  0  0  0  0
  161.2510  206.2440  153.5580 O   0  0  0  0  0  0  0  0  0  0  0  0
  161.8780  209.0320  156.2560 O   0  0  0  0  0  0  0  0  0  0  0  0
  160.7940  208.5880  154.0100 C   0  0  0  0  0  3  0  0  0  0  0  0
  159.8380  207.6220  156.5470 C   0  0  0  0  0  2  0  0  0  0  0  0
  162.2910  210.4050  154.4690 O   0  0  0  0  0  0  0  0  0  0  0  0
  161.6820  209.3970  154.9180 C   0  0  0  0  0  0  0  0  0  0  0  0
  160.4470  206.7100  155.6440 O   0  0  0  0  0  0  0  0  0  0  0  0
  161.0170  210.3830  152.2600 C   0  0  1  0  0  3  0  0  0  0  0  0
  161.5700  210.6040  150.8570 C   0  0  0  0  0  1  0  0  0  0  0  0
  159.6840  210.9690  152.3230 N   0  0  0  0  0  2  0  0  0  0  0  0
  157.7660  213.5450  151.9090 C   0  0  0  0  0  2  0  0  0  0  0  0
  157.2410  213.6760  153.2670 N   0  0  0  0  0  2  0  0  0  0  0  0
  159.0630  212.3580  154.2340 C   0  0  0  0  0  2  0  0  0  0  0  0
  159.8080  212.3000  152.8980 C   0  0  2  0  0  3  0  0  0  0  0  0
  157.5520  212.4600  154.0170 C   0  0  0  0  0  2  0  0  0  0  0  0
  159.2490  213.3190  151.9460 C   0  0  0  0  0  0  0  0  0  0  0  0
  159.9830  213.9060  151.1680 O   0  0  0  0  0  0  0  0  0  0  0  0
  162.0620  208.1660  151.9760 C   0  0  0  0  0  2  0  0  0  0  0  0
  161.1130  206.4040  148.1700 C   0  0  0  0  0  3  0  0  0  0  0  0
  161.7240  207.5500  150.6500 C   0  0  0  0  0  0  0  0  0  0  0  0
  160.7500  206.5480  150.5600 C   0  0  0  0  0  3  0  0  0  0  0  0
  160.4430  205.9770  149.3200 C   0  0  0  0  0  3  0  0  0  0  0  0
  162.0920  207.3980  148.2580 C   0  0  0  0  0  3  0  0  0  0  0  0
  162.3990  207.9690  149.4970 C   0  0  0  0  0  3  0  0  0  0  0  0
  1  6  1  0  0  0  0
  2 10  1  0  0  0  0
  4  2  2  0  0  0  0
  5  3  1  0  0  0  0
  6  2  1  0  0  0  0
  6  9  1  0  0  0  0
  7  3  1  0  0  0  0
  8  9  2  0  0  0  0
  9  5  1  0  0  0  0
 10  7  1  0  0  0  0
 11 12  1  6  0  0  0
 11 13  1  0  0  0  0
 11  1  1  0  0  0  0
 14 19  1  0  0  0  0
 14 15  1  0  0  0  0
 15 18  1  0  0  0  0
 17 13  1  6  0  0  0
 17 16  1  0  0  0  0
 18 16  1  0  0  0  0
 19 17  1  0  0  0  0
 20 19  2  0  0  0  0
 21  1  1  0  0  0  0
 22 26  2  0  0  0  0
 22 25  1  0  0  0  0
 23 21  1  0  0  0  0
 24 23  1  0  0  0  0
 25 24  2  0  0  0  0
 26 27  1  0  0  0  0
 27 23  2  0  0  0  0
M  END
>  <MODEL>
4

>  <REMARK>
 VINA RESULT:      -5.2      3.941      7.166
  Name = 
  6 active torsions:
  status: ('A' for Active; 'I' for Inactive)
    1  A    between atoms: N_1  and  C_2
    2  A    between atoms: N_1  and  C_15
    3  A    between atoms: N_1  and  C_18
    4  A    between atoms: C_2  and  N_19
    5  A    between atoms: C_9  and  C_15
    6  A    between atoms: C_14  and  N_19
                            x       y       z     vdW  Elec       q    Type
                         _______ _______ _______ _____ _____    ______ ____

>  <TORSDO>
F 6

$$$$
=
 OpenBabel11052423213D

 27 29  0  0  1  0  0  0  0  0999 V2000
  160.6310  210.3850  152.8690 N   0  0  0  0  0  0  0  0  0  0  0  0
  159.9980  212.4810  151.5420 C   0  0  0  0  0  0  0  0  0  0  0  0
  157.7890  213.9650  153.2310 C   0  0  0  0  0  2  0  0  0  0  0  0
  160.4630  211.9910  150.4800 O   0  0  0  0  0  0  0  0  0  0  0  0
  157.5390  212.5680  153.0440 O   0  0  0  0  0  0  0  0  0  0  0  0
  159.8990  211.6730  152.8230 C   0  0  0  0  0  3  0  0  0  0  0  0
  159.1500  214.4500  152.7300 C   0  0  0  0  0  2  0  0  0  0  0  0
  158.0770  210.4880  153.8390 O   0  0  0  0  0  0  0  0  0  0  0  0
  158.4670  211.5440  153.2740 C   0  0  0  0  0  0  0  0  0  0  0  0
  159.5420  213.7980  151.5300 O   0  0  0  0  0  0  0  0  0  0  0  0
  161.2210  209.9160  151.5970 C   0  0  1  0  0  3  0  0  0  0  0  0
  162.7430  209.9350  151.6690 C   0  0  0  0  0  1  0  0  0  0  0  0
  160.7940  208.5520  151.3080 N   0  0  0  0  0  2  0  0  0  0  0  0
  161.1140  205.3800  150.7440 C   0  0  0  0  0  2  0  0  0  0  0  0
  161.2010  205.4020  149.2850 N   0  0  0  0  0  2  0  0  0  0  0  0
  161.8140  207.7710  149.2300 C   0  0  0  0  0  2  0  0  0  0  0  0
  161.9330  207.8350  150.7560 C   0  0  2  0  0  3  0  0  0  0  0  0
  160.7890  206.7190  148.8020 C   0  0  0  0  0  2  0  0  0  0  0  0
  161.9880  206.4490  151.3320 C   0  0  0  0  0  0  0  0  0  0  0  0
  162.6830  206.2120  152.3050 O   0  0  0  0  0  0  0  0  0  0  0  0
  161.5790  210.3600  153.9980 C   0  0  0  0  0  2  0  0  0  0  0  0
  160.7360  207.3280  156.9280 C   0  0  0  0  0  3  0  0  0  0  0  0
  161.2850  209.3070  155.0260 C   0  0  0  0  0  0  0  0  0  0  0  0
  161.8360  209.3940  156.3100 C   0  0  0  0  0  3  0  0  0  0  0  0
  161.5600  208.4070  157.2610 C   0  0  0  0  0  3  0  0  0  0  0  0
  160.1910  207.2330  155.6440 C   0  0  0  0  0  3  0  0  0  0  0  0
  160.4680  208.2200  154.6930 C   0  0  0  0  0  3  0  0  0  0  0  0
  1 21  1  0  0  0  0
  2  6  1  0  0  0  0
  4  2  2  0  0  0  0
  5  3  1  0  0  0  0
  5  9  1  0  0  0  0
  6  1  1  0  0  0  0
  6  9  1  0  0  0  0
  7  3  1  0  0  0  0
  9  8  2  0  0  0  0
 10  2  1  0  0  0  0
 10  7  1  0  0  0  0
 11 12  1  1  0  0  0
 11  1  1  0  0  0  0
 13 11  1  0  0  0  0
 14 19  1  0  0  0  0
 15 14  1  0  0  0  0
 16 17  1  0  0  0  0
 17 13  1  1  0  0  0
 17 19  1  0  0  0  0
 18 16  1  0  0  0  0
 18 15  1  0  0  0  0
 19 20  2  0  0  0  0
 21 23  1  0  0  0  0
 22 25  1  0  0  0  0
 23 24  1  0  0  0  0
 24 25  2  0  0  0  0
 26 22  2  0  0  0  0
 27 23  2  0  0  0  0
 27 26  1  0  0  0  0
M  END
>  <MODEL>
5

>  <REMARK>
 VINA RESULT:      -5.2      3.519      7.630
  Name = 
  6 active torsions:
  status: ('A' for Active; 'I' for Inactive)
    1  A    between atoms: N_1  and  C_2
    2  A    between atoms: N_1  and  C_15
    3  A    between atoms: N_1  and  C_18
    4  A    between atoms: C_2  and  N_19
    5  A    between atoms: C_9  and  C_15
    6  A    between atoms: C_14  and  N_19
                            x       y       z     vdW  Elec       q    Type
                         _______ _______ _______ _____ _____    ______ ____

>  <TORSDO>
F 6

$$$$
=
 OpenBabel11052423213D

 27 29  0  0  1  0  0  0  0  0999 V2000
  160.6310  210.7050  153.2450 N   0  0  0  0  0  0  0  0  0  0  0  0
  161.1780  211.4820  155.6230 C   0  0  0  0  0  0  0  0  0  0  0  0
  162.3250  208.9640  157.1350 C   0  0  0  0  0  2  0  0  0  0  0  0
  160.4150  212.4760  155.5110 O   0  0  0  0  0  0  0  0  0  0  0  0
  161.0990  208.7170  156.4370 O   0  0  0  0  0  0  0  0  0  0  0  0
  161.2580  210.4060  154.5550 C   0  0  0  0  0  3  0  0  0  0  0  0
  162.9410  210.3410  156.8890 C   0  0  0  0  0  2  0  0  0  0  0  0
  160.2320  208.2450  154.3700 O   0  0  0  0  0  0  0  0  0  0  0  0
  160.8460  209.0650  155.1040 C   0  0  0  0  0  0  0  0  0  0  0  0
  161.9540  211.3570  156.7750 O   0  0  0  0  0  0  0  0  0  0  0  0
  161.3500  210.2270  152.0460 C   0  0  1  0  0  3  0  0  0  0  0  0
  162.8440  210.1070  152.3230 C   0  0  0  0  0  1  0  0  0  0  0  0
  160.8540  208.9170  151.6420 N   0  0  0  0  0  2  0  0  0  0  0  0
  160.9670  205.7780  150.8530 C   0  0  0  0  0  2  0  0  0  0  0  0
  161.2380  205.8990  149.4220 N   0  0  0  0  0  2  0  0  0  0  0  0
  162.0550  208.1960  149.6410 C   0  0  0  0  0  2  0  0  0  0  0  0
  161.9870  208.1360  151.1700 C   0  0  2  0  0  3  0  0  0  0  0  0
  161.0050  207.2820  149.0070 C   0  0  0  0  0  2  0  0  0  0  0  0
  161.8490  206.7120  151.6280 C   0  0  0  0  0  0  0  0  0  0  0  0
  162.3940  206.3380  152.6530 O   0  0  0  0  0  0  0  0  0  0  0  0
  159.2020  210.3450  153.2540 C   0  0  0  0  0  2  0  0  0  0  0  0
  156.5350  213.7110  153.4750 C   0  0  0  0  0  3  0  0  0  0  0  0
  158.2710  211.5210  153.3240 C   0  0  0  0  0  0  0  0  0  0  0  0
  158.4040  212.5860  152.4240 C   0  0  0  0  0  3  0  0  0  0  0  0
  157.5350  213.6780  152.4980 C   0  0  0  0  0  3  0  0  0  0  0  0
  156.4060  212.6530  154.3800 C   0  0  0  0  0  3  0  0  0  0  0  0
  157.2750  211.5600  154.3060 C   0  0  0  0  0  3  0  0  0  0  0  0
  1 21  1  0  0  0  0
  1  6  1  0  0  0  0
  2 10  1  0  0  0  0
  4  2  2  0  0  0  0
  5  3  1  0  0  0  0
  6  9  1  0  0  0  0
  6  2  1  0  0  0  0
  7  3  1  0  0  0  0
  8  9  2  0  0  0  0
  9  5  1  0  0  0  0
 10  7  1  0  0  0  0
 11 12  1  1  0  0  0
 11  1  1  0  0  0  0
 13 11  1  0  0  0  0
 14 19  1  0  0  0  0
 15 14  1  0  0  0  0
 16 17  1  0  0  0  0
 17 19  1  0  0  0  0
 17 13  1  6  0  0  0
 18 15  1  0  0  0  0
 18 16  1  0  0  0  0
 19 20  2  0  0  0  0
 21 23  1  0  0  0  0
 22 26  1  0  0  0  0
 23 27  1  0  0  0  0
 24 25  1  0  0  0  0
 24 23  2  0  0  0  0
 25 22  2  0  0  0  0
 27 26  2  0  0  0  0
M  END
>  <MODEL>
6

>  <REMARK>
 VINA RESULT:      -5.2      3.783      8.947
  Name = 
  6 active torsions:
  status: ('A' for Active; 'I' for Inactive)
    1  A    between atoms: N_1  and  C_2
    2  A    between atoms: N_1  and  C_15
    3  A    between atoms: N_1  and  C_18
    4  A    between atoms: C_2  and  N_19
    5  A    between atoms: C_9  and  C_15
    6  A    between atoms: C_14  and  N_19
                            x       y       z     vdW  Elec       q    Type
                         _______ _______ _______ _____ _____    ______ ____

>  <TORSDO>
F 6

$$$$
=
 OpenBabel11052423213D

 27 29  0  0  1  0  0  0  0  0999 V2000
  160.8720  209.7020  152.1970 N   0  0  0  0  0  0  0  0  0  0  0  0
  161.0940  210.3900  154.6530 C   0  0  0  0  0  0  0  0  0  0  0  0
  158.1860  211.1030  155.6400 C   0  0  0  0  0  2  0  0  0  0  0  0
  162.3230  210.6210  154.5130 O   0  0  0  0  0  0  0  0  0  0  0  0
  158.5530  211.7280  154.4050 O   0  0  0  0  0  0  0  0  0  0  0  0
  160.2020  210.0450  153.4740 C   0  0  0  0  0  3  0  0  0  0  0  0
  159.1930  210.0810  156.1700 C   0  0  0  0  0  2  0  0  0  0  0  0
  158.7080  211.3720  152.1470 O   0  0  0  0  0  0  0  0  0  0  0  0
  159.1110  211.0690  153.3020 C   0  0  0  0  0  0  0  0  0  0  0  0
  160.5360  210.4770  155.9270 O   0  0  0  0  0  0  0  0  0  0  0  0
  161.5860  210.8000  151.5120 C   0  0  1  0  0  3  0  0  0  0  0  0
  163.0600  210.4570  151.3340 C   0  0  0  0  0  1  0  0  0  0  0  0
  161.0100  211.0390  150.1940 N   0  0  0  0  0  2  0  0  0  0  0  0
  160.8090  212.3100  147.2220 C   0  0  0  0  0  2  0  0  0  0  0  0
  159.9410  213.4520  147.5060 N   0  0  0  0  0  2  0  0  0  0  0  0
  160.4400  213.3970  149.9020 C   0  0  0  0  0  2  0  0  0  0  0  0
  161.5110  212.3180  149.7130 C   0  0  2  0  0  3  0  0  0  0  0  0
  159.3510  213.2840  148.8340 C   0  0  0  0  0  2  0  0  0  0  0  0
  161.8850  212.2050  148.2630 C   0  0  0  0  0  0  0  0  0  0  0  0
  163.0360  211.9640  147.9390 O   0  0  0  0  0  0  0  0  0  0  0  0
  161.6800  208.4780  152.3410 C   0  0  0  0  0  2  0  0  0  0  0  0
  160.6200  205.3350  149.6060 C   0  0  0  0  0  3  0  0  0  0  0  0
  161.3060  207.3770  151.3920 C   0  0  0  0  0  0  0  0  0  0  0  0
  161.1530  206.0640  151.8520 C   0  0  0  0  0  3  0  0  0  0  0  0
  160.8070  205.0440  150.9600 C   0  0  0  0  0  3  0  0  0  0  0  0
  160.7810  206.6430  149.1420 C   0  0  0  0  0  3  0  0  0  0  0  0
  161.1270  207.6630  150.0330 C   0  0  0  0  0  3  0  0  0  0  0  0
  1 21  1  0  0  0  0
  1  6  1  0  0  0  0
  2 10  1  0  0  0  0
  3  7  1  0  0  0  0
  4  2  2  0  0  0  0
  5  3  1  0  0  0  0
  6  2  1  0  0  0  0
  8  9  2  0  0  0  0
  9  6  1  0  0  0  0
  9  5  1  0  0  0  0
 10  7  1  0  0  0  0
 11 12  1  6  0  0  0
 11  1  1  0  0  0  0
 13 11  1  0  0  0  0
 14 15  1  0  0  0  0
 14 19  1  0  0  0  0
 15 18  1  0  0  0  0
 17 16  1  0  0  0  0
 17 13  1  6  0  0  0
 18 16  1  0  0  0  0
 19 17  1  0  0  0  0
 20 19  2  0  0  0  0
 22 25  1  0  0  0  0
 23 24  1  0  0  0  0
 23 21  1  0  0  0  0
 25 24  2  0  0  0  0
 26 22  2  0  0  0  0
 26 27  1  0  0  0  0
 27 23  2  0  0  0  0
M  END
>  <MODEL>
7

>  <REMARK>
 VINA RESULT:      -4.9      3.955      7.415
  Name = 
  6 active torsions:
  status: ('A' for Active; 'I' for Inactive)
    1  A    between atoms: N_1  and  C_2
    2  A    between atoms: N_1  and  C_15
    3  A    between atoms: N_1  and  C_18
    4  A    between atoms: C_2  and  N_19
    5  A    between atoms: C_9  and  C_15
    6  A    between atoms: C_14  and  N_19
                            x       y       z     vdW  Elec       q    Type
                         _______ _______ _______ _____ _____    ______ ____

>  <TORSDO>
F 6

$$$$
=
 OpenBabel11052423213D

 27 29  0  0  1  0  0  0  0  0999 V2000
  161.8070  205.3020  148.4860 N   0  0  0  0  0  0  0  0  0  0  0  0
  160.4690  206.3250  146.5570 C   0  0  0  0  0  0  0  0  0  0  0  0
  161.6220  205.0590  143.9100 C   0  0  0  0  0  2  0  0  0  0  0  0
  160.1030  207.2900  147.2770 O   0  0  0  0  0  0  0  0  0  0  0  0
  162.6240  205.5730  144.7960 O   0  0  0  0  0  0  0  0  0  0  0  0
  161.4800  205.3010  147.0400 C   0  0  0  0  0  3  0  0  0  0  0  0
  160.2000  205.0620  144.4730 C   0  0  0  0  0  2  0  0  0  0  0  0
  163.8400  205.0750  146.6720 O   0  0  0  0  0  0  0  0  0  0  0  0
  162.7070  205.2970  146.1660 C   0  0  0  0  0  0  0  0  0  0  0  0
  159.9430  206.2090  145.2710 O   0  0  0  0  0  0  0  0  0  0  0  0
  162.3530  206.5610  149.0360 C   0  0  1  0  0  3  0  0  0  0  0  0
  162.3890  207.6470  147.9680 C   0  0  0  0  0  1  0  0  0  0  0  0
  161.5300  207.0340  150.1420 N   0  0  0  0  0  2  0  0  0  0  0  0
  160.8160  208.4960  152.9420 C   0  0  0  0  0  2  0  0  0  0  0  0
  161.0870  207.3950  153.8650 N   0  0  0  0  0  2  0  0  0  0  0  0
  162.4730  206.2030  152.2370 C   0  0  0  0  0  2  0  0  0  0  0  0
  162.4150  207.3700  151.2470 C   0  0  2  0  0  3  0  0  0  0  0  0
  161.2120  206.1530  153.1020 C   0  0  0  0  0  2  0  0  0  0  0  0
  161.9220  208.6110  151.9340 C   0  0  0  0  0  0  0  0  0  0  0  0
  162.3670  209.7050  151.6290 O   0  0  0  0  0  0  0  0  0  0  0  0
  160.6910  204.7530  149.2770 C   0  0  0  0  0  2  0  0  0  0  0  0
  161.1140  200.6020  150.3110 C   0  0  0  0  0  3  0  0  0  0  0  0
  160.8420  203.3030  149.6310 C   0  0  0  0  0  0  0  0  0  0  0  0
  160.7530  202.3170  148.6410 C   0  0  0  0  0  3  0  0  0  0  0  0
  160.8920  200.9680  148.9800 C   0  0  0  0  0  3  0  0  0  0  0  0
  161.1940  201.5830  151.3030 C   0  0  0  0  0  3  0  0  0  0  0  0
  161.0550  202.9320  150.9640 C   0  0  0  0  0  3  0  0  0  0  0  0
  1 11  1  0  0  0  0
  1 21  1  0  0  0  0
  2  6  1  0  0  0  0
  2  4  2  0  0  0  0
  3  7  1  0  0  0  0
  3  5  1  0  0  0  0
  5  9  1  0  0  0  0
  6  1  1  0  0  0  0
  7 10  1  0  0  0  0
  9  8  2  0  0  0  0
  9  6  1  0  0  0  0
 10  2  1  0  0  0  0
 11 12  1  6  0  0  0
 11 13  1  0  0  0  0
 14 15  1  0  0  0  0
 16 18  1  0  0  0  0
 17 13  1  6  0  0  0
 17 19  1  0  0  0  0
 17 16  1  0  0  0  0
 18 15  1  0  0  0  0
 19 14  1  0  0  0  0
 20 19  2  0  0  0  0
 21 23  1  0  0  0  0
 22 26  1  0  0  0  0
 23 27  1  0  0  0  0
 24 25  1  0  0  0  0
 24 23  2  0  0  0  0
 25 22  2  0  0  0  0
 27 26  2  0  0  0  0
M  END
>  <MODEL>
8

>  <REMARK>
 VINA RESULT:      -4.7      0.856      2.036
  Name = 
  6 active torsions:
  status: ('A' for Active; 'I' for Inactive)
    1  A    between atoms: N_1  and  C_2
    2  A    between atoms: N_1  and  C_15
    3  A    between atoms: N_1  and  C_18
    4  A    between atoms: C_2  and  N_19
    5  A    between atoms: C_9  and  C_15
    6  A    between atoms: C_14  and  N_19
                            x       y       z     vdW  Elec       q    Type
                         _______ _______ _______ _____ _____    ______ ____

>  <TORSDO>
F 6

$$$$
=
 OpenBabel11052423213D

 27 29  0  0  1  0  0  0  0  0999 V2000
  161.0710  206.7930  150.0180 N   0  0  0  0  0  0  0  0  0  0  0  0
  160.8310  207.5190  152.4620 C   0  0  0  0  0  0  0  0  0  0  0  0
  161.1660  210.6540  152.4920 C   0  0  0  0  0  2  0  0  0  0  0  0
  161.0870  206.3560  152.8680 O   0  0  0  0  0  0  0  0  0  0  0  0
  162.1900  209.9640  151.7650 O   0  0  0  0  0  0  0  0  0  0  0  0
  160.9390  207.8990  150.9960 C   0  0  0  0  0  3  0  0  0  0  0  0
  160.0140  209.7730  152.9760 C   0  0  0  0  0  2  0  0  0  0  0  0
  162.6650  208.9970  149.7430 O   0  0  0  0  0  0  0  0  0  0  0  0
  161.9650  208.9820  150.7910 C   0  0  0  0  0  0  0  0  0  0  0  0
  160.4600  208.4890  153.3920 O   0  0  0  0  0  0  0  0  0  0  0  0
  161.2320  207.1820  148.6020 C   0  0  1  0  0  3  0  0  0  0  0  0
  162.7060  207.3580  148.2550 C   0  0  0  0  0  1  0  0  0  0  0  0
  160.6750  206.1580  147.7250 N   0  0  0  0  0  2  0  0  0  0  0  0
  161.2900  203.7400  145.6610 C   0  0  0  0  0  2  0  0  0  0  0  0
  160.5160  204.2020  144.5110 N   0  0  0  0  0  2  0  0  0  0  0  0
  160.4560  206.5120  145.3180 C   0  0  0  0  0  2  0  0  0  0  0  0
  161.4130  206.1950  146.4710 C   0  0  2  0  0  3  0  0  0  0  0  0
  159.6280  205.2840  144.9360 C   0  0  0  0  0  2  0  0  0  0  0  0
  162.0860  204.8730  146.2390 C   0  0  0  0  0  0  0  0  0  0  0  0
  163.2460  204.7030  146.5770 O   0  0  0  0  0  0  0  0  0  0  0  0
  162.0690  205.8080  150.4730 C   0  0  0  0  0  2  0  0  0  0  0  0
  160.6790  201.7400  150.4410 C   0  0  0  0  0  3  0  0  0  0  0  0
  161.5810  204.3890  150.4690 C   0  0  0  0  0  0  0  0  0  0  0  0
  161.5820  203.6350  151.6480 C   0  0  0  0  0  3  0  0  0  0  0  0
  161.1280  202.3120  151.6350 C   0  0  0  0  0  3  0  0  0  0  0  0
  160.6850  202.4880  149.2610 C   0  0  0  0  0  3  0  0  0  0  0  0
  161.1390  203.8100  149.2740 C   0  0  0  0  0  3  0  0  0  0  0  0
  1 21  1  0  0  0  0
  1  6  1  0  0  0  0
  2  4  2  0  0  0  0
  2 10  1  0  0  0  0
  3  7  1  0  0  0  0
  5  3  1  0  0  0  0
  6  2  1  0  0  0  0
  7 10  1  0  0  0  0
  8  9  2  0  0  0  0
  9  6  1  0  0  0  0
  9  5  1  0  0  0  0
 11 12  1  6  0  0  0
 11  1  1  0  0  0  0
 13 11  1  0  0  0  0
 14 19  1  0  0  0  0
 15 18  1  0  0  0  0
 15 14  1  0  0  0  0
 16 17  1  0  0  0  0
 17 13  1  1  0  0  0
 18 16  1  0  0  0  0
 19 17  1  0  0  0  0
 19 20  2  0  0  0  0
 22 25  1  0  0  0  0
 23 21  1  0  0  0  0
 23 24  1  0  0  0  0
 25 24  2  0  0  0  0
 26 27  1  0  0  0  0
 26 22  2  0  0  0  0
 27 23  2  0  0  0  0
M  END
>  <MODEL>
9

>  <REMARK>
 VINA RESULT:      -4.7      1.789      6.028
  Name = 
  6 active torsions:
  status: ('A' for Active; 'I' for Inactive)
    1  A    between atoms: N_1  and  C_2
    2  A    between atoms: N_1  and  C_15
    3  A    between atoms: N_1  and  C_18
    4  A    between atoms: C_2  and  N_19
    5  A    between atoms: C_9  and  C_15
    6  A    between atoms: C_14  and  N_19
                            x       y       z     vdW  Elec       q    Type
                         _______ _______ _______ _____ _____    ______ ____

>  <TORSDO>
F 6

$$$$
