=
 OpenBabel11062409393D

 34 38  0  0  1  0  0  0  0  0999 V2000
  161.2290  208.7670  151.8730 C   0  0  0  0  0  0  0  0  0  0  0  0
  160.3070  212.3320  151.6930 C   0  0  0  0  0  3  0  0  0  0  0  0
  160.5380  210.9130  153.4650 N   0  0  0  0  0  2  0  0  0  0  0  0
  163.0950  207.5960  150.9940 F   0  0  0  0  0  0  0  0  0  0  0  0
  161.7120  207.5880  151.0520 C   0  0  1  0  0  3  0  0  0  0  0  0
  161.0330  207.2100  153.8220 C   0  0  0  0  0  0  0  0  0  0  0  0
  160.9170  207.0030  155.1560 F   0  0  0  0  0  0  0  0  0  0  0  0
  161.1260  206.1500  153.0210 C   0  0  0  0  0  3  0  0  0  0  0  0
  161.2540  206.3050  151.5990 N   0  0  0  0  0  0  0  0  0  0  0  0
  160.6840  209.6960  154.0410 C   0  0  0  0  0  0  0  0  0  0  0  0
  160.9840  208.5780  153.2490 C   0  0  0  0  0  0  0  0  0  0  0  0
  160.5120  209.5850  155.2840 O   0  0  0  0  0  0  0  0  0  0  0  0
  160.1000  212.7200  150.2700 C   0  0  0  0  0  2  0  0  0  0  0  0
  161.3460  212.6240  149.4640 C   0  0  0  0  0  0  0  0  0  0  0  0
  161.9780  211.4670  149.3230 C   0  0  0  0  0  3  0  0  0  0  0  0
  160.7040  211.1320  152.1350 C   0  0  0  0  0  0  0  0  0  0  0  0
  161.7080  210.2310  150.0800 C   0  0  0  0  0  3  0  0  0  0  0  0
  161.1680  210.0670  151.3080 C   0  0  0  0  0  0  0  0  0  0  0  0
  160.6060  202.7940  150.4270 C   0  0  0  0  0  3  0  0  0  0  0  0
  161.3460  205.2730  149.3510 C   0  0  0  0  0  3  0  0  0  0  0  0
  160.9400  201.9230  146.8420 C   0  0  0  0  0  0  0  0  0  0  0  0
  160.7050  201.8030  148.2190 C   0  0  0  0  0  3  0  0  0  0  0  0
  160.8390  202.9140  149.0560 C   0  0  0  0  0  0  0  0  0  0  0  0
  161.4470  204.2840  147.1430 C   0  0  0  0  0  3  0  0  0  0  0  0
  161.2120  204.1630  148.5140 C   0  0  0  0  0  0  0  0  0  0  0  0
  161.3110  203.1680  146.3110 C   0  0  0  0  0  3  0  0  0  0  0  0
  161.1100  205.1610  150.7320 C   0  0  0  0  0  0  0  0  0  0  0  0
  160.7410  203.9100  151.2590 C   0  0  0  0  0  3  0  0  0  0  0  0
  160.7990  200.7490  145.9660 C   0  0  0  0  0  0  0  0  0  0  0  0
  160.1400  200.8280  144.8940 O   0  0  0  0  0  0  0  0  0  0  0  0
  161.3900  199.5400  146.3130 O   0  0  0  0  0  1  0  0  0  0  0  0
  161.7770  213.7760  148.6160 C   0  0  2  0  0  3  0  0  0  0  0  0
  160.6670  214.1930  147.6680 C   0  0  0  0  0  1  0  0  0  0  0  0
  162.9180  213.4370  147.8880 O   0  0  0  0  0  1  0  0  0  0  0  0
  1 11  2  0  0  0  0
  2 16  2  0  0  0  0
  3 10  1  0  0  0  0
  5  4  1  1  0  0  0
  5  9  1  0  0  0  0
  5  1  1  0  0  0  0
  6  7  1  0  0  0  0
  8  6  2  0  0  0  0
  9  8  1  0  0  0  0
 10 12  2  0  0  0  0
 11  6  1  0  0  0  0
 11 10  1  0  0  0  0
 13  2  1  0  0  0  0
 14 13  1  0  0  0  0
 15 14  2  0  0  0  0
 15 17  1  0  0  0  0
 16  3  1  0  0  0  0
 17 18  2  0  0  0  0
 18  1  1  0  0  0  0
 18 16  1  0  0  0  0
 19 28  1  0  0  0  0
 20 27  1  0  0  0  0
 21 22  2  0  0  0  0
 22 23  1  0  0  0  0
 23 19  2  0  0  0  0
 24 25  1  0  0  0  0
 25 23  1  0  0  0  0
 25 20  2  0  0  0  0
 26 21  1  0  0  0  0
 26 24  2  0  0  0  0
 27 28  2  0  0  0  0
 27  9  1  0  0  0  0
 29 31  1  0  0  0  0
 29 21  1  0  0  0  0
 30 29  2  0  0  0  0
 32 33  1  6  0  0  0
 32 14  1  0  0  0  0
 34 32  1  0  0  0  0
M  END
>  <MODEL>
1

>  <REMARK>
 VINA RESULT:     -11.2      0.000      0.000
  Name = 
  3 active torsions:
  status: ('A' for Active; 'I' for Inactive)
    1  A    between atoms: C_3  and  C_25
    2  A    between atoms: C_7  and  C_11
    3  A    between atoms: N_18  and  C_30
                            x       y       z     vdW  Elec       q    Type
                         _______ _______ _______ _____ _____    ______ ____

>  <TORSDO>
F 3

$$$$
=
 OpenBabel11062409393D

 34 38  0  0  1  0  0  0  0  0999 V2000
  160.7800  209.2640  153.0500 C   0  0  0  0  0  0  0  0  0  0  0  0
  159.2840  212.6330  153.1270 C   0  0  0  0  0  3  0  0  0  0  0  0
  159.9600  211.2360  154.7990 N   0  0  0  0  0  2  0  0  0  0  0  0
  162.6840  208.4320  151.9060 F   0  0  0  0  0  0  0  0  0  0  0  0
  161.3380  208.1970  152.1300 C   0  0  1  0  0  3  0  0  0  0  0  0
  161.0820  207.6570  154.9440 C   0  0  0  0  0  0  0  0  0  0  0  0
  161.1690  207.4070  156.2730 F   0  0  0  0  0  0  0  0  0  0  0  0
  161.2410  206.6430  154.0960 C   0  0  0  0  0  3  0  0  0  0  0  0
  161.1640  206.8450  152.6760 N   0  0  0  0  0  0  0  0  0  0  0  0
  160.3690  210.0480  155.3030 C   0  0  0  0  0  0  0  0  0  0  0  0
  160.7430  209.0100  154.4370 C   0  0  0  0  0  0  0  0  0  0  0  0
  160.3750  209.8840  156.5530 O   0  0  0  0  0  0  0  0  0  0  0  0
  158.8410  213.0110  151.7550 C   0  0  0  0  0  2  0  0  0  0  0  0
  159.9750  213.1360  150.8020 C   0  0  0  0  0  0  0  0  0  0  0  0
  160.7620  212.1010  150.5400 C   0  0  0  0  0  3  0  0  0  0  0  0
  159.9200  211.5060  153.4690 C   0  0  0  0  0  0  0  0  0  0  0  0
  160.7900  210.8230  151.2720 C   0  0  0  0  0  3  0  0  0  0  0  0
  160.4410  210.5480  152.5490 C   0  0  0  0  0  0  0  0  0  0  0  0
  160.8560  203.3080  151.4470 C   0  0  0  0  0  3  0  0  0  0  0  0
  161.2240  205.8790  150.3980 C   0  0  0  0  0  3  0  0  0  0  0  0
  161.0460  202.5590  147.8250 C   0  0  0  0  0  0  0  0  0  0  0  0
  160.9210  202.3830  149.2100 C   0  0  0  0  0  3  0  0  0  0  0  0
  160.9800  203.4830  150.0690 C   0  0  0  0  0  0  0  0  0  0  0  0
  161.2910  204.9560  148.1600 C   0  0  0  0  0  3  0  0  0  0  0  0
  161.1650  204.7800  149.5400 C   0  0  0  0  0  0  0  0  0  0  0  0
  161.2310  203.8500  147.3070 C   0  0  0  0  0  3  0  0  0  0  0  0
  161.0970  205.7110  151.7880 C   0  0  0  0  0  0  0  0  0  0  0  0
  160.9150  204.4140  152.3010 C   0  0  0  0  0  3  0  0  0  0  0  0
  160.9850  201.3950  146.9260 C   0  0  0  0  0  0  0  0  0  0  0  0
  161.3810  200.2650  147.3160 O   0  0  0  0  0  1  0  0  0  0  0  0
  160.4890  201.5330  145.6340 O   0  0  0  0  0  0  0  0  0  0  0  0
  160.1060  214.3600  149.9560 C   0  0  2  0  0  3  0  0  0  0  0  0
  158.9660  214.4510  148.9570 C   0  0  0  0  0  1  0  0  0  0  0  0
  161.3270  214.3480  149.2790 O   0  0  0  0  0  1  0  0  0  0  0  0
  1 11  2  0  0  0  0
  2 16  2  0  0  0  0
  3 10  1  0  0  0  0
  5  4  1  1  0  0  0
  5  9  1  0  0  0  0
  5  1  1  0  0  0  0
  6  7  1  0  0  0  0
  8  6  2  0  0  0  0
  9  8  1  0  0  0  0
 10 12  2  0  0  0  0
 11  6  1  0  0  0  0
 11 10  1  0  0  0  0
 13  2  1  0  0  0  0
 14 13  1  0  0  0  0
 15 14  2  0  0  0  0
 15 17  1  0  0  0  0
 16  3  1  0  0  0  0
 17 18  2  0  0  0  0
 18  1  1  0  0  0  0
 18 16  1  0  0  0  0
 19 28  1  0  0  0  0
 20 27  1  0  0  0  0
 21 22  2  0  0  0  0
 22 23  1  0  0  0  0
 23 19  2  0  0  0  0
 24 25  1  0  0  0  0
 25 23  1  0  0  0  0
 25 20  2  0  0  0  0
 26 21  1  0  0  0  0
 26 24  2  0  0  0  0
 27 28  2  0  0  0  0
 27  9  1  0  0  0  0
 29 30  1  0  0  0  0
 29 21  1  0  0  0  0
 31 29  2  0  0  0  0
 32 33  1  6  0  0  0
 32 14  1  0  0  0  0
 34 32  1  0  0  0  0
M  END
>  <MODEL>
2

>  <REMARK>
 VINA RESULT:     -10.5      1.209      1.568
  Name = 
  3 active torsions:
  status: ('A' for Active; 'I' for Inactive)
    1  A    between atoms: C_3  and  C_25
    2  A    between atoms: C_7  and  C_11
    3  A    between atoms: N_18  and  C_30
                            x       y       z     vdW  Elec       q    Type
                         _______ _______ _______ _____ _____    ______ ____

>  <TORSDO>
F 3

$$$$
=
 OpenBabel11062409393D

 34 38  0  0  1  0  0  0  0  0999 V2000
  160.7110  210.7170  152.1680 C   0  0  0  0  0  0  0  0  0  0  0  0
  159.4590  213.9130  150.8250 C   0  0  0  0  0  3  0  0  0  0  0  0
  159.7260  213.1690  152.9650 N   0  0  0  0  0  2  0  0  0  0  0  0
  162.7280  209.5390  151.7580 F   0  0  0  0  0  0  0  0  0  0  0  0
  161.3510  209.3980  151.7840 C   0  0  1  0  0  3  0  0  0  0  0  0
  160.5570  209.8510  154.5110 C   0  0  0  0  0  0  0  0  0  0  0  0
  160.3860  210.0700  155.8380 F   0  0  0  0  0  0  0  0  0  0  0  0
  160.7960  208.6090  154.0990 C   0  0  0  0  0  3  0  0  0  0  0  0
  160.9900  208.3140  152.7060 N   0  0  0  0  0  0  0  0  0  0  0  0
  159.9550  212.2230  153.9060 C   0  0  0  0  0  0  0  0  0  0  0  0
  160.4080  210.9510  153.5260 C   0  0  0  0  0  0  0  0  0  0  0  0
  159.7250  212.4960  155.1150 O   0  0  0  0  0  0  0  0  0  0  0  0
  159.2970  213.8020  149.3480 C   0  0  0  0  0  2  0  0  0  0  0  0
  160.5900  213.5910  148.6450 C   0  0  0  0  0  0  0  0  0  0  0  0
  161.3390  212.5260  148.9000 C   0  0  0  0  0  3  0  0  0  0  0  0
  159.9450  212.9690  151.6400 C   0  0  0  0  0  0  0  0  0  0  0  0
  161.1470  211.5750  150.0090 C   0  0  0  0  0  3  0  0  0  0  0  0
  160.5560  211.7540  151.2120 C   0  0  0  0  0  0  0  0  0  0  0  0
  161.1140  204.5590  152.7480 C   0  0  0  0  0  3  0  0  0  0  0  0
  160.9530  206.6420  150.8820 C   0  0  0  0  0  3  0  0  0  0  0  0
  161.0230  202.6460  149.5770 C   0  0  0  0  0  0  0  0  0  0  0  0
  161.0790  202.9400  150.9470 C   0  0  0  0  0  3  0  0  0  0  0  0
  161.0560  204.2670  151.3850 C   0  0  0  0  0  0  0  0  0  0  0  0
  160.9200  205.0250  149.0800 C   0  0  0  0  0  3  0  0  0  0  0  0
  160.9750  205.3170  150.4440 C   0  0  0  0  0  0  0  0  0  0  0  0
  160.9430  203.6950  148.6490 C   0  0  0  0  0  3  0  0  0  0  0  0
  161.0070  206.9450  152.2530 C   0  0  0  0  0  0  0  0  0  0  0  0
  161.0900  205.8890  153.1790 C   0  0  0  0  0  3  0  0  0  0  0  0
  161.0480  201.2460  149.1230 C   0  0  0  0  0  0  0  0  0  0  0  0
  161.1560  200.3060  149.9550 O   0  0  0  0  0  1  0  0  0  0  0  0
  160.9550  200.9480  147.7680 O   0  0  0  0  0  0  0  0  0  0  0  0
  160.9550  214.4520  147.4800 C   0  0  2  0  0  3  0  0  0  0  0  0
  159.9190  214.3350  146.3770 C   0  0  0  0  0  1  0  0  0  0  0  0
  162.2100  214.0910  146.9890 O   0  0  0  0  0  1  0  0  0  0  0  0
  1 11  2  0  0  0  0
  2 16  2  0  0  0  0
  3 10  1  0  0  0  0
  5  4  1  1  0  0  0
  5  1  1  0  0  0  0
  5  9  1  0  0  0  0
  6  7  1  0  0  0  0
  8  6  2  0  0  0  0
  9  8  1  0  0  0  0
 10 12  2  0  0  0  0
 11 10  1  0  0  0  0
 11  6  1  0  0  0  0
 13  2  1  0  0  0  0
 14 15  2  0  0  0  0
 14 13  1  0  0  0  0
 15 17  1  0  0  0  0
 16  3  1  0  0  0  0
 17 18  2  0  0  0  0
 18 16  1  0  0  0  0
 18  1  1  0  0  0  0
 19 28  1  0  0  0  0
 20 27  1  0  0  0  0
 21 22  2  0  0  0  0
 22 23  1  0  0  0  0
 23 19  2  0  0  0  0
 24 25  1  0  0  0  0
 25 20  2  0  0  0  0
 25 23  1  0  0  0  0
 26 24  2  0  0  0  0
 26 21  1  0  0  0  0
 27  9  1  0  0  0  0
 27 28  2  0  0  0  0
 29 21  1  0  0  0  0
 29 30  1  0  0  0  0
 31 29  2  0  0  0  0
 32 33  1  6  0  0  0
 32 14  1  0  0  0  0
 34 32  1  0  0  0  0
M  END
>  <MODEL>
3

>  <REMARK>
 VINA RESULT:      -9.6      1.642      2.457
  Name = 
  3 active torsions:
  status: ('A' for Active; 'I' for Inactive)
    1  A    between atoms: C_3  and  C_25
    2  A    between atoms: C_7  and  C_11
    3  A    between atoms: N_18  and  C_30
                            x       y       z     vdW  Elec       q    Type
                         _______ _______ _______ _____ _____    ______ ____

>  <TORSDO>
F 3

$$$$
=
 OpenBabel11062409393D

 34 38  0  0  1  0  0  0  0  0999 V2000
  160.2340  208.8750  153.7720 C   0  0  0  0  0  0  0  0  0  0  0  0
  157.9490  211.3100  155.3340 C   0  0  0  0  0  3  0  0  0  0  0  0
  159.3520  209.7530  156.2350 N   0  0  0  0  0  2  0  0  0  0  0  0
  161.9640  209.1660  152.1760 F   0  0  0  0  0  0  0  0  0  0  0  0
  160.8240  208.4290  152.4490 C   0  0  1  0  0  3  0  0  0  0  0  0
  161.3980  206.9330  154.8380 C   0  0  0  0  0  0  0  0  0  0  0  0
  161.8610  206.3010  155.9440 F   0  0  0  0  0  0  0  0  0  0  0  0
  161.6180  206.3760  153.6490 C   0  0  0  0  0  3  0  0  0  0  0  0
  161.1550  206.9990  152.4410 N   0  0  0  0  0  0  0  0  0  0  0  0
  160.1730  208.6780  156.1840 C   0  0  0  0  0  0  0  0  0  0  0  0
  160.5960  208.1780  154.9430 C   0  0  0  0  0  0  0  0  0  0  0  0
  160.5190  208.1210  157.2610 O   0  0  0  0  0  0  0  0  0  0  0  0
  157.1080  211.9480  154.2820 C   0  0  0  0  0  2  0  0  0  0  0  0
  157.9070  212.7590  153.3260 C   0  0  0  0  0  0  0  0  0  0  0  0
  158.8580  212.2000  152.5890 C   0  0  0  0  0  3  0  0  0  0  0  0
  158.9270  210.4190  155.1310 C   0  0  0  0  0  0  0  0  0  0  0  0
  159.4020  210.8410  152.7560 C   0  0  0  0  0  3  0  0  0  0  0  0
  159.4530  210.0570  153.8560 C   0  0  0  0  0  0  0  0  0  0  0  0
  161.4390  206.2510  148.7700 C   0  0  0  0  0  3  0  0  0  0  0  0
  160.9810  204.8820  151.1710 C   0  0  0  0  0  3  0  0  0  0  0  0
  161.0570  202.7820  147.5300 C   0  0  0  0  0  0  0  0  0  0  0  0
  161.2610  204.1690  147.5460 C   0  0  0  0  0  3  0  0  0  0  0  0
  161.2370  204.8700  148.7540 C   0  0  0  0  0  0  0  0  0  0  0  0
  160.8010  202.7990  149.9490 C   0  0  0  0  0  3  0  0  0  0  0  0
  161.0060  204.1800  149.9640 C   0  0  0  0  0  0  0  0  0  0  0  0
  160.8270  202.1030  148.7360 C   0  0  0  0  0  3  0  0  0  0  0  0
  161.1880  206.2730  151.1960 C   0  0  0  0  0  0  0  0  0  0  0  0
  161.4140  206.9470  149.9820 C   0  0  0  0  0  3  0  0  0  0  0  0
  161.0830  202.0480  146.2540 C   0  0  0  0  0  0  0  0  0  0  0  0
  161.2050  202.6670  145.1630 O   0  0  0  0  0  0  0  0  0  0  0  0
  160.9720  200.6630  146.2400 O   0  0  0  0  0  1  0  0  0  0  0  0
  157.5000  214.1610  153.0150 C   0  0  2  0  0  3  0  0  0  0  0  0
  156.1110  214.4530  153.5540 C   0  0  0  0  0  1  0  0  0  0  0  0
  157.5250  214.3750  151.6360 O   0  0  0  0  0  1  0  0  0  0  0  0
  1 18  1  0  0  0  0
  1 11  2  0  0  0  0
  5  4  1  1  0  0  0
  5  1  1  0  0  0  0
  6 11  1  0  0  0  0
  6  7  1  0  0  0  0
  8  6  2  0  0  0  0
  9  5  1  0  0  0  0
  9  8  1  0  0  0  0
 10  3  1  0  0  0  0
 10 12  2  0  0  0  0
 11 10  1  0  0  0  0
 13  2  1  0  0  0  0
 14 13  1  0  0  0  0
 15 17  1  0  0  0  0
 15 14  2  0  0  0  0
 16  2  2  0  0  0  0
 16  3  1  0  0  0  0
 17 18  2  0  0  0  0
 18 16  1  0  0  0  0
 19 28  1  0  0  0  0
 20 27  1  0  0  0  0
 21 22  2  0  0  0  0
 21 26  1  0  0  0  0
 22 23  1  0  0  0  0
 23 19  2  0  0  0  0
 23 25  1  0  0  0  0
 24 25  1  0  0  0  0
 25 20  2  0  0  0  0
 26 24  2  0  0  0  0
 27  9  1  0  0  0  0
 28 27  2  0  0  0  0
 29 21  1  0  0  0  0
 30 29  2  0  0  0  0
 31 29  1  0  0  0  0
 32 14  1  0  0  0  0
 32 33  1  6  0  0  0
 34 32  1  0  0  0  0
M  END
>  <MODEL>
4

>  <REMARK>
 VINA RESULT:      -9.1      2.457      3.345
  Name = 
  3 active torsions:
  status: ('A' for Active; 'I' for Inactive)
    1  A    between atoms: C_3  and  C_25
    2  A    between atoms: C_7  and  C_11
    3  A    between atoms: N_18  and  C_30
                            x       y       z     vdW  Elec       q    Type
                         _______ _______ _______ _____ _____    ______ ____

>  <TORSDO>
F 3

$$$$
