=
 OpenBabel11062408053D

 34 41  0  0  1  0  0  0  0  0999 V2000
  161.7870  208.5120  148.7990 C   0  0  0  0  0  0  0  0  0  0  0  0
  161.8700  209.5320  151.0010 C   0  0  0  0  0  0  0  0  0  0  0  0
  161.5700  207.1260  150.7510 C   0  0  0  0  0  0  0  0  0  0  0  0
  160.8870  205.8540  152.7260 C   0  0  2  0  0  3  0  0  0  0  0  0
  162.0840  210.8480  149.0380 C   0  0  0  0  0  3  0  0  0  0  0  0
  162.0460  210.7390  150.3990 N   0  0  0  0  0  0  0  0  0  0  0  0
  161.1010  208.1420  152.9340 C   0  0  2  0  0  3  0  0  0  0  0  0
  161.7430  208.3840  150.1880 C   0  0  0  0  0  0  0  0  0  0  0  0
  161.0420  206.0810  154.2270 C   0  0  0  0  0  2  0  0  0  0  0  0
  161.9560  209.7430  148.2490 N   0  0  0  0  0  0  0  0  0  0  0  0
  161.4810  205.9810  149.9560 C   0  0  0  0  0  0  0  0  0  0  0  0
  161.6780  207.3570  148.0090 C   0  0  0  0  0  3  0  0  0  0  0  0
  161.8650  209.4130  152.5270 C   0  0  0  0  0  2  0  0  0  0  0  0
  161.4420  204.5820  152.0870 C   0  0  0  0  0  2  0  0  0  0  0  0
  161.3470  204.6780  150.6050 N   0  0  0  0  0  0  0  0  0  0  0  0
  161.1770  207.6250  154.3690 C   0  0  2  0  0  3  0  0  0  0  0  0
  161.6780  206.9860  152.2060 C   0  0  2  0  0  3  0  0  0  0  0  0
  161.5320  206.1300  148.5980 N   0  0  0  0  0  0  0  0  0  0  0  0
  161.0240  202.2770  147.7260 C   0  0  0  0  0  0  0  0  0  0  0  0
  160.8110  201.0750  148.4010 C   0  0  0  0  0  3  0  0  0  0  0  0
  161.1860  203.4560  149.8530 C   0  0  0  0  0  0  0  0  0  0  0  0
  160.7800  201.0550  149.7990 C   0  0  0  0  0  3  0  0  0  0  0  0
  161.2050  203.4600  148.4480 C   0  0  0  0  0  3  0  0  0  0  0  0
  160.9640  202.2390  150.5190 C   0  0  0  0  0  3  0  0  0  0  0  0
  161.0510  202.3010  146.2410 C   0  0  0  0  0  1  0  0  0  0  0  0
  160.0240  208.1710  155.2020 C   0  0  0  0  0  2  0  0  0  0  0  0
  160.3960  209.4730  155.9010 C   0  0  0  0  0  2  0  0  0  0  0  0
  159.3280  210.5400  155.6960 C   0  0  0  0  0  2  0  0  0  0  0  0
  160.0460  212.6830  155.8580 C   0  0  0  0  0  2  0  0  0  0  0  0
  159.3080  213.1080  154.7230 C   0  0  1  0  0  3  0  0  0  0  0  0
  157.5730  212.1280  153.9130 C   0  0  0  0  0  2  0  0  0  0  0  0
  158.8660  211.4120  153.5550 C   0  0  0  0  0  2  0  0  0  0  0  0
  159.8100  211.6250  154.7340 C   0  0  2  0  0  0  0  0  0  0  0  0
  157.9230  213.0640  154.8830 O   0  0  0  0  0  0  0  0  0  0  0  0
  1  8  1  0  0  0  0
  2 13  1  0  0  0  0
  4 14  1  1  0  0  0
  4  9  1  0  0  0  0
  5  6  2  0  0  0  0
  6  2  1  0  0  0  0
  7 13  1  1  0  0  0
  7 16  1  0  0  0  0
  8  3  1  0  0  0  0
  8  2  2  0  0  0  0
  9 16  1  0  0  0  0
 10  1  2  0  0  0  0
 10  5  1  0  0  0  0
 11 15  1  0  0  0  0
 11  3  2  0  0  0  0
 12 18  2  0  0  0  0
 12  1  1  0  0  0  0
 15 14  1  0  0  0  0
 16 26  1  1  0  0  0
 17  3  1  6  0  0  0
 17  4  1  0  0  0  0
 17  7  1  0  0  0  0
 18 11  1  0  0  0  0
 19 20  2  0  0  0  0
 19 23  1  0  0  0  0
 20 22  1  0  0  0  0
 21 24  1  0  0  0  0
 21 15  1  0  0  0  0
 22 24  2  0  0  0  0
 23 21  2  0  0  0  0
 25 19  1  0  0  0  0
 26 27  1  0  0  0  0
 28 27  1  0  0  0  0
 30 33  1  0  0  0  0
 30 34  1  0  0  0  0
 30 29  1  1  0  0  0
 31 34  1  0  0  0  0
 32 31  1  0  0  0  0
 32 33  1  0  0  0  0
 33 28  1  1  0  0  0
 33 29  1  0  0  0  0
M  END
>  <MODEL>
1

>  <REMARK>
 VINA RESULT:     -10.5      0.000      0.000
  Name = 
  5 active torsions:
  status: ('A' for Active; 'I' for Inactive)
    1  A    between atoms: C_3  and  C_13
    2  A    between atoms: C_3  and  C_17
    3  A    between atoms: C_12  and  N_28
    4  A    between atoms: C_13  and  C_33
    5  A    between atoms: C_17  and  C_29
                            x       y       z     vdW  Elec       q    Type
                         _______ _______ _______ _____ _____    ______ ____

>  <TORSDO>
F 5

$$$$
=
 OpenBabel11062408053D

 34 41  0  0  1  0  0  0  0  0999 V2000
  161.2610  207.1140  153.9880 C   0  0  0  0  0  0  0  0  0  0  0  0
  161.3670  209.3550  153.0590 C   0  0  0  0  0  0  0  0  0  0  0  0
  161.2900  207.4020  151.6020 C   0  0  0  0  0  0  0  0  0  0  0  0
  161.7970  207.7310  149.2310 C   0  0  2  0  0  3  0  0  0  0  0  0
  161.3310  209.0070  155.4060 C   0  0  0  0  0  3  0  0  0  0  0  0
  161.3700  209.8440  154.3280 N   0  0  0  0  0  0  0  0  0  0  0  0
  161.9400  209.5600  150.6320 C   0  0  2  0  0  3  0  0  0  0  0  0
  161.3050  207.9560  152.8760 C   0  0  0  0  0  0  0  0  0  0  0  0
  161.7000  208.9310  148.2930 C   0  0  0  0  0  2  0  0  0  0  0  0
  161.2770  207.6560  155.2340 N   0  0  0  0  0  0  0  0  0  0  0  0
  161.1910  206.0220  151.4110 C   0  0  0  0  0  0  0  0  0  0  0  0
  161.1810  205.7270  153.7860 C   0  0  0  0  0  3  0  0  0  0  0  0
  161.3750  210.3000  151.8560 C   0  0  0  0  0  2  0  0  0  0  0  0
  161.0440  206.4430  148.9020 C   0  0  0  0  0  2  0  0  0  0  0  0
  161.1320  205.4990  150.0480 N   0  0  0  0  0  0  0  0  0  0  0  0
  161.8060  210.1650  149.2360 C   0  0  2  0  0  3  0  0  0  0  0  0
  161.1820  208.2980  150.4470 C   0  0  2  0  0  3  0  0  0  0  0  0
  161.1440  205.2170  152.5160 N   0  0  0  0  0  0  0  0  0  0  0  0
  161.0040  202.2350  148.1810 C   0  0  0  0  0  0  0  0  0  0  0  0
  160.9570  201.3230  149.2360 C   0  0  0  0  0  3  0  0  0  0  0  0
  161.0920  204.0820  149.7670 C   0  0  0  0  0  0  0  0  0  0  0  0
  160.9720  201.7820  150.5560 C   0  0  0  0  0  3  0  0  0  0  0  0
  161.0670  203.6050  148.4460 C   0  0  0  0  0  3  0  0  0  0  0  0
  161.0370  203.1540  150.8190 C   0  0  0  0  0  3  0  0  0  0  0  0
  160.9810  201.7490  146.7780 C   0  0  0  0  0  1  0  0  0  0  0  0
  163.0400  210.9830  148.8810 C   0  0  0  0  0  2  0  0  0  0  0  0
  162.6710  212.3420  148.2970 C   0  0  0  0  0  2  0  0  0  0  0  0
  161.2090  212.6810  148.5560 C   0  0  0  0  0  2  0  0  0  0  0  0
  159.4880  214.1540  148.5060 C   0  0  0  0  0  2  0  0  0  0  0  0
  159.2610  213.9770  147.1170 C   0  0  1  0  0  3  0  0  0  0  0  0
  159.8490  212.2630  145.9560 C   0  0  0  0  0  2  0  0  0  0  0  0
  161.0160  213.1870  146.2620 C   0  0  0  0  0  2  0  0  0  0  0  0
  160.7300  213.7980  147.6290 C   0  0  2  0  0  0  0  0  0  0  0  0
  158.8040  212.7080  146.7630 O   0  0  0  0  0  0  0  0  0  0  0  0
  1 10  2  0  0  0  0
  2  6  1  0  0  0  0
  3  8  1  0  0  0  0
  4  9  1  6  0  0  0
  4 17  1  0  0  0  0
  6  5  2  0  0  0  0
  7 13  1  1  0  0  0
  8  2  2  0  0  0  0
  8  1  1  0  0  0  0
  9 16  1  0  0  0  0
 10  5  1  0  0  0  0
 11  3  2  0  0  0  0
 11 18  1  0  0  0  0
 12  1  1  0  0  0  0
 13  2  1  0  0  0  0
 14  4  1  0  0  0  0
 14 15  1  0  0  0  0
 15 11  1  0  0  0  0
 16 26  1  6  0  0  0
 16  7  1  0  0  0  0
 17  7  1  0  0  0  0
 17  3  1  1  0  0  0
 18 12  2  0  0  0  0
 19 23  2  0  0  0  0
 19 20  1  0  0  0  0
 20 22  2  0  0  0  0
 21 15  1  0  0  0  0
 21 24  2  0  0  0  0
 22 24  1  0  0  0  0
 23 21  1  0  0  0  0
 25 19  1  0  0  0  0
 27 28  1  0  0  0  0
 27 26  1  0  0  0  0
 30 33  1  0  0  0  0
 30 29  1  1  0  0  0
 31 32  1  0  0  0  0
 31 34  1  0  0  0  0
 32 33  1  0  0  0  0
 33 29  1  0  0  0  0
 33 28  1  1  0  0  0
 34 30  1  0  0  0  0
M  END
>  <MODEL>
2

>  <REMARK>
 VINA RESULT:      -9.4      2.563      5.127
  Name = 
  5 active torsions:
  status: ('A' for Active; 'I' for Inactive)
    1  A    between atoms: C_3  and  C_13
    2  A    between atoms: C_3  and  C_17
    3  A    between atoms: C_12  and  N_28
    4  A    between atoms: C_13  and  C_33
    5  A    between atoms: C_17  and  C_29
                            x       y       z     vdW  Elec       q    Type
                         _______ _______ _______ _____ _____    ______ ____

>  <TORSDO>
F 5

$$$$
=
 OpenBabel11062408053D

 34 41  0  0  1  0  0  0  0  0999 V2000
  160.8520  209.5360  154.1520 C   0  0  0  0  0  0  0  0  0  0  0  0
  161.0230  207.1230  153.9440 C   0  0  0  0  0  0  0  0  0  0  0  0
  161.3890  208.5710  152.0170 C   0  0  0  0  0  0  0  0  0  0  0  0
  161.4580  207.5260  149.8050 C   0  0  2  0  0  3  0  0  0  0  0  0
  160.5020  208.1340  156.0260 C   0  0  0  0  0  3  0  0  0  0  0  0
  160.7360  207.0220  155.2690 N   0  0  0  0  0  0  0  0  0  0  0  0
  161.0370  206.1740  151.6280 C   0  0  2  0  0  3  0  0  0  0  0  0
  161.0910  208.4090  153.3640 C   0  0  0  0  0  0  0  0  0  0  0  0
  161.8010  206.1210  149.3180 C   0  0  0  0  0  2  0  0  0  0  0  0
  160.5600  209.3780  155.4690 N   0  0  0  0  0  0  0  0  0  0  0  0
  161.4950  209.8400  151.4440 C   0  0  0  0  0  0  0  0  0  0  0  0
  160.9430  210.8060  153.5620 C   0  0  0  0  0  3  0  0  0  0  0  0
  161.3200  205.8740  153.1100 C   0  0  0  0  0  2  0  0  0  0  0  0
  162.2340  208.7290  149.2720 C   0  0  0  0  0  2  0  0  0  0  0  0
  161.8580  209.9520  150.0330 N   0  0  0  0  0  0  0  0  0  0  0  0
  161.5090  205.2080  150.5440 C   0  0  2  0  0  3  0  0  0  0  0  0
  161.7860  207.3950  151.2380 C   0  0  2  0  0  3  0  0  0  0  0  0
  161.2630  210.9300  152.2370 N   0  0  0  0  0  0  0  0  0  0  0  0
  161.0000  213.4250  148.8690 C   0  0  0  0  0  0  0  0  0  0  0  0
  162.0410  213.6740  147.9740 C   0  0  0  0  0  3  0  0  0  0  0  0
  161.9260  211.2240  149.3520 C   0  0  0  0  0  0  0  0  0  0  0  0
  163.0240  212.7030  147.7600 C   0  0  0  0  0  3  0  0  0  0  0  0
  160.9410  212.2060  149.5500 C   0  0  0  0  0  3  0  0  0  0  0  0
  162.9640  211.4850  148.4430 C   0  0  0  0  0  3  0  0  0  0  0  0
  159.9510  214.4530  149.0940 C   0  0  0  0  0  1  0  0  0  0  0  0
  160.4130  204.2100  150.1950 C   0  0  0  0  0  2  0  0  0  0  0  0
  160.9650  202.9920  149.4640 C   0  0  0  0  0  2  0  0  0  0  0  0
  160.4010  202.8850  148.0530 C   0  0  0  0  0  2  0  0  0  0  0  0
  161.5570  204.1990  146.6150 C   0  0  0  0  0  2  0  0  0  0  0  0
  161.5010  203.2480  145.5630 C   0  0  1  0  0  3  0  0  0  0  0  0
  160.0520  201.6700  145.3730 C   0  0  0  0  0  2  0  0  0  0  0  0
  161.1200  201.3570  146.4080 C   0  0  0  0  0  2  0  0  0  0  0  0
  161.5170  202.6930  147.0260 C   0  0  2  0  0  0  0  0  0  0  0  0
  160.2200  203.0170  145.0610 O   0  0  0  0  0  0  0  0  0  0  0  0
  1 10  2  0  0  0  0
  2  6  1  0  0  0  0
  3  8  1  0  0  0  0
  4 14  1  6  0  0  0
  4 17  1  0  0  0  0
  6  5  2  0  0  0  0
  7 13  1  1  0  0  0
  8  2  2  0  0  0  0
  8  1  1  0  0  0  0
  9  4  1  0  0  0  0
  9 16  1  0  0  0  0
 10  5  1  0  0  0  0
 11  3  2  0  0  0  0
 11 18  1  0  0  0  0
 12  1  1  0  0  0  0
 13  2  1  0  0  0  0
 14 15  1  0  0  0  0
 15 11  1  0  0  0  0
 16 26  1  6  0  0  0
 16  7  1  0  0  0  0
 17  7  1  0  0  0  0
 17  3  1  1  0  0  0
 18 12  2  0  0  0  0
 19 25  1  0  0  0  0
 19 23  1  0  0  0  0
 20 19  2  0  0  0  0
 21 23  2  0  0  0  0
 21 15  1  0  0  0  0
 22 20  1  0  0  0  0
 22 24  2  0  0  0  0
 24 21  1  0  0  0  0
 27 26  1  0  0  0  0
 28 27  1  0  0  0  0
 29 33  1  0  0  0  0
 30 29  1  1  0  0  0
 30 33  1  0  0  0  0
 31 32  1  0  0  0  0
 32 33  1  0  0  0  0
 33 28  1  6  0  0  0
 34 31  1  0  0  0  0
 34 30  1  0  0  0  0
M  END
>  <MODEL>
3

>  <REMARK>
 VINA RESULT:      -9.3      3.150      8.642
  Name = 
  5 active torsions:
  status: ('A' for Active; 'I' for Inactive)
    1  A    between atoms: C_3  and  C_13
    2  A    between atoms: C_3  and  C_17
    3  A    between atoms: C_12  and  N_28
    4  A    between atoms: C_13  and  C_33
    5  A    between atoms: C_17  and  C_29
                            x       y       z     vdW  Elec       q    Type
                         _______ _______ _______ _____ _____    ______ ____

>  <TORSDO>
F 5

$$$$
=
 OpenBabel11062408053D

 34 41  0  0  1  0  0  0  0  0999 V2000
  160.5020  209.7610  154.4070 C   0  0  0  0  0  0  0  0  0  0  0  0
  160.9310  207.3910  154.0980 C   0  0  0  0  0  0  0  0  0  0  0  0
  161.1660  208.9550  152.2420 C   0  0  0  0  0  0  0  0  0  0  0  0
  161.3750  208.0230  149.9900 C   0  0  2  0  0  3  0  0  0  0  0  0
  160.2780  208.2470  156.2120 C   0  0  0  0  0  3  0  0  0  0  0  0
  160.6390  207.2010  155.4120 N   0  0  0  0  0  0  0  0  0  0  0  0
  161.0770  206.5540  151.7440 C   0  0  2  0  0  3  0  0  0  0  0  0
  160.8700  208.7020  153.5760 C   0  0  0  0  0  0  0  0  0  0  0  0
  161.8730  206.6860  149.4480 C   0  0  0  0  0  2  0  0  0  0  0  0
  160.2110  209.5130  155.7110 N   0  0  0  0  0  0  0  0  0  0  0  0
  161.1440  210.2530  151.7270 C   0  0  0  0  0  0  0  0  0  0  0  0
  160.4640  211.0590  153.8750 C   0  0  0  0  0  3  0  0  0  0  0  0
  161.3710  206.2200  153.2170 C   0  0  0  0  0  2  0  0  0  0  0  0
  162.0260  209.3240  149.5230 C   0  0  0  0  0  2  0  0  0  0  0  0
  161.5110  210.4650  150.3290 N   0  0  0  0  0  0  0  0  0  0  0  0
  161.6630  205.6930  150.6280 C   0  0  2  0  0  3  0  0  0  0  0  0
  161.6960  207.8630  151.4210 C   0  0  2  0  0  3  0  0  0  0  0  0
  160.7860  211.2750  152.5620 N   0  0  0  0  0  0  0  0  0  0  0  0
  162.1010  213.2990  147.9250 C   0  0  0  0  0  0  0  0  0  0  0  0
  161.3750  214.3240  148.5340 C   0  0  0  0  0  3  0  0  0  0  0  0
  161.4520  211.7660  149.7050 C   0  0  0  0  0  0  0  0  0  0  0  0
  160.6910  214.0790  149.7280 C   0  0  0  0  0  3  0  0  0  0  0  0
  162.1420  212.0300  148.5100 C   0  0  0  0  0  3  0  0  0  0  0  0
  160.7320  212.8090  150.3100 C   0  0  0  0  0  3  0  0  0  0  0  0
  162.8340  213.5590  146.6600 C   0  0  0  0  0  1  0  0  0  0  0  0
  160.6850  204.6010  150.2170 C   0  0  0  0  0  2  0  0  0  0  0  0
  161.2580  203.7070  149.1230 C   0  0  0  0  0  2  0  0  0  0  0  0
  161.0700  204.3240  147.7430 C   0  0  0  0  0  2  0  0  0  0  0  0
  162.7560  205.1410  146.4690 C   0  0  0  0  0  2  0  0  0  0  0  0
  162.3920  204.3680  145.3360 C   0  0  1  0  0  3  0  0  0  0  0  0
  160.4440  203.5380  144.9550 C   0  0  0  0  0  2  0  0  0  0  0  0
  161.2200  202.7480  145.9970 C   0  0  0  0  0  2  0  0  0  0  0  0
  162.0810  203.7600  146.7450 C   0  0  2  0  0  0  0  0  0  0  0  0
  161.1660  204.7150  144.7700 O   0  0  0  0  0  0  0  0  0  0  0  0
  1 10  2  0  0  0  0
  2  6  1  0  0  0  0
  3  8  1  0  0  0  0
  4  9  1  6  0  0  0
  4 17  1  0  0  0  0
  6  5  2  0  0  0  0
  7 13  1  1  0  0  0
  8  2  2  0  0  0  0
  8  1  1  0  0  0  0
  9 16  1  0  0  0  0
 10  5  1  0  0  0  0
 11  3  2  0  0  0  0
 11 18  1  0  0  0  0
 12  1  1  0  0  0  0
 13  2  1  0  0  0  0
 14  4  1  0  0  0  0
 14 15  1  0  0  0  0
 15 11  1  0  0  0  0
 16 26  1  6  0  0  0
 16  7  1  0  0  0  0
 17  7  1  0  0  0  0
 17  3  1  1  0  0  0
 18 12  2  0  0  0  0
 19 23  2  0  0  0  0
 19 20  1  0  0  0  0
 20 22  2  0  0  0  0
 21 24  2  0  0  0  0
 21 15  1  0  0  0  0
 22 24  1  0  0  0  0
 23 21  1  0  0  0  0
 25 19  1  0  0  0  0
 27 26  1  0  0  0  0
 28 27  1  0  0  0  0
 29 33  1  0  0  0  0
 30 29  1  1  0  0  0
 30 33  1  0  0  0  0
 31 32  1  0  0  0  0
 32 33  1  0  0  0  0
 33 28  1  6  0  0  0
 34 31  1  0  0  0  0
 34 30  1  0  0  0  0
M  END
>  <MODEL>
4

>  <REMARK>
 VINA RESULT:      -8.9      3.206      8.560
  Name = 
  5 active torsions:
  status: ('A' for Active; 'I' for Inactive)
    1  A    between atoms: C_3  and  C_13
    2  A    between atoms: C_3  and  C_17
    3  A    between atoms: C_12  and  N_28
    4  A    between atoms: C_13  and  C_33
    5  A    between atoms: C_17  and  C_29
                            x       y       z     vdW  Elec       q    Type
                         _______ _______ _______ _____ _____    ______ ____

>  <TORSDO>
F 5

$$$$
=
 OpenBabel11062408053D

 34 41  0  0  1  0  0  0  0  0999 V2000
  160.2410  210.6780  154.9690 C   0  0  0  0  0  0  0  0  0  0  0  0
  160.7320  208.3080  155.1690 C   0  0  0  0  0  0  0  0  0  0  0  0
  160.9970  209.4620  153.0380 C   0  0  0  0  0  0  0  0  0  0  0  0
  161.3040  208.0930  151.0330 C   0  0  2  0  0  3  0  0  0  0  0  0
  159.9880  209.5620  157.0410 C   0  0  0  0  0  3  0  0  0  0  0  0
  160.3990  208.3840  156.4850 N   0  0  0  0  0  0  0  0  0  0  0  0
  160.9780  207.0090  153.0440 C   0  0  2  0  0  3  0  0  0  0  0  0
  160.6600  209.4810  154.3850 C   0  0  0  0  0  0  0  0  0  0  0  0
  161.8490  206.6880  150.7940 C   0  0  0  0  0  2  0  0  0  0  0  0
  159.9110  210.6960  156.2870 N   0  0  0  0  0  0  0  0  0  0  0  0
  160.9650  210.6250  152.2650 C   0  0  0  0  0  0  0  0  0  0  0  0
  160.1940  211.8370  154.1790 C   0  0  0  0  0  3  0  0  0  0  0  0
  161.2270  206.9930  154.5620 C   0  0  0  0  0  2  0  0  0  0  0  0
  161.9420  209.2880  150.3270 C   0  0  0  0  0  2  0  0  0  0  0  0
  161.3750  210.5550  150.8640 N   0  0  0  0  0  0  0  0  0  0  0  0
  161.6210  205.9530  152.1470 C   0  0  2  0  0  3  0  0  0  0  0  0
  161.5790  208.2400  152.4760 C   0  0  2  0  0  3  0  0  0  0  0  0
  160.5560  211.7870  152.8590 N   0  0  0  0  0  0  0  0  0  0  0  0
  162.0520  212.8880  147.9910 C   0  0  0  0  0  0  0  0  0  0  0  0
  161.2140  213.9580  148.3100 C   0  0  0  0  0  3  0  0  0  0  0  0
  161.3100  211.6980  149.9840 C   0  0  0  0  0  0  0  0  0  0  0  0
  160.4270  213.9070  149.4640 C   0  0  0  0  0  3  0  0  0  0  0  0
  162.1020  211.7680  148.8250 C   0  0  0  0  0  3  0  0  0  0  0  0
  160.4770  212.7850  150.2960 C   0  0  0  0  0  3  0  0  0  0  0  0
  162.8940  212.9430  146.7680 C   0  0  0  0  0  1  0  0  0  0  0  0
  160.6810  204.7730  151.9430 C   0  0  0  0  0  2  0  0  0  0  0  0
  161.4170  203.4410  152.0210 C   0  0  0  0  0  2  0  0  0  0  0  0
  161.7080  202.8820  150.6330 C   0  0  0  0  0  2  0  0  0  0  0  0
  160.3060  201.2870  149.8440 C   0  0  0  0  0  2  0  0  0  0  0  0
  160.2050  201.8860  148.5610 C   0  0  1  0  0  3  0  0  0  0  0  0
  161.6310  203.2420  147.6930 C   0  0  0  0  0  2  0  0  0  0  0  0
  160.7540  203.9110  148.7380 C   0  0  0  0  0  2  0  0  0  0  0  0
  160.4410  202.8410  149.7790 C   0  0  2  0  0  0  0  0  0  0  0  0
  161.3890  201.8770  147.8240 O   0  0  0  0  0  0  0  0  0  0  0  0
  1 10  2  0  0  0  0
  2  6  1  0  0  0  0
  3  8  1  0  0  0  0
  4 14  1  6  0  0  0
  4 17  1  0  0  0  0
  6  5  2  0  0  0  0
  7 13  1  1  0  0  0
  8  1  1  0  0  0  0
  8  2  2  0  0  0  0
  9  4  1  0  0  0  0
  9 16  1  0  0  0  0
 10  5  1  0  0  0  0
 11 18  1  0  0  0  0
 11  3  2  0  0  0  0
 12  1  1  0  0  0  0
 13  2  1  0  0  0  0
 14 15  1  0  0  0  0
 15 11  1  0  0  0  0
 16 26  1  6  0  0  0
 16  7  1  0  0  0  0
 17  3  1  1  0  0  0
 17  7  1  0  0  0  0
 18 12  2  0  0  0  0
 19 20  2  0  0  0  0
 19 23  1  0  0  0  0
 20 22  1  0  0  0  0
 21 24  1  0  0  0  0
 21 15  1  0  0  0  0
 22 24  2  0  0  0  0
 23 21  2  0  0  0  0
 25 19  1  0  0  0  0
 26 27  1  0  0  0  0
 28 27  1  0  0  0  0
 30 33  1  0  0  0  0
 30 29  1  1  0  0  0
 31 34  1  0  0  0  0
 31 32  1  0  0  0  0
 32 33  1  0  0  0  0
 33 29  1  0  0  0  0
 33 28  1  6  0  0  0
 34 30  1  0  0  0  0
M  END
>  <MODEL>
5

>  <REMARK>
 VINA RESULT:      -8.6      3.217      8.289
  Name = 
  5 active torsions:
  status: ('A' for Active; 'I' for Inactive)
    1  A    between atoms: C_3  and  C_13
    2  A    between atoms: C_3  and  C_17
    3  A    between atoms: C_12  and  N_28
    4  A    between atoms: C_13  and  C_33
    5  A    between atoms: C_17  and  C_29
                            x       y       z     vdW  Elec       q    Type
                         _______ _______ _______ _____ _____    ______ ____

>  <TORSDO>
F 5

$$$$
=
 OpenBabel11062408053D

 34 41  0  0  1  0  0  0  0  0999 V2000
  159.7040  212.0850  153.2360 C   0  0  0  0  0  0  0  0  0  0  0  0
  160.3630  209.9100  154.0900 C   0  0  0  0  0  0  0  0  0  0  0  0
  160.9030  210.5700  151.8060 C   0  0  0  0  0  0  0  0  0  0  0  0
  161.6900  208.8310  150.2750 C   0  0  2  0  0  3  0  0  0  0  0  0
  159.1830  211.4500  155.4550 C   0  0  0  0  0  3  0  0  0  0  0  0
  159.7920  210.2400  155.2790 N   0  0  0  0  0  0  0  0  0  0  0  0
  161.1040  208.2020  152.4170 C   0  0  2  0  0  3  0  0  0  0  0  0
  160.3280  210.8520  153.0390 C   0  0  0  0  0  0  0  0  0  0  0  0
  162.3930  207.4920  150.4780 C   0  0  0  0  0  2  0  0  0  0  0  0
  159.1410  212.3610  154.4420 N   0  0  0  0  0  0  0  0  0  0  0  0
  160.9060  211.5100  150.7740 C   0  0  0  0  0  0  0  0  0  0  0  0
  159.6960  213.0160  152.1860 C   0  0  0  0  0  3  0  0  0  0  0  0
  161.0760  208.5670  153.9110 C   0  0  0  0  0  2  0  0  0  0  0  0
  162.3340  209.9060  149.4010 C   0  0  0  0  0  2  0  0  0  0  0  0
  161.5680  211.1760  149.5140 N   0  0  0  0  0  0  0  0  0  0  0  0
  161.9910  207.0630  151.9200 C   0  0  2  0  0  3  0  0  0  0  0  0
  161.6850  209.3390  151.6610 C   0  0  2  0  0  3  0  0  0  0  0  0
  160.2940  212.7140  150.9920 N   0  0  0  0  0  0  0  0  0  0  0  0
  160.6260  212.7780  146.2430 C   0  0  0  0  0  0  0  0  0  0  0  0
  161.5930  213.7780  146.1440 C   0  0  0  0  0  3  0  0  0  0  0  0
  161.5600  212.0690  148.3790 C   0  0  0  0  0  0  0  0  0  0  0  0
  162.5480  213.9270  147.1540 C   0  0  0  0  0  3  0  0  0  0  0  0
  160.6130  211.9260  147.3510 C   0  0  0  0  0  3  0  0  0  0  0  0
  162.5320  213.0750  148.2630 C   0  0  0  0  0  3  0  0  0  0  0  0
  159.6140  212.6140  145.1670 C   0  0  0  0  0  1  0  0  0  0  0  0
  161.2140  205.7540  151.8720 C   0  0  0  0  0  2  0  0  0  0  0  0
  160.8460  205.3640  150.4450 C   0  0  0  0  0  2  0  0  0  0  0  0
  160.3740  203.9180  150.3670 C   0  0  0  0  0  2  0  0  0  0  0  0
  161.2050  203.6860  148.2720 C   0  0  0  0  0  2  0  0  0  0  0  0
  161.1930  202.2680  148.3290 C   0  0  1  0  0  3  0  0  0  0  0  0
  159.9700  201.0750  149.6360 C   0  0  0  0  0  2  0  0  0  0  0  0
  161.1570  201.6940  150.3550 C   0  0  0  0  0  2  0  0  0  0  0  0
  161.4130  203.0350  149.6760 C   0  0  2  0  0  0  0  0  0  0  0  0
  159.9190  201.7030  148.3940 O   0  0  0  0  0  0  0  0  0  0  0  0
  1 10  2  0  0  0  0
  2  6  1  0  0  0  0
  3  8  1  0  0  0  0
  4 14  1  6  0  0  0
  4  9  1  0  0  0  0
  4 17  1  0  0  0  0
  6  5  2  0  0  0  0
  7 13  1  1  0  0  0
  8  1  1  0  0  0  0
  8  2  2  0  0  0  0
  9 16  1  0  0  0  0
 10  5  1  0  0  0  0
 11 18  1  0  0  0  0
 11  3  2  0  0  0  0
 12  1  1  0  0  0  0
 13  2  1  0  0  0  0
 14 15  1  0  0  0  0
 15 11  1  0  0  0  0
 16 26  1  6  0  0  0
 16  7  1  0  0  0  0
 17  3  1  6  0  0  0
 17  7  1  0  0  0  0
 18 12  2  0  0  0  0
 19 23  1  0  0  0  0
 20 19  2  0  0  0  0
 20 22  1  0  0  0  0
 21 15  1  0  0  0  0
 22 24  2  0  0  0  0
 23 21  2  0  0  0  0
 24 21  1  0  0  0  0
 25 19  1  0  0  0  0
 27 26  1  0  0  0  0
 28 27  1  0  0  0  0
 29 33  1  0  0  0  0
 30 29  1  6  0  0  0
 30 34  1  0  0  0  0
 30 33  1  0  0  0  0
 31 32  1  0  0  0  0
 33 32  1  0  0  0  0
 33 28  1  6  0  0  0
 34 31  1  0  0  0  0
M  END
>  <MODEL>
6

>  <REMARK>
 VINA RESULT:      -8.6      3.221      8.205
  Name = 
  5 active torsions:
  status: ('A' for Active; 'I' for Inactive)
    1  A    between atoms: C_3  and  C_13
    2  A    between atoms: C_3  and  C_17
    3  A    between atoms: C_12  and  N_28
    4  A    between atoms: C_13  and  C_33
    5  A    between atoms: C_17  and  C_29
                            x       y       z     vdW  Elec       q    Type
                         _______ _______ _______ _____ _____    ______ ____

>  <TORSDO>
F 5

$$$$
=
 OpenBabel11062408053D

 34 41  0  0  1  0  0  0  0  0999 V2000
  161.9590  209.0990  149.8860 C   0  0  0  0  0  0  0  0  0  0  0  0
  161.4160  206.8790  149.0680 C   0  0  0  0  0  0  0  0  0  0  0  0
  161.3140  207.3920  151.4500 C   0  0  0  0  0  0  0  0  0  0  0  0
  161.1180  205.5170  153.0090 C   0  0  2  0  0  3  0  0  0  0  0  0
  162.0550  208.6070  147.5730 C   0  0  0  0  0  3  0  0  0  0  0  0
  161.6620  207.3190  147.8060 N   0  0  0  0  0  0  0  0  0  0  0  0
  161.2920  205.0370  150.7590 C   0  0  2  0  0  3  0  0  0  0  0  0
  161.5600  207.7860  150.1400 C   0  0  0  0  0  0  0  0  0  0  0  0
  160.5680  204.0990  152.8840 C   0  0  0  0  0  2  0  0  0  0  0  0
  162.2010  209.4850  148.6060 N   0  0  0  0  0  0  0  0  0  0  0  0
  161.4170  208.2920  152.5110 C   0  0  0  0  0  0  0  0  0  0  0  0
  162.0790  209.9920  150.9620 C   0  0  0  0  0  3  0  0  0  0  0  0
  160.9410  205.4450  149.3170 C   0  0  0  0  0  2  0  0  0  0  0  0
  160.5490  206.4650  154.0630 C   0  0  0  0  0  2  0  0  0  0  0  0
  161.1000  207.8330  153.8620 N   0  0  0  0  0  0  0  0  0  0  0  0
  160.6930  203.7720  151.3680 C   0  0  2  0  0  3  0  0  0  0  0  0
  160.7500  206.0600  151.6870 C   0  0  2  0  0  3  0  0  0  0  0  0
  161.8040  209.5750  152.2370 N   0  0  0  0  0  0  0  0  0  0  0  0
  160.8830  210.8170  156.1440 C   0  0  0  0  0  0  0  0  0  0  0  0
  161.5820  210.3540  157.2590 C   0  0  0  0  0  3  0  0  0  0  0  0
  161.2430  208.6850  155.0190 C   0  0  0  0  0  0  0  0  0  0  0  0
  162.1180  209.0630  157.2610 C   0  0  0  0  0  3  0  0  0  0  0  0
  160.7190  209.9890  155.0300 C   0  0  0  0  0  3  0  0  0  0  0  0
  161.9510  208.2360  156.1460 C   0  0  0  0  0  3  0  0  0  0  0  0
  160.3190  212.1910  156.1380 C   0  0  0  0  0  1  0  0  0  0  0  0
  161.6240  202.5830  151.1700 C   0  0  0  0  0  2  0  0  0  0  0  0
  160.9290  201.4290  150.4580 C   0  0  0  0  0  2  0  0  0  0  0  0
  160.4510  201.8370  149.0700 C   0  0  0  0  0  2  0  0  0  0  0  0
  161.2400  203.2990  147.5300 C   0  0  0  0  0  2  0  0  0  0  0  0
  161.4960  202.2850  146.5700 C   0  0  1  0  0  3  0  0  0  0  0  0
  160.5640  200.3470  146.5110 C   0  0  0  0  0  2  0  0  0  0  0  0
  161.6370  200.4450  147.5830 C   0  0  0  0  0  2  0  0  0  0  0  0
  161.6140  201.8860  148.0800 C   0  0  2  0  0  0  0  0  0  0  0  0
  160.3550  201.6540  146.0770 O   0  0  0  0  0  0  0  0  0  0  0  0
  1  8  2  0  0  0  0
  1 12  1  0  0  0  0
  2 13  1  0  0  0  0
  2  8  1  0  0  0  0
  3 11  2  0  0  0  0
  4  9  1  1  0  0  0
  4 14  1  0  0  0  0
  5  6  1  0  0  0  0
  5 10  2  0  0  0  0
  6  2  2  0  0  0  0
  7 13  1  6  0  0  0
  7 16  1  0  0  0  0
  7 17  1  0  0  0  0
  8  3  1  0  0  0  0
 10  1  1  0  0  0  0
 11 15  1  0  0  0  0
 12 18  2  0  0  0  0
 15 14  1  0  0  0  0
 15 21  1  0  0  0  0
 16 26  1  1  0  0  0
 16  9  1  0  0  0  0
 17  3  1  6  0  0  0
 17  4  1  0  0  0  0
 18 11  1  0  0  0  0
 19 20  1  0  0  0  0
 20 22  2  0  0  0  0
 21 23  1  0  0  0  0
 21 24  2  0  0  0  0
 23 19  2  0  0  0  0
 24 22  1  0  0  0  0
 25 19  1  0  0  0  0
 27 26  1  0  0  0  0
 28 27  1  0  0  0  0
 29 33  1  0  0  0  0
 30 29  1  1  0  0  0
 30 33  1  0  0  0  0
 31 32  1  0  0  0  0
 32 33  1  0  0  0  0
 33 28  1  6  0  0  0
 34 31  1  0  0  0  0
 34 30  1  0  0  0  0
M  END
>  <MODEL>
7

>  <REMARK>
 VINA RESULT:      -8.3      2.923      8.341
  Name = 
  5 active torsions:
  status: ('A' for Active; 'I' for Inactive)
    1  A    between atoms: C_3  and  C_13
    2  A    between atoms: C_3  and  C_17
    3  A    between atoms: C_12  and  N_28
    4  A    between atoms: C_13  and  C_33
    5  A    between atoms: C_17  and  C_29
                            x       y       z     vdW  Elec       q    Type
                         _______ _______ _______ _____ _____    ______ ____

>  <TORSDO>
F 5

$$$$
=
 OpenBabel11062408053D

 34 41  0  0  1  0  0  0  0  0999 V2000
  158.9790  213.5490  152.8220 C   0  0  0  0  0  0  0  0  0  0  0  0
  159.4980  211.6950  154.3010 C   0  0  0  0  0  0  0  0  0  0  0  0
  160.3560  211.7490  152.0190 C   0  0  0  0  0  0  0  0  0  0  0  0
  161.3370  209.6940  151.1240 C   0  0  2  0  0  3  0  0  0  0  0  0
  158.1490  213.5020  155.0370 C   0  0  0  0  0  3  0  0  0  0  0  0
  158.7690  212.3080  155.2710 N   0  0  0  0  0  0  0  0  0  0  0  0
  160.4540  209.6320  153.2560 C   0  0  2  0  0  3  0  0  0  0  0  0
  159.6170  212.3270  153.0440 C   0  0  0  0  0  0  0  0  0  0  0  0
  161.9960  208.4780  151.7680 C   0  0  0  0  0  2  0  0  0  0  0  0
  158.2550  214.1140  153.8230 N   0  0  0  0  0  0  0  0  0  0  0  0
  160.5090  212.3850  150.7860 C   0  0  0  0  0  0  0  0  0  0  0  0
  159.1240  214.1710  151.5720 C   0  0  0  0  0  3  0  0  0  0  0  0
  160.2200  210.3750  154.5820 C   0  0  0  0  0  2  0  0  0  0  0  0
  162.1040  210.5210  150.0940 C   0  0  0  0  0  2  0  0  0  0  0  0
  161.3380  211.7530  149.7620 N   0  0  0  0  0  0  0  0  0  0  0  0
  161.3940  208.4300  153.2020 C   0  0  2  0  0  3  0  0  0  0  0  0
  161.1420  210.5480  152.3120 C   0  0  2  0  0  3  0  0  0  0  0  0
  159.8800  213.5850  150.5930 N   0  0  0  0  0  0  0  0  0  0  0  0
  160.7060  212.6170  146.1550 C   0  0  0  0  0  0  0  0  0  0  0  0
  161.8420  213.3690  145.8550 C   0  0  0  0  0  3  0  0  0  0  0  0
  161.4940  212.3160  148.4410 C   0  0  0  0  0  0  0  0  0  0  0  0
  162.8090  213.5950  146.8390 C   0  0  0  0  0  3  0  0  0  0  0  0
  160.5360  212.0900  147.4380 C   0  0  0  0  0  3  0  0  0  0  0  0
  162.6360  213.0690  148.1230 C   0  0  0  0  0  3  0  0  0  0  0  0
  159.6810  212.3700  145.1090 C   0  0  0  0  0  1  0  0  0  0  0  0
  160.6230  207.1310  153.3960 C   0  0  0  0  0  2  0  0  0  0  0  0
  161.5010  205.9080  153.1600 C   0  0  0  0  0  2  0  0  0  0  0  0
  160.8120  204.8930  152.2560 C   0  0  0  0  0  2  0  0  0  0  0  0
  160.8240  205.4150  150.0510 C   0  0  0  0  0  2  0  0  0  0  0  0
  161.1360  204.0900  149.6500 C   0  0  1  0  0  3  0  0  0  0  0  0
  160.7780  202.3100  150.8040 C   0  0  0  0  0  2  0  0  0  0  0  0
  161.9870  203.0890  151.2960 C   0  0  0  0  0  2  0  0  0  0  0  0
  161.6780  204.5600  151.0410 C   0  0  2  0  0  0  0  0  0  0  0  0
  160.1320  203.1570  149.9060 O   0  0  0  0  0  0  0  0  0  0  0  0
  1  8  1  0  0  0  0
  1 10  2  0  0  0  0
  2 13  1  0  0  0  0
  2  6  1  0  0  0  0
  3  8  1  0  0  0  0
  4 14  1  6  0  0  0
  4  9  1  0  0  0  0
  4 17  1  0  0  0  0
  5  6  2  0  0  0  0
  7 13  1  1  0  0  0
  8  2  2  0  0  0  0
  9 16  1  0  0  0  0
 10  5  1  0  0  0  0
 11  3  2  0  0  0  0
 12  1  1  0  0  0  0
 15 14  1  0  0  0  0
 15 11  1  0  0  0  0
 16  7  1  0  0  0  0
 16 26  1  6  0  0  0
 17  3  1  6  0  0  0
 17  7  1  0  0  0  0
 18 11  1  0  0  0  0
 18 12  2  0  0  0  0
 19 23  1  0  0  0  0
 20 19  2  0  0  0  0
 20 22  1  0  0  0  0
 21 15  1  0  0  0  0
 22 24  2  0  0  0  0
 23 21  2  0  0  0  0
 24 21  1  0  0  0  0
 25 19  1  0  0  0  0
 27 26  1  0  0  0  0
 28 27  1  0  0  0  0
 29 33  1  0  0  0  0
 30 34  1  0  0  0  0
 30 29  1  1  0  0  0
 30 33  1  0  0  0  0
 31 32  1  0  0  0  0
 33 32  1  0  0  0  0
 33 28  1  1  0  0  0
 34 31  1  0  0  0  0
M  END
>  <MODEL>
8

>  <REMARK>
 VINA RESULT:      -7.8      3.193      7.840
  Name = 
  5 active torsions:
  status: ('A' for Active; 'I' for Inactive)
    1  A    between atoms: C_3  and  C_13
    2  A    between atoms: C_3  and  C_17
    3  A    between atoms: C_12  and  N_28
    4  A    between atoms: C_13  and  C_33
    5  A    between atoms: C_17  and  C_29
                            x       y       z     vdW  Elec       q    Type
                         _______ _______ _______ _____ _____    ______ ____

>  <TORSDO>
F 5

$$$$
=
 OpenBabel11062408053D

 34 41  0  0  1  0  0  0  0  0999 V2000
  161.1240  204.9880  150.4330 C   0  0  0  0  0  0  0  0  0  0  0  0
  161.9220  206.4020  148.6280 C   0  0  0  0  0  0  0  0  0  0  0  0
  161.5320  207.3190  150.8530 C   0  0  0  0  0  0  0  0  0  0  0  0
  161.5070  209.7540  151.0920 C   0  0  2  0  0  3  0  0  0  0  0  0
  161.5070  204.0930  148.2760 C   0  0  0  0  0  3  0  0  0  0  0  0
  161.9080  205.3140  147.8130 N   0  0  0  0  0  0  0  0  0  0  0  0
  161.8010  208.8770  148.9770 C   0  0  2  0  0  3  0  0  0  0  0  0
  161.5280  206.2430  149.9750 C   0  0  0  0  0  0  0  0  0  0  0  0
  162.1390  210.8940  150.2970 C   0  0  0  0  0  2  0  0  0  0  0  0
  161.1200  203.9350  149.5740 N   0  0  0  0  0  0  0  0  0  0  0  0
  161.1800  207.1620  152.1950 C   0  0  0  0  0  0  0  0  0  0  0  0
  160.7540  204.8450  151.7790 C   0  0  0  0  0  3  0  0  0  0  0  0
  162.4070  207.7590  148.1120 C   0  0  0  0  0  2  0  0  0  0  0  0
  161.8130  209.6010  152.5800 C   0  0  0  0  0  2  0  0  0  0  0  0
  161.2480  208.3200  153.0850 N   0  0  0  0  0  0  0  0  0  0  0  0
  162.3290  210.3060  148.8690 C   0  0  2  0  0  3  0  0  0  0  0  0
  162.1010  208.5920  150.4020 C   0  0  2  0  0  3  0  0  0  0  0  0
  160.7930  205.9220  152.6230 N   0  0  0  0  0  0  0  0  0  0  0  0
  160.1270  209.3490  156.5260 C   0  0  0  0  0  0  0  0  0  0  0  0
  160.1050  208.1170  157.1810 C   0  0  0  0  0  3  0  0  0  0  0  0
  160.8400  208.2550  154.4690 C   0  0  0  0  0  0  0  0  0  0  0  0
  160.4530  206.9530  156.4900 C   0  0  0  0  0  3  0  0  0  0  0  0
  160.4970  209.4170  155.1800 C   0  0  0  0  0  3  0  0  0  0  0  0
  160.8210  207.0230  155.1430 C   0  0  0  0  0  3  0  0  0  0  0  0
  159.7640  210.5870  157.2610 C   0  0  0  0  0  1  0  0  0  0  0  0
  161.5120  211.1100  147.8660 C   0  0  0  0  0  2  0  0  0  0  0  0
  161.3710  212.5680  148.2880 C   0  0  0  0  0  2  0  0  0  0  0  0
  160.5930  213.3740  147.2550 C   0  0  0  0  0  2  0  0  0  0  0  0
  159.9410  212.6980  145.1930 C   0  0  0  0  0  2  0  0  0  0  0  0
  158.5720  212.9780  145.4380 C   0  0  1  0  0  3  0  0  0  0  0  0
  157.8140  214.3450  146.9150 C   0  0  0  0  0  2  0  0  0  0  0  0
  158.2760  213.0300  147.5220 C   0  0  0  0  0  2  0  0  0  0  0  0
  159.4450  212.5540  146.6660 C   0  0  2  0  0  0  0  0  0  0  0  0
  158.2790  214.3310  145.6020 O   0  0  0  0  0  0  0  0  0  0  0  0
  1 12  1  0  0  0  0
  2  8  1  0  0  0  0
  3 11  2  0  0  0  0
  4  9  1  6  0  0  0
  4 14  1  0  0  0  0
  5 10  2  0  0  0  0
  6  5  1  0  0  0  0
  6  2  2  0  0  0  0
  7 13  1  6  0  0  0
  7 17  1  0  0  0  0
  8  1  2  0  0  0  0
  8  3  1  0  0  0  0
 10  1  1  0  0  0  0
 11 18  1  0  0  0  0
 11 15  1  0  0  0  0
 12 18  2  0  0  0  0
 13  2  1  0  0  0  0
 14 15  1  0  0  0  0
 15 21  1  0  0  0  0
 16 26  1  6  0  0  0
 16  7  1  0  0  0  0
 16  9  1  0  0  0  0
 17  3  1  1  0  0  0
 17  4  1  0  0  0  0
 19 20  1  0  0  0  0
 19 25  1  0  0  0  0
 21 24  2  0  0  0  0
 21 23  1  0  0  0  0
 22 20  2  0  0  0  0
 23 19  2  0  0  0  0
 24 22  1  0  0  0  0
 26 27  1  0  0  0  0
 28 27  1  0  0  0  0
 29 33  1  0  0  0  0
 30 29  1  6  0  0  0
 30 34  1  0  0  0  0
 30 33  1  0  0  0  0
 31 32  1  0  0  0  0
 33 28  1  1  0  0  0
 33 32  1  0  0  0  0
 34 31  1  0  0  0  0
M  END
>  <MODEL>
9

>  <REMARK>
 VINA RESULT:      -7.7      2.831      7.164
  Name = 
  5 active torsions:
  status: ('A' for Active; 'I' for Inactive)
    1  A    between atoms: C_3  and  C_13
    2  A    between atoms: C_3  and  C_17
    3  A    between atoms: C_12  and  N_28
    4  A    between atoms: C_13  and  C_33
    5  A    between atoms: C_17  and  C_29
                            x       y       z     vdW  Elec       q    Type
                         _______ _______ _______ _____ _____    ______ ____

>  <TORSDO>
F 5

$$$$
