=
 OpenBabel11062410173D

 43 49  0  0  1  0  0  0  0  0999 V2000
  161.1730  205.8890  150.7930 C   0  0  1  0  0  3  0  0  0  0  0  0
  160.8630  201.1660  146.2070 C   0  0  0  0  0  0  0  0  0  0  0  0
  161.1020  204.6430  149.9410 C   0  0  0  0  0  0  0  0  0  0  0  0
  161.0510  202.2980  148.3930 C   0  0  0  0  0  0  0  0  0  0  0  0
  160.8980  202.4390  145.5640 N   0  0  0  0  0  2  0  0  0  0  0  0
  160.6940  200.1180  145.5320 O   0  0  0  0  0  0  0  0  0  0  0  0
  161.1700  203.5520  147.7560 C   0  0  0  0  0  0  0  0  0  0  0  0
  160.9720  201.0970  147.6250 N   0  0  0  0  0  2  0  0  0  0  0  0
  161.3840  203.6260  146.2610 C   0  0  0  0  0  2  0  0  0  0  0  0
  161.3280  206.0650  147.8730 C   0  0  0  0  0  1  0  0  0  0  0  0
  161.2010  204.7270  148.5360 C   0  0  0  0  0  0  0  0  0  0  0  0
  160.9930  203.3840  150.5490 C   0  0  0  0  0  3  0  0  0  0  0  0
  160.9640  202.2230  149.7810 C   0  0  0  0  0  3  0  0  0  0  0  0
  161.1210  206.6390  153.1500 C   0  0  2  0  0  3  0  0  0  0  0  0
  160.4420  205.7490  152.1250 C   0  0  2  0  0  3  0  0  0  0  0  0
  161.3570  205.1430  153.1700 C   0  0  0  0  0  2  0  0  0  0  0  0
  160.1940  206.9830  154.1350 O   0  0  0  0  0  0  0  0  0  0  0  0
  160.9190  206.9570  155.3270 C   0  0  0  0  0  2  0  0  0  0  0  0
  160.0700  207.5150  156.4550 C   0  0  0  0  0  2  0  0  0  0  0  0
  160.5300  208.9170  156.8110 C   0  0  0  0  0  2  0  0  0  0  0  0
  161.3310  209.4240  155.7860 O   0  0  0  0  0  0  0  0  0  0  0  0
  161.2280  210.8120  155.8970 C   0  0  2  0  0  3  0  0  0  0  0  0
  159.6430  211.0500  153.9690 C   0  0  2  0  0  3  0  0  0  0  0  0
  159.8400  211.2530  155.4800 C   0  0  2  0  0  0  0  0  0  0  0  0
  161.0060  211.4260  154.5270 C   0  0  1  0  0  3  0  0  0  0  0  0
  159.0080  212.2020  153.2350 C   0  0  0  0  0  0  0  0  0  0  0  0
  157.0490  213.7520  152.7870 C   0  0  0  0  0  2  0  0  0  0  0  0
  159.1450  213.9890  151.4850 C   0  0  0  0  0  2  0  0  0  0  0  0
  157.6250  213.9110  151.3870 C   0  0  0  0  0  2  0  0  0  0  0  0
  159.7140  212.8470  152.2860 C   0  0  0  0  0  3  0  0  0  0  0  0
  157.5200  212.4280  153.3880 C   0  0  0  0  0  2  0  0  0  0  0  0
  159.5170  212.6310  156.0460 C   0  0  0  0  0  2  0  0  0  0  0  0
  157.5260  212.8550  156.9760 C   0  0  0  0  0  1  0  0  0  0  0  0
  158.8440  212.4930  157.2610 O   0  0  0  0  0  0  0  0  0  0  0  0
  162.5990  206.4250  150.9610 C   0  0  0  0  0  2  0  0  0  0  0  0
  162.8990  207.6390  150.0870 C   0  0  0  0  0  2  0  0  0  0  0  0
  162.1210  210.8510  150.5420 N   0  0  0  0  0  0  0  0  0  0  0  0
  162.0050  210.7190  149.2730 C   0  0  0  0  0  0  0  0  0  0  0  0
  161.7740  208.5620  150.1010 N   0  0  0  0  0  0  0  0  0  0  0  0
  162.0240  209.5450  151.1650 C   0  0  0  0  0  2  0  0  0  0  0  0
  161.8220  209.3210  148.8530 C   0  0  0  0  0  2  0  0  0  0  0  0
  162.0560  211.7910  148.3820 O   0  0  0  0  0  0  0  0  0  0  0  0
  161.4050  213.0240  148.6500 C   0  0  0  0  0  1  0  0  0  0  0  0
  1 35  1  1  0  0  0
  2  8  1  0  0  0  0
  3 12  1  0  0  0  0
  3  1  1  0  0  0  0
  4 13  1  0  0  0  0
  5  2  1  0  0  0  0
  5  9  1  0  0  0  0
  6  2  2  0  0  0  0
  7  4  2  0  0  0  0
  7 11  1  0  0  0  0
  8  4  1  0  0  0  0
  9  7  1  0  0  0  0
 10 11  1  0  0  0  0
 11  3  2  0  0  0  0
 13 12  2  0  0  0  0
 14 16  1  0  0  0  0
 14 17  1  1  0  0  0
 15  1  1  6  0  0  0
 15 14  1  0  0  0  0
 15 16  1  0  0  0  0
 17 18  1  0  0  0  0
 18 19  1  0  0  0  0
 19 20  1  0  0  0  0
 21 20  1  0  0  0  0
 22 21  1  6  0  0  0
 23 26  1  6  0  0  0
 23 25  1  0  0  0  0
 23 24  1  0  0  0  0
 24 22  1  0  0  0  0
 24 32  1  1  0  0  0
 25 24  1  0  0  0  0
 25 22  1  0  0  0  0
 26 31  1  0  0  0  0
 27 31  1  0  0  0  0
 28 30  1  0  0  0  0
 29 28  1  0  0  0  0
 29 27  1  0  0  0  0
 30 26  2  0  0  0  0
 32 34  1  0  0  0  0
 33 34  1  0  0  0  0
 36 39  1  0  0  0  0
 36 35  1  0  0  0  0
 37 40  1  0  0  0  0
 38 37  2  0  0  0  0
 39 40  1  0  0  0  0
 41 38  1  0  0  0  0
 41 39  1  0  0  0  0
 42 43  1  0  0  0  0
 42 38  1  0  0  0  0
M  END
>  <MODEL>
1

>  <REMARK>
 VINA RESULT:      -7.3      0.000      0.000
  Name = 
  15 active torsions:
  status: ('A' for Active; 'I' for Inactive)
    1  A    between atoms: C_1  and  C_34
    2  A    between atoms: C_1  and  C_35
    3  A    between atoms: C_2  and  C_7
    4  A    between atoms: C_2  and  O_12
    5  A    between atoms: O_3  and  C_4
    6  A    between atoms: O_3  and  C_17
    7  A    between atoms: C_6  and  O_12
    8  A    between atoms: C_7  and  C_17
    9  A    between atoms: C_8  and  C_34
   10  A    between atoms: C_10  and  C_22
   11  A    between atoms: C_10  and  O_42
   12  A    between atoms: C_11  and  C_14
   13  A    between atoms: C_13  and  C_34
   14  A    between atoms: C_19  and  O_25
   15  A    between atoms: N_28  and  C_35
                            x       y       z     vdW  Elec       q    Type
                         _______ _______ _______ _____ _____    ______ ____

>  <TORSDO>
F 15

$$$$
=
 OpenBabel11062410173D

 43 49  0  0  1  0  0  0  0  0999 V2000
  160.0700  212.5320  152.2770 C   0  0  1  0  0  3  0  0  0  0  0  0
  155.2190  213.8090  156.5520 C   0  0  0  0  0  0  0  0  0  0  0  0
  158.8270  212.9070  153.0510 C   0  0  0  0  0  0  0  0  0  0  0  0
  156.5260  213.6920  154.4610 C   0  0  0  0  0  0  0  0  0  0  0  0
  156.3360  213.2740  157.2600 N   0  0  0  0  0  2  0  0  0  0  0  0
  154.1340  214.0280  157.1500 O   0  0  0  0  0  0  0  0  0  0  0  0
  157.6600  213.2410  155.1710 C   0  0  0  0  0  0  0  0  0  0  0  0
  155.3290  214.0480  155.1530 N   0  0  0  0  0  2  0  0  0  0  0  0
  157.6770  213.2890  156.6820 C   0  0  0  0  0  2  0  0  0  0  0  0
  160.0260  212.3730  155.2020 C   0  0  0  0  0  1  0  0  0  0  0  0
  158.8150  212.8530  154.4610 C   0  0  0  0  0  0  0  0  0  0  0  0
  157.6900  213.3670  152.3700 C   0  0  0  0  0  3  0  0  0  0  0  0
  156.5490  213.7520  153.0700 C   0  0  0  0  0  3  0  0  0  0  0  0
  160.7570  210.2030  152.7420 C   0  0  2  0  0  3  0  0  0  0  0  0
  160.0420  211.1010  151.7510 C   0  0  2  0  0  3  0  0  0  0  0  0
  161.4480  210.6170  151.4600 C   0  0  0  0  0  2  0  0  0  0  0  0
  160.2640  208.9030  152.6140 O   0  0  0  0  0  0  0  0  0  0  0  0
  161.3910  208.0860  152.7100 C   0  0  0  0  0  2  0  0  0  0  0  0
  161.1560  207.0080  153.7520 C   0  0  0  0  0  2  0  0  0  0  0  0
  161.2510  205.6340  153.1140 C   0  0  0  0  0  2  0  0  0  0  0  0
  161.7430  205.7530  151.8120 O   0  0  0  0  0  0  0  0  0  0  0  0
  160.8360  205.0500  151.0160 C   0  0  2  0  0  3  0  0  0  0  0  0
  161.9210  205.7050  148.8530 C   0  0  2  0  0  3  0  0  0  0  0  0
  161.5410  204.5380  149.7770 C   0  0  2  0  0  0  0  0  0  0  0  0
  160.6530  205.7630  149.6890 C   0  0  1  0  0  3  0  0  0  0  0  0
  161.6130  205.5060  147.3910 C   0  0  0  0  0  0  0  0  0  0  0  0
  162.1760  204.5660  145.1020 C   0  0  0  0  0  2  0  0  0  0  0  0
  160.1300  205.9300  145.4180 C   0  0  0  0  0  2  0  0  0  0  0  0
  161.3590  205.7200  144.5390 C   0  0  0  0  0  2  0  0  0  0  0  0
  160.4980  206.0550  146.8740 C   0  0  0  0  0  3  0  0  0  0  0  0
  162.6880  204.9320  146.4950 C   0  0  0  0  0  2  0  0  0  0  0  0
  160.7670  203.3800  149.1560 C   0  0  0  0  0  2  0  0  0  0  0  0
  160.3920  201.2310  149.5070 C   0  0  0  0  0  1  0  0  0  0  0  0
  160.4060  202.4700  150.1500 O   0  0  0  0  0  0  0  0  0  0  0  0
  160.4330  213.5490  151.1900 C   0  0  0  0  0  2  0  0  0  0  0  0
  159.7290  213.2970  149.8610 C   0  0  0  0  0  2  0  0  0  0  0  0
  161.7290  212.4870  147.3160 N   0  0  0  0  0  0  0  0  0  0  0  0
  160.6360  212.7880  146.7190 C   0  0  0  0  0  0  0  0  0  0  0  0
  160.4940  213.8760  148.7660 N   0  0  0  0  0  0  0  0  0  0  0  0
  161.7320  213.0940  148.6330 C   0  0  0  0  0  2  0  0  0  0  0  0
  159.7450  213.6270  147.5360 C   0  0  0  0  0  2  0  0  0  0  0  0
  160.3210  212.3570  145.4310 O   0  0  0  0  0  0  0  0  0  0  0  0
  159.1870  212.8480  144.7300 C   0  0  0  0  0  1  0  0  0  0  0  0
  1 35  1  6  0  0  0
  1  3  1  0  0  0  0
  2  6  2  0  0  0  0
  2  5  1  0  0  0  0
  3 11  1  0  0  0  0
  4  8  1  0  0  0  0
  4  7  1  0  0  0  0
  7  9  1  0  0  0  0
  8  2  1  0  0  0  0
  9  5  1  0  0  0  0
 11  7  2  0  0  0  0
 11 10  1  0  0  0  0
 12  3  2  0  0  0  0
 12 13  1  0  0  0  0
 13  4  2  0  0  0  0
 14 17  1  6  0  0  0
 15  1  1  1  0  0  0
 15 14  1  0  0  0  0
 16 15  1  0  0  0  0
 16 14  1  0  0  0  0
 17 18  1  0  0  0  0
 18 19  1  0  0  0  0
 20 19  1  0  0  0  0
 21 20  1  0  0  0  0
 22 21  1  1  0  0  0
 23 26  1  6  0  0  0
 23 25  1  0  0  0  0
 23 24  1  0  0  0  0
 24 32  1  6  0  0  0
 24 22  1  0  0  0  0
 25 24  1  0  0  0  0
 25 22  1  0  0  0  0
 27 31  1  0  0  0  0
 28 30  1  0  0  0  0
 29 27  1  0  0  0  0
 29 28  1  0  0  0  0
 30 26  2  0  0  0  0
 31 26  1  0  0  0  0
 32 34  1  0  0  0  0
 33 34  1  0  0  0  0
 36 35  1  0  0  0  0
 37 40  1  0  0  0  0
 38 37  2  0  0  0  0
 38 41  1  0  0  0  0
 39 36  1  0  0  0  0
 40 39  1  0  0  0  0
 41 39  1  0  0  0  0
 42 38  1  0  0  0  0
 43 42  1  0  0  0  0
M  END
>  <MODEL>
2

>  <REMARK>
 VINA RESULT:      -7.1      3.235      9.873
  Name = 
  15 active torsions:
  status: ('A' for Active; 'I' for Inactive)
    1  A    between atoms: C_1  and  C_34
    2  A    between atoms: C_1  and  C_35
    3  A    between atoms: C_2  and  C_7
    4  A    between atoms: C_2  and  O_12
    5  A    between atoms: O_3  and  C_4
    6  A    between atoms: O_3  and  C_17
    7  A    between atoms: C_6  and  O_12
    8  A    between atoms: C_7  and  C_17
    9  A    between atoms: C_8  and  C_34
   10  A    between atoms: C_10  and  C_22
   11  A    between atoms: C_10  and  O_42
   12  A    between atoms: C_11  and  C_14
   13  A    between atoms: C_13  and  C_34
   14  A    between atoms: C_19  and  O_25
   15  A    between atoms: N_28  and  C_35
                            x       y       z     vdW  Elec       q    Type
                         _______ _______ _______ _____ _____    ______ ____

>  <TORSDO>
F 15

$$$$
=
 OpenBabel11062410173D

 43 49  0  0  1  0  0  0  0  0999 V2000
  160.8180  211.7450  151.9330 C   0  0  1  0  0  3  0  0  0  0  0  0
  156.0780  213.2600  156.2540 C   0  0  0  0  0  0  0  0  0  0  0  0
  159.8830  211.9770  153.0970 C   0  0  0  0  0  0  0  0  0  0  0  0
  158.1380  212.3160  155.2750 C   0  0  0  0  0  0  0  0  0  0  0  0
  155.6950  213.7230  154.9610 N   0  0  0  0  0  2  0  0  0  0  0  0
  155.3740  213.5330  157.2610 O   0  0  0  0  0  0  0  0  0  0  0  0
  157.7240  212.7000  153.9810 C   0  0  0  0  0  0  0  0  0  0  0  0
  157.2890  212.5260  156.4030 N   0  0  0  0  0  2  0  0  0  0  0  0
  156.3090  213.1840  153.7510 C   0  0  0  0  0  2  0  0  0  0  0  0
  158.1710  212.9260  151.5110 C   0  0  0  0  0  1  0  0  0  0  0  0
  158.6000  212.5240  152.8900 C   0  0  0  0  0  0  0  0  0  0  0  0
  160.2680  211.5970  154.3920 C   0  0  0  0  0  3  0  0  0  0  0  0
  159.4040  211.7690  155.4700 C   0  0  0  0  0  3  0  0  0  0  0  0
  161.3720  209.3920  152.4580 C   0  0  2  0  0  3  0  0  0  0  0  0
  160.7810  210.3130  151.4070 C   0  0  2  0  0  3  0  0  0  0  0  0
  162.1870  209.7740  151.2410 C   0  0  0  0  0  2  0  0  0  0  0  0
  160.8420  208.1120  152.2880 O   0  0  0  0  0  0  0  0  0  0  0  0
  160.6840  207.6190  153.5840 C   0  0  0  0  0  2  0  0  0  0  0  0
  161.6660  206.4860  153.8250 C   0  0  0  0  0  2  0  0  0  0  0  0
  161.2350  205.2500  153.0570 C   0  0  0  0  0  2  0  0  0  0  0  0
  161.7360  205.3070  151.7540 O   0  0  0  0  0  0  0  0  0  0  0  0
  160.7700  204.6780  150.9660 C   0  0  2  0  0  3  0  0  0  0  0  0
  161.8010  205.3770  148.7910 C   0  0  2  0  0  3  0  0  0  0  0  0
  161.4040  204.1880  149.6800 C   0  0  2  0  0  0  0  0  0  0  0  0
  160.5680  205.4530  149.6770 C   0  0  1  0  0  3  0  0  0  0  0  0
  161.4290  205.2540  147.3360 C   0  0  0  0  0  0  0  0  0  0  0  0
  161.5550  204.0660  145.0960 C   0  0  0  0  0  2  0  0  0  0  0  0
  160.2280  206.1480  145.3280 C   0  0  0  0  0  2  0  0  0  0  0  0
  161.2650  205.4250  144.4740 C   0  0  0  0  0  2  0  0  0  0  0  0
  160.6240  206.1800  146.7810 C   0  0  0  0  0  3  0  0  0  0  0  0
  162.1790  204.2580  146.4780 C   0  0  0  0  0  2  0  0  0  0  0  0
  160.5570  203.0920  149.0440 C   0  0  0  0  0  2  0  0  0  0  0  0
  160.9950  201.1070  148.1790 C   0  0  0  0  0  1  0  0  0  0  0  0
  161.0920  201.8430  149.3610 O   0  0  0  0  0  0  0  0  0  0  0  0
  160.6630  212.7830  150.8180 C   0  0  0  0  0  2  0  0  0  0  0  0
  161.1680  212.3000  149.4620 C   0  0  0  0  0  2  0  0  0  0  0  0
  162.4010  213.1540  146.4820 N   0  0  0  0  0  0  0  0  0  0  0  0
  161.1460  213.0680  146.2430 C   0  0  0  0  0  0  0  0  0  0  0  0
  161.2750  213.4180  148.5350 N   0  0  0  0  0  0  0  0  0  0  0  0
  162.6010  213.3420  147.9050 C   0  0  0  0  0  2  0  0  0  0  0  0
  160.3200  213.1780  147.4560 C   0  0  0  0  0  2  0  0  0  0  0  0
  160.6170  212.8830  144.9660 O   0  0  0  0  0  0  0  0  0  0  0  0
  159.7130  213.8110  144.3840 C   0  0  0  0  0  1  0  0  0  0  0  0
  1 35  1  6  0  0  0
  1  3  1  0  0  0  0
  2  8  1  0  0  0  0
  2  6  2  0  0  0  0
  3 12  1  0  0  0  0
  4 13  1  0  0  0  0
  4  8  1  0  0  0  0
  5  2  1  0  0  0  0
  7  4  2  0  0  0  0
  9  7  1  0  0  0  0
  9  5  1  0  0  0  0
 10 11  1  0  0  0  0
 11  3  2  0  0  0  0
 11  7  1  0  0  0  0
 12 13  2  0  0  0  0
 14 17  1  6  0  0  0
 15  1  1  1  0  0  0
 15 14  1  0  0  0  0
 16 15  1  0  0  0  0
 16 14  1  0  0  0  0
 17 18  1  0  0  0  0
 18 19  1  0  0  0  0
 20 19  1  0  0  0  0
 21 20  1  0  0  0  0
 22 21  1  1  0  0  0
 23 26  1  6  0  0  0
 23 25  1  0  0  0  0
 23 24  1  0  0  0  0
 24 32  1  6  0  0  0
 24 22  1  0  0  0  0
 25 24  1  0  0  0  0
 25 22  1  0  0  0  0
 27 31  1  0  0  0  0
 28 30  1  0  0  0  0
 29 27  1  0  0  0  0
 29 28  1  0  0  0  0
 30 26  2  0  0  0  0
 31 26  1  0  0  0  0
 32 34  1  0  0  0  0
 33 34  1  0  0  0  0
 36 35  1  0  0  0  0
 37 40  1  0  0  0  0
 38 37  2  0  0  0  0
 38 41  1  0  0  0  0
 39 36  1  0  0  0  0
 40 39  1  0  0  0  0
 41 39  1  0  0  0  0
 42 38  1  0  0  0  0
 43 42  1  0  0  0  0
M  END
>  <MODEL>
3

>  <REMARK>
 VINA RESULT:      -6.5      3.237      9.509
  Name = 
  15 active torsions:
  status: ('A' for Active; 'I' for Inactive)
    1  A    between atoms: C_1  and  C_34
    2  A    between atoms: C_1  and  C_35
    3  A    between atoms: C_2  and  C_7
    4  A    between atoms: C_2  and  O_12
    5  A    between atoms: O_3  and  C_4
    6  A    between atoms: O_3  and  C_17
    7  A    between atoms: C_6  and  O_12
    8  A    between atoms: C_7  and  C_17
    9  A    between atoms: C_8  and  C_34
   10  A    between atoms: C_10  and  C_22
   11  A    between atoms: C_10  and  O_42
   12  A    between atoms: C_11  and  C_14
   13  A    between atoms: C_13  and  C_34
   14  A    between atoms: C_19  and  O_25
   15  A    between atoms: N_28  and  C_35
                            x       y       z     vdW  Elec       q    Type
                         _______ _______ _______ _____ _____    ______ ____

>  <TORSDO>
F 15

$$$$
=
 OpenBabel11062410173D

 43 49  0  0  1  0  0  0  0  0999 V2000
  161.6470  210.2690  150.7630 C   0  0  1  0  0  3  0  0  0  0  0  0
  159.0050  213.0750  156.1090 C   0  0  0  0  0  0  0  0  0  0  0  0
  161.1580  210.7240  152.1190 C   0  0  0  0  0  0  0  0  0  0  0  0
  160.2070  211.4860  154.6510 C   0  0  0  0  0  0  0  0  0  0  0  0
  158.6140  213.8140  154.9540 N   0  0  0  0  0  2  0  0  0  0  0  0
  158.7060  213.4890  157.2590 O   0  0  0  0  0  0  0  0  0  0  0  0
  159.7540  212.1680  153.5000 C   0  0  0  0  0  0  0  0  0  0  0  0
  159.7770  211.8890  155.9520 N   0  0  0  0  0  2  0  0  0  0  0  0
  158.6780  213.2240  153.6200 C   0  0  0  0  0  2  0  0  0  0  0  0
  159.7560  212.4940  151.0010 C   0  0  0  0  0  1  0  0  0  0  0  0
  160.2290  211.7790  152.2310 C   0  0  0  0  0  0  0  0  0  0  0  0
  161.5860  210.0580  153.2770 C   0  0  0  0  0  3  0  0  0  0  0  0
  161.1170  210.4390  154.5310 C   0  0  0  0  0  3  0  0  0  0  0  0
  162.3190  207.8900  150.7100 C   0  0  2  0  0  3  0  0  0  0  0  0
  161.1930  208.8580  150.4010 C   0  0  2  0  0  3  0  0  0  0  0  0
  162.0440  208.3000  149.2790 C   0  0  0  0  0  2  0  0  0  0  0  0
  161.7760  206.6270  150.9510 O   0  0  0  0  0  0  0  0  0  0  0  0
  162.4860  206.1390  152.0490 C   0  0  0  0  0  2  0  0  0  0  0  0
  161.5210  205.5740  153.0740 C   0  0  0  0  0  2  0  0  0  0  0  0
  160.7910  204.3740  152.4990 C   0  0  0  0  0  2  0  0  0  0  0  0
  161.6200  203.7100  151.5920 O   0  0  0  0  0  0  0  0  0  0  0  0
  160.7580  203.1960  150.6210 C   0  0  2  0  0  3  0  0  0  0  0  0
  161.6920  204.5970  148.7640 C   0  0  2  0  0  3  0  0  0  0  0  0
  161.4630  203.1680  149.2800 C   0  0  2  0  0  0  0  0  0  0  0  0
  160.4560  204.2600  149.5820 C   0  0  1  0  0  3  0  0  0  0  0  0
  161.3510  204.8280  147.3140 C   0  0  0  0  0  0  0  0  0  0  0  0
  161.5830  204.2610  144.8520 C   0  0  0  0  0  2  0  0  0  0  0  0
  160.1250  206.1350  145.5640 C   0  0  0  0  0  2  0  0  0  0  0  0
  161.2180  205.7140  144.5870 C   0  0  0  0  0  2  0  0  0  0  0  0
  160.4970  205.8180  146.9890 C   0  0  0  0  0  3  0  0  0  0  0  0
  162.1740  204.1280  146.2550 C   0  0  0  0  0  2  0  0  0  0  0  0
  160.7850  202.1840  148.3340 C   0  0  0  0  0  2  0  0  0  0  0  0
  161.4830  200.2460  147.5370 C   0  0  0  0  0  1  0  0  0  0  0  0
  161.0900  200.8780  148.7170 O   0  0  0  0  0  0  0  0  0  0  0  0
  161.3600  211.2810  149.6480 C   0  0  0  0  0  2  0  0  0  0  0  0
  162.6010  211.6850  148.8590 C   0  0  0  0  0  2  0  0  0  0  0  0
  161.9000  213.1680  145.9540 N   0  0  0  0  0  0  0  0  0  0  0  0
  160.8020  213.3010  146.6000 C   0  0  0  0  0  0  0  0  0  0  0  0
  162.4080  212.9920  148.2490 N   0  0  0  0  0  0  0  0  0  0  0  0
  162.9780  212.9350  146.8950 C   0  0  0  0  0  2  0  0  0  0  0  0
  160.9710  213.1720  148.0560 C   0  0  0  0  0  2  0  0  0  0  0  0
  159.5730  213.5360  145.9850 O   0  0  0  0  0  0  0  0  0  0  0  0
  158.8690  212.5140  145.2960 C   0  0  0  0  0  1  0  0  0  0  0  0
  1 35  1  6  0  0  0
  1  3  1  0  0  0  0
  2  6  2  0  0  0  0
  3 11  2  0  0  0  0
  3 12  1  0  0  0  0
  4  8  1  0  0  0  0
  5  2  1  0  0  0  0
  7  9  1  0  0  0  0
  7  4  2  0  0  0  0
  8  2  1  0  0  0  0
  9  5  1  0  0  0  0
 10 11  1  0  0  0  0
 11  7  1  0  0  0  0
 12 13  2  0  0  0  0
 13  4  1  0  0  0  0
 14 17  1  6  0  0  0
 15 14  1  0  0  0  0
 15  1  1  1  0  0  0
 16 15  1  0  0  0  0
 16 14  1  0  0  0  0
 17 18  1  0  0  0  0
 18 19  1  0  0  0  0
 20 19  1  0  0  0  0
 21 20  1  0  0  0  0
 22 21  1  1  0  0  0
 23 26  1  6  0  0  0
 23 24  1  0  0  0  0
 23 25  1  0  0  0  0
 24 32  1  6  0  0  0
 24 25  1  0  0  0  0
 24 22  1  0  0  0  0
 25 22  1  0  0  0  0
 27 31  1  0  0  0  0
 28 30  1  0  0  0  0
 29 27  1  0  0  0  0
 29 28  1  0  0  0  0
 30 26  2  0  0  0  0
 31 26  1  0  0  0  0
 32 34  1  0  0  0  0
 33 34  1  0  0  0  0
 36 35  1  0  0  0  0
 37 38  2  0  0  0  0
 37 40  1  0  0  0  0
 38 41  1  0  0  0  0
 39 36  1  0  0  0  0
 40 39  1  0  0  0  0
 41 39  1  0  0  0  0
 42 38  1  0  0  0  0
 43 42  1  0  0  0  0
M  END
>  <MODEL>
4

>  <REMARK>
 VINA RESULT:      -6.3      3.180      9.343
  Name = 
  15 active torsions:
  status: ('A' for Active; 'I' for Inactive)
    1  A    between atoms: C_1  and  C_34
    2  A    between atoms: C_1  and  C_35
    3  A    between atoms: C_2  and  C_7
    4  A    between atoms: C_2  and  O_12
    5  A    between atoms: O_3  and  C_4
    6  A    between atoms: O_3  and  C_17
    7  A    between atoms: C_6  and  O_12
    8  A    between atoms: C_7  and  C_17
    9  A    between atoms: C_8  and  C_34
   10  A    between atoms: C_10  and  C_22
   11  A    between atoms: C_10  and  O_42
   12  A    between atoms: C_11  and  C_14
   13  A    between atoms: C_13  and  C_34
   14  A    between atoms: C_19  and  O_25
   15  A    between atoms: N_28  and  C_35
                            x       y       z     vdW  Elec       q    Type
                         _______ _______ _______ _____ _____    ______ ____

>  <TORSDO>
F 15

$$$$
=
 OpenBabel11062410173D

 43 49  0  0  1  0  0  0  0  0999 V2000
  160.1300  210.2000  153.1360 C   0  0  1  0  0  3  0  0  0  0  0  0
  162.1980  213.5510  147.8510 C   0  0  0  0  0  0  0  0  0  0  0  0
  160.4400  211.1510  152.0020 C   0  0  0  0  0  0  0  0  0  0  0  0
  160.9250  212.9140  149.8680 C   0  0  0  0  0  0  0  0  0  0  0  0
  162.8740  212.2970  147.9010 N   0  0  0  0  0  2  0  0  0  0  0  0
  162.5110  214.4080  146.9840 O   0  0  0  0  0  0  0  0  0  0  0  0
  161.5320  211.6390  149.8730 C   0  0  0  0  0  0  0  0  0  0  0  0
  161.1970  213.8450  148.8210 N   0  0  0  0  0  2  0  0  0  0  0  0
  162.3440  211.1820  148.6820 C   0  0  0  0  0  2  0  0  0  0  0  0
  161.9190  209.3980  150.9590 C   0  0  0  0  0  1  0  0  0  0  0  0
  161.2820  210.7540  150.9430 C   0  0  0  0  0  0  0  0  0  0  0  0
  159.8430  212.4200  151.9700 C   0  0  0  0  0  3  0  0  0  0  0  0
  160.0870  213.2940  150.9140 C   0  0  0  0  0  3  0  0  0  0  0  0
  160.9560  207.9650  153.7990 C   0  0  2  0  0  3  0  0  0  0  0  0
  161.3500  209.4190  153.6160 C   0  0  2  0  0  3  0  0  0  0  0  0
  161.1100  208.8660  155.0060 C   0  0  0  0  0  2  0  0  0  0  0  0
  162.0930  207.1670  153.6580 O   0  0  0  0  0  0  0  0  0  0  0  0
  161.7910  206.3030  152.6050 C   0  0  0  0  0  2  0  0  0  0  0  0
  160.7850  205.2640  153.0660 C   0  0  0  0  0  2  0  0  0  0  0  0
  161.2070  203.8840  152.5970 C   0  0  0  0  0  2  0  0  0  0  0  0
  161.7810  203.9750  151.3260 O   0  0  0  0  0  0  0  0  0  0  0  0
  160.7540  203.6450  150.4390 C   0  0  2  0  0  3  0  0  0  0  0  0
  161.8620  204.6950  148.4510 C   0  0  2  0  0  3  0  0  0  0  0  0
  161.3340  203.3890  149.0630 C   0  0  2  0  0  0  0  0  0  0  0  0
  160.6430  204.7050  149.3590 C   0  0  1  0  0  3  0  0  0  0  0  0
  161.4840  204.9400  147.0130 C   0  0  0  0  0  0  0  0  0  0  0  0
  161.6770  204.4160  144.5370 C   0  0  0  0  0  2  0  0  0  0  0  0
  160.1880  206.2410  145.3100 C   0  0  0  0  0  2  0  0  0  0  0  0
  161.2690  205.8640  144.3030 C   0  0  0  0  0  2  0  0  0  0  0  0
  160.5990  205.9120  146.7210 C   0  0  0  0  0  3  0  0  0  0  0  0
  162.3010  204.2780  145.9260 C   0  0  0  0  0  2  0  0  0  0  0  0
  160.3740  202.5590  148.2180 C   0  0  0  0  0  2  0  0  0  0  0  0
  161.2820  200.5530  148.3890 C   0  0  0  0  0  1  0  0  0  0  0  0
  161.0900  201.6060  147.4930 O   0  0  0  0  0  0  0  0  0  0  0  0
  159.3680  210.8630  154.2880 C   0  0  0  0  0  2  0  0  0  0  0  0
  160.2440  211.7540  155.1640 C   0  0  0  0  0  2  0  0  0  0  0  0
  158.2910  214.1410  156.4370 N   0  0  0  0  0  0  0  0  0  0  0  0
  157.4610  213.1860  156.2380 C   0  0  0  0  0  0  0  0  0  0  0  0
  159.5270  212.1350  156.3730 N   0  0  0  0  0  0  0  0  0  0  0  0
  159.6330  213.5950  156.5060 C   0  0  0  0  0  2  0  0  0  0  0  0
  158.1090  211.8690  156.1360 C   0  0  0  0  0  2  0  0  0  0  0  0
  156.0840  213.3770  156.1220 O   0  0  0  0  0  0  0  0  0  0  0  0
  155.4870  213.8350  154.9180 C   0  0  0  0  0  1  0  0  0  0  0  0
  1 35  1  1  0  0  0
  2  5  1  0  0  0  0
  2  8  1  0  0  0  0
  3  1  1  0  0  0  0
  4  7  2  0  0  0  0
  4 13  1  0  0  0  0
  5  9  1  0  0  0  0
  6  2  2  0  0  0  0
  7 11  1  0  0  0  0
  8  4  1  0  0  0  0
  9  7  1  0  0  0  0
 11 10  1  0  0  0  0
 11  3  2  0  0  0  0
 12  3  1  0  0  0  0
 13 12  2  0  0  0  0
 14 17  1  1  0  0  0
 14 16  1  0  0  0  0
 15  1  1  6  0  0  0
 15 14  1  0  0  0  0
 15 16  1  0  0  0  0
 18 19  1  0  0  0  0
 18 17  1  0  0  0  0
 20 19  1  0  0  0  0
 21 20  1  0  0  0  0
 22 21  1  1  0  0  0
 23 26  1  6  0  0  0
 23 24  1  0  0  0  0
 23 25  1  0  0  0  0
 24 32  1  6  0  0  0
 24 25  1  0  0  0  0
 24 22  1  0  0  0  0
 25 22  1  0  0  0  0
 27 31  1  0  0  0  0
 28 30  1  0  0  0  0
 29 27  1  0  0  0  0
 29 28  1  0  0  0  0
 30 26  2  0  0  0  0
 31 26  1  0  0  0  0
 34 32  1  0  0  0  0
 34 33  1  0  0  0  0
 35 36  1  0  0  0  0
 36 39  1  0  0  0  0
 37 40  1  0  0  0  0
 38 37  2  0  0  0  0
 39 40  1  0  0  0  0
 41 38  1  0  0  0  0
 41 39  1  0  0  0  0
 42 38  1  0  0  0  0
 43 42  1  0  0  0  0
M  END
>  <MODEL>
5

>  <REMARK>
 VINA RESULT:      -6.3      2.978      9.218
  Name = 
  15 active torsions:
  status: ('A' for Active; 'I' for Inactive)
    1  A    between atoms: C_1  and  C_34
    2  A    between atoms: C_1  and  C_35
    3  A    between atoms: C_2  and  C_7
    4  A    between atoms: C_2  and  O_12
    5  A    between atoms: O_3  and  C_4
    6  A    between atoms: O_3  and  C_17
    7  A    between atoms: C_6  and  O_12
    8  A    between atoms: C_7  and  C_17
    9  A    between atoms: C_8  and  C_34
   10  A    between atoms: C_10  and  C_22
   11  A    between atoms: C_10  and  O_42
   12  A    between atoms: C_11  and  C_14
   13  A    between atoms: C_13  and  C_34
   14  A    between atoms: C_19  and  O_25
   15  A    between atoms: N_28  and  C_35
                            x       y       z     vdW  Elec       q    Type
                         _______ _______ _______ _____ _____    ______ ____

>  <TORSDO>
F 15

$$$$
=
 OpenBabel11062410173D

 43 49  0  0  1  0  0  0  0  0999 V2000
  161.6560  208.3240  149.6770 C   0  0  1  0  0  3  0  0  0  0  0  0
  161.2220  202.1900  147.3080 C   0  0  0  0  0  0  0  0  0  0  0  0
  161.6260  207.0230  148.9100 C   0  0  0  0  0  0  0  0  0  0  0  0
  161.5040  204.6390  147.4250 C   0  0  0  0  0  0  0  0  0  0  0  0
  160.8870  202.1780  148.6940 N   0  0  0  0  0  2  0  0  0  0  0  0
  161.3120  201.1100  146.6680 O   0  0  0  0  0  0  0  0  0  0  0  0
  161.0930  204.6430  148.7760 C   0  0  0  0  0  0  0  0  0  0  0  0
  161.4990  203.4300  146.6660 N   0  0  0  0  0  2  0  0  0  0  0  0
  160.4850  203.4000  149.3860 C   0  0  0  0  0  2  0  0  0  0  0  0
  160.7170  205.8590  150.9510 C   0  0  0  0  0  1  0  0  0  0  0  0
  161.1510  205.8420  149.5170 C   0  0  0  0  0  0  0  0  0  0  0  0
  162.0210  206.9940  147.5640 C   0  0  0  0  0  3  0  0  0  0  0  0
  161.9640  205.8120  146.8310 C   0  0  0  0  0  3  0  0  0  0  0  0
  161.2790  208.6340  152.1020 C   0  0  2  0  0  3  0  0  0  0  0  0
  162.2890  208.1930  151.0590 C   0  0  2  0  0  3  0  0  0  0  0  0
  162.4180  209.5530  151.7140 C   0  0  0  0  0  2  0  0  0  0  0  0
  161.5740  208.0040  153.3120 O   0  0  0  0  0  0  0  0  0  0  0  0
  160.5540  208.4030  154.1770 C   0  0  0  0  0  2  0  0  0  0  0  0
  161.1320  209.2520  155.2950 C   0  0  0  0  0  2  0  0  0  0  0  0
  160.8320  210.7180  155.0460 C   0  0  0  0  0  2  0  0  0  0  0  0
  159.4540  210.9000  154.9100 O   0  0  0  0  0  0  0  0  0  0  0  0
  159.2890  212.2670  154.6770 C   0  0  2  0  0  3  0  0  0  0  0  0
  158.6990  211.9870  152.2570 C   0  0  2  0  0  3  0  0  0  0  0  0
  158.2140  212.4780  153.6300 C   0  0  2  0  0  0  0  0  0  0  0  0
  159.6760  212.5990  153.2470 C   0  0  1  0  0  3  0  0  0  0  0  0
  158.4280  212.9160  151.1010 C   0  0  0  0  0  0  0  0  0  0  0  0
  156.8400  214.0630  149.4870 C   0  0  0  0  0  2  0  0  0  0  0  0
  159.2820  214.4520  149.3170 C   0  0  0  0  0  2  0  0  0  0  0  0
  158.0200  214.1220  148.5280 C   0  0  0  0  0  2  0  0  0  0  0  0
  159.4610  213.5320  150.4960 C   0  0  0  0  0  3  0  0  0  0  0  0
  157.0470  212.9220  150.4840 C   0  0  0  0  0  2  0  0  0  0  0  0
  157.6540  213.8930  153.7080 C   0  0  0  0  0  2  0  0  0  0  0  0
  155.5360  213.3660  154.0470 C   0  0  0  0  0  1  0  0  0  0  0  0
  156.6430  213.9460  154.6680 O   0  0  0  0  0  0  0  0  0  0  0  0
  162.2450  209.4870  148.8710 C   0  0  0  0  0  2  0  0  0  0  0  0
  161.2080  210.2410  148.0450 C   0  0  0  0  0  2  0  0  0  0  0  0
  162.9800  212.6810  146.6170 N   0  0  0  0  0  0  0  0  0  0  0  0
  161.8010  212.8990  146.1660 C   0  0  0  0  0  0  0  0  0  0  0  0
  161.4570  211.6740  148.1080 N   0  0  0  0  0  0  0  0  0  0  0  0
  162.8840  211.8850  147.8260 C   0  0  0  0  0  2  0  0  0  0  0  0
  160.7460  212.2860  146.9880 C   0  0  0  0  0  2  0  0  0  0  0  0
  161.5460  213.6360  145.0100 O   0  0  0  0  0  0  0  0  0  0  0  0
  161.1390  213.0180  143.7980 C   0  0  0  0  0  1  0  0  0  0  0  0
  1 35  1  6  0  0  0
  2  5  1  0  0  0  0
  3 11  1  0  0  0  0
  3  1  1  0  0  0  0
  4  7  1  0  0  0  0
  5  9  1  0  0  0  0
  6  2  2  0  0  0  0
  7  9  1  0  0  0  0
  7 11  2  0  0  0  0
  8  2  1  0  0  0  0
  8  4  1  0  0  0  0
 11 10  1  0  0  0  0
 12  3  2  0  0  0  0
 13  4  2  0  0  0  0
 13 12  1  0  0  0  0
 14 17  1  1  0  0  0
 15  1  1  6  0  0  0
 15 16  1  0  0  0  0
 15 14  1  0  0  0  0
 16 14  1  0  0  0  0
 17 18  1  0  0  0  0
 18 19  1  0  0  0  0
 20 19  1  0  0  0  0
 21 20  1  0  0  0  0
 22 21  1  6  0  0  0
 23 26  1  6  0  0  0
 23 25  1  0  0  0  0
 23 24  1  0  0  0  0
 24 32  1  1  0  0  0
 24 22  1  0  0  0  0
 25 24  1  0  0  0  0
 25 22  1  0  0  0  0
 27 31  1  0  0  0  0
 28 30  1  0  0  0  0
 29 28  1  0  0  0  0
 29 27  1  0  0  0  0
 30 26  2  0  0  0  0
 31 26  1  0  0  0  0
 32 34  1  0  0  0  0
 33 34  1  0  0  0  0
 36 39  1  0  0  0  0
 36 35  1  0  0  0  0
 37 40  1  0  0  0  0
 38 37  2  0  0  0  0
 38 41  1  0  0  0  0
 40 39  1  0  0  0  0
 41 39  1  0  0  0  0
 42 38  1  0  0  0  0
 43 42  1  0  0  0  0
M  END
>  <MODEL>
6

>  <REMARK>
 VINA RESULT:      -6.1      1.984      3.146
  Name = 
  15 active torsions:
  status: ('A' for Active; 'I' for Inactive)
    1  A    between atoms: C_1  and  C_34
    2  A    between atoms: C_1  and  C_35
    3  A    between atoms: C_2  and  C_7
    4  A    between atoms: C_2  and  O_12
    5  A    between atoms: O_3  and  C_4
    6  A    between atoms: O_3  and  C_17
    7  A    between atoms: C_6  and  O_12
    8  A    between atoms: C_7  and  C_17
    9  A    between atoms: C_8  and  C_34
   10  A    between atoms: C_10  and  C_22
   11  A    between atoms: C_10  and  O_42
   12  A    between atoms: C_11  and  C_14
   13  A    between atoms: C_13  and  C_34
   14  A    between atoms: C_19  and  O_25
   15  A    between atoms: N_28  and  C_35
                            x       y       z     vdW  Elec       q    Type
                         _______ _______ _______ _____ _____    ______ ____

>  <TORSDO>
F 15

$$$$
=
 OpenBabel11062410173D

 43 49  0  0  1  0  0  0  0  0999 V2000
  161.5640  209.3060  149.7780 C   0  0  1  0  0  3  0  0  0  0  0  0
  160.6310  207.7150  156.1050 C   0  0  0  0  0  0  0  0  0  0  0  0
  161.4140  208.7030  151.1560 C   0  0  0  0  0  0  0  0  0  0  0  0
  161.0690  207.5230  153.6830 C   0  0  0  0  0  0  0  0  0  0  0  0
  160.3700  209.1060  155.9310 N   0  0  0  0  0  2  0  0  0  0  0  0
  160.6210  207.2050  157.2560 O   0  0  0  0  0  0  0  0  0  0  0  0
  160.7310  208.8810  153.4940 C   0  0  0  0  0  0  0  0  0  0  0  0
  160.9500  206.9160  154.9700 N   0  0  0  0  0  2  0  0  0  0  0  0
  160.0800  209.6630  154.6130 C   0  0  0  0  0  2  0  0  0  0  0  0
  160.5440  210.9080  152.0090 C   0  0  0  0  0  1  0  0  0  0  0  0
  160.9000  209.4680  152.2230 C   0  0  0  0  0  0  0  0  0  0  0  0
  161.7350  207.3540  151.3680 C   0  0  0  0  0  3  0  0  0  0  0  0
  161.5670  206.7710  152.6220 C   0  0  0  0  0  3  0  0  0  0  0  0
  161.5150  211.4810  148.6020 C   0  0  2  0  0  3  0  0  0  0  0  0
  162.0750  210.7440  149.8030 C   0  0  2  0  0  3  0  0  0  0  0  0
  162.9550  211.0140  148.6000 C   0  0  0  0  0  2  0  0  0  0  0  0
  161.4630  212.8450  148.8910 O   0  0  0  0  0  0  0  0  0  0  0  0
  161.9360  213.4710  147.7370 C   0  0  0  0  0  2  0  0  0  0  0  0
  160.9610  213.2450  146.5960 C   0  0  0  0  0  2  0  0  0  0  0  0
  161.6300  213.5530  145.2690 C   0  0  0  0  0  2  0  0  0  0  0  0
  160.6590  213.8620  144.3130 O   0  0  0  0  0  0  0  0  0  0  0  0
  160.4460  212.6720  143.6140 C   0  0  2  0  0  3  0  0  0  0  0  0
  159.8620  213.8090  141.4580 C   0  0  2  0  0  3  0  0  0  0  0  0
  160.8410  212.8580  142.1630 C   0  0  2  0  0  0  0  0  0  0  0  0
  159.3770  212.8780  142.5560 C   0  0  1  0  0  3  0  0  0  0  0  0
  159.3830  213.3610  140.1010 C   0  0  0  0  0  0  0  0  0  0  0  0
  157.6110  212.3710  138.5770 C   0  0  0  0  0  2  0  0  0  0  0  0
  159.8210  213.0200  137.6580 C   0  0  0  0  0  2  0  0  0  0  0  0
  158.7670  211.9180  137.6960 C   0  0  0  0  0  2  0  0  0  0  0  0
  160.2080  213.4710  139.0430 C   0  0  0  0  0  3  0  0  0  0  0  0
  158.1030  212.5590  140.0120 C   0  0  0  0  0  2  0  0  0  0  0  0
  161.1070  211.5120  141.4990 C   0  0  0  0  0  2  0  0  0  0  0  0
  162.5030  210.7220  139.9810 C   0  0  0  0  0  1  0  0  0  0  0  0
  162.4660  211.3960  141.2020 O   0  0  0  0  0  0  0  0  0  0  0  0
  162.3590  208.4190  148.8150 C   0  0  0  0  0  2  0  0  0  0  0  0
  161.5090  207.3560  148.1250 C   0  0  0  0  0  2  0  0  0  0  0  0
  161.1060  204.0780  147.6530 N   0  0  0  0  0  0  0  0  0  0  0  0
  161.5850  204.4590  146.5280 C   0  0  0  0  0  0  0  0  0  0  0  0
  162.2480  206.1060  148.0240 N   0  0  0  0  0  0  0  0  0  0  0  0
  161.4370  205.0620  148.6660 C   0  0  0  0  0  2  0  0  0  0  0  0
  162.2960  205.7450  146.6090 C   0  0  0  0  0  2  0  0  0  0  0  0
  161.4400  203.7330  145.3460 O   0  0  0  0  0  0  0  0  0  0  0  0
  160.8170  202.4570  145.3180 C   0  0  0  0  0  1  0  0  0  0  0  0
  1 35  1  6  0  0  0
  1  3  1  0  0  0  0
  2  6  2  0  0  0  0
  3 12  2  0  0  0  0
  3 11  1  0  0  0  0
  4  8  1  0  0  0  0
  5  2  1  0  0  0  0
  7  4  1  0  0  0  0
  7  9  1  0  0  0  0
  8  2  1  0  0  0  0
  9  5  1  0  0  0  0
 10 11  1  0  0  0  0
 11  7  2  0  0  0  0
 12 13  1  0  0  0  0
 13  4  2  0  0  0  0
 14 17  1  1  0  0  0
 14 15  1  0  0  0  0
 15  1  1  6  0  0  0
 16 14  1  0  0  0  0
 16 15  1  0  0  0  0
 18 17  1  0  0  0  0
 19 18  1  0  0  0  0
 20 19  1  0  0  0  0
 21 20  1  0  0  0  0
 22 21  1  1  0  0  0
 23 26  1  6  0  0  0
 23 24  1  0  0  0  0
 23 25  1  0  0  0  0
 24 32  1  6  0  0  0
 24 25  1  0  0  0  0
 24 22  1  0  0  0  0
 25 22  1  0  0  0  0
 27 31  1  0  0  0  0
 28 29  1  0  0  0  0
 28 30  1  0  0  0  0
 29 27  1  0  0  0  0
 30 26  2  0  0  0  0
 31 26  1  0  0  0  0
 33 34  1  0  0  0  0
 34 32  1  0  0  0  0
 36 35  1  0  0  0  0
 37 40  1  0  0  0  0
 38 41  1  0  0  0  0
 38 37  2  0  0  0  0
 39 36  1  0  0  0  0
 39 40  1  0  0  0  0
 41 39  1  0  0  0  0
 42 38  1  0  0  0  0
 43 42  1  0  0  0  0
M  END
>  <MODEL>
7

>  <REMARK>
 VINA RESULT:      -5.8      5.176     10.375
  Name = 
  15 active torsions:
  status: ('A' for Active; 'I' for Inactive)
    1  A    between atoms: C_1  and  C_34
    2  A    between atoms: C_1  and  C_35
    3  A    between atoms: C_2  and  C_7
    4  A    between atoms: C_2  and  O_12
    5  A    between atoms: O_3  and  C_4
    6  A    between atoms: O_3  and  C_17
    7  A    between atoms: C_6  and  O_12
    8  A    between atoms: C_7  and  C_17
    9  A    between atoms: C_8  and  C_34
   10  A    between atoms: C_10  and  C_22
   11  A    between atoms: C_10  and  O_42
   12  A    between atoms: C_11  and  C_14
   13  A    between atoms: C_13  and  C_34
   14  A    between atoms: C_19  and  O_25
   15  A    between atoms: N_28  and  C_35
                            x       y       z     vdW  Elec       q    Type
                         _______ _______ _______ _____ _____    ______ ____

>  <TORSDO>
F 15

$$$$
=
 OpenBabel11062410173D

 43 49  0  0  1  0  0  0  0  0999 V2000
  161.3780  207.8730  150.2430 C   0  0  1  0  0  3  0  0  0  0  0  0
  161.1820  201.5620  148.3540 C   0  0  0  0  0  0  0  0  0  0  0  0
  161.3520  206.5190  149.5710 C   0  0  0  0  0  0  0  0  0  0  0  0
  161.2280  204.0290  148.2740 C   0  0  0  0  0  0  0  0  0  0  0  0
  161.0880  201.6260  149.7760 N   0  0  0  0  0  2  0  0  0  0  0  0
  161.2730  200.4490  147.7730 O   0  0  0  0  0  0  0  0  0  0  0  0
  161.0520  204.0980  149.6730 C   0  0  0  0  0  0  0  0  0  0  0  0
  161.2190  202.7700  147.6010 N   0  0  0  0  0  2  0  0  0  0  0  0
  160.6840  202.8550  150.4530 C   0  0  0  0  0  2  0  0  0  0  0  0
  160.9230  205.4370  151.8050 C   0  0  0  0  0  1  0  0  0  0  0  0
  161.1090  205.3500  150.3200 C   0  0  0  0  0  0  0  0  0  0  0  0
  161.5170  206.4240  148.1810 C   0  0  0  0  0  3  0  0  0  0  0  0
  161.4590  205.1900  147.5400 C   0  0  0  0  0  3  0  0  0  0  0  0
  160.6310  208.9460  152.3420 C   0  0  2  0  0  3  0  0  0  0  0  0
  161.4230  207.7880  151.7650 C   0  0  2  0  0  3  0  0  0  0  0  0
  162.1450  208.9900  152.3410 C   0  0  0  0  0  2  0  0  0  0  0  0
  160.1700  208.5930  153.6110 O   0  0  0  0  0  0  0  0  0  0  0  0
  161.2770  208.7490  154.4460 C   0  0  0  0  0  2  0  0  0  0  0  0
  161.0490  207.9970  155.7450 C   0  0  0  0  0  2  0  0  0  0  0  0
  160.9130  208.9750  156.8970 C   0  0  0  0  0  2  0  0  0  0  0  0
  160.7290  210.2670  156.3990 O   0  0  0  0  0  0  0  0  0  0  0  0
  159.4400  210.6290  156.7940 C   0  0  2  0  0  3  0  0  0  0  0  0
  158.9830  212.0050  154.7490 C   0  0  2  0  0  3  0  0  0  0  0  0
  158.5580  210.7790  155.5720 C   0  0  2  0  0  0  0  0  0  0  0  0
  159.1050  212.0110  156.2640 C   0  0  1  0  0  3  0  0  0  0  0  0
  157.8610  212.8950  154.2800 C   0  0  0  0  0  0  0  0  0  0  0  0
  155.8700  214.4000  154.7380 C   0  0  0  0  0  2  0  0  0  0  0  0
  156.5730  213.9430  152.4050 C   0  0  0  0  0  2  0  0  0  0  0  0
  155.3800  214.0020  153.3530 C   0  0  0  0  0  2  0  0  0  0  0  0
  157.6860  213.0920  152.9600 C   0  0  0  0  0  3  0  0  0  0  0  0
  156.8080  213.3220  155.2790 C   0  0  0  0  0  2  0  0  0  0  0  0
  157.0850  210.6700  155.9520 C   0  0  0  0  0  2  0  0  0  0  0  0
  155.0700  209.9590  155.3920 C   0  0  0  0  0  1  0  0  0  0  0  0
  156.3730  210.0820  154.9060 O   0  0  0  0  0  0  0  0  0  0  0  0
  162.4510  208.8080  149.6760 C   0  0  0  0  0  2  0  0  0  0  0  0
  161.9070  209.8280  148.6820 C   0  0  0  0  0  2  0  0  0  0  0  0
  161.9000  212.9800  147.5860 N   0  0  0  0  0  0  0  0  0  0  0  0
  161.1630  213.0530  148.6320 C   0  0  0  0  0  0  0  0  0  0  0  0
  162.4510  211.1490  148.9650 N   0  0  0  0  0  0  0  0  0  0  0  0
  162.7310  211.7950  147.6750 C   0  0  0  0  0  2  0  0  0  0  0  0
  161.3780  211.9380  149.5680 C   0  0  0  0  0  2  0  0  0  0  0  0
  160.2460  214.0790  148.8550 O   0  0  0  0  0  0  0  0  0  0  0  0
  159.0210  213.8580  149.5380 C   0  0  0  0  0  1  0  0  0  0  0  0
  1 35  1  6  0  0  0
  2  5  1  0  0  0  0
  3  1  1  0  0  0  0
  3 11  1  0  0  0  0
  4  7  1  0  0  0  0
  5  9  1  0  0  0  0
  6  2  2  0  0  0  0
  7 11  2  0  0  0  0
  7  9  1  0  0  0  0
  8  4  1  0  0  0  0
  8  2  1  0  0  0  0
 11 10  1  0  0  0  0
 12  3  2  0  0  0  0
 13 12  1  0  0  0  0
 13  4  2  0  0  0  0
 14 17  1  1  0  0  0
 15  1  1  6  0  0  0
 15 16  1  0  0  0  0
 15 14  1  0  0  0  0
 16 14  1  0  0  0  0
 17 18  1  0  0  0  0
 18 19  1  0  0  0  0
 19 20  1  0  0  0  0
 21 20  1  0  0  0  0
 22 21  1  6  0  0  0
 23 26  1  1  0  0  0
 23 24  1  0  0  0  0
 23 25  1  0  0  0  0
 24 32  1  1  0  0  0
 24 25  1  0  0  0  0
 24 22  1  0  0  0  0
 25 22  1  0  0  0  0
 26 31  1  0  0  0  0
 27 31  1  0  0  0  0
 28 30  1  0  0  0  0
 28 29  1  0  0  0  0
 29 27  1  0  0  0  0
 30 26  2  0  0  0  0
 34 33  1  0  0  0  0
 34 32  1  0  0  0  0
 36 39  1  0  0  0  0
 36 35  1  0  0  0  0
 37 40  1  0  0  0  0
 37 38  2  0  0  0  0
 38 42  1  0  0  0  0
 38 41  1  0  0  0  0
 39 41  1  0  0  0  0
 40 39  1  0  0  0  0
 42 43  1  0  0  0  0
M  END
>  <MODEL>
8

>  <REMARK>
 VINA RESULT:      -5.4      1.787      2.770
  Name = 
  15 active torsions:
  status: ('A' for Active; 'I' for Inactive)
    1  A    between atoms: C_1  and  C_34
    2  A    between atoms: C_1  and  C_35
    3  A    between atoms: C_2  and  C_7
    4  A    between atoms: C_2  and  O_12
    5  A    between atoms: O_3  and  C_4
    6  A    between atoms: O_3  and  C_17
    7  A    between atoms: C_6  and  O_12
    8  A    between atoms: C_7  and  C_17
    9  A    between atoms: C_8  and  C_34
   10  A    between atoms: C_10  and  C_22
   11  A    between atoms: C_10  and  O_42
   12  A    between atoms: C_11  and  C_14
   13  A    between atoms: C_13  and  C_34
   14  A    between atoms: C_19  and  O_25
   15  A    between atoms: N_28  and  C_35
                            x       y       z     vdW  Elec       q    Type
                         _______ _______ _______ _____ _____    ______ ____

>  <TORSDO>
F 15

$$$$
=
 OpenBabel11062410173D

 43 49  0  0  1  0  0  0  0  0999 V2000
  161.5790  204.3770  150.6600 C   0  0  1  0  0  3  0  0  0  0  0  0
  161.2090  205.6230  144.1990 C   0  0  0  0  0  0  0  0  0  0  0  0
  161.7010  204.5110  149.1600 C   0  0  0  0  0  0  0  0  0  0  0  0
  162.0140  204.7950  146.3820 C   0  0  0  0  0  0  0  0  0  0  0  0
  160.1590  206.3180  144.8690 N   0  0  0  0  0  2  0  0  0  0  0  0
  161.2720  205.6250  142.9430 O   0  0  0  0  0  0  0  0  0  0  0  0
  161.0270  205.5490  147.0540 C   0  0  0  0  0  0  0  0  0  0  0  0
  162.1580  204.8860  144.9640 N   0  0  0  0  0  2  0  0  0  0  0  0
  160.2220  206.5850  146.3030 C   0  0  0  0  0  2  0  0  0  0  0  0
  159.8330  206.2020  149.1760 C   0  0  0  0  0  1  0  0  0  0  0  0
  160.8760  205.4070  148.4490 C   0  0  0  0  0  0  0  0  0  0  0  0
  162.6790  203.7800  148.4690 C   0  0  0  0  0  3  0  0  0  0  0  0
  162.8310  203.9190  147.0920 C   0  0  0  0  0  3  0  0  0  0  0  0
  162.2720  206.3870  151.9240 C   0  0  2  0  0  3  0  0  0  0  0  0
  161.0820  205.6490  151.3400 C   0  0  2  0  0  3  0  0  0  0  0  0
  161.3530  205.5940  152.8290 C   0  0  0  0  0  2  0  0  0  0  0  0
  161.9640  207.7450  152.0120 O   0  0  0  0  0  0  0  0  0  0  0  0
  162.3330  208.2740  150.7740 C   0  0  0  0  0  2  0  0  0  0  0  0
  162.0730  209.7690  150.7570 C   0  0  0  0  0  2  0  0  0  0  0  0
  162.1480  210.3290  152.1650 C   0  0  0  0  0  2  0  0  0  0  0  0
  160.9410  210.9540  152.4880 O   0  0  0  0  0  0  0  0  0  0  0  0
  160.9620  211.0900  153.8770 C   0  0  2  0  0  3  0  0  0  0  0  0
  158.5010  211.5300  154.0720 C   0  0  2  0  0  3  0  0  0  0  0  0
  159.6540  210.5890  154.4560 C   0  0  2  0  0  0  0  0  0  0  0  0
  159.8980  212.0790  154.3170 C   0  0  1  0  0  3  0  0  0  0  0  0
  157.5590  211.8950  155.1900 C   0  0  0  0  0  0  0  0  0  0  0  0
  155.5620  211.3970  156.6740 C   0  0  0  0  0  2  0  0  0  0  0  0
  156.8120  213.5210  156.9420 C   0  0  0  0  0  2  0  0  0  0  0  0
  155.4220  212.9050  156.8190 C   0  0  0  0  0  2  0  0  0  0  0  0
  157.7250  213.0660  155.8340 C   0  0  0  0  0  3  0  0  0  0  0  0
  156.3030  211.0730  155.3770 C   0  0  0  0  0  2  0  0  0  0  0  0
  159.8130  210.2460  155.9330 C   0  0  0  0  0  2  0  0  0  0  0  0
  160.4550  208.4630  157.0680 C   0  0  0  0  0  1  0  0  0  0  0  0
  159.5100  208.9000  156.1370 O   0  0  0  0  0  0  0  0  0  0  0  0
  160.7910  203.1360  151.0930 C   0  0  0  0  0  2  0  0  0  0  0  0
  161.5380  201.8270  150.8560 C   0  0  0  0  0  2  0  0  0  0  0  0
  159.6650  201.7010  148.0980 N   0  0  0  0  0  0  0  0  0  0  0  0
  160.7270  201.0840  147.7350 C   0  0  0  0  0  0  0  0  0  0  0  0
  160.7300  200.9230  150.0520 N   0  0  0  0  0  0  0  0  0  0  0  0
  159.5820  201.6900  149.5460 C   0  0  0  0  0  2  0  0  0  0  0  0
  161.5150  200.5760  148.8690 C   0  0  0  0  0  2  0  0  0  0  0  0
  161.1020  200.9180  146.4020 O   0  0  0  0  0  0  0  0  0  0  0  0
  160.4510  201.6100  145.3460 C   0  0  0  0  0  1  0  0  0  0  0  0
  1 35  1  6  0  0  0
  2  5  1  0  0  0  0
  2  8  1  0  0  0  0
  3  1  1  0  0  0  0
  4  7  2  0  0  0  0
  4 13  1  0  0  0  0
  5  9  1  0  0  0  0
  6  2  2  0  0  0  0
  7 11  1  0  0  0  0
  8  4  1  0  0  0  0
  9  7  1  0  0  0  0
 11  3  2  0  0  0  0
 11 10  1  0  0  0  0
 12  3  1  0  0  0  0
 13 12  2  0  0  0  0
 14 17  1  1  0  0  0
 14 16  1  0  0  0  0
 15  1  1  6  0  0  0
 15 14  1  0  0  0  0
 15 16  1  0  0  0  0
 18 17  1  0  0  0  0
 19 18  1  0  0  0  0
 19 20  1  0  0  0  0
 20 21  1  0  0  0  0
 22 21  1  6  0  0  0
 22 25  1  0  0  0  0
 22 24  1  0  0  0  0
 23 25  1  0  0  0  0
 23 24  1  0  0  0  0
 23 26  1  1  0  0  0
 24 32  1  1  0  0  0
 25 24  1  0  0  0  0
 26 31  1  0  0  0  0
 26 30  2  0  0  0  0
 27 29  1  0  0  0  0
 29 28  1  0  0  0  0
 30 28  1  0  0  0  0
 31 27  1  0  0  0  0
 32 34  1  0  0  0  0
 34 33  1  0  0  0  0
 36 35  1  0  0  0  0
 37 40  1  0  0  0  0
 38 37  2  0  0  0  0
 38 41  1  0  0  0  0
 39 36  1  0  0  0  0
 40 39  1  0  0  0  0
 41 39  1  0  0  0  0
 42 38  1  0  0  0  0
 43 42  1  0  0  0  0
M  END
>  <MODEL>
9

>  <REMARK>
 VINA RESULT:      -5.3      2.401      5.212
  Name = 
  15 active torsions:
  status: ('A' for Active; 'I' for Inactive)
    1  A    between atoms: C_1  and  C_34
    2  A    between atoms: C_1  and  C_35
    3  A    between atoms: C_2  and  C_7
    4  A    between atoms: C_2  and  O_12
    5  A    between atoms: O_3  and  C_4
    6  A    between atoms: O_3  and  C_17
    7  A    between atoms: C_6  and  O_12
    8  A    between atoms: C_7  and  C_17
    9  A    between atoms: C_8  and  C_34
   10  A    between atoms: C_10  and  C_22
   11  A    between atoms: C_10  and  O_42
   12  A    between atoms: C_11  and  C_14
   13  A    between atoms: C_13  and  C_34
   14  A    between atoms: C_19  and  O_25
   15  A    between atoms: N_28  and  C_35
                            x       y       z     vdW  Elec       q    Type
                         _______ _______ _______ _____ _____    ______ ____

>  <TORSDO>
F 15

$$$$
