=
 OpenBabel11052422273D

 31 33  0  0  1  0  0  0  0  0999 V2000
  159.7630  210.2620  154.5830 N   0  0  0  0  0  0  0  0  0  0  0  0
  158.6570  211.1210  154.9490 C   0  0  0  0  0  0  0  0  0  0  0  0
  156.9020  211.8870  156.4620 C   0  0  0  0  0  3  0  0  0  0  0  0
  158.0620  211.0430  156.1410 C   0  0  0  0  0  3  0  0  0  0  0  0
  158.6600  212.0630  152.7220 C   0  0  0  0  0  3  0  0  0  0  0  0
  156.4520  212.7700  155.6190 N   0  0  0  0  0  0  0  0  0  0  0  0
  160.2560  210.3340  153.2280 C   0  0  0  0  0  0  0  0  0  0  0  0
  157.5830  214.4020  154.3040 N   0  0  0  0  0  1  0  0  0  0  0  0
  159.7220  211.1630  152.3750 N   0  0  0  0  0  0  0  0  0  0  0  0
  158.1360  212.0700  153.9480 C   0  0  0  0  0  0  0  0  0  0  0  0
  157.0500  213.0500  154.3080 C   0  0  1  0  0  3  0  0  0  0  0  0
  161.3480  209.4130  152.7690 C   0  0  2  0  0  3  0  0  0  0  0  0
  162.5380  210.1170  152.5780 O   0  0  0  0  0  1  0  0  0  0  0  0
  160.9400  208.7130  151.4840 C   0  0  0  0  0  2  0  0  0  0  0  0
  162.8080  207.7570  150.6680 O   0  0  0  0  0  1  0  0  0  0  0  0
  161.6710  207.4640  151.3440 N   0  0  0  0  0  0  0  0  0  0  0  0
  160.9040  206.6360  150.5100 N   0  0  0  0  0  2  0  0  0  0  0  0
  160.8990  203.0010  149.6300 C   0  0  0  0  0  0  0  0  0  0  0  0
  161.0520  203.2400  152.0340 C   0  0  0  0  0  3  0  0  0  0  0  0
  160.8350  202.1340  148.4240 C   0  0  0  0  0  1  0  0  0  0  0  0
  160.8680  204.3910  149.4930 C   0  0  0  0  0  3  0  0  0  0  0  0
  161.0210  204.6310  151.8970 C   0  0  0  0  0  3  0  0  0  0  0  0
  160.9280  205.2120  150.6280 C   0  0  0  0  0  0  0  0  0  0  0  0
  160.9910  202.4250  150.9000 C   0  0  0  0  0  3  0  0  0  0  0  0
  160.4190  209.3420  155.5220 C   0  0  1  0  0  3  0  0  0  0  0  0
  159.3560  207.1600  156.1560 C   0  0  0  0  0  1  0  0  0  0  0  0
  161.5120  207.1080  154.9220 C   0  0  0  0  0  1  0  0  0  0  0  0
  160.2140  207.8720  155.1290 C   0  0  0  0  0  3  0  0  0  0  0  0
  161.8500  209.7660  155.8540 C   0  0  0  0  0  2  0  0  0  0  0  0
  163.6560  211.0200  157.2610 C   0  0  0  0  0  1  0  0  0  0  0  0
  161.8520  211.0900  157.0970 S   0  0  0  0  0  0  0  0  0  0  0  0
  1  2  1  0  0  0  0
  1 25  1  0  0  0  0
  2  4  2  0  0  0  0
  4  3  1  0  0  0  0
  5 10  2  0  0  0  0
  6  3  2  0  0  0  0
  7  1  1  0  0  0  0
  9  5  1  0  0  0  0
  9  7  2  0  0  0  0
 10 11  1  0  0  0  0
 10  2  1  0  0  0  0
 11  8  1  1  0  0  0
 11  6  1  0  0  0  0
 12 13  1  6  0  0  0
 12  7  1  0  0  0  0
 14 12  1  0  0  0  0
 15 16  1  0  0  0  0
 16 14  1  0  0  0  0
 17 23  1  0  0  0  0
 17 16  1  0  0  0  0
 18 24  1  0  0  0  0
 20 18  1  0  0  0  0
 21 18  2  0  0  0  0
 21 23  1  0  0  0  0
 22 19  1  0  0  0  0
 23 22  2  0  0  0  0
 24 19  2  0  0  0  0
 25 29  1  6  0  0  0
 27 28  1  0  0  0  0
 28 25  1  0  0  0  0
 28 26  1  0  0  0  0
 29 31  1  0  0  0  0
 31 30  1  0  0  0  0
M  END
>  <MODEL>
1

>  <REMARK>
 VINA RESULT:      -7.1      0.000      0.000
  Name = 
  9 active torsions:
  status: ('A' for Active; 'I' for Inactive)
    1  A    between atoms: N_3  and  N_9
    2  A    between atoms: N_3  and  C_22
    3  A    between atoms: N_4  and  C_12
    4  A    between atoms: N_9  and  C_23
    5  A    between atoms: C_12  and  C_25
    6  A    between atoms: C_12  and  C_27
    7  A    between atoms: C_15  and  C_21
    8  A    between atoms: C_15  and  C_23
    9  A    between atoms: C_27  and  S_28
                            x       y       z     vdW  Elec       q    Type
                         _______ _______ _______ _____ _____    ______ ____

>  <TORSDO>
F 9

$$$$
=
 OpenBabel11052422273D

 31 33  0  0  1  0  0  0  0  0999 V2000
  159.9000  210.5140  154.5270 N   0  0  0  0  0  0  0  0  0  0  0  0
  158.7120  211.3000  154.7840 C   0  0  0  0  0  0  0  0  0  0  0  0
  156.8970  212.1050  156.2040 C   0  0  0  0  0  3  0  0  0  0  0  0
  158.1380  211.3460  155.9880 C   0  0  0  0  0  3  0  0  0  0  0  0
  158.5950  211.8770  152.4380 C   0  0  0  0  0  3  0  0  0  0  0  0
  156.3480  212.7930  155.2450 N   0  0  0  0  0  0  0  0  0  0  0  0
  160.3720  210.4250  153.1650 C   0  0  0  0  0  0  0  0  0  0  0  0
  157.2860  214.3080  153.6660 N   0  0  0  0  0  1  0  0  0  0  0  0
  159.7440  211.0500  152.2090 N   0  0  0  0  0  0  0  0  0  0  0  0
  158.0840  212.0200  153.6620 C   0  0  0  0  0  0  0  0  0  0  0  0
  156.9010  212.9250  153.8920 C   0  0  1  0  0  3  0  0  0  0  0  0
  161.5530  209.5630  152.8280 C   0  0  2  0  0  3  0  0  0  0  0  0
  162.7410  210.2850  152.9540 O   0  0  0  0  0  1  0  0  0  0  0  0
  161.4170  209.0160  151.4160 C   0  0  0  0  0  2  0  0  0  0  0  0
  162.7510  207.2070  151.2780 O   0  0  0  0  0  1  0  0  0  0  0  0
  161.4540  207.5630  151.4410 N   0  0  0  0  0  0  0  0  0  0  0  0
  160.7640  207.1200  150.3020 N   0  0  0  0  0  2  0  0  0  0  0  0
  161.3520  204.1950  148.0470 C   0  0  0  0  0  0  0  0  0  0  0  0
  160.7370  203.3960  150.2480 C   0  0  0  0  0  3  0  0  0  0  0  0
  161.7400  203.9190  146.6390 C   0  0  0  0  0  1  0  0  0  0  0  0
  161.2410  205.5140  148.4940 C   0  0  0  0  0  3  0  0  0  0  0  0
  160.6260  204.7160  150.6950 C   0  0  0  0  0  3  0  0  0  0  0  0
  160.8760  205.7790  149.8220 C   0  0  0  0  0  0  0  0  0  0  0  0
  161.1000  203.1350  148.9230 C   0  0  0  0  0  3  0  0  0  0  0  0
  160.6590  209.8260  155.5810 C   0  0  1  0  0  3  0  0  0  0  0  0
  162.8260  209.9160  156.8420 C   0  0  0  0  0  1  0  0  0  0  0  0
  161.1460  211.7000  157.2530 C   0  0  0  0  0  1  0  0  0  0  0  0
  161.7140  210.7390  156.2220 C   0  0  0  0  0  3  0  0  0  0  0  0
  159.7580  209.0480  156.5390 C   0  0  0  0  0  2  0  0  0  0  0  0
  160.4720  207.0610  155.0050 C   0  0  0  0  0  1  0  0  0  0  0  0
  160.3930  207.3660  156.7900 S   0  0  0  0  0  0  0  0  0  0  0  0
  1  2  1  0  0  0  0
  1 25  1  0  0  0  0
  2  4  2  0  0  0  0
  4  3  1  0  0  0  0
  5 10  2  0  0  0  0
  6  3  2  0  0  0  0
  7  1  1  0  0  0  0
  9  5  1  0  0  0  0
  9  7  2  0  0  0  0
 10 11  1  0  0  0  0
 10  2  1  0  0  0  0
 11  8  1  1  0  0  0
 11  6  1  0  0  0  0
 12 13  1  6  0  0  0
 12  7  1  0  0  0  0
 14 16  1  0  0  0  0
 14 12  1  0  0  0  0
 15 16  1  0  0  0  0
 17 16  1  0  0  0  0
 18 21  2  0  0  0  0
 18 24  1  0  0  0  0
 19 22  1  0  0  0  0
 20 18  1  0  0  0  0
 21 23  1  0  0  0  0
 23 17  1  0  0  0  0
 23 22  2  0  0  0  0
 24 19  2  0  0  0  0
 25 28  1  0  0  0  0
 25 29  1  1  0  0  0
 28 26  1  0  0  0  0
 28 27  1  0  0  0  0
 29 31  1  0  0  0  0
 30 31  1  0  0  0  0
M  END
>  <MODEL>
2

>  <REMARK>
 VINA RESULT:      -6.8      1.211      2.112
  Name = 
  9 active torsions:
  status: ('A' for Active; 'I' for Inactive)
    1  A    between atoms: N_3  and  N_9
    2  A    between atoms: N_3  and  C_22
    3  A    between atoms: N_4  and  C_12
    4  A    between atoms: N_9  and  C_23
    5  A    between atoms: C_12  and  C_25
    6  A    between atoms: C_12  and  C_27
    7  A    between atoms: C_15  and  C_21
    8  A    between atoms: C_15  and  C_23
    9  A    between atoms: C_27  and  S_28
                            x       y       z     vdW  Elec       q    Type
                         _______ _______ _______ _____ _____    ______ ____

>  <TORSDO>
F 9

$$$$
=
 OpenBabel11052422273D

 31 33  0  0  1  0  0  0  0  0999 V2000
  160.5490  210.1590  153.7510 N   0  0  0  0  0  0  0  0  0  0  0  0
  159.4280  210.8660  154.3330 C   0  0  0  0  0  0  0  0  0  0  0  0
  157.7620  211.2520  156.0750 C   0  0  0  0  0  3  0  0  0  0  0  0
  158.9390  210.5560  155.5350 C   0  0  0  0  0  3  0  0  0  0  0  0
  159.1900  212.1500  152.2970 C   0  0  0  0  0  3  0  0  0  0  0  0
  157.1920  212.2230  155.4230 N   0  0  0  0  0  0  0  0  0  0  0  0
  160.9220  210.4820  152.3940 C   0  0  0  0  0  0  0  0  0  0  0  0
  158.1090  214.1210  154.3160 N   0  0  0  0  0  1  0  0  0  0  0  0
  160.2700  211.3950  151.7310 N   0  0  0  0  0  0  0  0  0  0  0  0
  158.7700  211.9220  153.5420 C   0  0  0  0  0  0  0  0  0  0  0  0
  157.6600  212.7500  154.1360 C   0  0  1  0  0  3  0  0  0  0  0  0
  162.0260  209.7270  151.7120 C   0  0  2  0  0  3  0  0  0  0  0  0
  163.2570  210.3470  151.9360 O   0  0  0  0  0  1  0  0  0  0  0  0
  161.7510  209.6280  150.2210 C   0  0  0  0  0  2  0  0  0  0  0  0
  162.6440  208.5600  148.4520 O   0  0  0  0  0  1  0  0  0  0  0  0
  162.2070  208.3440  149.7160 N   0  0  0  0  0  0  0  0  0  0  0  0
  161.0750  207.5200  149.6200 N   0  0  0  0  0  2  0  0  0  0  0  0
  161.0050  203.7810  149.5500 C   0  0  0  0  0  0  0  0  0  0  0  0
  161.5480  204.6110  147.3410 C   0  0  0  0  0  3  0  0  0  0  0  0
  160.7580  202.6420  150.4720 C   0  0  0  0  0  1  0  0  0  0  0  0
  160.9250  205.0930  150.0240 C   0  0  0  0  0  3  0  0  0  0  0  0
  161.4680  205.9240  147.8160 C   0  0  0  0  0  3  0  0  0  0  0  0
  161.1580  206.1710  149.1570 C   0  0  0  0  0  0  0  0  0  0  0  0
  161.3160  203.5400  148.2090 C   0  0  0  0  0  3  0  0  0  0  0  0
  161.3350  209.1510  154.4760 C   0  0  1  0  0  3  0  0  0  0  0  0
  162.8020  210.5710  155.9330 C   0  0  0  0  0  1  0  0  0  0  0  0
  161.9420  208.4300  156.8540 C   0  0  0  0  0  1  0  0  0  0  0  0
  161.6490  209.5880  155.9140 C   0  0  0  0  0  3  0  0  0  0  0  0
  160.7810  207.7370  154.2980 C   0  0  0  0  0  2  0  0  0  0  0  0
  160.9070  205.2390  153.5520 C   0  0  0  0  0  1  0  0  0  0  0  0
  161.9240  206.7210  153.3190 S   0  0  0  0  0  0  0  0  0  0  0  0
  1  2  1  0  0  0  0
  1 25  1  0  0  0  0
  2  4  2  0  0  0  0
  4  3  1  0  0  0  0
  5 10  2  0  0  0  0
  6  3  2  0  0  0  0
  7  1  1  0  0  0  0
  9  5  1  0  0  0  0
  9  7  2  0  0  0  0
 10 11  1  0  0  0  0
 10  2  1  0  0  0  0
 11  8  1  1  0  0  0
 11  6  1  0  0  0  0
 12 13  1  6  0  0  0
 12  7  1  0  0  0  0
 14 12  1  0  0  0  0
 15 16  1  0  0  0  0
 16 14  1  0  0  0  0
 17 16  1  0  0  0  0
 18 21  1  0  0  0  0
 18 20  1  0  0  0  0
 19 22  2  0  0  0  0
 19 24  1  0  0  0  0
 22 23  1  0  0  0  0
 23 17  1  0  0  0  0
 23 21  2  0  0  0  0
 24 18  2  0  0  0  0
 25 29  1  1  0  0  0
 25 28  1  0  0  0  0
 28 26  1  0  0  0  0
 28 27  1  0  0  0  0
 31 30  1  0  0  0  0
 31 29  1  0  0  0  0
M  END
>  <MODEL>
3

>  <REMARK>
 VINA RESULT:      -6.6      1.662      2.659
  Name = 
  9 active torsions:
  status: ('A' for Active; 'I' for Inactive)
    1  A    between atoms: N_3  and  N_9
    2  A    between atoms: N_3  and  C_22
    3  A    between atoms: N_4  and  C_12
    4  A    between atoms: N_9  and  C_23
    5  A    between atoms: C_12  and  C_25
    6  A    between atoms: C_12  and  C_27
    7  A    between atoms: C_15  and  C_21
    8  A    between atoms: C_15  and  C_23
    9  A    between atoms: C_27  and  S_28
                            x       y       z     vdW  Elec       q    Type
                         _______ _______ _______ _____ _____    ______ ____

>  <TORSDO>
F 9

$$$$
=
 OpenBabel11052422273D

 31 33  0  0  1  0  0  0  0  0999 V2000
  159.7310  211.8120  152.9390 N   0  0  0  0  0  0  0  0  0  0  0  0
  159.4360  212.7120  151.8450 C   0  0  0  0  0  0  0  0  0  0  0  0
  158.1210  214.4530  150.7500 C   0  0  0  0  0  3  0  0  0  0  0  0
  158.4350  213.5940  151.9010 C   0  0  0  0  0  3  0  0  0  0  0  0
  161.1500  211.6450  150.5130 C   0  0  0  0  0  3  0  0  0  0  0  0
  158.8350  214.4180  149.6630 N   0  0  0  0  0  0  0  0  0  0  0  0
  160.7480  210.8080  152.7340 C   0  0  0  0  0  0  0  0  0  0  0  0
  161.1940  214.4280  149.3350 N   0  0  0  0  0  1  0  0  0  0  0  0
  161.3830  210.7360  151.5980 N   0  0  0  0  0  0  0  0  0  0  0  0
  160.2280  212.6050  150.6070 C   0  0  0  0  0  0  0  0  0  0  0  0
  160.0230  213.5770  149.4740 C   0  0  1  0  0  3  0  0  0  0  0  0
  161.0430  209.7990  153.8050 C   0  0  2  0  0  3  0  0  0  0  0  0
  161.9040  210.3370  154.7640 O   0  0  0  0  0  1  0  0  0  0  0  0
  161.6540  208.5480  153.1940 C   0  0  0  0  0  2  0  0  0  0  0  0
  160.4530  207.3690  154.6900 O   0  0  0  0  0  1  0  0  0  0  0  0
  160.7540  207.4200  153.3700 N   0  0  0  0  0  0  0  0  0  0  0  0
  161.4920  206.2630  153.0760 N   0  0  0  0  0  2  0  0  0  0  0  0
  160.8870  205.3130  149.5100 C   0  0  0  0  0  0  0  0  0  0  0  0
  160.8970  203.3150  150.8770 C   0  0  0  0  0  3  0  0  0  0  0  0
  160.7580  205.9610  148.1790 C   0  0  0  0  0  1  0  0  0  0  0  0
  161.1220  206.0930  150.6460 C   0  0  0  0  0  3  0  0  0  0  0  0
  161.1330  204.0950  152.0140 C   0  0  0  0  0  3  0  0  0  0  0  0
  161.2450  205.4850  151.9040 C   0  0  0  0  0  0  0  0  0  0  0  0
  160.7750  203.9250  149.6250 C   0  0  0  0  0  3  0  0  0  0  0  0
  159.0680  211.8840  154.2480 C   0  0  1  0  0  3  0  0  0  0  0  0
  159.9940  212.3320  156.5360 C   0  0  0  0  0  1  0  0  0  0  0  0
  158.9080  214.2030  155.3150 C   0  0  0  0  0  1  0  0  0  0  0  0
  159.7180  212.9250  155.1690 C   0  0  0  0  0  3  0  0  0  0  0  0
  157.5440  211.9340  154.1310 C   0  0  0  0  0  2  0  0  0  0  0  0
  155.7430  212.4200  155.9570 C   0  0  0  0  0  1  0  0  0  0  0  0
  156.7680  211.0020  155.4820 S   0  0  0  0  0  0  0  0  0  0  0  0
  1 25  1  0  0  0  0
  2  4  2  0  0  0  0
  2  1  1  0  0  0  0
  3  4  1  0  0  0  0
  5 10  2  0  0  0  0
  5  9  1  0  0  0  0
  6  3  2  0  0  0  0
  7  1  1  0  0  0  0
  7 12  1  0  0  0  0
  9  7  2  0  0  0  0
 10  2  1  0  0  0  0
 11  8  1  1  0  0  0
 11  6  1  0  0  0  0
 11 10  1  0  0  0  0
 12 13  1  1  0  0  0
 14 16  1  0  0  0  0
 14 12  1  0  0  0  0
 16 15  1  0  0  0  0
 17 16  1  0  0  0  0
 18 24  2  0  0  0  0
 18 21  1  0  0  0  0
 19 22  2  0  0  0  0
 20 18  1  0  0  0  0
 21 23  2  0  0  0  0
 23 22  1  0  0  0  0
 23 17  1  0  0  0  0
 24 19  1  0  0  0  0
 25 29  1  6  0  0  0
 25 28  1  0  0  0  0
 28 27  1  0  0  0  0
 28 26  1  0  0  0  0
 29 31  1  0  0  0  0
 31 30  1  0  0  0  0
M  END
>  <MODEL>
4

>  <REMARK>
 VINA RESULT:      -5.9      2.418      4.195
  Name = 
  9 active torsions:
  status: ('A' for Active; 'I' for Inactive)
    1  A    between atoms: N_3  and  N_9
    2  A    between atoms: N_3  and  C_22
    3  A    between atoms: N_4  and  C_12
    4  A    between atoms: N_9  and  C_23
    5  A    between atoms: C_12  and  C_25
    6  A    between atoms: C_12  and  C_27
    7  A    between atoms: C_15  and  C_21
    8  A    between atoms: C_15  and  C_23
    9  A    between atoms: C_27  and  S_28
                            x       y       z     vdW  Elec       q    Type
                         _______ _______ _______ _____ _____    ______ ____

>  <TORSDO>
F 9

$$$$
=
 OpenBabel11052422273D

 31 33  0  0  1  0  0  0  0  0999 V2000
  158.6230  212.0410  154.5870 N   0  0  0  0  0  0  0  0  0  0  0  0
  158.4040  212.7750  153.3590 C   0  0  0  0  0  0  0  0  0  0  0  0
  157.1490  214.3040  151.9290 C   0  0  0  0  0  3  0  0  0  0  0  0
  157.3800  213.6180  153.2090 C   0  0  0  0  0  3  0  0  0  0  0  0
  160.2590  211.6070  152.3380 C   0  0  0  0  0  3  0  0  0  0  0  0
  157.9590  214.1520  150.9230 N   0  0  0  0  0  0  0  0  0  0  0  0
  159.6800  211.0580  154.6090 C   0  0  0  0  0  0  0  0  0  0  0  0
  160.3370  214.2070  150.8000 N   0  0  0  0  0  1  0  0  0  0  0  0
  160.4170  210.8590  153.5520 N   0  0  0  0  0  0  0  0  0  0  0  0
  159.3080  212.5340  152.2200 C   0  0  0  0  0  0  0  0  0  0  0  0
  159.1810  213.3390  150.9530 C   0  0  1  0  0  3  0  0  0  0  0  0
  159.9030  210.2120  155.8280 C   0  0  2  0  0  3  0  0  0  0  0  0
  160.3450  210.9950  156.8960 O   0  0  0  0  0  1  0  0  0  0  0  0
  160.9110  209.1150  155.5290 C   0  0  0  0  0  2  0  0  0  0  0  0
  159.7080  207.3760  156.3000 O   0  0  0  0  0  1  0  0  0  0  0  0
  160.2190  207.8920  155.1570 N   0  0  0  0  0  0  0  0  0  0  0  0
  161.1970  206.9920  154.7060 N   0  0  0  0  0  2  0  0  0  0  0  0
  161.2070  204.6390  151.7990 C   0  0  0  0  0  0  0  0  0  0  0  0
  161.2030  206.9180  150.9820 C   0  0  0  0  0  3  0  0  0  0  0  0
  161.2090  203.1770  151.5340 C   0  0  0  0  0  1  0  0  0  0  0  0
  161.2060  205.1110  153.1150 C   0  0  0  0  0  3  0  0  0  0  0  0
  161.2020  207.3900  152.2980 C   0  0  0  0  0  3  0  0  0  0  0  0
  161.2050  206.4900  153.3690 C   0  0  0  0  0  0  0  0  0  0  0  0
  161.2050  205.5430  150.7320 C   0  0  0  0  0  3  0  0  0  0  0  0
  157.8420  212.2610  155.8120 C   0  0  1  0  0  3  0  0  0  0  0  0
  157.2670  214.4130  156.9650 C   0  0  0  0  0  1  0  0  0  0  0  0
  159.5310  214.1750  155.9710 C   0  0  0  0  0  1  0  0  0  0  0  0
  158.3800  213.4390  156.6370 C   0  0  0  0  0  3  0  0  0  0  0  0
  156.3340  212.2390  155.5580 C   0  0  0  0  0  2  0  0  0  0  0  0
  155.1990  209.9500  155.0210 C   0  0  0  0  0  1  0  0  0  0  0  0
  155.5440  210.9150  156.5170 S   0  0  0  0  0  0  0  0  0  0  0  0
  1  7  1  0  0  0  0
  1 25  1  0  0  0  0
  2  1  1  0  0  0  0
  3  4  1  0  0  0  0
  4  2  2  0  0  0  0
  5  9  1  0  0  0  0
  6 11  1  0  0  0  0
  6  3  2  0  0  0  0
  7 12  1  0  0  0  0
  9  7  2  0  0  0  0
 10  5  2  0  0  0  0
 10  2  1  0  0  0  0
 11  8  1  1  0  0  0
 11 10  1  0  0  0  0
 12 13  1  1  0  0  0
 14 12  1  0  0  0  0
 16 14  1  0  0  0  0
 16 15  1  0  0  0  0
 17 16  1  0  0  0  0
 18 21  1  0  0  0  0
 19 22  2  0  0  0  0
 20 18  1  0  0  0  0
 21 23  2  0  0  0  0
 22 23  1  0  0  0  0
 23 17  1  0  0  0  0
 24 19  1  0  0  0  0
 24 18  2  0  0  0  0
 25 29  1  6  0  0  0
 25 28  1  0  0  0  0
 27 28  1  0  0  0  0
 28 26  1  0  0  0  0
 29 31  1  0  0  0  0
 30 31  1  0  0  0  0
M  END
>  <MODEL>
5

>  <REMARK>
 VINA RESULT:      -5.5      2.638      4.571
  Name = 
  9 active torsions:
  status: ('A' for Active; 'I' for Inactive)
    1  A    between atoms: N_3  and  N_9
    2  A    between atoms: N_3  and  C_22
    3  A    between atoms: N_4  and  C_12
    4  A    between atoms: N_9  and  C_23
    5  A    between atoms: C_12  and  C_25
    6  A    between atoms: C_12  and  C_27
    7  A    between atoms: C_15  and  C_21
    8  A    between atoms: C_15  and  C_23
    9  A    between atoms: C_27  and  S_28
                            x       y       z     vdW  Elec       q    Type
                         _______ _______ _______ _____ _____    ______ ____

>  <TORSDO>
F 9

$$$$
=
 OpenBabel11052422273D

 31 33  0  0  1  0  0  0  0  0999 V2000
  161.0760  204.3860  147.8230 N   0  0  0  0  0  0  0  0  0  0  0  0
  161.0850  203.1550  148.5840 C   0  0  2  0  0  3  0  0  0  0  0  0
  161.2060  200.7260  148.7980 C   0  0  0  0  0  3  0  0  0  0  0  0
  161.2640  201.9640  148.0070 C   0  0  0  0  0  3  0  0  0  0  0  0
  160.5330  204.3960  150.5840 C   0  0  0  0  0  3  0  0  0  0  0  0
  161.0310  200.7530  150.0870 N   0  0  0  0  0  0  0  0  0  0  0  0
  160.7480  205.6090  148.5160 C   0  0  0  0  0  0  0  0  0  0  0  0
  162.0540  202.0760  151.7820 N   0  0  0  0  0  1  0  0  0  0  0  0
  160.4830  205.5910  149.7920 N   0  0  0  0  0  0  0  0  0  0  0  0
  160.8250  203.2170  150.0330 C   0  0  0  0  0  0  0  0  0  0  0  0
  160.9130  201.9790  150.8860 C   0  0  0  0  0  0  0  0  0  0  0  0
  160.6480  206.9030  147.7640 C   0  0  2  0  0  3  0  0  0  0  0  0
  160.4340  206.6660  146.4040 O   0  0  0  0  0  1  0  0  0  0  0  0
  161.9110  207.7240  147.9610 C   0  0  0  0  0  2  0  0  0  0  0  0
  162.3070  209.8790  148.4800 O   0  0  0  0  0  1  0  0  0  0  0  0
  161.6740  208.7730  148.9390 N   0  0  0  0  0  0  0  0  0  0  0  0
  162.3320  208.3870  150.1170 N   0  0  0  0  0  2  0  0  0  0  0  0
  161.0380  208.0240  153.6070 C   0  0  0  0  0  0  0  0  0  0  0  0
  161.0960  210.3720  153.0170 C   0  0  0  0  0  3  0  0  0  0  0  0
  160.7430  206.9520  154.5930 C   0  0  0  0  0  1  0  0  0  0  0  0
  161.5360  207.6940  152.3440 C   0  0  0  0  0  3  0  0  0  0  0  0
  161.5950  210.0410  151.7530 C   0  0  0  0  0  3  0  0  0  0  0  0
  161.8160  208.7030  151.4110 C   0  0  0  0  0  0  0  0  0  0  0  0
  160.8170  209.3630  153.9440 C   0  0  0  0  0  3  0  0  0  0  0  0
  161.4070  204.4560  146.3920 C   0  0  1  0  0  3  0  0  0  0  0  0
  162.7720  205.7540  144.7360 C   0  0  0  0  0  1  0  0  0  0  0  0
  163.9620  204.3280  146.3860 C   0  0  0  0  0  1  0  0  0  0  0  0
  162.7330  205.1880  146.1410 C   0  0  0  0  0  3  0  0  0  0  0  0
  161.2240  203.1130  145.6830 C   0  0  0  0  0  2  0  0  0  0  0  0
  159.5000  201.3280  144.8740 C   0  0  0  0  0  1  0  0  0  0  0  0
  159.7060  203.1200  144.6860 S   0  0  0  0  0  0  0  0  0  0  0  0
  1  7  1  0  0  0  0
  1  2  1  0  0  0  0
  2  4  1  6  0  0  0
  2 10  1  0  0  0  0
  3  6  1  0  0  0  0
  4  3  2  0  0  0  0
  6 11  2  0  0  0  0
  7  9  2  0  0  0  0
  9  5  1  0  0  0  0
 10  5  2  0  0  0  0
 10 11  1  0  0  0  0
 11  8  1  0  0  0  0
 12 13  1  6  0  0  0
 12 14  1  0  0  0  0
 12  7  1  0  0  0  0
 14 16  1  0  0  0  0
 15 16  1  0  0  0  0
 16 17  1  0  0  0  0
 17 23  1  0  0  0  0
 18 24  1  0  0  0  0
 18 20  1  0  0  0  0
 19 24  2  0  0  0  0
 21 18  2  0  0  0  0
 22 19  1  0  0  0  0
 23 22  2  0  0  0  0
 23 21  1  0  0  0  0
 25 29  1  1  0  0  0
 25  1  1  0  0  0  0
 26 28  1  0  0  0  0
 28 27  1  0  0  0  0
 28 25  1  0  0  0  0
 31 30  1  0  0  0  0
 31 29  1  0  0  0  0
M  END
>  <MODEL>
6

>  <REMARK>
 VINA RESULT:      -5.5      4.429      9.490
  Name = 
  9 active torsions:
  status: ('A' for Active; 'I' for Inactive)
    1  A    between atoms: N_3  and  N_9
    2  A    between atoms: N_3  and  C_22
    3  A    between atoms: N_4  and  C_12
    4  A    between atoms: N_9  and  C_23
    5  A    between atoms: C_12  and  C_25
    6  A    between atoms: C_12  and  C_27
    7  A    between atoms: C_15  and  C_21
    8  A    between atoms: C_15  and  C_23
    9  A    between atoms: C_27  and  S_28
                            x       y       z     vdW  Elec       q    Type
                         _______ _______ _______ _____ _____    ______ ____

>  <TORSDO>
F 9

$$$$
=
 OpenBabel11052422273D

 31 33  0  0  1  0  0  0  0  0999 V2000
  161.5480  205.5970  149.3320 N   0  0  0  0  0  0  0  0  0  0  0  0
  161.5850  205.0960  147.9750 C   0  0  0  0  0  0  0  0  0  0  0  0
  161.8720  203.3350  146.3090 C   0  0  0  0  0  3  0  0  0  0  0  0
  161.7790  203.8050  147.6990 C   0  0  0  0  0  3  0  0  0  0  0  0
  161.3870  207.3580  147.1420 C   0  0  0  0  0  3  0  0  0  0  0  0
  161.7180  204.1500  145.3060 N   0  0  0  0  0  0  0  0  0  0  0  0
  161.4620  207.0260  149.5240 C   0  0  0  0  0  0  0  0  0  0  0  0
  160.0820  205.8280  144.8860 N   0  0  0  0  0  1  0  0  0  0  0  0
  161.4040  207.8260  148.4970 N   0  0  0  0  0  0  0  0  0  0  0  0
  161.4650  206.0560  146.8620 C   0  0  0  0  0  0  0  0  0  0  0  0
  161.4040  205.5780  145.4350 C   0  0  1  0  0  3  0  0  0  0  0  0
  161.4980  207.6070  150.9070 C   0  0  2  0  0  3  0  0  0  0  0  0
  160.2060  207.8720  151.3630 O   0  0  0  0  0  1  0  0  0  0  0  0
  162.3310  208.8780  150.9200 C   0  0  0  0  0  2  0  0  0  0  0  0
  161.7960  211.0420  150.6040 O   0  0  0  0  0  1  0  0  0  0  0  0
  161.5350  209.9890  151.4150 N   0  0  0  0  0  0  0  0  0  0  0  0
  162.0390  210.3170  152.6830 N   0  0  0  0  0  2  0  0  0  0  0  0
  160.3080  208.6880  155.5700 C   0  0  0  0  0  0  0  0  0  0  0  0
  159.9890  211.0850  155.6970 C   0  0  0  0  0  3  0  0  0  0  0  0
  160.0810  207.3280  156.1250 C   0  0  0  0  0  1  0  0  0  0  0  0
  161.0550  208.8490  154.4010 C   0  0  0  0  0  3  0  0  0  0  0  0
  160.7370  211.2450  154.5270 C   0  0  0  0  0  3  0  0  0  0  0  0
  161.2720  210.1300  153.8740 C   0  0  0  0  0  0  0  0  0  0  0  0
  159.7740  209.8050  156.2190 C   0  0  0  0  0  3  0  0  0  0  0  0
  161.5710  204.7280  150.5170 C   0  0  1  0  0  3  0  0  0  0  0  0
  163.4450  205.4290  152.0300 C   0  0  0  0  0  1  0  0  0  0  0  0
  161.2060  205.0300  153.0300 C   0  0  0  0  0  1  0  0  0  0  0  0
  161.9500  205.4970  151.7900 C   0  0  0  0  0  3  0  0  0  0  0  0
  160.3390  203.8270  150.6060 C   0  0  0  0  0  2  0  0  0  0  0  0
  159.7380  201.5990  149.3860 C   0  0  0  0  0  1  0  0  0  0  0  0
  160.8310  202.0850  150.7480 S   0  0  0  0  0  0  0  0  0  0  0  0
  1  7  1  0  0  0  0
  1 25  1  0  0  0  0
  2  1  1  0  0  0  0
  3  4  1  0  0  0  0
  4  2  2  0  0  0  0
  5  9  1  0  0  0  0
  6 11  1  0  0  0  0
  6  3  2  0  0  0  0
  7 12  1  0  0  0  0
  9  7  2  0  0  0  0
 10  5  2  0  0  0  0
 10  2  1  0  0  0  0
 11  8  1  1  0  0  0
 11 10  1  0  0  0  0
 12 14  1  0  0  0  0
 12 13  1  6  0  0  0
 14 16  1  0  0  0  0
 15 16  1  0  0  0  0
 16 17  1  0  0  0  0
 17 23  1  0  0  0  0
 18 20  1  0  0  0  0
 18 24  1  0  0  0  0
 19 24  2  0  0  0  0
 21 18  2  0  0  0  0
 22 19  1  0  0  0  0
 23 21  1  0  0  0  0
 23 22  2  0  0  0  0
 25 29  1  1  0  0  0
 25 28  1  0  0  0  0
 28 26  1  0  0  0  0
 28 27  1  0  0  0  0
 29 31  1  0  0  0  0
 30 31  1  0  0  0  0
M  END
>  <MODEL>
7

>  <REMARK>
 VINA RESULT:      -5.0      3.284      8.419
  Name = 
  9 active torsions:
  status: ('A' for Active; 'I' for Inactive)
    1  A    between atoms: N_3  and  N_9
    2  A    between atoms: N_3  and  C_22
    3  A    between atoms: N_4  and  C_12
    4  A    between atoms: N_9  and  C_23
    5  A    between atoms: C_12  and  C_25
    6  A    between atoms: C_12  and  C_27
    7  A    between atoms: C_15  and  C_21
    8  A    between atoms: C_15  and  C_23
    9  A    between atoms: C_27  and  S_28
                            x       y       z     vdW  Elec       q    Type
                         _______ _______ _______ _____ _____    ______ ____

>  <TORSDO>
F 9

$$$$
=
 OpenBabel11052422273D

 31 33  0  0  1  0  0  0  0  0999 V2000
  161.1800  210.4160  151.2060 N   0  0  0  0  0  0  0  0  0  0  0  0
  161.1210  211.5920  150.3640 C   0  0  0  0  0  0  0  0  0  0  0  0
  160.3630  213.8480  149.8230 C   0  0  0  0  0  3  0  0  0  0  0  0
  160.4560  212.6910  150.7260 C   0  0  0  0  0  3  0  0  0  0  0  0
  162.3310  210.4090  148.6370 C   0  0  0  0  0  3  0  0  0  0  0  0
  160.9660  213.8590  148.6700 N   0  0  0  0  0  0  0  0  0  0  0  0
  161.8150  209.2340  150.6730 C   0  0  0  0  0  0  0  0  0  0  0  0
  163.1830  213.2490  148.0540 N   0  0  0  0  0  1  0  0  0  0  0  0
  162.3280  209.2450  149.4750 N   0  0  0  0  0  0  0  0  0  0  0  0
  161.7670  211.5480  149.0400 C   0  0  0  0  0  0  0  0  0  0  0  0
  161.8140  212.7730  148.1650 C   0  0  1  0  0  3  0  0  0  0  0  0
  161.8380  207.9620  151.4690 C   0  0  2  0  0  3  0  0  0  0  0  0
  163.0330  207.2710  151.2590 O   0  0  0  0  0  1  0  0  0  0  0  0
  160.6520  207.0880  151.0960 C   0  0  0  0  0  2  0  0  0  0  0  0
  160.2050  206.2550  149.0530 O   0  0  0  0  0  1  0  0  0  0  0  0
  161.0520  206.1080  150.1000 N   0  0  0  0  0  0  0  0  0  0  0  0
  160.8010  204.8420  150.6520 N   0  0  0  0  0  2  0  0  0  0  0  0
  161.0770  202.5240  147.7300 C   0  0  0  0  0  0  0  0  0  0  0  0
  160.9090  201.2250  149.7670 C   0  0  0  0  0  3  0  0  0  0  0  0
  161.2080  202.5870  146.2520 C   0  0  0  0  0  1  0  0  0  0  0  0
  160.9990  203.7030  148.4750 C   0  0  0  0  0  3  0  0  0  0  0  0
  160.8310  202.4060  150.5120 C   0  0  0  0  0  3  0  0  0  0  0  0
  160.8750  203.6480  149.8710 C   0  0  0  0  0  0  0  0  0  0  0  0
  161.0310  201.2840  148.3760 C   0  0  0  0  0  3  0  0  0  0  0  0
  160.6500  210.3730  152.5760 C   0  0  1  0  0  3  0  0  0  0  0  0
  160.9130  208.7070  154.4320 C   0  0  0  0  0  1  0  0  0  0  0  0
  162.3920  210.7040  154.4200 C   0  0  0  0  0  1  0  0  0  0  0  0
  161.6310  209.7120  153.5540 C   0  0  0  0  0  3  0  0  0  0  0  0
  160.0460  211.7090  153.0120 C   0  0  0  0  0  2  0  0  0  0  0  0
  158.2530  213.2150  154.1640 C   0  0  0  0  0  1  0  0  0  0  0  0
  158.4030  211.4580  153.7430 S   0  0  0  0  0  0  0  0  0  0  0  0
  1 25  1  0  0  0  0
  2  4  2  0  0  0  0
  2  1  1  0  0  0  0
  3  4  1  0  0  0  0
  5 10  2  0  0  0  0
  5  9  1  0  0  0  0
  6  3  2  0  0  0  0
  7  1  1  0  0  0  0
  7 12  1  0  0  0  0
  9  7  2  0  0  0  0
 10  2  1  0  0  0  0
 11  8  1  1  0  0  0
 11  6  1  0  0  0  0
 11 10  1  0  0  0  0
 12 13  1  6  0  0  0
 14 12  1  0  0  0  0
 15 16  1  0  0  0  0
 16 17  1  0  0  0  0
 16 14  1  0  0  0  0
 18 24  2  0  0  0  0
 18 21  1  0  0  0  0
 19 22  2  0  0  0  0
 20 18  1  0  0  0  0
 21 23  2  0  0  0  0
 23 22  1  0  0  0  0
 23 17  1  0  0  0  0
 24 19  1  0  0  0  0
 25 29  1  1  0  0  0
 25 28  1  0  0  0  0
 28 27  1  0  0  0  0
 28 26  1  0  0  0  0
 29 31  1  0  0  0  0
 31 30  1  0  0  0  0
M  END
>  <MODEL>
8

>  <REMARK>
 VINA RESULT:      -4.9      2.678      4.524
  Name = 
  9 active torsions:
  status: ('A' for Active; 'I' for Inactive)
    1  A    between atoms: N_3  and  N_9
    2  A    between atoms: N_3  and  C_22
    3  A    between atoms: N_4  and  C_12
    4  A    between atoms: N_9  and  C_23
    5  A    between atoms: C_12  and  C_25
    6  A    between atoms: C_12  and  C_27
    7  A    between atoms: C_15  and  C_21
    8  A    between atoms: C_15  and  C_23
    9  A    between atoms: C_27  and  S_28
                            x       y       z     vdW  Elec       q    Type
                         _______ _______ _______ _____ _____    ______ ____

>  <TORSDO>
F 9

$$$$
=
 OpenBabel11052422273D

 31 33  0  0  1  0  0  0  0  0999 V2000
  161.1410  208.9350  152.2730 N   0  0  0  0  0  0  0  0  0  0  0  0
  161.3830  209.0450  153.6960 C   0  0  2  0  0  3  0  0  0  0  0  0
  161.9150  210.2930  155.7250 C   0  0  0  0  0  3  0  0  0  0  0  0
  161.6120  210.2190  154.2880 C   0  0  0  0  0  3  0  0  0  0  0  0
  161.3220  206.6350  153.8860 C   0  0  0  0  0  3  0  0  0  0  0  0
  161.9190  209.2270  156.4730 N   0  0  0  0  0  0  0  0  0  0  0  0
  161.0310  207.6120  151.7050 C   0  0  0  0  0  0  0  0  0  0  0  0
  160.3720  207.4250  156.6430 N   0  0  0  0  0  1  0  0  0  0  0  0
  161.1340  206.5580  152.4660 N   0  0  0  0  0  0  0  0  0  0  0  0
  161.4380  207.8120  154.5020 C   0  0  0  0  0  0  0  0  0  0  0  0
  161.5940  207.8770  155.9990 C   0  0  0  0  0  0  0  0  0  0  0  0
  160.8580  207.4350  150.2260 C   0  0  2  0  0  3  0  0  0  0  0  0
  159.8530  206.5040  149.9560 O   0  0  0  0  0  1  0  0  0  0  0  0
  162.1670  206.9920  149.5930 C   0  0  0  0  0  2  0  0  0  0  0  0
  160.7930  206.9660  147.8090 O   0  0  0  0  0  1  0  0  0  0  0  0
  162.0940  207.1360  148.1480 N   0  0  0  0  0  0  0  0  0  0  0  0
  162.8020  206.0570  147.5960 N   0  0  0  0  0  2  0  0  0  0  0  0
  161.0600  202.7580  147.8570 C   0  0  0  0  0  0  0  0  0  0  0  0
  161.3550  203.3230  145.5220 C   0  0  0  0  0  3  0  0  0  0  0  0
  160.5660  201.8250  148.9040 C   0  0  0  0  0  1  0  0  0  0  0  0
  161.6920  203.9490  148.2260 C   0  0  0  0  0  3  0  0  0  0  0  0
  161.9880  204.5140  145.8900 C   0  0  0  0  0  3  0  0  0  0  0  0
  162.1590  204.8320  147.2410 C   0  0  0  0  0  0  0  0  0  0  0  0
  160.8910  202.4450  146.5060 C   0  0  0  0  0  3  0  0  0  0  0  0
  160.9800  210.0960  151.3870 C   0  0  1  0  0  3  0  0  0  0  0  0
  158.9140  210.9470  152.5280 C   0  0  0  0  0  1  0  0  0  0  0  0
  160.3330  212.5690  151.2920 C   0  0  0  0  0  1  0  0  0  0  0  0
  160.3300  211.2860  152.1070 C   0  0  0  0  0  3  0  0  0  0  0  0
  162.2420  210.3950  150.5770 C   0  0  0  0  0  2  0  0  0  0  0  0
  162.6380  212.1070  148.6480 C   0  0  0  0  0  1  0  0  0  0  0  0
  161.8580  210.4780  148.8040 S   0  0  0  0  0  0  0  0  0  0  0  0
  1  2  1  0  0  0  0
  2  4  1  6  0  0  0
  2 10  1  0  0  0  0
  3  6  1  0  0  0  0
  4  3  2  0  0  0  0
  5 10  2  0  0  0  0
  7  1  1  0  0  0  0
  7  9  2  0  0  0  0
  9  5  1  0  0  0  0
 10 11  1  0  0  0  0
 11  6  2  0  0  0  0
 11  8  1  0  0  0  0
 12 13  1  1  0  0  0
 12  7  1  0  0  0  0
 14 12  1  0  0  0  0
 15 16  1  0  0  0  0
 16 14  1  0  0  0  0
 17 16  1  0  0  0  0
 18 21  1  0  0  0  0
 18 20  1  0  0  0  0
 19 22  2  0  0  0  0
 19 24  1  0  0  0  0
 22 23  1  0  0  0  0
 23 17  1  0  0  0  0
 23 21  2  0  0  0  0
 24 18  2  0  0  0  0
 25 29  1  1  0  0  0
 25 28  1  0  0  0  0
 25  1  1  0  0  0  0
 27 28  1  0  0  0  0
 28 26  1  0  0  0  0
 30 31  1  0  0  0  0
 31 29  1  0  0  0  0
M  END
>  <MODEL>
9

>  <REMARK>
 VINA RESULT:      -4.9      3.274      5.105
  Name = 
  9 active torsions:
  status: ('A' for Active; 'I' for Inactive)
    1  A    between atoms: N_3  and  N_9
    2  A    between atoms: N_3  and  C_22
    3  A    between atoms: N_4  and  C_12
    4  A    between atoms: N_9  and  C_23
    5  A    between atoms: C_12  and  C_25
    6  A    between atoms: C_12  and  C_27
    7  A    between atoms: C_15  and  C_21
    8  A    between atoms: C_15  and  C_23
    9  A    between atoms: C_27  and  S_28
                            x       y       z     vdW  Elec       q    Type
                         _______ _______ _______ _____ _____    ______ ____

>  <TORSDO>
F 9

$$$$
