=
 OpenBabel11062410523D

 32 37  0  0  1  0  0  0  0  0999 V2000
  160.8820  202.4830  148.3170 C   0  0  0  0  0  0  0  0  0  0  0  0
  161.7020  206.3110  151.5730 C   0  0  2  0  0  3  0  0  0  0  0  0
  161.9260  210.2400  148.6570 N   0  0  0  0  0  0  0  0  0  0  0  0
  161.7900  211.1160  149.7830 C   0  0  0  0  0  3  0  0  0  0  0  0
  161.0180  206.7090  153.9910 C   0  0  0  0  0  0  0  0  0  0  0  0
  160.7000  207.6070  155.0020 C   0  0  0  0  0  0  0  0  0  0  0  0
  160.9570  204.2080  150.5210 C   0  0  0  0  0  0  0  0  0  0  0  0
  162.0640  205.9990  149.1330 C   0  0  0  0  0  2  0  0  0  0  0  0
  160.3600  209.5480  156.0330 N   0  0  0  0  0  0  0  0  0  0  0  0
  161.4250  203.7650  148.1800 C   0  0  0  0  0  3  0  0  0  0  0  0
  162.0770  208.9570  148.7940 C   0  0  0  0  0  3  0  0  0  0  0  0
  161.5120  206.9560  150.1950 C   0  0  2  0  0  3  0  0  0  0  0  0
  162.2040  208.3170  150.1550 C   0  0  2  0  0  3  0  0  0  0  0  0
  161.3270  208.6470  152.5050 C   0  0  0  0  0  0  0  0  0  0  0  0
  160.1780  208.5730  157.0390 N   0  0  0  0  0  0  0  0  0  0  0  0
  160.3670  202.0700  149.5520 C   0  0  0  0  0  3  0  0  0  0  0  0
  161.4560  204.6340  149.2740 C   0  0  0  0  0  0  0  0  0  0  0  0
  160.3960  207.3460  156.3630 N   0  0  0  0  0  0  0  0  0  0  0  0
  160.4060  202.9320  150.6520 C   0  0  0  0  0  3  0  0  0  0  0  0
  161.6580  210.6170  151.0090 C   0  0  0  0  0  3  0  0  0  0  0  0
  161.6740  209.1950  151.2140 N   0  0  0  0  0  0  0  0  0  0  0  0
  160.9990  209.5110  153.5770 C   0  0  0  0  0  3  0  0  0  0  0  0
  160.9860  205.0740  151.6200 O   0  0  0  0  0  0  0  0  0  0  0  0
  161.0660  205.3780  154.2540 F   0  0  0  0  0  0  0  0  0  0  0  0
  160.3350  210.9770  156.2890 C   0  0  0  0  0  1  0  0  0  0  0  0
  161.3040  207.2310  152.7040 C   0  0  0  0  0  0  0  0  0  0  0  0
  160.6830  208.9350  154.8020 C   0  0  0  0  0  0  0  0  0  0  0  0
  160.8280  201.5690  147.1440 C   0  0  0  0  0  2  0  0  0  0  0  0
  161.0130  202.3560  145.8590 C   0  0  0  0  0  2  0  0  0  0  0  0
  159.9970  201.9340  144.8590 C   0  0  0  0  0  0  0  0  0  0  0  0
  159.2690  202.8900  144.1620 O   0  0  0  0  0  0  0  0  0  0  0  0
  159.7740  200.7100  144.6650 O   0  0  0  0  0  1  0  0  0  0  0  0
  1 16  1  0  0  0  0
  2 23  1  6  0  0  0
  2 26  1  0  0  0  0
  3 11  2  0  0  0  0
  3  4  1  0  0  0  0
  4 20  2  0  0  0  0
  5 24  1  0  0  0  0
  5  6  1  0  0  0  0
  6 18  1  0  0  0  0
  7 19  1  0  0  0  0
  7 23  1  0  0  0  0
  8 17  1  0  0  0  0
  9 25  1  0  0  0  0
  9 15  1  0  0  0  0
 10  1  2  0  0  0  0
 10 17  1  0  0  0  0
 12  8  1  6  0  0  0
 12  2  1  0  0  0  0
 13 11  1  6  0  0  0
 13 12  1  0  0  0  0
 13 21  1  0  0  0  0
 14 26  1  0  0  0  0
 14 22  2  0  0  0  0
 16 19  2  0  0  0  0
 17  7  2  0  0  0  0
 18 15  2  0  0  0  0
 20 21  1  0  0  0  0
 21 14  1  0  0  0  0
 22 27  1  0  0  0  0
 26  5  2  0  0  0  0
 27  6  2  0  0  0  0
 27  9  1  0  0  0  0
 28  1  1  0  0  0  0
 29 28  1  0  0  0  0
 30 29  1  0  0  0  0
 31 30  2  0  0  0  0
 32 30  1  0  0  0  0
M  END
>  <MODEL>
1

>  <REMARK>
 VINA RESULT:     -10.8      0.000      0.000
  Name = 
  3 active torsions:
  status: ('A' for Active; 'I' for Inactive)
    1  A    between atoms: C_1  and  C_10
    2  A    between atoms: C_2  and  C_24
    3  A    between atoms: C_10  and  C_24
                            x       y       z     vdW  Elec       q    Type
                         _______ _______ _______ _____ _____    ______ ____

>  <TORSDO>
F 3

$$$$
=
 OpenBabel11062410523D

 32 37  0  0  1  0  0  0  0  0999 V2000
  161.1520  203.2410  147.6930 C   0  0  0  0  0  0  0  0  0  0  0  0
  161.7320  206.6550  151.4260 C   0  0  2  0  0  3  0  0  0  0  0  0
  161.7200  210.9370  149.0480 N   0  0  0  0  0  0  0  0  0  0  0  0
  161.5290  211.6490  150.2770 C   0  0  0  0  0  3  0  0  0  0  0  0
  161.0230  206.6920  153.8690 C   0  0  0  0  0  0  0  0  0  0  0  0
  160.6500  207.4290  154.9850 C   0  0  0  0  0  0  0  0  0  0  0  0
  161.1180  204.6660  150.1030 C   0  0  0  0  0  0  0  0  0  0  0  0
  162.1160  206.6850  148.9690 C   0  0  0  0  0  2  0  0  0  0  0  0
  160.1900  209.1950  156.2570 N   0  0  0  0  0  0  0  0  0  0  0  0
  161.6150  204.5610  147.7280 C   0  0  0  0  0  3  0  0  0  0  0  0
  161.9490  209.6580  149.0180 C   0  0  0  0  0  3  0  0  0  0  0  0
  161.5060  207.4620  150.1420 C   0  0  2  0  0  3  0  0  0  0  0  0
  162.1130  208.8550  150.2860 C   0  0  2  0  0  3  0  0  0  0  0  0
  161.2140  208.8220  152.6510 C   0  0  0  0  0  0  0  0  0  0  0  0
  160.0670  208.0880  157.1260 N   0  0  0  0  0  0  0  0  0  0  0  0
  160.6610  202.6410  148.8580 C   0  0  0  0  0  3  0  0  0  0  0  0
  161.5920  205.2800  148.9270 C   0  0  0  0  0  0  0  0  0  0  0  0
  160.3600  206.9760  156.2980 N   0  0  0  0  0  0  0  0  0  0  0  0
  160.6460  203.3520  150.0620 C   0  0  0  0  0  3  0  0  0  0  0  0
  161.4270  210.9870  151.4270 C   0  0  0  0  0  3  0  0  0  0  0  0
  161.5290  209.5540  151.4450 N   0  0  0  0  0  0  0  0  0  0  0  0
  160.8330  209.5170  153.8230 C   0  0  0  0  0  3  0  0  0  0  0  0
  161.0930  205.3810  151.3050 O   0  0  0  0  0  0  0  0  0  0  0  0
  161.1520  205.3430  153.9570 F   0  0  0  0  0  0  0  0  0  0  0  0
  160.0780  210.5740  156.6960 C   0  0  0  0  0  1  0  0  0  0  0  0
  161.2780  207.3940  152.6630 C   0  0  0  0  0  0  0  0  0  0  0  0
  160.5510  208.7690  154.9600 C   0  0  0  0  0  0  0  0  0  0  0  0
  161.1550  202.4860  146.4100 C   0  0  0  0  0  2  0  0  0  0  0  0
  161.5830  203.3930  145.2710 C   0  0  0  0  0  2  0  0  0  0  0  0
  160.3900  204.0490  144.6730 C   0  0  0  0  0  0  0  0  0  0  0  0
  160.2440  205.4290  144.7490 O   0  0  0  0  0  1  0  0  0  0  0  0
  159.4960  203.3520  144.1250 O   0  0  0  0  0  0  0  0  0  0  0  0
  1 10  2  0  0  0  0
  1 16  1  0  0  0  0
  2 23  1  6  0  0  0
  2 26  1  0  0  0  0
  3  4  1  0  0  0  0
  4 20  2  0  0  0  0
  5 24  1  0  0  0  0
  5  6  1  0  0  0  0
  6 18  1  0  0  0  0
  7 23  1  0  0  0  0
  9 25  1  0  0  0  0
  9 15  1  0  0  0  0
 10 17  1  0  0  0  0
 11  3  2  0  0  0  0
 12  8  1  6  0  0  0
 12 13  1  0  0  0  0
 12  2  1  0  0  0  0
 13 11  1  6  0  0  0
 13 21  1  0  0  0  0
 14 26  1  0  0  0  0
 14 22  2  0  0  0  0
 16 19  2  0  0  0  0
 17  8  1  0  0  0  0
 17  7  2  0  0  0  0
 18 15  2  0  0  0  0
 19  7  1  0  0  0  0
 20 21  1  0  0  0  0
 21 14  1  0  0  0  0
 22 27  1  0  0  0  0
 26  5  2  0  0  0  0
 27  6  2  0  0  0  0
 27  9  1  0  0  0  0
 28  1  1  0  0  0  0
 29 28  1  0  0  0  0
 30 31  1  0  0  0  0
 30 29  1  0  0  0  0
 32 30  2  0  0  0  0
M  END
>  <MODEL>
2

>  <REMARK>
 VINA RESULT:      -9.8      0.854      1.009
  Name = 
  3 active torsions:
  status: ('A' for Active; 'I' for Inactive)
    1  A    between atoms: C_1  and  C_10
    2  A    between atoms: C_2  and  C_24
    3  A    between atoms: C_10  and  C_24
                            x       y       z     vdW  Elec       q    Type
                         _______ _______ _______ _____ _____    ______ ____

>  <TORSDO>
F 3

$$$$
=
 OpenBabel11062410523D

 32 37  0  0  1  0  0  0  0  0999 V2000
  161.1880  203.1310  147.3700 C   0  0  0  0  0  0  0  0  0  0  0  0
  161.7940  206.5610  151.0830 C   0  0  2  0  0  3  0  0  0  0  0  0
  161.8510  210.8270  148.6770 N   0  0  0  0  0  0  0  0  0  0  0  0
  161.6640  211.5500  149.9000 C   0  0  0  0  0  3  0  0  0  0  0  0
  161.0710  206.6250  153.5220 C   0  0  0  0  0  0  0  0  0  0  0  0
  160.7020  207.3750  154.6310 C   0  0  0  0  0  0  0  0  0  0  0  0
  161.1600  204.5720  149.7700 C   0  0  0  0  0  0  0  0  0  0  0  0
  162.1910  206.5700  148.6290 C   0  0  0  0  0  2  0  0  0  0  0  0
  160.2590  209.1550  155.8880 N   0  0  0  0  0  0  0  0  0  0  0  0
  161.6690  204.4450  147.3990 C   0  0  0  0  0  3  0  0  0  0  0  0
  162.0640  209.5460  148.6570 C   0  0  0  0  0  3  0  0  0  0  0  0
  161.5850  207.3630  149.7920 C   0  0  2  0  0  3  0  0  0  0  0  0
  162.2100  208.7490  149.9310 C   0  0  2  0  0  3  0  0  0  0  0  0
  161.2980  208.7440  152.2900 C   0  0  0  0  0  0  0  0  0  0  0  0
  160.1170  208.0550  156.7640 N   0  0  0  0  0  0  0  0  0  0  0  0
  160.6830  202.5450  148.5360 C   0  0  0  0  0  3  0  0  0  0  0  0
  161.6480  205.1720  148.5930 C   0  0  0  0  0  0  0  0  0  0  0  0
  160.3990  206.9340  155.9450 N   0  0  0  0  0  0  0  0  0  0  0  0
  160.6710  203.2640  149.7350 C   0  0  0  0  0  3  0  0  0  0  0  0
  161.5460  210.8970  151.0530 C   0  0  0  0  0  3  0  0  0  0  0  0
  161.6290  209.4630  151.0820 N   0  0  0  0  0  0  0  0  0  0  0  0
  160.9200  209.4520  153.4560 C   0  0  0  0  0  3  0  0  0  0  0  0
  161.1380  205.2960  150.9670 O   0  0  0  0  0  0  0  0  0  0  0  0
  161.1820  205.2750  153.6200 F   0  0  0  0  0  0  0  0  0  0  0  0
  160.1630  210.5390  156.3180 C   0  0  0  0  0  1  0  0  0  0  0  0
  161.3420  207.3150  152.3130 C   0  0  0  0  0  0  0  0  0  0  0  0
  160.6220  208.7150  154.5960 C   0  0  0  0  0  0  0  0  0  0  0  0
  161.1880  202.3670  146.0920 C   0  0  0  0  0  2  0  0  0  0  0  0
  160.2900  201.1490  146.2120 C   0  0  0  0  0  2  0  0  0  0  0  0
  161.1210  199.9240  146.3620 C   0  0  0  0  0  0  0  0  0  0  0  0
  161.1060  198.9490  145.3720 O   0  0  0  0  0  0  0  0  0  0  0  0
  161.8140  199.7550  147.3990 O   0  0  0  0  0  1  0  0  0  0  0  0
  1 10  2  0  0  0  0
  1 16  1  0  0  0  0
  2 23  1  6  0  0  0
  2 26  1  0  0  0  0
  3  4  1  0  0  0  0
  4 20  2  0  0  0  0
  5 24  1  0  0  0  0
  5  6  1  0  0  0  0
  6 18  1  0  0  0  0
  7 23  1  0  0  0  0
  9 25  1  0  0  0  0
  9 15  1  0  0  0  0
 10 17  1  0  0  0  0
 11  3  2  0  0  0  0
 12  8  1  6  0  0  0
 12 13  1  0  0  0  0
 12  2  1  0  0  0  0
 13 11  1  6  0  0  0
 13 21  1  0  0  0  0
 14 26  1  0  0  0  0
 14 22  2  0  0  0  0
 16 19  2  0  0  0  0
 17  8  1  0  0  0  0
 17  7  2  0  0  0  0
 18 15  2  0  0  0  0
 19  7  1  0  0  0  0
 20 21  1  0  0  0  0
 21 14  1  0  0  0  0
 22 27  1  0  0  0  0
 26  5  2  0  0  0  0
 27  6  2  0  0  0  0
 27  9  1  0  0  0  0
 28 29  1  0  0  0  0
 28  1  1  0  0  0  0
 29 30  1  0  0  0  0
 30 32  1  0  0  0  0
 31 30  2  0  0  0  0
M  END
>  <MODEL>
3

>  <REMARK>
 VINA RESULT:      -9.7      1.114      1.326
  Name = 
  3 active torsions:
  status: ('A' for Active; 'I' for Inactive)
    1  A    between atoms: C_1  and  C_10
    2  A    between atoms: C_2  and  C_24
    3  A    between atoms: C_10  and  C_24
                            x       y       z     vdW  Elec       q    Type
                         _______ _______ _______ _____ _____    ______ ____

>  <TORSDO>
F 3

$$$$
=
 OpenBabel11062410523D

 32 37  0  0  1  0  0  0  0  0999 V2000
  161.3770  212.7730  149.1090 C   0  0  0  0  0  0  0  0  0  0  0  0
  162.1200  207.7380  149.2510 C   0  0  2  0  0  3  0  0  0  0  0  0
  161.0840  206.5760  153.8950 N   0  0  0  0  0  0  0  0  0  0  0  0
  161.0150  205.1860  153.5590 C   0  0  0  0  0  3  0  0  0  0  0  0
  161.8550  205.8950  147.5170 C   0  0  0  0  0  0  0  0  0  0  0  0
  161.5840  204.5630  147.2320 C   0  0  0  0  0  0  0  0  0  0  0  0
  161.5680  210.0370  148.5480 C   0  0  0  0  0  0  0  0  0  0  0  0
  162.0550  209.5330  150.9700 C   0  0  0  0  0  2  0  0  0  0  0  0
  161.1120  202.4160  147.5690 N   0  0  0  0  0  0  0  0  0  0  0  0
  161.6480  211.8680  150.1420 C   0  0  0  0  0  3  0  0  0  0  0  0
  161.4820  207.4740  153.0440 C   0  0  0  0  0  3  0  0  0  0  0  0
  161.5580  208.1250  150.6240 C   0  0  2  0  0  3  0  0  0  0  0  0
  161.9790  207.0950  151.6700 C   0  0  2  0  0  3  0  0  0  0  0  0
  161.5260  205.3510  149.8940 C   0  0  0  0  0  0  0  0  0  0  0  0
  161.3020  202.5250  146.1730 N   0  0  0  0  0  0  0  0  0  0  0  0
  161.1890  212.3080  147.8030 C   0  0  0  0  0  3  0  0  0  0  0  0
  161.7350  210.5000  149.8680 C   0  0  0  0  0  0  0  0  0  0  0  0
  161.5980  203.8980  145.9800 N   0  0  0  0  0  0  0  0  0  0  0  0
  161.2860  210.9420  147.5220 C   0  0  0  0  0  3  0  0  0  0  0  0
  161.2110  204.7870  152.3050 C   0  0  0  0  0  3  0  0  0  0  0  0
  161.5160  205.7490  151.2830 N   0  0  0  0  0  0  0  0  0  0  0  0
  161.2630  204.0060  149.5410 C   0  0  0  0  0  3  0  0  0  0  0  0
  161.6550  208.6680  148.2690 O   0  0  0  0  0  0  0  0  0  0  0  0
  162.1860  206.7500  146.5150 F   0  0  0  0  0  0  0  0  0  0  0  0
  160.8860  201.1540  148.2500 C   0  0  0  0  0  1  0  0  0  0  0  0
  161.7910  206.3130  148.8700 C   0  0  0  0  0  0  0  0  0  0  0  0
  161.2950  203.6690  148.1930 C   0  0  0  0  0  0  0  0  0  0  0  0
  161.2590  214.2270  149.4070 C   0  0  0  0  0  2  0  0  0  0  0  0
  160.2470  214.4530  150.5160 C   0  0  0  0  0  2  0  0  0  0  0  0
  158.8910  214.0620  150.0470 C   0  0  0  0  0  0  0  0  0  0  0  0
  158.0960  213.2360  150.8320 O   0  0  0  0  0  1  0  0  0  0  0  0
  158.4750  214.4530  148.9250 O   0  0  0  0  0  0  0  0  0  0  0  0
  1 28  1  0  0  0  0
  1 10  1  0  0  0  0
  2 23  1  6  0  0  0
  2 12  1  0  0  0  0
  4  3  1  0  0  0  0
  5 26  1  0  0  0  0
  6  5  2  0  0  0  0
  6 27  1  0  0  0  0
  7 17  1  0  0  0  0
  9 27  1  0  0  0  0
  9 25  1  0  0  0  0
 11  3  2  0  0  0  0
 12  8  1  1  0  0  0
 12 13  1  0  0  0  0
 13 11  1  1  0  0  0
 14 21  1  0  0  0  0
 15  9  1  0  0  0  0
 16  1  2  0  0  0  0
 17 10  2  0  0  0  0
 17  8  1  0  0  0  0
 18 15  2  0  0  0  0
 18  6  1  0  0  0  0
 19 16  1  0  0  0  0
 19  7  2  0  0  0  0
 20  4  2  0  0  0  0
 21 13  1  0  0  0  0
 21 20  1  0  0  0  0
 22 14  1  0  0  0  0
 23  7  1  0  0  0  0
 24  5  1  0  0  0  0
 26  2  1  0  0  0  0
 26 14  2  0  0  0  0
 27 22  2  0  0  0  0
 28 29  1  0  0  0  0
 30 29  1  0  0  0  0
 30 31  1  0  0  0  0
 32 30  2  0  0  0  0
M  END
>  <MODEL>
4

>  <REMARK>
 VINA RESULT:      -8.0      4.078      8.673
  Name = 
  3 active torsions:
  status: ('A' for Active; 'I' for Inactive)
    1  A    between atoms: C_1  and  C_10
    2  A    between atoms: C_2  and  C_24
    3  A    between atoms: C_10  and  C_24
                            x       y       z     vdW  Elec       q    Type
                         _______ _______ _______ _____ _____    ______ ____

>  <TORSDO>
F 3

$$$$
=
 OpenBabel11062410523D

 32 37  0  0  1  0  0  0  0  0999 V2000
  160.5400  209.2930  154.6790 C   0  0  0  0  0  0  0  0  0  0  0  0
  161.5600  206.4950  150.5490 C   0  0  2  0  0  3  0  0  0  0  0  0
  160.8730  201.9010  152.1030 N   0  0  0  0  0  0  0  0  0  0  0  0
  160.8590  201.4190  150.7540 C   0  0  0  0  0  3  0  0  0  0  0  0
  161.2900  206.9200  148.0550 C   0  0  0  0  0  0  0  0  0  0  0  0
  161.0750  206.4100  146.7810 C   0  0  0  0  0  0  0  0  0  0  0  0
  160.8440  208.2880  152.0830 C   0  0  0  0  0  0  0  0  0  0  0  0
  161.5040  206.0300  152.9910 C   0  0  0  0  0  2  0  0  0  0  0  0
  160.7400  204.9230  145.1610 N   0  0  0  0  0  0  0  0  0  0  0  0
  160.9220  207.9600  154.4880 C   0  0  0  0  0  3  0  0  0  0  0  0
  161.1700  203.1320  152.3940 C   0  0  0  0  0  3  0  0  0  0  0  0
  161.0640  205.5130  151.6170 C   0  0  2  0  0  3  0  0  0  0  0  0
  161.6020  204.1130  151.3310 C   0  0  2  0  0  3  0  0  0  0  0  0
  161.1360  204.6110  148.8950 C   0  0  0  0  0  0  0  0  0  0  0  0
  160.8390  206.1640  144.4920 N   0  0  0  0  0  0  0  0  0  0  0  0
  160.2980  210.1160  153.5730 C   0  0  0  0  0  3  0  0  0  0  0  0
  161.0660  207.4510  153.1940 C   0  0  0  0  0  0  0  0  0  0  0  0
  161.0480  207.0960  145.5390 N   0  0  0  0  0  0  0  0  0  0  0  0
  160.4520  209.6150  152.2770 C   0  0  0  0  0  3  0  0  0  0  0  0
  161.0000  202.2650  149.7370 C   0  0  0  0  0  3  0  0  0  0  0  0
  161.1900  203.6670  149.9870 N   0  0  0  0  0  0  0  0  0  0  0  0
  160.9260  204.1530  147.5720 C   0  0  0  0  0  3  0  0  0  0  0  0
  160.9880  207.7830  150.7860 O   0  0  0  0  0  0  0  0  0  0  0  0
  161.5130  208.2480  148.2270 F   0  0  0  0  0  0  0  0  0  0  0  0
  160.6240  203.6500  144.4740 C   0  0  0  0  0  1  0  0  0  0  0  0
  161.2860  206.0110  149.1440 C   0  0  0  0  0  0  0  0  0  0  0  0
  160.8930  205.0990  146.5540 C   0  0  0  0  0  0  0  0  0  0  0  0
  160.3630  209.8250  156.0570 C   0  0  0  0  0  2  0  0  0  0  0  0
  161.3570  210.9430  156.3180 C   0  0  0  0  0  2  0  0  0  0  0  0
  162.6650  210.3670  156.7290 C   0  0  0  0  0  0  0  0  0  0  0  0
  163.8390  211.0720  156.4950 O   0  0  0  0  0  0  0  0  0  0  0  0
  162.7130  209.2270  157.2610 O   0  0  0  0  0  1  0  0  0  0  0  0
  1 28  1  0  0  0  0
  2 26  1  6  0  0  0
  2 23  1  0  0  0  0
  2 12  1  0  0  0  0
  3 11  2  0  0  0  0
  4  3  1  0  0  0  0
  5 24  1  0  0  0  0
  5 26  1  0  0  0  0
  6  5  2  0  0  0  0
  7 19  2  0  0  0  0
  7 17  1  0  0  0  0
  8 17  1  0  0  0  0
  9 27  1  0  0  0  0
 10  1  1  0  0  0  0
 12  8  1  1  0  0  0
 13 12  1  0  0  0  0
 13 11  1  1  0  0  0
 14 26  2  0  0  0  0
 14 21  1  0  0  0  0
 15  9  1  0  0  0  0
 15 18  2  0  0  0  0
 16  1  2  0  0  0  0
 17 10  2  0  0  0  0
 18  6  1  0  0  0  0
 19 16  1  0  0  0  0
 20 21  1  0  0  0  0
 20  4  2  0  0  0  0
 21 13  1  0  0  0  0
 22 14  1  0  0  0  0
 23  7  1  0  0  0  0
 25  9  1  0  0  0  0
 27  6  1  0  0  0  0
 27 22  2  0  0  0  0
 28 29  1  0  0  0  0
 29 30  1  0  0  0  0
 30 32  1  0  0  0  0
 31 30  2  0  0  0  0
M  END
>  <MODEL>
5

>  <REMARK>
 VINA RESULT:      -8.0      3.972      9.149
  Name = 
  3 active torsions:
  status: ('A' for Active; 'I' for Inactive)
    1  A    between atoms: C_1  and  C_10
    2  A    between atoms: C_2  and  C_24
    3  A    between atoms: C_10  and  C_24
                            x       y       z     vdW  Elec       q    Type
                         _______ _______ _______ _____ _____    ______ ____

>  <TORSDO>
F 3

$$$$
