=
 OpenBabel11052422063D

 25 29  0  0  1  0  0  0  0  0999 V2000
  160.9880  204.6300  148.6210 C   0  0  0  0  0  0  0  0  0  0  0  0
  160.8060  205.8010  149.5730 C   0  0  1  0  0  3  0  0  0  0  0  0
  160.7910  206.2560  146.7020 C   0  0  0  0  0  2  0  0  0  0  0  0
  161.0330  203.2830  149.0410 C   0  0  0  0  0  0  0  0  0  0  0  0
  161.1800  201.0330  148.7590 O   0  0  0  0  0  0  0  0  0  0  0  0
  161.3690  207.2240  147.5710 O   0  0  0  0  0  0  0  0  0  0  0  0
  161.2050  202.4860  146.7680 C   0  0  0  0  0  3  0  0  0  0  0  0
  161.1500  202.2610  148.1400 C   0  0  0  0  0  0  0  0  0  0  0  0
  161.7520  208.1140  149.7360 C   0  0  0  0  0  0  0  0  0  0  0  0
  162.2510  209.3710  149.1100 C   0  0  0  0  0  1  0  0  0  0  0  0
  161.4100  205.5670  150.9580 C   0  0  0  0  0  2  0  0  0  0  0  0
  161.0700  201.1920  150.1710 C   0  0  0  0  0  3  0  0  0  0  0  0
  161.0060  204.8710  147.2250 C   0  0  0  0  0  0  0  0  0  0  0  0
  161.1180  203.8080  146.3120 C   0  0  0  0  0  3  0  0  0  0  0  0
  161.8980  207.9880  151.2310 C   0  0  0  0  0  2  0  0  0  0  0  0
  160.9450  202.7080  150.4140 C   0  0  0  0  0  3  0  0  0  0  0  0
  161.1460  206.7910  151.8140 C   0  0  2  0  0  3  0  0  0  0  0  0
  161.3330  207.0930  148.9640 C   0  0  0  0  0  0  0  0  0  0  0  0
  161.6040  206.5230  153.2380 C   0  0  0  0  0  2  0  0  0  0  0  0
  161.2870  210.1430  156.1110 O   0  0  0  0  0  1  0  0  0  0  0  0
  160.6910  210.0360  154.8550 C   0  0  1  0  0  3  0  0  0  0  0  0
  161.6400  209.9720  153.9030 N   0  0  0  0  0  2  0  0  0  0  0  0
  160.8000  207.3180  154.2110 C   0  0  0  0  0  0  0  0  0  0  0  0
  160.9810  208.7270  154.2990 N   0  0  0  0  0  0  0  0  0  0  0  0
  159.9430  206.7480  154.9340 O   0  0  0  0  0  0  0  0  0  0  0  0
  1  4  1  0  0  0  0
  1  2  1  0  0  0  0
  2 11  1  1  0  0  0
  3 13  1  0  0  0  0
  3  6  1  0  0  0  0
  4 16  1  0  0  0  0
  5 12  1  0  0  0  0
  6 18  1  0  0  0  0
  7  8  1  0  0  0  0
  8  5  1  0  0  0  0
  8  4  2  0  0  0  0
  9 15  1  0  0  0  0
 10  9  1  0  0  0  0
 11 17  1  0  0  0  0
 12 16  2  0  0  0  0
 13  1  2  0  0  0  0
 14  7  2  0  0  0  0
 14 13  1  0  0  0  0
 15 17  1  0  0  0  0
 17 19  1  1  0  0  0
 18  2  1  0  0  0  0
 18  9  2  0  0  0  0
 19 23  1  0  0  0  0
 21 20  1  1  0  0  0
 22 24  1  0  0  0  0
 22 21  1  0  0  0  0
 23 24  1  0  0  0  0
 23 25  2  0  0  0  0
 24 21  1  0  0  0  0
M  END
>  <MODEL>
1

>  <REMARK>
 VINA RESULT:     -10.3      0.000      0.000
  Name = 
  2 active torsions:
  status: ('A' for Active; 'I' for Inactive)
    1  A    between atoms: C_6  and  C_15
    2  A    between atoms: C_6  and  C_23
                            x       y       z     vdW  Elec       q    Type
                         _______ _______ _______ _____ _____    ______ ____

>  <TORSDO>
F 2

$$$$
=
 OpenBabel11052422063D

 25 29  0  0  1  0  0  0  0  0999 V2000
  161.3530  203.8740  149.6410 C   0  0  0  0  0  0  0  0  0  0  0  0
  161.8010  205.2470  150.1190 C   0  0  1  0  0  3  0  0  0  0  0  0
  161.3300  203.1250  152.0500 C   0  0  0  0  0  2  0  0  0  0  0  0
  161.2750  203.5100  148.2790 C   0  0  0  0  0  0  0  0  0  0  0  0
  160.8940  202.1060  146.5330 O   0  0  0  0  0  0  0  0  0  0  0  0
  161.0010  204.4710  152.3790 O   0  0  0  0  0  0  0  0  0  0  0  0
  160.6270  201.2490  148.8290 C   0  0  0  0  0  3  0  0  0  0  0  0
  160.9120  202.2460  147.9020 C   0  0  0  0  0  0  0  0  0  0  0  0
  161.0930  206.8020  151.9500 C   0  0  0  0  0  0  0  0  0  0  0  0
  160.5940  207.0560  153.3310 C   0  0  0  0  0  1  0  0  0  0  0  0
  161.4420  206.3790  149.1580 C   0  0  0  0  0  2  0  0  0  0  0  0
  161.2720  203.3300  145.9090 C   0  0  0  0  0  3  0  0  0  0  0  0
  161.1010  202.8590  150.5960 C   0  0  0  0  0  0  0  0  0  0  0  0
  160.7370  201.5630  150.1900 C   0  0  0  0  0  3  0  0  0  0  0  0
  161.2120  207.9920  151.0330 C   0  0  0  0  0  2  0  0  0  0  0  0
  161.5640  204.3150  147.0580 C   0  0  0  0  0  3  0  0  0  0  0  0
  161.9570  207.6850  149.7340 C   0  0  2  0  0  3  0  0  0  0  0  0
  161.2800  205.5390  151.5180 C   0  0  0  0  0  0  0  0  0  0  0  0
  161.7450  208.8030  148.7270 C   0  0  0  0  0  2  0  0  0  0  0  0
  163.1030  213.1930  148.1410 O   0  0  0  0  0  1  0  0  0  0  0  0
  161.8130  212.7670  148.4540 C   0  0  1  0  0  3  0  0  0  0  0  0
  161.3120  212.0410  147.4370 N   0  0  0  0  0  2  0  0  0  0  0  0
  162.0940  210.1250  149.3230 C   0  0  0  0  0  0  0  0  0  0  0  0
  161.8120  211.3230  148.6100 N   0  0  0  0  0  0  0  0  0  0  0  0
  162.6140  210.1820  150.4670 O   0  0  0  0  0  0  0  0  0  0  0  0
  1  2  1  0  0  0  0
  1 13  1  0  0  0  0
  2 11  1  6  0  0  0
  2 18  1  0  0  0  0
  3  6  1  0  0  0  0
  4  1  2  0  0  0  0
  5  8  1  0  0  0  0
  7 14  1  0  0  0  0
  8  4  1  0  0  0  0
  8  7  2  0  0  0  0
  9 10  1  0  0  0  0
 11 17  1  0  0  0  0
 12  5  1  0  0  0  0
 12 16  2  0  0  0  0
 13  3  1  0  0  0  0
 14 13  2  0  0  0  0
 15  9  1  0  0  0  0
 16  4  1  0  0  0  0
 17 19  1  6  0  0  0
 17 15  1  0  0  0  0
 18  9  2  0  0  0  0
 18  6  1  0  0  0  0
 19 23  1  0  0  0  0
 21 20  1  6  0  0  0
 21 24  1  0  0  0  0
 22 21  1  0  0  0  0
 22 24  1  0  0  0  0
 23 25  2  0  0  0  0
 24 23  1  0  0  0  0
M  END
>  <MODEL>
2

>  <REMARK>
 VINA RESULT:      -9.9      2.665      4.563
  Name = 
  2 active torsions:
  status: ('A' for Active; 'I' for Inactive)
    1  A    between atoms: C_6  and  C_15
    2  A    between atoms: C_6  and  C_23
                            x       y       z     vdW  Elec       q    Type
                         _______ _______ _______ _____ _____    ______ ____

>  <TORSDO>
F 2

$$$$
=
 OpenBabel11052422063D

 25 29  0  0  1  0  0  0  0  0999 V2000
  161.2260  203.6790  147.6490 C   0  0  0  0  0  0  0  0  0  0  0  0
  161.6280  204.3950  148.9290 C   0  0  1  0  0  3  0  0  0  0  0  0
  161.3930  201.4980  148.9060 C   0  0  0  0  0  2  0  0  0  0  0  0
  161.0820  204.3280  146.4040 C   0  0  0  0  0  0  0  0  0  0  0  0
  160.6700  204.4530  144.1720 O   0  0  0  0  0  0  0  0  0  0  0  0
  161.0130  202.2320  150.0660 O   0  0  0  0  0  0  0  0  0  0  0  0
  160.5930  202.2490  145.2750 C   0  0  0  0  0  3  0  0  0  0  0  0
  160.7660  203.6300  145.2710 C   0  0  0  0  0  0  0  0  0  0  0  0
  160.9530  204.2350  151.3350 C   0  0  0  0  0  0  0  0  0  0  0  0
  160.5280  203.4440  152.5250 C   0  0  0  0  0  1  0  0  0  0  0  0
  161.1490  205.8450  148.9970 C   0  0  0  0  0  2  0  0  0  0  0  0
  160.9420  205.8010  144.5440 C   0  0  0  0  0  3  0  0  0  0  0  0
  161.0880  202.2690  147.6610 C   0  0  0  0  0  0  0  0  0  0  0  0
  160.7710  201.5660  146.4850 C   0  0  0  0  0  3  0  0  0  0  0  0
  160.9500  205.7360  151.4710 C   0  0  0  0  0  2  0  0  0  0  0  0
  161.2510  205.7670  146.0530 C   0  0  0  0  0  3  0  0  0  0  0  0
  161.6280  206.4520  150.3030 C   0  0  2  0  0  3  0  0  0  0  0  0
  161.1800  203.6190  150.1580 C   0  0  0  0  0  0  0  0  0  0  0  0
  161.2940  207.9340  150.3270 C   0  0  0  0  0  2  0  0  0  0  0  0
  161.6180  211.6160  147.5350 O   0  0  0  0  0  1  0  0  0  0  0  0
  162.4090  211.3620  148.6530 C   0  0  1  0  0  3  0  0  0  0  0  0
  161.6500  211.3830  149.7640 N   0  0  0  0  0  2  0  0  0  0  0  0
  162.0180  208.6560  149.2410 C   0  0  0  0  0  0  0  0  0  0  0  0
  162.0340  210.0790  149.2220 N   0  0  0  0  0  0  0  0  0  0  0  0
  162.6350  208.0090  148.3560 O   0  0  0  0  0  0  0  0  0  0  0  0
  1 13  1  0  0  0  0
  1  2  1  0  0  0  0
  2 11  1  6  0  0  0
  2 18  1  0  0  0  0
  3  6  1  0  0  0  0
  4  1  2  0  0  0  0
  5 12  1  0  0  0  0
  5  8  1  0  0  0  0
  6 18  1  0  0  0  0
  7 14  1  0  0  0  0
  8  7  2  0  0  0  0
  8  4  1  0  0  0  0
  9 15  1  0  0  0  0
  9 10  1  0  0  0  0
 11 17  1  0  0  0  0
 12 16  2  0  0  0  0
 13  3  1  0  0  0  0
 14 13  2  0  0  0  0
 16  4  1  0  0  0  0
 17 19  1  6  0  0  0
 17 15  1  0  0  0  0
 18  9  2  0  0  0  0
 21 20  1  6  0  0  0
 21 24  1  0  0  0  0
 21 22  1  0  0  0  0
 23 19  1  0  0  0  0
 24 23  1  0  0  0  0
 24 22  1  0  0  0  0
 25 23  2  0  0  0  0
M  END
>  <MODEL>
3

>  <REMARK>
 VINA RESULT:      -9.7      2.956      4.747
  Name = 
  2 active torsions:
  status: ('A' for Active; 'I' for Inactive)
    1  A    between atoms: C_6  and  C_15
    2  A    between atoms: C_6  and  C_23
                            x       y       z     vdW  Elec       q    Type
                         _______ _______ _______ _____ _____    ______ ____

>  <TORSDO>
F 2

$$$$
=
 OpenBabel11052422063D

 25 29  0  0  1  0  0  0  0  0999 V2000
  161.0230  205.3910  149.4090 C   0  0  0  0  0  0  0  0  0  0  0  0
  160.7870  206.7890  149.9580 C   0  0  1  0  0  3  0  0  0  0  0  0
  161.0620  206.3880  147.0920 C   0  0  0  0  0  2  0  0  0  0  0  0
  160.9840  204.2240  150.2030 C   0  0  0  0  0  0  0  0  0  0  0  0
  161.0870  201.9890  150.6010 O   0  0  0  0  0  0  0  0  0  0  0  0
  161.5850  207.5660  147.6970 O   0  0  0  0  0  0  0  0  0  0  0  0
  161.3480  202.7990  148.2870 C   0  0  0  0  0  3  0  0  0  0  0  0
  161.1550  202.9840  149.6520 C   0  0  0  0  0  0  0  0  0  0  0  0
  161.7860  209.0470  149.5400 C   0  0  0  0  0  0  0  0  0  0  0  0
  162.3820  210.0660  148.6300 C   0  0  0  0  0  1  0  0  0  0  0  0
  161.2480  206.9670  151.4050 C   0  0  0  0  0  2  0  0  0  0  0  0
  160.8470  202.5520  151.8870 C   0  0  0  0  0  3  0  0  0  0  0  0
  161.1820  205.2150  148.0120 C   0  0  0  0  0  0  0  0  0  0  0  0
  161.3480  203.9320  147.4620 C   0  0  0  0  0  3  0  0  0  0  0  0
  161.7830  209.3610  151.0140 C   0  0  0  0  0  2  0  0  0  0  0  0
  160.7470  204.0740  151.6680 C   0  0  0  0  0  3  0  0  0  0  0  0
  160.9410  208.3870  151.8390 C   0  0  2  0  0  3  0  0  0  0  0  0
  161.4110  207.8460  149.0580 C   0  0  0  0  0  0  0  0  0  0  0  0
  161.2510  208.5440  153.3190 C   0  0  0  0  0  2  0  0  0  0  0  0
  159.8980  212.8970  152.4950 O   0  0  0  0  0  1  0  0  0  0  0  0
  159.4100  212.0610  153.4980 C   0  0  1  0  0  3  0  0  0  0  0  0
  158.7770  211.0090  152.9480 N   0  0  0  0  0  2  0  0  0  0  0  0
  161.2710  209.9850  153.7050 C   0  0  0  0  0  0  0  0  0  0  0  0
  160.1310  210.8010  153.4620 N   0  0  0  0  0  0  0  0  0  0  0  0
  162.2840  210.4720  154.2690 O   0  0  0  0  0  0  0  0  0  0  0  0
  1  2  1  0  0  0  0
  1  4  1  0  0  0  0
  2 11  1  1  0  0  0
  3  6  1  0  0  0  0
  3 13  1  0  0  0  0
  4 16  1  0  0  0  0
  5 12  1  0  0  0  0
  6 18  1  0  0  0  0
  7  8  1  0  0  0  0
  8  4  2  0  0  0  0
  8  5  1  0  0  0  0
  9 15  1  0  0  0  0
 10  9  1  0  0  0  0
 11 17  1  0  0  0  0
 13  1  2  0  0  0  0
 14 13  1  0  0  0  0
 14  7  2  0  0  0  0
 15 17  1  0  0  0  0
 16 12  2  0  0  0  0
 17 19  1  1  0  0  0
 18  9  2  0  0  0  0
 18  2  1  0  0  0  0
 19 23  1  0  0  0  0
 21 20  1  6  0  0  0
 22 24  1  0  0  0  0
 22 21  1  0  0  0  0
 23 25  2  0  0  0  0
 24 21  1  0  0  0  0
 24 23  1  0  0  0  0
M  END
>  <MODEL>
4

>  <REMARK>
 VINA RESULT:      -9.6      1.720      2.113
  Name = 
  2 active torsions:
  status: ('A' for Active; 'I' for Inactive)
    1  A    between atoms: C_6  and  C_15
    2  A    between atoms: C_6  and  C_23
                            x       y       z     vdW  Elec       q    Type
                         _______ _______ _______ _____ _____    ______ ____

>  <TORSDO>
F 2

$$$$
=
 OpenBabel11052422063D

 25 29  0  0  1  0  0  0  0  0999 V2000
  161.0140  205.3020  149.3910 C   0  0  0  0  0  0  0  0  0  0  0  0
  160.7890  206.6750  150.0030 C   0  0  1  0  0  3  0  0  0  0  0  0
  161.0030  206.3950  147.1170 C   0  0  0  0  0  2  0  0  0  0  0  0
  160.9940  204.1030  150.1360 C   0  0  0  0  0  0  0  0  0  0  0  0
  161.1080  201.8530  150.4370 O   0  0  0  0  0  0  0  0  0  0  0  0
  161.5380  207.5480  147.7610 O   0  0  0  0  0  0  0  0  0  0  0  0
  161.3180  202.7610  148.1540 C   0  0  0  0  0  3  0  0  0  0  0  0
  161.1540  202.8870  149.5300 C   0  0  0  0  0  0  0  0  0  0  0  0
  161.7770  208.9510  149.6590 C   0  0  0  0  0  0  0  0  0  0  0  0
  162.3520  210.0080  148.7800 C   0  0  0  0  0  1  0  0  0  0  0  0
  161.2810  206.7930  151.4460 C   0  0  0  0  0  2  0  0  0  0  0  0
  160.8950  202.3610  151.7500 C   0  0  0  0  0  3  0  0  0  0  0  0
  161.1440  205.1850  147.9850 C   0  0  0  0  0  0  0  0  0  0  0  0
  161.2990  203.9270  147.3780 C   0  0  0  0  0  3  0  0  0  0  0  0
  161.8060  209.2020  151.1450 C   0  0  0  0  0  2  0  0  0  0  0  0
  160.7890  203.8910  151.5970 C   0  0  0  0  0  3  0  0  0  0  0  0
  160.9830  208.1930  151.9460 C   0  0  2  0  0  3  0  0  0  0  0  0
  161.3930  207.7700  149.1350 C   0  0  0  0  0  0  0  0  0  0  0  0
  161.3250  208.2880  153.4240 C   0  0  0  0  0  2  0  0  0  0  0  0
  160.6000  210.9600  157.1370 O   0  0  0  0  0  1  0  0  0  0  0  0
  161.6080  211.1270  156.1900 C   0  0  1  0  0  3  0  0  0  0  0  0
  162.4500  210.0770  156.2290 N   0  0  0  0  0  2  0  0  0  0  0  0
  160.8330  209.5740  153.9990 C   0  0  0  0  0  0  0  0  0  0  0  0
  161.4600  210.1220  155.1530 N   0  0  0  0  0  0  0  0  0  0  0  0
  159.8820  210.1860  153.4490 O   0  0  0  0  0  0  0  0  0  0  0  0
  1  2  1  0  0  0  0
  1  4  1  0  0  0  0
  2 11  1  1  0  0  0
  3  6  1  0  0  0  0
  3 13  1  0  0  0  0
  4 16  1  0  0  0  0
  5 12  1  0  0  0  0
  6 18  1  0  0  0  0
  7  8  1  0  0  0  0
  8  4  2  0  0  0  0
  8  5  1  0  0  0  0
  9 15  1  0  0  0  0
 10  9  1  0  0  0  0
 11 17  1  0  0  0  0
 13  1  2  0  0  0  0
 14 13  1  0  0  0  0
 14  7  2  0  0  0  0
 15 17  1  0  0  0  0
 16 12  2  0  0  0  0
 17 19  1  1  0  0  0
 18  9  2  0  0  0  0
 18  2  1  0  0  0  0
 19 23  1  0  0  0  0
 21 22  1  0  0  0  0
 21 20  1  1  0  0  0
 23 24  1  0  0  0  0
 24 21  1  0  0  0  0
 24 22  1  0  0  0  0
 25 23  2  0  0  0  0
M  END
>  <MODEL>
5

>  <REMARK>
 VINA RESULT:      -9.6      1.347      1.613
  Name = 
  2 active torsions:
  status: ('A' for Active; 'I' for Inactive)
    1  A    between atoms: C_6  and  C_15
    2  A    between atoms: C_6  and  C_23
                            x       y       z     vdW  Elec       q    Type
                         _______ _______ _______ _____ _____    ______ ____

>  <TORSDO>
F 2

$$$$
=
 OpenBabel11052422063D

 25 29  0  0  1  0  0  0  0  0999 V2000
  161.2040  205.1040  150.2640 C   0  0  0  0  0  0  0  0  0  0  0  0
  160.7220  203.8560  149.5420 C   0  0  1  0  0  3  0  0  0  0  0  0
  160.5270  204.0190  152.4380 C   0  0  0  0  0  2  0  0  0  0  0  0
  161.6290  206.2750  149.5990 C   0  0  0  0  0  0  0  0  0  0  0  0
  162.3900  208.4110  149.4560 O   0  0  0  0  0  0  0  0  0  0  0  0
  160.8300  202.7740  151.8160 O   0  0  0  0  0  0  0  0  0  0  0  0
  161.9730  207.4430  151.6850 C   0  0  0  0  0  3  0  0  0  0  0  0
  162.0080  207.3900  150.2940 C   0  0  0  0  0  0  0  0  0  0  0  0
  160.9920  201.3910  149.8950 C   0  0  0  0  0  0  0  0  0  0  0  0
  161.1100  200.2020  150.7860 C   0  0  0  0  0  1  0  0  0  0  0  0
  161.3930  203.6320  148.1870 C   0  0  0  0  0  2  0  0  0  0  0  0
  162.2670  208.0030  148.0960 C   0  0  0  0  0  3  0  0  0  0  0  0
  161.1280  205.1570  151.6780 C   0  0  0  0  0  0  0  0  0  0  0  0
  161.5140  206.3150  152.3760 C   0  0  0  0  0  3  0  0  0  0  0  0
  161.1950  201.1660  148.4190 C   0  0  0  0  0  2  0  0  0  0  0  0
  161.7300  206.5590  148.1380 C   0  0  0  0  0  3  0  0  0  0  0  0
  160.8160  202.3750  147.5630 C   0  0  2  0  0  3  0  0  0  0  0  0
  160.8580  202.6230  150.4240 C   0  0  0  0  0  0  0  0  0  0  0  0
  161.3570  202.2140  146.1520 C   0  0  0  0  0  2  0  0  0  0  0  0
  160.2680  206.5310  144.8770 O   0  0  0  0  0  1  0  0  0  0  0  0
  161.1980  205.7010  144.2530 C   0  0  1  0  0  3  0  0  0  0  0  0
  162.2200  205.4490  145.0920 N   0  0  0  0  0  2  0  0  0  0  0  0
  160.6540  203.1300  145.2090 C   0  0  0  0  0  0  0  0  0  0  0  0
  161.2050  204.4100  144.9180 N   0  0  0  0  0  0  0  0  0  0  0  0
  159.5890  202.7630  144.6500 O   0  0  0  0  0  0  0  0  0  0  0  0
  1 13  1  0  0  0  0
  2 11  1  6  0  0  0
  2  1  1  0  0  0  0
  2 18  1  0  0  0  0
  4  1  2  0  0  0  0
  4  8  1  0  0  0  0
  5  8  1  0  0  0  0
  6  3  1  0  0  0  0
  7 14  1  0  0  0  0
  8  7  2  0  0  0  0
  9 18  2  0  0  0  0
  9 10  1  0  0  0  0
 12 16  2  0  0  0  0
 12  5  1  0  0  0  0
 13 14  2  0  0  0  0
 13  3  1  0  0  0  0
 15  9  1  0  0  0  0
 16  4  1  0  0  0  0
 17 19  1  6  0  0  0
 17 11  1  0  0  0  0
 17 15  1  0  0  0  0
 18  6  1  0  0  0  0
 21 20  1  1  0  0  0
 21 24  1  0  0  0  0
 21 22  1  0  0  0  0
 23 19  1  0  0  0  0
 24 22  1  0  0  0  0
 24 23  1  0  0  0  0
 25 23  2  0  0  0  0
M  END
>  <MODEL>
6

>  <REMARK>
 VINA RESULT:      -9.3      3.640      7.463
  Name = 
  2 active torsions:
  status: ('A' for Active; 'I' for Inactive)
    1  A    between atoms: C_6  and  C_15
    2  A    between atoms: C_6  and  C_23
                            x       y       z     vdW  Elec       q    Type
                         _______ _______ _______ _____ _____    ______ ____

>  <TORSDO>
F 2

$$$$
=
 OpenBabel11052422063D

 25 29  0  0  1  0  0  0  0  0999 V2000
  161.2260  203.5930  147.6820 C   0  0  0  0  0  0  0  0  0  0  0  0
  161.5770  204.2910  148.9860 C   0  0  1  0  0  3  0  0  0  0  0  0
  161.4620  201.3880  148.8850 C   0  0  0  0  0  2  0  0  0  0  0  0
  161.0780  204.2680  146.4510 C   0  0  0  0  0  0  0  0  0  0  0  0
  160.6990  204.4360  144.2160 O   0  0  0  0  0  0  0  0  0  0  0  0
  161.0320  202.0750  150.0560 O   0  0  0  0  0  0  0  0  0  0  0  0
  160.6930  202.2020  145.2610 C   0  0  0  0  0  3  0  0  0  0  0  0
  160.8100  203.5880  145.2950 C   0  0  0  0  0  0  0  0  0  0  0  0
  160.8690  204.0410  151.3750 C   0  0  0  0  0  0  0  0  0  0  0  0
  160.4560  203.2020  152.5360 C   0  0  0  0  0  1  0  0  0  0  0  0
  161.0390  205.7180  149.0830 C   0  0  0  0  0  2  0  0  0  0  0  0
  160.9090  205.7830  144.6270 C   0  0  0  0  0  3  0  0  0  0  0  0
  161.1470  202.1790  147.6550 C   0  0  0  0  0  0  0  0  0  0  0  0
  160.8780  201.4950  146.4560 C   0  0  0  0  0  3  0  0  0  0  0  0
  160.8020  205.5360  151.5500 C   0  0  0  0  0  2  0  0  0  0  0  0
  161.1940  205.7220  146.1400 C   0  0  0  0  0  3  0  0  0  0  0  0
  161.4700  206.3090  150.4120 C   0  0  2  0  0  3  0  0  0  0  0  0
  161.1400  203.4650  150.1870 C   0  0  0  0  0  0  0  0  0  0  0  0
  161.0760  207.7760  150.4680 C   0  0  0  0  0  2  0  0  0  0  0  0
  160.8180  209.6090  154.7140 O   0  0  0  0  0  1  0  0  0  0  0  0
  161.3980  208.3860  154.3820 C   0  0  1  0  0  3  0  0  0  0  0  0
  160.4560  207.5450  153.9170 N   0  0  0  0  0  2  0  0  0  0  0  0
  161.7500  208.4610  151.6090 C   0  0  0  0  0  0  0  0  0  0  0  0
  161.3290  208.2000  152.9430 N   0  0  0  0  0  0  0  0  0  0  0  0
  162.7060  209.2490  151.3950 O   0  0  0  0  0  0  0  0  0  0  0  0
  1  2  1  0  0  0  0
  2 11  1  6  0  0  0
  2 18  1  0  0  0  0
  3  6  1  0  0  0  0
  4  1  2  0  0  0  0
  5 12  1  0  0  0  0
  5  8  1  0  0  0  0
  6 18  1  0  0  0  0
  7  8  2  0  0  0  0
  7 14  1  0  0  0  0
  8  4  1  0  0  0  0
  9 15  1  0  0  0  0
  9 10  1  0  0  0  0
 11 17  1  0  0  0  0
 12 16  2  0  0  0  0
 13  1  1  0  0  0  0
 13  3  1  0  0  0  0
 14 13  2  0  0  0  0
 16  4  1  0  0  0  0
 17 19  1  6  0  0  0
 17 15  1  0  0  0  0
 18  9  2  0  0  0  0
 19 23  1  0  0  0  0
 21 20  1  6  0  0  0
 22 21  1  0  0  0  0
 23 24  1  0  0  0  0
 24 22  1  0  0  0  0
 24 21  1  0  0  0  0
 25 23  2  0  0  0  0
M  END
>  <MODEL>
7

>  <REMARK>
 VINA RESULT:      -9.2      1.757      3.864
  Name = 
  2 active torsions:
  status: ('A' for Active; 'I' for Inactive)
    1  A    between atoms: C_6  and  C_15
    2  A    between atoms: C_6  and  C_23
                            x       y       z     vdW  Elec       q    Type
                         _______ _______ _______ _____ _____    ______ ____

>  <TORSDO>
F 2

$$$$
=
 OpenBabel11052422063D

 25 29  0  0  1  0  0  0  0  0999 V2000
  161.5100  207.4600  151.1690 C   0  0  0  0  0  0  0  0  0  0  0  0
  161.7620  206.2090  150.3430 C   0  0  1  0  0  3  0  0  0  0  0  0
  162.0920  208.8320  149.1340 C   0  0  0  0  0  2  0  0  0  0  0  0
  161.2480  207.4390  152.5560 C   0  0  0  0  0  0  0  0  0  0  0  0
  160.8260  208.3500  154.5950 O   0  0  0  0  0  0  0  0  0  0  0  0
  161.5740  207.7540  148.3610 O   0  0  0  0  0  0  0  0  0  0  0  0
  161.1720  209.8510  152.6700 C   0  0  0  0  0  3  0  0  0  0  0  0
  161.0750  208.5970  153.2640 C   0  0  0  0  0  0  0  0  0  0  0  0
  161.1240  205.4460  148.0450 C   0  0  0  0  0  0  0  0  0  0  0  0
  160.8560  205.7170  146.6040 C   0  0  0  0  0  1  0  0  0  0  0  0
  161.0130  204.9770  150.8490 C   0  0  0  0  0  2  0  0  0  0  0  0
  160.8310  206.9470  154.8440 C   0  0  0  0  0  3  0  0  0  0  0  0
  161.6470  208.7310  150.5580 C   0  0  0  0  0  0  0  0  0  0  0  0
  161.4750  209.9110  151.3030 C   0  0  0  0  0  3  0  0  0  0  0  0
  160.8310  204.0560  148.5480 C   0  0  0  0  0  2  0  0  0  0  0  0
  161.1370  206.2810  153.4890 C   0  0  0  0  0  3  0  0  0  0  0  0
  161.3620  203.7990  149.9590 C   0  0  2  0  0  3  0  0  0  0  0  0
  161.4690  206.4540  148.8700 C   0  0  0  0  0  0  0  0  0  0  0  0
  160.7480  202.5310  150.5300 C   0  0  0  0  0  2  0  0  0  0  0  0
  160.9150  200.9280  146.1880 O   0  0  0  0  0  1  0  0  0  0  0  0
  161.2060  200.2030  147.3430 C   0  0  1  0  0  3  0  0  0  0  0  0
  162.2910  200.7230  147.9460 N   0  0  0  0  0  2  0  0  0  0  0  0
  160.1420  201.7030  149.4490 C   0  0  0  0  0  0  0  0  0  0  0  0
  160.9780  201.0450  148.5040 N   0  0  0  0  0  0  0  0  0  0  0  0
  158.8930  201.5650  149.3860 O   0  0  0  0  0  0  0  0  0  0  0  0
  1  4  1  0  0  0  0
  2 11  1  1  0  0  0
  2  1  1  0  0  0  0
  3 13  1  0  0  0  0
  4  8  2  0  0  0  0
  4 16  1  0  0  0  0
  5 12  1  0  0  0  0
  6 18  1  0  0  0  0
  6  3  1  0  0  0  0
  7  8  1  0  0  0  0
  8  5  1  0  0  0  0
  9 15  1  0  0  0  0
  9 18  2  0  0  0  0
 10  9  1  0  0  0  0
 13  1  2  0  0  0  0
 13 14  1  0  0  0  0
 14  7  2  0  0  0  0
 15 17  1  0  0  0  0
 16 12  2  0  0  0  0
 17 19  1  1  0  0  0
 17 11  1  0  0  0  0
 18  2  1  0  0  0  0
 21 20  1  6  0  0  0
 21 22  1  0  0  0  0
 21 24  1  0  0  0  0
 22 24  1  0  0  0  0
 23 19  1  0  0  0  0
 24 23  1  0  0  0  0
 25 23  2  0  0  0  0
M  END
>  <MODEL>
8

>  <REMARK>
 VINA RESULT:      -9.0      3.132      7.009
  Name = 
  2 active torsions:
  status: ('A' for Active; 'I' for Inactive)
    1  A    between atoms: C_6  and  C_15
    2  A    between atoms: C_6  and  C_23
                            x       y       z     vdW  Elec       q    Type
                         _______ _______ _______ _____ _____    ______ ____

>  <TORSDO>
F 2

$$$$
=
 OpenBabel11052422063D

 25 29  0  0  1  0  0  0  0  0999 V2000
  161.3910  205.1940  150.0480 C   0  0  0  0  0  0  0  0  0  0  0  0
  161.7540  206.3190  151.0050 C   0  0  1  0  0  3  0  0  0  0  0  0
  161.4310  203.6110  152.0130 C   0  0  0  0  0  2  0  0  0  0  0  0
  161.3280  205.3520  148.6470 C   0  0  0  0  0  0  0  0  0  0  0  0
  161.0250  204.6690  146.5010 O   0  0  0  0  0  0  0  0  0  0  0  0
  161.0200  204.7190  152.8080 O   0  0  0  0  0  0  0  0  0  0  0  0
  160.8280  203.0120  148.3160 C   0  0  0  0  0  3  0  0  0  0  0  0
  161.0430  204.2960  147.8250 C   0  0  0  0  0  0  0  0  0  0  0  0
  160.9620  207.0450  153.2670 C   0  0  0  0  0  0  0  0  0  0  0  0
  160.4560  206.7420  154.6360 C   0  0  0  0  0  1  0  0  0  0  0  0
  161.3180  207.7020  150.5210 C   0  0  0  0  0  2  0  0  0  0  0  0
  161.3210  206.0570  146.3770 C   0  0  0  0  0  3  0  0  0  0  0  0
  161.2100  203.8850  150.5590 C   0  0  0  0  0  0  0  0  0  0  0  0
  160.9260  202.8100  149.6990 C   0  0  0  0  0  3  0  0  0  0  0  0
  160.9990  208.4940  152.8540 C   0  0  0  0  0  2  0  0  0  0  0  0
  161.5570  206.5660  147.8120 C   0  0  0  0  0  3  0  0  0  0  0  0
  161.7540  208.7330  151.5460 C   0  0  2  0  0  3  0  0  0  0  0  0
  161.2250  206.0440  152.4050 C   0  0  0  0  0  0  0  0  0  0  0  0
  161.4660  210.1280  151.0170 C   0  0  0  0  0  2  0  0  0  0  0  0
  161.1450  212.2100  146.8920 O   0  0  0  0  0  1  0  0  0  0  0  0
  162.1320  212.4340  147.8500 C   0  0  1  0  0  3  0  0  0  0  0  0
  161.5810  212.9690  148.9560 N   0  0  0  0  0  2  0  0  0  0  0  0
  161.9560  210.2740  149.6160 C   0  0  0  0  0  0  0  0  0  0  0  0
  161.9140  211.5450  148.9770 N   0  0  0  0  0  0  0  0  0  0  0  0
  162.4310  209.2800  149.0090 O   0  0  0  0  0  0  0  0  0  0  0  0
  1 13  1  0  0  0  0
  1  2  1  0  0  0  0
  2 11  1  6  0  0  0
  2 18  1  0  0  0  0
  3  6  1  0  0  0  0
  4  1  2  0  0  0  0
  5  8  1  0  0  0  0
  7 14  1  0  0  0  0
  8  7  2  0  0  0  0
  8  4  1  0  0  0  0
  9 10  1  0  0  0  0
 11 17  1  0  0  0  0
 12  5  1  0  0  0  0
 12 16  2  0  0  0  0
 13  3  1  0  0  0  0
 14 13  2  0  0  0  0
 15  9  1  0  0  0  0
 16  4  1  0  0  0  0
 17 19  1  6  0  0  0
 17 15  1  0  0  0  0
 18  6  1  0  0  0  0
 18  9  2  0  0  0  0
 21 20  1  6  0  0  0
 21 22  1  0  0  0  0
 21 24  1  0  0  0  0
 22 24  1  0  0  0  0
 23 19  1  0  0  0  0
 24 23  1  0  0  0  0
 25 23  2  0  0  0  0
M  END
>  <MODEL>
9

>  <REMARK>
 VINA RESULT:      -9.0      2.581      4.833
  Name = 
  2 active torsions:
  status: ('A' for Active; 'I' for Inactive)
    1  A    between atoms: C_6  and  C_15
    2  A    between atoms: C_6  and  C_23
                            x       y       z     vdW  Elec       q    Type
                         _______ _______ _______ _____ _____    ______ ____

>  <TORSDO>
F 2

$$$$
