=
 OpenBabel11062409093D

 37 39  0  0  1  0  0  0  0  0999 V2000
  158.7170  211.9940  151.6850 C   0  0  1  0  0  3  0  0  0  0  0  0
  158.5820  214.4490  149.4730 C   0  0  0  0  0  2  0  0  0  0  0  0
  160.8450  211.1040  147.6030 C   0  0  0  0  0  3  0  0  0  0  0  0
  159.0970  212.7140  154.4330 O   0  0  0  0  0  0  0  0  0  0  0  0
  161.9300  208.2710  152.8330 C   0  0  0  0  0  2  0  0  0  0  0  0
  161.5040  214.0690  148.1130 C   0  0  0  0  0  3  0  0  0  0  0  0
  160.1480  209.5730  154.0730 C   0  0  0  0  0  2  0  0  0  0  0  0
  162.1460  210.7370  154.5570 O   0  0  0  0  0  1  0  0  0  0  0  0
  156.8200  212.6880  154.2490 O   0  0  0  0  0  1  0  0  0  0  0  0
  160.0850  212.1670  147.3400 C   0  0  0  0  0  3  0  0  0  0  0  0
  161.9650  208.1700  150.4090 C   0  0  0  0  0  0  0  0  0  0  0  0
  162.8150  213.4000  147.9890 C   0  0  0  0  0  3  0  0  0  0  0  0
  160.1540  211.9460  154.9780 C   0  0  2  0  0  3  0  0  0  0  0  0
  157.9000  213.0540  151.2780 O   0  0  0  0  0  0  0  0  0  0  0  0
  158.0060  214.2290  147.0160 C   0  0  0  0  0  1  0  0  0  0  0  0
  162.6170  209.7410  148.6770 C   0  0  0  0  0  2  0  0  0  0  0  0
  157.9710  211.9040  154.1840 C   0  0  1  0  0  3  0  0  0  0  0  0
  163.0380  212.0970  148.1490 C   0  0  0  0  0  3  0  0  0  0  0  0
  158.0250  213.0940  149.8870 C   0  0  0  0  0  2  0  0  0  0  0  0
  160.8700  210.9380  154.0290 C   0  0  2  0  0  0  0  0  0  0  0  0
  160.4510  208.6260  152.9110 C   0  0  0  0  0  2  0  0  0  0  0  0
  161.9870  211.1230  148.5700 C   0  0  1  0  0  3  0  0  0  0  0  0
  160.1200  212.5120  152.0330 C   0  0  0  0  0  2  0  0  0  0  0  0
  160.2950  213.5390  147.8680 C   0  0  0  0  0  0  0  0  0  0  0  0
  162.2380  207.5770  151.5470 C   0  0  0  0  0  0  0  0  0  0  0  0
  159.1130  214.4530  148.0410 C   0  0  2  0  0  3  0  0  0  0  0  0
  161.0710  211.4430  152.5730 C   0  0  0  0  0  2  0  0  0  0  0  0
  159.8110  211.3880  156.2160 O   0  0  0  0  0  1  0  0  0  0  0  0
  158.0360  211.2090  152.8130 C   0  0  0  0  0  2  0  0  0  0  0  0
  161.6700  208.7630  149.2880 C   0  0  0  0  0  3  0  0  0  0  0  0
  162.8280  206.3060  151.5940 O   0  0  0  0  0  0  0  0  0  0  0  0
  162.1200  205.0940  151.3370 C   0  0  1  0  0  3  0  0  0  0  0  0
  161.3750  205.3480  153.6000 O   0  0  0  0  0  1  0  0  0  0  0  0
  160.4790  203.5800  152.4460 O   0  0  0  0  0  0  0  0  0  0  0  0
  161.3190  204.6820  152.5310 C   0  0  0  0  0  0  0  0  0  0  0  0
  160.4990  205.4350  149.2390 C   0  0  0  0  0  3  0  0  0  0  0  0
  161.2320  205.2810  150.1850 C   0  0  0  0  0  0  0  0  0  0  0  0
  1 23  1  1  0  0  0
  1 29  1  0  0  0  0
  2 19  1  0  0  0  0
  4 13  1  0  0  0  0
  5 21  1  0  0  0  0
 10  3  2  0  0  0  0
 10 24  1  0  0  0  0
 11 25  2  0  0  0  0
 12  6  1  0  0  0  0
 12 18  2  0  0  0  0
 13 28  1  1  0  0  0
 14  1  1  0  0  0  0
 16 30  1  0  0  0  0
 17  9  1  6  0  0  0
 17  4  1  0  0  0  0
 18 22  1  0  0  0  0
 19 14  1  0  0  0  0
 20  7  1  0  0  0  0
 20  8  1  1  0  0  0
 20 13  1  0  0  0  0
 21  7  1  0  0  0  0
 22  3  1  6  0  0  0
 22 16  1  0  0  0  0
 23 27  1  0  0  0  0
 24 26  1  0  0  0  0
 24  6  2  0  0  0  0
 25 31  1  0  0  0  0
 25  5  1  0  0  0  0
 26 15  1  6  0  0  0
 26  2  1  0  0  0  0
 27 20  1  0  0  0  0
 29 17  1  0  0  0  0
 30 11  2  0  0  0  0
 32 37  1  6  0  0  0
 32 31  1  0  0  0  0
 32 35  1  0  0  0  0
 34 35  2  0  0  0  0
 35 33  1  0  0  0  0
 36 37  3  0  0  0  0
M  END
>  <MODEL>
1

>  <REMARK>
 VINA RESULT:      -6.1      0.000      0.000
  Name = 
  4 active torsions:
  status: ('A' for Active; 'I' for Inactive)
    1  A    between atoms: O_6  and  C_8
    2  A    between atoms: O_6  and  C_31
    3  A    between atoms: C_8  and  C_19
    4  A    between atoms: C_8  and  C_35
                            x       y       z     vdW  Elec       q    Type
                         _______ _______ _______ _____ _____    ______ ____

>  <TORSDO>
F 4

$$$$
=
 OpenBabel11062409093D

 37 39  0  0  1  0  0  0  0  0999 V2000
  159.0090  211.9070  151.9110 C   0  0  1  0  0  3  0  0  0  0  0  0
  159.2170  214.4530  149.8100 C   0  0  0  0  0  2  0  0  0  0  0  0
  160.7910  210.8620  147.7010 C   0  0  0  0  0  3  0  0  0  0  0  0
  159.6140  212.4170  154.6660 O   0  0  0  0  0  0  0  0  0  0  0  0
  161.5680  207.6360  152.7560 C   0  0  0  0  0  2  0  0  0  0  0  0
  161.9750  213.6410  148.3020 C   0  0  0  0  0  3  0  0  0  0  0  0
  160.0890  209.1630  154.1290 C   0  0  0  0  0  2  0  0  0  0  0  0
  162.2760  209.9420  154.5680 O   0  0  0  0  0  1  0  0  0  0  0  0
  157.3620  212.7920  154.5870 O   0  0  0  0  0  1  0  0  0  0  0  0
  160.2180  212.0520  147.5180 C   0  0  0  0  0  3  0  0  0  0  0  0
  161.4920  207.6480  150.3310 C   0  0  0  0  0  0  0  0  0  0  0  0
  163.1440  212.7650  148.0900 C   0  0  0  0  0  3  0  0  0  0  0  0
  160.5420  211.4540  155.1290 C   0  0  2  0  0  3  0  0  0  0  0  0
  158.3740  213.1100  151.5860 O   0  0  0  0  0  0  0  0  0  0  0  0
  158.5180  214.4530  147.3760 C   0  0  0  0  0  1  0  0  0  0  0  0
  162.3390  209.1650  148.6360 C   0  0  0  0  0  2  0  0  0  0  0  0
  158.3560  211.8260  154.4360 C   0  0  1  0  0  3  0  0  0  0  0  0
  163.1430  211.4360  148.1860 C   0  0  0  0  0  3  0  0  0  0  0  0
  158.4500  213.1950  150.1940 C   0  0  0  0  0  2  0  0  0  0  0  0
  161.0350  210.3840  154.1080 C   0  0  2  0  0  0  0  0  0  0  0  0
  160.1780  208.2350  152.9170 C   0  0  0  0  0  2  0  0  0  0  0  0
  161.9550  210.6380  148.6150 C   0  0  1  0  0  3  0  0  0  0  0  0
  160.4930  212.1590  152.2150 C   0  0  0  0  0  2  0  0  0  0  0  0
  160.6830  213.3410  148.0920 C   0  0  0  0  0  0  0  0  0  0  0  0
  161.7000  206.9620  151.4300 C   0  0  0  0  0  0  0  0  0  0  0  0
  159.6850  214.4350  148.3560 C   0  0  2  0  0  3  0  0  0  0  0  0
  161.2640  210.9170  152.6660 C   0  0  0  0  0  2  0  0  0  0  0  0
  160.1550  210.9040  156.3580 O   0  0  0  0  0  1  0  0  0  0  0  0
  158.2460  211.1970  153.0360 C   0  0  0  0  0  2  0  0  0  0  0  0
  161.2600  208.3360  149.2500 C   0  0  0  0  0  3  0  0  0  0  0  0
  162.0620  205.6080  151.3970 O   0  0  0  0  0  0  0  0  0  0  0  0
  161.1750  204.5600  151.0090 C   0  0  1  0  0  3  0  0  0  0  0  0
  160.4440  205.3350  148.8620 O   0  0  0  0  0  1  0  0  0  0  0  0
  161.7340  203.4390  148.8530 O   0  0  0  0  0  0  0  0  0  0  0  0
  161.0800  204.4670  149.5190 C   0  0  0  0  0  0  0  0  0  0  0  0
  162.0480  202.2380  152.0030 C   0  0  0  0  0  3  0  0  0  0  0  0
  161.6540  203.2870  151.5550 C   0  0  0  0  0  0  0  0  0  0  0  0
  1 23  1  1  0  0  0
  1 29  1  0  0  0  0
  2 19  1  0  0  0  0
  4 13  1  0  0  0  0
  5 21  1  0  0  0  0
 10  3  2  0  0  0  0
 10 24  1  0  0  0  0
 11 25  2  0  0  0  0
 12 18  2  0  0  0  0
 12  6  1  0  0  0  0
 13 28  1  1  0  0  0
 14  1  1  0  0  0  0
 16 30  1  0  0  0  0
 17  9  1  6  0  0  0
 17  4  1  0  0  0  0
 18 22  1  0  0  0  0
 19 14  1  0  0  0  0
 20  7  1  0  0  0  0
 20  8  1  1  0  0  0
 20 13  1  0  0  0  0
 21  7  1  0  0  0  0
 22  3  1  6  0  0  0
 22 16  1  0  0  0  0
 23 27  1  0  0  0  0
 24  6  2  0  0  0  0
 24 26  1  0  0  0  0
 25  5  1  0  0  0  0
 26 15  1  6  0  0  0
 26  2  1  0  0  0  0
 27 20  1  0  0  0  0
 29 17  1  0  0  0  0
 30 11  2  0  0  0  0
 31 25  1  0  0  0  0
 32 31  1  0  0  0  0
 32 37  1  6  0  0  0
 33 35  1  0  0  0  0
 34 35  2  0  0  0  0
 35 32  1  0  0  0  0
 37 36  3  0  0  0  0
M  END
>  <MODEL>
2

>  <REMARK>
 VINA RESULT:      -4.8      1.190      1.527
  Name = 
  4 active torsions:
  status: ('A' for Active; 'I' for Inactive)
    1  A    between atoms: O_6  and  C_8
    2  A    between atoms: O_6  and  C_31
    3  A    between atoms: C_8  and  C_19
    4  A    between atoms: C_8  and  C_35
                            x       y       z     vdW  Elec       q    Type
                         _______ _______ _______ _____ _____    ______ ____

>  <TORSDO>
F 4

$$$$
