=
 OpenBabel11062407493D

 34 38  0  0  1  0  0  0  0  0999 V2000
  161.5150  208.9160  152.9820 C   0  0  0  0  0  0  0  0  0  0  0  0
  162.3100  209.9100  150.8600 C   0  0  0  0  0  0  0  0  0  0  0  0
  161.3340  207.6680  150.7000 C   0  0  2  0  0  3  0  0  0  0  0  0
  160.2170  205.9130  148.2070 C   0  0  0  0  0  2  0  0  0  0  0  0
  161.0770  207.4020  155.3090 Cl  0  0  0  0  0  0  0  0  0  0  0  0
  162.7430  211.0150  151.5890 O   0  0  0  0  0  1  0  0  0  0  0  0
  162.0720  208.8770  148.6580 C   0  0  0  0  0  3  0  0  0  0  0  0
  161.7760  208.8500  151.4930 C   0  0  0  0  0  0  0  0  0  0  0  0
  161.6220  206.4060  148.5200 C   0  0  2  0  0  3  0  0  0  0  0  0
  160.2250  210.1060  153.3190 Cl  0  0  0  0  0  0  0  0  0  0  0  0
  160.7050  206.6440  151.3340 C   0  0  0  0  0  0  0  0  0  0  0  0
  161.1110  207.5920  153.5680 C   0  0  0  0  0  0  0  0  0  0  0  0
  162.4150  209.9400  149.3850 C   0  0  0  0  0  0  0  0  0  0  0  0
  159.3350  205.9240  149.3810 N   0  0  0  0  0  2  0  0  0  0  0  0
  160.0020  205.5100  150.6260 C   0  0  1  0  0  3  0  0  0  0  0  0
  161.6000  207.6670  149.2750 N   0  0  0  0  0  0  0  0  0  0  0  0
  160.6790  206.5890  152.8060 C   0  0  0  0  0  3  0  0  0  0  0  0
  161.1830  202.0600  149.4790 C   0  0  0  0  0  0  0  0  0  0  0  0
  162.1180  201.7550  150.4710 C   0  0  0  0  0  3  0  0  0  0  0  0
  160.7400  204.1960  150.5490 C   0  0  0  0  0  0  0  0  0  0  0  0
  162.3670  202.6670  151.5000 C   0  0  0  0  0  3  0  0  0  0  0  0
  160.4970  203.2760  149.5170 C   0  0  0  0  0  3  0  0  0  0  0  0
  161.6790  203.8830  151.5400 C   0  0  0  0  0  3  0  0  0  0  0  0
  160.8640  200.9190  148.1910 Cl  0  0  0  0  0  0  0  0  0  0  0  0
  162.6340  205.3740  146.4780 C   0  0  0  0  0  3  0  0  0  0  0  0
  161.9840  204.0540  146.7430 C   0  0  0  0  0  1  0  0  0  0  0  0
  162.4700  206.4360  147.2760 C   0  0  0  0  0  3  0  0  0  0  0  0
  162.9610  211.1440  148.6910 C   0  0  0  0  0  2  0  0  0  0  0  0
  160.1150  213.4380  148.6680 N   0  0  0  0  0  0  0  0  0  0  0  0
  160.6630  213.7410  147.5000 N   0  0  0  0  0  0  0  0  0  0  0  0
  160.8320  212.4600  149.2640 C   0  0  0  0  0  2  0  0  0  0  0  0
  162.6330  213.0130  146.1420 C   0  0  0  0  0  1  0  0  0  0  0  0
  161.7400  212.9590  147.3310 C   0  0  0  0  0  0  0  0  0  0  0  0
  161.8720  212.1310  148.4210 C   0  0  0  0  0  0  0  0  0  0  0  0
  1 10  1  0  0  0  0
  1 12  2  0  0  0  0
  2  8  2  0  0  0  0
  2  6  1  0  0  0  0
  3 11  1  1  0  0  0
  3  8  1  0  0  0  0
  4  9  1  0  0  0  0
  4 14  1  0  0  0  0
  7 16  1  0  0  0  0
  7 13  2  0  0  0  0
  8  1  1  0  0  0  0
  9 27  1  6  0  0  0
  9 16  1  0  0  0  0
 11 17  2  0  0  0  0
 12  5  1  0  0  0  0
 13  2  1  0  0  0  0
 14 15  1  0  0  0  0
 15 20  1  6  0  0  0
 15 11  1  0  0  0  0
 16  3  1  0  0  0  0
 17 12  1  0  0  0  0
 18 22  2  0  0  0  0
 18 19  1  0  0  0  0
 19 21  2  0  0  0  0
 20 23  2  0  0  0  0
 21 23  1  0  0  0  0
 22 20  1  0  0  0  0
 24 18  1  0  0  0  0
 25 26  1  0  0  0  0
 25 27  2  0  0  0  0
 28 13  1  0  0  0  0
 29 31  1  0  0  0  0
 30 29  2  0  0  0  0
 32 33  1  0  0  0  0
 33 30  1  0  0  0  0
 33 34  2  0  0  0  0
 34 28  1  0  0  0  0
 34 31  1  0  0  0  0
M  END
>  <MODEL>
1

>  <REMARK>
 VINA RESULT:      -5.0      0.000      0.000
  Name = 
  4 active torsions:
  status: ('A' for Active; 'I' for Inactive)
    1  A    between atoms: C_12  and  C_28
    2  A    between atoms: C_18  and  C_29
    3  A    between atoms: C_20  and  C_25
    4  A    between atoms: C_20  and  C_34
                            x       y       z     vdW  Elec       q    Type
                         _______ _______ _______ _____ _____    ______ ____

>  <TORSDO>
F 4

$$$$
=
 OpenBabel11062407493D

 34 38  0  0  1  0  0  0  0  0999 V2000
  157.3880  212.7950  153.9160 C   0  0  0  0  0  0  0  0  0  0  0  0
  159.2960  211.2270  154.0720 C   0  0  0  0  0  0  0  0  0  0  0  0
  159.1800  212.5840  152.0350 C   0  0  1  0  0  3  0  0  0  0  0  0
  161.3490  213.2970  149.7250 C   0  0  0  0  0  2  0  0  0  0  0  0
  155.0360  214.2020  153.2930 Cl  0  0  0  0  0  0  0  0  0  0  0  0
  158.7820  210.7900  155.2910 O   0  0  0  0  0  1  0  0  0  0  0  0
  161.0930  211.0460  152.4260 C   0  0  0  0  0  3  0  0  0  0  0  0
  158.6270  212.1390  153.3450 C   0  0  0  0  0  0  0  0  0  0  0  0
  160.7190  211.9680  150.1150 C   0  0  2  0  0  3  0  0  0  0  0  0
  157.8350  213.8340  155.3010 Cl  0  0  0  0  0  0  0  0  0  0  0  0
  158.5520  213.5770  151.3540 C   0  0  0  0  0  0  0  0  0  0  0  0
  156.6470  213.6300  152.9100 C   0  0  0  0  0  0  0  0  0  0  0  0
  160.6010  210.7000  153.6150 C   0  0  0  0  0  0  0  0  0  0  0  0
  160.5910  214.4530  150.2190 N   0  0  0  0  0  2  0  0  0  0  0  0
  159.1300  214.2780  150.1480 C   0  0  1  0  0  3  0  0  0  0  0  0
  160.3770  211.9280  151.5450 N   0  0  0  0  0  0  0  0  0  0  0  0
  157.2170  214.0350  151.7770 C   0  0  0  0  0  3  0  0  0  0  0  0
  158.7460  213.8120  146.3730 C   0  0  0  0  0  0  0  0  0  0  0  0
  157.5620  213.0720  146.3160 C   0  0  0  0  0  3  0  0  0  0  0  0
  158.6030  213.8560  148.7990 C   0  0  0  0  0  0  0  0  0  0  0  0
  156.8990  212.7230  147.4940 C   0  0  0  0  0  3  0  0  0  0  0  0
  159.2660  214.2020  147.6100 C   0  0  0  0  0  3  0  0  0  0  0  0
  157.4170  213.1150  148.7320 C   0  0  0  0  0  3  0  0  0  0  0  0
  159.5780  214.2550  144.8990 Cl  0  0  0  0  0  0  0  0  0  0  0  0
  162.4480  210.9180  148.6430 C   0  0  0  0  0  3  0  0  0  0  0  0
  162.6890  212.1960  147.9060 C   0  0  0  0  0  1  0  0  0  0  0  0
  161.5620  210.8140  149.6410 C   0  0  0  0  0  3  0  0  0  0  0  0
  161.3600  209.7280  154.4570 C   0  0  0  0  0  2  0  0  0  0  0  0
  161.1350  206.5040  152.7500 N   0  0  0  0  0  0  0  0  0  0  0  0
  160.6370  206.1720  153.9320 N   0  0  0  0  0  2  0  0  0  0  0  0
  161.4530  207.8170  152.7450 C   0  0  0  0  0  3  0  0  0  0  0  0
  160.1510  207.2990  156.1120 C   0  0  0  0  0  1  0  0  0  0  0  0
  160.6270  207.2710  154.7020 C   0  0  0  0  0  0  0  0  0  0  0  0
  161.1260  208.3310  153.9820 C   0  0  0  0  0  0  0  0  0  0  0  0
  1 10  1  0  0  0  0
  2  6  1  0  0  0  0
  3 11  1  1  0  0  0
  3  8  1  0  0  0  0
  4  9  1  0  0  0  0
  4 14  1  0  0  0  0
  7 13  2  0  0  0  0
  8  1  1  0  0  0  0
  8  2  2  0  0  0  0
  9 27  1  1  0  0  0
  9 16  1  0  0  0  0
 11 17  2  0  0  0  0
 12  5  1  0  0  0  0
 12  1  2  0  0  0  0
 13  2  1  0  0  0  0
 13 28  1  0  0  0  0
 15 20  1  6  0  0  0
 15 14  1  0  0  0  0
 15 11  1  0  0  0  0
 16  3  1  0  0  0  0
 16  7  1  0  0  0  0
 17 12  1  0  0  0  0
 18 22  1  0  0  0  0
 19 18  2  0  0  0  0
 19 21  1  0  0  0  0
 21 23  2  0  0  0  0
 22 20  2  0  0  0  0
 23 20  1  0  0  0  0
 24 18  1  0  0  0  0
 25 27  2  0  0  0  0
 26 25  1  0  0  0  0
 29 30  1  0  0  0  0
 30 33  1  0  0  0  0
 31 29  2  0  0  0  0
 31 34  1  0  0  0  0
 33 32  1  0  0  0  0
 34 28  1  0  0  0  0
 34 33  2  0  0  0  0
M  END
>  <MODEL>
2

>  <REMARK>
 VINA RESULT:      -4.9      4.585      8.349
  Name = 
  4 active torsions:
  status: ('A' for Active; 'I' for Inactive)
    1  A    between atoms: C_12  and  C_28
    2  A    between atoms: C_18  and  C_29
    3  A    between atoms: C_20  and  C_25
    4  A    between atoms: C_20  and  C_34
                            x       y       z     vdW  Elec       q    Type
                         _______ _______ _______ _____ _____    ______ ____

>  <TORSDO>
F 4

$$$$
=
 OpenBabel11062407493D

 34 38  0  0  1  0  0  0  0  0999 V2000
  160.4610  212.9840  149.1540 C   0  0  1  0  0  3  0  0  0  0  0  0
  159.5690  213.2590  151.4450 C   0  0  0  0  0  0  0  0  0  0  0  0
  160.8350  211.2050  151.0220 C   0  0  0  0  0  0  0  0  0  0  0  0
  162.2080  209.0080  152.9800 C   0  0  0  0  0  2  0  0  0  0  0  0
  161.0650  212.2210  146.5170 Cl  0  0  0  0  0  0  0  0  0  0  0  0
  158.9840  214.4530  151.0290 O   0  0  0  0  0  1  0  0  0  0  0  0
  159.9710  211.7140  153.2950 C   0  0  0  0  0  3  0  0  0  0  0  0
  160.2300  212.4880  150.5650 C   0  0  0  0  0  0  0  0  0  0  0  0
  160.7460  209.3780  152.7780 C   0  0  2  0  0  3  0  0  0  0  0  0
  161.5780  214.3800  149.1770 Cl  0  0  0  0  0  0  0  0  0  0  0  0
  161.5860  210.4810  150.1520 C   0  0  0  0  0  0  0  0  0  0  0  0
  161.0290  211.9320  148.2440 C   0  0  0  0  0  0  0  0  0  0  0  0
  159.4800  212.8790  152.8720 C   0  0  0  0  0  0  0  0  0  0  0  0
  163.0650  209.4480  151.8720 N   0  0  0  0  0  2  0  0  0  0  0  0
  162.4420  209.3000  150.5460 C   0  0  1  0  0  3  0  0  0  0  0  0
  160.5910  210.7870  152.3890 N   0  0  0  0  0  0  0  0  0  0  0  0
  161.6000  210.8260  148.7190 C   0  0  0  0  0  3  0  0  0  0  0  0
  161.5380  205.5980  150.8440 C   0  0  0  0  0  0  0  0  0  0  0  0
  160.8570  205.3930  149.6410 C   0  0  0  0  0  3  0  0  0  0  0  0
  161.8850  207.9290  150.2520 C   0  0  0  0  0  0  0  0  0  0  0  0
  160.6890  206.4510  148.7440 C   0  0  0  0  0  3  0  0  0  0  0  0
  162.0500  206.8610  151.1490 C   0  0  0  0  0  3  0  0  0  0  0  0
  161.2020  207.7150  149.0490 C   0  0  0  0  0  3  0  0  0  0  0  0
  161.7560  204.2740  151.9670 Cl  0  0  0  0  0  0  0  0  0  0  0  0
  160.1270  207.8250  154.6390 C   0  0  0  0  0  3  0  0  0  0  0  0
  161.2120  206.8600  154.2820 C   0  0  0  0  0  1  0  0  0  0  0  0
  159.9180  208.9620  153.9640 C   0  0  0  0  0  3  0  0  0  0  0  0
  158.7890  213.7710  153.8500 C   0  0  0  0  0  2  0  0  0  0  0  0
  155.1780  213.3220  153.5040 N   0  0  0  0  0  0  0  0  0  0  0  0
  155.4270  212.4410  154.4630 N   0  0  0  0  0  2  0  0  0  0  0  0
  156.3240  213.9420  153.1500 C   0  0  0  0  0  3  0  0  0  0  0  0
  157.4110  211.6290  155.7510 C   0  0  0  0  0  1  0  0  0  0  0  0
  156.7400  212.4860  154.7370 C   0  0  0  0  0  0  0  0  0  0  0  0
  157.3370  213.4300  153.9340 C   0  0  0  0  0  0  0  0  0  0  0  0
  1 10  1  1  0  0  0
  1  8  1  0  0  0  0
  2 13  1  0  0  0  0
  3 16  1  0  0  0  0
  5 12  1  0  0  0  0
  6  2  1  0  0  0  0
  8  3  1  0  0  0  0
  8  2  2  0  0  0  0
  9  4  1  0  0  0  0
  9 27  1  1  0  0  0
 11 15  1  0  0  0  0
 11  3  2  0  0  0  0
 12 17  2  0  0  0  0
 12  1  1  0  0  0  0
 13  7  2  0  0  0  0
 13 28  1  0  0  0  0
 14  4  1  0  0  0  0
 15 20  1  1  0  0  0
 15 14  1  0  0  0  0
 16  9  1  0  0  0  0
 16  7  1  0  0  0  0
 17 11  1  0  0  0  0
 18 22  1  0  0  0  0
 18 24  1  0  0  0  0
 19 18  2  0  0  0  0
 20 22  2  0  0  0  0
 21 23  2  0  0  0  0
 21 19  1  0  0  0  0
 23 20  1  0  0  0  0
 26 25  1  0  0  0  0
 27 25  2  0  0  0  0
 28 34  1  0  0  0  0
 29 30  1  0  0  0  0
 30 33  1  0  0  0  0
 31 29  2  0  0  0  0
 31 34  1  0  0  0  0
 33 32  1  0  0  0  0
 34 33  2  0  0  0  0
M  END
>  <MODEL>
3

>  <REMARK>
 VINA RESULT:      -4.5      3.847      6.302
  Name = 
  4 active torsions:
  status: ('A' for Active; 'I' for Inactive)
    1  A    between atoms: C_12  and  C_28
    2  A    between atoms: C_18  and  C_29
    3  A    between atoms: C_20  and  C_25
    4  A    between atoms: C_20  and  C_34
                            x       y       z     vdW  Elec       q    Type
                         _______ _______ _______ _____ _____    ______ ____

>  <TORSDO>
F 4

$$$$
=
 OpenBabel11062407493D

 34 38  0  0  1  0  0  0  0  0999 V2000
  160.2030  212.9140  149.8320 C   0  0  1  0  0  3  0  0  0  0  0  0
  158.9710  213.4020  151.9220 C   0  0  0  0  0  0  0  0  0  0  0  0
  160.4700  211.4640  151.9820 C   0  0  0  0  0  0  0  0  0  0  0  0
  161.7460  209.7280  154.4120 C   0  0  0  0  0  2  0  0  0  0  0  0
  161.2460  211.8650  147.4420 Cl  0  0  0  0  0  0  0  0  0  0  0  0
  158.3440  214.4530  151.2570 O   0  0  0  0  0  1  0  0  0  0  0  0
  159.2460  212.1840  154.0220 C   0  0  0  0  0  3  0  0  0  0  0  0
  159.8200  212.5950  151.2610 C   0  0  0  0  0  0  0  0  0  0  0  0
  160.3000  209.9000  153.9700 C   0  0  2  0  0  3  0  0  0  0  0  0
  161.1710  214.4160  149.7840 Cl  0  0  0  0  0  0  0  0  0  0  0  0
  161.4010  210.7150  151.3360 C   0  0  0  0  0  0  0  0  0  0  0  0
  160.9900  211.8160  149.1740 C   0  0  0  0  0  0  0  0  0  0  0  0
  158.7150  213.2160  153.3670 C   0  0  0  0  0  0  0  0  0  0  0  0
  162.7080  210.1040  153.3680 N   0  0  0  0  0  2  0  0  0  0  0  0
  162.2970  209.7050  152.0120 C   0  0  1  0  0  3  0  0  0  0  0  0
  160.0720  211.2150  153.3540 N   0  0  0  0  0  0  0  0  0  0  0  0
  161.5870  210.8580  149.8810 C   0  0  0  0  0  3  0  0  0  0  0  0
  161.2310  206.3580  150.5040 C   0  0  0  0  0  0  0  0  0  0  0  0
  161.1880  205.5530  151.6450 C   0  0  0  0  0  3  0  0  0  0  0  0
  161.9170  208.2520  151.8620 C   0  0  0  0  0  0  0  0  0  0  0  0
  161.5090  206.0930  152.8930 C   0  0  0  0  0  3  0  0  0  0  0  0
  161.5950  207.7030  150.6110 C   0  0  0  0  0  3  0  0  0  0  0  0
  161.8710  207.4390  153.0020 C   0  0  0  0  0  3  0  0  0  0  0  0
  160.8250  205.6870  148.9400 Cl  0  0  0  0  0  0  0  0  0  0  0  0
  159.6980  208.7990  156.1350 C   0  0  0  0  0  3  0  0  0  0  0  0
  161.0640  208.2130  156.2910 C   0  0  0  0  0  1  0  0  0  0  0  0
  159.3530  209.5620  155.0910 C   0  0  0  0  0  3  0  0  0  0  0  0
  157.8120  214.1510  154.1010 C   0  0  0  0  0  2  0  0  0  0  0  0
  155.5390  212.0500  156.0460 N   0  0  0  0  0  0  0  0  0  0  0  0
  156.3020  212.5250  157.0200 N   0  0  0  0  0  2  0  0  0  0  0  0
  155.9440  212.5630  154.8630 C   0  0  0  0  0  3  0  0  0  0  0  0
  158.2530  214.0750  157.2470 C   0  0  0  0  0  1  0  0  0  0  0  0
  157.2050  213.3540  156.4730 C   0  0  0  0  0  0  0  0  0  0  0  0
  157.0030  213.4090  155.1140 C   0  0  0  0  0  0  0  0  0  0  0  0
  1 10  1  1  0  0  0
  1  8  1  0  0  0  0
  2 13  1  0  0  0  0
  3 16  1  0  0  0  0
  5 12  1  0  0  0  0
  6  2  1  0  0  0  0
  8  2  2  0  0  0  0
  8  3  1  0  0  0  0
  9  4  1  0  0  0  0
  9 27  1  1  0  0  0
 11  3  2  0  0  0  0
 11 15  1  0  0  0  0
 12  1  1  0  0  0  0
 12 17  2  0  0  0  0
 13  7  2  0  0  0  0
 13 28  1  0  0  0  0
 14  4  1  0  0  0  0
 15 20  1  1  0  0  0
 15 14  1  0  0  0  0
 16  9  1  0  0  0  0
 16  7  1  0  0  0  0
 17 11  1  0  0  0  0
 18 22  2  0  0  0  0
 18 19  1  0  0  0  0
 19 21  2  0  0  0  0
 20 23  2  0  0  0  0
 21 23  1  0  0  0  0
 22 20  1  0  0  0  0
 24 18  1  0  0  0  0
 25 26  1  0  0  0  0
 27 25  2  0  0  0  0
 28 34  1  0  0  0  0
 29 30  1  0  0  0  0
 31 34  1  0  0  0  0
 31 29  2  0  0  0  0
 33 30  1  0  0  0  0
 33 32  1  0  0  0  0
 34 33  2  0  0  0  0
M  END
>  <MODEL>
4

>  <REMARK>
 VINA RESULT:      -4.3      4.470      6.992
  Name = 
  4 active torsions:
  status: ('A' for Active; 'I' for Inactive)
    1  A    between atoms: C_12  and  C_28
    2  A    between atoms: C_18  and  C_29
    3  A    between atoms: C_20  and  C_25
    4  A    between atoms: C_20  and  C_34
                            x       y       z     vdW  Elec       q    Type
                         _______ _______ _______ _____ _____    ______ ____

>  <TORSDO>
F 4

$$$$
=
 OpenBabel11062407493D

 34 38  0  0  1  0  0  0  0  0999 V2000
  158.9420  210.7940  154.2200 C   0  0  0  0  0  0  0  0  0  0  0  0
  160.7150  209.6910  152.8910 C   0  0  0  0  0  0  0  0  0  0  0  0
  159.7900  211.7570  151.9510 C   0  0  1  0  0  3  0  0  0  0  0  0
  160.8180  213.7890  149.6370 C   0  0  0  0  0  2  0  0  0  0  0  0
  156.5700  211.8780  155.2670 Cl  0  0  0  0  0  0  0  0  0  0  0  0
  160.7440  208.6790  153.8480 O   0  0  0  0  0  1  0  0  0  0  0  0
  161.6640  210.5780  150.8220 C   0  0  0  0  0  3  0  0  0  0  0  0
  159.8210  210.6910  152.9930 C   0  0  0  0  0  0  0  0  0  0  0  0
  160.3830  212.3340  149.5540 C   0  0  2  0  0  3  0  0  0  0  0  0
  159.9420  211.1840  155.6500 Cl  0  0  0  0  0  0  0  0  0  0  0  0
  158.9540  212.8150  152.1120 C   0  0  0  0  0  0  0  0  0  0  0  0
  157.8660  211.8340  154.0900 C   0  0  0  0  0  0  0  0  0  0  0  0
  161.7030  209.6640  151.7910 C   0  0  0  0  0  0  0  0  0  0  0  0
  160.3540  214.4530  150.8610 N   0  0  0  0  0  2  0  0  0  0  0  0
  158.9930  214.0650  151.2660 C   0  0  1  0  0  3  0  0  0  0  0  0
  160.6640  211.6110  150.8030 N   0  0  0  0  0  0  0  0  0  0  0  0
  157.9230  212.7900  153.1640 C   0  0  0  0  0  3  0  0  0  0  0  0
  157.3050  214.3400  147.8470 C   0  0  0  0  0  0  0  0  0  0  0  0
  155.9630  214.4500  148.2210 C   0  0  0  0  0  3  0  0  0  0  0  0
  157.9470  214.1880  150.1860 C   0  0  0  0  0  0  0  0  0  0  0  0
  155.6110  214.4290  149.5720 C   0  0  0  0  0  3  0  0  0  0  0  0
  158.2940  214.2080  148.8260 C   0  0  0  0  0  3  0  0  0  0  0  0
  156.6000  214.3000  150.5520 C   0  0  0  0  0  3  0  0  0  0  0  0
  157.7520  214.3710  146.1560 Cl  0  0  0  0  0  0  0  0  0  0  0  0
  161.4450  212.3690  147.2890 C   0  0  0  0  0  3  0  0  0  0  0  0
  161.5260  213.8610  147.2790 C   0  0  0  0  0  1  0  0  0  0  0  0
  160.9330  211.6780  148.3150 C   0  0  0  0  0  3  0  0  0  0  0  0
  162.7240  208.5770  151.7190 C   0  0  0  0  0  2  0  0  0  0  0  0
  161.1180  205.4200  150.8170 N   0  0  0  0  0  0  0  0  0  0  0  0
  161.3520  205.9120  149.6080 N   0  0  0  0  0  0  0  0  0  0  0  0
  161.5810  206.2780  151.7520 C   0  0  0  0  0  2  0  0  0  0  0  0
  162.3890  207.9620  148.6200 C   0  0  0  0  0  1  0  0  0  0  0  0
  161.9730  207.0930  149.7540 C   0  0  0  0  0  0  0  0  0  0  0  0
  162.1420  207.3520  151.0930 C   0  0  0  0  0  0  0  0  0  0  0  0
  1 10  1  0  0  0  0
  2  8  2  0  0  0  0
  2  6  1  0  0  0  0
  3 11  1  1  0  0  0
  3  8  1  0  0  0  0
  4 14  1  0  0  0  0
  7 13  2  0  0  0  0
  8  1  1  0  0  0  0
  9 27  1  6  0  0  0
  9  4  1  0  0  0  0
  9 16  1  0  0  0  0
 11 17  2  0  0  0  0
 12  1  2  0  0  0  0
 12  5  1  0  0  0  0
 13  2  1  0  0  0  0
 14 15  1  0  0  0  0
 15 20  1  6  0  0  0
 15 11  1  0  0  0  0
 16  7  1  0  0  0  0
 16  3  1  0  0  0  0
 17 12  1  0  0  0  0
 18 19  2  0  0  0  0
 18 22  1  0  0  0  0
 19 21  1  0  0  0  0
 20 23  1  0  0  0  0
 21 23  2  0  0  0  0
 22 20  2  0  0  0  0
 24 18  1  0  0  0  0
 25 27  2  0  0  0  0
 26 25  1  0  0  0  0
 28 13  1  0  0  0  0
 29 31  1  0  0  0  0
 30 33  1  0  0  0  0
 30 29  2  0  0  0  0
 32 33  1  0  0  0  0
 33 34  2  0  0  0  0
 34 28  1  0  0  0  0
 34 31  1  0  0  0  0
M  END
>  <MODEL>
5

>  <REMARK>
 VINA RESULT:      -3.7      3.357      7.884
  Name = 
  4 active torsions:
  status: ('A' for Active; 'I' for Inactive)
    1  A    between atoms: C_12  and  C_28
    2  A    between atoms: C_18  and  C_29
    3  A    between atoms: C_20  and  C_25
    4  A    between atoms: C_20  and  C_34
                            x       y       z     vdW  Elec       q    Type
                         _______ _______ _______ _____ _____    ______ ____

>  <TORSDO>
F 4

$$$$
=
 OpenBabel11062407493D

 34 38  0  0  1  0  0  0  0  0999 V2000
  160.6820  208.5040  154.4060 C   0  0  0  0  0  0  0  0  0  0  0  0
  160.8820  209.8230  152.3220 C   0  0  0  0  0  0  0  0  0  0  0  0
  159.8510  210.9690  154.2270 C   0  0  1  0  0  3  0  0  0  0  0  0
  159.2620  214.0960  154.8730 C   0  0  0  0  0  2  0  0  0  0  0  0
  159.8570  207.0340  156.6550 Cl  0  0  0  0  0  0  0  0  0  0  0  0
  161.4270  208.6960  151.7110 O   0  0  0  0  0  1  0  0  0  0  0  0
  160.2510  212.1720  152.0900 C   0  0  0  0  0  3  0  0  0  0  0  0
  160.4490  209.7590  153.5930 C   0  0  0  0  0  0  0  0  0  0  0  0
  158.7000  213.1850  153.7910 C   0  0  2  0  0  3  0  0  0  0  0  0
  162.4310  208.2950  154.7100 Cl  0  0  0  0  0  0  0  0  0  0  0  0
  159.5080  210.9260  155.5400 C   0  0  0  0  0  0  0  0  0  0  0  0
  159.9640  208.5160  155.7260 C   0  0  0  0  0  0  0  0  0  0  0  0
  160.8240  211.0900  151.5620 C   0  0  0  0  0  0  0  0  0  0  0  0
  159.8630  213.3520  155.9870 N   0  0  0  0  0  2  0  0  0  0  0  0
  159.1200  212.1360  156.3560 C   0  0  1  0  0  3  0  0  0  0  0  0
  159.6640  212.1460  153.4010 N   0  0  0  0  0  0  0  0  0  0  0  0
  159.4950  209.6410  156.2610 C   0  0  0  0  0  3  0  0  0  0  0  0
  155.3570  211.5270  156.6480 C   0  0  0  0  0  0  0  0  0  0  0  0
  154.9160  212.7850  157.0680 C   0  0  0  0  0  3  0  0  0  0  0  0
  157.6470  212.3410  156.6110 C   0  0  0  0  0  0  0  0  0  0  0  0
  155.8350  213.8190  157.2600 C   0  0  0  0  0  3  0  0  0  0  0  0
  156.7180  211.3050  156.4210 C   0  0  0  0  0  3  0  0  0  0  0  0
  157.1970  213.5980  157.0310 C   0  0  0  0  0  3  0  0  0  0  0  0
  154.2090  210.2310  156.4010 Cl  0  0  0  0  0  0  0  0  0  0  0  0
  156.8450  214.2420  152.4860 C   0  0  0  0  0  3  0  0  0  0  0  0
  155.8060  213.7490  153.4400 C   0  0  0  0  0  1  0  0  0  0  0  0
  158.1510  213.9900  152.6430 C   0  0  0  0  0  3  0  0  0  0  0  0
  161.3580  211.1620  150.1690 C   0  0  0  0  0  2  0  0  0  0  0  0
  160.0140  214.3870  149.0960 N   0  0  0  0  0  0  0  0  0  0  0  0
  161.1140  214.3410  148.3580 N   0  0  0  0  0  0  0  0  0  0  0  0
  159.9200  213.2630  149.8390 C   0  0  0  0  0  2  0  0  0  0  0  0
  163.0250  212.7690  147.9930 C   0  0  0  0  0  1  0  0  0  0  0  0
  161.7400  213.1820  148.6180 C   0  0  0  0  0  0  0  0  0  0  0  0
  161.0090  212.4720  149.5410 C   0  0  0  0  0  0  0  0  0  0  0  0
  1 10  1  0  0  0  0
  1 12  2  0  0  0  0
  2  8  2  0  0  0  0
  3  8  1  1  0  0  0
  3 11  1  0  0  0  0
  4 14  1  0  0  0  0
  6  2  1  0  0  0  0
  7 16  1  0  0  0  0
  8  1  1  0  0  0  0
  9 27  1  6  0  0  0
  9  4  1  0  0  0  0
 11 17  2  0  0  0  0
 11 15  1  0  0  0  0
 12 17  1  0  0  0  0
 12  5  1  0  0  0  0
 13  7  2  0  0  0  0
 13  2  1  0  0  0  0
 14 15  1  0  0  0  0
 15 20  1  6  0  0  0
 16  9  1  0  0  0  0
 16  3  1  0  0  0  0
 18 19  1  0  0  0  0
 19 21  2  0  0  0  0
 20 23  2  0  0  0  0
 22 20  1  0  0  0  0
 22 18  2  0  0  0  0
 23 21  1  0  0  0  0
 24 18  1  0  0  0  0
 25 27  2  0  0  0  0
 25 26  1  0  0  0  0
 28 13  1  0  0  0  0
 29 31  1  0  0  0  0
 30 33  1  0  0  0  0
 30 29  2  0  0  0  0
 32 33  1  0  0  0  0
 33 34  2  0  0  0  0
 34 31  1  0  0  0  0
 34 28  1  0  0  0  0
M  END
>  <MODEL>
6

>  <REMARK>
 VINA RESULT:      -3.6      4.806      8.034
  Name = 
  4 active torsions:
  status: ('A' for Active; 'I' for Inactive)
    1  A    between atoms: C_12  and  C_28
    2  A    between atoms: C_18  and  C_29
    3  A    between atoms: C_20  and  C_25
    4  A    between atoms: C_20  and  C_34
                            x       y       z     vdW  Elec       q    Type
                         _______ _______ _______ _____ _____    ______ ____

>  <TORSDO>
F 4

$$$$
=
 OpenBabel11062407493D

 34 38  0  0  1  0  0  0  0  0999 V2000
  161.4070  211.7000  150.1500 C   0  0  1  0  0  3  0  0  0  0  0  0
  161.9060  209.4420  151.0300 C   0  0  0  0  0  0  0  0  0  0  0  0
  160.2720  210.7570  152.2980 C   0  0  0  0  0  0  0  0  0  0  0  0
  158.0660  209.9700  154.5480 C   0  0  0  0  0  2  0  0  0  0  0  0
  161.1260  214.4530  149.6560 Cl  0  0  0  0  0  0  0  0  0  0  0  0
  162.8330  209.2920  150.0010 O   0  0  0  0  0  1  0  0  0  0  0  0
  160.8050  208.4210  152.9580 C   0  0  0  0  0  3  0  0  0  0  0  0
  161.2470  210.6050  151.1810 C   0  0  0  0  0  0  0  0  0  0  0  0
  159.5860  209.9020  154.5850 C   0  0  2  0  0  3  0  0  0  0  0  0
  160.6840  211.1840  148.5990 Cl  0  0  0  0  0  0  0  0  0  0  0  0
  159.5380  211.8960  152.3850 C   0  0  0  0  0  0  0  0  0  0  0  0
  160.7740  212.9980  150.5650 C   0  0  0  0  0  0  0  0  0  0  0  0
  161.6360  208.2940  151.9230 C   0  0  0  0  0  0  0  0  0  0  0  0
  157.5620  210.8560  153.4920 N   0  0  0  0  0  2  0  0  0  0  0  0
  158.3600  212.0790  153.3130 C   0  0  1  0  0  3  0  0  0  0  0  0
  160.1520  209.6680  153.2480 N   0  0  0  0  0  0  0  0  0  0  0  0
  159.8710  213.0580  151.5430 C   0  0  0  0  0  3  0  0  0  0  0  0
  160.0310  213.5470  156.4230 C   0  0  0  0  0  0  0  0  0  0  0  0
  158.9980  214.3380  156.9310 C   0  0  0  0  0  3  0  0  0  0  0  0
  158.6060  212.8710  154.5740 C   0  0  0  0  0  0  0  0  0  0  0  0
  157.7710  214.3980  156.2650 C   0  0  0  0  0  3  0  0  0  0  0  0
  159.8370  212.8170  155.2480 C   0  0  0  0  0  3  0  0  0  0  0  0
  157.5750  213.6660  155.0910 C   0  0  0  0  0  3  0  0  0  0  0  0
  161.5670  213.4650  157.2560 Cl  0  0  0  0  0  0  0  0  0  0  0  0
  161.2160  209.0740  156.2920 C   0  0  0  0  0  3  0  0  0  0  0  0
  162.1580  210.2060  156.0360 C   0  0  0  0  0  1  0  0  0  0  0  0
  160.0550  208.9370  155.6410 C   0  0  0  0  0  3  0  0  0  0  0  0
  162.3350  206.9920  151.7120 C   0  0  0  0  0  2  0  0  0  0  0  0
  160.5410  205.2700  149.0330 N   0  0  0  0  0  0  0  0  0  0  0  0
  160.4260  204.3700  150.0010 N   0  0  0  0  0  2  0  0  0  0  0  0
  161.2190  206.3440  149.4920 C   0  0  0  0  0  3  0  0  0  0  0  0
  161.1260  204.1320  152.3900 C   0  0  0  0  0  1  0  0  0  0  0  0
  161.0290  204.8600  151.0950 C   0  0  0  0  0  0  0  0  0  0  0  0
  161.5330  206.1080  150.8140 C   0  0  0  0  0  0  0  0  0  0  0  0
  1 10  1  6  0  0  0
  1 12  1  0  0  0  0
  1  8  1  0  0  0  0
  2  8  2  0  0  0  0
  2 13  1  0  0  0  0
  3 11  2  0  0  0  0
  3 16  1  0  0  0  0
  4  9  1  0  0  0  0
  5 12  1  0  0  0  0
  6  2  1  0  0  0  0
  7 16  1  0  0  0  0
  8  3  1  0  0  0  0
  9 27  1  1  0  0  0
 11 15  1  0  0  0  0
 12 17  2  0  0  0  0
 13  7  2  0  0  0  0
 14  4  1  0  0  0  0
 15 14  1  0  0  0  0
 15 20  1  1  0  0  0
 16  9  1  0  0  0  0
 17 11  1  0  0  0  0
 18 19  1  0  0  0  0
 18 24  1  0  0  0  0
 20 23  2  0  0  0  0
 20 22  1  0  0  0  0
 21 19  2  0  0  0  0
 22 18  2  0  0  0  0
 23 21  1  0  0  0  0
 26 25  1  0  0  0  0
 27 25  2  0  0  0  0
 28 13  1  0  0  0  0
 29 31  2  0  0  0  0
 29 30  1  0  0  0  0
 30 33  1  0  0  0  0
 31 34  1  0  0  0  0
 33 32  1  0  0  0  0
 34 33  2  0  0  0  0
 34 28  1  0  0  0  0
M  END
>  <MODEL>
7

>  <REMARK>
 VINA RESULT:      -3.6      3.826      8.514
  Name = 
  4 active torsions:
  status: ('A' for Active; 'I' for Inactive)
    1  A    between atoms: C_12  and  C_28
    2  A    between atoms: C_18  and  C_29
    3  A    between atoms: C_20  and  C_25
    4  A    between atoms: C_20  and  C_34
                            x       y       z     vdW  Elec       q    Type
                         _______ _______ _______ _____ _____    ______ ____

>  <TORSDO>
F 4

$$$$
=
 OpenBabel11062407493D

 34 38  0  0  1  0  0  0  0  0999 V2000
  160.3320  207.3920  155.4420 C   0  0  0  0  0  0  0  0  0  0  0  0
  161.0590  205.9350  153.5790 C   0  0  0  0  0  0  0  0  0  0  0  0
  161.1440  208.3470  153.1570 C   0  0  1  0  0  3  0  0  0  0  0  0
  162.6370  210.1480  150.9050 C   0  0  0  0  0  2  0  0  0  0  0  0
  159.0380  209.1730  157.1890 Cl  0  0  0  0  0  0  0  0  0  0  0  0
  160.7420  204.8340  154.3720 O   0  0  0  0  0  1  0  0  0  0  0  0
  161.9540  206.7330  151.4500 C   0  0  0  0  0  3  0  0  0  0  0  0
  160.8160  207.1800  154.0250 C   0  0  0  0  0  0  0  0  0  0  0  0
  161.5260  209.1170  150.7710 C   0  0  2  0  0  3  0  0  0  0  0  0
  161.6200  206.9420  156.5970 Cl  0  0  0  0  0  0  0  0  0  0  0  0
  160.9900  209.6030  153.6520 C   0  0  0  0  0  0  0  0  0  0  0  0
  159.9150  208.8090  155.7170 C   0  0  0  0  0  0  0  0  0  0  0  0
  161.6960  205.7090  152.2630 C   0  0  0  0  0  0  0  0  0  0  0  0
  162.7840  210.6520  152.2760 N   0  0  0  0  0  2  0  0  0  0  0  0
  161.5030  210.8510  152.9740 C   0  0  1  0  0  3  0  0  0  0  0  0
  161.6170  208.0820  151.8120 N   0  0  0  0  0  0  0  0  0  0  0  0
  160.2820  209.8150  154.9260 C   0  0  0  0  0  3  0  0  0  0  0  0
  159.9210  213.3410  150.5430 C   0  0  0  0  0  0  0  0  0  0  0  0
  158.5720  213.2300  150.8890 C   0  0  0  0  0  3  0  0  0  0  0  0
  160.4910  211.6840  152.2260 C   0  0  0  0  0  0  0  0  0  0  0  0
  158.1800  212.3490  151.9000 C   0  0  0  0  0  3  0  0  0  0  0  0
  160.8780  212.5700  151.2080 C   0  0  0  0  0  3  0  0  0  0  0  0
  159.1370  211.5780  152.5670 C   0  0  0  0  0  3  0  0  0  0  0  0
  160.4160  214.4470  149.2810 Cl  0  0  0  0  0  0  0  0  0  0  0  0
  161.6570  209.3460  148.2830 C   0  0  0  0  0  3  0  0  0  0  0  0
  161.9830  210.8030  148.3700 C   0  0  0  0  0  1  0  0  0  0  0  0
  161.4530  208.5840  149.3650 C   0  0  0  0  0  3  0  0  0  0  0  0
  162.0080  204.3230  151.8030 C   0  0  0  0  0  2  0  0  0  0  0  0
  160.7950  204.3550  148.3550 N   0  0  0  0  0  0  0  0  0  0  0  0
  160.6090  203.0760  148.6520 N   0  0  0  0  0  0  0  0  0  0  0  0
  161.3040  204.9990  149.4280 C   0  0  0  0  0  2  0  0  0  0  0  0
  160.9510  201.5700  150.6200 C   0  0  0  0  0  1  0  0  0  0  0  0
  160.9940  202.8850  149.9230 C   0  0  0  0  0  0  0  0  0  0  0  0
  161.4300  204.0790  150.4480 C   0  0  0  0  0  0  0  0  0  0  0  0
  1 12  2  0  0  0  0
  1 10  1  0  0  0  0
  2  8  2  0  0  0  0
  2  6  1  0  0  0  0
  3 11  1  1  0  0  0
  3  8  1  0  0  0  0
  4 14  1  0  0  0  0
  7 16  1  0  0  0  0
  7 13  2  0  0  0  0
  8  1  1  0  0  0  0
  9 27  1  6  0  0  0
  9  4  1  0  0  0  0
  9 16  1  0  0  0  0
 11 17  2  0  0  0  0
 12  5  1  0  0  0  0
 13  2  1  0  0  0  0
 14 15  1  0  0  0  0
 15 20  1  6  0  0  0
 15 11  1  0  0  0  0
 16  3  1  0  0  0  0
 17 12  1  0  0  0  0
 18 19  2  0  0  0  0
 18 22  1  0  0  0  0
 19 21  1  0  0  0  0
 20 23  1  0  0  0  0
 21 23  2  0  0  0  0
 22 20  2  0  0  0  0
 24 18  1  0  0  0  0
 25 26  1  0  0  0  0
 25 27  2  0  0  0  0
 28 13  1  0  0  0  0
 29 30  2  0  0  0  0
 29 31  1  0  0  0  0
 30 33  1  0  0  0  0
 31 34  1  0  0  0  0
 33 34  2  0  0  0  0
 33 32  1  0  0  0  0
 34 28  1  0  0  0  0
M  END
>  <MODEL>
8

>  <REMARK>
 VINA RESULT:      -3.5      3.110      7.368
  Name = 
  4 active torsions:
  status: ('A' for Active; 'I' for Inactive)
    1  A    between atoms: C_12  and  C_28
    2  A    between atoms: C_18  and  C_29
    3  A    between atoms: C_20  and  C_25
    4  A    between atoms: C_20  and  C_34
                            x       y       z     vdW  Elec       q    Type
                         _______ _______ _______ _____ _____    ______ ____

>  <TORSDO>
F 4

$$$$
=
 OpenBabel11062407493D

 34 38  0  0  1  0  0  0  0  0999 V2000
  161.3410  206.8110  151.9320 C   0  0  1  0  0  3  0  0  0  0  0  0
  161.5020  208.5850  150.2150 C   0  0  0  0  0  0  0  0  0  0  0  0
  160.9910  209.3330  152.4920 C   0  0  0  0  0  0  0  0  0  0  0  0
  161.1210  212.2310  153.9500 C   0  0  0  0  0  2  0  0  0  0  0  0
  160.5670  204.9450  153.8860 Cl  0  0  0  0  0  0  0  0  0  0  0  0
  161.7260  207.5890  149.2670 O   0  0  0  0  0  1  0  0  0  0  0  0
  161.3170  210.9810  150.6600 C   0  0  0  0  0  3  0  0  0  0  0  0
  161.2460  208.2560  151.4930 C   0  0  0  0  0  0  0  0  0  0  0  0
  160.2460  211.7360  152.8080 C   0  0  2  0  0  3  0  0  0  0  0  0
  163.0410  206.2630  151.8510 Cl  0  0  0  0  0  0  0  0  0  0  0  0
  160.8330  208.9990  153.7990 C   0  0  0  0  0  0  0  0  0  0  0  0
  160.8310  206.5840  153.3270 C   0  0  0  0  0  0  0  0  0  0  0  0
  161.5880  210.0020  149.7970 C   0  0  0  0  0  0  0  0  0  0  0  0
  161.7140  211.1370  154.7280 N   0  0  0  0  0  2  0  0  0  0  0  0
  160.8070  209.9960  154.9330 C   0  0  1  0  0  3  0  0  0  0  0  0
  160.9250  210.7000  152.0140 N   0  0  0  0  0  0  0  0  0  0  0  0
  160.6700  207.5870  154.1880 C   0  0  0  0  0  3  0  0  0  0  0  0
  157.0250  210.3310  155.3800 C   0  0  0  0  0  0  0  0  0  0  0  0
  156.9620  211.0620  156.5690 C   0  0  0  0  0  3  0  0  0  0  0  0
  159.4530  210.3500  155.4950 C   0  0  0  0  0  0  0  0  0  0  0  0
  158.1380  211.4380  157.2220 C   0  0  0  0  0  3  0  0  0  0  0  0
  158.2660  209.9750  154.8450 C   0  0  0  0  0  3  0  0  0  0  0  0
  159.3800  211.0840  156.6860 C   0  0  0  0  0  3  0  0  0  0  0  0
  155.5550  209.8630  154.5560 Cl  0  0  0  0  0  0  0  0  0  0  0  0
  158.5880  213.5450  152.3230 C   0  0  0  0  0  3  0  0  0  0  0  0
  157.7610  213.1970  153.5180 C   0  0  0  0  0  1  0  0  0  0  0  0
  159.7100  212.8890  152.0030 C   0  0  0  0  0  3  0  0  0  0  0  0
  161.9250  210.3550  148.3860 C   0  0  0  0  0  2  0  0  0  0  0  0
  163.0800  213.8060  148.0470 N   0  0  0  0  0  0  0  0  0  0  0  0
  161.7770  213.9830  147.8800 N   0  0  0  0  0  0  0  0  0  0  0  0
  163.3340  212.4980  148.2680 C   0  0  0  0  0  2  0  0  0  0  0  0
  159.7120  212.5720  147.8540 C   0  0  0  0  0  1  0  0  0  0  0  0
  161.1780  212.7880  147.9950 C   0  0  0  0  0  0  0  0  0  0  0  0
  162.1290  211.8280  148.2500 C   0  0  0  0  0  0  0  0  0  0  0  0
  1 10  1  1  0  0  0
  1 12  1  0  0  0  0
  2  8  2  0  0  0  0
  3 11  2  0  0  0  0
  4 14  1  0  0  0  0
  6  2  1  0  0  0  0
  7 16  1  0  0  0  0
  8  1  1  0  0  0  0
  8  3  1  0  0  0  0
  9 27  1  6  0  0  0
  9  4  1  0  0  0  0
 11 17  1  0  0  0  0
 11 15  1  0  0  0  0
 12  5  1  0  0  0  0
 12 17  2  0  0  0  0
 13  2  1  0  0  0  0
 13  7  2  0  0  0  0
 14 15  1  0  0  0  0
 15 20  1  6  0  0  0
 16  3  1  0  0  0  0
 16  9  1  0  0  0  0
 18 19  1  0  0  0  0
 19 21  2  0  0  0  0
 20 23  2  0  0  0  0
 22 18  2  0  0  0  0
 22 20  1  0  0  0  0
 23 21  1  0  0  0  0
 24 18  1  0  0  0  0
 25 26  1  0  0  0  0
 27 25  2  0  0  0  0
 28 13  1  0  0  0  0
 29 31  1  0  0  0  0
 30 33  1  0  0  0  0
 30 29  2  0  0  0  0
 32 33  1  0  0  0  0
 33 34  2  0  0  0  0
 34 31  1  0  0  0  0
 34 28  1  0  0  0  0
M  END
>  <MODEL>
9

>  <REMARK>
 VINA RESULT:      -3.4      3.350      6.584
  Name = 
  4 active torsions:
  status: ('A' for Active; 'I' for Inactive)
    1  A    between atoms: C_12  and  C_28
    2  A    between atoms: C_18  and  C_29
    3  A    between atoms: C_20  and  C_25
    4  A    between atoms: C_20  and  C_34
                            x       y       z     vdW  Elec       q    Type
                         _______ _______ _______ _____ _____    ______ ____

>  <TORSDO>
F 4

$$$$
