=
 OpenBabel11062408123D

 34 37  0  0  1  0  0  0  0  0999 V2000
  160.2690  208.0350  154.8900 C   0  0  1  0  0  3  0  0  0  0  0  0
  162.0910  209.7080  154.9700 C   0  0  1  0  0  3  0  0  0  0  0  0
  160.5950  209.5230  152.8460 C   0  0  1  0  0  3  0  0  0  0  0  0
  160.8700  208.1830  156.2350 C   0  0  0  0  0  0  0  0  0  0  0  0
  161.9490  209.0960  156.2790 N   0  0  0  0  0  2  0  0  0  0  0  0
  160.6300  211.6080  154.2660 C   0  0  0  0  0  3  0  0  0  0  0  0
  161.2630  208.8070  154.0230 C   0  0  2  0  0  3  0  0  0  0  0  0
  160.4530  207.5840  157.2610 O   0  0  0  0  0  0  0  0  0  0  0  0
  161.5840  211.1230  155.0570 C   0  0  0  0  0  3  0  0  0  0  0  0
  160.0270  210.8090  153.2430 N   0  0  0  0  0  0  0  0  0  0  0  0
  161.5490  208.5970  150.7270 C   0  0  1  0  0  0  0  0  0  0  0  0
  161.5850  209.7220  151.7020 C   0  0  2  0  0  3  0  0  0  0  0  0
  162.5530  208.6960  151.7090 O   0  0  0  0  0  0  0  0  0  0  0  0
  160.7150  207.5060  150.9820 O   0  0  0  0  0  1  0  0  0  0  0  0
  161.3140  209.5840  148.5250 F   0  0  0  0  0  0  0  0  0  0  0  0
  162.0970  208.7500  149.3080 C   0  0  2  0  0  3  0  0  0  0  0  0
  162.4350  207.4070  148.6430 C   0  0  0  0  0  2  0  0  0  0  0  0
  160.3530  206.3340  148.0770 O   0  0  0  0  0  1  0  0  0  0  0  0
  162.1510  206.0410  146.5270 C   0  0  0  0  0  1  0  0  0  0  0  0
  161.4790  206.9540  147.5350 C   0  0  2  0  0  3  0  0  0  0  0  0
  160.2400  206.5700  154.4810 C   0  0  0  0  0  2  0  0  0  0  0  0
  161.5680  206.1650  153.8720 C   0  0  0  0  0  1  0  0  0  0  0  0
  158.8740  211.3140  152.5130 C   0  0  0  0  0  2  0  0  0  0  0  0
  158.9330  212.8320  152.4050 C   0  0  2  0  0  3  0  0  0  0  0  0
  157.6410  213.3450  152.3050 O   0  0  0  0  0  1  0  0  0  0  0  0
  159.7310  213.2350  151.1790 C   0  0  0  0  0  2  0  0  0  0  0  0
  158.8970  213.2340  150.0590 O   0  0  0  0  0  0  0  0  0  0  0  0
  159.4100  214.2310  149.2220 C   0  0  2  0  0  3  0  0  0  0  0  0
  158.9220  214.0420  147.7920 C   0  0  1  0  0  3  0  0  0  0  0  0
  159.9010  212.7190  147.0250 S   0  0  0  0  0  0  0  0  0  0  0  0
  161.2360  212.9170  148.2500 C   0  0  0  0  0  2  0  0  0  0  0  0
  160.9160  214.0980  149.1490 C   0  0  0  0  0  2  0  0  0  0  0  0
  157.2390  212.3820  147.4330 O   0  0  0  0  0  1  0  0  0  0  0  0
  157.4330  213.7390  147.6960 C   0  0  0  0  0  2  0  0  0  0  0  0
  1 21  1  6  0  0  0
  1  4  1  0  0  0  0
  2  9  1  1  0  0  0
  2  5  1  0  0  0  0
  3 10  1  1  0  0  0
  3  7  1  0  0  0  0
  4  5  1  0  0  0  0
  4  8  2  0  0  0  0
  6  9  2  0  0  0  0
  7  1  1  0  0  0  0
  7  2  1  0  0  0  0
 10  6  1  0  0  0  0
 11 14  1  0  0  0  0
 11 12  1  0  0  0  0
 11 13  1  0  0  0  0
 12 13  1  0  0  0  0
 12  3  1  0  0  0  0
 15 16  1  0  0  0  0
 16 11  1  0  0  0  0
 17 16  1  0  0  0  0
 19 20  1  0  0  0  0
 20 18  1  0  0  0  0
 20 17  1  0  0  0  0
 22 21  1  0  0  0  0
 23 10  1  0  0  0  0
 24 23  1  0  0  0  0
 25 24  1  0  0  0  0
 26 24  1  0  0  0  0
 27 26  1  0  0  0  0
 28 27  1  0  0  0  0
 29 28  1  0  0  0  0
 30 29  1  0  0  0  0
 30 31  1  0  0  0  0
 31 32  1  0  0  0  0
 32 28  1  0  0  0  0
 33 34  1  0  0  0  0
 34 29  1  0  0  0  0
M  END
>  <MODEL>
1

>  <REMARK>
 VINA RESULT:      -5.8      0.000      0.000
  Name = 
  11 active torsions:
  status: ('A' for Active; 'I' for Inactive)
    1  A    between atoms: C_1  and  C_24
    2  A    between atoms: O_3  and  C_13
    3  A    between atoms: O_3  and  C_17
    4  A    between atoms: C_4  and  C_21
    5  A    between atoms: C_5  and  C_18
    6  A    between atoms: C_5  and  N_31
    7  A    between atoms: C_7  and  C_23
    8  A    between atoms: C_12  and  C_23
    9  A    between atoms: C_12  and  C_27
   10  A    between atoms: C_14  and  C_34
   11  A    between atoms: C_17  and  C_18
                            x       y       z     vdW  Elec       q    Type
                         _______ _______ _______ _____ _____    ______ ____

>  <TORSDO>
F 11

$$$$
=
 OpenBabel11062408123D

 34 37  0  0  1  0  0  0  0  0999 V2000
  159.4860  212.4730  146.8910 C   0  0  1  0  0  3  0  0  0  0  0  0
  161.3390  214.0630  147.2990 C   0  0  1  0  0  3  0  0  0  0  0  0
  160.4840  212.5460  149.2360 C   0  0  1  0  0  3  0  0  0  0  0  0
  160.0150  213.0880  145.6520 C   0  0  0  0  0  0  0  0  0  0  0  0
  161.0370  214.0390  145.8790 N   0  0  0  0  0  2  0  0  0  0  0  0
  162.8320  212.3480  148.3330 C   0  0  0  0  0  3  0  0  0  0  0  0
  160.1480  213.3340  147.9660 C   0  0  2  0  0  3  0  0  0  0  0  0
  159.6260  212.7810  144.4940 O   0  0  0  0  0  0  0  0  0  0  0  0
  162.6630  213.3790  147.5080 C   0  0  0  0  0  3  0  0  0  0  0  0
  161.7490  211.8260  149.1100 N   0  0  0  0  0  0  0  0  0  0  0  0
  159.2770  213.4000  151.2530 C   0  0  1  0  0  0  0  0  0  0  0  0
  160.5290  213.4690  150.4500 C   0  0  2  0  0  3  0  0  0  0  0  0
  159.5230  214.4530  150.3520 O   0  0  0  0  0  0  0  0  0  0  0  0
  158.2250  212.6000  150.8010 O   0  0  0  0  0  1  0  0  0  0  0  0
  159.8040  212.9510  153.5760 F   0  0  0  0  0  0  0  0  0  0  0  0
  159.2320  213.8680  152.7070 C   0  0  2  0  0  3  0  0  0  0  0  0
  157.8430  214.3570  153.1420 C   0  0  0  0  0  2  0  0  0  0  0  0
  156.6200  212.4180  153.8870 O   0  0  0  0  0  1  0  0  0  0  0  0
  156.2030  214.4530  155.0730 C   0  0  0  0  0  1  0  0  0  0  0  0
  157.2110  213.6060  154.3180 C   0  0  2  0  0  3  0  0  0  0  0  0
  157.9740  212.6240  146.9530 C   0  0  0  0  0  2  0  0  0  0  0  0
  157.5990  214.0410  147.3430 C   0  0  0  0  0  1  0  0  0  0  0  0
  161.9280  210.5970  149.8690 C   0  0  0  0  0  2  0  0  0  0  0  0
  162.0490  209.4030  148.9320 C   0  0  2  0  0  3  0  0  0  0  0  0
  161.2810  209.6240  147.7910 O   0  0  0  0  0  1  0  0  0  0  0  0
  161.5670  208.1460  149.6290 C   0  0  0  0  0  2  0  0  0  0  0  0
  161.9390  207.0260  148.8810 O   0  0  0  0  0  0  0  0  0  0  0  0
  160.7360  206.3870  148.5600 C   0  0  2  0  0  3  0  0  0  0  0  0
  160.7640  204.9280  148.9970 C   0  0  1  0  0  3  0  0  0  0  0  0
  161.7330  203.9880  147.7820 S   0  0  0  0  0  0  0  0  0  0  0  0
  161.5040  205.2770  146.5140 C   0  0  0  0  0  2  0  0  0  0  0  0
  160.5740  206.3480  147.0560 C   0  0  0  0  0  2  0  0  0  0  0  0
  160.4680  203.8950  151.1320 O   0  0  0  0  0  1  0  0  0  0  0  0
  161.3160  204.7290  150.4020 C   0  0  0  0  0  2  0  0  0  0  0  0
  1 21  1  6  0  0  0
  1  7  1  0  0  0  0
  2  9  1  6  0  0  0
  2  7  1  0  0  0  0
  3 10  1  6  0  0  0
  3 12  1  0  0  0  0
  4  5  1  0  0  0  0
  4  1  1  0  0  0  0
  5  2  1  0  0  0  0
  6 10  1  0  0  0  0
  7  3  1  0  0  0  0
  8  4  2  0  0  0  0
  9  6  2  0  0  0  0
 10 23  1  0  0  0  0
 11 16  1  0  0  0  0
 12 11  1  0  0  0  0
 13 12  1  0  0  0  0
 13 11  1  0  0  0  0
 14 11  1  0  0  0  0
 16 17  1  0  0  0  0
 16 15  1  0  0  0  0
 17 20  1  0  0  0  0
 18 20  1  0  0  0  0
 20 19  1  0  0  0  0
 21 22  1  0  0  0  0
 24 26  1  0  0  0  0
 24 23  1  0  0  0  0
 25 24  1  0  0  0  0
 27 26  1  0  0  0  0
 28 27  1  0  0  0  0
 28 29  1  0  0  0  0
 29 34  1  0  0  0  0
 30 29  1  0  0  0  0
 31 32  1  0  0  0  0
 31 30  1  0  0  0  0
 32 28  1  0  0  0  0
 34 33  1  0  0  0  0
M  END
>  <MODEL>
2

>  <REMARK>
 VINA RESULT:      -4.7      3.870      8.494
  Name = 
  11 active torsions:
  status: ('A' for Active; 'I' for Inactive)
    1  A    between atoms: C_1  and  C_24
    2  A    between atoms: O_3  and  C_13
    3  A    between atoms: O_3  and  C_17
    4  A    between atoms: C_4  and  C_21
    5  A    between atoms: C_5  and  C_18
    6  A    between atoms: C_5  and  N_31
    7  A    between atoms: C_7  and  C_23
    8  A    between atoms: C_12  and  C_23
    9  A    between atoms: C_12  and  C_27
   10  A    between atoms: C_14  and  C_34
   11  A    between atoms: C_17  and  C_18
                            x       y       z     vdW  Elec       q    Type
                         _______ _______ _______ _____ _____    ______ ____

>  <TORSDO>
F 11

$$$$
=
 OpenBabel11062408123D

 34 37  0  0  1  0  0  0  0  0999 V2000
  160.4050  207.9470  154.9010 C   0  0  1  0  0  3  0  0  0  0  0  0
  162.1090  209.7420  154.8800 C   0  0  1  0  0  3  0  0  0  0  0  0
  160.5220  209.4400  152.8370 C   0  0  1  0  0  3  0  0  0  0  0  0
  161.0630  208.1450  156.2120 C   0  0  0  0  0  0  0  0  0  0  0  0
  162.0780  209.1310  156.1960 N   0  0  0  0  0  2  0  0  0  0  0  0
  160.4870  211.5320  154.2460 C   0  0  0  0  0  3  0  0  0  0  0  0
  161.2970  208.7790  153.9810 C   0  0  2  0  0  3  0  0  0  0  0  0
  160.7420  207.5260  157.2600 O   0  0  0  0  0  0  0  0  0  0  0  0
  161.5120  211.1190  154.9890 C   0  0  0  0  0  3  0  0  0  0  0  0
  159.8880  210.6860  153.2590 N   0  0  0  0  0  0  0  0  0  0  0  0
  161.4760  208.5410  150.7070 C   0  0  1  0  0  0  0  0  0  0  0  0
  161.4350  209.6990  151.6430 C   0  0  2  0  0  3  0  0  0  0  0  0
  162.5050  208.7790  151.6370 O   0  0  0  0  0  0  0  0  0  0  0  0
  160.7730  207.3790  151.0350 O   0  0  0  0  0  1  0  0  0  0  0  0
  161.9290  210.0180  148.8390 F   0  0  0  0  0  0  0  0  0  0  0  0
  161.9440  208.6980  149.2600 C   0  0  2  0  0  3  0  0  0  0  0  0
  161.2510  207.7270  148.2920 C   0  0  0  0  0  2  0  0  0  0  0  0
  162.3280  206.3560  146.6280 O   0  0  0  0  0  1  0  0  0  0  0  0
  161.2580  205.1950  148.4250 C   0  0  0  0  0  1  0  0  0  0  0  0
  162.0150  206.4350  147.9850 C   0  0  2  0  0  3  0  0  0  0  0  0
  160.4560  206.4810  154.4980 C   0  0  0  0  0  2  0  0  0  0  0  0
  161.7830  206.1590  153.8400 C   0  0  0  0  0  1  0  0  0  0  0  0
  158.6670  211.1070  152.5880 C   0  0  0  0  0  2  0  0  0  0  0  0
  158.8470  212.4840  151.9640 C   0  0  2  0  0  3  0  0  0  0  0  0
  160.1830  212.8690  152.0570 O   0  0  0  0  0  1  0  0  0  0  0  0
  157.9800  213.4980  152.6860 C   0  0  0  0  0  2  0  0  0  0  0  0
  157.8660  213.1410  154.0310 O   0  0  0  0  0  0  0  0  0  0  0  0
  157.1790  214.2010  154.6330 C   0  0  2  0  0  3  0  0  0  0  0  0
  157.6950  214.4510  156.0440 C   0  0  1  0  0  3  0  0  0  0  0  0
  156.9780  213.1970  157.1440 S   0  0  0  0  0  0  0  0  0  0  0  0
  155.6270  212.8540  155.9690 C   0  0  0  0  0  2  0  0  0  0  0  0
  155.7230  213.8230  154.8040 C   0  0  0  0  0  2  0  0  0  0  0  0
  159.6340  213.4750  157.0450 O   0  0  0  0  0  1  0  0  0  0  0  0
  159.2150  214.4500  156.1390 C   0  0  0  0  0  2  0  0  0  0  0  0
  1 21  1  6  0  0  0
  1  4  1  0  0  0  0
  2  9  1  1  0  0  0
  2  5  1  0  0  0  0
  3 10  1  1  0  0  0
  3  7  1  0  0  0  0
  4  8  2  0  0  0  0
  5  4  1  0  0  0  0
  6  9  2  0  0  0  0
  7  2  1  0  0  0  0
  7  1  1  0  0  0  0
 10  6  1  0  0  0  0
 11 14  1  0  0  0  0
 11 13  1  0  0  0  0
 11 12  1  0  0  0  0
 12  3  1  0  0  0  0
 13 12  1  0  0  0  0
 15 16  1  0  0  0  0
 16 11  1  0  0  0  0
 17 16  1  0  0  0  0
 18 20  1  0  0  0  0
 20 17  1  0  0  0  0
 20 19  1  0  0  0  0
 22 21  1  0  0  0  0
 23 10  1  0  0  0  0
 24 25  1  0  0  0  0
 24 23  1  0  0  0  0
 24 26  1  0  0  0  0
 26 27  1  0  0  0  0
 27 28  1  0  0  0  0
 28 32  1  0  0  0  0
 28 29  1  0  0  0  0
 29 34  1  0  0  0  0
 29 30  1  0  0  0  0
 31 30  1  0  0  0  0
 32 31  1  0  0  0  0
 34 33  1  0  0  0  0
M  END
>  <MODEL>
3

>  <REMARK>
 VINA RESULT:      -4.5      2.718      4.143
  Name = 
  11 active torsions:
  status: ('A' for Active; 'I' for Inactive)
    1  A    between atoms: C_1  and  C_24
    2  A    between atoms: O_3  and  C_13
    3  A    between atoms: O_3  and  C_17
    4  A    between atoms: C_4  and  C_21
    5  A    between atoms: C_5  and  C_18
    6  A    between atoms: C_5  and  N_31
    7  A    between atoms: C_7  and  C_23
    8  A    between atoms: C_12  and  C_23
    9  A    between atoms: C_12  and  C_27
   10  A    between atoms: C_14  and  C_34
   11  A    between atoms: C_17  and  C_18
                            x       y       z     vdW  Elec       q    Type
                         _______ _______ _______ _____ _____    ______ ____

>  <TORSDO>
F 11

$$$$
=
 OpenBabel11062408123D

 34 37  0  0  1  0  0  0  0  0999 V2000
  158.9830  210.7710  155.1410 C   0  0  1  0  0  3  0  0  0  0  0  0
  160.8660  210.1630  156.6280 C   0  0  1  0  0  3  0  0  0  0  0  0
  160.7520  209.1860  154.2160 C   0  0  1  0  0  3  0  0  0  0  0  0
  159.0370  211.5810  156.3790 C   0  0  0  0  0  0  0  0  0  0  0  0
  160.0770  211.2040  157.2610 N   0  0  0  0  0  2  0  0  0  0  0  0
  162.6220  210.7170  154.9400 C   0  0  0  0  0  3  0  0  0  0  0  0
  159.9890  209.6640  155.4540 C   0  0  2  0  0  3  0  0  0  0  0  0
  158.2590  212.5400  156.6260 O   0  0  0  0  0  0  0  0  0  0  0  0
  162.1740  210.7660  156.1930 C   0  0  0  0  0  3  0  0  0  0  0  0
  161.8860  210.0540  153.9070 N   0  0  0  0  0  0  0  0  0  0  0  0
  161.0770  206.9450  153.1530 C   0  0  1  0  0  0  0  0  0  0  0  0
  161.2310  207.7490  154.3970 C   0  0  2  0  0  3  0  0  0  0  0  0
  160.1590  206.8500  154.2160 O   0  0  0  0  0  0  0  0  0  0  0  0
  160.4780  207.5330  152.0360 O   0  0  0  0  0  1  0  0  0  0  0  0
  163.0500  205.8600  152.2550 F   0  0  0  0  0  0  0  0  0  0  0  0
  161.8590  205.6510  152.9340 C   0  0  2  0  0  3  0  0  0  0  0  0
  161.0010  204.5170  152.3530 C   0  0  0  0  0  2  0  0  0  0  0  0
  160.5650  205.0630  150.0460 O   0  0  0  0  0  1  0  0  0  0  0  0
  160.8900  202.7460  150.5430 C   0  0  0  0  0  1  0  0  0  0  0  0
  161.2520  204.1800  150.8790 C   0  0  2  0  0  3  0  0  0  0  0  0
  157.5930  210.1810  154.9540 C   0  0  0  0  0  2  0  0  0  0  0  0
  156.5520  211.2830  154.9110 C   0  0  0  0  0  1  0  0  0  0  0  0
  162.3190  210.1660  152.5220 C   0  0  0  0  0  2  0  0  0  0  0  0
  161.1850  210.6830  151.6480 C   0  0  2  0  0  3  0  0  0  0  0  0
  161.6200  210.7840  150.3270 O   0  0  0  0  0  1  0  0  0  0  0  0
  160.7340  212.0470  152.1350 C   0  0  0  0  0  2  0  0  0  0  0  0
  159.5160  212.3770  151.5370 O   0  0  0  0  0  0  0  0  0  0  0  0
  159.6340  213.7280  151.1920 C   0  0  2  0  0  3  0  0  0  0  0  0
  158.3070  214.4530  151.3780 C   0  0  1  0  0  3  0  0  0  0  0  0
  157.2390  214.0570  149.9650 S   0  0  0  0  0  0  0  0  0  0  0  0
  158.6680  213.5670  148.9460 C   0  0  0  0  0  2  0  0  0  0  0  0
  159.9470  213.8440  149.7160 C   0  0  0  0  0  2  0  0  0  0  0  0
  156.2790  213.7910  152.4560 O   0  0  0  0  0  1  0  0  0  0  0  0
  157.6150  214.1170  152.6920 C   0  0  0  0  0  2  0  0  0  0  0  0
  1 21  1  1  0  0  0
  1  7  1  0  0  0  0
  1  4  1  0  0  0  0
  2  9  1  6  0  0  0
  2  5  1  0  0  0  0
  3 10  1  1  0  0  0
  3 12  1  0  0  0  0
  3  7  1  0  0  0  0
  4  8  2  0  0  0  0
  4  5  1  0  0  0  0
  6  9  2  0  0  0  0
  7  2  1  0  0  0  0
 10  6  1  0  0  0  0
 11 13  1  0  0  0  0
 11 12  1  0  0  0  0
 13 12  1  0  0  0  0
 14 11  1  0  0  0  0
 15 16  1  0  0  0  0
 16 11  1  0  0  0  0
 17 16  1  0  0  0  0
 18 20  1  0  0  0  0
 19 20  1  0  0  0  0
 20 17  1  0  0  0  0
 22 21  1  0  0  0  0
 23 10  1  0  0  0  0
 24 26  1  0  0  0  0
 24 23  1  0  0  0  0
 25 24  1  0  0  0  0
 27 26  1  0  0  0  0
 28 29  1  0  0  0  0
 28 27  1  0  0  0  0
 29 34  1  0  0  0  0
 30 29  1  0  0  0  0
 31 32  1  0  0  0  0
 31 30  1  0  0  0  0
 32 28  1  0  0  0  0
 33 34  1  0  0  0  0
M  END
>  <MODEL>
4

>  <REMARK>
 VINA RESULT:      -4.3      2.548      3.753
  Name = 
  11 active torsions:
  status: ('A' for Active; 'I' for Inactive)
    1  A    between atoms: C_1  and  C_24
    2  A    between atoms: O_3  and  C_13
    3  A    between atoms: O_3  and  C_17
    4  A    between atoms: C_4  and  C_21
    5  A    between atoms: C_5  and  C_18
    6  A    between atoms: C_5  and  N_31
    7  A    between atoms: C_7  and  C_23
    8  A    between atoms: C_12  and  C_23
    9  A    between atoms: C_12  and  C_27
   10  A    between atoms: C_14  and  C_34
   11  A    between atoms: C_17  and  C_18
                            x       y       z     vdW  Elec       q    Type
                         _______ _______ _______ _____ _____    ______ ____

>  <TORSDO>
F 11

$$$$
=
 OpenBabel11062408123D

 34 37  0  0  1  0  0  0  0  0999 V2000
  159.6270  212.9900  147.0740 C   0  0  1  0  0  3  0  0  0  0  0  0
  161.7000  214.1620  147.7500 C   0  0  1  0  0  3  0  0  0  0  0  0
  160.5820  212.4630  149.3780 C   0  0  1  0  0  3  0  0  0  0  0  0
  160.2680  213.7340  145.9660 C   0  0  0  0  0  0  0  0  0  0  0  0
  161.4230  214.4520  146.3550 N   0  0  0  0  0  2  0  0  0  0  0  0
  162.8850  212.0690  148.4250 C   0  0  0  0  0  3  0  0  0  0  0  0
  160.3970  213.5180  148.2830 C   0  0  2  0  0  3  0  0  0  0  0  0
  159.8560  213.7150  144.7760 O   0  0  0  0  0  0  0  0  0  0  0  0
  162.8960  213.2500  147.8100 C   0  0  0  0  0  3  0  0  0  0  0  0
  161.7200  211.5890  149.1040 N   0  0  0  0  0  0  0  0  0  0  0  0
  159.5060  213.0540  151.5570 C   0  0  1  0  0  0  0  0  0  0  0  0
  160.7510  213.1240  150.7430 C   0  0  2  0  0  3  0  0  0  0  0  0
  159.8750  214.2230  150.8650 O   0  0  0  0  0  0  0  0  0  0  0  0
  158.3580  212.4900  150.9940 O   0  0  0  0  0  1  0  0  0  0  0  0
  160.1740  212.1940  153.7220 F   0  0  0  0  0  0  0  0  0  0  0  0
  159.5300  213.2360  153.0740 C   0  0  2  0  0  3  0  0  0  0  0  0
  158.1540  213.5820  153.6630 C   0  0  0  0  0  2  0  0  0  0  0  0
  157.1960  211.4370  154.2030 O   0  0  0  0  0  1  0  0  0  0  0  0
  156.5510  213.2680  155.6010 C   0  0  0  0  0  1  0  0  0  0  0  0
  157.6420  212.6380  154.7560 C   0  0  2  0  0  3  0  0  0  0  0  0
  158.1560  213.3650  147.1820 C   0  0  0  0  0  2  0  0  0  0  0  0
  157.2940  212.3220  146.4980 C   0  0  0  0  0  1  0  0  0  0  0  0
  161.6890  210.2270  149.6160 C   0  0  0  0  0  2  0  0  0  0  0  0
  161.7980  210.2250  151.1350 C   0  0  2  0  0  3  0  0  0  0  0  0
  163.1310  210.3870  151.5090 O   0  0  0  0  0  1  0  0  0  0  0  0
  161.2740  208.9150  151.6910 C   0  0  0  0  0  2  0  0  0  0  0  0
  160.9720  208.0480  150.6380 O   0  0  0  0  0  0  0  0  0  0  0  0
  162.0700  207.1860  150.5480 C   0  0  2  0  0  3  0  0  0  0  0  0
  161.8000  206.0660  149.5530 C   0  0  1  0  0  3  0  0  0  0  0  0
  160.7400  204.8320  150.3570 S   0  0  0  0  0  0  0  0  0  0  0  0
  161.2090  205.4230  152.0160 C   0  0  0  0  0  2  0  0  0  0  0  0
  162.2760  206.4950  151.8790 C   0  0  0  0  0  2  0  0  0  0  0  0
  162.1730  206.7740  147.3000 O   0  0  0  0  0  1  0  0  0  0  0  0
  161.1770  206.5510  148.2510 C   0  0  0  0  0  2  0  0  0  0  0  0
  1 21  1  1  0  0  0
  1  7  1  0  0  0  0
  2  9  1  6  0  0  0
  2  7  1  0  0  0  0
  3 10  1  6  0  0  0
  3 12  1  0  0  0  0
  4  5  1  0  0  0  0
  4  1  1  0  0  0  0
  5  2  1  0  0  0  0
  6 10  1  0  0  0  0
  7  3  1  0  0  0  0
  8  4  2  0  0  0  0
  9  6  2  0  0  0  0
 10 23  1  0  0  0  0
 11 16  1  0  0  0  0
 12 13  1  0  0  0  0
 12 11  1  0  0  0  0
 13 11  1  0  0  0  0
 14 11  1  0  0  0  0
 16 17  1  0  0  0  0
 16 15  1  0  0  0  0
 17 20  1  0  0  0  0
 18 20  1  0  0  0  0
 20 19  1  0  0  0  0
 22 21  1  0  0  0  0
 23 24  1  0  0  0  0
 24 25  1  0  0  0  0
 24 26  1  0  0  0  0
 27 26  1  0  0  0  0
 28 27  1  0  0  0  0
 28 32  1  0  0  0  0
 29 30  1  0  0  0  0
 29 28  1  0  0  0  0
 30 31  1  0  0  0  0
 32 31  1  0  0  0  0
 33 34  1  0  0  0  0
 34 29  1  0  0  0  0
M  END
>  <MODEL>
5

>  <REMARK>
 VINA RESULT:      -4.2      3.238      8.084
  Name = 
  11 active torsions:
  status: ('A' for Active; 'I' for Inactive)
    1  A    between atoms: C_1  and  C_24
    2  A    between atoms: O_3  and  C_13
    3  A    between atoms: O_3  and  C_17
    4  A    between atoms: C_4  and  C_21
    5  A    between atoms: C_5  and  C_18
    6  A    between atoms: C_5  and  N_31
    7  A    between atoms: C_7  and  C_23
    8  A    between atoms: C_12  and  C_23
    9  A    between atoms: C_12  and  C_27
   10  A    between atoms: C_14  and  C_34
   11  A    between atoms: C_17  and  C_18
                            x       y       z     vdW  Elec       q    Type
                         _______ _______ _______ _____ _____    ______ ____

>  <TORSDO>
F 11

$$$$
=
 OpenBabel11062408123D

 34 37  0  0  1  0  0  0  0  0999 V2000
  159.6050  210.9410  155.1740 C   0  0  1  0  0  3  0  0  0  0  0  0
  161.7190  210.2460  156.2580 C   0  0  1  0  0  3  0  0  0  0  0  0
  161.0000  209.1550  154.0050 C   0  0  1  0  0  3  0  0  0  0  0  0
  159.9940  211.8080  156.3090 C   0  0  0  0  0  0  0  0  0  0  0  0
  161.1710  211.3860  156.9700 N   0  0  0  0  0  2  0  0  0  0  0  0
  163.0950  210.5480  154.1950 C   0  0  0  0  0  3  0  0  0  0  0  0
  160.5680  209.7660  155.3410 C   0  0  2  0  0  3  0  0  0  0  0  0
  159.3660  212.8450  156.6480 O   0  0  0  0  0  0  0  0  0  0  0  0
  162.9410  210.7040  155.5080 C   0  0  0  0  0  3  0  0  0  0  0  0
  162.1000  209.8990  153.3970 N   0  0  0  0  0  0  0  0  0  0  0  0
  161.0970  206.8800  152.9700 C   0  0  1  0  0  0  0  0  0  0  0  0
  161.3960  207.6920  154.1820 C   0  0  2  0  0  3  0  0  0  0  0  0
  160.2570  206.8640  154.0990 O   0  0  0  0  0  0  0  0  0  0  0  0
  160.4570  207.4880  151.8870 O   0  0  0  0  0  1  0  0  0  0  0  0
  163.0020  205.6650  152.0910 F   0  0  0  0  0  0  0  0  0  0  0  0
  161.7750  205.5320  152.7220 C   0  0  2  0  0  3  0  0  0  0  0  0
  160.8450  204.4990  152.0680 C   0  0  0  0  0  2  0  0  0  0  0  0
  160.7900  204.9040  149.6920 O   0  0  0  0  0  1  0  0  0  0  0  0
  160.7880  202.6120  150.3770 C   0  0  0  0  0  1  0  0  0  0  0  0
  161.2570  204.0250  150.6700 C   0  0  2  0  0  3  0  0  0  0  0  0
  158.1680  210.4700  155.3340 C   0  0  0  0  0  2  0  0  0  0  0  0
  157.2260  211.3700  154.5580 C   0  0  0  0  0  1  0  0  0  0  0  0
  162.2220  209.8970  151.9460 C   0  0  0  0  0  2  0  0  0  0  0  0
  161.7220  211.2120  151.3660 C   0  0  2  0  0  3  0  0  0  0  0  0
  160.3630  211.3580  151.6380 O   0  0  0  0  0  1  0  0  0  0  0  0
  161.9400  211.2340  149.8650 C   0  0  0  0  0  2  0  0  0  0  0  0
  160.9570  212.0210  149.2620 O   0  0  0  0  0  0  0  0  0  0  0  0
  161.5810  213.2440  148.9940 C   0  0  2  0  0  3  0  0  0  0  0  0
  160.5800  214.2590  148.4600 C   0  0  1  0  0  3  0  0  0  0  0  0
  160.2740  213.8900  146.7090 S   0  0  0  0  0  0  0  0  0  0  0  0
  161.8290  212.9500  146.5740 C   0  0  0  0  0  2  0  0  0  0  0  0
  162.5920  213.0590  147.8830 C   0  0  0  0  0  2  0  0  0  0  0  0
  158.2460  213.7420  148.4760 O   0  0  0  0  0  1  0  0  0  0  0  0
  159.2750  214.2900  149.2440 C   0  0  0  0  0  2  0  0  0  0  0  0
  1 21  1  1  0  0  0
  1  7  1  0  0  0  0
  1  4  1  0  0  0  0
  2  9  1  6  0  0  0
  2  5  1  0  0  0  0
  3 10  1  1  0  0  0
  3 12  1  0  0  0  0
  3  7  1  0  0  0  0
  4  8  2  0  0  0  0
  4  5  1  0  0  0  0
  6  9  2  0  0  0  0
  7  2  1  0  0  0  0
 10  6  1  0  0  0  0
 11 13  1  0  0  0  0
 11 12  1  0  0  0  0
 13 12  1  0  0  0  0
 14 11  1  0  0  0  0
 15 16  1  0  0  0  0
 16 11  1  0  0  0  0
 17 16  1  0  0  0  0
 18 20  1  0  0  0  0
 19 20  1  0  0  0  0
 20 17  1  0  0  0  0
 22 21  1  0  0  0  0
 23 10  1  0  0  0  0
 24 25  1  0  0  0  0
 24 23  1  0  0  0  0
 26 24  1  0  0  0  0
 27 26  1  0  0  0  0
 28 27  1  0  0  0  0
 29 28  1  0  0  0  0
 29 34  1  0  0  0  0
 30 29  1  0  0  0  0
 31 30  1  0  0  0  0
 31 32  1  0  0  0  0
 32 28  1  0  0  0  0
 33 34  1  0  0  0  0
M  END
>  <MODEL>
6

>  <REMARK>
 VINA RESULT:      -3.9      2.437      3.390
  Name = 
  11 active torsions:
  status: ('A' for Active; 'I' for Inactive)
    1  A    between atoms: C_1  and  C_24
    2  A    between atoms: O_3  and  C_13
    3  A    between atoms: O_3  and  C_17
    4  A    between atoms: C_4  and  C_21
    5  A    between atoms: C_5  and  C_18
    6  A    between atoms: C_5  and  N_31
    7  A    between atoms: C_7  and  C_23
    8  A    between atoms: C_12  and  C_23
    9  A    between atoms: C_12  and  C_27
   10  A    between atoms: C_14  and  C_34
   11  A    between atoms: C_17  and  C_18
                            x       y       z     vdW  Elec       q    Type
                         _______ _______ _______ _____ _____    ______ ____

>  <TORSDO>
F 11

$$$$
=
 OpenBabel11062408123D

 34 37  0  0  1  0  0  0  0  0999 V2000
  160.4730  205.6150  150.4130 C   0  0  1  0  0  3  0  0  0  0  0  0
  162.5690  205.9300  151.6900 C   0  0  1  0  0  3  0  0  0  0  0  0
  161.1690  208.0040  150.9680 C   0  0  1  0  0  3  0  0  0  0  0  0
  161.0260  204.3520  150.9520 C   0  0  0  0  0  0  0  0  0  0  0  0
  162.2530  204.5140  151.6360 N   0  0  0  0  0  2  0  0  0  0  0  0
  161.5240  207.4240  153.3980 C   0  0  0  0  0  3  0  0  0  0  0  0
  161.6340  206.5820  150.6440 C   0  0  2  0  0  3  0  0  0  0  0  0
  160.4560  203.2350  150.8480 O   0  0  0  0  0  0  0  0  0  0  0  0
  162.3320  206.4090  153.0970 C   0  0  0  0  0  3  0  0  0  0  0  0
  160.8330  208.1570  152.3810 N   0  0  0  0  0  0  0  0  0  0  0  0
  162.0720  209.4860  149.1670 C   0  0  1  0  0  0  0  0  0  0  0  0
  162.2330  209.0240  150.5730 C   0  0  2  0  0  3  0  0  0  0  0  0
  163.0300  208.5180  149.5250 O   0  0  0  0  0  0  0  0  0  0  0  0
  161.0690  208.9180  148.3770 O   0  0  0  0  0  1  0  0  0  0  0  0
  163.3910  211.4550  149.6760 F   0  0  0  0  0  0  0  0  0  0  0  0
  162.7060  210.7860  148.6730 C   0  0  2  0  0  3  0  0  0  0  0  0
  161.7300  211.6740  147.8860 C   0  0  0  0  0  2  0  0  0  0  0  0
  162.1890  214.0210  148.1800 O   0  0  0  0  0  1  0  0  0  0  0  0
  161.7180  213.3050  145.9470 C   0  0  0  0  0  1  0  0  0  0  0  0
  162.3250  212.9540  147.2920 C   0  0  2  0  0  3  0  0  0  0  0  0
  160.1910  205.4780  148.9240 C   0  0  0  0  0  2  0  0  0  0  0  0
  161.4890  205.3570  148.1490 C   0  0  0  0  0  1  0  0  0  0  0  0
  159.8310  209.1450  152.7540 C   0  0  0  0  0  2  0  0  0  0  0  0
  160.4040  210.1350  153.7580 C   0  0  2  0  0  3  0  0  0  0  0  0
  159.9090  209.8520  155.0300 O   0  0  0  0  0  1  0  0  0  0  0  0
  160.0180  211.5500  153.3710 C   0  0  0  0  0  2  0  0  0  0  0  0
  158.6390  211.7140  153.5190 O   0  0  0  0  0  0  0  0  0  0  0  0
  158.4920  212.8540  154.3170 C   0  0  2  0  0  3  0  0  0  0  0  0
  157.1580  212.8330  155.0510 C   0  0  1  0  0  3  0  0  0  0  0  0
  155.8570  213.3290  153.8860 S   0  0  0  0  0  0  0  0  0  0  0  0
  157.0680  214.1310  152.7840 C   0  0  0  0  0  2  0  0  0  0  0  0
  158.4400  214.0820  153.4330 C   0  0  0  0  0  2  0  0  0  0  0  0
  155.7610  210.8930  155.0170 O   0  0  0  0  0  1  0  0  0  0  0  0
  156.8370  211.4850  155.6820 C   0  0  0  0  0  2  0  0  0  0  0  0
  1 21  1  6  0  0  0
  1  7  1  0  0  0  0
  1  4  1  0  0  0  0
  2  9  1  1  0  0  0
  3 10  1  1  0  0  0
  4  5  1  0  0  0  0
  5  2  1  0  0  0  0
  7  3  1  0  0  0  0
  7  2  1  0  0  0  0
  8  4  2  0  0  0  0
  9  6  2  0  0  0  0
 10 23  1  0  0  0  0
 10  6  1  0  0  0  0
 11 13  1  0  0  0  0
 11 12  1  0  0  0  0
 12  3  1  0  0  0  0
 13 12  1  0  0  0  0
 14 11  1  0  0  0  0
 16 11  1  0  0  0  0
 16 15  1  0  0  0  0
 17 16  1  0  0  0  0
 19 20  1  0  0  0  0
 20 17  1  0  0  0  0
 20 18  1  0  0  0  0
 22 21  1  0  0  0  0
 23 24  1  0  0  0  0
 24 25  1  0  0  0  0
 26 27  1  0  0  0  0
 26 24  1  0  0  0  0
 27 28  1  0  0  0  0
 28 29  1  0  0  0  0
 29 34  1  0  0  0  0
 30 29  1  0  0  0  0
 31 32  1  0  0  0  0
 31 30  1  0  0  0  0
 32 28  1  0  0  0  0
 33 34  1  0  0  0  0
M  END
>  <MODEL>
7

>  <REMARK>
 VINA RESULT:      -3.6      2.975      5.294
  Name = 
  11 active torsions:
  status: ('A' for Active; 'I' for Inactive)
    1  A    between atoms: C_1  and  C_24
    2  A    between atoms: O_3  and  C_13
    3  A    between atoms: O_3  and  C_17
    4  A    between atoms: C_4  and  C_21
    5  A    between atoms: C_5  and  C_18
    6  A    between atoms: C_5  and  N_31
    7  A    between atoms: C_7  and  C_23
    8  A    between atoms: C_12  and  C_23
    9  A    between atoms: C_12  and  C_27
   10  A    between atoms: C_14  and  C_34
   11  A    between atoms: C_17  and  C_18
                            x       y       z     vdW  Elec       q    Type
                         _______ _______ _______ _____ _____    ______ ____

>  <TORSDO>
F 11

$$$$
=
 OpenBabel11062408123D

 34 37  0  0  1  0  0  0  0  0999 V2000
  160.5770  206.4690  150.0020 C   0  0  1  0  0  3  0  0  0  0  0  0
  162.5710  206.7810  151.4340 C   0  0  1  0  0  3  0  0  0  0  0  0
  161.1880  208.8520  150.6710 C   0  0  1  0  0  3  0  0  0  0  0  0
  161.1140  205.2000  150.5440 C   0  0  0  0  0  0  0  0  0  0  0  0
  162.2860  205.3620  151.3190 N   0  0  0  0  0  2  0  0  0  0  0  0
  161.3810  208.2080  153.1030 C   0  0  0  0  0  3  0  0  0  0  0  0
  161.7010  207.4470  150.3410 C   0  0  2  0  0  3  0  0  0  0  0  0
  160.5730  204.0770  150.3690 O   0  0  0  0  0  0  0  0  0  0  0  0
  162.2270  207.2160  152.8330 C   0  0  0  0  0  3  0  0  0  0  0  0
  160.7500  208.9590  152.0600 N   0  0  0  0  0  0  0  0  0  0  0  0
  161.9610  210.6770  149.1450 C   0  0  1  0  0  0  0  0  0  0  0  0
  162.2580  209.9000  150.3810 C   0  0  2  0  0  3  0  0  0  0  0  0
  162.8940  209.6220  149.1520 O   0  0  0  0  0  0  0  0  0  0  0  0
  160.8400  210.3380  148.3840 O   0  0  0  0  0  1  0  0  0  0  0  0
  161.8590  213.0880  149.3740 F   0  0  0  0  0  0  0  0  0  0  0  0
  162.6110  212.0340  148.8780 C   0  0  2  0  0  3  0  0  0  0  0  0
  163.0510  212.2160  147.4170 C   0  0  0  0  0  2  0  0  0  0  0  0
  160.9140  213.0720  146.7030 O   0  0  0  0  0  1  0  0  0  0  0  0
  162.7310  213.3440  145.1700 C   0  0  0  0  0  1  0  0  0  0  0  0
  162.2910  213.2820  146.6210 C   0  0  2  0  0  3  0  0  0  0  0  0
  160.4030  206.3690  148.4940 C   0  0  0  0  0  2  0  0  0  0  0  0
  161.7480  206.4620  147.7990 C   0  0  0  0  0  1  0  0  0  0  0  0
  159.7060  209.9190  152.3880 C   0  0  0  0  0  2  0  0  0  0  0  0
  160.0930  210.7300  153.6170 C   0  0  2  0  0  3  0  0  0  0  0  0
  159.1870  210.4800  154.6470 O   0  0  0  0  0  1  0  0  0  0  0  0
  160.0830  212.2100  153.2870 C   0  0  0  0  0  2  0  0  0  0  0  0
  159.0460  212.4820  152.3920 O   0  0  0  0  0  0  0  0  0  0  0  0
  158.8970  213.8730  152.4180 C   0  0  2  0  0  3  0  0  0  0  0  0
  157.4270  214.2590  152.5110 C   0  0  1  0  0  3  0  0  0  0  0  0
  156.6860  214.0860  150.8630 S   0  0  0  0  0  0  0  0  0  0  0  0
  158.3180  214.1730  150.0560 C   0  0  0  0  0  2  0  0  0  0  0  0
  159.3780  214.4530  151.1050 C   0  0  0  0  0  2  0  0  0  0  0  0
  157.1260  213.7330  154.8240 O   0  0  0  0  0  1  0  0  0  0  0  0
  156.6540  213.4480  153.5420 C   0  0  0  0  0  2  0  0  0  0  0  0
  1 21  1  6  0  0  0
  1  7  1  0  0  0  0
  1  4  1  0  0  0  0
  2  9  1  1  0  0  0
  3 10  1  1  0  0  0
  4  5  1  0  0  0  0
  5  2  1  0  0  0  0
  7  3  1  0  0  0  0
  7  2  1  0  0  0  0
  8  4  2  0  0  0  0
  9  6  2  0  0  0  0
 10 23  1  0  0  0  0
 10  6  1  0  0  0  0
 11 13  1  0  0  0  0
 11 12  1  0  0  0  0
 12  3  1  0  0  0  0
 13 12  1  0  0  0  0
 14 11  1  0  0  0  0
 16 11  1  0  0  0  0
 16 15  1  0  0  0  0
 17 16  1  0  0  0  0
 19 20  1  0  0  0  0
 20 18  1  0  0  0  0
 20 17  1  0  0  0  0
 22 21  1  0  0  0  0
 23 24  1  0  0  0  0
 24 25  1  0  0  0  0
 26 24  1  0  0  0  0
 27 28  1  0  0  0  0
 27 26  1  0  0  0  0
 28 29  1  0  0  0  0
 29 34  1  0  0  0  0
 30 29  1  0  0  0  0
 31 30  1  0  0  0  0
 31 32  1  0  0  0  0
 32 28  1  0  0  0  0
 34 33  1  0  0  0  0
M  END
>  <MODEL>
8

>  <REMARK>
 VINA RESULT:      -3.6      2.632      4.720
  Name = 
  11 active torsions:
  status: ('A' for Active; 'I' for Inactive)
    1  A    between atoms: C_1  and  C_24
    2  A    between atoms: O_3  and  C_13
    3  A    between atoms: O_3  and  C_17
    4  A    between atoms: C_4  and  C_21
    5  A    between atoms: C_5  and  C_18
    6  A    between atoms: C_5  and  N_31
    7  A    between atoms: C_7  and  C_23
    8  A    between atoms: C_12  and  C_23
    9  A    between atoms: C_12  and  C_27
   10  A    between atoms: C_14  and  C_34
   11  A    between atoms: C_17  and  C_18
                            x       y       z     vdW  Elec       q    Type
                         _______ _______ _______ _____ _____    ______ ____

>  <TORSDO>
F 11

$$$$
=
 OpenBabel11062408123D

 34 37  0  0  1  0  0  0  0  0999 V2000
  162.2760  206.6780  152.0840 C   0  0  1  0  0  3  0  0  0  0  0  0
  160.4270  206.7900  150.4430 C   0  0  1  0  0  3  0  0  0  0  0  0
  161.4140  208.9880  151.4350 C   0  0  1  0  0  3  0  0  0  0  0  0
  161.9860  205.3780  151.4390 C   0  0  0  0  0  0  0  0  0  0  0  0
  160.8950  205.4200  150.5400 N   0  0  0  0  0  2  0  0  0  0  0  0
  161.5820  208.4500  148.9750 C   0  0  0  0  0  3  0  0  0  0  0  0
  161.0700  207.5110  151.6520 C   0  0  2  0  0  3  0  0  0  0  0  0
  162.6570  204.3310  151.6350 O   0  0  0  0  0  0  0  0  0  0  0  0
  160.8600  207.3400  149.1100 C   0  0  0  0  0  3  0  0  0  0  0  0
  161.9830  209.2240  150.1100 N   0  0  0  0  0  0  0  0  0  0  0  0
  160.3950  210.8980  152.6870 C   0  0  1  0  0  0  0  0  0  0  0  0
  160.1820  209.8650  151.6360 C   0  0  2  0  0  3  0  0  0  0  0  0
  159.6820  209.7120  152.9460 O   0  0  0  0  0  0  0  0  0  0  0  0
  161.6030  210.9110  153.3900 O   0  0  0  0  0  1  0  0  0  0  0  0
  160.0620  213.2270  152.1030 F   0  0  0  0  0  0  0  0  0  0  0  0
  159.5150  212.1440  152.7750 C   0  0  2  0  0  3  0  0  0  0  0  0
  159.0610  212.4640  154.2070 C   0  0  0  0  0  2  0  0  0  0  0  0
  157.2100  213.6340  155.2130 O   0  0  0  0  0  1  0  0  0  0  0  0
  156.9890  211.2590  155.0300 C   0  0  0  0  0  1  0  0  0  0  0  0
  157.5460  212.5340  154.4250 C   0  0  2  0  0  3  0  0  0  0  0  0
  162.2950  206.5250  153.5980 C   0  0  0  0  0  2  0  0  0  0  0  0
  160.8860  206.5910  154.1540 C   0  0  0  0  0  1  0  0  0  0  0  0
  162.9110  210.3320  149.9410 C   0  0  0  0  0  2  0  0  0  0  0  0
  162.5910  211.1080  148.6700 C   0  0  2  0  0  3  0  0  0  0  0  0
  163.7140  211.8280  148.2660 O   0  0  0  0  0  1  0  0  0  0  0  0
  161.4430  212.0660  148.9220 C   0  0  0  0  0  2  0  0  0  0  0  0
  160.5700  212.0440  147.8320 O   0  0  0  0  0  0  0  0  0  0  0  0
  160.6030  213.3430  147.3120 C   0  0  2  0  0  3  0  0  0  0  0  0
  159.2000  213.8240  146.9650 C   0  0  1  0  0  3  0  0  0  0  0  0
  158.7140  213.0710  145.3860 S   0  0  0  0  0  0  0  0  0  0  0  0
  160.4500  212.7390  144.9420 C   0  0  0  0  0  2  0  0  0  0  0  0
  161.3580  213.3390  146.0010 C   0  0  0  0  0  2  0  0  0  0  0  0
  157.2570  212.5780  147.5850 O   0  0  0  0  0  1  0  0  0  0  0  0
  158.1730  213.5230  148.0480 C   0  0  0  0  0  2  0  0  0  0  0  0
  1 21  1  1  0  0  0
  2  9  1  6  0  0  0
  2  5  1  0  0  0  0
  2  7  1  0  0  0  0
  3 10  1  6  0  0  0
  3 12  1  0  0  0  0
  3  7  1  0  0  0  0
  4  8  2  0  0  0  0
  4  1  1  0  0  0  0
  5  4  1  0  0  0  0
  6  9  2  0  0  0  0
  6 10  1  0  0  0  0
  7  1  1  0  0  0  0
 11 16  1  0  0  0  0
 11 13  1  0  0  0  0
 11 14  1  0  0  0  0
 12 11  1  0  0  0  0
 12 13  1  0  0  0  0
 15 16  1  0  0  0  0
 16 17  1  0  0  0  0
 17 20  1  0  0  0  0
 20 19  1  0  0  0  0
 20 18  1  0  0  0  0
 21 22  1  0  0  0  0
 23 10  1  0  0  0  0
 24 26  1  0  0  0  0
 24 23  1  0  0  0  0
 25 24  1  0  0  0  0
 27 26  1  0  0  0  0
 28 27  1  0  0  0  0
 29 28  1  0  0  0  0
 29 34  1  0  0  0  0
 30 29  1  0  0  0  0
 31 30  1  0  0  0  0
 31 32  1  0  0  0  0
 32 28  1  0  0  0  0
 33 34  1  0  0  0  0
M  END
>  <MODEL>
9

>  <REMARK>
 VINA RESULT:      -3.6      2.649      5.306
  Name = 
  11 active torsions:
  status: ('A' for Active; 'I' for Inactive)
    1  A    between atoms: C_1  and  C_24
    2  A    between atoms: O_3  and  C_13
    3  A    between atoms: O_3  and  C_17
    4  A    between atoms: C_4  and  C_21
    5  A    between atoms: C_5  and  C_18
    6  A    between atoms: C_5  and  N_31
    7  A    between atoms: C_7  and  C_23
    8  A    between atoms: C_12  and  C_23
    9  A    between atoms: C_12  and  C_27
   10  A    between atoms: C_14  and  C_34
   11  A    between atoms: C_17  and  C_18
                            x       y       z     vdW  Elec       q    Type
                         _______ _______ _______ _____ _____    ______ ____

>  <TORSDO>
F 11

$$$$
