=
 OpenBabel11052423103D

 27 30  0  0  1  0  0  0  0  0999 V2000
  160.7530  209.7970  153.4990 C   0  0  1  0  0  3  0  0  0  0  0  0
  160.5850  208.4230  152.8290 C   0  0  2  0  0  3  0  0  0  0  0  0
  161.3750  204.6290  150.8940 C   0  0  0  0  0  3  0  0  0  0  0  0
  160.9980  203.2150  149.0880 F   0  0  0  0  0  0  0  0  0  0  0  0
  161.3400  207.3420  153.6070 C   0  0  0  0  0  2  0  0  0  0  0  0
  161.1510  207.0030  149.2930 C   0  0  0  0  0  2  0  0  0  0  0  0
  160.8010  205.6420  148.6810 C   0  0  0  0  0  2  0  0  0  0  0  0
  160.9770  208.4180  151.3480 C   0  0  0  0  0  2  0  0  0  0  0  0
  161.1230  204.4720  149.5850 C   0  0  0  0  0  0  0  0  0  0  0  0
  161.5290  205.9890  151.5170 C   0  0  1  0  0  3  0  0  0  0  0  0
  160.7230  207.0400  150.7510 C   0  0  2  0  0  3  0  0  0  0  0  0
  161.1100  205.9670  152.9820 C   0  0  0  0  0  2  0  0  0  0  0  0
  159.5100  210.7220  153.5660 C   0  0  0  0  0  0  0  0  0  0  0  0
  158.3720  210.1230  155.7800 O   0  0  0  0  0  0  0  0  0  0  0  0
  160.3420  212.9920  155.7760 O   0  0  0  0  0  0  0  0  0  0  0  0
  158.0760  213.4200  154.7770 O   0  0  0  0  0  0  0  0  0  0  0  0
  158.5390  210.3070  152.6700 F   0  0  0  0  0  0  0  0  0  0  0  0
  159.2870  212.5310  154.8110 S   0  0  0  0  0  0  0  0  0  0  0  0
  159.9060  212.1490  153.2390 C   0  0  0  0  0  0  0  0  0  0  0  0
  160.4170  212.7490  152.3080 O   0  0  0  0  0  0  0  0  0  0  0  0
  158.9040  210.8470  154.9560 C   0  0  0  0  0  0  0  0  0  0  0  0
  161.7990  208.7240  156.9220 C   0  0  0  0  0  3  0  0  0  0  0  0
  162.6630  210.5980  154.9110 C   0  0  0  0  0  2  0  0  0  0  0  0
  161.4980  209.7210  154.7560 N   0  0  0  0  0  0  0  0  0  0  0  0
  161.2120  208.6990  155.7260 C   0  0  0  0  0  3  0  0  0  0  0  0
  162.7330  209.8080  157.2600 C   0  0  0  0  0  3  0  0  0  0  0  0
  163.1100  210.7000  156.3450 C   0  0  0  0  0  3  0  0  0  0  0  0
  1 13  1  1  0  0  0
  1 24  1  0  0  0  0
  2  1  1  1  0  0  0
  2  5  1  0  0  0  0
  4  9  1  0  0  0  0
  7  6  1  0  0  0  0
  7  9  1  0  0  0  0
  8  2  1  0  0  0  0
  9  3  2  0  0  0  0
 10  3  1  6  0  0  0
 10 12  1  0  0  0  0
 11  6  1  6  0  0  0
 11  8  1  0  0  0  0
 11 10  1  0  0  0  0
 12  5  1  0  0  0  0
 13 21  1  0  0  0  0
 16 18  2  0  0  0  0
 17 13  1  0  0  0  0
 18 21  1  0  0  0  0
 18 15  2  0  0  0  0
 19 13  1  0  0  0  0
 19 18  1  0  0  0  0
 20 19  2  0  0  0  0
 21 14  2  0  0  0  0
 22 26  1  0  0  0  0
 23 27  1  0  0  0  0
 24 23  1  0  0  0  0
 24 25  1  0  0  0  0
 25 22  2  0  0  0  0
 27 26  2  0  0  0  0
M  END
>  <MODEL>
1

>  <REMARK>
 VINA RESULT:      -7.7      0.000      0.000
  Name = 
  3 active torsions:
  status: ('A' for Active; 'I' for Inactive)
    1  A    between atoms: C_1  and  C_15
    2  A    between atoms: C_2  and  C_15
    3  A    between atoms: N_11  and  C_15
                            x       y       z     vdW  Elec       q    Type
                         _______ _______ _______ _____ _____    ______ ____

>  <TORSDO>
F 3

$$$$
=
 OpenBabel11052423103D

 27 30  0  0  1  0  0  0  0  0999 V2000
  161.4390  208.7360  153.6660 C   0  0  1  0  0  3  0  0  0  0  0  0
  161.0520  207.8540  152.4680 C   0  0  2  0  0  3  0  0  0  0  0  0
  161.1940  205.0730  149.1500 C   0  0  0  0  0  3  0  0  0  0  0  0
  160.7970  204.6620  146.8960 F   0  0  0  0  0  0  0  0  0  0  0  0
  161.3650  206.3830  152.7520 C   0  0  0  0  0  2  0  0  0  0  0  0
  161.8540  207.8320  148.7000 C   0  0  0  0  0  2  0  0  0  0  0  0
  161.2870  206.9930  147.5500 C   0  0  0  0  0  2  0  0  0  0  0  0
  161.6830  208.3110  151.1480 C   0  0  0  0  0  2  0  0  0  0  0  0
  161.1430  205.5240  147.8860 C   0  0  0  0  0  0  0  0  0  0  0  0
  161.5720  205.9660  150.2990 C   0  0  1  0  0  3  0  0  0  0  0  0
  161.2010  207.4220  150.0090 C   0  0  2  0  0  3  0  0  0  0  0  0
  160.9120  205.5000  151.5910 C   0  0  0  0  0  2  0  0  0  0  0  0
  161.2320  210.2680  153.5290 C   0  0  0  0  0  0  0  0  0  0  0  0
  158.9120  210.5190  152.4750 O   0  0  0  0  0  0  0  0  0  0  0  0
  159.1110  210.9880  155.9170 O   0  0  0  0  0  0  0  0  0  0  0  0
  159.8560  213.0310  154.6570 O   0  0  0  0  0  0  0  0  0  0  0  0
  162.0220  210.7820  152.5130 F   0  0  0  0  0  0  0  0  0  0  0  0
  159.9590  211.5390  154.8070 S   0  0  0  0  0  0  0  0  0  0  0  0
  161.5920  210.9590  154.8300 C   0  0  0  0  0  0  0  0  0  0  0  0
  162.5680  211.0630  155.5530 O   0  0  0  0  0  0  0  0  0  0  0  0
  159.7850  210.6810  153.3120 C   0  0  0  0  0  0  0  0  0  0  0  0
  161.4100  207.6330  157.2360 C   0  0  0  0  0  3  0  0  0  0  0  0
  159.5740  207.7500  155.0180 C   0  0  0  0  0  2  0  0  0  0  0  0
  160.9700  208.1910  154.9400 N   0  0  0  0  0  0  0  0  0  0  0  0
  161.7890  208.2540  156.1200 C   0  0  0  0  0  3  0  0  0  0  0  0
  160.1570  206.8650  157.2600 C   0  0  0  0  0  3  0  0  0  0  0  0
  159.3180  206.8860  156.2240 C   0  0  0  0  0  3  0  0  0  0  0  0
  1 13  1  6  0  0  0
  1 24  1  0  0  0  0
  2  5  1  0  0  0  0
  2  1  1  1  0  0  0
  4  9  1  0  0  0  0
  7  9  1  0  0  0  0
  7  6  1  0  0  0  0
  8  2  1  0  0  0  0
  9  3  2  0  0  0  0
 10  3  1  6  0  0  0
 10 12  1  0  0  0  0
 11  6  1  6  0  0  0
 11 10  1  0  0  0  0
 11  8  1  0  0  0  0
 12  5  1  0  0  0  0
 13 19  1  0  0  0  0
 14 21  2  0  0  0  0
 16 18  2  0  0  0  0
 17 13  1  0  0  0  0
 18 19  1  0  0  0  0
 18 15  2  0  0  0  0
 19 20  2  0  0  0  0
 21 13  1  0  0  0  0
 21 18  1  0  0  0  0
 22 26  1  0  0  0  0
 23 27  1  0  0  0  0
 24 23  1  0  0  0  0
 24 25  1  0  0  0  0
 25 22  2  0  0  0  0
 27 26  2  0  0  0  0
M  END
>  <MODEL>
2

>  <REMARK>
 VINA RESULT:      -7.4      1.672      2.437
  Name = 
  3 active torsions:
  status: ('A' for Active; 'I' for Inactive)
    1  A    between atoms: C_1  and  C_15
    2  A    between atoms: C_2  and  C_15
    3  A    between atoms: N_11  and  C_15
                            x       y       z     vdW  Elec       q    Type
                         _______ _______ _______ _____ _____    ______ ____

>  <TORSDO>
F 3

$$$$
=
 OpenBabel11052423103D

 27 30  0  0  1  0  0  0  0  0999 V2000
  161.0560  204.3980  147.9700 C   0  0  1  0  0  3  0  0  0  0  0  0
  161.3990  204.8410  149.4010 C   0  0  2  0  0  3  0  0  0  0  0  0
  161.1020  206.0310  153.5560 C   0  0  0  0  0  3  0  0  0  0  0  0
  161.5810  207.6020  155.2010 F   0  0  0  0  0  0  0  0  0  0  0  0
  160.8820  203.8260  150.4240 C   0  0  0  0  0  2  0  0  0  0  0  0
  160.8320  208.0200  151.5020 C   0  0  0  0  0  2  0  0  0  0  0  0
  161.3560  208.4260  152.8840 C   0  0  0  0  0  2  0  0  0  0  0  0
  160.9140  206.2570  149.7310 C   0  0  0  0  0  2  0  0  0  0  0  0
  161.2880  207.3130  153.9070 C   0  0  0  0  0  0  0  0  0  0  0  0
  160.7730  205.6320  152.1440 C   0  0  1  0  0  3  0  0  0  0  0  0
  161.3460  206.6360  151.1410 C   0  0  2  0  0  3  0  0  0  0  0  0
  161.2880  204.2310  151.8400 C   0  0  0  0  0  2  0  0  0  0  0  0
  161.6830  205.1990  146.7980 C   0  0  0  0  0  0  0  0  0  0  0  0
  163.3260  203.5690  145.7010 O   0  0  0  0  0  0  0  0  0  0  0  0
  160.2410  203.9510  144.1360 O   0  0  0  0  0  0  0  0  0  0  0  0
  161.8060  205.8370  143.5760 O   0  0  0  0  0  0  0  0  0  0  0  0
  162.5650  206.1560  147.2740 F   0  0  0  0  0  0  0  0  0  0  0  0
  161.2060  204.9790  144.6550 S   0  0  0  0  0  0  0  0  0  0  0  0
  160.5940  205.8870  145.9980 C   0  0  0  0  0  0  0  0  0  0  0  0
  159.7060  206.6980  146.1990 O   0  0  0  0  0  0  0  0  0  0  0  0
  162.3770  204.3350  145.7570 C   0  0  0  0  0  0  0  0  0  0  0  0
  161.9530  200.8180  148.5540 C   0  0  0  0  0  3  0  0  0  0  0  0
  160.3860  202.3530  146.6850 C   0  0  0  0  0  2  0  0  0  0  0  0
  161.1330  202.9470  147.7970 N   0  0  0  0  0  0  0  0  0  0  0  0
  161.7660  202.1160  148.7860 C   0  0  0  0  0  3  0  0  0  0  0  0
  161.5260  200.2310  147.2760 C   0  0  0  0  0  3  0  0  0  0  0  0
  160.8310  200.9450  146.3900 C   0  0  0  0  0  3  0  0  0  0  0  0
  1 13  1  6  0  0  0
  2  1  1  6  0  0  0
  2  8  1  0  0  0  0
  2  5  1  0  0  0  0
  3  9  2  0  0  0  0
  5 12  1  0  0  0  0
  6  7  1  0  0  0  0
  7  9  1  0  0  0  0
  9  4  1  0  0  0  0
 10 12  1  6  0  0  0
 10  3  1  0  0  0  0
 11  8  1  6  0  0  0
 11  6  1  0  0  0  0
 11 10  1  0  0  0  0
 13 17  1  0  0  0  0
 14 21  2  0  0  0  0
 15 18  2  0  0  0  0
 16 18  2  0  0  0  0
 18 21  1  0  0  0  0
 18 19  1  0  0  0  0
 19 20  2  0  0  0  0
 19 13  1  0  0  0  0
 21 13  1  0  0  0  0
 22 25  2  0  0  0  0
 23 24  1  0  0  0  0
 24  1  1  0  0  0  0
 24 25  1  0  0  0  0
 26 22  1  0  0  0  0
 27 23  1  0  0  0  0
 27 26  2  0  0  0  0
M  END
>  <MODEL>
3

>  <REMARK>
 VINA RESULT:      -7.0      5.744      9.218
  Name = 
  3 active torsions:
  status: ('A' for Active; 'I' for Inactive)
    1  A    between atoms: C_1  and  C_15
    2  A    between atoms: C_2  and  C_15
    3  A    between atoms: N_11  and  C_15
                            x       y       z     vdW  Elec       q    Type
                         _______ _______ _______ _____ _____    ______ ____

>  <TORSDO>
F 3

$$$$
=
 OpenBabel11052423103D

 27 30  0  0  1  0  0  0  0  0999 V2000
  161.1550  210.3880  153.4390 C   0  0  1  0  0  3  0  0  0  0  0  0
  161.5860  209.3430  152.3960 C   0  0  2  0  0  3  0  0  0  0  0  0
  161.6250  206.6180  149.0290 C   0  0  0  0  0  3  0  0  0  0  0  0
  161.9360  204.4530  148.2420 F   0  0  0  0  0  0  0  0  0  0  0  0
  161.4970  209.9190  150.9800 C   0  0  0  0  0  2  0  0  0  0  0  0
  160.5650  205.7270  151.5450 C   0  0  0  0  0  2  0  0  0  0  0  0
  161.1700  204.7060  150.5760 C   0  0  0  0  0  2  0  0  0  0  0  0
  160.8180  208.0220  152.5070 C   0  0  0  0  0  2  0  0  0  0  0  0
  161.5360  205.2930  149.2300 C   0  0  0  0  0  0  0  0  0  0  0  0
  161.1990  207.6120  150.0740 C   0  0  1  0  0  3  0  0  0  0  0  0
  161.3480  207.0280  151.4810 C   0  0  2  0  0  3  0  0  0  0  0  0
  161.9960  208.9050  149.9520 C   0  0  0  0  0  2  0  0  0  0  0  0
  159.7100  210.9440  153.3450 C   0  0  0  0  0  0  0  0  0  0  0  0
  158.6050  210.2570  155.5510 O   0  0  0  0  0  0  0  0  0  0  0  0
  159.7410  213.5400  155.3420 O   0  0  0  0  0  0  0  0  0  0  0  0
  157.5250  213.2490  154.1910 O   0  0  0  0  0  0  0  0  0  0  0  0
  158.9550  210.2050  152.4500 F   0  0  0  0  0  0  0  0  0  0  0  0
  158.9220  212.7280  154.3790 S   0  0  0  0  0  0  0  0  0  0  0  0
  159.7390  212.3900  152.8890 C   0  0  0  0  0  0  0  0  0  0  0  0
  160.1430  213.0220  151.9270 O   0  0  0  0  0  0  0  0  0  0  0  0
  158.9880  211.0230  154.6820 C   0  0  0  0  0  0  0  0  0  0  0  0
  162.6440  210.6180  156.8580 C   0  0  0  0  0  3  0  0  0  0  0  0
  161.1670  208.7010  155.2930 C   0  0  0  0  0  2  0  0  0  0  0  0
  161.5590  210.0240  154.7970 N   0  0  0  0  0  0  0  0  0  0  0  0
  162.1560  210.9930  155.6770 C   0  0  0  0  0  3  0  0  0  0  0  0
  162.5900  209.2050  157.2610 C   0  0  0  0  0  3  0  0  0  0  0  0
  161.9380  208.3060  156.5240 C   0  0  0  0  0  3  0  0  0  0  0  0
  1 13  1  1  0  0  0
  1 24  1  0  0  0  0
  2  8  1  0  0  0  0
  2  1  1  1  0  0  0
  3  9  2  0  0  0  0
  4  9  1  0  0  0  0
  5  2  1  0  0  0  0
  7  6  1  0  0  0  0
  9  7  1  0  0  0  0
 10  3  1  6  0  0  0
 10 11  1  0  0  0  0
 11  6  1  6  0  0  0
 11  8  1  0  0  0  0
 12 10  1  0  0  0  0
 12  5  1  0  0  0  0
 13 21  1  0  0  0  0
 16 18  2  0  0  0  0
 17 13  1  0  0  0  0
 18 21  1  0  0  0  0
 18 15  2  0  0  0  0
 19 13  1  0  0  0  0
 19 18  1  0  0  0  0
 20 19  2  0  0  0  0
 21 14  2  0  0  0  0
 22 26  1  0  0  0  0
 23 27  1  0  0  0  0
 24 23  1  0  0  0  0
 24 25  1  0  0  0  0
 25 22  2  0  0  0  0
 27 26  2  0  0  0  0
M  END
>  <MODEL>
4

>  <REMARK>
 VINA RESULT:      -6.9      0.900      1.849
  Name = 
  3 active torsions:
  status: ('A' for Active; 'I' for Inactive)
    1  A    between atoms: C_1  and  C_15
    2  A    between atoms: C_2  and  C_15
    3  A    between atoms: N_11  and  C_15
                            x       y       z     vdW  Elec       q    Type
                         _______ _______ _______ _____ _____    ______ ____

>  <TORSDO>
F 3

$$$$
=
 OpenBabel11052423103D

 27 30  0  0  1  0  0  0  0  0999 V2000
  161.4580  204.9090  149.1440 C   0  0  1  0  0  3  0  0  0  0  0  0
  161.2670  206.2620  149.8490 C   0  0  2  0  0  3  0  0  0  0  0  0
  161.9410  209.8710  152.1470 C   0  0  0  0  0  3  0  0  0  0  0  0
  161.3010  211.2360  153.9170 F   0  0  0  0  0  0  0  0  0  0  0  0
  162.2670  207.2950  149.3230 C   0  0  0  0  0  2  0  0  0  0  0  0
  161.1630  207.4640  153.5070 C   0  0  0  0  0  2  0  0  0  0  0  0
  160.8070  208.8250  154.1150 C   0  0  0  0  0  2  0  0  0  0  0  0
  161.3220  206.1640  151.3760 C   0  0  0  0  0  2  0  0  0  0  0  0
  161.4210  209.9950  153.3790 C   0  0  0  0  0  0  0  0  0  0  0  0
  162.1090  208.5310  151.4860 C   0  0  1  0  0  3  0  0  0  0  0  0
  161.0650  207.5330  151.9920 C   0  0  2  0  0  3  0  0  0  0  0  0
  162.0260  208.6580  149.9700 C   0  0  0  0  0  2  0  0  0  0  0  0
  160.5800  203.7210  149.6170 C   0  0  0  0  0  0  0  0  0  0  0  0
  159.8120  202.5800  147.4570 O   0  0  0  0  0  0  0  0  0  0  0  0
  162.4810  201.0990  149.1280 O   0  0  0  0  0  0  0  0  0  0  0  0
  160.2790  200.4960  150.1790 O   0  0  0  0  0  0  0  0  0  0  0  0
  159.3640  204.1710  150.1040 F   0  0  0  0  0  0  0  0  0  0  0  0
  161.1590  201.5910  149.6440 S   0  0  0  0  0  0  0  0  0  0  0  0
  161.2950  202.9500  150.7100 C   0  0  0  0  0  0  0  0  0  0  0  0
  161.7490  203.1750  151.8190 O   0  0  0  0  0  0  0  0  0  0  0  0
  160.3440  202.6610  148.5520 C   0  0  0  0  0  0  0  0  0  0  0  0
  160.6360  205.9230  145.6430 C   0  0  0  0  0  3  0  0  0  0  0  0
  162.6630  204.3950  147.0070 C   0  0  0  0  0  2  0  0  0  0  0  0
  161.5360  205.0400  147.6890 N   0  0  0  0  0  0  0  0  0  0  0  0
  160.6480  205.9170  146.9750 C   0  0  0  0  0  3  0  0  0  0  0  0
  161.5210  205.0190  144.8950 C   0  0  0  0  0  3  0  0  0  0  0  0
  162.4380  204.2820  145.5230 C   0  0  0  0  0  3  0  0  0  0  0  0
  1 24  1  6  0  0  0
  1 13  1  0  0  0  0
  2  1  1  6  0  0  0
  2  8  1  0  0  0  0
  3  9  2  0  0  0  0
  5  2  1  0  0  0  0
  5 12  1  0  0  0  0
  6  7  1  0  0  0  0
  9  4  1  0  0  0  0
  9  7  1  0  0  0  0
 10 12  1  6  0  0  0
 10 11  1  0  0  0  0
 10  3  1  0  0  0  0
 11  8  1  6  0  0  0
 11  6  1  0  0  0  0
 13 17  1  0  0  0  0
 13 19  1  0  0  0  0
 14 21  2  0  0  0  0
 15 18  2  0  0  0  0
 18 16  2  0  0  0  0
 18 19  1  0  0  0  0
 19 20  2  0  0  0  0
 21 13  1  0  0  0  0
 21 18  1  0  0  0  0
 22 25  2  0  0  0  0
 23 24  1  0  0  0  0
 25 24  1  0  0  0  0
 26 27  2  0  0  0  0
 26 22  1  0  0  0  0
 27 23  1  0  0  0  0
M  END
>  <MODEL>
5

>  <REMARK>
 VINA RESULT:      -6.7      5.380      8.874
  Name = 
  3 active torsions:
  status: ('A' for Active; 'I' for Inactive)
    1  A    between atoms: C_1  and  C_15
    2  A    between atoms: C_2  and  C_15
    3  A    between atoms: N_11  and  C_15
                            x       y       z     vdW  Elec       q    Type
                         _______ _______ _______ _____ _____    ______ ____

>  <TORSDO>
F 3

$$$$
=
 OpenBabel11052423103D

 27 30  0  0  1  0  0  0  0  0999 V2000
  160.8130  208.1900  152.7140 C   0  0  1  0  0  3  0  0  0  0  0  0
  161.2060  207.0120  151.8060 C   0  0  2  0  0  3  0  0  0  0  0  0
  161.0560  203.6570  149.0700 C   0  0  0  0  0  3  0  0  0  0  0  0
  161.5810  201.4340  148.6380 F   0  0  0  0  0  0  0  0  0  0  0  0
  160.7380  207.2530  150.3690 C   0  0  0  0  0  2  0  0  0  0  0  0
  160.6890  203.1950  151.8810 C   0  0  0  0  0  2  0  0  0  0  0  0
  161.2610  202.0790  151.0000 C   0  0  0  0  0  2  0  0  0  0  0  0
  160.7200  205.6560  152.3280 C   0  0  0  0  0  2  0  0  0  0  0  0
  161.2430  202.4070  149.5230 C   0  0  0  0  0  0  0  0  0  0  0  0
  160.6770  204.7870  149.9880 C   0  0  1  0  0  3  0  0  0  0  0  0
  161.2020  204.5440  151.4050 C   0  0  2  0  0  3  0  0  0  0  0  0
  161.1940  206.1170  149.4550 C   0  0  0  0  0  2  0  0  0  0  0  0
  161.3340  208.1770  154.1750 C   0  0  0  0  0  0  0  0  0  0  0  0
  162.7060  210.3280  154.3950 O   0  0  0  0  0  0  0  0  0  0  0  0
  159.4750  210.4100  155.6870 O   0  0  0  0  0  0  0  0  0  0  0  0
  161.0770  209.2790  157.2610 O   0  0  0  0  0  0  0  0  0  0  0  0
  162.3330  207.2300  154.3330 F   0  0  0  0  0  0  0  0  0  0  0  0
  160.5670  209.3900  155.8510 S   0  0  0  0  0  0  0  0  0  0  0  0
  160.1980  207.8590  155.1280 C   0  0  0  0  0  0  0  0  0  0  0  0
  159.4010  206.9540  155.3070 O   0  0  0  0  0  0  0  0  0  0  0  0
  161.8260  209.5290  154.6700 C   0  0  0  0  0  0  0  0  0  0  0  0
  160.1360  211.7070  151.6480 C   0  0  0  0  0  3  0  0  0  0  0  0
  162.1390  209.6840  151.2000 C   0  0  0  0  0  2  0  0  0  0  0  0
  160.9600  209.4840  152.0480 N   0  0  0  0  0  0  0  0  0  0  0  0
  160.0820  210.5800  152.3580 C   0  0  0  0  0  3  0  0  0  0  0  0
  161.0850  211.8280  150.5330 C   0  0  0  0  0  3  0  0  0  0  0  0
  161.9920  210.8800  150.2970 C   0  0  0  0  0  3  0  0  0  0  0  0
  1 24  1  6  0  0  0
  1 13  1  0  0  0  0
  2  8  1  0  0  0  0
  2  1  1  1  0  0  0
  3  9  2  0  0  0  0
  4  9  1  0  0  0  0
  5  2  1  0  0  0  0
  7  6  1  0  0  0  0
  9  7  1  0  0  0  0
 10  3  1  6  0  0  0
 10 11  1  0  0  0  0
 11  6  1  1  0  0  0
 11  8  1  0  0  0  0
 12 10  1  0  0  0  0
 12  5  1  0  0  0  0
 13 17  1  0  0  0  0
 13 21  1  0  0  0  0
 13 19  1  0  0  0  0
 14 21  2  0  0  0  0
 15 18  2  0  0  0  0
 18 16  2  0  0  0  0
 19 20  2  0  0  0  0
 19 18  1  0  0  0  0
 21 18  1  0  0  0  0
 22 25  2  0  0  0  0
 23 24  1  0  0  0  0
 24 25  1  0  0  0  0
 26 22  1  0  0  0  0
 27 26  2  0  0  0  0
 27 23  1  0  0  0  0
M  END
>  <MODEL>
6

>  <REMARK>
 VINA RESULT:      -6.7      2.250      4.110
  Name = 
  3 active torsions:
  status: ('A' for Active; 'I' for Inactive)
    1  A    between atoms: C_1  and  C_15
    2  A    between atoms: C_2  and  C_15
    3  A    between atoms: N_11  and  C_15
                            x       y       z     vdW  Elec       q    Type
                         _______ _______ _______ _____ _____    ______ ____

>  <TORSDO>
F 3

$$$$
=
 OpenBabel11052423103D

 27 30  0  0  1  0  0  0  0  0999 V2000
  161.2200  207.8790  153.0920 C   0  0  1  0  0  3  0  0  0  0  0  0
  160.8330  206.5660  152.3930 C   0  0  2  0  0  3  0  0  0  0  0  0
  160.9950  202.6800  150.4840 C   0  0  0  0  0  3  0  0  0  0  0  0
  160.4940  201.3640  148.6350 F   0  0  0  0  0  0  0  0  0  0  0  0
  161.2810  205.3570  153.2180 C   0  0  0  0  0  2  0  0  0  0  0  0
  161.4000  205.0420  148.9000 C   0  0  0  0  0  2  0  0  0  0  0  0
  160.8330  203.7780  148.2440 C   0  0  0  0  0  2  0  0  0  0  0  0
  161.3420  206.4720  150.9510 C   0  0  0  0  0  2  0  0  0  0  0  0
  160.8300  202.5720  149.1560 C   0  0  0  0  0  0  0  0  0  0  0  0
  161.3700  203.9830  151.1360 C   0  0  1  0  0  3  0  0  0  0  0  0
  160.8640  205.1720  150.3160 C   0  0  2  0  0  3  0  0  0  0  0  0
  160.8300  204.0550  152.5590 C   0  0  0  0  0  2  0  0  0  0  0  0
  160.7840  209.2080  152.4210 C   0  0  0  0  0  0  0  0  0  0  0  0
  158.5100  209.7490  153.4660 O   0  0  0  0  0  0  0  0  0  0  0  0
  161.2560  211.4560  154.7540 O   0  0  0  0  0  0  0  0  0  0  0  0
  160.4580  212.4730  152.5990 O   0  0  0  0  0  0  0  0  0  0  0  0
  160.4060  208.9930  151.1050 F   0  0  0  0  0  0  0  0  0  0  0  0
  160.8350  211.2160  153.3320 S   0  0  0  0  0  0  0  0  0  0  0  0
  161.9280  210.2030  152.4480 C   0  0  0  0  0  0  0  0  0  0  0  0
  163.0750  210.2670  152.0410 O   0  0  0  0  0  0  0  0  0  0  0  0
  159.6750  209.9410  153.1590 C   0  0  0  0  0  0  0  0  0  0  0  0
  159.5310  207.2750  156.3690 C   0  0  0  0  0  3  0  0  0  0  0  0
  162.0390  208.3270  155.4180 C   0  0  0  0  0  2  0  0  0  0  0  0
  160.9750  207.8410  154.5340 N   0  0  0  0  0  0  0  0  0  0  0  0
  159.8150  207.1830  155.0710 C   0  0  0  0  0  3  0  0  0  0  0  0
  160.3970  208.0630  157.2580 C   0  0  0  0  0  3  0  0  0  0  0  0
  161.5420  208.5830  156.8160 C   0  0  0  0  0  3  0  0  0  0  0  0
  1 13  1  6  0  0  0
  1 24  1  0  0  0  0
  2  1  1  1  0  0  0
  2  5  1  0  0  0  0
  4  9  1  0  0  0  0
  7  6  1  0  0  0  0
  7  9  1  0  0  0  0
  8  2  1  0  0  0  0
  9  3  2  0  0  0  0
 10  3  1  6  0  0  0
 10 12  1  0  0  0  0
 11  6  1  6  0  0  0
 11  8  1  0  0  0  0
 11 10  1  0  0  0  0
 12  5  1  0  0  0  0
 13 19  1  0  0  0  0
 13 21  1  0  0  0  0
 16 18  2  0  0  0  0
 17 13  1  0  0  0  0
 18 15  2  0  0  0  0
 19 18  1  0  0  0  0
 20 19  2  0  0  0  0
 21 18  1  0  0  0  0
 21 14  2  0  0  0  0
 22 26  1  0  0  0  0
 23 27  1  0  0  0  0
 24 25  1  0  0  0  0
 24 23  1  0  0  0  0
 25 22  2  0  0  0  0
 27 26  2  0  0  0  0
M  END
>  <MODEL>
7

>  <REMARK>
 VINA RESULT:      -6.6      1.741      2.370
  Name = 
  3 active torsions:
  status: ('A' for Active; 'I' for Inactive)
    1  A    between atoms: C_1  and  C_15
    2  A    between atoms: C_2  and  C_15
    3  A    between atoms: N_11  and  C_15
                            x       y       z     vdW  Elec       q    Type
                         _______ _______ _______ _____ _____    ______ ____

>  <TORSDO>
F 3

$$$$
=
 OpenBabel11052423103D

 27 30  0  0  1  0  0  0  0  0999 V2000
  161.1060  205.0890  148.4100 C   0  0  1  0  0  3  0  0  0  0  0  0
  161.4340  205.7630  149.7530 C   0  0  2  0  0  3  0  0  0  0  0  0
  161.1070  207.8570  153.5300 C   0  0  0  0  0  3  0  0  0  0  0  0
  161.7770  209.6350  154.8700 F   0  0  0  0  0  0  0  0  0  0  0  0
  160.6600  205.1030  150.8960 C   0  0  0  0  0  2  0  0  0  0  0  0
  161.3730  209.3700  151.1030 C   0  0  0  0  0  2  0  0  0  0  0  0
  161.8740  209.9650  152.4240 C   0  0  0  0  0  2  0  0  0  0  0  0
  161.2190  207.2800  149.7390 C   0  0  0  0  0  2  0  0  0  0  0  0
  161.5190  209.1310  153.6360 C   0  0  0  0  0  0  0  0  0  0  0  0
  160.7990  207.2290  152.2000 C   0  0  1  0  0  3  0  0  0  0  0  0
  161.6240  207.8720  151.0830 C   0  0  2  0  0  3  0  0  0  0  0  0
  161.0440  205.7250  152.2380 C   0  0  0  0  0  2  0  0  0  0  0  0
  161.7580  205.6760  147.1310 C   0  0  0  0  0  0  0  0  0  0  0  0
  163.6990  204.0900  146.6040 O   0  0  0  0  0  0  0  0  0  0  0  0
  160.7850  203.6460  144.7530 O   0  0  0  0  0  0  0  0  0  0  0  0
  162.1630  205.5540  143.8720 O   0  0  0  0  0  0  0  0  0  0  0  0
  162.4600  206.8340  147.4240 F   0  0  0  0  0  0  0  0  0  0  0  0
  161.5540  204.8950  145.0780 S   0  0  0  0  0  0  0  0  0  0  0  0
  160.6910  205.9930  146.1030 C   0  0  0  0  0  0  0  0  0  0  0  0
  159.6950  206.6930  146.0260 O   0  0  0  0  0  0  0  0  0  0  0  0
  162.6640  204.7020  146.3940 C   0  0  0  0  0  0  0  0  0  0  0  0
  160.7590  201.4900  147.4690 C   0  0  0  0  0  3  0  0  0  0  0  0
  161.7570  203.0340  149.6880 C   0  0  0  0  0  2  0  0  0  0  0  0
  161.1680  203.6290  148.4850 N   0  0  0  0  0  0  0  0  0  0  0  0
  160.8330  202.8140  147.3480 C   0  0  0  0  0  3  0  0  0  0  0  0
  161.0040  200.8550  148.7720 C   0  0  0  0  0  3  0  0  0  0  0  0
  161.4320  201.5690  149.8140 C   0  0  0  0  0  3  0  0  0  0  0  0
  1 13  1  6  0  0  0
  1 24  1  0  0  0  0
  2  1  1  6  0  0  0
  2  5  1  0  0  0  0
  3  9  2  0  0  0  0
  5 12  1  0  0  0  0
  6  7  1  0  0  0  0
  7  9  1  0  0  0  0
  8  2  1  0  0  0  0
  9  4  1  0  0  0  0
 10 12  1  1  0  0  0
 10  3  1  0  0  0  0
 11  8  1  6  0  0  0
 11  6  1  0  0  0  0
 11 10  1  0  0  0  0
 13 17  1  0  0  0  0
 15 18  2  0  0  0  0
 16 18  2  0  0  0  0
 18 19  1  0  0  0  0
 18 21  1  0  0  0  0
 19 13  1  0  0  0  0
 20 19  2  0  0  0  0
 21 14  2  0  0  0  0
 21 13  1  0  0  0  0
 22 26  1  0  0  0  0
 23 27  1  0  0  0  0
 24 23  1  0  0  0  0
 25 22  2  0  0  0  0
 25 24  1  0  0  0  0
 26 27  2  0  0  0  0
M  END
>  <MODEL>
8

>  <REMARK>
 VINA RESULT:      -6.3      5.466      8.790
  Name = 
  3 active torsions:
  status: ('A' for Active; 'I' for Inactive)
    1  A    between atoms: C_1  and  C_15
    2  A    between atoms: C_2  and  C_15
    3  A    between atoms: N_11  and  C_15
                            x       y       z     vdW  Elec       q    Type
                         _______ _______ _______ _____ _____    ______ ____

>  <TORSDO>
F 3

$$$$
=
 OpenBabel11052423103D

 27 30  0  0  1  0  0  0  0  0999 V2000
  160.8320  205.6260  148.4600 C   0  0  1  0  0  3  0  0  0  0  0  0
  160.8420  206.8600  149.3770 C   0  0  2  0  0  3  0  0  0  0  0  0
  162.0400  209.9130  152.2070 C   0  0  0  0  0  3  0  0  0  0  0  0
  161.6090  211.0520  154.1870 F   0  0  0  0  0  0  0  0  0  0  0  0
  161.9810  207.8100  148.9980 C   0  0  0  0  0  2  0  0  0  0  0  0
  160.9210  207.4550  153.1830 C   0  0  0  0  0  2  0  0  0  0  0  0
  160.7680  208.7360  154.0100 C   0  0  0  0  0  2  0  0  0  0  0  0
  160.8850  206.5090  150.8680 C   0  0  0  0  0  2  0  0  0  0  0  0
  161.5460  209.9100  153.4550 C   0  0  0  0  0  0  0  0  0  0  0  0
  162.0090  208.6880  151.3350 C   0  0  1  0  0  3  0  0  0  0  0  0
  160.8310  207.7830  151.7010 C   0  0  2  0  0  3  0  0  0  0  0  0
  161.9430  209.0700  149.8620 C   0  0  0  0  0  2  0  0  0  0  0  0
  161.6890  205.6820  147.1680 C   0  0  0  0  0  0  0  0  0  0  0  0
  163.0790  203.5320  147.2150 O   0  0  0  0  0  0  0  0  0  0  0  0
  160.2540  203.5090  145.1820 O   0  0  0  0  0  0  0  0  0  0  0  0
  162.1830  204.6810  144.0770 O   0  0  0  0  0  0  0  0  0  0  0  0
  162.6940  206.6280  147.2850 F   0  0  0  0  0  0  0  0  0  0  0  0
  161.3500  204.5280  145.3190 S   0  0  0  0  0  0  0  0  0  0  0  0
  160.8150  206.0370  145.9810 C   0  0  0  0  0  0  0  0  0  0  0  0
  160.0820  206.9510  145.6450 O   0  0  0  0  0  0  0  0  0  0  0  0
  162.2890  204.3450  146.7630 C   0  0  0  0  0  0  0  0  0  0  0  0
  160.4640  202.0340  149.4220 C   0  0  0  0  0  3  0  0  0  0  0  0
  161.8110  204.3840  150.4050 C   0  0  0  0  0  2  0  0  0  0  0  0
  160.9710  204.3730  149.2030 N   0  0  0  0  0  0  0  0  0  0  0  0
  160.4550  203.1380  148.6770 C   0  0  0  0  0  3  0  0  0  0  0  0
  160.9880  202.0770  150.7940 C   0  0  0  0  0  3  0  0  0  0  0  0
  161.5810  203.1720  151.2690 C   0  0  0  0  0  3  0  0  0  0  0  0
  1 13  1  6  0  0  0
  1 24  1  0  0  0  0
  2  1  1  6  0  0  0
  2  8  1  0  0  0  0
  3  9  2  0  0  0  0
  5  2  1  0  0  0  0
  5 12  1  0  0  0  0
  6  7  1  0  0  0  0
  9  7  1  0  0  0  0
  9  4  1  0  0  0  0
 10 12  1  6  0  0  0
 10 11  1  0  0  0  0
 10  3  1  0  0  0  0
 11  8  1  6  0  0  0
 11  6  1  0  0  0  0
 13 17  1  0  0  0  0
 15 18  2  0  0  0  0
 16 18  2  0  0  0  0
 18 19  1  0  0  0  0
 18 21  1  0  0  0  0
 19 13  1  0  0  0  0
 20 19  2  0  0  0  0
 21 13  1  0  0  0  0
 21 14  2  0  0  0  0
 22 26  1  0  0  0  0
 23 27  1  0  0  0  0
 24 23  1  0  0  0  0
 25 24  1  0  0  0  0
 25 22  2  0  0  0  0
 26 27  2  0  0  0  0
M  END
>  <MODEL>
9

>  <REMARK>
 VINA RESULT:      -5.7      5.387      8.496
  Name = 
  3 active torsions:
  status: ('A' for Active; 'I' for Inactive)
    1  A    between atoms: C_1  and  C_15
    2  A    between atoms: C_2  and  C_15
    3  A    between atoms: N_11  and  C_15
                            x       y       z     vdW  Elec       q    Type
                         _______ _______ _______ _____ _____    ______ ____

>  <TORSDO>
F 3

$$$$
