=
 OpenBabel11062410493D

 32 37  0  0  1  0  0  0  0  0999 V2000
  160.2200  211.8490  156.5570 C   0  0  2  0  0  3  0  0  0  0  0  0
  160.3790  208.1530  155.8910 C   0  0  0  0  0  3  0  0  0  0  0  0
  161.0500  207.1320  150.7410 C   0  0  0  0  0  0  0  0  0  0  0  0
  161.1220  202.1760  150.8360 C   0  0  0  0  0  3  0  0  0  0  0  0
  161.2880  202.2160  149.5150 C   0  0  0  0  0  3  0  0  0  0  0  0
  160.7710  208.4750  152.7560 C   0  0  0  0  0  0  0  0  0  0  0  0
  160.7980  206.0500  152.8850 C   0  0  0  0  0  3  0  0  0  0  0  0
  160.2160  210.4280  156.8450 N   0  0  0  0  0  2  0  0  0  0  0  0
  160.5120  207.1940  154.9820 C   0  0  0  0  0  3  0  0  0  0  0  0
  160.9990  203.4270  151.6610 C   0  0  0  0  0  3  0  0  0  0  0  0
  160.9740  205.9520  151.5010 C   0  0  0  0  0  0  0  0  0  0  0  0
  161.0790  204.7080  150.8520 C   0  0  0  0  0  0  0  0  0  0  0  0
  161.3270  205.8880  148.7330 C   0  0  0  0  0  0  0  0  0  0  0  0
  160.4560  212.0430  154.7590 S   0  0  0  0  0  0  0  0  0  0  0  0
  160.5100  210.2660  154.5660 C   0  0  0  0  0  0  0  0  0  0  0  0
  161.3190  212.4850  157.2610 N   0  0  0  0  0  1  0  0  0  0  0  0
  160.6940  207.2890  153.5290 C   0  0  0  0  0  0  0  0  0  0  0  0
  160.6900  209.7260  153.2140 C   0  0  0  0  0  3  0  0  0  0  0  0
  160.3760  209.6030  155.7040 C   0  0  0  0  0  0  0  0  0  0  0  0
  161.3570  203.5000  148.8060 C   0  0  0  0  0  3  0  0  0  0  0  0
  161.2570  204.6740  149.4480 C   0  0  0  0  0  0  0  0  0  0  0  0
  160.9480  208.3710  151.3700 C   0  0  0  0  0  3  0  0  0  0  0  0
  161.2210  207.0700  149.3970 N   0  0  0  0  0  2  0  0  0  0  0  0
  160.0570  205.7270  145.2490 C   0  0  0  0  0  0  0  0  0  0  0  0
  161.2040  205.0830  144.5310 C   0  0  0  0  0  2  0  0  0  0  0  0
  162.3470  204.7010  146.7660 C   0  0  1  0  0  3  0  0  0  0  0  0
  162.8520  203.3740  144.8080 F   0  0  0  0  0  0  0  0  0  0  0  0
  161.8400  204.0540  145.4600 C   0  0  2  0  0  3  0  0  0  0  0  0
  160.1910  206.0790  146.5330 C   0  0  0  0  0  3  0  0  0  0  0  0
  158.8560  205.8580  144.6310 F   0  0  0  0  0  0  0  0  0  0  0  0
  163.6800  205.0960  146.6310 O   0  0  0  0  0  1  0  0  0  0  0  0
  161.5110  205.9080  147.2420 C   0  0  1  0  0  3  0  0  0  0  0  0
  1  8  1  0  0  0  0
  1 16  1  1  0  0  0
  3 22  2  0  0  0  0
  3 11  1  0  0  0  0
  4 10  2  0  0  0  0
  5  4  1  0  0  0  0
  6 18  2  0  0  0  0
  6 17  1  0  0  0  0
  7 17  2  0  0  0  0
  9  2  2  0  0  0  0
 11  7  1  0  0  0  0
 12 11  2  0  0  0  0
 12 10  1  0  0  0  0
 13 23  1  0  0  0  0
 13 21  2  0  0  0  0
 14  1  1  0  0  0  0
 15 14  1  0  0  0  0
 15 19  2  0  0  0  0
 17  9  1  0  0  0  0
 18 15  1  0  0  0  0
 19  2  1  0  0  0  0
 19  8  1  0  0  0  0
 20 21  1  0  0  0  0
 20  5  2  0  0  0  0
 21 12  1  0  0  0  0
 22  6  1  0  0  0  0
 23  3  1  0  0  0  0
 24 29  2  0  0  0  0
 25 24  1  0  0  0  0
 25 28  1  0  0  0  0
 26 31  1  6  0  0  0
 26 32  1  0  0  0  0
 28 27  1  6  0  0  0
 28 26  1  0  0  0  0
 29 32  1  0  0  0  0
 30 24  1  0  0  0  0
 32 13  1  1  0  0  0
M  END
>  <MODEL>
1

>  <REMARK>
 VINA RESULT:     -11.0      0.000      0.000
  Name = 
  1 active torsions:
  status: ('A' for Active; 'I' for Inactive)
    1  A    between atoms: C_16  and  C_32
                            x       y       z     vdW  Elec       q    Type
                         _______ _______ _______ _____ _____    ______ ____

>  <TORSDO>
F 1

$$$$
=
 OpenBabel11062410493D

 32 37  0  0  1  0  0  0  0  0999 V2000
  160.9520  201.3180  145.8260 C   0  0  2  0  0  3  0  0  0  0  0  0
  160.8140  202.7770  149.2880 C   0  0  0  0  0  3  0  0  0  0  0  0
  161.5020  208.0250  149.2130 C   0  0  0  0  0  0  0  0  0  0  0  0
  161.1890  209.0150  154.0600 C   0  0  0  0  0  3  0  0  0  0  0  0
  161.3840  210.2950  153.7480 C   0  0  0  0  0  3  0  0  0  0  0  0
  161.2910  205.7660  148.3230 C   0  0  0  0  0  0  0  0  0  0  0  0
  161.1230  206.1700  150.7120 C   0  0  0  0  0  3  0  0  0  0  0  0
  160.8170  201.3490  147.2690 N   0  0  0  0  0  2  0  0  0  0  0  0
  160.8880  203.8740  150.0330 C   0  0  0  0  0  3  0  0  0  0  0  0
  161.1420  207.9370  153.0130 C   0  0  0  0  0  3  0  0  0  0  0  0
  161.3190  207.5420  150.5200 C   0  0  0  0  0  0  0  0  0  0  0  0
  161.3380  208.4470  151.5970 C   0  0  1  0  0  3  0  0  0  0  0  0
  161.7180  210.2560  150.0080 C   0  0  0  0  0  0  0  0  0  0  0  0
  161.2150  203.0320  145.2630 S   0  0  0  0  0  0  0  0  0  0  0  0
  161.1360  203.6080  146.9550 C   0  0  0  0  0  0  0  0  0  0  0  0
  159.7340  200.7950  145.2350 N   0  0  0  0  0  1  0  0  0  0  0  0
  161.1050  205.2710  149.6380 C   0  0  0  0  0  0  0  0  0  0  0  0
  161.3010  205.0450  147.2000 C   0  0  0  0  0  3  0  0  0  0  0  0
  160.9310  202.6420  147.8370 C   0  0  0  0  0  0  0  0  0  0  0  0
  161.5640  210.7070  152.3490 C   0  0  0  0  0  3  0  0  0  0  0  0
  161.5400  209.8240  151.3390 C   0  0  0  0  0  0  0  0  0  0  0  0
  161.4860  207.1400  148.1370 C   0  0  0  0  0  3  0  0  0  0  0  0
  161.6940  209.3500  148.9950 N   0  0  0  0  0  0  0  0  0  0  0  0
  160.5410  213.7320  149.4540 C   0  0  0  0  0  0  0  0  0  0  0  0
  161.5090  214.2260  148.4210 C   0  0  0  0  0  2  0  0  0  0  0  0
  162.4600  211.8790  148.2370 C   0  0  1  0  0  3  0  0  0  0  0  0
  162.6690  213.5050  146.4590 F   0  0  0  0  0  0  0  0  0  0  0  0
  161.8420  213.0720  147.4800 C   0  0  2  0  0  3  0  0  0  0  0  0
  160.7240  212.5320  150.0150 C   0  0  0  0  0  3  0  0  0  0  0  0
  159.4270  214.4530  149.7410 F   0  0  0  0  0  0  0  0  0  0  0  0
  163.8520  211.9850  148.2660 O   0  0  0  0  0  1  0  0  0  0  0  0
  161.9400  211.7050  149.6800 C   0  0  1  0  0  3  0  0  0  0  0  0
  1 16  1  6  0  0  0
  1  8  1  0  0  0  0
  2  9  1  0  0  0  0
  3 11  1  0  0  0  0
  5  4  1  0  0  0  0
  6 17  1  0  0  0  0
  8 19  1  0  0  0  0
 10  4  2  0  0  0  0
 11  7  2  0  0  0  0
 11 12  1  0  0  0  0
 12 10  1  6  0  0  0
 13 21  2  0  0  0  0
 14  1  1  0  0  0  0
 14 15  1  0  0  0  0
 15 18  2  0  0  0  0
 15 19  1  0  0  0  0
 17  9  2  0  0  0  0
 17  7  1  0  0  0  0
 18  6  1  0  0  0  0
 19  2  2  0  0  0  0
 20  5  2  0  0  0  0
 21 12  1  0  0  0  0
 21 20  1  0  0  0  0
 22  6  2  0  0  0  0
 22  3  1  0  0  0  0
 23  3  2  0  0  0  0
 23 13  1  0  0  0  0
 24 30  1  0  0  0  0
 24 29  2  0  0  0  0
 25 24  1  0  0  0  0
 26 31  1  1  0  0  0
 26 32  1  0  0  0  0
 28 27  1  6  0  0  0
 28 26  1  0  0  0  0
 28 25  1  0  0  0  0
 32 13  1  6  0  0  0
 32 29  1  0  0  0  0
M  END
>  <MODEL>
2

>  <REMARK>
 VINA RESULT:     -10.9      4.698      8.433
  Name = 
  1 active torsions:
  status: ('A' for Active; 'I' for Inactive)
    1  A    between atoms: C_16  and  C_32
                            x       y       z     vdW  Elec       q    Type
                         _______ _______ _______ _____ _____    ______ ____

>  <TORSDO>
F 1

$$$$
=
 OpenBabel11062410493D

 32 37  0  0  1  0  0  0  0  0999 V2000
  160.8350  211.3410  156.6320 C   0  0  2  0  0  3  0  0  0  0  0  0
  161.0210  207.6220  156.1160 C   0  0  0  0  0  3  0  0  0  0  0  0
  160.9330  206.3660  150.9750 C   0  0  0  0  0  0  0  0  0  0  0  0
  161.1940  201.4250  151.2790 C   0  0  0  0  0  3  0  0  0  0  0  0
  161.1540  201.4030  149.9490 C   0  0  0  0  0  3  0  0  0  0  0  0
  160.9170  207.7990  152.9460 C   0  0  0  0  0  0  0  0  0  0  0  0
  161.0490  205.3850  153.1790 C   0  0  0  0  0  3  0  0  0  0  0  0
  160.9240  209.9370  156.9810 N   0  0  0  0  0  2  0  0  0  0  0  0
  161.0470  206.6230  155.2410 C   0  0  0  0  0  3  0  0  0  0  0  0
  161.1530  202.7110  152.0570 C   0  0  0  0  0  3  0  0  0  0  0  0
  161.0150  205.2240  151.7890 C   0  0  0  0  0  0  0  0  0  0  0  0
  161.0640  203.9520  151.1890 C   0  0  0  0  0  0  0  0  0  0  0  0
  160.9430  205.0320  149.0060 C   0  0  0  0  0  0  0  0  0  0  0  0
  160.7860  211.4520  154.8130 S   0  0  0  0  0  0  0  0  0  0  0  0
  160.8730  209.6690  154.6940 C   0  0  0  0  0  0  0  0  0  0  0  0
  162.0050  212.0410  157.1290 N   0  0  0  0  0  1  0  0  0  0  0  0
  161.0010  206.6510  153.7740 C   0  0  0  0  0  0  0  0  0  0  0  0
  160.8630  209.0680  153.3550 C   0  0  0  0  0  3  0  0  0  0  0  0
  160.9380  209.0600  155.8670 C   0  0  0  0  0  0  0  0  0  0  0  0
  161.0680  202.6520  149.1800 C   0  0  0  0  0  3  0  0  0  0  0  0
  161.0270  203.8530  149.7770 C   0  0  0  0  0  0  0  0  0  0  0  0
  160.8840  207.6310  151.5570 C   0  0  0  0  0  3  0  0  0  0  0  0
  160.8980  206.2420  149.6250 N   0  0  0  0  0  2  0  0  0  0  0  0
  161.1690  203.2570  145.7540 C   0  0  0  0  0  0  0  0  0  0  0  0
  161.7190  204.3240  144.8570 C   0  0  0  0  0  2  0  0  0  0  0  0
  162.0330  205.8220  146.8830 C   0  0  1  0  0  3  0  0  0  0  0  0
  163.3000  206.1160  144.8440 F   0  0  0  0  0  0  0  0  0  0  0  0
  162.7040  205.1690  145.6570 C   0  0  2  0  0  3  0  0  0  0  0  0
  160.8200  203.5600  147.0090 C   0  0  0  0  0  3  0  0  0  0  0  0
  161.1250  201.9680  145.3300 F   0  0  0  0  0  0  0  0  0  0  0  0
  161.5360  207.0850  146.5540 O   0  0  0  0  0  1  0  0  0  0  0  0
  160.8970  204.9830  147.5060 C   0  0  1  0  0  3  0  0  0  0  0  0
  1  8  1  0  0  0  0
  1 16  1  6  0  0  0
  3 22  2  0  0  0  0
  3 11  1  0  0  0  0
  4 10  2  0  0  0  0
  5  4  1  0  0  0  0
  6 18  2  0  0  0  0
  6 17  1  0  0  0  0
  7 17  2  0  0  0  0
  9  2  2  0  0  0  0
 11  7  1  0  0  0  0
 12 11  2  0  0  0  0
 12 10  1  0  0  0  0
 13 23  1  0  0  0  0
 13 21  2  0  0  0  0
 14  1  1  0  0  0  0
 15 14  1  0  0  0  0
 15 19  2  0  0  0  0
 17  9  1  0  0  0  0
 18 15  1  0  0  0  0
 19  2  1  0  0  0  0
 19  8  1  0  0  0  0
 20 21  1  0  0  0  0
 20  5  2  0  0  0  0
 21 12  1  0  0  0  0
 22  6  1  0  0  0  0
 23  3  1  0  0  0  0
 24 29  2  0  0  0  0
 25 28  1  0  0  0  0
 25 24  1  0  0  0  0
 26 31  1  6  0  0  0
 26 32  1  0  0  0  0
 28 27  1  6  0  0  0
 28 26  1  0  0  0  0
 29 32  1  0  0  0  0
 30 24  1  0  0  0  0
 32 13  1  1  0  0  0
M  END
>  <MODEL>
3

>  <REMARK>
 VINA RESULT:     -10.8      1.355      1.510
  Name = 
  1 active torsions:
  status: ('A' for Active; 'I' for Inactive)
    1  A    between atoms: C_16  and  C_32
                            x       y       z     vdW  Elec       q    Type
                         _______ _______ _______ _____ _____    ______ ____

>  <TORSDO>
F 1

$$$$
=
 OpenBabel11062410493D

 32 37  0  0  1  0  0  0  0  0999 V2000
  161.7320  203.9560  145.7410 C   0  0  2  0  0  3  0  0  0  0  0  0
  161.3620  203.6440  149.4690 C   0  0  0  0  0  3  0  0  0  0  0  0
  160.8680  208.3820  151.7760 C   0  0  0  0  0  0  0  0  0  0  0  0
  160.4660  207.0050  156.5210 C   0  0  0  0  0  3  0  0  0  0  0  0
  160.3660  208.2980  156.8230 C   0  0  0  0  0  3  0  0  0  0  0  0
  161.1400  206.7740  149.9650 C   0  0  0  0  0  0  0  0  0  0  0  0
  160.9480  206.0190  152.2660 C   0  0  0  0  0  3  0  0  0  0  0  0
  161.6300  203.3080  147.0340 N   0  0  0  0  0  2  0  0  0  0  0  0
  161.2100  204.2790  150.6250 C   0  0  0  0  0  3  0  0  0  0  0  0
  160.6330  206.5280  155.1050 C   0  0  0  0  0  3  0  0  0  0  0  0
  160.8310  207.3390  152.7160 C   0  0  0  0  0  0  0  0  0  0  0  0
  160.6750  207.6460  154.0800 C   0  0  2  0  0  3  0  0  0  0  0  0
  160.6050  210.0110  153.4900 C   0  0  0  0  0  0  0  0  0  0  0  0
  161.5940  205.7530  146.0160 S   0  0  0  0  0  0  0  0  0  0  0  0
  161.4330  205.4790  147.7760 C   0  0  0  0  0  0  0  0  0  0  0  0
  160.6450  203.5120  144.8870 N   0  0  0  0  0  1  0  0  0  0  0  0
  161.1020  205.7150  150.9070 C   0  0  0  0  0  0  0  0  0  0  0  0
  161.2810  206.6530  148.6440 C   0  0  0  0  0  3  0  0  0  0  0  0
  161.4690  204.2020  148.1220 C   0  0  0  0  0  0  0  0  0  0  0  0
  160.4150  209.3200  155.7690 C   0  0  0  0  0  3  0  0  0  0  0  0
  160.5610  209.0010  154.4740 C   0  0  0  0  0  0  0  0  0  0  0  0
  161.0210  208.0920  150.4220 C   0  0  0  0  0  3  0  0  0  0  0  0
  160.7570  209.6720  152.1810 N   0  0  0  0  0  0  0  0  0  0  0  0
  160.0740  212.7730  155.9110 C   0  0  0  0  0  0  0  0  0  0  0  0
  159.4080  213.8090  155.0570 C   0  0  0  0  0  2  0  0  0  0  0  0
  159.2780  212.1210  153.1650 C   0  0  1  0  0  3  0  0  0  0  0  0
  157.7940  214.0260  153.3070 F   0  0  0  0  0  0  0  0  0  0  0  0
  158.4940  213.1020  154.0610 C   0  0  2  0  0  3  0  0  0  0  0  0
  160.5480  211.6550  155.3500 C   0  0  0  0  0  3  0  0  0  0  0  0
  160.1020  212.9200  157.2600 F   0  0  0  0  0  0  0  0  0  0  0  0
  159.7080  212.7590  152.0000 O   0  0  0  0  0  1  0  0  0  0  0  0
  160.4920  211.4630  153.8540 C   0  0  1  0  0  3  0  0  0  0  0  0
  1 16  1  6  0  0  0
  1 14  1  0  0  0  0
  1  8  1  0  0  0  0
  2  9  1  0  0  0  0
  3 23  2  0  0  0  0
  3 11  1  0  0  0  0
  4  5  1  0  0  0  0
  6 22  2  0  0  0  0
  6 17  1  0  0  0  0
  7 11  2  0  0  0  0
  8 19  1  0  0  0  0
  9 17  2  0  0  0  0
 10  4  2  0  0  0  0
 11 12  1  0  0  0  0
 12 21  1  0  0  0  0
 12 10  1  1  0  0  0
 13 21  2  0  0  0  0
 14 15  1  0  0  0  0
 15 19  1  0  0  0  0
 15 18  2  0  0  0  0
 17  7  1  0  0  0  0
 18  6  1  0  0  0  0
 19  2  2  0  0  0  0
 20  5  2  0  0  0  0
 21 20  1  0  0  0  0
 22  3  1  0  0  0  0
 23 13  1  0  0  0  0
 24 30  1  0  0  0  0
 25 24  1  0  0  0  0
 26 31  1  6  0  0  0
 26 32  1  0  0  0  0
 26 28  1  0  0  0  0
 28 27  1  6  0  0  0
 28 25  1  0  0  0  0
 29 24  2  0  0  0  0
 32 13  1  1  0  0  0
 32 29  1  0  0  0  0
M  END
>  <MODEL>
4

>  <REMARK>
 VINA RESULT:     -10.5      4.622      9.178
  Name = 
  1 active torsions:
  status: ('A' for Active; 'I' for Inactive)
    1  A    between atoms: C_16  and  C_32
                            x       y       z     vdW  Elec       q    Type
                         _______ _______ _______ _____ _____    ______ ____

>  <TORSDO>
F 1

$$$$
=
 OpenBabel11062410493D

 32 37  0  0  1  0  0  0  0  0999 V2000
  160.8530  200.3970  146.9750 C   0  0  2  0  0  3  0  0  0  0  0  0
  161.4250  204.0250  146.1720 C   0  0  0  0  0  3  0  0  0  0  0  0
  161.3030  207.0230  150.5320 C   0  0  0  0  0  0  0  0  0  0  0  0
  162.1100  211.4910  148.5420 C   0  0  0  0  0  3  0  0  0  0  0  0
  162.0290  211.9860  149.7750 C   0  0  0  0  0  3  0  0  0  0  0  0
  161.1970  204.9920  149.1890 C   0  0  0  0  0  0  0  0  0  0  0  0
  161.5990  207.1450  148.1390 C   0  0  0  0  0  3  0  0  0  0  0  0
  161.1070  201.5730  146.1650 N   0  0  0  0  0  2  0  0  0  0  0  0
  161.5300  205.2620  146.6430 C   0  0  0  0  0  3  0  0  0  0  0  0
  161.9560  210.0220  148.2610 C   0  0  0  0  0  2  0  0  0  0  0  0
  161.5370  207.7900  149.3780 C   0  0  0  0  0  0  0  0  0  0  0  0
  161.7030  209.1820  149.4990 C   0  0  0  0  0  0  0  0  0  0  0  0
  161.3940  208.9620  151.9080 C   0  0  0  0  0  0  0  0  0  0  0  0
  160.7320  200.9430  148.7110 S   0  0  0  0  0  0  0  0  0  0  0  0
  161.0080  202.6360  148.2060 C   0  0  0  0  0  0  0  0  0  0  0  0
  161.9560  199.4640  146.8360 N   0  0  0  0  0  1  0  0  0  0  0  0
  161.4340  205.7600  148.0200 C   0  0  0  0  0  0  0  0  0  0  0  0
  161.0200  203.6710  149.2460 C   0  0  0  0  0  3  0  0  0  0  0  0
  161.1780  202.7820  146.9010 C   0  0  0  0  0  0  0  0  0  0  0  0
  161.7830  211.1030  150.9230 C   0  0  0  0  0  3  0  0  0  0  0  0
  161.6300  209.7780  150.7810 C   0  0  0  0  0  0  0  0  0  0  0  0
  161.1370  205.6440  150.4270 C   0  0  0  0  0  3  0  0  0  0  0  0
  161.2380  207.6200  151.7490 N   0  0  0  0  0  0  0  0  0  0  0  0
  161.1710  208.6730  155.6010 C   0  0  0  0  0  0  0  0  0  0  0  0
  160.3580  209.8810  155.9580 C   0  0  0  0  0  2  0  0  0  0  0  0
  159.9820  210.3180  153.4850 C   0  0  1  0  0  3  0  0  0  0  0  0
  158.4910  211.1630  155.1920 F   0  0  0  0  0  0  0  0  0  0  0  0
  159.3210  210.1060  154.8630 C   0  0  2  0  0  3  0  0  0  0  0  0
  161.5810  208.4970  154.3400 C   0  0  0  0  0  3  0  0  0  0  0  0
  161.4020  207.7100  156.5300 F   0  0  0  0  0  0  0  0  0  0  0  0
  160.2140  211.6760  153.2570 O   0  0  0  0  0  1  0  0  0  0  0  0
  161.3030  209.5430  153.2890 C   0  0  1  0  0  3  0  0  0  0  0  0
  1 16  1  1  0  0  0
  1 14  1  0  0  0  0
  2  9  2  0  0  0  0
  2 19  1  0  0  0  0
  3 23  1  0  0  0  0
  4  5  2  0  0  0  0
  5 20  1  0  0  0  0
  6 18  2  0  0  0  0
  6 22  1  0  0  0  0
  7 11  1  0  0  0  0
  8 19  1  0  0  0  0
  8  1  1  0  0  0  0
  9 17  1  0  0  0  0
 10  4  1  0  0  0  0
 10 12  1  0  0  0  0
 11 12  2  0  0  0  0
 11  3  1  0  0  0  0
 12 21  1  0  0  0  0
 15 14  1  0  0  0  0
 15 18  1  0  0  0  0
 17  7  2  0  0  0  0
 17  6  1  0  0  0  0
 19 15  2  0  0  0  0
 21 20  2  0  0  0  0
 21 13  1  0  0  0  0
 22  3  2  0  0  0  0
 23 13  2  0  0  0  0
 24 25  1  0  0  0  0
 24 30  1  0  0  0  0
 26 31  1  1  0  0  0
 26 28  1  0  0  0  0
 28 27  1  1  0  0  0
 28 25  1  0  0  0  0
 29 24  2  0  0  0  0
 32 13  1  6  0  0  0
 32 26  1  0  0  0  0
 32 29  1  0  0  0  0
M  END
>  <MODEL>
5

>  <REMARK>
 VINA RESULT:      -9.1      4.868      9.425
  Name = 
  1 active torsions:
  status: ('A' for Active; 'I' for Inactive)
    1  A    between atoms: C_16  and  C_32
                            x       y       z     vdW  Elec       q    Type
                         _______ _______ _______ _____ _____    ______ ____

>  <TORSDO>
F 1

$$$$
=
 OpenBabel11062410493D

 32 37  0  0  1  0  0  0  0  0999 V2000
  160.8530  200.4220  147.1060 C   0  0  2  0  0  3  0  0  0  0  0  0
  161.5900  204.0440  146.4220 C   0  0  0  0  0  3  0  0  0  0  0  0
  161.0120  207.0000  150.7740 C   0  0  0  0  0  0  0  0  0  0  0  0
  162.1410  211.4690  148.9490 C   0  0  0  0  0  3  0  0  0  0  0  0
  161.9240  211.9540  150.1710 C   0  0  0  0  0  3  0  0  0  0  0  0
  161.0250  204.9860  149.4030 C   0  0  0  0  0  0  0  0  0  0  0  0
  161.5930  207.1400  148.4350 C   0  0  0  0  0  3  0  0  0  0  0  0
  161.2240  201.5990  146.3470 N   0  0  0  0  0  2  0  0  0  0  0  0
  161.6630  205.2740  146.9180 C   0  0  0  0  0  3  0  0  0  0  0  0
  161.9910  210.0070  148.6340 C   0  0  0  0  0  2  0  0  0  0  0  0
  161.3970  207.7740  149.6660 C   0  0  0  0  0  0  0  0  0  0  0  0
  161.5760  209.1610  149.8230 C   0  0  0  0  0  0  0  0  0  0  0  0
  160.9780  208.9220  152.1750 C   0  0  0  0  0  0  0  0  0  0  0  0
  160.5380  200.9530  148.8220 S   0  0  0  0  0  0  0  0  0  0  0  0
  160.9060  202.6440  148.3750 C   0  0  0  0  0  0  0  0  0  0  0  0
  161.9450  199.4660  147.0870 N   0  0  0  0  0  1  0  0  0  0  0  0
  161.4140  205.7590  148.2800 C   0  0  0  0  0  0  0  0  0  0  0  0
  160.8150  203.6680  149.4220 C   0  0  0  0  0  3  0  0  0  0  0  0
  161.2330  202.7990  147.1010 C   0  0  0  0  0  0  0  0  0  0  0  0
  161.5250  211.0650  151.2700 C   0  0  0  0  0  3  0  0  0  0  0  0
  161.3630  209.7450  151.0950 C   0  0  0  0  0  0  0  0  0  0  0  0
  160.8320  205.6260  150.6330 C   0  0  0  0  0  3  0  0  0  0  0  0
  160.8150  207.5860  151.9820 N   0  0  0  0  0  0  0  0  0  0  0  0
  160.2100  211.7120  154.4990 C   0  0  0  0  0  0  0  0  0  0  0  0
  160.9670  211.3080  155.7280 C   0  0  0  0  0  2  0  0  0  0  0  0
  162.0000  209.3910  154.4240 C   0  0  1  0  0  3  0  0  0  0  0  0
  163.0360  210.3190  156.4020 F   0  0  0  0  0  0  0  0  0  0  0  0
  162.2650  210.6340  155.2980 C   0  0  2  0  0  3  0  0  0  0  0  0
  160.1360  210.8740  153.4600 C   0  0  0  0  0  3  0  0  0  0  0  0
  159.6930  212.9630  154.4000 F   0  0  0  0  0  0  0  0  0  0  0  0
  161.9110  208.2450  155.2170 O   0  0  0  0  0  1  0  0  0  0  0  0
  160.7360  209.4920  153.5430 C   0  0  1  0  0  3  0  0  0  0  0  0
  1 16  1  1  0  0  0
  1 14  1  0  0  0  0
  2  9  2  0  0  0  0
  2 19  1  0  0  0  0
  3 23  1  0  0  0  0
  4  5  2  0  0  0  0
  5 20  1  0  0  0  0
  6 18  2  0  0  0  0
  6 22  1  0  0  0  0
  7 11  1  0  0  0  0
  8 19  1  0  0  0  0
  8  1  1  0  0  0  0
  9 17  1  0  0  0  0
 10  4  1  0  0  0  0
 10 12  1  0  0  0  0
 11 12  2  0  0  0  0
 11  3  1  0  0  0  0
 12 21  1  0  0  0  0
 15 14  1  0  0  0  0
 15 18  1  0  0  0  0
 17  7  2  0  0  0  0
 17  6  1  0  0  0  0
 19 15  2  0  0  0  0
 21 20  2  0  0  0  0
 21 13  1  0  0  0  0
 22  3  2  0  0  0  0
 23 13  2  0  0  0  0
 24 25  1  0  0  0  0
 26 31  1  1  0  0  0
 26 28  1  0  0  0  0
 28 25  1  0  0  0  0
 28 27  1  1  0  0  0
 29 32  1  0  0  0  0
 29 24  2  0  0  0  0
 30 24  1  0  0  0  0
 32 13  1  6  0  0  0
 32 26  1  0  0  0  0
M  END
>  <MODEL>
6

>  <REMARK>
 VINA RESULT:      -8.3      4.894      9.365
  Name = 
  1 active torsions:
  status: ('A' for Active; 'I' for Inactive)
    1  A    between atoms: C_16  and  C_32
                            x       y       z     vdW  Elec       q    Type
                         _______ _______ _______ _____ _____    ______ ____

>  <TORSDO>
F 1

$$$$
