=
 OpenBabel11052423003D

 28 32  0  0  1  0  0  0  0  0999 V2000
  161.4590  207.6280  151.5630 N   0  0  0  0  0  0  0  0  0  0  0  0
  159.5270  212.6270  151.6290 S   0  0  0  0  0  0  0  0  0  0  0  0
  160.1770  208.1070  156.3580 C   0  0  0  0  0  1  0  0  0  0  0  0
  158.9720  212.5420  154.2280 C   0  0  0  0  0  0  0  0  0  0  0  0
  159.9260  210.4890  153.4370 C   0  0  2  0  0  3  0  0  0  0  0  0
  159.4880  211.7920  153.1990 C   0  0  0  0  0  0  0  0  0  0  0  0
  159.2930  210.7720  155.7610 C   0  0  0  0  0  3  0  0  0  0  0  0
  158.5880  213.7600  153.9010 C   0  0  0  0  0  2  0  0  0  0  0  0
  160.8310  207.8840  153.8760 C   0  0  0  0  0  0  0  0  0  0  0  0
  160.4500  209.7110  152.4010 O   0  0  0  0  0  0  0  0  0  0  0  0
  158.8760  212.0410  155.4860 N   0  0  0  0  0  0  0  0  0  0  0  0
  161.8440  205.7800  153.1360 C   0  0  0  0  0  3  0  0  0  0  0  0
  160.2620  208.7000  154.9830 C   0  0  0  0  0  0  0  0  0  0  0  0
  161.3210  206.5090  154.1230 C   0  0  0  0  0  3  0  0  0  0  0  0
  158.7960  214.0980  152.4560 C   0  0  2  0  0  3  0  0  0  0  0  0
  159.8340  209.9590  154.7430 C   0  0  0  0  0  0  0  0  0  0  0  0
  161.9320  206.3290  151.8180 N   0  0  0  0  0  2  0  0  0  0  0  0
  160.9060  208.4080  152.6360 C   0  0  0  0  0  0  0  0  0  0  0  0
  157.4640  214.4500  151.8200 C   0  0  0  0  0  2  0  0  0  0  0  0
  157.3130  213.7430  150.5600 N   0  0  0  0  0  1  0  0  0  0  0  0
  161.5930  208.1880  150.2260 C   0  0  0  0  0  2  0  0  0  0  0  0
  161.5730  207.1000  149.2070 C   0  0  0  0  0  0  0  0  0  0  0  0
  161.5810  205.0380  147.3150 C   0  0  0  0  0  0  0  0  0  0  0  0
  160.8290  205.9370  149.4340 C   0  0  0  0  0  3  0  0  0  0  0  0
  162.3280  207.2270  148.0350 C   0  0  0  0  0  3  0  0  0  0  0  0
  162.3300  206.1970  147.0890 C   0  0  0  0  0  3  0  0  0  0  0  0
  161.5840  203.9440  146.3090 C   0  0  0  0  0  1  0  0  0  0  0  0
  160.8320  204.9080  148.4880 C   0  0  0  0  0  3  0  0  0  0  0  0
  1 17  1  0  0  0  0
  1 18  1  0  0  0  0
  2 15  1  0  0  0  0
  2  6  1  0  0  0  0
  4 11  1  0  0  0  0
  5 10  1  6  0  0  0
  5 16  1  0  0  0  0
  6  5  1  0  0  0  0
  6  4  2  0  0  0  0
  8  4  1  0  0  0  0
  9 14  1  0  0  0  0
  9 13  1  0  0  0  0
 10 18  1  0  0  0  0
 11  7  2  0  0  0  0
 12 14  2  0  0  0  0
 13  3  1  0  0  0  0
 15 19  1  6  0  0  0
 15  8  1  0  0  0  0
 16 13  2  0  0  0  0
 16  7  1  0  0  0  0
 17 12  1  0  0  0  0
 18  9  2  0  0  0  0
 20 19  1  0  0  0  0
 21  1  1  0  0  0  0
 22 24  1  0  0  0  0
 22 21  1  0  0  0  0
 23 28  1  0  0  0  0
 25 22  2  0  0  0  0
 26 23  2  0  0  0  0
 26 25  1  0  0  0  0
 27 23  1  0  0  0  0
 28 24  2  0  0  0  0
M  END
>  <MODEL>
1

>  <REMARK>
 VINA RESULT:      -8.7      0.000      0.000
  Name = 
  3 active torsions:
  status: ('A' for Active; 'I' for Inactive)
    1  A    between atoms: N_1  and  C_2
    2  A    between atoms: C_2  and  C_3
    3  A    between atoms: C_12  and  C_24
                            x       y       z     vdW  Elec       q    Type
                         _______ _______ _______ _____ _____    ______ ____

>  <TORSDO>
F 3

$$$$
=
 OpenBabel11052423003D

 28 32  0  0  1  0  0  0  0  0999 V2000
  161.2980  205.6850  149.6620 N   0  0  0  0  0  0  0  0  0  0  0  0
  160.3520  207.0520  154.7570 S   0  0  0  0  0  0  0  0  0  0  0  0
  162.1790  210.5910  149.5270 C   0  0  0  0  0  1  0  0  0  0  0  0
  160.8890  209.6210  154.3280 C   0  0  0  0  0  0  0  0  0  0  0  0
  161.1350  208.3000  152.3430 C   0  0  0  0  0  0  0  0  0  0  0  0
  160.8300  208.4010  153.7000 C   0  0  0  0  0  0  0  0  0  0  0  0
  161.5450  210.6890  152.3250 C   0  0  0  0  0  2  0  0  0  0  0  0
  160.5820  209.6110  155.6110 C   0  0  0  0  0  2  0  0  0  0  0  0
  161.7180  208.0580  149.6220 C   0  0  0  0  0  0  0  0  0  0  0  0
  161.0830  207.0650  151.6890 O   0  0  0  0  0  0  0  0  0  0  0  0
  161.2410  210.7450  153.6530 N   0  0  0  0  0  0  0  0  0  0  0  0
  161.9400  206.7670  147.5530 C   0  0  0  0  0  3  0  0  0  0  0  0
  161.7890  209.3750  150.3130 C   0  0  0  0  0  0  0  0  0  0  0  0
  162.0150  207.9430  148.1770 C   0  0  0  0  0  3  0  0  0  0  0  0
  160.2190  208.2580  156.1400 C   0  0  2  0  0  3  0  0  0  0  0  0
  161.4980  209.4630  151.6290 C   0  0  0  0  0  0  0  0  0  0  0  0
  161.5700  205.5970  148.2860 N   0  0  0  0  0  2  0  0  0  0  0  0
  161.3730  206.9590  150.3220 C   0  0  0  0  0  0  0  0  0  0  0  0
  161.1680  207.8790  157.2610 C   0  0  0  0  0  2  0  0  0  0  0  0
  162.3180  208.7670  157.2590 N   0  0  0  0  0  1  0  0  0  0  0  0
  160.8820  204.4920  150.3870 C   0  0  0  0  0  2  0  0  0  0  0  0
  161.0150  203.2880  149.5170 C   0  0  0  0  0  0  0  0  0  0  0  0
  161.2110  201.0230  147.8860 C   0  0  0  0  0  0  0  0  0  0  0  0
  161.0940  203.4300  148.1270 C   0  0  0  0  0  3  0  0  0  0  0  0
  161.0260  202.0120  150.0890 C   0  0  0  0  0  3  0  0  0  0  0  0
  161.1250  200.8790  149.2740 C   0  0  0  0  0  3  0  0  0  0  0  0
  161.3170  199.8200  147.0200 C   0  0  0  0  0  1  0  0  0  0  0  0
  161.1940  202.2980  147.3130 C   0  0  0  0  0  3  0  0  0  0  0  0
  1 18  1  0  0  0  0
  1 21  1  0  0  0  0
  2 15  1  0  0  0  0
  3 13  1  0  0  0  0
  4  8  1  0  0  0  0
  5  6  2  0  0  0  0
  6  4  1  0  0  0  0
  6  2  1  0  0  0  0
  7 11  1  0  0  0  0
  8 15  1  0  0  0  0
  9 13  1  0  0  0  0
  9 18  2  0  0  0  0
 10  5  1  0  0  0  0
 11  4  2  0  0  0  0
 12 14  2  0  0  0  0
 12 17  1  0  0  0  0
 13 16  2  0  0  0  0
 14  9  1  0  0  0  0
 15 19  1  1  0  0  0
 16  7  1  0  0  0  0
 16  5  1  0  0  0  0
 17  1  1  0  0  0  0
 18 10  1  0  0  0  0
 20 19  1  0  0  0  0
 22 25  1  0  0  0  0
 22 21  1  0  0  0  0
 23 26  1  0  0  0  0
 24 22  2  0  0  0  0
 26 25  2  0  0  0  0
 27 23  1  0  0  0  0
 28 23  2  0  0  0  0
 28 24  1  0  0  0  0
M  END
>  <MODEL>
2

>  <REMARK>
 VINA RESULT:      -8.5      2.871      5.084
  Name = 
  3 active torsions:
  status: ('A' for Active; 'I' for Inactive)
    1  A    between atoms: N_1  and  C_2
    2  A    between atoms: C_2  and  C_3
    3  A    between atoms: C_12  and  C_24
                            x       y       z     vdW  Elec       q    Type
                         _______ _______ _______ _____ _____    ______ ____

>  <TORSDO>
F 3

$$$$
=
 OpenBabel11052423003D

 28 32  0  0  1  0  0  0  0  0999 V2000
  161.1250  204.0590  149.5780 N   0  0  0  0  0  0  0  0  0  0  0  0
  162.0210  209.1780  148.2710 S   0  0  0  0  0  0  0  0  0  0  0  0
  161.0720  206.2280  154.0680 C   0  0  0  0  0  1  0  0  0  0  0  0
  161.9370  209.9990  150.7990 C   0  0  0  0  0  0  0  0  0  0  0  0
  161.5790  207.6360  150.6000 C   0  0  2  0  0  3  0  0  0  0  0  0
  161.8260  208.8770  150.0130 C   0  0  0  0  0  0  0  0  0  0  0  0
  161.5690  208.7350  152.7610 C   0  0  0  0  0  3  0  0  0  0  0  0
  162.1720  211.1220  150.1490 C   0  0  0  0  0  2  0  0  0  0  0  0
  161.1040  205.1300  151.7370 C   0  0  0  0  0  0  0  0  0  0  0  0
  161.4600  206.4860  149.8150 O   0  0  0  0  0  0  0  0  0  0  0  0
  161.8100  209.9290  152.1490 N   0  0  0  0  0  0  0  0  0  0  0  0
  160.7780  202.7070  151.6000 C   0  0  0  0  0  3  0  0  0  0  0  0
  161.2160  206.3520  152.5810 C   0  0  0  0  0  0  0  0  0  0  0  0
  160.8660  203.8050  152.3520 C   0  0  0  0  0  3  0  0  0  0  0  0
  162.2800  210.9560  148.6640 C   0  0  2  0  0  3  0  0  0  0  0  0
  161.4490  207.5510  152.0030 C   0  0  0  0  0  0  0  0  0  0  0  0
  160.9130  202.8060  150.1800 N   0  0  0  0  0  2  0  0  0  0  0  0
  161.2270  205.2340  150.3990 C   0  0  0  0  0  0  0  0  0  0  0  0
  161.2250  211.8050  147.9800 C   0  0  0  0  0  2  0  0  0  0  0  0
  161.3180  213.1790  148.4410 N   0  0  0  0  0  1  0  0  0  0  0  0
  161.3010  204.1380  148.1350 C   0  0  0  0  0  2  0  0  0  0  0  0
  161.2310  202.7770  147.5310 C   0  0  0  0  0  0  0  0  0  0  0  0
  161.1480  200.2290  146.3780 C   0  0  0  0  0  0  0  0  0  0  0  0
  161.5740  201.6530  148.2900 C   0  0  0  0  0  3  0  0  0  0  0  0
  160.8530  202.6260  146.1920 C   0  0  0  0  0  3  0  0  0  0  0  0
  160.8100  201.3530  145.6160 C   0  0  0  0  0  3  0  0  0  0  0  0
  161.1020  198.8760  145.7650 C   0  0  0  0  0  1  0  0  0  0  0  0
  161.5310  200.3790  147.7130 C   0  0  0  0  0  3  0  0  0  0  0  0
  1 17  1  0  0  0  0
  1 18  1  0  0  0  0
  2 15  1  0  0  0  0
  2  6  1  0  0  0  0
  4 11  1  0  0  0  0
  5 10  1  6  0  0  0
  5 16  1  0  0  0  0
  6  5  1  0  0  0  0
  6  4  2  0  0  0  0
  8  4  1  0  0  0  0
  9 14  1  0  0  0  0
  9 13  1  0  0  0  0
 10 18  1  0  0  0  0
 11  7  2  0  0  0  0
 12 14  2  0  0  0  0
 13  3  1  0  0  0  0
 15 19  1  6  0  0  0
 15  8  1  0  0  0  0
 16 13  2  0  0  0  0
 16  7  1  0  0  0  0
 17 12  1  0  0  0  0
 18  9  2  0  0  0  0
 19 20  1  0  0  0  0
 21  1  1  0  0  0  0
 22 21  1  0  0  0  0
 22 24  1  0  0  0  0
 23 28  1  0  0  0  0
 25 22  2  0  0  0  0
 26 25  1  0  0  0  0
 26 23  2  0  0  0  0
 27 23  1  0  0  0  0
 28 24  2  0  0  0  0
M  END
>  <MODEL>
3

>  <REMARK>
 VINA RESULT:      -8.5      3.367      4.622
  Name = 
  3 active torsions:
  status: ('A' for Active; 'I' for Inactive)
    1  A    between atoms: N_1  and  C_2
    2  A    between atoms: C_2  and  C_3
    3  A    between atoms: C_12  and  C_24
                            x       y       z     vdW  Elec       q    Type
                         _______ _______ _______ _____ _____    ______ ____

>  <TORSDO>
F 3

$$$$
=
 OpenBabel11052423003D

 28 32  0  0  1  0  0  0  0  0999 V2000
  161.7180  207.2890  152.5210 N   0  0  0  0  0  0  0  0  0  0  0  0
  161.9790  211.1090  148.7710 S   0  0  0  0  0  0  0  0  0  0  0  0
  159.3270  211.0330  154.7850 C   0  0  0  0  0  1  0  0  0  0  0  0
  160.6700  212.8780  150.2630 C   0  0  0  0  0  0  0  0  0  0  0  0
  160.9350  210.7720  151.3780 C   0  0  1  0  0  3  0  0  0  0  0  0
  161.1390  211.5860  150.2640 C   0  0  0  0  0  0  0  0  0  0  0  0
  159.7860  212.6230  152.4400 C   0  0  0  0  0  3  0  0  0  0  0  0
  160.9130  213.5660  149.1650 C   0  0  0  0  0  2  0  0  0  0  0  0
  160.5660  209.1130  153.5950 C   0  0  0  0  0  0  0  0  0  0  0  0
  161.4030  209.4540  151.3930 O   0  0  0  0  0  0  0  0  0  0  0  0
  160.0050  213.3870  151.3320 N   0  0  0  0  0  0  0  0  0  0  0  0
  160.8480  207.0000  154.8000 C   0  0  0  0  0  3  0  0  0  0  0  0
  160.0530  210.5110  153.5820 C   0  0  0  0  0  0  0  0  0  0  0  0
  160.3770  208.2480  154.7800 C   0  0  0  0  0  3  0  0  0  0  0  0
  161.6680  212.8010  148.1210 C   0  0  2  0  0  3  0  0  0  0  0  0
  160.2490  211.2920  152.4960 C   0  0  0  0  0  0  0  0  0  0  0  0
  161.5420  206.4860  153.6600 N   0  0  0  0  0  2  0  0  0  0  0  0
  161.2160  208.6350  152.5150 C   0  0  0  0  0  0  0  0  0  0  0  0
  160.8450  212.7320  146.8490 C   0  0  0  0  0  2  0  0  0  0  0  0
  159.9990  213.9080  146.7400 N   0  0  0  0  0  1  0  0  0  0  0  0
  162.4630  206.7650  151.3850 C   0  0  0  0  0  2  0  0  0  0  0  0
  161.8490  205.4930  150.9080 C   0  0  0  0  0  0  0  0  0  0  0  0
  160.7420  203.0930  149.9900 C   0  0  0  0  0  0  0  0  0  0  0  0
  161.7960  204.3780  151.7510 C   0  0  0  0  0  3  0  0  0  0  0  0
  161.3550  205.4030  149.6020 C   0  0  0  0  0  3  0  0  0  0  0  0
  160.8000  204.2040  149.1430 C   0  0  0  0  0  3  0  0  0  0  0  0
  160.1530  201.8180  149.5030 C   0  0  0  0  0  1  0  0  0  0  0  0
  161.2410  203.1790  151.2920 C   0  0  0  0  0  3  0  0  0  0  0  0
  1 17  1  0  0  0  0
  2  6  1  0  0  0  0
  4  6  2  0  0  0  0
  4 11  1  0  0  0  0
  5  6  1  1  0  0  0
  5 10  1  0  0  0  0
  5 16  1  0  0  0  0
  7 16  1  0  0  0  0
  8  4  1  0  0  0  0
  9 14  1  0  0  0  0
 10 18  1  0  0  0  0
 11  7  2  0  0  0  0
 13  9  1  0  0  0  0
 13  3  1  0  0  0  0
 14 12  2  0  0  0  0
 15 19  1  6  0  0  0
 15  2  1  0  0  0  0
 15  8  1  0  0  0  0
 16 13  2  0  0  0  0
 17 12  1  0  0  0  0
 18  1  1  0  0  0  0
 18  9  2  0  0  0  0
 20 19  1  0  0  0  0
 21  1  1  0  0  0  0
 22 21  1  0  0  0  0
 22 24  1  0  0  0  0
 23 28  1  0  0  0  0
 25 22  2  0  0  0  0
 26 25  1  0  0  0  0
 26 23  2  0  0  0  0
 27 23  1  0  0  0  0
 28 24  2  0  0  0  0
M  END
>  <MODEL>
4

>  <REMARK>
 VINA RESULT:      -8.3      2.673      3.390
  Name = 
  3 active torsions:
  status: ('A' for Active; 'I' for Inactive)
    1  A    between atoms: N_1  and  C_2
    2  A    between atoms: C_2  and  C_3
    3  A    between atoms: C_12  and  C_24
                            x       y       z     vdW  Elec       q    Type
                         _______ _______ _______ _____ _____    ______ ____

>  <TORSDO>
F 3

$$$$
=
 OpenBabel11052423003D

 28 32  0  0  1  0  0  0  0  0999 V2000
  161.9560  209.7160  149.6500 N   0  0  0  0  0  0  0  0  0  0  0  0
  160.7810  210.9340  154.7350 S   0  0  0  0  0  0  0  0  0  0  0  0
  161.3970  205.1740  151.6280 C   0  0  0  0  0  1  0  0  0  0  0  0
  160.5670  208.3840  155.4570 C   0  0  0  0  0  0  0  0  0  0  0  0
  161.1060  208.6260  153.1330 C   0  0  2  0  0  3  0  0  0  0  0  0
  160.8310  209.1920  154.3780 C   0  0  0  0  0  0  0  0  0  0  0  0
  160.8310  206.4380  154.1420 C   0  0  0  0  0  3  0  0  0  0  0  0
  160.3200  209.0160  156.5880 C   0  0  0  0  0  2  0  0  0  0  0  0
  161.6810  207.5320  150.6290 C   0  0  0  0  0  0  0  0  0  0  0  0
  161.3730  209.4340  152.0240 O   0  0  0  0  0  0  0  0  0  0  0  0
  160.5660  207.0310  155.3410 N   0  0  0  0  0  0  0  0  0  0  0  0
  162.2770  207.7160  148.2610 C   0  0  0  0  0  3  0  0  0  0  0  0
  161.3840  206.6630  151.8010 C   0  0  0  0  0  0  0  0  0  0  0  0
  161.9980  206.9400  149.3090 C   0  0  0  0  0  3  0  0  0  0  0  0
  160.3820  210.5090  156.4790 C   0  0  2  0  0  3  0  0  0  0  0  0
  161.1120  207.2200  153.0020 C   0  0  0  0  0  0  0  0  0  0  0  0
  162.2690  209.1380  148.4070 N   0  0  0  0  0  2  0  0  0  0  0  0
  161.6660  208.8710  150.7750 C   0  0  0  0  0  0  0  0  0  0  0  0
  159.0420  211.1030  156.8710 C   0  0  0  0  0  2  0  0  0  0  0  0
  158.1520  211.1210  155.7230 N   0  0  0  0  0  1  0  0  0  0  0  0
  161.9920  211.1650  149.7930 C   0  0  0  0  0  2  0  0  0  0  0  0
  161.9510  211.8170  148.4530 C   0  0  0  0  0  0  0  0  0  0  0  0
  161.8600  213.0870  145.9610 C   0  0  0  0  0  0  0  0  0  0  0  0
  163.1220  212.3330  147.8860 C   0  0  0  0  0  3  0  0  0  0  0  0
  160.7340  211.9450  147.7760 C   0  0  0  0  0  3  0  0  0  0  0  0
  160.6880  212.5780  146.5300 C   0  0  0  0  0  3  0  0  0  0  0  0
  161.8120  213.7600  144.6370 C   0  0  0  0  0  1  0  0  0  0  0  0
  163.0760  212.9660  146.6400 C   0  0  0  0  0  3  0  0  0  0  0  0
  1 21  1  0  0  0  0
  1 18  1  0  0  0  0
  2 15  1  0  0  0  0
  3 13  1  0  0  0  0
  4  8  1  0  0  0  0
  5 10  1  6  0  0  0
  5  6  1  0  0  0  0
  6  2  1  0  0  0  0
  6  4  2  0  0  0  0
  7 11  2  0  0  0  0
  9 18  2  0  0  0  0
  9 13  1  0  0  0  0
 11  4  1  0  0  0  0
 12 17  1  0  0  0  0
 12 14  2  0  0  0  0
 13 16  2  0  0  0  0
 14  9  1  0  0  0  0
 15  8  1  0  0  0  0
 15 19  1  6  0  0  0
 16  5  1  0  0  0  0
 16  7  1  0  0  0  0
 17  1  1  0  0  0  0
 18 10  1  0  0  0  0
 20 19  1  0  0  0  0
 22 21  1  0  0  0  0
 23 26  2  0  0  0  0
 23 28  1  0  0  0  0
 24 22  1  0  0  0  0
 25 22  2  0  0  0  0
 26 25  1  0  0  0  0
 27 23  1  0  0  0  0
 28 24  2  0  0  0  0
M  END
>  <MODEL>
5

>  <REMARK>
 VINA RESULT:      -8.3      3.280      5.294
  Name = 
  3 active torsions:
  status: ('A' for Active; 'I' for Inactive)
    1  A    between atoms: N_1  and  C_2
    2  A    between atoms: C_2  and  C_3
    3  A    between atoms: C_12  and  C_24
                            x       y       z     vdW  Elec       q    Type
                         _______ _______ _______ _____ _____    ______ ____

>  <TORSDO>
F 3

$$$$
=
 OpenBabel11052423003D

 28 32  0  0  1  0  0  0  0  0999 V2000
  161.3850  208.7880  152.5430 N   0  0  0  0  0  0  0  0  0  0  0  0
  161.4460  207.1140  147.4530 S   0  0  0  0  0  0  0  0  0  0  0  0
  160.8310  203.8680  153.1360 C   0  0  0  0  0  1  0  0  0  0  0  0
  161.1340  204.5610  148.1270 C   0  0  0  0  0  0  0  0  0  0  0  0
  161.2110  206.0020  150.0420 C   0  0  2  0  0  3  0  0  0  0  0  0
  161.2500  205.8230  148.6600 C   0  0  0  0  0  0  0  0  0  0  0  0
  160.9370  203.6050  150.2790 C   0  0  0  0  0  3  0  0  0  0  0  0
  161.1820  204.4980  146.8110 C   0  0  0  0  0  2  0  0  0  0  0  0
  161.1180  206.4070  152.8040 C   0  0  0  0  0  0  0  0  0  0  0  0
  161.3320  207.2790  150.6000 O   0  0  0  0  0  0  0  0  0  0  0  0
  160.9800  203.4720  148.9230 N   0  0  0  0  0  0  0  0  0  0  0  0
  161.1440  207.8350  154.7940 C   0  0  0  0  0  3  0  0  0  0  0  0
  161.0030  205.0430  152.2190 C   0  0  0  0  0  0  0  0  0  0  0  0
  161.0530  206.6120  154.2690 C   0  0  0  0  0  3  0  0  0  0  0  0
  161.3500  205.8270  146.1420 C   0  0  2  0  0  3  0  0  0  0  0  0
  161.0480  204.8770  150.8790 C   0  0  0  0  0  0  0  0  0  0  0  0
  161.3070  208.9660  153.9350 N   0  0  0  0  0  2  0  0  0  0  0  0
  161.2770  207.4680  151.9870 C   0  0  0  0  0  0  0  0  0  0  0  0
  162.6220  205.8230  145.3150 C   0  0  0  0  0  2  0  0  0  0  0  0
  163.4560  204.6960  145.6940 N   0  0  0  0  0  1  0  0  0  0  0  0
  161.5110  209.9550  151.6800 C   0  0  0  0  0  2  0  0  0  0  0  0
  160.4600  210.9580  152.0110 C   0  0  0  0  0  0  0  0  0  0  0  0
  158.4580  212.8250  152.5910 C   0  0  0  0  0  0  0  0  0  0  0  0
  159.4560  210.6460  152.9350 C   0  0  0  0  0  3  0  0  0  0  0  0
  160.4560  212.2030  151.3730 C   0  0  0  0  0  3  0  0  0  0  0  0
  159.4570  213.1370  151.6630 C   0  0  0  0  0  3  0  0  0  0  0  0
  157.3960  213.8180  152.9000 C   0  0  0  0  0  1  0  0  0  0  0  0
  158.4570  211.5800  153.2260 C   0  0  0  0  0  3  0  0  0  0  0  0
  1 17  1  0  0  0  0
  2  6  1  0  0  0  0
  4  6  2  0  0  0  0
  4 11  1  0  0  0  0
  5  6  1  1  0  0  0
  5 10  1  0  0  0  0
  5 16  1  0  0  0  0
  7 16  1  0  0  0  0
  8  4  1  0  0  0  0
  9 14  1  0  0  0  0
 10 18  1  0  0  0  0
 11  7  2  0  0  0  0
 13  9  1  0  0  0  0
 13  3  1  0  0  0  0
 14 12  2  0  0  0  0
 15 19  1  1  0  0  0
 15  8  1  0  0  0  0
 15  2  1  0  0  0  0
 16 13  2  0  0  0  0
 17 12  1  0  0  0  0
 18  1  1  0  0  0  0
 18  9  2  0  0  0  0
 19 20  1  0  0  0  0
 21 22  1  0  0  0  0
 21  1  1  0  0  0  0
 22 24  1  0  0  0  0
 23 27  1  0  0  0  0
 23 28  1  0  0  0  0
 24 28  2  0  0  0  0
 25 26  1  0  0  0  0
 25 22  2  0  0  0  0
 26 23  2  0  0  0  0
M  END
>  <MODEL>
6

>  <REMARK>
 VINA RESULT:      -8.3      2.513      7.652
  Name = 
  3 active torsions:
  status: ('A' for Active; 'I' for Inactive)
    1  A    between atoms: N_1  and  C_2
    2  A    between atoms: C_2  and  C_3
    3  A    between atoms: C_12  and  C_24
                            x       y       z     vdW  Elec       q    Type
                         _______ _______ _______ _____ _____    ______ ____

>  <TORSDO>
F 3

$$$$
=
 OpenBabel11052423003D

 28 32  0  0  1  0  0  0  0  0999 V2000
  161.1170  207.4860  152.1530 N   0  0  0  0  0  0  0  0  0  0  0  0
  160.9800  206.5930  146.8700 S   0  0  0  0  0  0  0  0  0  0  0  0
  161.3030  202.5050  152.0080 C   0  0  0  0  0  1  0  0  0  0  0  0
  161.0840  203.9520  147.1590 C   0  0  0  0  0  0  0  0  0  0  0  0
  161.1210  205.0960  149.2650 C   0  0  0  0  0  0  0  0  0  0  0  0
  161.0680  205.1260  147.8720 C   0  0  0  0  0  0  0  0  0  0  0  0
  161.2030  202.6760  149.1440 C   0  0  0  0  0  2  0  0  0  0  0  0
  161.0290  204.0870  145.8480 C   0  0  0  0  0  2  0  0  0  0  0  0
  161.2060  205.0800  152.0570 C   0  0  0  0  0  0  0  0  0  0  0  0
  161.1100  206.2820  150.0060 O   0  0  0  0  0  0  0  0  0  0  0  0
  161.1500  202.7480  147.7840 N   0  0  0  0  0  0  0  0  0  0  0  0
  161.2010  206.1920  154.2390 C   0  0  0  0  0  3  0  0  0  0  0  0
  161.2320  203.8120  151.2760 C   0  0  0  0  0  0  0  0  0  0  0  0
  161.2370  205.0580  153.5360 C   0  0  0  0  0  3  0  0  0  0  0  0
  160.9530  205.5090  145.3840 C   0  0  2  0  0  3  0  0  0  0  0  0
  161.1870  203.8500  149.9260 C   0  0  0  0  0  0  0  0  0  0  0  0
  161.1330  207.4470  153.5570 N   0  0  0  0  0  2  0  0  0  0  0  0
  161.1470  206.2590  151.4060 C   0  0  0  0  0  0  0  0  0  0  0  0
  162.1390  205.8150  144.4890 C   0  0  0  0  0  2  0  0  0  0  0  0
  161.7220  205.8280  143.0980 N   0  0  0  0  0  1  0  0  0  0  0  0
  161.0070  208.7700  151.4740 C   0  0  0  0  0  2  0  0  0  0  0  0
  160.6820  209.8450  152.4540 C   0  0  0  0  0  0  0  0  0  0  0  0
  160.0450  211.8270  154.3240 C   0  0  0  0  0  0  0  0  0  0  0  0
  161.5920  210.1740  153.4650 C   0  0  0  0  0  3  0  0  0  0  0  0
  159.4490  210.5030  152.3860 C   0  0  0  0  0  3  0  0  0  0  0  0
  159.1310  211.4940  153.3190 C   0  0  0  0  0  3  0  0  0  0  0  0
  159.7070  212.8800  155.3160 C   0  0  0  0  0  1  0  0  0  0  0  0
  161.2740  211.1660  154.3980 C   0  0  0  0  0  3  0  0  0  0  0  0
  1 17  1  0  0  0  0
  2  6  1  0  0  0  0
  4 11  2  0  0  0  0
  4  6  1  0  0  0  0
  5 16  1  0  0  0  0
  5 10  1  0  0  0  0
  6  5  2  0  0  0  0
  7 16  1  0  0  0  0
  8  4  1  0  0  0  0
  9 14  1  0  0  0  0
 10 18  1  0  0  0  0
 11  7  1  0  0  0  0
 13  3  1  0  0  0  0
 13  9  1  0  0  0  0
 14 12  2  0  0  0  0
 15 19  1  6  0  0  0
 15  8  1  0  0  0  0
 15  2  1  0  0  0  0
 16 13  2  0  0  0  0
 17 12  1  0  0  0  0
 18  9  2  0  0  0  0
 18  1  1  0  0  0  0
 20 19  1  0  0  0  0
 21  1  1  0  0  0  0
 21 22  1  0  0  0  0
 22 24  1  0  0  0  0
 23 28  1  0  0  0  0
 23 27  1  0  0  0  0
 24 28  2  0  0  0  0
 25 22  2  0  0  0  0
 25 26  1  0  0  0  0
 26 23  2  0  0  0  0
M  END
>  <MODEL>
7

>  <REMARK>
 VINA RESULT:      -7.9      3.000      8.155
  Name = 
  3 active torsions:
  status: ('A' for Active; 'I' for Inactive)
    1  A    between atoms: N_1  and  C_2
    2  A    between atoms: C_2  and  C_3
    3  A    between atoms: C_12  and  C_24
                            x       y       z     vdW  Elec       q    Type
                         _______ _______ _______ _____ _____    ______ ____

>  <TORSDO>
F 3

$$$$
=
 OpenBabel11052423003D

 28 32  0  0  1  0  0  0  0  0999 V2000
  161.9810  208.8660  150.0880 N   0  0  0  0  0  0  0  0  0  0  0  0
  161.1320  203.9780  148.0590 S   0  0  0  0  0  0  0  0  0  0  0  0
  161.1920  206.2190  154.2390 C   0  0  0  0  0  1  0  0  0  0  0  0
  160.7560  202.8830  150.4530 C   0  0  0  0  0  0  0  0  0  0  0  0
  161.2290  205.2290  150.5940 C   0  0  1  0  0  3  0  0  0  0  0  0
  161.0390  204.0760  149.8330 C   0  0  0  0  0  0  0  0  0  0  0  0
  160.8320  203.9020  152.5840 C   0  0  0  0  0  3  0  0  0  0  0  0
  160.5930  201.8520  149.6460 C   0  0  0  0  0  2  0  0  0  0  0  0
  161.5960  207.5650  152.0800 C   0  0  0  0  0  0  0  0  0  0  0  0
  161.5220  206.4500  149.9790 O   0  0  0  0  0  0  0  0  0  0  0  0
  160.6540  202.7980  151.8040 N   0  0  0  0  0  0  0  0  0  0  0  0
  162.0300  209.9670  152.2830 C   0  0  0  0  0  3  0  0  0  0  0  0
  161.2980  206.2670  152.7440 C   0  0  0  0  0  0  0  0  0  0  0  0
  161.7750  208.8000  152.8760 C   0  0  0  0  0  3  0  0  0  0  0  0
  160.7450  202.1850  148.1930 C   0  0  2  0  0  3  0  0  0  0  0  0
  161.1220  205.1530  152.0000 C   0  0  0  0  0  0  0  0  0  0  0  0
  162.1340  210.0310  150.8580 N   0  0  0  0  0  2  0  0  0  0  0  0
  161.6980  207.6150  150.7360 C   0  0  0  0  0  0  0  0  0  0  0  0
  161.8690  201.3590  147.5980 C   0  0  0  0  0  2  0  0  0  0  0  0
  161.3200  200.2590  146.8230 N   0  0  0  0  0  1  0  0  0  0  0  0
  162.0500  208.9550  148.6350 C   0  0  0  0  0  2  0  0  0  0  0  0
  161.9760  210.3790  148.2020 C   0  0  0  0  0  0  0  0  0  0  0  0
  161.8630  213.0400  147.3430 C   0  0  0  0  0  0  0  0  0  0  0  0
  160.8450  210.8500  147.5260 C   0  0  0  0  0  3  0  0  0  0  0  0
  163.0530  211.2390  148.4410 C   0  0  0  0  0  3  0  0  0  0  0  0
  162.9970  212.5690  148.0130 C   0  0  0  0  0  3  0  0  0  0  0  0
  161.8020  214.4530  146.8890 C   0  0  0  0  0  1  0  0  0  0  0  0
  160.7880  212.1800  147.0980 C   0  0  0  0  0  3  0  0  0  0  0  0
  1 18  1  0  0  0  0
  1 17  1  0  0  0  0
  2 15  1  0  0  0  0
  2  6  1  0  0  0  0
  4 11  1  0  0  0  0
  5  6  1  6  0  0  0
  5 16  1  0  0  0  0
  6  4  2  0  0  0  0
  8  4  1  0  0  0  0
  9 13  1  0  0  0  0
  9 14  1  0  0  0  0
 10  5  1  0  0  0  0
 10 18  1  0  0  0  0
 11  7  2  0  0  0  0
 12 14  2  0  0  0  0
 13  3  1  0  0  0  0
 15 19  1  1  0  0  0
 15  8  1  0  0  0  0
 16  7  1  0  0  0  0
 16 13  2  0  0  0  0
 17 12  1  0  0  0  0
 18  9  2  0  0  0  0
 20 19  1  0  0  0  0
 21  1  1  0  0  0  0
 22 25  1  0  0  0  0
 22 21  1  0  0  0  0
 23 26  1  0  0  0  0
 24 22  2  0  0  0  0
 26 25  2  0  0  0  0
 27 23  1  0  0  0  0
 28 23  2  0  0  0  0
 28 24  1  0  0  0  0
M  END
>  <MODEL>
8

>  <REMARK>
 VINA RESULT:      -7.1      3.850      7.739
  Name = 
  3 active torsions:
  status: ('A' for Active; 'I' for Inactive)
    1  A    between atoms: N_1  and  C_2
    2  A    between atoms: C_2  and  C_3
    3  A    between atoms: C_12  and  C_24
                            x       y       z     vdW  Elec       q    Type
                         _______ _______ _______ _____ _____    ______ ____

>  <TORSDO>
F 3

$$$$
=
 OpenBabel11052423003D

 28 32  0  0  1  0  0  0  0  0999 V2000
  162.0670  207.3460  150.7070 N   0  0  0  0  0  0  0  0  0  0  0  0
  159.8560  209.5450  155.0650 S   0  0  0  0  0  0  0  0  0  0  0  0
  161.3660  212.0390  149.1740 C   0  0  0  0  0  1  0  0  0  0  0  0
  159.6230  211.9370  153.9280 C   0  0  0  0  0  0  0  0  0  0  0  0
  160.6180  210.3270  152.4570 C   0  0  0  0  0  0  0  0  0  0  0  0
  160.0630  210.6570  153.6920 C   0  0  0  0  0  0  0  0  0  0  0  0
  160.2510  212.6180  151.7540 C   0  0  0  0  0  2  0  0  0  0  0  0
  159.1130  212.1480  155.1260 C   0  0  0  0  0  2  0  0  0  0  0  0
  161.7180  209.6200  149.9890 C   0  0  0  0  0  0  0  0  0  0  0  0
  161.0750  209.0300  152.2020 O   0  0  0  0  0  0  0  0  0  0  0  0
  159.7160  212.9000  152.9760 N   0  0  0  0  0  0  0  0  0  0  0  0
  162.6970  208.0080  148.4270 C   0  0  0  0  0  3  0  0  0  0  0  0
  161.2470  211.0070  150.2550 C   0  0  0  0  0  0  0  0  0  0  0  0
  162.2870  209.2530  148.6720 C   0  0  0  0  0  3  0  0  0  0  0  0
  159.1080  210.9360  156.0080 C   0  0  2  0  0  3  0  0  0  0  0  0
  160.7170  211.3200  151.4580 C   0  0  0  0  0  0  0  0  0  0  0  0
  162.5920  207.0110  149.4460 N   0  0  0  0  0  2  0  0  0  0  0  0
  161.6190  208.6880  150.9570 C   0  0  0  0  0  0  0  0  0  0  0  0
  159.9150  211.2160  157.2610 C   0  0  0  0  0  2  0  0  0  0  0  0
  161.3350  211.1140  156.9700 N   0  0  0  0  0  1  0  0  0  0  0  0
  161.9280  206.3100  151.7210 C   0  0  0  0  0  2  0  0  0  0  0  0
  161.5530  205.0150  151.0870 C   0  0  0  0  0  0  0  0  0  0  0  0
  160.7970  202.5890  149.9150 C   0  0  0  0  0  0  0  0  0  0  0  0
  161.2060  204.9690  149.7320 C   0  0  0  0  0  3  0  0  0  0  0  0
  161.5130  203.8470  151.8570 C   0  0  0  0  0  3  0  0  0  0  0  0
  161.1370  202.6340  151.2700 C   0  0  0  0  0  3  0  0  0  0  0  0
  160.3980  201.3000  149.2920 C   0  0  0  0  0  1  0  0  0  0  0  0
  160.8300  203.7560  149.1460 C   0  0  0  0  0  3  0  0  0  0  0  0
  1 18  1  0  0  0  0
  1 21  1  0  0  0  0
  2 15  1  0  0  0  0
  3 13  1  0  0  0  0
  4  8  1  0  0  0  0
  5  6  2  0  0  0  0
  6  4  1  0  0  0  0
  6  2  1  0  0  0  0
  7 11  1  0  0  0  0
  8 15  1  0  0  0  0
  9 13  1  0  0  0  0
  9 18  2  0  0  0  0
 10  5  1  0  0  0  0
 11  4  2  0  0  0  0
 12 14  2  0  0  0  0
 12 17  1  0  0  0  0
 13 16  2  0  0  0  0
 14  9  1  0  0  0  0
 15 19  1  1  0  0  0
 16  7  1  0  0  0  0
 16  5  1  0  0  0  0
 17  1  1  0  0  0  0
 18 10  1  0  0  0  0
 20 19  1  0  0  0  0
 22 21  1  0  0  0  0
 22 25  1  0  0  0  0
 23 26  1  0  0  0  0
 24 22  2  0  0  0  0
 26 25  2  0  0  0  0
 27 23  1  0  0  0  0
 28 24  1  0  0  0  0
 28 23  2  0  0  0  0
M  END
>  <MODEL>
9

>  <REMARK>
 VINA RESULT:      -7.0      2.249      4.244
  Name = 
  3 active torsions:
  status: ('A' for Active; 'I' for Inactive)
    1  A    between atoms: N_1  and  C_2
    2  A    between atoms: C_2  and  C_3
    3  A    between atoms: C_12  and  C_24
                            x       y       z     vdW  Elec       q    Type
                         _______ _______ _______ _____ _____    ______ ____

>  <TORSDO>
F 3

$$$$
