=
 OpenBabel11052422293D

 31 35  0  0  1  0  0  0  0  0999 V2000
  161.6390  209.6340  149.2040 C   0  0  1  0  0  3  0  0  0  0  0  0
  161.2150  206.4860  151.2510 C   0  0  0  0  0  0  0  0  0  0  0  0
  161.1760  205.4380  150.2850 C   0  0  0  0  0  0  0  0  0  0  0  0
  160.7250  207.2270  157.2610 O   0  0  0  0  0  0  0  0  0  0  0  0
  160.9030  207.7140  156.1130 C   0  0  0  0  0  0  0  0  0  0  0  0
  161.2900  204.6300  147.9840 C   0  0  0  0  0  3  0  0  0  0  0  0
  161.4120  207.8500  150.9120 C   0  0  0  0  0  0  0  0  0  0  0  0
  162.3470  210.4550  150.2710 C   0  0  0  0  0  2  0  0  0  0  0  0
  161.3330  205.6760  148.9080 C   0  0  0  0  0  3  0  0  0  0  0  0
  161.0760  207.1640  153.6020 C   0  0  0  0  0  0  0  0  0  0  0  0
  162.3580  209.7780  147.8790 C   0  0  0  0  0  1  0  0  0  0  0  0
  160.8100  203.8050  152.0610 C   0  0  0  0  0  3  0  0  0  0  0  0
  161.0370  202.0100  147.2630 Cl  0  0  0  0  0  0  0  0  0  0  0  0
  161.2720  208.4540  153.2260 N   0  0  0  0  0  0  0  0  0  0  0  0
  161.0450  206.1540  152.6230 C   0  0  0  0  0  0  0  0  0  0  0  0
  160.8980  206.8250  154.9880 N   0  0  0  0  0  2  0  0  0  0  0  0
  161.6040  208.2590  149.5830 O   0  0  0  0  0  0  0  0  0  0  0  0
  161.0900  203.3200  148.4210 C   0  0  0  0  0  0  0  0  0  0  0  0
  161.4500  208.8170  151.9330 C   0  0  0  0  0  0  0  0  0  0  0  0
  161.6250  210.2710  151.6010 C   0  0  0  0  0  2  0  0  0  0  0  0
  160.8460  204.8230  153.0070 C   0  0  0  0  0  3  0  0  0  0  0  0
  160.9730  204.0980  150.7120 C   0  0  0  0  0  0  0  0  0  0  0  0
  160.9320  203.0560  149.7810 C   0  0  0  0  0  3  0  0  0  0  0  0
  161.1130  209.1660  155.9450 C   0  0  0  0  0  3  0  0  0  0  0  0
  158.7370  212.1190  155.4220 C   0  0  0  0  0  2  0  0  0  0  0  0
  158.7730  209.7610  155.7190 N   0  0  0  0  0  0  0  0  0  0  0  0
  160.5310  211.8040  155.5780 S   0  0  0  0  0  0  0  0  0  0  0  0
  160.1530  210.0760  155.7690 C   0  0  0  0  0  0  0  0  0  0  0  0
  158.0360  210.8050  155.5400 C   0  0  0  0  0  0  0  0  0  0  0  0
  156.6450  210.7220  155.4600 O   0  0  0  0  0  0  0  0  0  0  0  0
  155.7940  211.5740  156.2110 C   0  0  0  0  0  1  0  0  0  0  0  0
  1 11  1  6  0  0  0
  1 17  1  0  0  0  0
  1  8  1  0  0  0  0
  2 15  1  0  0  0  0
  3 22  1  0  0  0  0
  3  2  2  0  0  0  0
  5  4  2  0  0  0  0
  6 18  1  0  0  0  0
  6  9  2  0  0  0  0
  7  2  1  0  0  0  0
  7 19  2  0  0  0  0
  8 20  1  0  0  0  0
  9  3  1  0  0  0  0
 10 16  1  0  0  0  0
 12 21  1  0  0  0  0
 13 18  1  0  0  0  0
 14 10  2  0  0  0  0
 15 21  2  0  0  0  0
 15 10  1  0  0  0  0
 16  5  1  0  0  0  0
 17  7  1  0  0  0  0
 18 23  2  0  0  0  0
 19 14  1  0  0  0  0
 20 19  1  0  0  0  0
 22 12  2  0  0  0  0
 23 22  1  0  0  0  0
 24  5  1  0  0  0  0
 25 29  1  0  0  0  0
 25 27  1  0  0  0  0
 26 28  1  0  0  0  0
 27 28  1  0  0  0  0
 28 24  2  0  0  0  0
 29 26  2  0  0  0  0
 30 29  1  0  0  0  0
 30 31  1  0  0  0  0
M  END
>  <MODEL>
1

>  <REMARK>
 VINA RESULT:      -9.3      0.000      0.000
  Name = 
  2 active torsions:
  status: ('A' for Active; 'I' for Inactive)
    1  A    between atoms: O_1  and  C_24
    2  A    between atoms: C_3  and  C_9
                            x       y       z     vdW  Elec       q    Type
                         _______ _______ _______ _____ _____    ______ ____

>  <TORSDO>
F 2

$$$$
=
 OpenBabel11052422293D

 31 35  0  0  1  0  0  0  0  0999 V2000
  160.7170  206.1900  145.9710 C   0  0  1  0  0  3  0  0  0  0  0  0
  161.1090  203.5290  148.6250 C   0  0  0  0  0  0  0  0  0  0  0  0
  161.1280  202.3030  147.8970 C   0  0  0  0  0  0  0  0  0  0  0  0
  161.2740  205.4680  154.3800 O   0  0  0  0  0  0  0  0  0  0  0  0
  161.2170  205.7170  153.1460 C   0  0  0  0  0  0  0  0  0  0  0  0
  161.0830  201.0430  145.8070 C   0  0  0  0  0  3  0  0  0  0  0  0
  161.0230  204.8020  148.0030 C   0  0  0  0  0  0  0  0  0  0  0  0
  161.4030  207.3140  146.7320 C   0  0  0  0  0  2  0  0  0  0  0  0
  161.0630  202.2590  146.4930 C   0  0  0  0  0  3  0  0  0  0  0  0
  161.1580  204.6700  150.7930 C   0  0  0  0  0  0  0  0  0  0  0  0
  161.2230  206.1460  144.5450 C   0  0  0  0  0  1  0  0  0  0  0  0
  161.2810  201.0550  149.9890 C   0  0  0  0  0  3  0  0  0  0  0  0
  161.1970  198.3200  145.6520 Cl  0  0  0  0  0  0  0  0  0  0  0  0
  161.0790  205.8630  150.1500 N   0  0  0  0  0  0  0  0  0  0  0  0
  161.1770  203.4790  150.0450 C   0  0  0  0  0  0  0  0  0  0  0  0
  161.2210  204.6150  152.2290 N   0  0  0  0  0  2  0  0  0  0  0  0
  160.9680  204.9380  146.6070 O   0  0  0  0  0  0  0  0  0  0  0  0
  161.1700  199.8440  146.5130 C   0  0  0  0  0  0  0  0  0  0  0  0
  161.0230  205.9610  148.8000 C   0  0  0  0  0  0  0  0  0  0  0  0
  160.9000  207.3190  148.1720 C   0  0  0  0  0  2  0  0  0  0  0  0
  161.2620  202.2470  150.7040 C   0  0  0  0  0  3  0  0  0  0  0  0
  161.2160  201.0720  148.6000 C   0  0  0  0  0  0  0  0  0  0  0  0
  161.2360  199.8580  147.9060 C   0  0  0  0  0  3  0  0  0  0  0  0
  161.1490  207.1140  152.6720 C   0  0  0  0  0  3  0  0  0  0  0  0
  160.4240  210.4450  154.4090 C   0  0  0  0  0  2  0  0  0  0  0  0
  160.6140  208.1110  154.8160 N   0  0  0  0  0  0  0  0  0  0  0  0
  160.8240  209.8200  152.7380 S   0  0  0  0  0  0  0  0  0  0  0  0
  160.8780  208.1800  153.4270 C   0  0  0  0  0  0  0  0  0  0  0  0
  160.3780  209.2700  155.3310 C   0  0  0  0  0  0  0  0  0  0  0  0
  160.0940  209.4320  156.6880 O   0  0  0  0  0  0  0  0  0  0  0  0
  159.6510  210.6700  157.2240 C   0  0  0  0  0  1  0  0  0  0  0  0
  1 11  1  6  0  0  0
  1 17  1  0  0  0  0
  1  8  1  0  0  0  0
  2 15  1  0  0  0  0
  3 22  1  0  0  0  0
  3  2  2  0  0  0  0
  5  4  2  0  0  0  0
  6  9  2  0  0  0  0
  6 18  1  0  0  0  0
  7  2  1  0  0  0  0
  7 19  2  0  0  0  0
  8 20  1  0  0  0  0
  9  3  1  0  0  0  0
 10 16  1  0  0  0  0
 12 21  1  0  0  0  0
 13 18  1  0  0  0  0
 14 10  2  0  0  0  0
 15 21  2  0  0  0  0
 15 10  1  0  0  0  0
 16  5  1  0  0  0  0
 17  7  1  0  0  0  0
 18 23  2  0  0  0  0
 19 14  1  0  0  0  0
 20 19  1  0  0  0  0
 22 12  2  0  0  0  0
 23 22  1  0  0  0  0
 24  5  1  0  0  0  0
 24 28  2  0  0  0  0
 25 29  1  0  0  0  0
 26 29  2  0  0  0  0
 27 28  1  0  0  0  0
 27 25  1  0  0  0  0
 28 26  1  0  0  0  0
 29 30  1  0  0  0  0
 30 31  1  0  0  0  0
M  END
>  <MODEL>
2

>  <REMARK>
 VINA RESULT:      -9.0      2.505      3.897
  Name = 
  2 active torsions:
  status: ('A' for Active; 'I' for Inactive)
    1  A    between atoms: O_1  and  C_24
    2  A    between atoms: C_3  and  C_9
                            x       y       z     vdW  Elec       q    Type
                         _______ _______ _______ _____ _____    ______ ____

>  <TORSDO>
F 2

$$$$
=
 OpenBabel11052422293D

 31 35  0  0  1  0  0  0  0  0999 V2000
  161.3150  203.3530  152.0110 C   0  0  1  0  0  3  0  0  0  0  0  0
  161.3220  205.1290  148.6760 C   0  0  0  0  0  0  0  0  0  0  0  0
  161.1140  204.0900  147.7210 C   0  0  0  0  0  0  0  0  0  0  0  0
  162.3310  211.1180  148.8140 O   0  0  0  0  0  0  0  0  0  0  0  0
  162.1640  210.0260  149.4200 C   0  0  0  0  0  0  0  0  0  0  0  0
  160.7100  201.7540  147.1400 C   0  0  0  0  0  3  0  0  0  0  0  0
  161.3420  204.9050  150.0770 C   0  0  0  0  0  0  0  0  0  0  0  0
  160.8320  204.5300  152.8470 C   0  0  0  0  0  2  0  0  0  0  0  0
  160.9100  202.7510  148.0970 C   0  0  0  0  0  3  0  0  0  0  0  0
  161.7320  207.5030  149.1200 C   0  0  0  0  0  0  0  0  0  0  0  0
  160.5460  202.1040  152.3850 C   0  0  0  0  0  1  0  0  0  0  0  0
  161.3090  205.7090  145.9060 C   0  0  0  0  0  3  0  0  0  0  0  0
  160.4560  200.8290  144.5850 Cl  0  0  0  0  0  0  0  0  0  0  0  0
  161.7380  207.2380  150.4510 N   0  0  0  0  0  0  0  0  0  0  0  0
  161.5220  206.4560  148.2050 C   0  0  0  0  0  0  0  0  0  0  0  0
  161.9400  208.8430  148.6400 N   0  0  0  0  0  2  0  0  0  0  0  0
  161.1360  203.6280  150.6230 O   0  0  0  0  0  0  0  0  0  0  0  0
  160.7080  202.0780  145.7840 C   0  0  0  0  0  0  0  0  0  0  0  0
  161.5410  205.9930  150.9470 C   0  0  0  0  0  0  0  0  0  0  0  0
  161.5990  205.7810  152.4320 C   0  0  0  0  0  2  0  0  0  0  0  0
  161.5130  206.7260  146.8320 C   0  0  0  0  0  3  0  0  0  0  0  0
  161.1100  204.4020  146.3350 C   0  0  0  0  0  0  0  0  0  0  0  0
  160.9080  203.3990  145.3830 C   0  0  0  0  0  3  0  0  0  0  0  0
  162.1990  209.9800  150.8950 C   0  0  0  0  0  3  0  0  0  0  0  0
  160.1700  211.7330  153.6250 C   0  0  0  0  0  2  0  0  0  0  0  0
  160.3960  211.5580  151.2650 N   0  0  0  0  0  0  0  0  0  0  0  0
  161.5410  210.5320  153.4820 S   0  0  0  0  0  0  0  0  0  0  0  0
  161.4040  210.6700  151.7140 C   0  0  0  0  0  0  0  0  0  0  0  0
  159.7560  212.1110  152.2400 C   0  0  0  0  0  0  0  0  0  0  0  0
  158.7200  213.0210  152.0220 O   0  0  0  0  0  0  0  0  0  0  0  0
  158.2470  213.3280  150.7200 C   0  0  0  0  0  1  0  0  0  0  0  0
  1 11  1  1  0  0  0
  1  8  1  0  0  0  0
  2  7  1  0  0  0  0
  3  9  1  0  0  0  0
  3  2  2  0  0  0  0
  4  5  2  0  0  0  0
  5 24  1  0  0  0  0
  6  9  2  0  0  0  0
  7 17  1  0  0  0  0
  7 19  2  0  0  0  0
 10 14  2  0  0  0  0
 12 22  2  0  0  0  0
 12 21  1  0  0  0  0
 13 18  1  0  0  0  0
 14 19  1  0  0  0  0
 15  2  1  0  0  0  0
 15 10  1  0  0  0  0
 16 10  1  0  0  0  0
 16  5  1  0  0  0  0
 17  1  1  0  0  0  0
 18  6  1  0  0  0  0
 19 20  1  0  0  0  0
 20  8  1  0  0  0  0
 21 15  2  0  0  0  0
 22  3  1  0  0  0  0
 23 18  2  0  0  0  0
 23 22  1  0  0  0  0
 24 28  2  0  0  0  0
 26 28  1  0  0  0  0
 26 29  2  0  0  0  0
 27 25  1  0  0  0  0
 28 27  1  0  0  0  0
 29 25  1  0  0  0  0
 30 29  1  0  0  0  0
 31 30  1  0  0  0  0
M  END
>  <MODEL>
3

>  <REMARK>
 VINA RESULT:      -8.7      2.894      5.105
  Name = 
  2 active torsions:
  status: ('A' for Active; 'I' for Inactive)
    1  A    between atoms: O_1  and  C_24
    2  A    between atoms: C_3  and  C_9
                            x       y       z     vdW  Elec       q    Type
                         _______ _______ _______ _____ _____    ______ ____

>  <TORSDO>
F 2

$$$$
=
 OpenBabel11052422293D

 31 35  0  0  1  0  0  0  0  0999 V2000
  162.1980  210.7600  149.5040 C   0  0  1  0  0  3  0  0  0  0  0  0
  161.3290  208.2370  152.1790 C   0  0  0  0  0  0  0  0  0  0  0  0
  161.2310  209.0070  153.3750 C   0  0  0  0  0  0  0  0  0  0  0  0
  160.9560  202.4410  150.3960 O   0  0  0  0  0  0  0  0  0  0  0  0
  161.1300  203.6580  150.1200 C   0  0  0  0  0  0  0  0  0  0  0  0
  161.2920  211.1340  154.5730 C   0  0  0  0  0  3  0  0  0  0  0  0
  161.5980  208.8040  150.9070 C   0  0  0  0  0  0  0  0  0  0  0  0
  161.5830  210.0080  148.3330 C   0  0  0  0  0  2  0  0  0  0  0  0
  161.3930  210.4040  153.3860 C   0  0  0  0  0  3  0  0  0  0  0  0
  161.2460  206.0380  151.1010 C   0  0  0  0  0  0  0  0  0  0  0  0
  161.7950  212.2180  149.4510 C   0  0  0  0  0  1  0  0  0  0  0  0
  160.7930  206.9780  154.6560 C   0  0  0  0  0  3  0  0  0  0  0  0
  160.8970  211.3930  157.2610 Cl  0  0  0  0  0  0  0  0  0  0  0  0
  161.5000  206.6300  149.9060 N   0  0  0  0  0  0  0  0  0  0  0  0
  161.1540  206.8280  152.2610 C   0  0  0  0  0  0  0  0  0  0  0  0
  161.0730  204.6120  151.1890 N   0  0  0  0  0  2  0  0  0  0  0  0
  161.7680  210.1880  150.7380 O   0  0  0  0  0  0  0  0  0  0  0  0
  161.0250  210.4790  155.7740 C   0  0  0  0  0  0  0  0  0  0  0  0
  161.6640  207.9680  149.7770 C   0  0  0  0  0  0  0  0  0  0  0  0
  161.9780  208.5380  148.4240 C   0  0  0  0  0  2  0  0  0  0  0  0
  160.8890  206.2210  153.4940 C   0  0  0  0  0  3  0  0  0  0  0  0
  160.9600  208.3570  154.6080 C   0  0  0  0  0  0  0  0  0  0  0  0
  160.8600  209.0940  155.7920 C   0  0  0  0  0  3  0  0  0  0  0  0
  161.3820  204.0760  148.7270 C   0  0  0  0  0  3  0  0  0  0  0  0
  161.1740  202.2640  145.3630 C   0  0  0  0  0  2  0  0  0  0  0  0
  160.8610  201.9440  147.6970 N   0  0  0  0  0  0  0  0  0  0  0  0
  161.5930  203.9210  146.0140 S   0  0  0  0  0  0  0  0  0  0  0  0
  161.2590  203.3010  147.6480 C   0  0  0  0  0  0  0  0  0  0  0  0
  160.8140  201.4000  146.5280 C   0  0  0  0  0  0  0  0  0  0  0  0
  160.4440  200.0670  146.3470 O   0  0  0  0  0  0  0  0  0  0  0  0
  161.3150  199.1160  145.7530 C   0  0  0  0  0  1  0  0  0  0  0  0
  1 11  1  1  0  0  0
  1 17  1  0  0  0  0
  2 15  2  0  0  0  0
  2  3  1  0  0  0  0
  3  9  2  0  0  0  0
  3 22  1  0  0  0  0
  5  4  2  0  0  0  0
  5 16  1  0  0  0  0
  6 18  2  0  0  0  0
  7  2  1  0  0  0  0
  8 20  1  0  0  0  0
  8  1  1  0  0  0  0
  9  6  1  0  0  0  0
 10 16  1  0  0  0  0
 10 15  1  0  0  0  0
 14 10  2  0  0  0  0
 15 21  1  0  0  0  0
 17  7  1  0  0  0  0
 18 23  1  0  0  0  0
 18 13  1  0  0  0  0
 19 14  1  0  0  0  0
 19  7  2  0  0  0  0
 20 19  1  0  0  0  0
 21 12  2  0  0  0  0
 22 12  1  0  0  0  0
 22 23  2  0  0  0  0
 24  5  1  0  0  0  0
 25 27  1  0  0  0  0
 25 29  1  0  0  0  0
 27 28  1  0  0  0  0
 28 26  1  0  0  0  0
 28 24  2  0  0  0  0
 29 26  2  0  0  0  0
 30 29  1  0  0  0  0
 31 30  1  0  0  0  0
M  END
>  <MODEL>
4

>  <REMARK>
 VINA RESULT:      -8.6      4.539      8.309
  Name = 
  2 active torsions:
  status: ('A' for Active; 'I' for Inactive)
    1  A    between atoms: O_1  and  C_24
    2  A    between atoms: C_3  and  C_9
                            x       y       z     vdW  Elec       q    Type
                         _______ _______ _______ _____ _____    ______ ____

>  <TORSDO>
F 2

$$$$
=
 OpenBabel11052422293D

 31 35  0  0  1  0  0  0  0  0999 V2000
  160.9680  207.7950  154.2720 C   0  0  1  0  0  3  0  0  0  0  0  0
  161.2480  207.1940  150.5520 C   0  0  0  0  0  0  0  0  0  0  0  0
  161.2160  205.7740  150.4190 C   0  0  0  0  0  0  0  0  0  0  0  0
  161.8650  212.1290  147.0630 O   0  0  0  0  0  0  0  0  0  0  0  0
  161.6980  211.6100  148.1990 C   0  0  0  0  0  0  0  0  0  0  0  0
  161.0250  203.5310  151.3630 C   0  0  0  0  0  3  0  0  0  0  0  0
  161.1220  207.8620  151.7970 C   0  0  0  0  0  0  0  0  0  0  0  0
  160.3220  209.1710  154.1890 C   0  0  0  0  0  2  0  0  0  0  0  0
  161.0520  204.9180  151.5220 C   0  0  0  0  0  3  0  0  0  0  0  0
  161.4580  209.3850  149.4770 C   0  0  0  0  0  0  0  0  0  0  0  0
  160.2400  206.9420  155.2880 C   0  0  0  0  0  1  0  0  0  0  0  0
  161.5170  205.9850  148.0070 C   0  0  0  0  0  3  0  0  0  0  0  0
  161.1220  201.2330  149.8930 Cl  0  0  0  0  0  0  0  0  0  0  0  0
  161.3280  209.9770  150.6920 N   0  0  0  0  0  0  0  0  0  0  0  0
  161.4200  207.9830  149.3810 C   0  0  0  0  0  0  0  0  0  0  0  0
  161.6370  210.1800  148.2920 N   0  0  0  0  0  2  0  0  0  0  0  0
  160.9330  207.1570  152.9970 O   0  0  0  0  0  0  0  0  0  0  0  0
  161.1580  202.9710  150.0930 C   0  0  0  0  0  0  0  0  0  0  0  0
  161.1520  209.2680  151.8330 C   0  0  0  0  0  0  0  0  0  0  0  0
  161.0520  210.0010  153.1390 C   0  0  0  0  0  2  0  0  0  0  0  0
  161.5510  207.3700  148.1300 C   0  0  0  0  0  3  0  0  0  0  0  0
  161.3510  205.1870  149.1330 C   0  0  0  0  0  0  0  0  0  0  0  0
  161.3220  203.7970  148.9810 C   0  0  0  0  0  3  0  0  0  0  0  0
  161.5660  212.4650  149.3950 C   0  0  0  0  0  3  0  0  0  0  0  0
  158.6610  214.4530  150.8950 C   0  0  0  0  0  2  0  0  0  0  0  0
  159.2300  213.0300  149.0780 N   0  0  0  0  0  0  0  0  0  0  0  0
  160.4210  214.1050  151.2480 S   0  0  0  0  0  0  0  0  0  0  0  0
  160.4570  213.0980  149.7810 C   0  0  0  0  0  0  0  0  0  0  0  0
  158.2990  213.7240  149.6420 C   0  0  0  0  0  0  0  0  0  0  0  0
  157.0090  213.7970  149.1150 O   0  0  0  0  0  0  0  0  0  0  0  0
  156.7640  214.1650  147.7660 C   0  0  0  0  0  1  0  0  0  0  0  0
  1 11  1  1  0  0  0
  2  7  1  0  0  0  0
  3  2  1  0  0  0  0
  3  9  1  0  0  0  0
  4  5  2  0  0  0  0
  5 16  1  0  0  0  0
  5 24  1  0  0  0  0
  6  9  2  0  0  0  0
  7 19  2  0  0  0  0
  7 17  1  0  0  0  0
  8  1  1  0  0  0  0
 10 14  2  0  0  0  0
 12 21  2  0  0  0  0
 12 22  1  0  0  0  0
 13 18  1  0  0  0  0
 14 19  1  0  0  0  0
 15 10  1  0  0  0  0
 15  2  2  0  0  0  0
 16 10  1  0  0  0  0
 17  1  1  0  0  0  0
 18  6  1  0  0  0  0
 19 20  1  0  0  0  0
 20  8  1  0  0  0  0
 21 15  1  0  0  0  0
 22  3  2  0  0  0  0
 23 22  1  0  0  0  0
 23 18  2  0  0  0  0
 24 28  2  0  0  0  0
 25 27  1  0  0  0  0
 26 29  2  0  0  0  0
 26 28  1  0  0  0  0
 28 27  1  0  0  0  0
 29 25  1  0  0  0  0
 30 29  1  0  0  0  0
 31 30  1  0  0  0  0
M  END
>  <MODEL>
5

>  <REMARK>
 VINA RESULT:      -8.4      3.285      5.419
  Name = 
  2 active torsions:
  status: ('A' for Active; 'I' for Inactive)
    1  A    between atoms: O_1  and  C_24
    2  A    between atoms: C_3  and  C_9
                            x       y       z     vdW  Elec       q    Type
                         _______ _______ _______ _____ _____    ______ ____

>  <TORSDO>
F 2

$$$$
=
 OpenBabel11052422293D

 31 35  0  0  1  0  0  0  0  0999 V2000
  161.2020  202.4770  150.9900 C   0  0  1  0  0  3  0  0  0  0  0  0
  161.3640  205.8330  149.2630 C   0  0  0  0  0  0  0  0  0  0  0  0
  161.3540  205.5170  147.8720 C   0  0  0  0  0  0  0  0  0  0  0  0
  161.7660  210.7040  152.8710 O   0  0  0  0  0  0  0  0  0  0  0  0
  161.6480  209.4580  152.7300 C   0  0  0  0  0  0  0  0  0  0  0  0
  161.2390  203.9160  146.0320 C   0  0  0  0  0  3  0  0  0  0  0  0
  161.2680  204.8540  150.2840 C   0  0  0  0  0  0  0  0  0  0  0  0
  160.5270  202.9580  152.2670 C   0  0  0  0  0  2  0  0  0  0  0  0
  161.2460  204.1970  147.4000 C   0  0  0  0  0  3  0  0  0  0  0  0
  161.4950  207.5440  151.0120 C   0  0  0  0  0  0  0  0  0  0  0  0
  160.5260  201.2180  150.4900 C   0  0  0  0  0  1  0  0  0  0  0  0
  161.5670  207.8850  147.3240 C   0  0  0  0  0  3  0  0  0  0  0  0
  161.3290  204.6020  143.3920 Cl  0  0  0  0  0  0  0  0  0  0  0  0
  161.3960  206.5690  151.9520 N   0  0  0  0  0  0  0  0  0  0  0  0
  161.4800  207.1970  149.6500 C   0  0  0  0  0  0  0  0  0  0  0  0
  161.6180  208.9230  151.4000 N   0  0  0  0  0  2  0  0  0  0  0  0
  161.1350  203.4880  149.9860 O   0  0  0  0  0  0  0  0  0  0  0  0
  161.3390  204.9540  145.1060 C   0  0  0  0  0  0  0  0  0  0  0  0
  161.2740  205.2580  151.6320 C   0  0  0  0  0  0  0  0  0  0  0  0
  161.2050  204.2410  152.7340 C   0  0  0  0  0  2  0  0  0  0  0  0
  161.5790  208.2000  148.6780 C   0  0  0  0  0  3  0  0  0  0  0  0
  161.4560  206.5610  146.9150 C   0  0  0  0  0  0  0  0  0  0  0  0
  161.4480  206.2730  145.5470 C   0  0  0  0  0  3  0  0  0  0  0  0
  161.5410  208.5830  153.9140 C   0  0  0  0  0  3  0  0  0  0  0  0
  159.7120  208.9020  157.2600 C   0  0  0  0  0  2  0  0  0  0  0  0
  160.1010  210.0410  155.2100 N   0  0  0  0  0  0  0  0  0  0  0  0
  160.7940  207.7140  156.3880 S   0  0  0  0  0  0  0  0  0  0  0  0
  160.8470  208.8520  155.0210 C   0  0  0  0  0  0  0  0  0  0  0  0
  159.5140  210.0770  156.3590 C   0  0  0  0  0  0  0  0  0  0  0  0
  158.7250  211.1600  156.7520 O   0  0  0  0  0  0  0  0  0  0  0  0
  157.7900  211.7700  155.8750 C   0  0  0  0  0  1  0  0  0  0  0  0
  1 11  1  6  0  0  0
  1  8  1  0  0  0  0
  2 15  1  0  0  0  0
  2  7  1  0  0  0  0
  3  2  2  0  0  0  0
  5  4  2  0  0  0  0
  5 24  1  0  0  0  0
  6  9  2  0  0  0  0
  7 19  2  0  0  0  0
  8 20  1  0  0  0  0
  9  3  1  0  0  0  0
 10 16  1  0  0  0  0
 10 14  2  0  0  0  0
 12 21  1  0  0  0  0
 13 18  1  0  0  0  0
 15 10  1  0  0  0  0
 16  5  1  0  0  0  0
 17  7  1  0  0  0  0
 17  1  1  0  0  0  0
 18 23  2  0  0  0  0
 18  6  1  0  0  0  0
 19 14  1  0  0  0  0
 19 20  1  0  0  0  0
 21 15  2  0  0  0  0
 22 12  2  0  0  0  0
 22  3  1  0  0  0  0
 23 22  1  0  0  0  0
 24 28  2  0  0  0  0
 26 29  2  0  0  0  0
 27 25  1  0  0  0  0
 28 26  1  0  0  0  0
 28 27  1  0  0  0  0
 29 30  1  0  0  0  0
 29 25  1  0  0  0  0
 31 30  1  0  0  0  0
M  END
>  <MODEL>
6

>  <REMARK>
 VINA RESULT:      -6.8      2.217      4.405
  Name = 
  2 active torsions:
  status: ('A' for Active; 'I' for Inactive)
    1  A    between atoms: O_1  and  C_24
    2  A    between atoms: C_3  and  C_9
                            x       y       z     vdW  Elec       q    Type
                         _______ _______ _______ _____ _____    ______ ____

>  <TORSDO>
F 2

$$$$
=
 OpenBabel11052422293D

 31 35  0  0  1  0  0  0  0  0999 V2000
  161.5170  202.9780  151.5910 C   0  0  1  0  0  3  0  0  0  0  0  0
  161.3670  206.1380  149.5260 C   0  0  0  0  0  0  0  0  0  0  0  0
  161.4900  205.6870  148.1780 C   0  0  0  0  0  0  0  0  0  0  0  0
  160.9050  211.3520  152.6080 O   0  0  0  0  0  0  0  0  0  0  0  0
  160.9550  210.0940  152.5960 C   0  0  0  0  0  0  0  0  0  0  0  0
  161.7020  203.9110  146.5170 C   0  0  0  0  0  3  0  0  0  0  0  0
  161.3280  205.2610  150.6400 C   0  0  0  0  0  0  0  0  0  0  0  0
  160.7020  203.4890  152.7710 C   0  0  0  0  0  2  0  0  0  0  0  0
  161.5820  204.3240  147.8450 C   0  0  0  0  0  3  0  0  0  0  0  0
  161.1620  208.0160  151.0870 C   0  0  0  0  0  0  0  0  0  0  0  0
  161.0400  201.5970  151.1930 C   0  0  0  0  0  1  0  0  0  0  0  0
  161.4380  207.9970  147.3920 C   0  0  0  0  0  3  0  0  0  0  0  0
  161.8820  204.3380  143.8270 Cl  0  0  0  0  0  0  0  0  0  0  0  0
  161.1250  207.1340  152.1190 N   0  0  0  0  0  0  0  0  0  0  0  0
  161.2820  207.5370  149.7700 C   0  0  0  0  0  0  0  0  0  0  0  0
  161.0830  209.4310  151.3310 N   0  0  0  0  0  2  0  0  0  0  0  0
  161.3890  203.8670  150.4830 O   0  0  0  0  0  0  0  0  0  0  0  0
  161.7320  204.8560  145.4920 C   0  0  0  0  0  0  0  0  0  0  0  0
  161.1910  205.7940  151.9350 C   0  0  0  0  0  0  0  0  0  0  0  0
  161.1790  204.8910  153.1340 C   0  0  0  0  0  2  0  0  0  0  0  0
  161.3180  208.4430  148.7040 C   0  0  0  0  0  3  0  0  0  0  0  0
  161.5230  206.6360  147.1220 C   0  0  0  0  0  0  0  0  0  0  0  0
  161.6430  206.2150  145.7940 C   0  0  0  0  0  3  0  0  0  0  0  0
  160.8820  209.3340  153.8590 C   0  0  0  0  0  3  0  0  0  0  0  0
  162.5920  209.7210  157.2610 C   0  0  0  0  0  2  0  0  0  0  0  0
  162.4610  210.6960  155.0960 N   0  0  0  0  0  0  0  0  0  0  0  0
  161.3870  208.6170  156.4400 S   0  0  0  0  0  0  0  0  0  0  0  0
  161.5600  209.6100  154.9750 C   0  0  0  0  0  0  0  0  0  0  0  0
  162.9980  210.7620  156.2680 C   0  0  0  0  0  0  0  0  0  0  0  0
  163.9170  211.7570  156.6050 O   0  0  0  0  0  0  0  0  0  0  0  0
  165.1540  211.4600  157.2330 C   0  0  0  0  0  1  0  0  0  0  0  0
  1 11  1  6  0  0  0
  1  8  1  0  0  0  0
  2 15  1  0  0  0  0
  2  7  1  0  0  0  0
  3  2  2  0  0  0  0
  5  4  2  0  0  0  0
  5 24  1  0  0  0  0
  6  9  2  0  0  0  0
  7 19  2  0  0  0  0
  8 20  1  0  0  0  0
  9  3  1  0  0  0  0
 10 16  1  0  0  0  0
 10 14  2  0  0  0  0
 12 21  1  0  0  0  0
 13 18  1  0  0  0  0
 15 10  1  0  0  0  0
 16  5  1  0  0  0  0
 17  7  1  0  0  0  0
 17  1  1  0  0  0  0
 18 23  2  0  0  0  0
 18  6  1  0  0  0  0
 19 14  1  0  0  0  0
 19 20  1  0  0  0  0
 21 15  2  0  0  0  0
 22 12  2  0  0  0  0
 22  3  1  0  0  0  0
 23 22  1  0  0  0  0
 24 28  2  0  0  0  0
 26 29  2  0  0  0  0
 27 25  1  0  0  0  0
 28 26  1  0  0  0  0
 28 27  1  0  0  0  0
 29 30  1  0  0  0  0
 29 25  1  0  0  0  0
 30 31  1  0  0  0  0
M  END
>  <MODEL>
7

>  <REMARK>
 VINA RESULT:      -6.7      2.763      4.883
  Name = 
  2 active torsions:
  status: ('A' for Active; 'I' for Inactive)
    1  A    between atoms: O_1  and  C_24
    2  A    between atoms: C_3  and  C_9
                            x       y       z     vdW  Elec       q    Type
                         _______ _______ _______ _____ _____    ______ ____

>  <TORSDO>
F 2

$$$$
