=
 OpenBabel11052422073D

 25 27  0  0  0  0  0  0  0  0999 V2000
  161.2590  205.9250  151.9500 C   0  0  0  0  0  0  0  0  0  0  0  0
  161.2400  205.3970  150.6440 C   0  0  0  0  0  0  0  0  0  0  0  0
  160.9180  203.7400  152.8220 C   0  0  0  0  0  3  0  0  0  0  0  0
  160.8960  203.2160  151.5700 N   0  0  0  0  0  0  0  0  0  0  0  0
  161.0130  203.4930  149.1810 C   0  0  0  0  0  0  0  0  0  0  0  0
  160.8140  202.0360  148.9370 C   0  0  0  0  0  1  0  0  0  0  0  0
  161.3690  206.1900  149.5470 N   0  0  0  0  0  0  0  0  0  0  0  0
  161.0960  205.0750  153.0020 N   0  0  0  0  0  0  0  0  0  0  0  0
  161.1500  204.3300  148.1190 N   0  0  0  0  0  0  0  0  0  0  0  0
  161.3300  205.6660  148.2940 C   0  0  0  0  0  0  0  0  0  0  0  0
  161.0500  204.0140  150.4810 C   0  0  0  0  0  0  0  0  0  0  0  0
  161.4590  207.3730  152.2160 C   0  0  0  0  0  0  0  0  0  0  0  0
  161.8920  210.0820  152.7120 C   0  0  0  0  0  3  0  0  0  0  0  0
  161.0850  207.9670  153.4410 C   0  0  0  0  0  0  0  0  0  0  0  0
  161.3060  209.2930  153.6490 N   0  0  0  0  0  0  0  0  0  0  0  0
  162.2840  209.5400  151.4890 C   0  0  0  0  0  3  0  0  0  0  0  0
  160.4400  207.2060  154.4580 N   0  0  0  0  0  1  0  0  0  0  0  0
  162.0680  208.1840  151.2480 C   0  0  0  0  0  3  0  0  0  0  0  0
  161.4540  206.5610  147.1080 C   0  0  0  0  0  2  0  0  0  0  0  0
  160.8240  205.9220  145.9050 C   0  0  0  0  0  0  0  0  0  0  0  0
  159.6570  206.1850  145.6510 O   0  0  0  0  0  0  0  0  0  0  0  0
  161.5380  205.5420  143.5650 C   0  0  0  0  0  1  0  0  0  0  0  0
  163.0650  204.8890  145.3830 C   0  0  0  0  0  1  0  0  0  0  0  0
  160.9940  203.6160  145.0090 C   0  0  0  0  0  1  0  0  0  0  0  0
  161.6020  205.0060  144.9820 C   0  0  0  0  0  0  0  0  0  0  0  0
  1 12  1  0  0  0  0
  1  8  1  0  0  0  0
  2  1  2  0  0  0  0
  3  8  2  0  0  0  0
  4  3  1  0  0  0  0
  5 11  1  0  0  0  0
  6  5  1  0  0  0  0
  7  2  1  0  0  0  0
  9 10  1  0  0  0  0
  9  5  2  0  0  0  0
 10  7  2  0  0  0  0
 11  2  1  0  0  0  0
 11  4  2  0  0  0  0
 12 14  1  0  0  0  0
 13 15  1  0  0  0  0
 14 15  2  0  0  0  0
 14 17  1  0  0  0  0
 16 13  2  0  0  0  0
 18 16  1  0  0  0  0
 18 12  2  0  0  0  0
 19 10  1  0  0  0  0
 20 19  1  0  0  0  0
 21 20  2  0  0  0  0
 22 25  1  0  0  0  0
 25 24  1  0  0  0  0
 25 23  1  0  0  0  0
 25 20  1  0  0  0  0
M  END
>  <MODEL>
1

>  <REMARK>
 VINA RESULT:      -8.7      0.000      0.000
  Name = 
  4 active torsions:
  status: ('A' for Active; 'I' for Inactive)
    1  A    between atoms: C_1  and  C_5
    2  A    between atoms: C_6  and  C_15
    3  A    between atoms: C_6  and  C_23
    4  A    between atoms: C_15  and  C_21
                            x       y       z     vdW  Elec       q    Type
                         _______ _______ _______ _____ _____    ______ ____

>  <TORSDO>
F 4

$$$$
=
 OpenBabel11052422073D

 25 27  0  0  0  0  0  0  0  0999 V2000
  160.8450  208.2350  152.9150 C   0  0  0  0  0  0  0  0  0  0  0  0
  160.9200  207.1760  151.9880 C   0  0  0  0  0  0  0  0  0  0  0  0
  161.3140  206.7070  154.6750 C   0  0  0  0  0  3  0  0  0  0  0  0
  161.3870  205.6760  153.7950 N   0  0  0  0  0  0  0  0  0  0  0  0
  161.2480  204.8280  151.5450 C   0  0  0  0  0  0  0  0  0  0  0  0
  161.5340  203.4330  151.9850 C   0  0  0  0  0  1  0  0  0  0  0  0
  160.7040  207.3690  150.6600 N   0  0  0  0  0  0  0  0  0  0  0  0
  161.0460  207.9640  154.2350 N   0  0  0  0  0  0  0  0  0  0  0  0
  161.0270  205.0760  150.2280 N   0  0  0  0  0  0  0  0  0  0  0  0
  160.7610  206.3330  149.7820 C   0  0  0  0  0  0  0  0  0  0  0  0
  161.1930  205.8830  152.4660 C   0  0  0  0  0  0  0  0  0  0  0  0
  160.5660  209.6330  152.4990 C   0  0  0  0  0  0  0  0  0  0  0  0
  159.9970  212.2410  151.6920 C   0  0  0  0  0  3  0  0  0  0  0  0
  161.4510  210.3580  151.6720 C   0  0  0  0  0  0  0  0  0  0  0  0
  161.1450  211.6310  151.2990 N   0  0  0  0  0  0  0  0  0  0  0  0
  159.0890  211.5630  152.5040 C   0  0  0  0  0  3  0  0  0  0  0  0
  162.6870  209.7930  151.2460 N   0  0  0  0  0  1  0  0  0  0  0  0
  159.3780  210.2590  152.9030 C   0  0  0  0  0  3  0  0  0  0  0  0
  160.5000  206.5690  148.3340 C   0  0  0  0  0  2  0  0  0  0  0  0
  161.7290  206.2670  147.5260 C   0  0  0  0  0  0  0  0  0  0  0  0
  162.7300  206.9420  147.7200 O   0  0  0  0  0  0  0  0  0  0  0  0
  163.1920  204.9630  146.0150 C   0  0  0  0  0  1  0  0  0  0  0  0
  161.3180  203.8120  147.1230 C   0  0  0  0  0  1  0  0  0  0  0  0
  160.8670  205.4540  145.3490 C   0  0  0  0  0  1  0  0  0  0  0  0
  161.7730  205.1340  146.5230 C   0  0  0  0  0  0  0  0  0  0  0  0
  1  8  1  0  0  0  0
  2 11  1  0  0  0  0
  2  1  2  0  0  0  0
  4  3  1  0  0  0  0
  5  6  1  0  0  0  0
  5 11  1  0  0  0  0
  7  2  1  0  0  0  0
  8  3  2  0  0  0  0
  9  5  2  0  0  0  0
 10  9  1  0  0  0  0
 10  7  2  0  0  0  0
 11  4  2  0  0  0  0
 12 18  1  0  0  0  0
 12  1  1  0  0  0  0
 13 16  1  0  0  0  0
 14 12  2  0  0  0  0
 15 14  1  0  0  0  0
 15 13  2  0  0  0  0
 16 18  2  0  0  0  0
 17 14  1  0  0  0  0
 19 10  1  0  0  0  0
 20 21  2  0  0  0  0
 20 19  1  0  0  0  0
 22 25  1  0  0  0  0
 24 25  1  0  0  0  0
 25 23  1  0  0  0  0
 25 20  1  0  0  0  0
M  END
>  <MODEL>
2

>  <REMARK>
 VINA RESULT:      -8.4      1.864      2.913
  Name = 
  4 active torsions:
  status: ('A' for Active; 'I' for Inactive)
    1  A    between atoms: C_1  and  C_5
    2  A    between atoms: C_6  and  C_15
    3  A    between atoms: C_6  and  C_23
    4  A    between atoms: C_15  and  C_21
                            x       y       z     vdW  Elec       q    Type
                         _______ _______ _______ _____ _____    ______ ____

>  <TORSDO>
F 4

$$$$
=
 OpenBabel11052422073D

 25 27  0  0  0  0  0  0  0  0999 V2000
  161.6050  207.0770  148.0900 C   0  0  0  0  0  0  0  0  0  0  0  0
  161.3270  206.5570  149.3690 C   0  0  0  0  0  0  0  0  0  0  0  0
  162.2250  209.1460  149.0840 C   0  0  0  0  0  3  0  0  0  0  0  0
  161.9610  208.6590  150.3230 N   0  0  0  0  0  0  0  0  0  0  0  0
  161.2200  206.8730  151.7580 C   0  0  0  0  0  0  0  0  0  0  0  0
  161.3960  207.6990  152.9850 C   0  0  0  0  0  1  0  0  0  0  0  0
  160.8580  205.2930  149.5430 N   0  0  0  0  0  0  0  0  0  0  0  0
  162.0470  208.3620  147.9890 N   0  0  0  0  0  0  0  0  0  0  0  0
  160.7560  205.6010  151.8750 N   0  0  0  0  0  0  0  0  0  0  0  0
  160.5780  204.8120  150.7830 C   0  0  0  0  0  0  0  0  0  0  0  0
  161.5140  207.3870  150.4880 C   0  0  0  0  0  0  0  0  0  0  0  0
  161.4410  206.2710  146.8530 C   0  0  0  0  0  0  0  0  0  0  0  0
  161.0880  204.7330  144.5550 C   0  0  0  0  0  3  0  0  0  0  0  0
  162.4180  205.3450  146.4300 C   0  0  0  0  0  0  0  0  0  0  0  0
  162.2170  204.6120  145.3010 N   0  0  0  0  0  0  0  0  0  0  0  0
  160.0920  205.6300  144.9360 C   0  0  0  0  0  3  0  0  0  0  0  0
  163.6390  205.1870  147.1460 N   0  0  0  0  0  1  0  0  0  0  0  0
  160.2730  206.3950  146.0870 C   0  0  0  0  0  3  0  0  0  0  0  0
  160.0440  203.4290  150.9420 C   0  0  0  0  0  2  0  0  0  0  0  0
  160.9990  202.4310  150.3550 C   0  0  0  0  0  0  0  0  0  0  0  0
  162.0200  202.1690  150.9760 O   0  0  0  0  0  0  0  0  0  0  0  0
  159.2530  201.3080  149.0070 C   0  0  0  0  0  1  0  0  0  0  0  0
  161.0010  202.5900  147.8390 C   0  0  0  0  0  1  0  0  0  0  0  0
  161.5750  200.4720  148.9490 C   0  0  0  0  0  1  0  0  0  0  0  0
  160.7130  201.7170  149.0500 C   0  0  0  0  0  0  0  0  0  0  0  0
  1  2  1  0  0  0  0
  2  7  1  0  0  0  0
  2 11  2  0  0  0  0
  3  4  2  0  0  0  0
  4 11  1  0  0  0  0
  5  9  2  0  0  0  0
  5  6  1  0  0  0  0
  7 10  2  0  0  0  0
  8  1  2  0  0  0  0
  8  3  1  0  0  0  0
 10 19  1  0  0  0  0
 10  9  1  0  0  0  0
 11  5  1  0  0  0  0
 12  1  1  0  0  0  0
 13 16  2  0  0  0  0
 13 15  1  0  0  0  0
 14 12  1  0  0  0  0
 14 17  1  0  0  0  0
 15 14  2  0  0  0  0
 16 18  1  0  0  0  0
 18 12  2  0  0  0  0
 20 19  1  0  0  0  0
 20 21  2  0  0  0  0
 22 25  1  0  0  0  0
 23 25  1  0  0  0  0
 24 25  1  0  0  0  0
 25 20  1  0  0  0  0
M  END
>  <MODEL>
3

>  <REMARK>
 VINA RESULT:      -8.3      2.146      6.023
  Name = 
  4 active torsions:
  status: ('A' for Active; 'I' for Inactive)
    1  A    between atoms: C_1  and  C_5
    2  A    between atoms: C_6  and  C_15
    3  A    between atoms: C_6  and  C_23
    4  A    between atoms: C_15  and  C_21
                            x       y       z     vdW  Elec       q    Type
                         _______ _______ _______ _____ _____    ______ ____

>  <TORSDO>
F 4

$$$$
=
 OpenBabel11052422073D

 25 27  0  0  0  0  0  0  0  0999 V2000
  161.1830  208.4930  152.2820 C   0  0  0  0  0  0  0  0  0  0  0  0
  161.0550  207.3010  151.5410 C   0  0  0  0  0  0  0  0  0  0  0  0
  161.4050  207.2120  154.2730 C   0  0  0  0  0  3  0  0  0  0  0  0
  161.2820  206.0550  153.5730 N   0  0  0  0  0  0  0  0  0  0  0  0
  160.9590  204.8920  151.4890 C   0  0  0  0  0  0  0  0  0  0  0  0
  161.0030  203.5590  152.1530 C   0  0  0  0  0  1  0  0  0  0  0  0
  160.8550  207.3110  150.1960 N   0  0  0  0  0  0  0  0  0  0  0  0
  161.3550  208.4090  153.6310 N   0  0  0  0  0  0  0  0  0  0  0  0
  160.7640  204.9580  150.1460 N   0  0  0  0  0  0  0  0  0  0  0  0
  160.7150  206.1530  149.4990 C   0  0  0  0  0  0  0  0  0  0  0  0
  161.1050  206.0750  152.2260 C   0  0  0  0  0  0  0  0  0  0  0  0
  161.1470  209.8320  151.6410 C   0  0  0  0  0  0  0  0  0  0  0  0
  161.1340  212.3540  150.4510 C   0  0  0  0  0  3  0  0  0  0  0  0
  160.3400  210.8780  152.1390 C   0  0  0  0  0  0  0  0  0  0  0  0
  160.3540  212.0960  151.5320 N   0  0  0  0  0  0  0  0  0  0  0  0
  161.9520  211.3540  149.9270 C   0  0  0  0  0  3  0  0  0  0  0  0
  159.4740  210.6710  153.2510 N   0  0  0  0  0  1  0  0  0  0  0  0
  161.9570  210.0960  150.5270 C   0  0  0  0  0  3  0  0  0  0  0  0
  160.4750  206.1930  148.0290 C   0  0  0  0  0  2  0  0  0  0  0  0
  161.7640  205.9930  147.2850 C   0  0  0  0  0  0  0  0  0  0  0  0
  162.6720  206.7910  147.4710 O   0  0  0  0  0  0  0  0  0  0  0  0
  161.5390  203.5400  147.0430 C   0  0  0  0  0  1  0  0  0  0  0  0
  161.2000  204.9550  145.0570 C   0  0  0  0  0  1  0  0  0  0  0  0
  163.4540  204.7030  146.0090 C   0  0  0  0  0  1  0  0  0  0  0  0
  161.9810  204.8170  146.3550 C   0  0  0  0  0  0  0  0  0  0  0  0
  1  8  1  0  0  0  0
  2 11  1  0  0  0  0
  2  1  2  0  0  0  0
  4  3  1  0  0  0  0
  5  6  1  0  0  0  0
  5 11  1  0  0  0  0
  7  2  1  0  0  0  0
  8  3  2  0  0  0  0
  9  5  2  0  0  0  0
 10  9  1  0  0  0  0
 10  7  2  0  0  0  0
 11  4  2  0  0  0  0
 12 14  1  0  0  0  0
 12  1  1  0  0  0  0
 13 15  1  0  0  0  0
 14 17  1  0  0  0  0
 15 14  2  0  0  0  0
 16 13  2  0  0  0  0
 16 18  1  0  0  0  0
 18 12  2  0  0  0  0
 19 10  1  0  0  0  0
 20 21  2  0  0  0  0
 20 19  1  0  0  0  0
 23 25  1  0  0  0  0
 24 25  1  0  0  0  0
 25 22  1  0  0  0  0
 25 20  1  0  0  0  0
M  END
>  <MODEL>
4

>  <REMARK>
 VINA RESULT:      -8.2      1.742      2.818
  Name = 
  4 active torsions:
  status: ('A' for Active; 'I' for Inactive)
    1  A    between atoms: C_1  and  C_5
    2  A    between atoms: C_6  and  C_15
    3  A    between atoms: C_6  and  C_23
    4  A    between atoms: C_15  and  C_21
                            x       y       z     vdW  Elec       q    Type
                         _______ _______ _______ _____ _____    ______ ____

>  <TORSDO>
F 4

$$$$
=
 OpenBabel11052422073D

 25 27  0  0  0  0  0  0  0  0999 V2000
  161.2810  204.9550  151.0050 C   0  0  0  0  0  0  0  0  0  0  0  0
  161.4870  206.1340  150.2610 C   0  0  0  0  0  0  0  0  0  0  0  0
  161.3220  206.2320  153.0100 C   0  0  0  0  0  3  0  0  0  0  0  0
  161.5220  207.3770  152.3080 N   0  0  0  0  0  0  0  0  0  0  0  0
  161.8330  208.5210  150.2120 C   0  0  0  0  0  0  0  0  0  0  0  0
  161.9720  209.8440  150.8810 C   0  0  0  0  0  1  0  0  0  0  0  0
  161.5990  206.1170  148.9070 N   0  0  0  0  0  0  0  0  0  0  0  0
  161.2050  205.0440  152.3620 N   0  0  0  0  0  0  0  0  0  0  0  0
  161.9340  208.4480  148.8580 N   0  0  0  0  0  0  0  0  0  0  0  0
  161.8160  207.2610  148.2060 C   0  0  0  0  0  0  0  0  0  0  0  0
  161.6090  207.3520  150.9520 C   0  0  0  0  0  0  0  0  0  0  0  0
  161.1350  203.6260  150.3590 C   0  0  0  0  0  0  0  0  0  0  0  0
  160.8150  201.1490  149.1190 C   0  0  0  0  0  3  0  0  0  0  0  0
  160.8890  202.4540  151.1060 C   0  0  0  0  0  0  0  0  0  0  0  0
  160.7420  201.2600  150.4700 N   0  0  0  0  0  0  0  0  0  0  0  0
  161.0500  202.2790  148.3380 C   0  0  0  0  0  3  0  0  0  0  0  0
  160.8290  202.4900  152.5290 N   0  0  0  0  0  1  0  0  0  0  0  0
  161.2070  203.5150  148.9630 C   0  0  0  0  0  3  0  0  0  0  0  0
  161.9560  207.2110  146.7230 C   0  0  0  0  0  2  0  0  0  0  0  0
  161.0590  206.1530  146.1500 C   0  0  0  0  0  0  0  0  0  0  0  0
  159.8640  206.2040  146.4060 O   0  0  0  0  0  0  0  0  0  0  0  0
  163.0020  204.7090  145.6340 C   0  0  0  0  0  1  0  0  0  0  0  0
  160.7380  203.7980  145.3070 C   0  0  0  0  0  1  0  0  0  0  0  0
  161.5800  205.5520  143.8020 C   0  0  0  0  0  1  0  0  0  0  0  0
  161.5820  205.0630  145.2380 C   0  0  0  0  0  0  0  0  0  0  0  0
  1  8  1  0  0  0  0
  2 11  1  0  0  0  0
  2  1  2  0  0  0  0
  4  3  1  0  0  0  0
  5  6  1  0  0  0  0
  5 11  1  0  0  0  0
  7  2  1  0  0  0  0
  8  3  2  0  0  0  0
  9  5  2  0  0  0  0
 10  9  1  0  0  0  0
 10  7  2  0  0  0  0
 11  4  2  0  0  0  0
 12  1  1  0  0  0  0
 12 14  1  0  0  0  0
 13 15  1  0  0  0  0
 14 17  1  0  0  0  0
 15 14  2  0  0  0  0
 16 18  1  0  0  0  0
 16 13  2  0  0  0  0
 18 12  2  0  0  0  0
 19 10  1  0  0  0  0
 20 21  2  0  0  0  0
 20 19  1  0  0  0  0
 24 25  1  0  0  0  0
 25 23  1  0  0  0  0
 25 22  1  0  0  0  0
 25 20  1  0  0  0  0
M  END
>  <MODEL>
5

>  <REMARK>
 VINA RESULT:      -8.1      1.253      4.539
  Name = 
  4 active torsions:
  status: ('A' for Active; 'I' for Inactive)
    1  A    between atoms: C_1  and  C_5
    2  A    between atoms: C_6  and  C_15
    3  A    between atoms: C_6  and  C_23
    4  A    between atoms: C_15  and  C_21
                            x       y       z     vdW  Elec       q    Type
                         _______ _______ _______ _____ _____    ______ ____

>  <TORSDO>
F 4

$$$$
=
 OpenBabel11052422073D

 25 27  0  0  0  0  0  0  0  0999 V2000
  161.4100  208.6250  151.3890 C   0  0  0  0  0  0  0  0  0  0  0  0
  161.2180  207.5100  150.5490 C   0  0  0  0  0  0  0  0  0  0  0  0
  162.2630  209.8510  149.5390 C   0  0  0  0  0  3  0  0  0  0  0  0
  162.0860  208.7850  148.7170 N   0  0  0  0  0  0  0  0  0  0  0  0
  161.4020  206.5030  148.3650 C   0  0  0  0  0  0  0  0  0  0  0  0
  161.7600  206.5520  146.9190 C   0  0  0  0  0  1  0  0  0  0  0  0
  160.7300  206.3320  151.0210 N   0  0  0  0  0  0  0  0  0  0  0  0
  161.9290  209.7650  150.8530 N   0  0  0  0  0  0  0  0  0  0  0  0
  160.9070  205.3500  148.8870 N   0  0  0  0  0  0  0  0  0  0  0  0
  160.5690  205.2600  150.2010 C   0  0  0  0  0  0  0  0  0  0  0  0
  161.5760  207.6190  149.1940 C   0  0  0  0  0  0  0  0  0  0  0  0
  161.0560  208.6010  152.8310 C   0  0  0  0  0  0  0  0  0  0  0  0
  160.3540  208.5150  155.5280 C   0  0  0  0  0  3  0  0  0  0  0  0
  160.4780  209.7140  153.4780 C   0  0  0  0  0  0  0  0  0  0  0  0
  160.1500  209.6410  154.7960 N   0  0  0  0  0  0  0  0  0  0  0  0
  160.9180  207.3880  154.9320 C   0  0  0  0  0  3  0  0  0  0  0  0
  160.2620  210.9380  152.7800 N   0  0  0  0  0  1  0  0  0  0  0  0
  161.2640  207.4350  153.5820 C   0  0  0  0  0  3  0  0  0  0  0  0
  160.0520  203.9740  150.7490 C   0  0  0  0  0  2  0  0  0  0  0  0
  160.9960  202.8520  150.4270 C   0  0  0  0  0  0  0  0  0  0  0  0
  161.9860  202.7060  151.1310 O   0  0  0  0  0  0  0  0  0  0  0  0
  159.2550  201.5500  149.2440 C   0  0  0  0  0  1  0  0  0  0  0  0
  161.1420  202.4480  147.9430 C   0  0  0  0  0  1  0  0  0  0  0  0
  161.5170  200.6030  149.5250 C   0  0  0  0  0  1  0  0  0  0  0  0
  160.7340  201.8820  149.2940 C   0  0  0  0  0  0  0  0  0  0  0  0
  1 12  1  0  0  0  0
  2  7  1  0  0  0  0
  2  1  2  0  0  0  0
  3  8  2  0  0  0  0
  4 11  2  0  0  0  0
  4  3  1  0  0  0  0
  5  9  2  0  0  0  0
  5 11  1  0  0  0  0
  6  5  1  0  0  0  0
  8  1  1  0  0  0  0
  9 10  1  0  0  0  0
 10 19  1  0  0  0  0
 10  7  2  0  0  0  0
 11  2  1  0  0  0  0
 12 14  2  0  0  0  0
 12 18  1  0  0  0  0
 14 15  1  0  0  0  0
 15 13  2  0  0  0  0
 16 13  1  0  0  0  0
 17 14  1  0  0  0  0
 18 16  2  0  0  0  0
 20 19  1  0  0  0  0
 20 21  2  0  0  0  0
 22 25  1  0  0  0  0
 23 25  1  0  0  0  0
 25 24  1  0  0  0  0
 25 20  1  0  0  0  0
M  END
>  <MODEL>
6

>  <REMARK>
 VINA RESULT:      -7.9      2.313      4.379
  Name = 
  4 active torsions:
  status: ('A' for Active; 'I' for Inactive)
    1  A    between atoms: C_1  and  C_5
    2  A    between atoms: C_6  and  C_15
    3  A    between atoms: C_6  and  C_23
    4  A    between atoms: C_15  and  C_21
                            x       y       z     vdW  Elec       q    Type
                         _______ _______ _______ _____ _____    ______ ____

>  <TORSDO>
F 4

$$$$
=
 OpenBabel11052422073D

 25 27  0  0  0  0  0  0  0  0999 V2000
  161.4320  205.5030  149.1140 C   0  0  0  0  0  0  0  0  0  0  0  0
  161.5150  206.5210  150.0830 C   0  0  0  0  0  0  0  0  0  0  0  0
  161.8410  207.1110  147.4120 C   0  0  0  0  0  3  0  0  0  0  0  0
  161.9220  208.1040  148.3340 N   0  0  0  0  0  0  0  0  0  0  0  0
  161.8250  208.8520  150.6210 C   0  0  0  0  0  0  0  0  0  0  0  0
  162.0840  210.2680  150.2360 C   0  0  0  0  0  1  0  0  0  0  0  0
  161.3330  206.2690  151.4060 N   0  0  0  0  0  0  0  0  0  0  0  0
  161.5980  205.8330  147.8030 N   0  0  0  0  0  0  0  0  0  0  0  0
  161.6380  208.5440  151.9310 N   0  0  0  0  0  0  0  0  0  0  0  0
  161.3980  207.2660  152.3270 C   0  0  0  0  0  0  0  0  0  0  0  0
  161.7620  207.8370  149.6560 C   0  0  0  0  0  0  0  0  0  0  0  0
  161.1800  204.0840  149.4740 C   0  0  0  0  0  0  0  0  0  0  0  0
  160.7540  201.4210  150.1810 C   0  0  0  0  0  3  0  0  0  0  0  0
  161.1530  203.0590  148.5040 C   0  0  0  0  0  0  0  0  0  0  0  0
  160.9390  201.7700  148.8820 N   0  0  0  0  0  0  0  0  0  0  0  0
  160.7770  202.3970  151.1760 C   0  0  0  0  0  3  0  0  0  0  0  0
  161.3100  203.3550  147.1190 N   0  0  0  0  0  1  0  0  0  0  0  0
  160.9930  203.7260  150.8170 C   0  0  0  0  0  3  0  0  0  0  0  0
  161.1730  206.9640  153.7690 C   0  0  0  0  0  2  0  0  0  0  0  0
  160.7100  208.1950  154.4940 C   0  0  0  0  0  0  0  0  0  0  0  0
  160.3890  209.1720  153.8320 O   0  0  0  0  0  0  0  0  0  0  0  0
  159.8260  207.0220  156.4870 C   0  0  0  0  0  1  0  0  0  0  0  0
  161.9440  208.2610  156.6910 C   0  0  0  0  0  1  0  0  0  0  0  0
  159.8320  209.4900  156.4170 C   0  0  0  0  0  1  0  0  0  0  0  0
  160.5880  208.2410  156.0030 C   0  0  0  0  0  0  0  0  0  0  0  0
  1 12  1  0  0  0  0
  1  2  1  0  0  0  0
  2  7  1  0  0  0  0
  3  8  1  0  0  0  0
  3  4  2  0  0  0  0
  4 11  1  0  0  0  0
  5  9  2  0  0  0  0
  6  5  1  0  0  0  0
  7 10  2  0  0  0  0
  8  1  2  0  0  0  0
  9 10  1  0  0  0  0
 10 19  1  0  0  0  0
 11  2  2  0  0  0  0
 11  5  1  0  0  0  0
 12 18  1  0  0  0  0
 13 16  1  0  0  0  0
 14 15  1  0  0  0  0
 14 12  2  0  0  0  0
 15 13  2  0  0  0  0
 17 14  1  0  0  0  0
 18 16  2  0  0  0  0
 19 20  1  0  0  0  0
 20 25  1  0  0  0  0
 21 20  2  0  0  0  0
 25 24  1  0  0  0  0
 25 22  1  0  0  0  0
 25 23  1  0  0  0  0
M  END
>  <MODEL>
7

>  <REMARK>
 VINA RESULT:      -7.9      2.713      7.674
  Name = 
  4 active torsions:
  status: ('A' for Active; 'I' for Inactive)
    1  A    between atoms: C_1  and  C_5
    2  A    between atoms: C_6  and  C_15
    3  A    between atoms: C_6  and  C_23
    4  A    between atoms: C_15  and  C_21
                            x       y       z     vdW  Elec       q    Type
                         _______ _______ _______ _____ _____    ______ ____

>  <TORSDO>
F 4

$$$$
=
 OpenBabel11052422073D

 25 27  0  0  0  0  0  0  0  0999 V2000
  161.2730  203.2020  147.7500 C   0  0  0  0  0  0  0  0  0  0  0  0
  161.0750  203.8620  148.9780 C   0  0  0  0  0  0  0  0  0  0  0  0
  161.1990  201.1110  148.8800 C   0  0  0  0  0  3  0  0  0  0  0  0
  161.0090  201.7330  150.0720 N   0  0  0  0  0  0  0  0  0  0  0  0
  160.7690  203.7470  151.3680 C   0  0  0  0  0  0  0  0  0  0  0  0
  160.6280  202.9880  152.6420 C   0  0  0  0  0  1  0  0  0  0  0  0
  161.0360  205.2180  149.0660 N   0  0  0  0  0  0  0  0  0  0  0  0
  161.3290  201.8400  147.7410 N   0  0  0  0  0  0  0  0  0  0  0  0
  160.7350  205.1060  151.3990 N   0  0  0  0  0  0  0  0  0  0  0  0
  160.8620  205.8400  150.2620 C   0  0  0  0  0  0  0  0  0  0  0  0
  160.9480  203.0880  150.1450 C   0  0  0  0  0  0  0  0  0  0  0  0
  161.4130  203.9380  146.4680 C   0  0  0  0  0  0  0  0  0  0  0  0
  161.6500  205.3650  144.0840 C   0  0  0  0  0  3  0  0  0  0  0  0
  160.7670  203.5130  145.2870 C   0  0  0  0  0  0  0  0  0  0  0  0
  160.9060  204.2310  144.1390 N   0  0  0  0  0  0  0  0  0  0  0  0
  162.3020  205.8280  145.2260 C   0  0  0  0  0  3  0  0  0  0  0  0
  159.9940  202.3160  145.2630 N   0  0  0  0  0  1  0  0  0  0  0  0
  162.1780  205.1120  146.4150 C   0  0  0  0  0  3  0  0  0  0  0  0
  160.8440  207.3290  150.3310 C   0  0  0  0  0  2  0  0  0  0  0  0
  161.8240  207.8150  151.3600 C   0  0  0  0  0  0  0  0  0  0  0  0
  163.0060  207.5430  151.2090 O   0  0  0  0  0  0  0  0  0  0  0  0
  161.2030  207.7720  153.7560 C   0  0  0  0  0  1  0  0  0  0  0  0
  162.4210  209.7280  152.8890 C   0  0  0  0  0  1  0  0  0  0  0  0
  160.0830  209.3520  152.2270 C   0  0  0  0  0  1  0  0  0  0  0  0
  161.3950  208.6600  152.5410 C   0  0  0  0  0  0  0  0  0  0  0  0
  1  2  1  0  0  0  0
  2  7  1  0  0  0  0
  2 11  2  0  0  0  0
  3  4  2  0  0  0  0
  4 11  1  0  0  0  0
  5  9  2  0  0  0  0
  5  6  1  0  0  0  0
  7 10  2  0  0  0  0
  8  1  2  0  0  0  0
  8  3  1  0  0  0  0
 10 19  1  0  0  0  0
 10  9  1  0  0  0  0
 11  5  1  0  0  0  0
 12  1  1  0  0  0  0
 13 15  2  0  0  0  0
 13 16  1  0  0  0  0
 14 12  2  0  0  0  0
 15 14  1  0  0  0  0
 16 18  2  0  0  0  0
 17 14  1  0  0  0  0
 18 12  1  0  0  0  0
 19 20  1  0  0  0  0
 20 25  1  0  0  0  0
 21 20  2  0  0  0  0
 24 25  1  0  0  0  0
 25 23  1  0  0  0  0
 25 22  1  0  0  0  0
M  END
>  <MODEL>
8

>  <REMARK>
 VINA RESULT:      -7.7      2.123      6.653
  Name = 
  4 active torsions:
  status: ('A' for Active; 'I' for Inactive)
    1  A    between atoms: C_1  and  C_5
    2  A    between atoms: C_6  and  C_15
    3  A    between atoms: C_6  and  C_23
    4  A    between atoms: C_15  and  C_21
                            x       y       z     vdW  Elec       q    Type
                         _______ _______ _______ _____ _____    ______ ____

>  <TORSDO>
F 4

$$$$
=
 OpenBabel11052422073D

 25 27  0  0  0  0  0  0  0  0999 V2000
  161.1590  205.7130  148.4970 C   0  0  0  0  0  0  0  0  0  0  0  0
  161.4120  206.8900  149.2280 C   0  0  0  0  0  0  0  0  0  0  0  0
  160.8120  204.5410  150.5370 C   0  0  0  0  0  3  0  0  0  0  0  0
  161.0550  205.6670  151.2550 N   0  0  0  0  0  0  0  0  0  0  0  0
  161.6270  208.0040  151.3560 C   0  0  0  0  0  0  0  0  0  0  0  0
  161.5850  208.0160  152.8460 C   0  0  0  0  0  1  0  0  0  0  0  0
  161.7370  208.0590  148.6140 N   0  0  0  0  0  0  0  0  0  0  0  0
  160.8650  204.5700  149.1790 N   0  0  0  0  0  0  0  0  0  0  0  0
  161.9440  209.1470  150.6930 N   0  0  0  0  0  0  0  0  0  0  0  0
  161.9970  209.1820  149.3350 C   0  0  0  0  0  0  0  0  0  0  0  0
  161.3560  206.8360  150.6310 C   0  0  0  0  0  0  0  0  0  0  0  0
  161.1910  205.6780  147.0130 C   0  0  0  0  0  0  0  0  0  0  0  0
  161.2070  205.5790  144.2260 C   0  0  0  0  0  3  0  0  0  0  0  0
  162.2950  205.1620  146.3000 C   0  0  0  0  0  0  0  0  0  0  0  0
  162.2720  205.1320  144.9400 N   0  0  0  0  0  0  0  0  0  0  0  0
  160.0910  206.0920  144.8850 C   0  0  0  0  0  3  0  0  0  0  0  0
  163.4590  204.7030  146.9820 N   0  0  0  0  0  1  0  0  0  0  0  0
  160.0880  206.1370  146.2790 C   0  0  0  0  0  3  0  0  0  0  0  0
  162.3710  210.4440  148.6370 C   0  0  0  0  0  2  0  0  0  0  0  0
  161.5810  211.5970  149.1850 C   0  0  0  0  0  0  0  0  0  0  0  0
  161.2370  211.5590  150.3580 O   0  0  0  0  0  0  0  0  0  0  0  0
  160.3800  213.7620  149.1550 C   0  0  0  0  0  1  0  0  0  0  0  0
  162.4830  213.5630  147.8900 C   0  0  0  0  0  1  0  0  0  0  0  0
  160.4720  212.3810  147.1110 C   0  0  0  0  0  1  0  0  0  0  0  0
  161.2420  212.8110  148.3460 C   0  0  0  0  0  0  0  0  0  0  0  0
  1  8  2  0  0  0  0
  1  2  1  0  0  0  0
  2 11  2  0  0  0  0
  3  4  2  0  0  0  0
  5  6  1  0  0  0  0
  7  2  1  0  0  0  0
  7 10  2  0  0  0  0
  8  3  1  0  0  0  0
  9  5  2  0  0  0  0
 10  9  1  0  0  0  0
 11  4  1  0  0  0  0
 11  5  1  0  0  0  0
 12  1  1  0  0  0  0
 13 16  2  0  0  0  0
 13 15  1  0  0  0  0
 14 17  1  0  0  0  0
 14 12  1  0  0  0  0
 15 14  2  0  0  0  0
 16 18  1  0  0  0  0
 18 12  2  0  0  0  0
 19 20  1  0  0  0  0
 19 10  1  0  0  0  0
 20 21  2  0  0  0  0
 23 25  1  0  0  0  0
 24 25  1  0  0  0  0
 25 22  1  0  0  0  0
 25 20  1  0  0  0  0
M  END
>  <MODEL>
9

>  <REMARK>
 VINA RESULT:      -7.7      3.056      6.542
  Name = 
  4 active torsions:
  status: ('A' for Active; 'I' for Inactive)
    1  A    between atoms: C_1  and  C_5
    2  A    between atoms: C_6  and  C_15
    3  A    between atoms: C_6  and  C_23
    4  A    between atoms: C_15  and  C_21
                            x       y       z     vdW  Elec       q    Type
                         _______ _______ _______ _____ _____    ______ ____

>  <TORSDO>
F 4

$$$$
