=
 OpenBabel11052422033D

 30 32  0  0  1  0  0  0  0  0999 V2000
  160.9240  204.4800  152.4830 C   0  0  2  0  0  3  0  0  0  0  0  0
  161.0480  206.6000  153.7760 C   0  0  0  0  0  3  0  0  0  0  0  0
  161.5200  208.9710  150.2960 N   0  0  0  0  0  2  0  0  0  0  0  0
  159.7780  206.2500  149.5200 O   0  0  0  0  0  1  0  0  0  0  0  0
  162.0710  203.8390  151.6980 C   0  0  0  0  0  2  0  0  0  0  0  0
  161.1900  201.7990  149.4790 C   0  0  2  0  0  3  0  0  0  0  0  0
  160.9970  201.6410  150.9840 C   0  0  0  0  0  2  0  0  0  0  0  0
  163.3310  201.8360  151.4510 F   0  0  0  0  0  0  0  0  0  0  0  0
  162.2880  206.1850  147.6750 C   0  0  2  0  0  3  0  0  0  0  0  0
  161.8550  208.3480  149.0520 C   0  0  0  0  0  0  0  0  0  0  0  0
  162.0880  202.3190  151.8160 C   0  0  1  0  0  3  0  0  0  0  0  0
  160.5510  203.1070  149.0210 C   0  0  0  0  0  2  0  0  0  0  0  0
  161.1500  207.9890  153.8810 C   0  0  0  0  0  3  0  0  0  0  0  0
  162.8850  204.7700  147.8190 C   0  0  0  0  0  2  0  0  0  0  0  0
  160.5250  200.6240  148.7870 C   0  0  0  0  0  1  0  0  0  0  0  0
  159.6870  204.1350  151.9350 O   0  0  0  0  0  1  0  0  0  0  0  0
  161.3040  208.1730  151.4710 C   0  0  0  0  0  0  0  0  0  0  0  0
  161.2790  208.7750  152.7360 C   0  0  0  0  0  0  0  0  0  0  0  0
  160.7310  203.3830  147.5310 C   0  0  0  0  0  2  0  0  0  0  0  0
  161.0630  205.9760  152.5240 C   0  0  0  0  0  0  0  0  0  0  0  0
  161.0900  206.1530  149.9860 C   0  0  1  0  0  3  0  0  0  0  0  0
  162.0350  209.0500  148.0210 O   0  0  0  0  0  0  0  0  0  0  0  0
  162.0630  206.8580  149.0370 C   0  0  1  0  0  3  0  0  0  0  0  0
  162.3320  203.6500  145.6230 C   0  0  0  0  0  1  0  0  0  0  0  0
  161.3970  210.1540  152.8600 O   0  0  0  0  0  1  0  0  0  0  0  0
  161.1730  206.7690  151.3580 C   0  0  0  0  0  0  0  0  0  0  0  0
  162.1890  203.5870  147.1310 C   0  0  1  0  0  3  0  0  0  0  0  0
  161.2580  206.4290  146.6080 C   0  0  0  0  0  0  0  0  0  0  0  0
  161.6580  206.4400  145.2430 N   0  0  0  0  0  1  0  0  0  0  0  0
  160.0480  206.6160  146.9010 O   0  0  0  0  0  0  0  0  0  0  0  0
  1 16  1  6  0  0  0
  1 20  1  0  0  0  0
  2 13  1  0  0  0  0
  3 17  1  0  0  0  0
  5 11  1  0  0  0  0
  5  1  1  0  0  0  0
  6 15  1  6  0  0  0
  6  7  1  0  0  0  0
  7 11  1  0  0  0  0
  9 28  1  1  0  0  0
  9 14  1  0  0  0  0
  9 23  1  0  0  0  0
 10  3  1  0  0  0  0
 11  8  1  6  0  0  0
 12  6  1  0  0  0  0
 17 18  1  0  0  0  0
 18 25  1  0  0  0  0
 18 13  2  0  0  0  0
 19 12  1  0  0  0  0
 20  2  2  0  0  0  0
 21  4  1  6  0  0  0
 21 26  1  0  0  0  0
 22 10  2  0  0  0  0
 23 10  1  6  0  0  0
 23 21  1  0  0  0  0
 26 17  2  0  0  0  0
 26 20  1  0  0  0  0
 27 24  1  6  0  0  0
 27 19  1  0  0  0  0
 27 14  1  0  0  0  0
 28 30  2  0  0  0  0
 29 28  1  0  0  0  0
M  END
>  <MODEL>
1

>  <REMARK>
 VINA RESULT:      -5.3      0.000      0.000
  Name = 
  1 active torsions:
  status: ('A' for Active; 'I' for Inactive)
    1  A    between atoms: C_7  and  C_10
                            x       y       z     vdW  Elec       q    Type
                         _______ _______ _______ _____ _____    ______ ____

>  <TORSDO>
F 1

$$$$
=
 OpenBabel11052422033D

 30 32  0  0  1  0  0  0  0  0999 V2000
  161.9200  207.9930  147.8810 C   0  0  2  0  0  3  0  0  0  0  0  0
  161.9890  209.9660  149.3930 C   0  0  0  0  0  3  0  0  0  0  0  0
  161.5060  207.6080  152.8800 N   0  0  0  0  0  2  0  0  0  0  0  0
  163.0380  205.7950  150.5550 O   0  0  0  0  0  1  0  0  0  0  0  0
  160.7010  207.1080  147.6160 C   0  0  0  0  0  2  0  0  0  0  0  0
  161.3500  204.2510  146.4830 C   0  0  2  0  0  3  0  0  0  0  0  0
  161.6020  205.5830  145.7830 C   0  0  0  0  0  2  0  0  0  0  0  0
  159.3080  206.2410  145.8930 F   0  0  0  0  0  0  0  0  0  0  0  0
  160.4460  204.2180  151.2660 C   0  0  2  0  0  3  0  0  0  0  0  0
  161.0760  206.2480  152.7640 C   0  0  0  0  0  0  0  0  0  0  0  0
  160.5950  206.6720  146.1590 C   0  0  1  0  0  3  0  0  0  0  0  0
  162.0480  204.2530  147.8400 C   0  0  0  0  0  2  0  0  0  0  0  0
  161.9780  210.5690  150.6520 C   0  0  0  0  0  3  0  0  0  0  0  0
  159.7690  203.8830  149.9210 C   0  0  0  0  0  2  0  0  0  0  0  0
  161.9080  203.1410  145.6120 C   0  0  0  0  0  1  0  0  0  0  0  0
  163.1070  207.2780  147.7070 O   0  0  0  0  0  1  0  0  0  0  0  0
  161.7260  208.4020  151.7020 C   0  0  0  0  0  0  0  0  0  0  0  0
  161.8460  209.7940  151.8050 C   0  0  0  0  0  0  0  0  0  0  0  0
  161.8170  202.9760  148.6440 C   0  0  0  0  0  2  0  0  0  0  0  0
  161.8780  208.5780  149.2660 C   0  0  0  0  0  0  0  0  0  0  0  0
  161.7450  206.2800  150.3500 C   0  0  1  0  0  3  0  0  0  0  0  0
  160.8930  205.5520  153.7990 O   0  0  0  0  0  0  0  0  0  0  0  0
  160.7750  205.7130  151.3910 C   0  0  1  0  0  3  0  0  0  0  0  0
  160.1500  201.4010  149.6510 C   0  0  0  0  0  1  0  0  0  0  0  0
  161.8210  210.4120  153.0490 O   0  0  0  0  0  1  0  0  0  0  0  0
  161.7640  207.7840  150.4310 C   0  0  0  0  0  0  0  0  0  0  0  0
  160.3580  202.7720  149.0400 C   0  0  1  0  0  3  0  0  0  0  0  0
  161.4390  203.2450  151.8380 C   0  0  0  0  0  0  0  0  0  0  0  0
  160.9710  202.0440  152.4400 N   0  0  0  0  0  1  0  0  0  0  0  0
  162.6770  203.4700  151.7840 O   0  0  0  0  0  0  0  0  0  0  0  0
  1 16  1  1  0  0  0
  1 20  1  0  0  0  0
  2 13  1  0  0  0  0
  5  1  1  0  0  0  0
  6 15  1  6  0  0  0
  6 12  1  0  0  0  0
  7 11  1  0  0  0  0
  7  6  1  0  0  0  0
  9 23  1  0  0  0  0
  9 28  1  6  0  0  0
 10  3  1  0  0  0  0
 10 22  2  0  0  0  0
 11  8  1  1  0  0  0
 11  5  1  0  0  0  0
 12 19  1  0  0  0  0
 13 18  2  0  0  0  0
 14  9  1  0  0  0  0
 17 18  1  0  0  0  0
 17  3  1  0  0  0  0
 18 25  1  0  0  0  0
 19 27  1  0  0  0  0
 20  2  2  0  0  0  0
 20 26  1  0  0  0  0
 21 26  1  0  0  0  0
 21  4  1  1  0  0  0
 21 23  1  0  0  0  0
 23 10  1  1  0  0  0
 26 17  2  0  0  0  0
 27 24  1  1  0  0  0
 27 14  1  0  0  0  0
 28 29  1  0  0  0  0
 30 28  2  0  0  0  0
M  END
>  <MODEL>
2

>  <REMARK>
 VINA RESULT:      -5.2      2.569      4.805
  Name = 
  1 active torsions:
  status: ('A' for Active; 'I' for Inactive)
    1  A    between atoms: C_7  and  C_10
                            x       y       z     vdW  Elec       q    Type
                         _______ _______ _______ _____ _____    ______ ____

>  <TORSDO>
F 1

$$$$
=
 OpenBabel11052422033D

 30 32  0  0  1  0  0  0  0  0999 V2000
  161.1380  205.4360  154.0120 C   0  0  2  0  0  3  0  0  0  0  0  0
  161.1050  203.5990  152.3370 C   0  0  0  0  0  3  0  0  0  0  0  0
  161.4780  206.2620  149.0620 N   0  0  0  0  0  2  0  0  0  0  0  0
  162.9390  207.6130  151.7220 O   0  0  0  0  0  1  0  0  0  0  0  0
  160.0460  206.4900  154.2100 C   0  0  0  0  0  2  0  0  0  0  0  0
  160.9700  209.1040  155.6850 C   0  0  2  0  0  3  0  0  0  0  0  0
  160.9140  207.6990  156.2790 C   0  0  0  0  0  2  0  0  0  0  0  0
  158.5820  207.4450  155.8240 F   0  0  0  0  0  0  0  0  0  0  0  0
  160.7470  209.6490  150.8540 C   0  0  2  0  0  3  0  0  0  0  0  0
  161.2520  207.6620  149.2550 C   0  0  0  0  0  0  0  0  0  0  0  0
  159.8100  206.8260  155.6790 C   0  0  1  0  0  3  0  0  0  0  0  0
  161.8390  209.0890  154.4310 C   0  0  0  0  0  2  0  0  0  0  0  0
  161.1730  203.1030  151.0330 C   0  0  0  0  0  3  0  0  0  0  0  0
  159.9520  209.9900  152.1310 C   0  0  0  0  0  2  0  0  0  0  0  0
  161.5700  210.0360  156.7220 C   0  0  0  0  0  1  0  0  0  0  0  0
  162.3860  205.9280  154.3990 O   0  0  0  0  0  1  0  0  0  0  0  0
  161.4070  205.3560  150.1750 C   0  0  0  0  0  0  0  0  0  0  0  0
  161.3220  203.9750  149.9530 C   0  0  0  0  0  0  0  0  0  0  0  0
  161.9220  210.4430  153.7320 C   0  0  0  0  0  2  0  0  0  0  0  0
  161.1950  204.9730  152.5830 C   0  0  0  0  0  0  0  0  0  0  0  0
  161.5710  207.3360  151.7180 C   0  0  1  0  0  3  0  0  0  0  0  0
  161.3230  208.4550  148.2780 O   0  0  0  0  0  0  0  0  0  0  0  0
  160.8530  208.1350  150.6260 C   0  0  1  0  0  3  0  0  0  0  0  0
  160.6740  212.3470  152.6850 C   0  0  0  0  0  1  0  0  0  0  0  0
  161.3720  203.4660  148.6620 O   0  0  0  0  0  1  0  0  0  0  0  0
  161.3660  205.8610  151.4950 C   0  0  0  0  0  0  0  0  0  0  0  0
  160.5800  210.9170  153.1820 C   0  0  1  0  0  3  0  0  0  0  0  0
  161.9480  210.4830  150.5060 C   0  0  0  0  0  0  0  0  0  0  0  0
  161.8350  211.4830  149.5000 N   0  0  0  0  0  1  0  0  0  0  0  0
  163.0480  210.3190  151.0940 O   0  0  0  0  0  0  0  0  0  0  0  0
  1  5  1  0  0  0  0
  1 16  1  6  0  0  0
  2 20  1  0  0  0  0
  3 10  1  0  0  0  0
  3 17  1  0  0  0  0
  5 11  1  0  0  0  0
  6  7  1  0  0  0  0
  6 15  1  1  0  0  0
  9 28  1  1  0  0  0
  9 14  1  0  0  0  0
 11  8  1  6  0  0  0
 11  7  1  0  0  0  0
 12  6  1  0  0  0  0
 13  2  2  0  0  0  0
 14 27  1  0  0  0  0
 17 26  1  0  0  0  0
 18 17  2  0  0  0  0
 18 13  1  0  0  0  0
 19 12  1  0  0  0  0
 20  1  1  0  0  0  0
 21  4  1  6  0  0  0
 22 10  2  0  0  0  0
 23 10  1  6  0  0  0
 23  9  1  0  0  0  0
 23 21  1  0  0  0  0
 25 18  1  0  0  0  0
 26 21  1  0  0  0  0
 26 20  2  0  0  0  0
 27 24  1  6  0  0  0
 27 19  1  0  0  0  0
 28 30  2  0  0  0  0
 29 28  1  0  0  0  0
M  END
>  <MODEL>
3

>  <REMARK>
 VINA RESULT:      -2.9      2.734      6.372
  Name = 
  1 active torsions:
  status: ('A' for Active; 'I' for Inactive)
    1  A    between atoms: C_7  and  C_10
                            x       y       z     vdW  Elec       q    Type
                         _______ _______ _______ _____ _____    ______ ____

>  <TORSDO>
F 1

$$$$
