=
 OpenBabel11052422193D

 25 28  0  0  1  0  0  0  0  0999 V2000
  161.3790  206.1140  149.8280 C   0  0  0  0  0  0  0  0  0  0  0  0
  161.5690  207.3100  150.5470 C   0  0  0  0  0  0  0  0  0  0  0  0
  161.3740  207.3190  147.7670 N   0  0  0  0  0  0  0  0  0  0  0  0
  161.2540  204.7940  150.3050 C   0  0  0  0  0  0  0  0  0  0  0  0
  160.9330  208.3420  152.7550 C   0  0  2  0  0  3  0  0  0  0  0  0
  160.9610  202.0690  150.8650 C   0  0  0  0  0  3  0  0  0  0  0  0
  161.5580  208.4620  148.4280 N   0  0  0  0  0  0  0  0  0  0  0  0
  161.0720  203.8650  149.2800 C   0  0  0  0  0  0  0  0  0  0  0  0
  160.9230  202.5030  149.5330 C   0  0  0  0  0  3  0  0  0  0  0  0
  161.7940  209.9000  150.4260 C   0  0  2  0  0  3  0  0  0  0  0  0
  162.3830  210.9220  149.4650 C   0  0  0  0  0  1  0  0  0  0  0  0
  161.7210  207.2490  152.0460 C   0  0  0  0  0  2  0  0  0  0  0  0
  161.1410  202.9920  151.9110 C   0  0  0  0  0  3  0  0  0  0  0  0
  161.2880  206.1580  148.4460 C   0  0  0  0  0  0  0  0  0  0  0  0
  161.0590  204.6290  147.7780 S   0  0  0  0  0  0  0  0  0  0  0  0
  162.6180  209.9250  151.7040 C   0  0  0  0  0  2  0  0  0  0  0  0
  161.2880  204.3600  151.6350 C   0  0  0  0  0  3  0  0  0  0  0  0
  161.7460  209.6250  152.9190 C   0  0  0  0  0  2  0  0  0  0  0  0
  161.6840  208.5210  149.7920 C   0  0  0  0  0  0  0  0  0  0  0  0
  160.3040  207.8860  154.0800 C   0  0  0  0  0  2  0  0  0  0  0  0
  159.3560  209.6310  155.6740 C   0  0  0  0  0  1  0  0  0  0  0  0
  160.5490  208.7600  155.3210 C   0  0  1  0  0  3  0  0  0  0  0  0
  161.0840  208.0170  156.5040 C   0  0  0  0  0  0  0  0  0  0  0  0
  160.3500  206.9910  157.0880 O   0  0  0  0  0  1  0  0  0  0  0  0
  162.2230  208.3010  156.9540 O   0  0  0  0  0  0  0  0  0  0  0  0
  1  4  1  0  0  0  0
  1  2  1  0  0  0  0
  2 12  1  0  0  0  0
  3  7  2  0  0  0  0
  3 14  1  0  0  0  0
  4 17  1  0  0  0  0
  5 18  1  0  0  0  0
  5 20  1  1  0  0  0
  6 13  1  0  0  0  0
  7 19  1  0  0  0  0
  8  9  1  0  0  0  0
  8  4  2  0  0  0  0
  9  6  2  0  0  0  0
 10 11  1  6  0  0  0
 10 16  1  0  0  0  0
 12  5  1  0  0  0  0
 14  1  2  0  0  0  0
 15 14  1  0  0  0  0
 15  8  1  0  0  0  0
 16 18  1  0  0  0  0
 17 13  2  0  0  0  0
 19 10  1  0  0  0  0
 19  2  2  0  0  0  0
 20 22  1  0  0  0  0
 22 21  1  1  0  0  0
 22 23  1  0  0  0  0
 23 25  2  0  0  0  0
 23 24  1  0  0  0  0
M  END
>  <MODEL>
1

>  <REMARK>
 VINA RESULT:      -8.9      0.000      0.000
  Name = 
  3 active torsions:
  status: ('A' for Active; 'I' for Inactive)
    1  A    between atoms: C_2  and  C_25
    2  A    between atoms: C_6  and  C_15
    3  A    between atoms: C_15  and  C_25
                            x       y       z     vdW  Elec       q    Type
                         _______ _______ _______ _____ _____    ______ ____

>  <TORSDO>
F 3

$$$$
=
 OpenBabel11052422193D

 25 28  0  0  1  0  0  0  0  0999 V2000
  161.2940  205.9120  151.3880 C   0  0  0  0  0  0  0  0  0  0  0  0
  161.2990  204.9710  150.3400 C   0  0  0  0  0  0  0  0  0  0  0  0
  160.6460  204.2210  152.9430 N   0  0  0  0  0  0  0  0  0  0  0  0
  161.5820  207.2920  151.3520 C   0  0  0  0  0  0  0  0  0  0  0  0
  160.8050  204.8440  147.8730 C   0  0  2  0  0  3  0  0  0  0  0  0
  162.0720  210.0270  151.6760 C   0  0  0  0  0  3  0  0  0  0  0  0
  160.6490  203.3130  151.9670 N   0  0  0  0  0  0  0  0  0  0  0  0
  161.4680  207.8990  152.6030 C   0  0  0  0  0  0  0  0  0  0  0  0
  161.7060  209.2580  152.7910 C   0  0  0  0  0  3  0  0  0  0  0  0
  160.8510  202.5040  149.6390 C   0  0  2  0  0  3  0  0  0  0  0  0
  160.9990  201.1250  150.2650 C   0  0  0  0  0  1  0  0  0  0  0  0
  161.7100  205.4130  148.9580 C   0  0  0  0  0  2  0  0  0  0  0  0
  162.1900  209.4310  150.4080 C   0  0  0  0  0  3  0  0  0  0  0  0
  160.9660  205.5010  152.6690 C   0  0  0  0  0  0  0  0  0  0  0  0
  161.0150  206.7730  153.7730 S   0  0  0  0  0  0  0  0  0  0  0  0
  161.8450  202.6110  148.4920 C   0  0  0  0  0  2  0  0  0  0  0  0
  161.9450  208.0590  150.2390 C   0  0  0  0  0  3  0  0  0  0  0  0
  161.2900  203.4840  147.3720 C   0  0  0  0  0  2  0  0  0  0  0  0
  160.9830  203.6140  150.6720 C   0  0  0  0  0  0  0  0  0  0  0  0
  160.5390  205.8220  146.7190 C   0  0  0  0  0  2  0  0  0  0  0  0
  162.9240  205.3320  145.9730 C   0  0  0  0  0  1  0  0  0  0  0  0
  161.5570  205.8540  145.5670 C   0  0  1  0  0  3  0  0  0  0  0  0
  161.0680  205.2400  144.2930 C   0  0  0  0  0  0  0  0  0  0  0  0
  161.4650  205.7490  143.0620 O   0  0  0  0  0  0  0  0  0  0  0  0
  160.3170  204.2330  144.3370 O   0  0  0  0  0  1  0  0  0  0  0  0
  1 14  2  0  0  0  0
  2 19  2  0  0  0  0
  2  1  1  0  0  0  0
  4  1  1  0  0  0  0
  4  8  1  0  0  0  0
  5 20  1  6  0  0  0
  5 12  1  0  0  0  0
  6  9  1  0  0  0  0
  7  3  2  0  0  0  0
  8  9  2  0  0  0  0
  8 15  1  0  0  0  0
 10 11  1  1  0  0  0
 10 19  1  0  0  0  0
 12  2  1  0  0  0  0
 13  6  2  0  0  0  0
 14  3  1  0  0  0  0
 14 15  1  0  0  0  0
 16 10  1  0  0  0  0
 17 13  1  0  0  0  0
 17  4  2  0  0  0  0
 18  5  1  0  0  0  0
 18 16  1  0  0  0  0
 19  7  1  0  0  0  0
 22 21  1  1  0  0  0
 22 20  1  0  0  0  0
 23 25  1  0  0  0  0
 23 22  1  0  0  0  0
 24 23  2  0  0  0  0
M  END
>  <MODEL>
2

>  <REMARK>
 VINA RESULT:      -8.1      4.649      7.869
  Name = 
  3 active torsions:
  status: ('A' for Active; 'I' for Inactive)
    1  A    between atoms: C_2  and  C_25
    2  A    between atoms: C_6  and  C_15
    3  A    between atoms: C_15  and  C_25
                            x       y       z     vdW  Elec       q    Type
                         _______ _______ _______ _____ _____    ______ ____

>  <TORSDO>
F 3

$$$$
=
 OpenBabel11052422193D

 25 28  0  0  1  0  0  0  0  0999 V2000
  161.1880  204.8000  148.7420 C   0  0  0  0  0  0  0  0  0  0  0  0
  161.2060  205.8390  149.6930 C   0  0  0  0  0  0  0  0  0  0  0  0
  161.5030  203.1790  150.4670 N   0  0  0  0  0  0  0  0  0  0  0  0
  161.0380  204.8710  147.3430 C   0  0  0  0  0  0  0  0  0  0  0  0
  161.9460  208.2380  149.8980 C   0  0  2  0  0  3  0  0  0  0  0  0
  160.7780  204.6090  144.5700 C   0  0  0  0  0  3  0  0  0  0  0  0
  161.5180  204.1470  151.3830 N   0  0  0  0  0  0  0  0  0  0  0  0
  161.0750  203.6160  146.7330 C   0  0  0  0  0  0  0  0  0  0  0  0
  160.9480  203.4600  145.3550 C   0  0  0  0  0  3  0  0  0  0  0  0
  161.4890  206.4810  152.2000 C   0  0  2  0  0  3  0  0  0  0  0  0
  161.1450  205.8700  153.5500 C   0  0  0  0  0  1  0  0  0  0  0  0
  160.9880  207.2590  149.2320 C   0  0  0  0  0  2  0  0  0  0  0  0
  160.7400  205.8810  145.1680 C   0  0  0  0  0  3  0  0  0  0  0  0
  161.3370  203.4900  149.1650 C   0  0  0  0  0  0  0  0  0  0  0  0
  161.2910  202.4020  147.8800 S   0  0  0  0  0  0  0  0  0  0  0  0
  160.6390  207.7280  152.0150 C   0  0  0  0  0  2  0  0  0  0  0  0
  160.8700  206.0180  146.5600 C   0  0  0  0  0  3  0  0  0  0  0  0
  161.3900  208.7850  151.2130 C   0  0  0  0  0  2  0  0  0  0  0  0
  161.3550  205.4720  151.0690 C   0  0  0  0  0  0  0  0  0  0  0  0
  162.4240  209.3600  148.9650 C   0  0  0  0  0  2  0  0  0  0  0  0
  161.9600  211.3610  150.4700 C   0  0  0  0  0  1  0  0  0  0  0  0
  161.7490  210.7350  149.1030 C   0  0  1  0  0  3  0  0  0  0  0  0
  162.0510  211.6860  147.9880 C   0  0  0  0  0  0  0  0  0  0  0  0
  161.0510  212.0900  147.1110 O   0  0  0  0  0  0  0  0  0  0  0  0
  163.2130  212.1500  147.8630 O   0  0  0  0  0  1  0  0  0  0  0  0
  1 14  1  0  0  0  0
  1  2  2  0  0  0  0
  2 19  1  0  0  0  0
  3  7  1  0  0  0  0
  4  1  1  0  0  0  0
  5 20  1  6  0  0  0
  5 18  1  0  0  0  0
  6 13  2  0  0  0  0
  6  9  1  0  0  0  0
  8  4  1  0  0  0  0
  8 15  1  0  0  0  0
  9  8  2  0  0  0  0
 10 11  1  1  0  0  0
 12  2  1  0  0  0  0
 12  5  1  0  0  0  0
 13 17  1  0  0  0  0
 14  3  2  0  0  0  0
 15 14  1  0  0  0  0
 16 10  1  0  0  0  0
 17  4  2  0  0  0  0
 18 16  1  0  0  0  0
 19  7  2  0  0  0  0
 19 10  1  0  0  0  0
 20 22  1  0  0  0  0
 22 21  1  1  0  0  0
 23 22  1  0  0  0  0
 24 23  2  0  0  0  0
 25 23  1  0  0  0  0
M  END
>  <MODEL>
3

>  <REMARK>
 VINA RESULT:      -7.8      3.756      5.506
  Name = 
  3 active torsions:
  status: ('A' for Active; 'I' for Inactive)
    1  A    between atoms: C_2  and  C_25
    2  A    between atoms: C_6  and  C_15
    3  A    between atoms: C_15  and  C_25
                            x       y       z     vdW  Elec       q    Type
                         _______ _______ _______ _____ _____    ______ ____

>  <TORSDO>
F 3

$$$$
=
 OpenBabel11052422193D

 25 28  0  0  1  0  0  0  0  0999 V2000
  161.2040  206.0660  151.1840 C   0  0  0  0  0  0  0  0  0  0  0  0
  161.1470  207.4390  151.4910 C   0  0  0  0  0  0  0  0  0  0  0  0
  161.4200  205.5280  153.5010 N   0  0  0  0  0  0  0  0  0  0  0  0
  161.1470  205.4270  149.9290 C   0  0  0  0  0  0  0  0  0  0  0  0
  161.8450  209.6540  150.5150 C   0  0  2  0  0  3  0  0  0  0  0  0
  161.0760  203.8140  147.6450 C   0  0  0  0  0  3  0  0  0  0  0  0
  161.3640  206.8230  153.8130 N   0  0  0  0  0  0  0  0  0  0  0  0
  161.2380  204.0380  150.0270 C   0  0  0  0  0  0  0  0  0  0  0  0
  161.2060  203.2130  148.9050 C   0  0  0  0  0  3  0  0  0  0  0  0
  161.2550  209.2510  153.3570 C   0  0  2  0  0  3  0  0  0  0  0  0
  160.8280  209.3760  154.8130 C   0  0  0  0  0  1  0  0  0  0  0  0
  160.9450  208.4330  150.3750 C   0  0  0  0  0  2  0  0  0  0  0  0
  160.9840  205.2130  147.5280 C   0  0  0  0  0  3  0  0  0  0  0  0
  161.3380  205.1450  152.2100 C   0  0  0  0  0  0  0  0  0  0  0  0
  161.3910  203.5620  151.6370 S   0  0  0  0  0  0  0  0  0  0  0  0
  160.4050  210.2050  152.5330 C   0  0  0  0  0  2  0  0  0  0  0  0
  161.0200  206.0260  148.6720 C   0  0  0  0  0  3  0  0  0  0  0  0
  161.1970  210.7560  151.3510 C   0  0  0  0  0  2  0  0  0  0  0  0
  161.2070  207.8090  152.8730 C   0  0  0  0  0  0  0  0  0  0  0  0
  162.3730  210.1850  149.1740 C   0  0  0  0  0  2  0  0  0  0  0  0
  163.5800  212.2330  148.2610 C   0  0  0  0  0  1  0  0  0  0  0  0
  162.3310  211.7050  148.9450 C   0  0  1  0  0  3  0  0  0  0  0  0
  161.0750  212.1980  148.3010 C   0  0  0  0  0  0  0  0  0  0  0  0
  160.2410  213.0910  148.9630 O   0  0  0  0  0  1  0  0  0  0  0  0
  160.7870  211.8270  147.1340 O   0  0  0  0  0  0  0  0  0  0  0  0
  1  2  2  0  0  0  0
  1 14  1  0  0  0  0
  2 19  1  0  0  0  0
  3  7  1  0  0  0  0
  4  8  1  0  0  0  0
  4  1  1  0  0  0  0
  5 20  1  6  0  0  0
  5 18  1  0  0  0  0
  6  9  1  0  0  0  0
  8 15  1  0  0  0  0
  9  8  2  0  0  0  0
 10 11  1  1  0  0  0
 12  5  1  0  0  0  0
 12  2  1  0  0  0  0
 13  6  2  0  0  0  0
 13 17  1  0  0  0  0
 14  3  2  0  0  0  0
 15 14  1  0  0  0  0
 16 10  1  0  0  0  0
 17  4  2  0  0  0  0
 18 16  1  0  0  0  0
 19 10  1  0  0  0  0
 19  7  2  0  0  0  0
 22 21  1  6  0  0  0
 22 20  1  0  0  0  0
 23 22  1  0  0  0  0
 23 24  1  0  0  0  0
 25 23  2  0  0  0  0
M  END
>  <MODEL>
4

>  <REMARK>
 VINA RESULT:      -7.7      3.529      5.265
  Name = 
  3 active torsions:
  status: ('A' for Active; 'I' for Inactive)
    1  A    between atoms: C_2  and  C_25
    2  A    between atoms: C_6  and  C_15
    3  A    between atoms: C_15  and  C_25
                            x       y       z     vdW  Elec       q    Type
                         _______ _______ _______ _____ _____    ______ ____

>  <TORSDO>
F 3

$$$$
=
 OpenBabel11052422193D

 25 28  0  0  1  0  0  0  0  0999 V2000
  161.1500  206.1340  150.9520 C   0  0  0  0  0  0  0  0  0  0  0  0
  161.0740  207.3360  151.6810 C   0  0  0  0  0  0  0  0  0  0  0  0
  161.2560  204.8770  152.9790 N   0  0  0  0  0  0  0  0  0  0  0  0
  161.1560  205.9330  149.5570 C   0  0  0  0  0  0  0  0  0  0  0  0
  161.8110  209.7380  151.5030 C   0  0  2  0  0  3  0  0  0  0  0  0
  161.2010  205.1420  146.8740 C   0  0  0  0  0  3  0  0  0  0  0  0
  161.1800  206.0030  153.6880 N   0  0  0  0  0  0  0  0  0  0  0  0
  161.2470  204.5850  149.2060 C   0  0  0  0  0  0  0  0  0  0  0  0
  161.2720  204.1660  147.8780 C   0  0  0  0  0  3  0  0  0  0  0  0
  161.0850  208.4500  154.0340 C   0  0  2  0  0  3  0  0  0  0  0  0
  160.5880  208.1050  155.4300 C   0  0  0  0  0  1  0  0  0  0  0  0
  160.9230  208.6390  150.9360 C   0  0  0  0  0  2  0  0  0  0  0  0
  161.1100  206.5040  147.2090 C   0  0  0  0  0  3  0  0  0  0  0  0
  161.2380  204.9310  151.6320 C   0  0  0  0  0  0  0  0  0  0  0  0
  161.3230  203.6150  150.5820 S   0  0  0  0  0  0  0  0  0  0  0  0
  160.2730  209.6290  153.5210 C   0  0  0  0  0  2  0  0  0  0  0  0
  161.0880  206.9070  148.5540 C   0  0  0  0  0  3  0  0  0  0  0  0
  161.1200  210.5210  152.6190 C   0  0  0  0  0  2  0  0  0  0  0  0
  161.0660  207.2410  153.1100 C   0  0  0  0  0  0  0  0  0  0  0  0
  162.4020  210.6650  150.4300 C   0  0  0  0  0  2  0  0  0  0  0  0
  160.8480  212.6770  150.2640 C   0  0  0  0  0  1  0  0  0  0  0  0
  161.4160  211.4580  149.5560 C   0  0  1  0  0  3  0  0  0  0  0  0
  161.9240  211.7790  148.1870 C   0  0  0  0  0  0  0  0  0  0  0  0
  161.0420  212.0050  147.1370 O   0  0  0  0  0  0  0  0  0  0  0  0
  163.1630  211.8790  147.9910 O   0  0  0  0  0  1  0  0  0  0  0  0
  1 14  1  0  0  0  0
  1  2  2  0  0  0  0
  2 19  1  0  0  0  0
  3  7  1  0  0  0  0
  4  1  1  0  0  0  0
  5 20  1  6  0  0  0
  5 18  1  0  0  0  0
  6 13  2  0  0  0  0
  6  9  1  0  0  0  0
  8  4  1  0  0  0  0
  8 15  1  0  0  0  0
  9  8  2  0  0  0  0
 10 11  1  1  0  0  0
 12  5  1  0  0  0  0
 12  2  1  0  0  0  0
 13 17  1  0  0  0  0
 14  3  2  0  0  0  0
 15 14  1  0  0  0  0
 16 10  1  0  0  0  0
 17  4  2  0  0  0  0
 18 16  1  0  0  0  0
 19  7  2  0  0  0  0
 19 10  1  0  0  0  0
 22 21  1  1  0  0  0
 22 20  1  0  0  0  0
 23 22  1  0  0  0  0
 24 23  2  0  0  0  0
 25 23  1  0  0  0  0
M  END
>  <MODEL>
5

>  <REMARK>
 VINA RESULT:      -7.7      3.581      5.209
  Name = 
  3 active torsions:
  status: ('A' for Active; 'I' for Inactive)
    1  A    between atoms: C_2  and  C_25
    2  A    between atoms: C_6  and  C_15
    3  A    between atoms: C_15  and  C_25
                            x       y       z     vdW  Elec       q    Type
                         _______ _______ _______ _____ _____    ______ ____

>  <TORSDO>
F 3

$$$$
=
 OpenBabel11052422193D

 25 28  0  0  1  0  0  0  0  0999 V2000
  161.0960  203.8200  148.1550 C   0  0  0  0  0  0  0  0  0  0  0  0
  161.0890  204.3430  149.4630 C   0  0  0  0  0  0  0  0  0  0  0  0
  160.9860  201.5940  149.0140 N   0  0  0  0  0  0  0  0  0  0  0  0
  161.1550  204.4980  146.9210 C   0  0  0  0  0  0  0  0  0  0  0  0
  162.0450  206.2800  150.7580 C   0  0  2  0  0  3  0  0  0  0  0  0
  161.2650  205.4770  144.3030 C   0  0  0  0  0  3  0  0  0  0  0  0
  160.9750  202.0700  150.2600 N   0  0  0  0  0  0  0  0  0  0  0  0
  161.1440  203.6300  145.8280 C   0  0  0  0  0  0  0  0  0  0  0  0
  161.1980  204.0920  144.5160 C   0  0  0  0  0  3  0  0  0  0  0  0
  161.0800  203.8120  152.0110 C   0  0  2  0  0  3  0  0  0  0  0  0
  160.4840  202.7510  152.9240 C   0  0  0  0  0  1  0  0  0  0  0  0
  161.0930  205.8390  149.6550 C   0  0  0  0  0  2  0  0  0  0  0  0
  161.2790  206.3650  145.3930 C   0  0  0  0  0  3  0  0  0  0  0  0
  161.0420  202.4480  147.9720 C   0  0  0  0  0  0  0  0  0  0  0  0
  161.0630  202.0270  146.3410 S   0  0  0  0  0  0  0  0  0  0  0  0
  160.4030  205.1380  152.3230 C   0  0  0  0  0  2  0  0  0  0  0  0
  161.2240  205.8790  146.7090 C   0  0  0  0  0  3  0  0  0  0  0  0
  161.3700  206.3010  152.1290 C   0  0  0  0  0  2  0  0  0  0  0  0
  161.0000  203.4100  150.5460 C   0  0  0  0  0  0  0  0  0  0  0  0
  162.7690  207.6000  150.4540 C   0  0  0  0  0  2  0  0  0  0  0  0
  162.3020  209.7560  151.7270 C   0  0  0  0  0  1  0  0  0  0  0  0
  161.9440  208.8960  150.5270 C   0  0  1  0  0  3  0  0  0  0  0  0
  161.9110  209.6790  149.2530 C   0  0  0  0  0  0  0  0  0  0  0  0
  162.0710  211.0600  149.2650 O   0  0  0  0  0  1  0  0  0  0  0  0
  161.7700  209.0790  148.1570 O   0  0  0  0  0  0  0  0  0  0  0  0
  1  2  2  0  0  0  0
  2 12  1  0  0  0  0
  2 19  1  0  0  0  0
  3  7  1  0  0  0  0
  4  1  1  0  0  0  0
  5 20  1  6  0  0  0
  5 18  1  0  0  0  0
  6  9  2  0  0  0  0
  6 13  1  0  0  0  0
  7 19  2  0  0  0  0
  8 15  1  0  0  0  0
  8  4  2  0  0  0  0
  9  8  1  0  0  0  0
 10 16  1  0  0  0  0
 10 11  1  1  0  0  0
 12  5  1  0  0  0  0
 13 17  2  0  0  0  0
 14  1  1  0  0  0  0
 14  3  2  0  0  0  0
 15 14  1  0  0  0  0
 17  4  1  0  0  0  0
 18 16  1  0  0  0  0
 19 10  1  0  0  0  0
 20 22  1  0  0  0  0
 22 21  1  1  0  0  0
 23 24  1  0  0  0  0
 23 22  1  0  0  0  0
 25 23  2  0  0  0  0
M  END
>  <MODEL>
6

>  <REMARK>
 VINA RESULT:      -7.5      3.612      5.648
  Name = 
  3 active torsions:
  status: ('A' for Active; 'I' for Inactive)
    1  A    between atoms: C_2  and  C_25
    2  A    between atoms: C_6  and  C_15
    3  A    between atoms: C_15  and  C_25
                            x       y       z     vdW  Elec       q    Type
                         _______ _______ _______ _____ _____    ______ ____

>  <TORSDO>
F 3

$$$$
=
 OpenBabel11052422193D

 25 28  0  0  1  0  0  0  0  0999 V2000
  161.2840  204.7080  150.7340 C   0  0  0  0  0  0  0  0  0  0  0  0
  161.4550  206.0060  150.2160 C   0  0  0  0  0  0  0  0  0  0  0  0
  161.8990  205.4650  152.9140 N   0  0  0  0  0  0  0  0  0  0  0  0
  160.8980  203.5250  150.0730 C   0  0  0  0  0  0  0  0  0  0  0  0
  162.2010  207.1420  148.0950 C   0  0  2  0  0  3  0  0  0  0  0  0
  160.1720  200.9970  149.1190 C   0  0  0  0  0  3  0  0  0  0  0  0
  162.0620  206.7020  152.4440 N   0  0  0  0  0  0  0  0  0  0  0  0
  160.8400  202.4230  150.9280 C   0  0  0  0  0  0  0  0  0  0  0  0
  160.4820  201.1550  150.4780 C   0  0  0  0  0  3  0  0  0  0  0  0
  162.1550  208.4640  150.7110 C   0  0  2  0  0  3  0  0  0  0  0  0
  162.0500  209.4380  151.8760 C   0  0  0  0  0  1  0  0  0  0  0  0
  161.1520  206.2620  148.7610 C   0  0  0  0  0  2  0  0  0  0  0  0
  160.2270  202.0960  148.2430 C   0  0  0  0  0  3  0  0  0  0  0  0
  161.5120  204.4780  152.0810 C   0  0  0  0  0  0  0  0  0  0  0  0
  161.2570  202.8660  152.4990 S   0  0  0  0  0  0  0  0  0  0  0  0
  161.2760  208.9810  149.5830 C   0  0  0  0  0  2  0  0  0  0  0  0
  160.5910  203.3660  148.7170 C   0  0  0  0  0  3  0  0  0  0  0  0
  161.8730  208.6290  148.2240 C   0  0  0  0  0  2  0  0  0  0  0  0
  161.8380  207.0370  151.1330 C   0  0  0  0  0  0  0  0  0  0  0  0
  162.5060  206.7440  146.6430 C   0  0  0  0  0  2  0  0  0  0  0  0
  160.7780  206.1670  144.8640 C   0  0  0  0  0  1  0  0  0  0  0  0
  161.6320  205.6490  146.0090 C   0  0  1  0  0  3  0  0  0  0  0  0
  162.3700  204.3990  145.6500 C   0  0  0  0  0  0  0  0  0  0  0  0
  161.6810  203.2480  145.2850 O   0  0  0  0  0  0  0  0  0  0  0  0
  163.6280  204.3990  145.6450 O   0  0  0  0  0  1  0  0  0  0  0  0
  1 14  1  0  0  0  0
  2  1  2  0  0  0  0
  2 19  1  0  0  0  0
  4  1  1  0  0  0  0
  4  8  1  0  0  0  0
  5 20  1  6  0  0  0
  5 18  1  0  0  0  0
  5 12  1  0  0  0  0
  6  9  1  0  0  0  0
  7  3  1  0  0  0  0
  8 15  1  0  0  0  0
  9  8  2  0  0  0  0
 10 19  1  0  0  0  0
 10 11  1  1  0  0  0
 12  2  1  0  0  0  0
 13 17  1  0  0  0  0
 13  6  2  0  0  0  0
 14 15  1  0  0  0  0
 14  3  2  0  0  0  0
 16 10  1  0  0  0  0
 17  4  2  0  0  0  0
 18 16  1  0  0  0  0
 19  7  2  0  0  0  0
 22 21  1  6  0  0  0
 22 20  1  0  0  0  0
 23 22  1  0  0  0  0
 24 23  2  0  0  0  0
 25 23  1  0  0  0  0
M  END
>  <MODEL>
7

>  <REMARK>
 VINA RESULT:      -7.4      4.243      6.130
  Name = 
  3 active torsions:
  status: ('A' for Active; 'I' for Inactive)
    1  A    between atoms: C_2  and  C_25
    2  A    between atoms: C_6  and  C_15
    3  A    between atoms: C_15  and  C_25
                            x       y       z     vdW  Elec       q    Type
                         _______ _______ _______ _____ _____    ______ ____

>  <TORSDO>
F 3

$$$$
=
 OpenBabel11052422193D

 25 28  0  0  1  0  0  0  0  0999 V2000
  161.0970  203.0220  149.2950 C   0  0  0  0  0  0  0  0  0  0  0  0
  161.1020  204.3990  149.5890 C   0  0  0  0  0  0  0  0  0  0  0  0
  161.4970  202.5010  151.5910 N   0  0  0  0  0  0  0  0  0  0  0  0
  160.9170  202.3720  148.0570 C   0  0  0  0  0  0  0  0  0  0  0  0
  161.7710  206.5850  148.5300 C   0  0  2  0  0  3  0  0  0  0  0  0
  160.6090  200.7400  145.8060 C   0  0  0  0  0  3  0  0  0  0  0  0
  161.5000  203.7990  151.8910 N   0  0  0  0  0  0  0  0  0  0  0  0
  160.9810  200.9820  148.1630 C   0  0  0  0  0  0  0  0  0  0  0  0
  160.8310  200.1480  147.0580 C   0  0  0  0  0  3  0  0  0  0  0  0
  161.4150  206.2250  151.4170 C   0  0  2  0  0  3  0  0  0  0  0  0
  161.1180  206.3760  152.9020 C   0  0  0  0  0  1  0  0  0  0  0  0
  160.8310  205.3870  148.4820 C   0  0  0  0  0  2  0  0  0  0  0  0
  160.5440  202.1390  145.6810 C   0  0  0  0  0  3  0  0  0  0  0  0
  161.2950  202.1080  150.3170 C   0  0  0  0  0  0  0  0  0  0  0  0
  161.2580  200.5180  149.7590 S   0  0  0  0  0  0  0  0  0  0  0  0
  160.5230  207.1930  150.6570 C   0  0  0  0  0  2  0  0  0  0  0  0
  160.6980  202.9630  146.8080 C   0  0  0  0  0  3  0  0  0  0  0  0
  161.2250  207.7120  149.4060 C   0  0  0  0  0  2  0  0  0  0  0  0
  161.2890  204.7800  150.9560 C   0  0  0  0  0  0  0  0  0  0  0  0
  162.1950  207.0880  147.1430 C   0  0  0  0  0  2  0  0  0  0  0  0
  163.1340  204.7730  146.6460 C   0  0  0  0  0  1  0  0  0  0  0  0
  162.5090  206.0320  146.0690 C   0  0  1  0  0  3  0  0  0  0  0  0
  161.3720  205.7330  145.1460 C   0  0  0  0  0  0  0  0  0  0  0  0
  160.0930  206.2030  145.4200 O   0  0  0  0  0  1  0  0  0  0  0  0
  161.5810  205.0780  144.0930 O   0  0  0  0  0  0  0  0  0  0  0  0
  1  2  2  0  0  0  0
  1 14  1  0  0  0  0
  2 19  1  0  0  0  0
  3  7  1  0  0  0  0
  4  8  1  0  0  0  0
  4  1  1  0  0  0  0
  5 20  1  6  0  0  0
  5 18  1  0  0  0  0
  6  9  1  0  0  0  0
  8 15  1  0  0  0  0
  9  8  2  0  0  0  0
 10 11  1  1  0  0  0
 12  5  1  0  0  0  0
 12  2  1  0  0  0  0
 13  6  2  0  0  0  0
 13 17  1  0  0  0  0
 14  3  2  0  0  0  0
 15 14  1  0  0  0  0
 16 10  1  0  0  0  0
 17  4  2  0  0  0  0
 18 16  1  0  0  0  0
 19 10  1  0  0  0  0
 19  7  2  0  0  0  0
 22 21  1  1  0  0  0
 22 20  1  0  0  0  0
 23 24  1  0  0  0  0
 23 22  1  0  0  0  0
 25 23  2  0  0  0  0
M  END
>  <MODEL>
8

>  <REMARK>
 VINA RESULT:      -7.4      4.449      6.649
  Name = 
  3 active torsions:
  status: ('A' for Active; 'I' for Inactive)
    1  A    between atoms: C_2  and  C_25
    2  A    between atoms: C_6  and  C_15
    3  A    between atoms: C_15  and  C_25
                            x       y       z     vdW  Elec       q    Type
                         _______ _______ _______ _____ _____    ______ ____

>  <TORSDO>
F 3

$$$$
=
 OpenBabel11052422193D

 25 28  0  0  1  0  0  0  0  0999 V2000
  161.2970  208.4740  153.1390 C   0  0  0  0  0  0  0  0  0  0  0  0
  161.2030  207.7220  151.9520 C   0  0  0  0  0  0  0  0  0  0  0  0
  162.4490  210.2140  151.9790 N   0  0  0  0  0  0  0  0  0  0  0  0
  160.8370  208.1630  154.4340 C   0  0  0  0  0  0  0  0  0  0  0  0
  161.2080  205.3180  151.1990 C   0  0  2  0  0  3  0  0  0  0  0  0
  160.0800  207.9000  157.1150 C   0  0  0  0  0  3  0  0  0  0  0  0
  162.3670  209.5200  150.8440 N   0  0  0  0  0  0  0  0  0  0  0  0
  161.1200  209.1650  155.3630 C   0  0  0  0  0  0  0  0  0  0  0  0
  160.7550  209.0580  156.7020 C   0  0  0  0  0  3  0  0  0  0  0  0
  161.8090  207.5720  149.4250 C   0  0  2  0  0  3  0  0  0  0  0  0
  161.9630  208.5380  148.2590 C   0  0  0  0  0  1  0  0  0  0  0  0
  160.4730  206.4020  151.9760 C   0  0  0  0  0  2  0  0  0  0  0  0
  159.7890  206.8790  156.1920 C   0  0  0  0  0  3  0  0  0  0  0  0
  161.9230  209.7090  153.1130 C   0  0  0  0  0  0  0  0  0  0  0  0
  161.9350  210.4450  154.6280 S   0  0  0  0  0  0  0  0  0  0  0  0
  160.6020  206.6890  149.1490 C   0  0  0  0  0  2  0  0  0  0  0  0
  160.1660  207.0060  154.8460 C   0  0  0  0  0  3  0  0  0  0  0  0
  160.8080  205.2920  149.7250 C   0  0  0  0  0  2  0  0  0  0  0  0
  161.7470  208.3000  150.7610 C   0  0  0  0  0  0  0  0  0  0  0  0
  161.1140  203.9280  151.8460 C   0  0  0  0  0  2  0  0  0  0  0  0
  162.4190  201.7470  152.0100 C   0  0  0  0  0  1  0  0  0  0  0  0
  161.7430  202.7470  151.0880 C   0  0  1  0  0  3  0  0  0  0  0  0
  160.8310  202.0890  150.1020 C   0  0  0  0  0  0  0  0  0  0  0  0
  161.0080  202.2760  148.7360 O   0  0  0  0  0  0  0  0  0  0  0  0
  159.9150  201.3310  150.5120 O   0  0  0  0  0  1  0  0  0  0  0  0
  1  4  1  0  0  0  0
  2 12  1  0  0  0  0
  2  1  1  0  0  0  0
  3 14  1  0  0  0  0
  4 17  2  0  0  0  0
  4  8  1  0  0  0  0
  5 20  1  1  0  0  0
  5 12  1  0  0  0  0
  7  3  2  0  0  0  0
  8  9  2  0  0  0  0
  9  6  1  0  0  0  0
 10 11  1  6  0  0  0
 10 19  1  0  0  0  0
 13  6  2  0  0  0  0
 14  1  2  0  0  0  0
 14 15  1  0  0  0  0
 15  8  1  0  0  0  0
 16 10  1  0  0  0  0
 16 18  1  0  0  0  0
 17 13  1  0  0  0  0
 18  5  1  0  0  0  0
 19  7  1  0  0  0  0
 19  2  2  0  0  0  0
 22 20  1  0  0  0  0
 22 21  1  1  0  0  0
 23 25  1  0  0  0  0
 23 22  1  0  0  0  0
 24 23  2  0  0  0  0
M  END
>  <MODEL>
9

>  <REMARK>
 VINA RESULT:      -6.8      3.486      6.296
  Name = 
  3 active torsions:
  status: ('A' for Active; 'I' for Inactive)
    1  A    between atoms: C_2  and  C_25
    2  A    between atoms: C_6  and  C_15
    3  A    between atoms: C_15  and  C_25
                            x       y       z     vdW  Elec       q    Type
                         _______ _______ _______ _____ _____    ______ ____

>  <TORSDO>
F 3

$$$$
