=
 OpenBabel11062408513D

 55 63  0  0  1  0  0  0  0  0999 V2000
  159.1910  210.9700  150.8640 C   0  0  0  0  0  2  0  0  0  0  0  0
  159.9410  208.3130  155.0770 C   0  0  0  0  0  2  0  0  0  0  0  0
  159.5130  210.8180  156.4980 O   0  0  0  0  0  0  0  0  0  0  0  0
  162.4160  204.9080  152.6490 O   0  0  0  0  0  0  0  0  0  0  0  0
  162.4690  205.8020  153.7390 C   0  0  2  0  0  3  0  0  0  0  0  0
  158.7200  213.7470  156.3730 C   0  0  0  0  0  2  0  0  0  0  0  0
  157.4650  213.5590  157.2190 C   0  0  0  0  0  2  0  0  0  0  0  0
  157.0800  214.2700  154.5190 C   0  0  1  0  0  3  0  0  0  0  0  0
  155.9310  213.3730  155.0190 C   0  0  0  0  0  2  0  0  0  0  0  0
  160.1630  211.9320  154.5140 C   0  0  0  0  0  2  0  0  0  0  0  0
  161.0510  204.6560  152.4270 C   0  0  2  0  0  0  0  0  0  0  0  0
  160.3040  205.9310  152.7760 C   0  0  0  0  0  2  0  0  0  0  0  0
  156.3400  212.3390  156.4740 S   0  0  0  0  0  0  0  0  0  0  0  0
  161.6240  211.5640  150.9400 C   0  0  0  0  0  3  0  0  0  0  0  0
  158.4740  213.7590  154.8560 C   0  0  2  0  0  3  0  0  0  0  0  0
  162.2990  208.9010  151.4740 C   0  0  0  0  0  0  0  0  0  0  0  0
  158.5200  211.1130  152.2230 C   0  0  0  0  0  2  0  0  0  0  0  0
  160.9590  209.2580  151.2970 C   0  0  0  0  0  3  0  0  0  0  0  0
  157.3160  213.1370  152.2800 C   0  0  2  0  0  3  0  0  0  0  0  0
  160.7390  207.0180  155.1040 C   0  0  0  0  0  2  0  0  0  0  0  0
  157.0020  214.4460  153.0220 C   0  0  0  0  0  2  0  0  0  0  0  0
  160.8780  209.5120  155.0990 C   0  0  0  0  0  2  0  0  0  0  0  0
  160.1230  210.7560  155.4410 C   0  0  0  0  0  0  0  0  0  0  0  0
  162.9650  211.2040  151.1220 C   0  0  0  0  0  3  0  0  0  0  0  0
  160.6490  203.6420  153.2850 F   0  0  0  0  0  0  0  0  0  0  0  0
  161.2320  206.6680  153.7100 C   0  0  1  0  0  0  0  0  0  0  0  0
  160.6210  210.5890  151.0290 C   0  0  0  0  0  0  0  0  0  0  0  0
  158.7450  212.4090  154.1620 C   0  0  1  0  0  3  0  0  0  0  0  0
  158.5900  212.4960  152.6940 N   0  0  1  0  0  0  0  0  0  0  0  0
  162.5770  207.2600  153.2900 C   0  0  2  0  0  3  0  0  0  0  0  0
  162.6540  207.4880  151.7800 C   0  0  0  0  0  2  0  0  0  0  0  0
  163.3020  209.8740  151.3920 C   0  0  0  0  0  3  0  0  0  0  0  0
  158.5150  213.8200  150.1870 C   0  0  0  0  0  3  0  0  0  0  0  0
  157.3660  213.9990  148.0530 C   0  0  0  0  0  0  0  0  0  0  0  0
  156.1460  213.3410  150.0470 C   0  0  0  0  0  3  0  0  0  0  0  0
  156.1700  213.6170  148.6770 C   0  0  0  0  0  3  0  0  0  0  0  0
  158.5370  214.1000  148.8170 C   0  0  0  0  0  3  0  0  0  0  0  0
  157.3190  213.4450  150.8090 C   0  0  0  0  0  0  0  0  0  0  0  0
  157.3920  214.3070  146.6160 C   0  0  0  0  0  0  0  0  0  0  0  0
  158.4880  214.4530  146.0110 O   0  0  0  0  0  1  0  0  0  0  0  0
  156.2050  214.4530  145.9100 O   0  0  0  0  0  0  0  0  0  0  0  0
  160.8330  204.2580  150.9420 C   0  0  2  0  0  0  0  0  0  0  0  0
  162.0580  203.8110  150.4400 O   0  0  0  0  0  1  0  0  0  0  0  0
  160.9880  206.5890  147.7060 C   0  0  0  0  0  2  0  0  0  0  0  0
  161.7430  205.6270  146.8100 C   0  0  2  0  0  3  0  0  0  0  0  0
  159.6850  205.0220  148.8810 O   0  0  0  0  0  0  0  0  0  0  0  0
  160.3730  205.4380  150.0340 C   0  0  2  0  0  3  0  0  0  0  0  0
  160.9800  205.3080  145.6860 O   0  0  0  0  0  1  0  0  0  0  0  0
  161.7090  204.4700  147.8110 C   0  0  0  0  0  0  0  0  0  0  0  0
  161.0020  205.4720  148.6740 C   0  0  2  0  0  0  0  0  0  0  0  0
  162.0850  203.3110  147.8690 O   0  0  0  0  0  0  0  0  0  0  0  0
  159.9040  203.1680  150.8930 O   0  0  0  0  0  0  0  0  0  0  0  0
  160.2090  201.8970  150.3870 C   0  0  0  0  0  0  0  0  0  0  0  0
  159.6090  201.4640  149.1010 C   0  0  0  0  0  1  0  0  0  0  0  0
  160.9850  201.1200  151.0110 O   0  0  0  0  0  0  0  0  0  0  0  0
  1 27  1  0  0  0  0
  1 17  1  0  0  0  0
  2 22  1  0  0  0  0
  2 20  1  0  0  0  0
  5  4  1  6  0  0  0
  6  7  1  0  0  0  0
  8 21  1  6  0  0  0
  8 15  1  0  0  0  0
  8  9  1  0  0  0  0
  9 13  1  0  0  0  0
 10 23  1  0  0  0  0
 11  4  1  0  0  0  0
 11 12  1  0  0  0  0
 11 25  1  1  0  0  0
 13  7  1  0  0  0  0
 14 27  2  0  0  0  0
 14 24  1  0  0  0  0
 15  6  1  1  0  0  0
 16 31  1  0  0  0  0
 18 16  2  0  0  0  0
 19 38  1  6  0  0  0
 19 29  1  0  0  0  0
 19 21  1  0  0  0  0
 22 23  1  0  0  0  0
 23  3  2  0  0  0  0
 24 32  2  0  0  0  0
 26 12  1  6  0  0  0
 26  5  1  0  0  0  0
 26 20  1  0  0  0  0
 27 18  1  0  0  0  0
 28 10  1  6  0  0  0
 28 15  1  0  0  0  0
 29 17  1  6  0  0  0
 29 28  1  0  0  0  0
 30 31  1  6  0  0  0
 30 26  1  0  0  0  0
 30  5  1  0  0  0  0
 32 16  1  0  0  0  0
 33 38  1  0  0  0  0
 34 36  2  0  0  0  0
 34 37  1  0  0  0  0
 35 38  2  0  0  0  0
 36 35  1  0  0  0  0
 37 33  2  0  0  0  0
 39 34  1  0  0  0  0
 40 39  1  0  0  0  0
 41 39  2  0  0  0  0
 42 43  1  6  0  0  0
 42 11  1  0  0  0  0
 45 48  1  6  0  0  0
 45 44  1  0  0  0  0
 45 49  1  0  0  0  0
 46 47  1  0  0  0  0
 47 42  1  1  0  0  0
 49 51  2  0  0  0  0
 49 50  1  0  0  0  0
 50 44  1  6  0  0  0
 50 46  1  0  0  0  0
 50 47  1  0  0  0  0
 52 42  1  0  0  0  0
 53 52  1  0  0  0  0
 53 55  2  0  0  0  0
 54 53  1  0  0  0  0
M  END
>  <MODEL>
1

>  <REMARK>
 VINA RESULT:       4.6      0.000      0.000
  Name = 
  6 active torsions:
  status: ('A' for Active; 'I' for Inactive)
    1  A    between atoms: C_1  and  O_53
    2  A    between atoms: C_6  and  C_14
    3  A    between atoms: C_6  and  C_20
    4  A    between atoms: C_6  and  O_53
    5  A    between atoms: C_10  and  C_32
    6  A    between atoms: C_33  and  C_52
                            x       y       z     vdW  Elec       q    Type
                         _______ _______ _______ _____ _____    ______ ____

>  <TORSDO>
F 6

$$$$
=
 OpenBabel11062408513D

 55 63  0  0  1  0  0  0  0  0999 V2000
  159.2190  210.9170  150.8130 C   0  0  0  0  0  2  0  0  0  0  0  0
  159.9600  208.2500  155.0210 C   0  0  0  0  0  2  0  0  0  0  0  0
  159.6160  210.7670  156.4430 O   0  0  0  0  0  0  0  0  0  0  0  0
  162.3130  204.7780  152.5670 O   0  0  0  0  0  0  0  0  0  0  0  0
  162.4040  205.6720  153.6540 C   0  0  2  0  0  3  0  0  0  0  0  0
  158.8970  213.7150  156.3220 C   0  0  0  0  0  2  0  0  0  0  0  0
  157.6490  213.5620  157.1870 C   0  0  0  0  0  2  0  0  0  0  0  0
  157.2450  214.2770  154.4910 C   0  0  1  0  0  3  0  0  0  0  0  0
  156.0800  213.4110  155.0090 C   0  0  0  0  0  2  0  0  0  0  0  0
  160.2660  211.8610  154.4480 C   0  0  0  0  0  2  0  0  0  0  0  0
  160.9390  204.5610  152.3650 C   0  0  2  0  0  0  0  0  0  0  0  0
  160.2290  205.8550  152.7210 C   0  0  0  0  0  2  0  0  0  0  0  0
  156.4830  212.3690  156.4600 S   0  0  0  0  0  0  0  0  0  0  0  0
  161.6680  211.4490  150.8550 C   0  0  0  0  0  3  0  0  0  0  0  0
  158.6300  213.7310  154.8090 C   0  0  2  0  0  3  0  0  0  0  0  0
  162.2820  208.7710  151.3850 C   0  0  0  0  0  0  0  0  0  0  0  0
  158.5710  211.0800  152.1820 C   0  0  0  0  0  2  0  0  0  0  0  0
  160.9490  209.1620  151.2260 C   0  0  0  0  0  3  0  0  0  0  0  0
  157.4210  213.1350  152.2510 C   0  0  2  0  0  3  0  0  0  0  0  0
  160.7250  206.9350  155.0400 C   0  0  0  0  0  2  0  0  0  0  0  0
  157.1500  214.4520  152.9950 C   0  0  0  0  0  2  0  0  0  0  0  0
  160.9280  209.4240  155.0280 C   0  0  0  0  0  2  0  0  0  0  0  0
  160.2090  210.6870  155.3780 C   0  0  0  0  0  0  0  0  0  0  0  0
  163.0010  211.0550  151.0180 C   0  0  0  0  0  3  0  0  0  0  0  0
  160.5230  203.5590  153.2300 F   0  0  0  0  0  0  0  0  0  0  0  0
  161.1890  206.5700  153.6400 C   0  0  1  0  0  0  0  0  0  0  0  0
  160.6410  210.5010  150.9600 C   0  0  0  0  0  0  0  0  0  0  0  0
  158.8570  212.3730  154.1150 C   0  0  1  0  0  3  0  0  0  0  0  0
  158.6830  212.4620  152.6490 N   0  0  1  0  0  0  0  0  0  0  0  0
  162.5420  207.1260  153.2010 C   0  0  2  0  0  3  0  0  0  0  0  0
  162.6050  207.3500  151.6890 C   0  0  0  0  0  2  0  0  0  0  0  0
  163.3080  209.7170  151.2870 C   0  0  0  0  0  3  0  0  0  0  0  0
  158.5580  213.9680  150.1790 C   0  0  0  0  0  3  0  0  0  0  0  0
  157.4370  213.9950  148.0240 C   0  0  0  0  0  0  0  0  0  0  0  0
  156.2760  213.1820  149.9960 C   0  0  0  0  0  3  0  0  0  0  0  0
  156.2900  213.4580  148.6260 C   0  0  0  0  0  3  0  0  0  0  0  0
  158.5690  214.2480  148.8090 C   0  0  0  0  0  3  0  0  0  0  0  0
  157.4110  213.4400  150.7790 C   0  0  0  0  0  0  0  0  0  0  0  0
  157.4490  214.3020  146.5860 C   0  0  0  0  0  0  0  0  0  0  0  0
  156.3700  214.4510  145.9530 O   0  0  0  0  0  1  0  0  0  0  0  0
  158.6540  214.4190  145.9050 O   0  0  0  0  0  0  0  0  0  0  0  0
  160.6890  204.1660  150.8830 C   0  0  2  0  0  0  0  0  0  0  0  0
  159.4190  204.6290  150.5310 O   0  0  0  0  0  1  0  0  0  0  0  0
  160.2190  200.8730  148.6780 C   0  0  0  0  0  2  0  0  0  0  0  0
  160.3300  201.5330  147.3170 C   0  0  2  0  0  3  0  0  0  0  0  0
  161.7780  202.1990  149.8380 O   0  0  0  0  0  0  0  0  0  0  0  0
  160.6990  202.6290  150.6290 C   0  0  2  0  0  3  0  0  0  0  0  0
  161.4120  201.0090  146.6100 O   0  0  0  0  0  1  0  0  0  0  0  0
  160.6870  202.9120  147.8760 C   0  0  0  0  0  0  0  0  0  0  0  0
  160.5250  202.2220  149.1980 C   0  0  2  0  0  0  0  0  0  0  0  0
  160.9590  204.0210  147.4460 O   0  0  0  0  0  0  0  0  0  0  0  0
  161.6540  204.8380  150.0630 O   0  0  0  0  0  0  0  0  0  0  0  0
  161.3540  205.9170  149.2200 C   0  0  0  0  0  0  0  0  0  0  0  0
  162.4160  206.4760  148.3490 C   0  0  0  0  0  1  0  0  0  0  0  0
  160.1940  206.4160  149.1960 O   0  0  0  0  0  0  0  0  0  0  0  0
  1 27  1  0  0  0  0
  1 17  1  0  0  0  0
  2 22  1  0  0  0  0
  2 20  1  0  0  0  0
  5  4  1  6  0  0  0
  6  7  1  0  0  0  0
  8 21  1  6  0  0  0
  8 15  1  0  0  0  0
  8  9  1  0  0  0  0
  9 13  1  0  0  0  0
 10 23  1  0  0  0  0
 11  4  1  0  0  0  0
 11 12  1  0  0  0  0
 11 25  1  1  0  0  0
 13  7  1  0  0  0  0
 14 27  2  0  0  0  0
 14 24  1  0  0  0  0
 15  6  1  1  0  0  0
 16 31  1  0  0  0  0
 18 16  2  0  0  0  0
 19 38  1  6  0  0  0
 19 29  1  0  0  0  0
 19 21  1  0  0  0  0
 22 23  1  0  0  0  0
 23  3  2  0  0  0  0
 24 32  2  0  0  0  0
 26 12  1  6  0  0  0
 26  5  1  0  0  0  0
 26 20  1  0  0  0  0
 27 18  1  0  0  0  0
 28 10  1  6  0  0  0
 28 15  1  0  0  0  0
 29 17  1  1  0  0  0
 29 28  1  0  0  0  0
 30 31  1  6  0  0  0
 30 26  1  0  0  0  0
 30  5  1  0  0  0  0
 32 16  1  0  0  0  0
 33 38  1  0  0  0  0
 34 36  2  0  0  0  0
 34 37  1  0  0  0  0
 35 38  2  0  0  0  0
 36 35  1  0  0  0  0
 37 33  2  0  0  0  0
 39 34  1  0  0  0  0
 40 39  1  0  0  0  0
 41 39  2  0  0  0  0
 42 43  1  6  0  0  0
 42 11  1  0  0  0  0
 45 48  1  6  0  0  0
 45 49  1  0  0  0  0
 45 44  1  0  0  0  0
 46 47  1  0  0  0  0
 47 42  1  6  0  0  0
 49 50  1  0  0  0  0
 50 44  1  6  0  0  0
 50 46  1  0  0  0  0
 50 47  1  0  0  0  0
 51 49  2  0  0  0  0
 52 42  1  0  0  0  0
 53 52  1  0  0  0  0
 54 53  1  0  0  0  0
 55 53  2  0  0  0  0
M  END
>  <MODEL>
2

>  <REMARK>
 VINA RESULT:       5.7      0.773      2.003
  Name = 
  6 active torsions:
  status: ('A' for Active; 'I' for Inactive)
    1  A    between atoms: C_1  and  O_53
    2  A    between atoms: C_6  and  C_14
    3  A    between atoms: C_6  and  C_20
    4  A    between atoms: C_6  and  O_53
    5  A    between atoms: C_10  and  C_32
    6  A    between atoms: C_33  and  C_52
                            x       y       z     vdW  Elec       q    Type
                         _______ _______ _______ _____ _____    ______ ____

>  <TORSDO>
F 6

$$$$
