=
 OpenBabel11062408393D

 55 60  0  0  1  0  0  0  0  0999 V2000
  160.3860  212.0910  151.5970 C   0  0  0  0  0  2  0  0  0  0  0  0
  161.9160  207.0880  150.0070 C   0  0  0  0  0  2  0  0  0  0  0  0
  162.0040  205.6750  152.7080 C   0  0  0  0  0  1  0  0  0  0  0  0
  160.9860  208.6930  155.5560 C   0  0  0  0  0  2  0  0  0  0  0  0
  161.5870  208.9940  156.9240 C   0  0  0  0  0  2  0  0  0  0  0  0
  161.6240  211.0570  154.8260 C   0  0  1  0  0  3  0  0  0  0  0  0
  162.1310  211.3260  156.2420 C   0  0  0  0  0  2  0  0  0  0  0  0
  160.8240  207.8710  152.7110 C   0  0  0  0  0  2  0  0  0  0  0  0
  161.3930  210.4660  157.2600 C   0  0  0  0  0  2  0  0  0  0  0  0
  162.4500  210.9920  150.9650 O   0  0  0  0  0  0  0  0  0  0  0  0
  161.6540  209.5450  154.4620 C   0  0  2  0  0  3  0  0  0  0  0  0
  162.2420  211.0660  148.5770 C   0  0  1  0  0  0  0  0  0  0  0  0
  159.5230  210.8290  151.6500 C   0  0  0  0  0  2  0  0  0  0  0  0
  161.0540  211.7510  149.1880 C   0  0  0  0  0  2  0  0  0  0  0  0
  159.3540  210.9030  154.2400 C   0  0  2  0  0  3  0  0  0  0  0  0
  162.5860  207.3350  148.7970 O   0  0  0  0  0  0  0  0  0  0  0  0
  160.4190  211.7730  154.5670 O   0  0  0  0  0  0  0  0  0  0  0  0
  162.8030  207.4940  151.1760 C   0  0  0  0  0  2  0  0  0  0  0  0
  162.1660  207.1740  152.5280 C   0  0  2  0  0  3  0  0  0  0  0  0
  162.9680  210.4590  149.7680 C   0  0  0  0  0  2  0  0  0  0  0  0
  161.6450  207.7420  147.8270 C   0  0  2  0  0  3  0  0  0  0  0  0
  161.5340  211.9950  150.6000 C   0  0  1  0  0  3  0  0  0  0  0  0
  160.9920  209.3430  153.0850 C   0  0  2  0  0  3  0  0  0  0  0  0
  159.6410  210.0650  152.9760 C   0  0  2  0  0  3  0  0  0  0  0  0
  161.0540  209.1200  148.1170 C   0  0  0  0  0  2  0  0  0  0  0  0
  161.9020  210.1100  147.5860 O   0  0  0  0  0  0  0  0  0  0  0  0
  163.0680  212.0340  148.0010 O   0  0  0  0  0  1  0  0  0  0  0  0
  157.1270  211.0160  155.3870 C   0  0  0  0  0  2  0  0  0  0  0  0
  156.5950  213.3120  156.3200 C   0  0  2  0  0  3  0  0  0  0  0  0
  158.1090  213.1280  154.2940 C   0  0  0  0  0  2  0  0  0  0  0  0
  156.8490  213.7640  154.8710 C   0  0  0  0  0  2  0  0  0  0  0  0
  157.1530  211.9100  156.6240 C   0  0  0  0  0  2  0  0  0  0  0  0
  157.9890  211.5940  154.2540 C   0  0  1  0  0  3  0  0  0  0  0  0
  155.1390  213.4060  156.6780 C   0  0  0  0  0  0  0  0  0  0  0  0
  154.4900  214.4500  156.4050 O   0  0  0  0  0  0  0  0  0  0  0  0
  154.4770  212.3280  157.2580 O   0  0  0  0  0  1  0  0  0  0  0  0
  160.5830  206.6780  147.5220 C   0  0  0  0  0  2  0  0  0  0  0  0
  160.5150  203.8190  145.1560 O   0  0  0  0  0  0  0  0  0  0  0  0
  162.9780  206.7460  145.4450 O   0  0  0  0  0  0  0  0  0  0  0  0
  161.3840  202.8840  145.7760 C   0  0  1  0  0  3  0  0  0  0  0  0
  162.3580  203.4660  146.8130 C   0  0  0  0  0  2  0  0  0  0  0  0
  162.3220  205.7990  145.9510 C   0  0  0  0  0  0  0  0  0  0  0  0
  160.8390  205.9960  146.1850 C   0  0  1  0  0  3  0  0  0  0  0  0
  163.0010  204.6180  146.2860 O   0  0  0  0  0  0  0  0  0  0  0  0
  160.0190  204.7060  146.1280 C   0  0  0  0  0  2  0  0  0  0  0  0
  160.6770  201.6050  146.2380 C   0  0  0  0  0  2  0  0  0  0  0  0
  161.0660  201.1680  147.6470 C   0  0  0  0  0  2  0  0  0  0  0  0
  160.1660  201.8040  148.6980 C   0  0  1  0  0  3  0  0  0  0  0  0
  159.2070  200.7660  149.2810 C   0  0  0  0  0  3  0  0  0  0  0  0
  159.6370  200.3590  150.5440 O   0  0  0  0  0  1  0  0  0  0  0  0
  157.9290  201.3130  149.3910 O   0  0  0  0  0  1  0  0  0  0  0  0
  160.9840  202.3550  149.7220 O   0  0  0  0  0  0  0  0  0  0  0  0
  160.5990  203.4820  150.4530 C   0  0  0  0  0  0  0  0  0  0  0  0
  160.4540  203.4240  151.7030 O   0  0  0  0  0  0  0  0  0  0  0  0
  160.3710  204.6520  149.8090 F   0  0  0  0  0  0  0  0  0  0  0  0
  1 13  1  0  0  0  0
  2 18  1  0  0  0  0
  4  5  1  0  0  0  0
  5  9  1  0  0  0  0
  6  7  1  1  0  0  0
  7  9  1  0  0  0  0
 11  6  1  0  0  0  0
 11  4  1  1  0  0  0
 12 27  1  6  0  0  0
 12 14  1  0  0  0  0
 12 20  1  0  0  0  0
 15 33  1  0  0  0  0
 15 17  1  6  0  0  0
 16  2  1  0  0  0  0
 17  6  1  0  0  0  0
 18 19  1  0  0  0  0
 19  3  1  6  0  0  0
 19  8  1  0  0  0  0
 20 10  1  0  0  0  0
 21 37  1  1  0  0  0
 21 25  1  0  0  0  0
 21 16  1  0  0  0  0
 22 14  1  6  0  0  0
 22 10  1  0  0  0  0
 22  1  1  0  0  0  0
 23  8  1  1  0  0  0
 23 11  1  0  0  0  0
 24 13  1  6  0  0  0
 24 23  1  0  0  0  0
 24 15  1  0  0  0  0
 26 25  1  0  0  0  0
 26 12  1  0  0  0  0
 28 32  1  0  0  0  0
 29 32  1  0  0  0  0
 29 34  1  6  0  0  0
 30 31  1  0  0  0  0
 31 29  1  0  0  0  0
 33 30  1  1  0  0  0
 33 28  1  0  0  0  0
 34 36  1  0  0  0  0
 35 34  2  0  0  0  0
 38 40  1  0  0  0  0
 38 45  1  0  0  0  0
 39 42  2  0  0  0  0
 40 46  1  1  0  0  0
 40 41  1  0  0  0  0
 42 43  1  0  0  0  0
 42 44  1  0  0  0  0
 43 37  1  1  0  0  0
 44 41  1  0  0  0  0
 45 43  1  0  0  0  0
 46 47  1  0  0  0  0
 48 47  1  6  0  0  0
 48 49  1  0  0  0  0
 48 52  1  0  0  0  0
 49 51  1  0  0  0  0
 49 50  1  0  0  0  0
 52 53  1  0  0  0  0
 53 54  2  0  0  0  0
 55 53  1  0  0  0  0
M  END
>  <MODEL>
1

>  <REMARK>
 VINA RESULT:      -0.5      0.000      0.000
  Name = 
  10 active torsions:
  status: ('A' for Active; 'I' for Inactive)
    1  A    between atoms: C_1  and  O_53
    2  A    between atoms: C_3  and  C_12
    3  A    between atoms: C_3  and  C_38
    4  A    between atoms: C_8  and  C_22
    5  A    between atoms: C_8  and  C_43
    6  A    between atoms: C_10  and  C_32
    7  A    between atoms: C_11  and  C_29
    8  A    between atoms: C_29  and  C_38
    9  A    between atoms: C_29  and  O_53
   10  A    between atoms: C_33  and  C_52
                            x       y       z     vdW  Elec       q    Type
                         _______ _______ _______ _____ _____    ______ ____

>  <TORSDO>
F 10

$$$$
=
 OpenBabel11062408393D

 55 60  0  0  1  0  0  0  0  0999 V2000
  160.4540  211.9940  151.7380 C   0  0  0  0  0  2  0  0  0  0  0  0
  161.8870  207.1020  149.7600 C   0  0  0  0  0  2  0  0  0  0  0  0
  161.9050  205.4720  152.3370 C   0  0  0  0  0  1  0  0  0  0  0  0
  160.9190  208.2700  155.4110 C   0  0  0  0  0  2  0  0  0  0  0  0
  161.5090  208.4430  156.8060 C   0  0  0  0  0  2  0  0  0  0  0  0
  161.6230  210.6690  154.8850 C   0  0  1  0  0  3  0  0  0  0  0  0
  162.1170  210.8090  156.3240 C   0  0  0  0  0  2  0  0  0  0  0  0
  160.7770  207.6880  152.5070 C   0  0  0  0  0  2  0  0  0  0  0  0
  161.3450  209.8870  157.2600 C   0  0  0  0  0  2  0  0  0  0  0  0
  162.4990  210.9010  151.0420 O   0  0  0  0  0  0  0  0  0  0  0  0
  161.6230  209.1920  154.3980 C   0  0  2  0  0  3  0  0  0  0  0  0
  162.3250  211.1750  148.6660 C   0  0  1  0  0  0  0  0  0  0  0  0
  159.5600  210.7530  151.6770 C   0  0  0  0  0  2  0  0  0  0  0  0
  161.1460  211.8370  149.3170 C   0  0  0  0  0  2  0  0  0  0  0  0
  159.3580  210.6200  154.2620 C   0  0  2  0  0  3  0  0  0  0  0  0
  162.5780  207.4310  148.5820 O   0  0  0  0  0  0  0  0  0  0  0  0
  160.4390  211.4340  154.6720 O   0  0  0  0  0  0  0  0  0  0  0  0
  162.7680  207.3890  150.9690 C   0  0  0  0  0  2  0  0  0  0  0  0
  162.1050  206.9750  152.2820 C   0  0  2  0  0  3  0  0  0  0  0  0
  163.0210  210.4550  149.8110 C   0  0  0  0  0  2  0  0  0  0  0  0
  161.6610  207.9390  147.6380 C   0  0  2  0  0  3  0  0  0  0  0  0
  161.6120  211.9520  150.7500 C   0  0  1  0  0  3  0  0  0  0  0  0
  160.9740  209.1190  153.0020 C   0  0  2  0  0  3  0  0  0  0  0  0
  159.6430  209.8820  152.9370 C   0  0  2  0  0  3  0  0  0  0  0  0
  161.0990  209.3030  148.0330 C   0  0  0  0  0  2  0  0  0  0  0  0
  161.9770  210.3120  147.5960 O   0  0  0  0  0  0  0  0  0  0  0  0
  163.1820  212.1660  148.1810 O   0  0  0  0  0  1  0  0  0  0  0  0
  157.1930  210.8210  155.5100 C   0  0  0  0  0  2  0  0  0  0  0  0
  156.7530  213.1600  156.3850 C   0  0  2  0  0  3  0  0  0  0  0  0
  158.1630  212.8720  154.2960 C   0  0  0  0  0  2  0  0  0  0  0  0
  156.9450  213.5550  154.9100 C   0  0  0  0  0  2  0  0  0  0  0  0
  157.2970  211.7580  156.7120 C   0  0  0  0  0  2  0  0  0  0  0  0
  158.0100  211.3410  154.3170 C   0  0  1  0  0  3  0  0  0  0  0  0
  155.3190  213.2980  156.8090 C   0  0  0  0  0  0  0  0  0  0  0  0
  154.7720  214.4320  156.8160 O   0  0  0  0  0  0  0  0  0  0  0  0
  154.5620  212.1780  157.1400 O   0  0  0  0  0  1  0  0  0  0  0  0
  160.5790  206.9300  147.2350 C   0  0  0  0  0  2  0  0  0  0  0  0
  160.0860  204.4940  144.4770 O   0  0  0  0  0  0  0  0  0  0  0  0
  163.1820  206.5320  145.4690 O   0  0  0  0  0  0  0  0  0  0  0  0
  160.5660  203.2860  145.0430 C   0  0  1  0  0  3  0  0  0  0  0  0
  161.4970  203.4410  146.2560 C   0  0  0  0  0  2  0  0  0  0  0  0
  162.2260  205.7660  145.7530 C   0  0  0  0  0  0  0  0  0  0  0  0
  160.8350  206.3560  145.8470 C   0  0  1  0  0  3  0  0  0  0  0  0
  162.4990  204.4090  145.9810 O   0  0  0  0  0  0  0  0  0  0  0  0
  159.7130  205.3740  145.5090 C   0  0  0  0  0  2  0  0  0  0  0  0
  159.4780  202.2220  145.2290 C   0  0  0  0  0  2  0  0  0  0  0  0
  159.9510  200.8050  144.9220 C   0  0  0  0  0  2  0  0  0  0  0  0
  160.4490  200.0980  146.1740 C   0  0  1  0  0  3  0  0  0  0  0  0
  161.5840  199.1320  145.8290 C   0  0  0  0  0  3  0  0  0  0  0  0
  161.9970  198.4370  146.9660 O   0  0  0  0  0  1  0  0  0  0  0  0
  161.1490  198.2170  144.8710 O   0  0  0  0  0  1  0  0  0  0  0  0
  160.8970  201.0790  147.1010 O   0  0  0  0  0  0  0  0  0  0  0  0
  160.5780  201.0160  148.4600 C   0  0  0  0  0  0  0  0  0  0  0  0
  161.4090  200.5800  149.3010 O   0  0  0  0  0  0  0  0  0  0  0  0
  159.3560  201.4240  148.8790 F   0  0  0  0  0  0  0  0  0  0  0  0
  2 18  1  0  0  0  0
  4  5  1  0  0  0  0
  5  9  1  0  0  0  0
  6  7  1  1  0  0  0
  7  9  1  0  0  0  0
 11  6  1  0  0  0  0
 11  4  1  1  0  0  0
 12 27  1  6  0  0  0
 12 14  1  0  0  0  0
 12 20  1  0  0  0  0
 13  1  1  0  0  0  0
 15 33  1  0  0  0  0
 15 17  1  6  0  0  0
 16  2  1  0  0  0  0
 17  6  1  0  0  0  0
 18 19  1  0  0  0  0
 19  3  1  6  0  0  0
 19  8  1  0  0  0  0
 20 10  1  0  0  0  0
 21 37  1  1  0  0  0
 21 25  1  0  0  0  0
 21 16  1  0  0  0  0
 22 14  1  6  0  0  0
 22 10  1  0  0  0  0
 22  1  1  0  0  0  0
 23  8  1  1  0  0  0
 23 11  1  0  0  0  0
 24 13  1  6  0  0  0
 24 23  1  0  0  0  0
 24 15  1  0  0  0  0
 26 25  1  0  0  0  0
 26 12  1  0  0  0  0
 28 32  1  0  0  0  0
 29 32  1  0  0  0  0
 29 34  1  6  0  0  0
 30 31  1  0  0  0  0
 31 29  1  0  0  0  0
 33 30  1  1  0  0  0
 33 28  1  0  0  0  0
 34 35  2  0  0  0  0
 34 36  1  0  0  0  0
 38 40  1  0  0  0  0
 38 45  1  0  0  0  0
 39 42  2  0  0  0  0
 40 46  1  1  0  0  0
 40 41  1  0  0  0  0
 42 43  1  0  0  0  0
 42 44  1  0  0  0  0
 43 37  1  1  0  0  0
 44 41  1  0  0  0  0
 45 43  1  0  0  0  0
 47 46  1  0  0  0  0
 48 47  1  6  0  0  0
 48 52  1  0  0  0  0
 49 48  1  0  0  0  0
 49 50  1  0  0  0  0
 51 49  1  0  0  0  0
 52 53  1  0  0  0  0
 53 55  1  0  0  0  0
 53 54  2  0  0  0  0
M  END
>  <MODEL>
2

>  <REMARK>
 VINA RESULT:       0.0      1.365      1.695
  Name = 
  10 active torsions:
  status: ('A' for Active; 'I' for Inactive)
    1  A    between atoms: C_1  and  O_53
    2  A    between atoms: C_3  and  C_12
    3  A    between atoms: C_3  and  C_38
    4  A    between atoms: C_8  and  C_22
    5  A    between atoms: C_8  and  C_43
    6  A    between atoms: C_10  and  C_32
    7  A    between atoms: C_11  and  C_29
    8  A    between atoms: C_29  and  C_38
    9  A    between atoms: C_29  and  O_53
   10  A    between atoms: C_33  and  C_52
                            x       y       z     vdW  Elec       q    Type
                         _______ _______ _______ _____ _____    ______ ____

>  <TORSDO>
F 10

$$$$
=
 OpenBabel11062408393D

 55 60  0  0  1  0  0  0  0  0999 V2000
  160.4200  212.1090  151.3960 C   0  0  0  0  0  2  0  0  0  0  0  0
  161.9690  206.9410  150.5060 C   0  0  0  0  0  2  0  0  0  0  0  0
  161.5310  205.7680  153.2860 C   0  0  0  0  0  1  0  0  0  0  0  0
  160.1820  209.0530  155.6610 C   0  0  0  0  0  2  0  0  0  0  0  0
  160.5550  209.4540  157.0830 C   0  0  0  0  0  2  0  0  0  0  0  0
  161.0420  211.3230  154.8640 C   0  0  1  0  0  3  0  0  0  0  0  0
  161.3120  211.7000  156.3190 C   0  0  0  0  0  2  0  0  0  0  0  0
  160.4690  207.9900  152.9070 C   0  0  0  0  0  2  0  0  0  0  0  0
  160.3740  210.9560  157.2610 C   0  0  0  0  0  2  0  0  0  0  0  0
  162.5090  210.8950  151.2230 O   0  0  0  0  0  0  0  0  0  0  0  0
  161.0650  209.7850  154.6340 C   0  0  2  0  0  3  0  0  0  0  0  0
  162.7140  210.7670  148.8370 C   0  0  1  0  0  0  0  0  0  0  0  0
  159.5040  210.8830  151.4000 C   0  0  0  0  0  2  0  0  0  0  0  0
  161.4720  211.5390  149.1740 C   0  0  0  0  0  2  0  0  0  0  0  0
  158.9000  211.1890  153.9070 C   0  0  2  0  0  3  0  0  0  0  0  0
  162.8450  207.0600  149.4140 O   0  0  0  0  0  0  0  0  0  0  0  0
  159.9330  212.0510  154.3430 O   0  0  0  0  0  0  0  0  0  0  0  0
  162.6620  207.4190  151.7740 C   0  0  0  0  0  2  0  0  0  0  0  0
  161.7900  207.2390  153.0160 C   0  0  2  0  0  3  0  0  0  0  0  0
  163.1990  210.2430  150.1800 C   0  0  0  0  0  2  0  0  0  0  0  0
  162.1020  207.4100  148.2650 C   0  0  2  0  0  3  0  0  0  0  0  0
  161.7150  211.8900  150.6240 C   0  0  1  0  0  3  0  0  0  0  0  0
  160.6380  209.4830  153.1840 C   0  0  2  0  0  3  0  0  0  0  0  0
  159.3600  210.2350  152.7840 C   0  0  2  0  0  3  0  0  0  0  0  0
  161.5350  208.8250  148.3360 C   0  0  0  0  0  2  0  0  0  0  0  0
  162.5040  209.7380  147.8820 O   0  0  0  0  0  0  0  0  0  0  0  0
  163.6690  211.6540  148.3360 O   0  0  0  0  0  1  0  0  0  0  0  0
  156.5920  211.6530  154.7690 C   0  0  0  0  0  2  0  0  0  0  0  0
  156.1250  214.1220  155.1060 C   0  0  2  0  0  3  0  0  0  0  0  0
  157.7980  213.4160  153.3360 C   0  0  0  0  0  2  0  0  0  0  0  0
  156.5340  214.2190  153.6250 C   0  0  0  0  0  2  0  0  0  0  0  0
  156.5640  212.8050  155.7710 C   0  0  0  0  0  2  0  0  0  0  0  0
  157.5860  211.9200  153.6280 C   0  0  1  0  0  3  0  0  0  0  0  0
  154.6520  214.3550  155.2850 C   0  0  0  0  0  0  0  0  0  0  0  0
  153.9030  214.4530  154.2780 O   0  0  0  0  0  0  0  0  0  0  0  0
  154.0870  214.4050  156.5570 O   0  0  0  0  0  1  0  0  0  0  0  0
  161.0610  206.3560  147.8690 C   0  0  0  0  0  2  0  0  0  0  0  0
  162.7300  205.1640  144.7750 O   0  0  0  0  0  0  0  0  0  0  0  0
  160.1990  203.4120  147.0650 O   0  0  0  0  0  0  0  0  0  0  0  0
  161.7760  205.4690  143.7720 C   0  0  1  0  0  3  0  0  0  0  0  0
  160.3350  205.6830  144.2640 C   0  0  0  0  0  2  0  0  0  0  0  0
  160.5740  204.4010  146.3840 C   0  0  0  0  0  0  0  0  0  0  0  0
  161.6550  205.2970  146.9500 C   0  0  1  0  0  3  0  0  0  0  0  0
  159.9600  204.6310  145.1430 O   0  0  0  0  0  0  0  0  0  0  0  0
  162.5120  205.9920  145.8910 C   0  0  0  0  0  2  0  0  0  0  0  0
  162.2530  206.5320  142.7750 C   0  0  0  0  0  2  0  0  0  0  0  0
  161.9150  206.2030  141.3240 C   0  0  0  0  0  2  0  0  0  0  0  0
  162.3770  207.3040  140.3790 C   0  0  1  0  0  3  0  0  0  0  0  0
  162.6070  206.7430  138.9750 C   0  0  0  0  0  3  0  0  0  0  0  0
  162.3660  205.3690  138.9520 O   0  0  0  0  0  1  0  0  0  0  0  0
  161.7500  207.3690  138.0710 O   0  0  0  0  0  1  0  0  0  0  0  0
  161.3870  208.3240  140.3510 O   0  0  0  0  0  0  0  0  0  0  0  0
  161.7190  209.6810  140.3750 C   0  0  0  0  0  0  0  0  0  0  0  0
  160.8970  210.5410  140.7890 O   0  0  0  0  0  0  0  0  0  0  0  0
  162.9380  210.0790  139.9400 F   0  0  0  0  0  0  0  0  0  0  0  0
  1 13  1  0  0  0  0
  2 18  1  0  0  0  0
  4  5  1  0  0  0  0
  5  9  1  0  0  0  0
  6  7  1  1  0  0  0
  7  9  1  0  0  0  0
  8 19  1  0  0  0  0
 11  6  1  0  0  0  0
 11  4  1  1  0  0  0
 12 27  1  6  0  0  0
 12 14  1  0  0  0  0
 12 20  1  0  0  0  0
 15 17  1  6  0  0  0
 16  2  1  0  0  0  0
 17  6  1  0  0  0  0
 18 19  1  0  0  0  0
 19  3  1  6  0  0  0
 20 10  1  0  0  0  0
 21 37  1  1  0  0  0
 21 25  1  0  0  0  0
 21 16  1  0  0  0  0
 22 14  1  6  0  0  0
 22 10  1  0  0  0  0
 22  1  1  0  0  0  0
 23  8  1  1  0  0  0
 23 11  1  0  0  0  0
 24 13  1  6  0  0  0
 24 23  1  0  0  0  0
 24 15  1  0  0  0  0
 26 25  1  0  0  0  0
 26 12  1  0  0  0  0
 28 32  1  0  0  0  0
 29 34  1  6  0  0  0
 29 32  1  0  0  0  0
 30 31  1  0  0  0  0
 31 29  1  0  0  0  0
 33 30  1  1  0  0  0
 33 15  1  0  0  0  0
 33 28  1  0  0  0  0
 34 36  1  0  0  0  0
 35 34  2  0  0  0  0
 38 45  1  0  0  0  0
 40 46  1  1  0  0  0
 40 41  1  0  0  0  0
 40 38  1  0  0  0  0
 41 44  1  0  0  0  0
 42 43  1  0  0  0  0
 42 39  2  0  0  0  0
 43 37  1  6  0  0  0
 44 42  1  0  0  0  0
 45 43  1  0  0  0  0
 47 46  1  0  0  0  0
 48 47  1  1  0  0  0
 49 48  1  0  0  0  0
 50 49  1  0  0  0  0
 51 49  1  0  0  0  0
 52 53  1  0  0  0  0
 52 48  1  0  0  0  0
 53 54  2  0  0  0  0
 55 53  1  0  0  0  0
M  END
>  <MODEL>
3

>  <REMARK>
 VINA RESULT:       1.3      3.052      5.029
  Name = 
  10 active torsions:
  status: ('A' for Active; 'I' for Inactive)
    1  A    between atoms: C_1  and  O_53
    2  A    between atoms: C_3  and  C_12
    3  A    between atoms: C_3  and  C_38
    4  A    between atoms: C_8  and  C_22
    5  A    between atoms: C_8  and  C_43
    6  A    between atoms: C_10  and  C_32
    7  A    between atoms: C_11  and  C_29
    8  A    between atoms: C_29  and  C_38
    9  A    between atoms: C_29  and  O_53
   10  A    between atoms: C_33  and  C_52
                            x       y       z     vdW  Elec       q    Type
                         _______ _______ _______ _____ _____    ______ ____

>  <TORSDO>
F 10

$$$$
