=
 OpenBabel11062408133D

 32 36  0  0  1  0  0  0  0  0999 V2000
  161.4540  208.0550  150.7210 C   0  0  0  0  0  0  0  0  0  0  0  0
  161.0160  205.9800  149.4830 C   0  0  0  0  0  0  0  0  0  0  0  0
  161.8740  209.3920  150.7080 C   0  0  0  0  0  3  0  0  0  0  0  0
  161.3900  207.3450  149.4960 C   0  0  0  0  0  0  0  0  0  0  0  0
  160.8660  205.2410  148.1640 C   0  0  2  0  0  3  0  0  0  0  0  0
  160.7110  205.3310  150.6960 C   0  0  0  0  0  0  0  0  0  0  0  0
  161.2050  203.1360  149.6560 C   0  0  1  0  0  3  0  0  0  0  0  0
  161.7330  208.0160  148.3010 C   0  0  0  0  0  0  0  0  0  0  0  0
  161.0400  203.7120  148.2450 C   0  0  0  0  0  2  0  0  0  0  0  0
  161.6090  207.3460  146.9660 C   0  0  0  0  0  2  0  0  0  0  0  0
  162.1150  209.3200  148.3390 N   0  0  0  0  0  0  0  0  0  0  0  0
  160.7500  206.0560  151.8930 C   0  0  0  0  0  3  0  0  0  0  0  0
  161.1130  207.4060  151.9290 C   0  0  0  0  0  0  0  0  0  0  0  0
  160.3260  203.8670  150.6810 C   0  0  1  0  0  3  0  0  0  0  0  0
  161.7810  205.8310  147.0810 C   0  0  2  0  0  3  0  0  0  0  0  0
  162.2000  210.0100  149.5040 C   0  0  0  0  0  3  0  0  0  0  0  0
  160.1440  207.7420  155.5280 C   0  0  0  0  0  0  0  0  0  0  0  0
  160.8430  210.9850  156.6190 O   0  0  0  0  0  1  0  0  0  0  0  0
  159.9370  206.9330  156.6400 O   0  0  0  0  0  1  0  0  0  0  0  0
  161.4900  210.2580  154.4830 C   0  0  0  0  0  3  0  0  0  0  0  0
  161.1220  208.0820  153.2510 C   0  0  0  0  0  0  0  0  0  0  0  0
  159.5840  209.1240  155.5550 C   0  0  0  0  0  2  0  0  0  0  0  0
  161.4530  209.3870  153.2920 C   0  0  0  0  0  3  0  0  0  0  0  0
  160.8230  207.2710  154.4680 C   0  0  0  0  0  0  0  0  0  0  0  0
  161.3860  205.6000  154.5040 Cl  0  0  0  0  0  0  0  0  0  0  0  0
  160.6820  210.1340  155.5340 C   0  0  0  0  0  0  0  0  0  0  0  0
  160.4650  203.2080  152.0600 C   0  0  0  0  0  2  0  0  0  0  0  0
  161.8420  202.5860  152.2110 C   0  0  0  0  0  1  0  0  0  0  0  0
  160.9760  201.6210  149.6270 C   0  0  0  0  0  2  0  0  0  0  0  0
  161.1860  201.0290  148.2400 C   0  0  0  0  0  1  0  0  0  0  0  0
  161.6160  205.1770  145.7780 N   0  0  0  0  0  2  0  0  0  0  0  0
  160.5590  205.8210  145.0010 C   0  0  0  0  0  1  0  0  0  0  0  0
  1 13  2  0  0  0  0
  2  4  2  0  0  0  0
  2  6  1  0  0  0  0
  3  1  1  0  0  0  0
  4  1  1  0  0  0  0
  5  9  1  1  0  0  0
  5  2  1  0  0  0  0
  6 12  2  0  0  0  0
  7 29  1  6  0  0  0
  7 14  1  0  0  0  0
  8 11  2  0  0  0  0
  8  4  1  0  0  0  0
  9  7  1  0  0  0  0
 10 15  1  0  0  0  0
 10  8  1  0  0  0  0
 11 16  1  0  0  0  0
 12 13  1  0  0  0  0
 13 21  1  0  0  0  0
 14  6  1  0  0  0  0
 14 27  1  1  0  0  0
 15 31  1  6  0  0  0
 15  5  1  0  0  0  0
 16  3  2  0  0  0  0
 17 22  1  0  0  0  0
 17 19  1  0  0  0  0
 20 26  2  0  0  0  0
 21 23  2  0  0  0  0
 21 24  1  0  0  0  0
 23 20  1  0  0  0  0
 24 25  1  0  0  0  0
 24 17  2  0  0  0  0
 26 22  1  0  0  0  0
 26 18  1  0  0  0  0
 27 28  1  0  0  0  0
 30 29  1  0  0  0  0
 32 31  1  0  0  0  0
M  END
>  <MODEL>
1

>  <REMARK>
 VINA RESULT:      -9.9      0.000      0.000
  Name = 
  4 active torsions:
  status: ('A' for Active; 'I' for Inactive)
    1  A    between atoms: C_9  and  C_28
    2  A    between atoms: C_11  and  C_12
    3  A    between atoms: N_13  and  C_29
    4  A    between atoms: C_16  and  C_27
                            x       y       z     vdW  Elec       q    Type
                         _______ _______ _______ _____ _____    ______ ____

>  <TORSDO>
F 4

$$$$
=
 OpenBabel11062408133D

 32 36  0  0  1  0  0  0  0  0999 V2000
  161.6820  208.8070  149.6270 C   0  0  0  0  0  0  0  0  0  0  0  0
  161.1240  207.7790  151.7860 C   0  0  0  0  0  0  0  0  0  0  0  0
  162.0170  208.6490  148.2760 C   0  0  0  0  0  3  0  0  0  0  0  0
  161.4190  207.6530  150.4080 C   0  0  0  0  0  0  0  0  0  0  0  0
  160.7600  206.5510  152.6050 C   0  0  2  0  0  3  0  0  0  0  0  0
  161.0970  209.0570  152.3780 C   0  0  0  0  0  0  0  0  0  0  0  0
  161.4970  208.0440  154.6050 C   0  0  1  0  0  3  0  0  0  0  0  0
  161.4850  206.3840  149.7910 C   0  0  0  0  0  0  0  0  0  0  0  0
  161.0300  206.6680  154.1170 C   0  0  0  0  0  2  0  0  0  0  0  0
  161.1400  205.1330  150.5400 C   0  0  0  0  0  2  0  0  0  0  0  0
  161.7960  206.2850  148.4710 N   0  0  0  0  0  0  0  0  0  0  0  0
  161.3280  210.1870  151.5850 C   0  0  0  0  0  3  0  0  0  0  0  0
  161.6180  210.0880  150.2210 C   0  0  0  0  0  0  0  0  0  0  0  0
  160.7970  209.1870  153.8560 C   0  0  1  0  0  3  0  0  0  0  0  0
  161.4140  205.2820  152.0370 C   0  0  2  0  0  3  0  0  0  0  0  0
  162.0680  207.3770  147.7130 C   0  0  0  0  0  3  0  0  0  0  0  0
  160.5130  213.2910  148.6330 C   0  0  0  0  0  0  0  0  0  0  0  0
  163.0200  214.4530  146.4990 O   0  0  0  0  0  1  0  0  0  0  0  0
  159.6140  214.3260  148.8710 O   0  0  0  0  0  1  0  0  0  0  0  0
  163.3690  212.5840  147.8750 C   0  0  0  0  0  3  0  0  0  0  0  0
  161.8470  211.3490  149.4710 C   0  0  0  0  0  0  0  0  0  0  0  0
  161.0500  213.1360  147.2500 C   0  0  0  0  0  2  0  0  0  0  0  0
  162.9630  211.4460  148.7240 C   0  0  0  0  0  3  0  0  0  0  0  0
  160.8640  212.4610  149.6300 C   0  0  0  0  0  0  0  0  0  0  0  0
  160.1200  212.6840  151.2130 Cl  0  0  0  0  0  0  0  0  0  0  0  0
  162.5210  213.3850  147.2320 C   0  0  0  0  0  0  0  0  0  0  0  0
  161.2370  210.5410  154.4290 C   0  0  0  0  0  2  0  0  0  0  0  0
  160.0250  211.3590  154.8400 C   0  0  0  0  0  1  0  0  0  0  0  0
  161.3500  208.1320  156.1270 C   0  0  0  0  0  2  0  0  0  0  0  0
  160.2600  207.2110  156.6580 C   0  0  0  0  0  1  0  0  0  0  0  0
  161.0340  204.0700  152.7710 N   0  0  0  0  0  2  0  0  0  0  0  0
  161.1440  202.8890  151.9190 C   0  0  0  0  0  1  0  0  0  0  0  0
  1 13  2  0  0  0  0
  1  4  1  0  0  0  0
  2  6  1  0  0  0  0
  2  5  1  0  0  0  0
  3  1  1  0  0  0  0
  4  2  2  0  0  0  0
  5  9  1  1  0  0  0
  6 14  1  0  0  0  0
  7 29  1  1  0  0  0
  8  4  1  0  0  0  0
  8 10  1  0  0  0  0
  9  7  1  0  0  0  0
 10 15  1  0  0  0  0
 11  8  2  0  0  0  0
 12  6  2  0  0  0  0
 13 12  1  0  0  0  0
 14 27  1  1  0  0  0
 14  7  1  0  0  0  0
 15  5  1  0  0  0  0
 15 31  1  1  0  0  0
 16  3  2  0  0  0  0
 16 11  1  0  0  0  0
 17 19  1  0  0  0  0
 17 24  2  0  0  0  0
 18 26  1  0  0  0  0
 20 23  1  0  0  0  0
 21 24  1  0  0  0  0
 21 13  1  0  0  0  0
 22 17  1  0  0  0  0
 23 21  2  0  0  0  0
 24 25  1  0  0  0  0
 26 22  1  0  0  0  0
 26 20  2  0  0  0  0
 27 28  1  0  0  0  0
 29 30  1  0  0  0  0
 32 31  1  0  0  0  0
M  END
>  <MODEL>
2

>  <REMARK>
 VINA RESULT:      -9.2      3.538      6.690
  Name = 
  4 active torsions:
  status: ('A' for Active; 'I' for Inactive)
    1  A    between atoms: C_9  and  C_28
    2  A    between atoms: C_11  and  C_12
    3  A    between atoms: N_13  and  C_29
    4  A    between atoms: C_16  and  C_27
                            x       y       z     vdW  Elec       q    Type
                         _______ _______ _______ _____ _____    ______ ____

>  <TORSDO>
F 4

$$$$
=
 OpenBabel11062408133D

 32 36  0  0  1  0  0  0  0  0999 V2000
  161.0910  204.0790  150.1370 C   0  0  0  0  0  0  0  0  0  0  0  0
  161.1350  206.3270  151.1220 C   0  0  0  0  0  0  0  0  0  0  0  0
  161.0690  202.6900  150.3220 C   0  0  0  0  0  3  0  0  0  0  0  0
  161.0650  204.9230  151.2760 C   0  0  0  0  0  0  0  0  0  0  0  0
  161.0230  207.2360  152.3360 C   0  0  2  0  0  3  0  0  0  0  0  0
  161.2330  206.8820  149.8310 C   0  0  0  0  0  0  0  0  0  0  0  0
  162.2180  208.9480  150.7820 C   0  0  1  0  0  3  0  0  0  0  0  0
  160.9980  204.3340  152.5580 C   0  0  0  0  0  0  0  0  0  0  0  0
  161.6720  208.6240  152.1780 C   0  0  0  0  0  2  0  0  0  0  0  0
  160.8870  205.1710  153.7970 C   0  0  0  0  0  2  0  0  0  0  0  0
  160.9590  202.9810  152.6850 N   0  0  0  0  0  0  0  0  0  0  0  0
  161.2260  206.0350  148.7160 C   0  0  0  0  0  3  0  0  0  0  0  0
  161.1540  204.6450  148.8430 C   0  0  0  0  0  0  0  0  0  0  0  0
  161.3220  208.3850  149.6700 C   0  0  1  0  0  3  0  0  0  0  0  0
  161.5350  206.5420  153.6070 C   0  0  2  0  0  3  0  0  0  0  0  0
  161.0010  202.1570  151.6070 C   0  0  0  0  0  3  0  0  0  0  0  0
  161.0290  204.2150  145.1290 C   0  0  0  0  0  0  0  0  0  0  0  0
  160.3330  200.8790  144.3690 O   0  0  0  0  0  1  0  0  0  0  0  0
  161.5040  204.8440  143.9820 O   0  0  0  0  0  1  0  0  0  0  0  0
  160.7200  201.5640  146.5810 C   0  0  0  0  0  3  0  0  0  0  0  0
  161.1530  203.8370  147.5980 C   0  0  0  0  0  0  0  0  0  0  0  0
  159.9020  203.2500  144.9800 C   0  0  0  0  0  2  0  0  0  0  0  0
  160.8210  202.5350  147.6880 C   0  0  0  0  0  3  0  0  0  0  0  0
  161.5770  204.4910  146.3240 C   0  0  0  0  0  0  0  0  0  0  0  0
  162.8580  205.7000  146.4050 Cl  0  0  0  0  0  0  0  0  0  0  0  0
  160.3460  201.8710  145.3400 C   0  0  0  0  0  0  0  0  0  0  0  0
  161.8650  208.7980  148.2950 C   0  0  0  0  0  2  0  0  0  0  0  0
  161.4910  210.2390  147.9910 C   0  0  0  0  0  1  0  0  0  0  0  0
  162.4680  210.4540  150.6600 C   0  0  0  0  0  2  0  0  0  0  0  0
  161.3980  211.2790  151.3630 C   0  0  0  0  0  1  0  0  0  0  0  0
  161.3850  207.3730  154.8070 N   0  0  0  0  0  2  0  0  0  0  0  0
  160.1460  207.0530  155.5110 C   0  0  0  0  0  1  0  0  0  0  0  0
  1  3  2  0  0  0  0
  1  4  1  0  0  0  0
  2  4  1  0  0  0  0
  2  5  1  0  0  0  0
  3 16  1  0  0  0  0
  4  8  2  0  0  0  0
  5  9  1  6  0  0  0
  5 15  1  0  0  0  0
  6  2  2  0  0  0  0
  7 29  1  6  0  0  0
  7  9  1  0  0  0  0
  8 11  1  0  0  0  0
  8 10  1  0  0  0  0
 12 13  2  0  0  0  0
 12  6  1  0  0  0  0
 13  1  1  0  0  0  0
 14 27  1  6  0  0  0
 14  6  1  0  0  0  0
 14  7  1  0  0  0  0
 15 10  1  0  0  0  0
 15 31  1  1  0  0  0
 16 11  2  0  0  0  0
 17 24  2  0  0  0  0
 18 26  1  0  0  0  0
 19 17  1  0  0  0  0
 20 23  1  0  0  0  0
 21 23  2  0  0  0  0
 21 13  1  0  0  0  0
 22 17  1  0  0  0  0
 22 26  1  0  0  0  0
 24 25  1  0  0  0  0
 24 21  1  0  0  0  0
 26 20  2  0  0  0  0
 28 27  1  0  0  0  0
 29 30  1  0  0  0  0
 31 32  1  0  0  0  0
M  END
>  <MODEL>
3

>  <REMARK>
 VINA RESULT:      -8.5      4.277      8.419
  Name = 
  4 active torsions:
  status: ('A' for Active; 'I' for Inactive)
    1  A    between atoms: C_9  and  C_28
    2  A    between atoms: C_11  and  C_12
    3  A    between atoms: N_13  and  C_29
    4  A    between atoms: C_16  and  C_27
                            x       y       z     vdW  Elec       q    Type
                         _______ _______ _______ _____ _____    ______ ____

>  <TORSDO>
F 4

$$$$
=
 OpenBabel11062408133D

 32 36  0  0  1  0  0  0  0  0999 V2000
  160.7120  208.2320  153.5520 C   0  0  0  0  0  0  0  0  0  0  0  0
  161.4410  207.1400  151.4780 C   0  0  0  0  0  0  0  0  0  0  0  0
  160.2840  208.1150  154.8810 C   0  0  0  0  0  3  0  0  0  0  0  0
  161.0510  207.0570  152.8350 C   0  0  0  0  0  0  0  0  0  0  0  0
  161.8850  205.8920  150.7320 C   0  0  2  0  0  3  0  0  0  0  0  0
  161.4880  208.3970  150.8420 C   0  0  0  0  0  0  0  0  0  0  0  0
  161.2670  207.2990  148.6310 C   0  0  1  0  0  3  0  0  0  0  0  0
  160.9630  205.8100  153.4910 C   0  0  0  0  0  0  0  0  0  0  0  0
  161.7220  205.9500  149.2010 C   0  0  0  0  0  2  0  0  0  0  0  0
  161.3830  204.5400  152.8150 C   0  0  0  0  0  2  0  0  0  0  0  0
  160.5600  205.7500  154.7880 N   0  0  0  0  0  0  0  0  0  0  0  0
  161.1810  209.5500  151.5750 C   0  0  0  0  0  3  0  0  0  0  0  0
  160.7960  209.4930  152.9180 C   0  0  0  0  0  0  0  0  0  0  0  0
  161.8920  208.4810  149.3850 C   0  0  1  0  0  3  0  0  0  0  0  0
  161.2140  204.6310  151.2980 C   0  0  2  0  0  3  0  0  0  0  0  0
  160.2140  206.8630  155.4850 C   0  0  0  0  0  3  0  0  0  0  0  0
  160.7010  211.7620  155.8910 C   0  0  0  0  0  0  0  0  0  0  0  0
  158.5740  214.4520  155.2300 O   0  0  0  0  0  1  0  0  0  0  0  0
  161.4800  212.0720  157.0010 O   0  0  0  0  0  1  0  0  0  0  0  0
  159.1070  212.8880  153.5620 C   0  0  0  0  0  3  0  0  0  0  0  0
  160.4910  210.7740  153.6030 C   0  0  0  0  0  0  0  0  0  0  0  0
  159.2650  212.1630  155.9110 C   0  0  0  0  0  2  0  0  0  0  0  0
  159.5850  211.5940  153.0370 C   0  0  0  0  0  3  0  0  0  0  0  0
  161.2440  211.1140  154.8470 C   0  0  0  0  0  0  0  0  0  0  0  0
  162.9340  210.6210  154.9470 Cl  0  0  0  0  0  0  0  0  0  0  0  0
  158.9920  213.1820  154.8560 C   0  0  0  0  0  0  0  0  0  0  0  0
  161.4700  209.8050  148.7340 C   0  0  0  0  0  2  0  0  0  0  0  0
  162.6570  210.7470  148.6370 C   0  0  0  0  0  1  0  0  0  0  0  0
  161.5210  207.3360  147.1210 C   0  0  0  0  0  2  0  0  0  0  0  0
  162.1000  206.0280  146.5980 C   0  0  0  0  0  1  0  0  0  0  0  0
  161.6680  203.4020  150.6380 N   0  0  0  0  0  2  0  0  0  0  0  0
  160.5340  202.5500  150.2870 C   0  0  0  0  0  1  0  0  0  0  0  0
  1  3  1  0  0  0  0
  2  4  1  0  0  0  0
  3 16  2  0  0  0  0
  4  8  1  0  0  0  0
  4  1  2  0  0  0  0
  5  9  1  6  0  0  0
  5 15  1  0  0  0  0
  5  2  1  0  0  0  0
  6  2  2  0  0  0  0
  6 12  1  0  0  0  0
  7 29  1  6  0  0  0
  7  9  1  0  0  0  0
  7 14  1  0  0  0  0
  8 11  2  0  0  0  0
 10  8  1  0  0  0  0
 11 16  1  0  0  0  0
 12 13  2  0  0  0  0
 13  1  1  0  0  0  0
 13 21  1  0  0  0  0
 14 27  1  6  0  0  0
 14  6  1  0  0  0  0
 15 31  1  6  0  0  0
 15 10  1  0  0  0  0
 17 22  1  0  0  0  0
 17 19  1  0  0  0  0
 20 26  2  0  0  0  0
 21 24  1  0  0  0  0
 23 20  1  0  0  0  0
 23 21  2  0  0  0  0
 24 25  1  0  0  0  0
 24 17  2  0  0  0  0
 26 18  1  0  0  0  0
 26 22  1  0  0  0  0
 28 27  1  0  0  0  0
 30 29  1  0  0  0  0
 32 31  1  0  0  0  0
M  END
>  <MODEL>
4

>  <REMARK>
 VINA RESULT:      -8.1      2.490      4.879
  Name = 
  4 active torsions:
  status: ('A' for Active; 'I' for Inactive)
    1  A    between atoms: C_9  and  C_28
    2  A    between atoms: C_11  and  C_12
    3  A    between atoms: N_13  and  C_29
    4  A    between atoms: C_16  and  C_27
                            x       y       z     vdW  Elec       q    Type
                         _______ _______ _______ _____ _____    ______ ____

>  <TORSDO>
F 4

$$$$
=
 OpenBabel11062408133D

 32 36  0  0  1  0  0  0  0  0999 V2000
  161.4080  209.4510  151.0230 C   0  0  0  0  0  0  0  0  0  0  0  0
  161.2580  207.0970  150.3460 C   0  0  0  0  0  0  0  0  0  0  0  0
  161.7300  210.7750  150.6950 C   0  0  0  0  0  3  0  0  0  0  0  0
  161.5310  208.4480  150.0290 C   0  0  0  0  0  0  0  0  0  0  0  0
  161.3070  206.0330  149.2610 C   0  0  2  0  0  3  0  0  0  0  0  0
  160.8660  206.7530  151.6540 C   0  0  0  0  0  0  0  0  0  0  0  0
  161.6260  204.4240  151.2810 C   0  0  1  0  0  3  0  0  0  0  0  0
  161.9560  208.8210  148.7350 C   0  0  0  0  0  0  0  0  0  0  0  0
  161.5800  204.6000  149.7590 C   0  0  0  0  0  2  0  0  0  0  0  0
  162.0290  207.8230  147.6190 C   0  0  0  0  0  2  0  0  0  0  0  0
  162.2390  210.1220  148.4600 N   0  0  0  0  0  0  0  0  0  0  0  0
  160.7200  207.7610  152.6150 C   0  0  0  0  0  3  0  0  0  0  0  0
  160.9800  209.1040  152.3250 C   0  0  0  0  0  0  0  0  0  0  0  0
  160.5890  205.3040  151.9940 C   0  0  1  0  0  3  0  0  0  0  0  0
  162.2940  206.4120  148.1460 C   0  0  2  0  0  3  0  0  0  0  0  0
  162.1440  211.0930  149.4040 C   0  0  0  0  0  3  0  0  0  0  0  0
  161.7980  210.6240  155.6450 C   0  0  0  0  0  0  0  0  0  0  0  0
  159.1910  212.7280  156.6310 O   0  0  0  0  0  1  0  0  0  0  0  0
  162.9150  210.9010  156.4270 O   0  0  0  0  0  1  0  0  0  0  0  0
  159.2060  211.7280  154.5070 C   0  0  0  0  0  3  0  0  0  0  0  0
  160.7950  210.0940  153.4160 C   0  0  0  0  0  0  0  0  0  0  0  0
  160.4630  210.6160  156.3100 C   0  0  0  0  0  2  0  0  0  0  0  0
  159.6160  210.7400  153.4910 C   0  0  0  0  0  3  0  0  0  0  0  0
  161.9400  210.3650  154.3340 C   0  0  0  0  0  0  0  0  0  0  0  0
  163.5670  210.3290  153.6550 Cl  0  0  0  0  0  0  0  0  0  0  0  0
  159.6070  211.7160  155.7770 C   0  0  0  0  0  0  0  0  0  0  0  0
  160.6200  205.0380  153.5050 C   0  0  0  0  0  2  0  0  0  0  0  0
  161.5810  205.9940  154.1900 C   0  0  0  0  0  1  0  0  0  0  0  0
  161.5100  202.9380  151.6340 C   0  0  0  0  0  2  0  0  0  0  0  0
  160.8340  202.1310  150.5330 C   0  0  0  0  0  1  0  0  0  0  0  0
  162.3210  205.4330  147.0540 N   0  0  0  0  0  2  0  0  0  0  0  0
  161.3810  205.8030  145.9980 C   0  0  0  0  0  1  0  0  0  0  0  0
  1 13  2  0  0  0  0
  2  6  1  0  0  0  0
  3  1  1  0  0  0  0
  4  2  2  0  0  0  0
  4  1  1  0  0  0  0
  5  9  1  1  0  0  0
  5  2  1  0  0  0  0
  6 14  1  0  0  0  0
  6 12  2  0  0  0  0
  7 29  1  6  0  0  0
  7 14  1  0  0  0  0
  8  4  1  0  0  0  0
  9  7  1  0  0  0  0
 10 15  1  0  0  0  0
 10  8  1  0  0  0  0
 11  8  2  0  0  0  0
 11 16  1  0  0  0  0
 13 12  1  0  0  0  0
 13 21  1  0  0  0  0
 14 27  1  1  0  0  0
 15 31  1  6  0  0  0
 15  5  1  0  0  0  0
 16  3  2  0  0  0  0
 17 22  1  0  0  0  0
 17 19  1  0  0  0  0
 20 26  2  0  0  0  0
 21 23  2  0  0  0  0
 21 24  1  0  0  0  0
 23 20  1  0  0  0  0
 24 17  2  0  0  0  0
 25 24  1  0  0  0  0
 26 22  1  0  0  0  0
 26 18  1  0  0  0  0
 27 28  1  0  0  0  0
 30 29  1  0  0  0  0
 32 31  1  0  0  0  0
M  END
>  <MODEL>
5

>  <REMARK>
 VINA RESULT:      -7.8      1.810      2.357
  Name = 
  4 active torsions:
  status: ('A' for Active; 'I' for Inactive)
    1  A    between atoms: C_9  and  C_28
    2  A    between atoms: C_11  and  C_12
    3  A    between atoms: N_13  and  C_29
    4  A    between atoms: C_16  and  C_27
                            x       y       z     vdW  Elec       q    Type
                         _______ _______ _______ _____ _____    ______ ____

>  <TORSDO>
F 4

$$$$
=
 OpenBabel11062408133D

 32 36  0  0  1  0  0  0  0  0999 V2000
  160.6740  212.4630  149.9790 C   0  0  0  0  0  0  0  0  0  0  0  0
  161.2570  210.4390  151.2390 C   0  0  0  0  0  0  0  0  0  0  0  0
  160.0730  213.7290  149.9550 C   0  0  0  0  0  3  0  0  0  0  0  0
  160.6990  211.7390  151.1970 C   0  0  0  0  0  0  0  0  0  0  0  0
  161.3610  209.6950  152.5610 C   0  0  2  0  0  3  0  0  0  0  0  0
  161.7840  209.8690  150.0640 C   0  0  0  0  0  0  0  0  0  0  0  0
  161.4900  207.6010  151.0200 C   0  0  1  0  0  3  0  0  0  0  0  0
  160.1340  212.3260  152.3500 C   0  0  0  0  0  0  0  0  0  0  0  0
  161.4120  208.1590  152.4470 C   0  0  0  0  0  2  0  0  0  0  0  0
  160.2000  211.6470  153.6850 C   0  0  0  0  0  2  0  0  0  0  0  0
  159.5790  213.5650  152.2800 N   0  0  0  0  0  0  0  0  0  0  0  0
  161.7790  210.6110  148.8770 C   0  0  0  0  0  3  0  0  0  0  0  0
  161.2370  211.8980  148.8110 C   0  0  0  0  0  0  0  0  0  0  0  0
  162.3670  208.4720  150.1090 C   0  0  1  0  0  3  0  0  0  0  0  0
  160.2550  210.1260  153.5370 C   0  0  2  0  0  3  0  0  0  0  0  0
  159.5300  214.2660  151.1190 C   0  0  0  0  0  3  0  0  0  0  0  0
  160.1090  212.5080  145.2970 C   0  0  0  0  0  0  0  0  0  0  0  0
  162.4860  214.4530  143.6360 O   0  0  0  0  0  1  0  0  0  0  0  0
  158.9290  212.5200  144.5590 O   0  0  0  0  0  1  0  0  0  0  0  0
  162.6740  214.0060  145.9320 C   0  0  0  0  0  3  0  0  0  0  0  0
  161.2810  212.6000  147.5040 C   0  0  0  0  0  0  0  0  0  0  0  0
  161.3970  212.4150  144.5520 C   0  0  0  0  0  2  0  0  0  0  0  0
  162.4020  213.2750  147.1850 C   0  0  0  0  0  3  0  0  0  0  0  0
  160.0650  212.5710  146.6380 C   0  0  0  0  0  0  0  0  0  0  0  0
  158.4900  212.6080  147.4290 Cl  0  0  0  0  0  0  0  0  0  0  0  0
  162.1990  213.6590  144.7370 C   0  0  0  0  0  0  0  0  0  0  0  0
  162.4770  207.8350  148.7180 C   0  0  0  0  0  2  0  0  0  0  0  0
  161.1780  207.1390  148.3510 C   0  0  0  0  0  1  0  0  0  0  0  0
  161.9240  206.1330  151.0610 C   0  0  0  0  0  2  0  0  0  0  0  0
  161.1380  205.3240  152.0860 C   0  0  0  0  0  1  0  0  0  0  0  0
  160.3640  209.4680  154.8440 N   0  0  0  0  0  2  0  0  0  0  0  0
  159.3360  209.9560  155.7600 C   0  0  0  0  0  1  0  0  0  0  0  0
  1  4  1  0  0  0  0
  2  5  1  0  0  0  0
  3  1  2  0  0  0  0
  3 16  1  0  0  0  0
  4  2  1  0  0  0  0
  4  8  2  0  0  0  0
  5  9  1  6  0  0  0
  5 15  1  0  0  0  0
  6 14  1  0  0  0  0
  6  2  2  0  0  0  0
  7 29  1  1  0  0  0
  7  9  1  0  0  0  0
  8 10  1  0  0  0  0
 11  8  1  0  0  0  0
 12  6  1  0  0  0  0
 13 12  2  0  0  0  0
 13  1  1  0  0  0  0
 14 27  1  6  0  0  0
 14  7  1  0  0  0  0
 15 10  1  0  0  0  0
 15 31  1  1  0  0  0
 16 11  2  0  0  0  0
 17 24  2  0  0  0  0
 18 26  1  0  0  0  0
 19 17  1  0  0  0  0
 20 23  1  0  0  0  0
 21 13  1  0  0  0  0
 22 26  1  0  0  0  0
 22 17  1  0  0  0  0
 23 21  2  0  0  0  0
 24 25  1  0  0  0  0
 24 21  1  0  0  0  0
 26 20  2  0  0  0  0
 28 27  1  0  0  0  0
 29 30  1  0  0  0  0
 31 32  1  0  0  0  0
M  END
>  <MODEL>
6

>  <REMARK>
 VINA RESULT:      -7.4      4.983      7.992
  Name = 
  4 active torsions:
  status: ('A' for Active; 'I' for Inactive)
    1  A    between atoms: C_9  and  C_28
    2  A    between atoms: C_11  and  C_12
    3  A    between atoms: N_13  and  C_29
    4  A    between atoms: C_16  and  C_27
                            x       y       z     vdW  Elec       q    Type
                         _______ _______ _______ _____ _____    ______ ____

>  <TORSDO>
F 4

$$$$
=
 OpenBabel11062408133D

 32 36  0  0  1  0  0  0  0  0999 V2000
  161.5780  208.1370  149.4300 C   0  0  0  0  0  0  0  0  0  0  0  0
  161.6560  208.0190  151.8810 C   0  0  0  0  0  0  0  0  0  0  0  0
  161.6600  208.9100  148.2640 C   0  0  0  0  0  3  0  0  0  0  0  0
  161.7790  208.7640  150.6850 C   0  0  0  0  0  0  0  0  0  0  0  0
  161.9540  208.6700  153.2220 C   0  0  2  0  0  3  0  0  0  0  0  0
  161.3270  206.6510  151.8180 C   0  0  0  0  0  0  0  0  0  0  0  0
  160.4760  206.7370  154.1440 C   0  0  1  0  0  3  0  0  0  0  0  0
  162.0760  210.1450  150.7160 C   0  0  0  0  0  0  0  0  0  0  0  0
  161.2580  208.0230  154.4350 C   0  0  0  0  0  2  0  0  0  0  0  0
  162.3790  210.8500  152.0030 C   0  0  0  0  0  2  0  0  0  0  0  0
  162.1640  210.8480  149.5550 N   0  0  0  0  0  0  0  0  0  0  0  0
  161.1620  206.0400  150.5690 C   0  0  0  0  0  3  0  0  0  0  0  0
  161.2830  206.7550  149.3730 C   0  0  0  0  0  0  0  0  0  0  0  0
  161.1810  205.8580  153.1000 C   0  0  1  0  0  3  0  0  0  0  0  0
  161.6800  210.1810  153.1870 C   0  0  2  0  0  3  0  0  0  0  0  0
  161.9560  210.2680  148.3460 C   0  0  0  0  0  3  0  0  0  0  0  0
  161.6350  203.7650  147.1520 C   0  0  0  0  0  0  0  0  0  0  0  0
  160.9650  204.6860  143.8510 O   0  0  0  0  0  1  0  0  0  0  0  0
  161.5960  202.3770  147.2450 O   0  0  0  0  0  1  0  0  0  0  0  0
  160.6510  206.1970  145.6200 C   0  0  0  0  0  3  0  0  0  0  0  0
  161.0890  206.0130  148.1020 C   0  0  0  0  0  0  0  0  0  0  0  0
  162.2690  204.3670  145.9440 C   0  0  0  0  0  2  0  0  0  0  0  0
  160.8390  206.7240  146.9860 C   0  0  0  0  0  3  0  0  0  0  0  0
  161.1210  204.5200  148.1370 C   0  0  0  0  0  0  0  0  0  0  0  0
  160.4560  203.7150  149.5580 Cl  0  0  0  0  0  0  0  0  0  0  0  0
  161.2560  205.1120  145.1400 C   0  0  0  0  0  0  0  0  0  0  0  0
  160.4030  204.5510  152.8980 C   0  0  0  0  0  2  0  0  0  0  0  0
  161.3290  203.4600  152.3860 C   0  0  0  0  0  1  0  0  0  0  0  0
  160.1780  206.0030  155.4550 C   0  0  0  0  0  2  0  0  0  0  0  0
  160.0810  206.9530  156.6420 C   0  0  0  0  0  1  0  0  0  0  0  0
  162.0140  210.8490  154.4500 N   0  0  0  0  0  2  0  0  0  0  0  0
  160.8310  211.4680  155.0410 C   0  0  0  0  0  1  0  0  0  0  0  0
  1  4  1  0  0  0  0
  2  5  1  0  0  0  0
  3 16  2  0  0  0  0
  3  1  1  0  0  0  0
  4  8  1  0  0  0  0
  4  2  2  0  0  0  0
  5  9  1  1  0  0  0
  6  2  1  0  0  0  0
  6 14  1  0  0  0  0
  7  9  1  0  0  0  0
  7 29  1  1  0  0  0
  8 10  1  0  0  0  0
 10 15  1  0  0  0  0
 11  8  2  0  0  0  0
 12  6  2  0  0  0  0
 13  1  2  0  0  0  0
 13 12  1  0  0  0  0
 14 27  1  6  0  0  0
 14  7  1  0  0  0  0
 15  5  1  0  0  0  0
 15 31  1  1  0  0  0
 16 11  1  0  0  0  0
 17 19  1  0  0  0  0
 17 24  2  0  0  0  0
 18 26  1  0  0  0  0
 20 23  1  0  0  0  0
 21 24  1  0  0  0  0
 21 13  1  0  0  0  0
 22 17  1  0  0  0  0
 23 21  2  0  0  0  0
 24 25  1  0  0  0  0
 26 20  2  0  0  0  0
 26 22  1  0  0  0  0
 28 27  1  0  0  0  0
 29 30  1  0  0  0  0
 31 32  1  0  0  0  0
M  END
>  <MODEL>
7

>  <REMARK>
 VINA RESULT:      -7.0      3.568      7.065
  Name = 
  4 active torsions:
  status: ('A' for Active; 'I' for Inactive)
    1  A    between atoms: C_9  and  C_28
    2  A    between atoms: C_11  and  C_12
    3  A    between atoms: N_13  and  C_29
    4  A    between atoms: C_16  and  C_27
                            x       y       z     vdW  Elec       q    Type
                         _______ _______ _______ _____ _____    ______ ____

>  <TORSDO>
F 4

$$$$
