=
 OpenBabel11062408313D

 32 34  0  0  1  0  0  0  0  0999 V2000
  161.4060  208.9240  149.6980 S   0  0  0  0  0  0  0  0  0  0  0  0
  162.2550  207.3330  149.4400 C   0  0  1  0  0  3  0  0  0  0  0  0
  161.6750  208.7790  151.4700 C   0  0  0  0  0  0  0  0  0  0  0  0
  161.3100  207.6570  152.1100 C   0  0  0  0  0  0  0  0  0  0  0  0
  160.6660  206.5430  151.3220 C   0  0  0  0  0  2  0  0  0  0  0  0
  161.4680  206.1660  150.0640 C   0  0  0  0  0  2  0  0  0  0  0  0
  162.4110  209.8710  152.1770 C   0  0  0  0  0  2  0  0  0  0  0  0
  161.4610  210.7310  152.9360 C   0  0  0  0  0  0  0  0  0  0  0  0
  157.4830  211.8520  154.6180 C   0  0  0  0  0  2  0  0  0  0  0  0
  160.4960  211.3680  152.3650 N   0  0  0  0  0  0  0  0  0  0  0  0
  159.5140  211.1410  155.7510 C   0  0  0  0  0  2  0  0  0  0  0  0
  160.4300  211.7680  154.7010 C   0  0  1  0  0  3  0  0  0  0  0  0
  161.4980  210.8500  154.3450 N   0  0  0  0  0  2  0  0  0  0  0  0
  159.6950  212.0490  153.3710 C   0  0  2  0  0  3  0  0  0  0  0  0
  158.2890  211.9320  155.8490 N   0  0  0  0  0  2  0  0  0  0  0  0
  158.2790  211.4630  153.3590 C   0  0  0  0  0  2  0  0  0  0  0  0
  161.5550  207.5220  153.4790 O   0  0  0  0  0  0  0  0  0  0  0  0
  160.7860  206.6620  154.3070 C   0  0  0  0  0  2  0  0  0  0  0  0
  160.1750  207.4680  155.4340 C   0  0  0  0  0  2  0  0  0  0  0  0
  161.2650  207.9090  156.3840 C   0  0  0  0  0  1  0  0  0  0  0  0
  162.5090  207.0820  147.9640 C   0  0  0  0  0  2  0  0  0  0  0  0
  162.6460  205.9120  145.3610 O   0  0  0  0  0  0  0  0  0  0  0  0
  162.0620  205.2650  146.2710 C   0  0  0  0  0  0  0  0  0  0  0  0
  161.8580  205.8440  147.5600 N   0  0  0  0  0  2  0  0  0  0  0  0
  161.6150  203.8670  146.0090 C   0  0  0  0  0  2  0  0  0  0  0  0
  161.4420  203.0940  147.3110 C   0  0  0  0  0  2  0  0  0  0  0  0
  160.9770  201.6670  147.0480 C   0  0  0  0  0  2  0  0  0  0  0  0
  161.2820  200.7680  148.2370 C   0  0  0  0  0  2  0  0  0  0  0  0
  160.6070  201.2770  149.4710 C   0  0  0  0  0  0  0  0  0  0  0  0
  159.3590  201.4370  149.4670 O   0  0  0  0  0  0  0  0  0  0  0  0
  161.3260  201.5560  150.6360 O   0  0  0  0  0  0  0  0  0  0  0  0
  161.0660  202.7000  151.4370 C   0  0  0  0  0  1  0  0  0  0  0  0
  1  3  1  0  0  0  0
  2 21  1  6  0  0  0
  2  1  1  0  0  0  0
  2  6  1  0  0  0  0
  3  4  2  0  0  0  0
  3  7  1  0  0  0  0
  4 17  1  0  0  0  0
  5  4  1  0  0  0  0
  6  5  1  0  0  0  0
  7  8  1  0  0  0  0
  8 13  1  0  0  0  0
  9 15  1  0  0  0  0
 10  8  2  0  0  0  0
 10 14  1  0  0  0  0
 11 15  1  0  0  0  0
 12 11  1  1  0  0  0
 13 12  1  0  0  0  0
 14 16  1  1  0  0  0
 14 12  1  0  0  0  0
 16  9  1  0  0  0  0
 17 18  1  0  0  0  0
 18 19  1  0  0  0  0
 19 20  1  0  0  0  0
 22 23  2  0  0  0  0
 23 24  1  0  0  0  0
 24 21  1  0  0  0  0
 25 23  1  0  0  0  0
 25 26  1  0  0  0  0
 27 26  1  0  0  0  0
 27 28  1  0  0  0  0
 28 29  1  0  0  0  0
 29 31  1  0  0  0  0
 30 29  2  0  0  0  0
 31 32  1  0  0  0  0
M  END
>  <MODEL>
1

>  <REMARK>
 VINA RESULT:      -6.5      0.000      0.000
  Name = 
  13 active torsions:
  status: ('A' for Active; 'I' for Inactive)
    1  A    between atoms: C_2  and  C_5
    2  A    between atoms: C_2  and  C_6
    3  A    between atoms: C_3  and  C_19
    4  A    between atoms: C_3  and  O_22
    5  A    between atoms: C_4  and  C_27
    6  A    between atoms: C_7  and  C_19
    7  A    between atoms: C_7  and  C_26
    8  A    between atoms: C_13  and  C_29
    9  A    between atoms: C_14  and  O_18
   10  A    between atoms: C_15  and  C_20
   11  A    between atoms: C_15  and  C_26
   12  A    between atoms: O_18  and  C_29
   13  A    between atoms: N_24  and  C_27
                            x       y       z     vdW  Elec       q    Type
                         _______ _______ _______ _____ _____    ______ ____

>  <TORSDO>
F 13

$$$$
=
 OpenBabel11062408313D

 32 34  0  0  1  0  0  0  0  0999 V2000
  161.5530  208.0040  151.1910 S   0  0  0  0  0  0  0  0  0  0  0  0
  160.8940  208.0420  152.8890 C   0  0  1  0  0  3  0  0  0  0  0  0
  160.9080  206.3390  150.9800 C   0  0  0  0  0  0  0  0  0  0  0  0
  161.1980  205.3920  151.8850 C   0  0  0  0  0  0  0  0  0  0  0  0
  162.0760  205.7480  153.0600 C   0  0  0  0  0  2  0  0  0  0  0  0
  161.6010  207.0150  153.7920 C   0  0  0  0  0  2  0  0  0  0  0  0
  159.9590  206.0730  149.8560 C   0  0  0  0  0  2  0  0  0  0  0  0
  160.7060  205.8780  148.5810 C   0  0  0  0  0  0  0  0  0  0  0  0
  161.6830  203.8250  144.7430 C   0  0  0  0  0  2  0  0  0  0  0  0
  161.4860  204.8720  148.3840 N   0  0  0  0  0  0  0  0  0  0  0  0
  160.6700  206.0010  145.1370 C   0  0  0  0  0  2  0  0  0  0  0  0
  161.4380  206.2260  146.4370 C   0  0  1  0  0  3  0  0  0  0  0  0
  160.5530  206.7390  147.4680 N   0  0  0  0  0  2  0  0  0  0  0  0
  162.0030  204.9120  147.0240 C   0  0  2  0  0  3  0  0  0  0  0  0
  161.4880  205.1940  144.2330 N   0  0  0  0  0  2  0  0  0  0  0  0
  161.5010  203.6800  146.2640 C   0  0  0  0  0  2  0  0  0  0  0  0
  160.6650  204.1070  151.7490 O   0  0  0  0  0  0  0  0  0  0  0  0
  161.4500  203.0000  151.3330 C   0  0  0  0  0  2  0  0  0  0  0  0
  160.5510  201.9590  150.7010 C   0  0  0  0  0  2  0  0  0  0  0  0
  161.1120  201.5610  149.3550 C   0  0  0  0  0  1  0  0  0  0  0  0
  160.9920  209.4370  153.4820 C   0  0  0  0  0  2  0  0  0  0  0  0
  158.6800  210.9790  154.1470 O   0  0  0  0  0  0  0  0  0  0  0  0
  159.2430  211.2040  153.0430 C   0  0  0  0  0  0  0  0  0  0  0  0
  160.3300  210.3900  152.6020 N   0  0  0  0  0  2  0  0  0  0  0  0
  158.7960  212.3550  152.2090 C   0  0  0  0  0  2  0  0  0  0  0  0
  159.9380  212.8890  151.3530 C   0  0  0  0  0  2  0  0  0  0  0  0
  159.4120  213.6740  150.1570 C   0  0  0  0  0  2  0  0  0  0  0  0
  160.5430  214.3950  149.4400 C   0  0  0  0  0  2  0  0  0  0  0  0
  161.1030  213.5430  148.3450 C   0  0  0  0  0  0  0  0  0  0  0  0
  160.5680  213.5760  147.2070 O   0  0  0  0  0  0  0  0  0  0  0  0
  162.2200  212.7300  148.5500 O   0  0  0  0  0  0  0  0  0  0  0  0
  162.1430  211.3110  148.5340 C   0  0  0  0  0  1  0  0  0  0  0  0
  1  2  1  0  0  0  0
  2 21  1  1  0  0  0
  2  6  1  0  0  0  0
  3  1  1  0  0  0  0
  3  4  2  0  0  0  0
  4  5  1  0  0  0  0
  5  6  1  0  0  0  0
  7  3  1  0  0  0  0
  8  7  1  0  0  0  0
  9 16  1  0  0  0  0
 10  8  2  0  0  0  0
 12 11  1  6  0  0  0
 12 14  1  0  0  0  0
 12 13  1  0  0  0  0
 13  8  1  0  0  0  0
 14 16  1  6  0  0  0
 14 10  1  0  0  0  0
 15  9  1  0  0  0  0
 15 11  1  0  0  0  0
 17  4  1  0  0  0  0
 18 17  1  0  0  0  0
 19 18  1  0  0  0  0
 20 19  1  0  0  0  0
 23 22  2  0  0  0  0
 24 23  1  0  0  0  0
 24 21  1  0  0  0  0
 25 23  1  0  0  0  0
 26 25  1  0  0  0  0
 27 26  1  0  0  0  0
 28 27  1  0  0  0  0
 29 31  1  0  0  0  0
 29 28  1  0  0  0  0
 30 29  2  0  0  0  0
 32 31  1  0  0  0  0
M  END
>  <MODEL>
2

>  <REMARK>
 VINA RESULT:      -6.3      2.955      9.088
  Name = 
  13 active torsions:
  status: ('A' for Active; 'I' for Inactive)
    1  A    between atoms: C_2  and  C_5
    2  A    between atoms: C_2  and  C_6
    3  A    between atoms: C_3  and  C_19
    4  A    between atoms: C_3  and  O_22
    5  A    between atoms: C_4  and  C_27
    6  A    between atoms: C_7  and  C_19
    7  A    between atoms: C_7  and  C_26
    8  A    between atoms: C_13  and  C_29
    9  A    between atoms: C_14  and  O_18
   10  A    between atoms: C_15  and  C_20
   11  A    between atoms: C_15  and  C_26
   12  A    between atoms: O_18  and  C_29
   13  A    between atoms: N_24  and  C_27
                            x       y       z     vdW  Elec       q    Type
                         _______ _______ _______ _____ _____    ______ ____

>  <TORSDO>
F 13

$$$$
=
 OpenBabel11062408313D

 32 34  0  0  1  0  0  0  0  0999 V2000
  162.7600  207.4050  150.7580 S   0  0  0  0  0  0  0  0  0  0  0  0
  161.7710  208.6420  149.8580 C   0  0  1  0  0  3  0  0  0  0  0  0
  161.6810  207.5850  152.1870 C   0  0  0  0  0  0  0  0  0  0  0  0
  161.4320  208.8060  152.6830 C   0  0  0  0  0  0  0  0  0  0  0  0
  162.0790  210.0050  152.0340 C   0  0  0  0  0  2  0  0  0  0  0  0
  161.8790  210.0320  150.5090 C   0  0  0  0  0  2  0  0  0  0  0  0
  160.9880  206.3730  152.7210 C   0  0  0  0  0  2  0  0  0  0  0  0
  161.2070  205.2090  151.8160 C   0  0  0  0  0  0  0  0  0  0  0  0
  160.8690  200.9380  150.5720 C   0  0  0  0  0  2  0  0  0  0  0  0
  161.9630  204.2160  152.1370 N   0  0  0  0  0  0  0  0  0  0  0  0
  159.8400  202.9280  149.6240 C   0  0  0  0  0  2  0  0  0  0  0  0
  161.0170  203.8270  149.9970 C   0  0  1  0  0  3  0  0  0  0  0  0
  160.5410  205.0720  150.5750 N   0  0  0  0  0  2  0  0  0  0  0  0
  161.9100  203.2030  151.0930 C   0  0  2  0  0  3  0  0  0  0  0  0
  160.3370  201.5790  149.3560 N   0  0  0  0  0  2  0  0  0  0  0  0
  161.3020  201.9220  151.6730 C   0  0  0  0  0  2  0  0  0  0  0  0
  160.5630  208.9560  153.7670 O   0  0  0  0  0  0  0  0  0  0  0  0
  161.0290  209.1300  155.0970 C   0  0  0  0  0  2  0  0  0  0  0  0
  159.9510  208.6930  156.0650 C   0  0  0  0  0  2  0  0  0  0  0  0
  160.0630  207.2040  156.3030 C   0  0  0  0  0  1  0  0  0  0  0  0
  162.1700  208.7000  148.3940 C   0  0  0  0  0  2  0  0  0  0  0  0
  160.6400  206.5730  147.2550 O   0  0  0  0  0  0  0  0  0  0  0  0
  161.8900  206.4340  147.3180 C   0  0  0  0  0  0  0  0  0  0  0  0
  162.6980  207.4080  147.9790 N   0  0  0  0  0  2  0  0  0  0  0  0
  162.5340  205.2620  146.6600 C   0  0  0  0  0  2  0  0  0  0  0  0
  162.1100  205.1510  145.2000 C   0  0  0  0  0  2  0  0  0  0  0  0
  161.1470  203.9870  144.9930 C   0  0  0  0  0  2  0  0  0  0  0  0
  161.1720  203.0430  146.1850 C   0  0  0  0  0  2  0  0  0  0  0  0
  160.7140  201.6760  145.7860 C   0  0  0  0  0  0  0  0  0  0  0  0
  159.8570  201.5570  144.8720 O   0  0  0  0  0  0  0  0  0  0  0  0
  161.2330  200.5260  146.3870 O   0  0  0  0  0  0  0  0  0  0  0  0
  161.1570  199.2460  145.7750 C   0  0  0  0  0  1  0  0  0  0  0  0
  1  3  1  0  0  0  0
  2 21  1  6  0  0  0
  2  6  1  0  0  0  0
  2  1  1  0  0  0  0
  3  4  2  0  0  0  0
  3  7  1  0  0  0  0
  4 17  1  0  0  0  0
  5  4  1  0  0  0  0
  6  5  1  0  0  0  0
  8 10  2  0  0  0  0
  8  7  1  0  0  0  0
  9 16  1  0  0  0  0
 12 11  1  1  0  0  0
 12 13  1  0  0  0  0
 12 14  1  0  0  0  0
 13  8  1  0  0  0  0
 14 16  1  1  0  0  0
 14 10  1  0  0  0  0
 15 11  1  0  0  0  0
 15  9  1  0  0  0  0
 17 18  1  0  0  0  0
 18 19  1  0  0  0  0
 19 20  1  0  0  0  0
 22 23  2  0  0  0  0
 23 24  1  0  0  0  0
 24 21  1  0  0  0  0
 25 23  1  0  0  0  0
 26 25  1  0  0  0  0
 27 26  1  0  0  0  0
 27 28  1  0  0  0  0
 29 28  1  0  0  0  0
 29 31  1  0  0  0  0
 30 29  2  0  0  0  0
 32 31  1  0  0  0  0
M  END
>  <MODEL>
3

>  <REMARK>
 VINA RESULT:      -6.2      3.118      5.678
  Name = 
  13 active torsions:
  status: ('A' for Active; 'I' for Inactive)
    1  A    between atoms: C_2  and  C_5
    2  A    between atoms: C_2  and  C_6
    3  A    between atoms: C_3  and  C_19
    4  A    between atoms: C_3  and  O_22
    5  A    between atoms: C_4  and  C_27
    6  A    between atoms: C_7  and  C_19
    7  A    between atoms: C_7  and  C_26
    8  A    between atoms: C_13  and  C_29
    9  A    between atoms: C_14  and  O_18
   10  A    between atoms: C_15  and  C_20
   11  A    between atoms: C_15  and  C_26
   12  A    between atoms: O_18  and  C_29
   13  A    between atoms: N_24  and  C_27
                            x       y       z     vdW  Elec       q    Type
                         _______ _______ _______ _____ _____    ______ ____

>  <TORSDO>
F 13

$$$$
=
 OpenBabel11062408313D

 32 34  0  0  1  0  0  0  0  0999 V2000
  161.5470  207.6630  151.1360 S   0  0  0  0  0  0  0  0  0  0  0  0
  160.8620  207.8570  152.8120 C   0  0  1  0  0  3  0  0  0  0  0  0
  160.9310  205.9740  151.0820 C   0  0  0  0  0  0  0  0  0  0  0  0
  161.2210  205.1270  152.0800 C   0  0  0  0  0  0  0  0  0  0  0  0
  162.0760  205.6110  153.2260 C   0  0  0  0  0  2  0  0  0  0  0  0
  161.5710  206.9370  153.8220 C   0  0  0  0  0  2  0  0  0  0  0  0
  160.0040  205.5830  149.9760 C   0  0  0  0  0  2  0  0  0  0  0  0
  160.7210  205.5910  148.6700 C   0  0  0  0  0  0  0  0  0  0  0  0
  161.7250  204.0600  144.6010 C   0  0  0  0  0  2  0  0  0  0  0  0
  161.5690  204.6780  148.3410 N   0  0  0  0  0  0  0  0  0  0  0  0
  160.5630  206.0910  145.2640 C   0  0  0  0  0  2  0  0  0  0  0  0
  161.3540  206.2320  146.5620 C   0  0  1  0  0  3  0  0  0  0  0  0
  160.4670  206.5540  147.6660 N   0  0  0  0  0  2  0  0  0  0  0  0
  162.0360  204.9090  146.9820 C   0  0  2  0  0  3  0  0  0  0  0  0
  161.4100  205.4580  144.2540 N   0  0  0  0  0  2  0  0  0  0  0  0
  161.6050  203.7330  146.1000 C   0  0  0  0  0  2  0  0  0  0  0  0
  160.7110  203.8250  152.0640 O   0  0  0  0  0  0  0  0  0  0  0  0
  161.4090  202.7430  151.4680 C   0  0  0  0  0  2  0  0  0  0  0  0
  160.4790  202.0050  150.5290 C   0  0  0  0  0  2  0  0  0  0  0  0
  161.2950  201.2180  149.5290 C   0  0  0  0  0  1  0  0  0  0  0  0
  160.9300  209.3050  153.2660 C   0  0  0  0  0  2  0  0  0  0  0  0
  160.6600  211.7330  154.7480 O   0  0  0  0  0  0  0  0  0  0  0  0
  160.2770  210.6630  155.2910 C   0  0  0  0  0  0  0  0  0  0  0  0
  160.4910  209.4050  154.6510 N   0  0  0  0  0  2  0  0  0  0  0  0
  159.5590  210.7150  156.5960 C   0  0  0  0  0  2  0  0  0  0  0  0
  158.3810  211.6810  156.5350 C   0  0  0  0  0  2  0  0  0  0  0  0
  157.3290  211.2050  155.5410 C   0  0  0  0  0  2  0  0  0  0  0  0
  156.1860  212.2040  155.4400 C   0  0  0  0  0  2  0  0  0  0  0  0
  156.2320  212.9290  154.1310 C   0  0  0  0  0  0  0  0  0  0  0  0
  155.1750  213.4340  153.6710 O   0  0  0  0  0  0  0  0  0  0  0  0
  157.4250  213.0790  153.4190 O   0  0  0  0  0  0  0  0  0  0  0  0
  158.2810  214.1990  153.5950 C   0  0  0  0  0  1  0  0  0  0  0  0
  1  2  1  0  0  0  0
  2 21  1  1  0  0  0
  2  6  1  0  0  0  0
  3  1  1  0  0  0  0
  3  4  2  0  0  0  0
  4  5  1  0  0  0  0
  5  6  1  0  0  0  0
  7  3  1  0  0  0  0
  8  7  1  0  0  0  0
  9 16  1  0  0  0  0
 10  8  2  0  0  0  0
 12 11  1  6  0  0  0
 12 14  1  0  0  0  0
 12 13  1  0  0  0  0
 13  8  1  0  0  0  0
 14 16  1  6  0  0  0
 14 10  1  0  0  0  0
 15  9  1  0  0  0  0
 15 11  1  0  0  0  0
 17  4  1  0  0  0  0
 18 17  1  0  0  0  0
 19 18  1  0  0  0  0
 20 19  1  0  0  0  0
 21 24  1  0  0  0  0
 22 23  2  0  0  0  0
 23 25  1  0  0  0  0
 24 23  1  0  0  0  0
 26 25  1  0  0  0  0
 27 26  1  0  0  0  0
 28 27  1  0  0  0  0
 29 28  1  0  0  0  0
 30 29  2  0  0  0  0
 31 32  1  0  0  0  0
 31 29  1  0  0  0  0
M  END
>  <MODEL>
4

>  <REMARK>
 VINA RESULT:      -6.1      2.614      9.638
  Name = 
  13 active torsions:
  status: ('A' for Active; 'I' for Inactive)
    1  A    between atoms: C_2  and  C_5
    2  A    between atoms: C_2  and  C_6
    3  A    between atoms: C_3  and  C_19
    4  A    between atoms: C_3  and  O_22
    5  A    between atoms: C_4  and  C_27
    6  A    between atoms: C_7  and  C_19
    7  A    between atoms: C_7  and  C_26
    8  A    between atoms: C_13  and  C_29
    9  A    between atoms: C_14  and  O_18
   10  A    between atoms: C_15  and  C_20
   11  A    between atoms: C_15  and  C_26
   12  A    between atoms: O_18  and  C_29
   13  A    between atoms: N_24  and  C_27
                            x       y       z     vdW  Elec       q    Type
                         _______ _______ _______ _____ _____    ______ ____

>  <TORSDO>
F 13

$$$$
=
 OpenBabel11062408313D

 32 34  0  0  1  0  0  0  0  0999 V2000
  162.2600  208.4270  148.2600 S   0  0  0  0  0  0  0  0  0  0  0  0
  161.7640  209.9660  149.0980 C   0  0  1  0  0  3  0  0  0  0  0  0
  161.2870  207.4750  149.4370 C   0  0  0  0  0  0  0  0  0  0  0  0
  161.4620  207.6660  150.7530 C   0  0  0  0  0  0  0  0  0  0  0  0
  162.4870  208.6720  151.2170 C   0  0  0  0  0  2  0  0  0  0  0  0
  162.3300  210.0380  150.5270 C   0  0  0  0  0  2  0  0  0  0  0  0
  160.2150  206.5720  148.9190 C   0  0  0  0  0  2  0  0  0  0  0  0
  160.8100  205.3170  148.3780 C   0  0  0  0  0  0  0  0  0  0  0  0
  160.8300  200.9840  147.3180 C   0  0  0  0  0  2  0  0  0  0  0  0
  161.0950  204.3080  149.1270 N   0  0  0  0  0  0  0  0  0  0  0  0
  160.8270  202.9440  145.8790 C   0  0  0  0  0  2  0  0  0  0  0  0
  161.6200  203.7900  146.8730 C   0  0  1  0  0  3  0  0  0  0  0  0
  161.0320  205.1130  146.9960 N   0  0  0  0  0  2  0  0  0  0  0  0
  161.5800  203.2090  148.3040 C   0  0  2  0  0  3  0  0  0  0  0  0
  161.2290  201.5450  146.0150 N   0  0  0  0  0  2  0  0  0  0  0  0
  160.6050  202.0320  148.4220 C   0  0  0  0  0  2  0  0  0  0  0  0
  160.6800  206.9600  151.6720 O   0  0  0  0  0  0  0  0  0  0  0  0
  160.8510  207.0920  153.0750 C   0  0  0  0  0  2  0  0  0  0  0  0
  161.4800  205.8280  153.6230 C   0  0  0  0  0  2  0  0  0  0  0  0
  161.2060  204.6810  152.6780 C   0  0  0  0  0  1  0  0  0  0  0  0
  162.1800  211.1850  148.2930 C   0  0  0  0  0  2  0  0  0  0  0  0
  160.0510  212.7030  147.1420 O   0  0  0  0  0  0  0  0  0  0  0  0
  160.4510  213.0240  148.2920 C   0  0  0  0  0  0  0  0  0  0  0  0
  161.5860  212.3810  148.8730 N   0  0  0  0  0  2  0  0  0  0  0  0
  159.7090  214.0570  149.0690 C   0  0  0  0  0  2  0  0  0  0  0  0
  160.2180  214.1350  150.5030 C   0  0  0  0  0  2  0  0  0  0  0  0
  159.1870  213.5910  151.4850 C   0  0  0  0  0  2  0  0  0  0  0  0
  159.6280  212.2500  152.0500 C   0  0  0  0  0  2  0  0  0  0  0  0
  159.2000  212.1100  153.4770 C   0  0  0  0  0  0  0  0  0  0  0  0
  159.9990  212.4340  154.3930 O   0  0  0  0  0  0  0  0  0  0  0  0
  157.9240  211.6520  153.8160 O   0  0  0  0  0  0  0  0  0  0  0  0
  156.8760  212.5300  154.2000 C   0  0  0  0  0  1  0  0  0  0  0  0
  1  2  1  0  0  0  0
  1  3  1  0  0  0  0
  2 21  1  6  0  0  0
  2  6  1  0  0  0  0
  3  4  2  0  0  0  0
  4  5  1  0  0  0  0
  4 17  1  0  0  0  0
  6  5  1  0  0  0  0
  7  3  1  0  0  0  0
  8  7  1  0  0  0  0
  8 10  2  0  0  0  0
  9 16  1  0  0  0  0
 11 15  1  0  0  0  0
 12 11  1  6  0  0  0
 12 13  1  0  0  0  0
 12 14  1  0  0  0  0
 13  8  1  0  0  0  0
 14 16  1  6  0  0  0
 14 10  1  0  0  0  0
 15  9  1  0  0  0  0
 17 18  1  0  0  0  0
 18 19  1  0  0  0  0
 20 19  1  0  0  0  0
 21 24  1  0  0  0  0
 22 23  2  0  0  0  0
 23 24  1  0  0  0  0
 23 25  1  0  0  0  0
 25 26  1  0  0  0  0
 26 27  1  0  0  0  0
 27 28  1  0  0  0  0
 28 29  1  0  0  0  0
 29 31  1  0  0  0  0
 29 30  2  0  0  0  0
 31 32  1  0  0  0  0
M  END
>  <MODEL>
5

>  <REMARK>
 VINA RESULT:      -6.0      3.024      8.829
  Name = 
  13 active torsions:
  status: ('A' for Active; 'I' for Inactive)
    1  A    between atoms: C_2  and  C_5
    2  A    between atoms: C_2  and  C_6
    3  A    between atoms: C_3  and  C_19
    4  A    between atoms: C_3  and  O_22
    5  A    between atoms: C_4  and  C_27
    6  A    between atoms: C_7  and  C_19
    7  A    between atoms: C_7  and  C_26
    8  A    between atoms: C_13  and  C_29
    9  A    between atoms: C_14  and  O_18
   10  A    between atoms: C_15  and  C_20
   11  A    between atoms: C_15  and  C_26
   12  A    between atoms: O_18  and  C_29
   13  A    between atoms: N_24  and  C_27
                            x       y       z     vdW  Elec       q    Type
                         _______ _______ _______ _____ _____    ______ ____

>  <TORSDO>
F 13

$$$$
=
 OpenBabel11062408313D

 32 34  0  0  1  0  0  0  0  0999 V2000
  160.6960  207.1070  153.8870 S   0  0  0  0  0  0  0  0  0  0  0  0
  161.5510  208.6560  154.3190 C   0  0  1  0  0  3  0  0  0  0  0  0
  161.6380  207.0150  152.3580 C   0  0  0  0  0  0  0  0  0  0  0  0
  161.6740  208.0710  151.5320 C   0  0  0  0  0  0  0  0  0  0  0  0
  160.9040  209.3150  151.9030 C   0  0  0  0  0  2  0  0  0  0  0  0
  161.1990  209.7880  153.3370 C   0  0  0  0  0  2  0  0  0  0  0  0
  162.4640  205.7960  152.0960 C   0  0  0  0  0  2  0  0  0  0  0  0
  161.6610  204.7720  151.3710 C   0  0  0  0  0  0  0  0  0  0  0  0
  160.8510  201.8400  148.1070 C   0  0  0  0  0  2  0  0  0  0  0  0
  161.1580  204.9860  150.2040 N   0  0  0  0  0  0  0  0  0  0  0  0
  161.2900  201.4660  150.4700 C   0  0  0  0  0  2  0  0  0  0  0  0
  160.6350  202.7780  150.8940 C   0  0  1  0  0  3  0  0  0  0  0  0
  161.4600  203.4640  151.8730 N   0  0  0  0  0  2  0  0  0  0  0  0
  160.5050  203.7780  149.7220 C   0  0  2  0  0  3  0  0  0  0  0  0
  160.6210  200.9640  149.2700 N   0  0  0  0  0  2  0  0  0  0  0  0
  161.2290  203.2890  148.4640 C   0  0  0  0  0  2  0  0  0  0  0  0
  162.4380  208.0200  150.3630 O   0  0  0  0  0  0  0  0  0  0  0  0
  161.9040  208.3550  149.0910 C   0  0  0  0  0  2  0  0  0  0  0  0
  162.4240  207.3780  148.0580 C   0  0  0  0  0  2  0  0  0  0  0  0
  161.2590  206.7810  147.3010 C   0  0  0  0  0  1  0  0  0  0  0  0
  161.2460  209.0690  155.7480 C   0  0  0  0  0  2  0  0  0  0  0  0
  158.6940  210.3280  156.0050 O   0  0  0  0  0  0  0  0  0  0  0  0
  159.7200  211.0580  156.0410 C   0  0  0  0  0  0  0  0  0  0  0  0
  161.0140  210.5060  155.8030 N   0  0  0  0  0  2  0  0  0  0  0  0
  159.5830  212.5040  156.3760 C   0  0  0  0  0  2  0  0  0  0  0  0
  158.2990  213.0830  155.7920 C   0  0  0  0  0  2  0  0  0  0  0  0
  158.5270  213.6180  154.3830 C   0  0  0  0  0  2  0  0  0  0  0  0
  158.0420  212.6240  153.3390 C   0  0  0  0  0  2  0  0  0  0  0  0
  158.6960  212.8840  152.0180 C   0  0  0  0  0  0  0  0  0  0  0  0
  159.9470  212.7850  151.9210 O   0  0  0  0  0  0  0  0  0  0  0  0
  157.9490  213.2100  150.8840 O   0  0  0  0  0  0  0  0  0  0  0  0
  157.0150  214.2810  150.8680 C   0  0  0  0  0  1  0  0  0  0  0  0
  1  2  1  0  0  0  0
  2 21  1  1  0  0  0
  3  1  1  0  0  0  0
  4  5  1  0  0  0  0
  4  3  2  0  0  0  0
  5  6  1  0  0  0  0
  6  2  1  0  0  0  0
  7  3  1  0  0  0  0
  8 13  1  0  0  0  0
  8  7  1  0  0  0  0
  9 16  1  0  0  0  0
  9 15  1  0  0  0  0
 10  8  2  0  0  0  0
 12 11  1  6  0  0  0
 12 13  1  0  0  0  0
 14 16  1  6  0  0  0
 14 10  1  0  0  0  0
 14 12  1  0  0  0  0
 15 11  1  0  0  0  0
 17  4  1  0  0  0  0
 18 17  1  0  0  0  0
 19 18  1  0  0  0  0
 20 19  1  0  0  0  0
 21 24  1  0  0  0  0
 22 23  2  0  0  0  0
 23 25  1  0  0  0  0
 24 23  1  0  0  0  0
 26 25  1  0  0  0  0
 27 26  1  0  0  0  0
 28 27  1  0  0  0  0
 29 28  1  0  0  0  0
 30 29  2  0  0  0  0
 31 29  1  0  0  0  0
 32 31  1  0  0  0  0
M  END
>  <MODEL>
6

>  <REMARK>
 VINA RESULT:      -5.9      2.871      9.553
  Name = 
  13 active torsions:
  status: ('A' for Active; 'I' for Inactive)
    1  A    between atoms: C_2  and  C_5
    2  A    between atoms: C_2  and  C_6
    3  A    between atoms: C_3  and  C_19
    4  A    between atoms: C_3  and  O_22
    5  A    between atoms: C_4  and  C_27
    6  A    between atoms: C_7  and  C_19
    7  A    between atoms: C_7  and  C_26
    8  A    between atoms: C_13  and  C_29
    9  A    between atoms: C_14  and  O_18
   10  A    between atoms: C_15  and  C_20
   11  A    between atoms: C_15  and  C_26
   12  A    between atoms: O_18  and  C_29
   13  A    between atoms: N_24  and  C_27
                            x       y       z     vdW  Elec       q    Type
                         _______ _______ _______ _____ _____    ______ ____

>  <TORSDO>
F 13

$$$$
=
 OpenBabel11062408313D

 32 34  0  0  1  0  0  0  0  0999 V2000
  160.8060  210.1310  151.6370 S   0  0  0  0  0  0  0  0  0  0  0  0
  162.0660  208.9610  151.0370 C   0  0  1  0  0  3  0  0  0  0  0  0
  161.1560  209.6350  153.3310 C   0  0  0  0  0  0  0  0  0  0  0  0
  161.1450  208.3350  153.6600 C   0  0  0  0  0  0  0  0  0  0  0  0
  160.8240  207.3140  152.5970 C   0  0  0  0  0  2  0  0  0  0  0  0
  161.6640  207.5020  151.3210 C   0  0  0  0  0  2  0  0  0  0  0  0
  161.5700  210.6820  154.3140 C   0  0  0  0  0  2  0  0  0  0  0  0
  160.3840  211.4530  154.7820 C   0  0  0  0  0  0  0  0  0  0  0  0
  156.1660  212.8930  154.5860 C   0  0  0  0  0  2  0  0  0  0  0  0
  159.9050  212.4530  154.1240 N   0  0  0  0  0  0  0  0  0  0  0  0
  157.2300  211.3870  156.1710 C   0  0  0  0  0  2  0  0  0  0  0  0
  158.5870  212.0790  156.0600 C   0  0  1  0  0  3  0  0  0  0  0  0
  159.6500  211.0970  155.9380 N   0  0  0  0  0  2  0  0  0  0  0  0
  158.7040  212.9440  154.7840 C   0  0  2  0  0  3  0  0  0  0  0  0
  156.1720  212.3750  155.9650 N   0  0  0  0  0  2  0  0  0  0  0  0
  157.5080  212.7530  153.8450 C   0  0  0  0  0  2  0  0  0  0  0  0
  161.4570  207.9410  154.9650 O   0  0  0  0  0  0  0  0  0  0  0  0
  160.4900  207.3840  155.8420 C   0  0  0  0  0  2  0  0  0  0  0  0
  160.7960  207.8140  157.2610 C   0  0  0  0  0  2  0  0  0  0  0  0
  161.9920  208.7390  157.2580 C   0  0  0  0  0  1  0  0  0  0  0  0
  162.3390  209.1640  149.5560 C   0  0  0  0  0  2  0  0  0  0  0  0
  163.0860  206.9780  147.8750 O   0  0  0  0  0  0  0  0  0  0  0  0
  161.8580  207.2040  148.0410 C   0  0  0  0  0  0  0  0  0  0  0  0
  161.4210  208.3480  148.7740 N   0  0  0  0  0  2  0  0  0  0  0  0
  160.8530  206.2440  147.5010 C   0  0  0  0  0  2  0  0  0  0  0  0
  161.1850  204.8140  147.9110 C   0  0  0  0  0  2  0  0  0  0  0  0
  161.1890  204.6630  149.4280 C   0  0  0  0  0  2  0  0  0  0  0  0
  160.2470  203.5510  149.8650 C   0  0  0  0  0  2  0  0  0  0  0  0
  160.9630  202.5610  150.7270 C   0  0  0  0  0  0  0  0  0  0  0  0
  161.2620  202.8770  151.9080 O   0  0  0  0  0  0  0  0  0  0  0  0
  161.2860  201.2830  150.2620 O   0  0  0  0  0  0  0  0  0  0  0  0
  161.0830  200.8900  148.9120 C   0  0  0  0  0  1  0  0  0  0  0  0
  1  3  1  0  0  0  0
  2 21  1  6  0  0  0
  2  6  1  0  0  0  0
  2  1  1  0  0  0  0
  3  4  2  0  0  0  0
  3  7  1  0  0  0  0
  4 17  1  0  0  0  0
  5  4  1  0  0  0  0
  6  5  1  0  0  0  0
  7  8  1  0  0  0  0
  8 13  1  0  0  0  0
  9 15  1  0  0  0  0
 10  8  2  0  0  0  0
 10 14  1  0  0  0  0
 12 11  1  6  0  0  0
 13 12  1  0  0  0  0
 14 16  1  6  0  0  0
 14 12  1  0  0  0  0
 15 11  1  0  0  0  0
 16  9  1  0  0  0  0
 17 18  1  0  0  0  0
 18 19  1  0  0  0  0
 20 19  1  0  0  0  0
 22 23  2  0  0  0  0
 23 24  1  0  0  0  0
 24 21  1  0  0  0  0
 25 26  1  0  0  0  0
 25 23  1  0  0  0  0
 26 27  1  0  0  0  0
 27 28  1  0  0  0  0
 28 29  1  0  0  0  0
 29 30  2  0  0  0  0
 31 29  1  0  0  0  0
 32 31  1  0  0  0  0
M  END
>  <MODEL>
7

>  <REMARK>
 VINA RESULT:      -5.9      1.609      2.329
  Name = 
  13 active torsions:
  status: ('A' for Active; 'I' for Inactive)
    1  A    between atoms: C_2  and  C_5
    2  A    between atoms: C_2  and  C_6
    3  A    between atoms: C_3  and  C_19
    4  A    between atoms: C_3  and  O_22
    5  A    between atoms: C_4  and  C_27
    6  A    between atoms: C_7  and  C_19
    7  A    between atoms: C_7  and  C_26
    8  A    between atoms: C_13  and  C_29
    9  A    between atoms: C_14  and  O_18
   10  A    between atoms: C_15  and  C_20
   11  A    between atoms: C_15  and  C_26
   12  A    between atoms: O_18  and  C_29
   13  A    between atoms: N_24  and  C_27
                            x       y       z     vdW  Elec       q    Type
                         _______ _______ _______ _____ _____    ______ ____

>  <TORSDO>
F 13

$$$$
=
 OpenBabel11062408313D

 32 34  0  0  1  0  0  0  0  0999 V2000
  161.7180  207.8780  151.3440 S   0  0  0  0  0  0  0  0  0  0  0  0
  161.0040  207.8530  153.0200 C   0  0  1  0  0  3  0  0  0  0  0  0
  160.9330  206.2980  150.9890 C   0  0  0  0  0  0  0  0  0  0  0  0
  161.1050  205.2660  151.8280 C   0  0  0  0  0  0  0  0  0  0  0  0
  161.9680  205.4530  153.0510 C   0  0  0  0  0  2  0  0  0  0  0  0
  161.5830  206.7030  153.8630 C   0  0  0  0  0  2  0  0  0  0  0  0
  160.0060  206.2030  149.8200 C   0  0  0  0  0  2  0  0  0  0  0  0
  160.7700  205.9220  148.5720 C   0  0  0  0  0  0  0  0  0  0  0  0
  161.7870  203.6220  144.8880 C   0  0  0  0  0  2  0  0  0  0  0  0
  161.5450  204.9000  148.4510 N   0  0  0  0  0  0  0  0  0  0  0  0
  160.7860  205.8250  145.1270 C   0  0  0  0  0  2  0  0  0  0  0  0
  161.5370  206.1280  146.4220 C   0  0  1  0  0  3  0  0  0  0  0  0
  160.6410  206.7110  147.4050 N   0  0  0  0  0  2  0  0  0  0  0  0
  162.0820  204.8490  147.0990 C   0  0  2  0  0  3  0  0  0  0  0  0
  161.6110  204.9560  144.2890 N   0  0  0  0  0  2  0  0  0  0  0  0
  161.5810  203.5750  146.4120 C   0  0  0  0  0  2  0  0  0  0  0  0
  160.4640  204.0490  151.5800 O   0  0  0  0  0  0  0  0  0  0  0  0
  161.1050  202.7980  151.7800 C   0  0  0  0  0  2  0  0  0  0  0  0
  161.3910  202.1620  150.4360 C   0  0  0  0  0  2  0  0  0  0  0  0
  160.0850  201.8300  149.7510 C   0  0  0  0  0  1  0  0  0  0  0  0
  161.2060  209.1860  153.7180 C   0  0  0  0  0  2  0  0  0  0  0  0
  160.7240  211.7850  154.8040 O   0  0  0  0  0  0  0  0  0  0  0  0
  160.1620  211.4850  153.7170 C   0  0  0  0  0  0  0  0  0  0  0  0
  160.2690  210.1650  153.1830 N   0  0  0  0  0  2  0  0  0  0  0  0
  159.4130  212.5290  152.9630 C   0  0  0  0  0  2  0  0  0  0  0  0
  157.9990  212.6900  153.5080 C   0  0  0  0  0  2  0  0  0  0  0  0
  157.8980  213.8990  154.4310 C   0  0  0  0  0  2  0  0  0  0  0  0
  156.7380  213.7450  155.4030 C   0  0  0  0  0  2  0  0  0  0  0  0
  156.7140  212.3670  155.9840 C   0  0  0  0  0  0  0  0  0  0  0  0
  157.7280  211.9400  156.5940 O   0  0  0  0  0  0  0  0  0  0  0  0
  155.5840  211.5510  155.8860 O   0  0  0  0  0  0  0  0  0  0  0  0
  155.5790  210.3410  155.1400 C   0  0  0  0  0  1  0  0  0  0  0  0
  1  2  1  0  0  0  0
  2 21  1  1  0  0  0
  2  6  1  0  0  0  0
  3  1  1  0  0  0  0
  3  4  2  0  0  0  0
  4  5  1  0  0  0  0
  5  6  1  0  0  0  0
  7  3  1  0  0  0  0
  8  7  1  0  0  0  0
  9 16  1  0  0  0  0
 10  8  2  0  0  0  0
 12 11  1  6  0  0  0
 12 14  1  0  0  0  0
 12 13  1  0  0  0  0
 13  8  1  0  0  0  0
 14 16  1  6  0  0  0
 14 10  1  0  0  0  0
 15  9  1  0  0  0  0
 15 11  1  0  0  0  0
 17 18  1  0  0  0  0
 17  4  1  0  0  0  0
 19 18  1  0  0  0  0
 20 19  1  0  0  0  0
 23 22  2  0  0  0  0
 24 23  1  0  0  0  0
 24 21  1  0  0  0  0
 25 26  1  0  0  0  0
 25 23  1  0  0  0  0
 26 27  1  0  0  0  0
 27 28  1  0  0  0  0
 28 29  1  0  0  0  0
 29 30  2  0  0  0  0
 31 29  1  0  0  0  0
 32 31  1  0  0  0  0
M  END
>  <MODEL>
8

>  <REMARK>
 VINA RESULT:      -5.8      2.487      9.527
  Name = 
  13 active torsions:
  status: ('A' for Active; 'I' for Inactive)
    1  A    between atoms: C_2  and  C_5
    2  A    between atoms: C_2  and  C_6
    3  A    between atoms: C_3  and  C_19
    4  A    between atoms: C_3  and  O_22
    5  A    between atoms: C_4  and  C_27
    6  A    between atoms: C_7  and  C_19
    7  A    between atoms: C_7  and  C_26
    8  A    between atoms: C_13  and  C_29
    9  A    between atoms: C_14  and  O_18
   10  A    between atoms: C_15  and  C_20
   11  A    between atoms: C_15  and  C_26
   12  A    between atoms: O_18  and  C_29
   13  A    between atoms: N_24  and  C_27
                            x       y       z     vdW  Elec       q    Type
                         _______ _______ _______ _____ _____    ______ ____

>  <TORSDO>
F 13

$$$$
=
 OpenBabel11062408313D

 32 34  0  0  1  0  0  0  0  0999 V2000
  162.3350  208.3290  148.6360 S   0  0  0  0  0  0  0  0  0  0  0  0
  161.8470  209.9180  149.3810 C   0  0  1  0  0  3  0  0  0  0  0  0
  161.3100  207.4560  149.8280 C   0  0  0  0  0  0  0  0  0  0  0  0
  161.4500  207.7090  151.1380 C   0  0  0  0  0  0  0  0  0  0  0  0
  162.4810  208.7170  151.5820 C   0  0  0  0  0  2  0  0  0  0  0  0
  162.3730  210.0500  150.8220 C   0  0  0  0  0  2  0  0  0  0  0  0
  160.2350  206.5480  149.3230 C   0  0  0  0  0  2  0  0  0  0  0  0
  160.8280  205.2920  148.7840 C   0  0  0  0  0  0  0  0  0  0  0  0
  160.8300  200.9640  147.7020 C   0  0  0  0  0  2  0  0  0  0  0  0
  161.0950  204.2770  149.5310 N   0  0  0  0  0  0  0  0  0  0  0  0
  160.8590  202.9320  146.2720 C   0  0  0  0  0  2  0  0  0  0  0  0
  161.6450  203.7670  147.2810 C   0  0  1  0  0  3  0  0  0  0  0  0
  161.0660  205.0930  147.4030 N   0  0  0  0  0  2  0  0  0  0  0  0
  161.5820  203.1790  148.7090 C   0  0  2  0  0  3  0  0  0  0  0  0
  161.2490  201.5290  146.4070 N   0  0  0  0  0  2  0  0  0  0  0  0
  160.5980  202.0090  148.8080 C   0  0  0  0  0  2  0  0  0  0  0  0
  160.6280  207.0650  152.0670 O   0  0  0  0  0  0  0  0  0  0  0  0
  161.1110  206.6060  153.3200 C   0  0  0  0  0  2  0  0  0  0  0  0
  160.8220  207.6490  154.3790 C   0  0  0  0  0  2  0  0  0  0  0  0
  160.3480  206.9640  155.6410 C   0  0  0  0  0  1  0  0  0  0  0  0
  162.3110  211.0860  148.5300 C   0  0  0  0  0  2  0  0  0  0  0  0
  162.4260  213.2910  146.7150 O   0  0  0  0  0  0  0  0  0  0  0  0
  161.3590  212.6230  146.7680 C   0  0  0  0  0  0  0  0  0  0  0  0
  161.1980  211.5840  147.7340 N   0  0  0  0  0  2  0  0  0  0  0  0
  160.2720  212.8930  145.7850 C   0  0  0  0  0  2  0  0  0  0  0  0
  160.8390  213.1190  144.3880 C   0  0  0  0  0  2  0  0  0  0  0  0
  160.0150  212.3880  143.3340 C   0  0  0  0  0  2  0  0  0  0  0  0
  160.3840  212.8570  141.9350 C   0  0  0  0  0  2  0  0  0  0  0  0
  161.4570  211.9920  141.3540 C   0  0  0  0  0  0  0  0  0  0  0  0
  162.6210  212.4540  141.2330 O   0  0  0  0  0  0  0  0  0  0  0  0
  161.2040  210.6750  140.9630 O   0  0  0  0  0  0  0  0  0  0  0  0
  160.8260  210.3320  139.6370 C   0  0  0  0  0  1  0  0  0  0  0  0
  1  2  1  0  0  0  0
  1  3  1  0  0  0  0
  2 21  1  6  0  0  0
  2  6  1  0  0  0  0
  3  4  2  0  0  0  0
  4  5  1  0  0  0  0
  4 17  1  0  0  0  0
  6  5  1  0  0  0  0
  7  3  1  0  0  0  0
  8  7  1  0  0  0  0
  8 10  2  0  0  0  0
  9 16  1  0  0  0  0
 11 15  1  0  0  0  0
 12 11  1  6  0  0  0
 12 13  1  0  0  0  0
 12 14  1  0  0  0  0
 13  8  1  0  0  0  0
 14 16  1  6  0  0  0
 14 10  1  0  0  0  0
 15  9  1  0  0  0  0
 17 18  1  0  0  0  0
 18 19  1  0  0  0  0
 19 20  1  0  0  0  0
 22 23  2  0  0  0  0
 23 24  1  0  0  0  0
 24 21  1  0  0  0  0
 25 23  1  0  0  0  0
 26 25  1  0  0  0  0
 27 26  1  0  0  0  0
 28 27  1  0  0  0  0
 29 28  1  0  0  0  0
 30 29  2  0  0  0  0
 31 29  1  0  0  0  0
 32 31  1  0  0  0  0
M  END
>  <MODEL>
9

>  <REMARK>
 VINA RESULT:      -5.6      4.516      8.957
  Name = 
  13 active torsions:
  status: ('A' for Active; 'I' for Inactive)
    1  A    between atoms: C_2  and  C_5
    2  A    between atoms: C_2  and  C_6
    3  A    between atoms: C_3  and  C_19
    4  A    between atoms: C_3  and  O_22
    5  A    between atoms: C_4  and  C_27
    6  A    between atoms: C_7  and  C_19
    7  A    between atoms: C_7  and  C_26
    8  A    between atoms: C_13  and  C_29
    9  A    between atoms: C_14  and  O_18
   10  A    between atoms: C_15  and  C_20
   11  A    between atoms: C_15  and  C_26
   12  A    between atoms: O_18  and  C_29
   13  A    between atoms: N_24  and  C_27
                            x       y       z     vdW  Elec       q    Type
                         _______ _______ _______ _____ _____    ______ ____

>  <TORSDO>
F 13

$$$$
