=
 OpenBabel11062409123D

 37 40  0  0  1  0  0  0  0  0999 V2000
  161.1290  211.7090  150.3360 C   0  0  0  0  0  3  0  0  0  0  0  0
  159.7610  209.5700  153.7020 C   0  0  0  0  0  2  0  0  0  0  0  0
  161.6090  207.7310  148.6550 C   0  0  0  0  0  3  0  0  0  0  0  0
  160.6420  210.9970  151.3540 C   0  0  0  0  0  0  0  0  0  0  0  0
  161.6630  208.8450  149.5010 C   0  0  0  0  0  0  0  0  0  0  0  0
  159.4830  211.4740  152.0820 N   0  0  0  0  0  0  0  0  0  0  0  0
  162.0410  209.9820  148.9020 C   0  0  0  0  0  2  0  0  0  0  0  0
  161.4340  208.6820  150.9130 C   0  0  0  0  0  0  0  0  0  0  0  0
  161.2390  206.2650  150.5240 C   0  0  0  0  0  3  0  0  0  0  0  0
  162.3290  211.2700  149.5890 C   0  0  1  0  0  3  0  0  0  0  0  0
  161.2590  207.3640  151.3790 C   0  0  0  0  0  3  0  0  0  0  0  0
  159.0780  210.9070  153.3760 C   0  0  0  0  0  2  0  0  0  0  0  0
  161.2770  209.7240  151.7970 C   0  0  2  0  0  3  0  0  0  0  0  0
  161.3820  206.4520  149.1550 C   0  0  0  0  0  0  0  0  0  0  0  0
  161.2410  209.5940  153.3240 C   0  0  1  0  0  0  0  0  0  0  0  0
  161.3630  205.2830  148.2340 C   0  0  0  0  0  2  0  0  0  0  0  0
  162.0120  205.6310  146.9820 N   0  0  0  0  0  1  0  0  0  0  0  0
  162.9650  213.0880  147.8110 N   0  0  0  0  0  0  0  0  0  0  0  0
  162.6840  212.2850  148.5950 C   0  0  0  0  0  0  0  0  0  0  0  0
  161.8460  210.7530  153.9130 O   0  0  0  0  0  0  0  0  0  0  0  0
  161.6870  211.0760  155.2600 C   0  0  0  0  0  3  0  0  0  0  0  0
  163.4980  210.4570  156.9320 O   0  0  0  0  0  0  0  0  0  0  0  0
  162.6160  210.7590  156.1170 C   0  0  0  0  0  0  0  0  0  0  0  0
  161.9490  208.3480  153.8870 C   0  0  0  0  0  2  0  0  0  0  0  0
  161.0420  207.5150  154.7810 C   0  0  0  0  0  2  0  0  0  0  0  0
  161.6580  207.4070  156.1590 C   0  0  0  0  0  2  0  0  0  0  0  0
  159.3470  207.4440  156.4400 C   0  0  0  0  0  1  0  0  0  0  0  0
  160.6040  207.3200  157.1540 N   0  0  0  0  0  2  0  0  0  0  0  0
  158.7270  212.6320  151.6200 C   0  0  0  0  0  2  0  0  0  0  0  0
  159.0740  213.8570  152.4610 C   0  0  0  0  0  2  0  0  0  0  0  0
  158.4500  213.8270  154.9160 C   0  0  0  0  0  2  0  0  0  0  0  0
  157.9960  214.1710  153.4920 C   0  0  2  0  0  3  0  0  0  0  0  0
  156.6580  213.5200  153.1310 C   0  0  0  0  0  2  0  0  0  0  0  0
  154.4600  214.4370  153.6650 N   0  0  0  0  0  1  0  0  0  0  0  0
  156.1090  214.4530  155.3820 N   0  0  0  0  0  2  0  0  0  0  0  0
  155.5940  213.7220  154.2220 C   0  0  2  0  0  3  0  0  0  0  0  0
  157.2740  213.7360  155.8950 C   0  0  0  0  0  2  0  0  0  0  0  0
  1  4  2  0  0  0  0
  3 14  2  0  0  0  0
  3  5  1  0  0  0  0
  4 13  1  0  0  0  0
  4  6  1  0  0  0  0
  5  8  2  0  0  0  0
  6 12  1  0  0  0  0
  7  5  1  0  0  0  0
  7 10  1  0  0  0  0
  8 11  1  0  0  0  0
  9 11  2  0  0  0  0
 10 19  1  6  0  0  0
 10  1  1  0  0  0  0
 12  2  1  0  0  0  0
 13  8  1  6  0  0  0
 13 15  1  0  0  0  0
 14  9  1  0  0  0  0
 15  2  1  0  0  0  0
 15 24  1  1  0  0  0
 15 20  1  0  0  0  0
 16 14  1  0  0  0  0
 17 16  1  0  0  0  0
 18 19  3  0  0  0  0
 20 21  1  0  0  0  0
 21 23  2  0  0  0  0
 23 22  2  0  0  0  0
 24 25  1  0  0  0  0
 25 26  1  0  0  0  0
 26 28  1  0  0  0  0
 27 28  1  0  0  0  0
 29  6  1  0  0  0  0
 29 30  1  0  0  0  0
 31 37  1  0  0  0  0
 32 30  1  6  0  0  0
 32 31  1  0  0  0  0
 33 32  1  0  0  0  0
 33 36  1  0  0  0  0
 35 37  1  0  0  0  0
 36 34  1  6  0  0  0
 36 35  1  0  0  0  0
M  END
>  <MODEL>
1

>  <REMARK>
 VINA RESULT:      -4.4      0.000      0.000
  Name = 
  11 active torsions:
  status: ('A' for Active; 'I' for Inactive)
    1  A    between atoms: O_1  and  C_5
    2  A    between atoms: O_1  and  C_36
    3  A    between atoms: C_3  and  C_32
    4  A    between atoms: C_6  and  C_31
    5  A    between atoms: N_14  and  C_37
    6  A    between atoms: C_17  and  C_26
    7  A    between atoms: C_17  and  C_33
    8  A    between atoms: C_24  and  C_28
    9  A    between atoms: C_26  and  N_34
   10  A    between atoms: C_31  and  C_37
   11  A    between atoms: C_33  and  C_36
                            x       y       z     vdW  Elec       q    Type
                         _______ _______ _______ _____ _____    ______ ____

>  <TORSDO>
F 11

$$$$
=
 OpenBabel11062409123D

 37 40  0  0  1  0  0  0  0  0999 V2000
  160.7620  211.1150  151.1550 C   0  0  0  0  0  3  0  0  0  0  0  0
  159.3340  210.0110  154.9650 C   0  0  0  0  0  2  0  0  0  0  0  0
  161.7370  206.8910  150.8710 C   0  0  0  0  0  3  0  0  0  0  0  0
  160.2640  210.7120  152.3250 C   0  0  0  0  0  0  0  0  0  0  0  0
  161.6210  208.2130  151.3150 C   0  0  0  0  0  0  0  0  0  0  0  0
  159.0130  211.2610  152.8070 N   0  0  0  0  0  0  0  0  0  0  0  0
  161.9400  209.1380  150.3980 C   0  0  0  0  0  2  0  0  0  0  0  0
  161.2970  208.4810  152.6920 C   0  0  0  0  0  0  0  0  0  0  0  0
  161.3560  206.0590  153.0940 C   0  0  0  0  0  3  0  0  0  0  0  0
  162.0540  210.6000  150.6450 C   0  0  1  0  0  3  0  0  0  0  0  0
  161.2070  207.3670  153.5490 C   0  0  0  0  0  3  0  0  0  0  0  0
  158.5590  211.0900  154.1950 C   0  0  0  0  0  2  0  0  0  0  0  0
  160.9760  209.7230  153.1840 C   0  0  2  0  0  3  0  0  0  0  0  0
  161.5890  205.8180  151.7460 C   0  0  0  0  0  0  0  0  0  0  0  0
  160.8310  210.0800  154.6680 C   0  0  1  0  0  0  0  0  0  0  0  0
  161.7500  204.4230  151.2530 C   0  0  0  0  0  2  0  0  0  0  0  0
  160.4500  203.8660  150.9190 N   0  0  0  0  0  1  0  0  0  0  0  0
  162.6580  211.8210  148.4060 N   0  0  0  0  0  0  0  0  0  0  0  0
  162.3910  211.2830  149.3950 C   0  0  0  0  0  0  0  0  0  0  0  0
  161.2790  211.4260  154.8780 O   0  0  0  0  0  0  0  0  0  0  0  0
  161.3410  212.0030  156.1460 C   0  0  0  0  0  3  0  0  0  0  0  0
  159.6800  213.8120  156.7970 O   0  0  0  0  0  0  0  0  0  0  0  0
  160.4890  212.9300  156.4800 C   0  0  0  0  0  0  0  0  0  0  0  0
  161.6040  209.1640  155.6350 C   0  0  0  0  0  2  0  0  0  0  0  0
  160.7880  208.7930  156.8650 C   0  0  0  0  0  2  0  0  0  0  0  0
  161.0980  207.3660  157.2610 C   0  0  0  0  0  2  0  0  0  0  0  0
  159.1260  207.0680  156.0590 C   0  0  0  0  0  1  0  0  0  0  0  0
  159.8860  206.5710  157.1910 N   0  0  0  0  0  2  0  0  0  0  0  0
  158.1920  212.1220  151.9620 C   0  0  0  0  0  2  0  0  0  0  0  0
  158.9840  213.3560  151.5420 C   0  0  0  0  0  2  0  0  0  0  0  0
  157.0950  213.6310  149.8760 C   0  0  0  0  0  2  0  0  0  0  0  0
  158.5870  213.8490  150.1550 C   0  0  2  0  0  3  0  0  0  0  0  0
  159.4800  213.2500  149.0640 C   0  0  0  0  0  2  0  0  0  0  0  0
  160.0790  214.3600  146.9740 N   0  0  0  0  0  1  0  0  0  0  0  0
  157.8010  214.4530  147.6590 N   0  0  0  0  0  2  0  0  0  0  0  0
  159.0170  213.6370  147.6500 C   0  0  2  0  0  3  0  0  0  0  0  0
  156.7630  213.7220  148.3820 C   0  0  0  0  0  2  0  0  0  0  0  0
  1  4  2  0  0  0  0
  3  5  2  0  0  0  0
  3 14  1  0  0  0  0
  4  6  1  0  0  0  0
  5  8  1  0  0  0  0
  6 12  1  0  0  0  0
  7 10  1  0  0  0  0
  7  5  1  0  0  0  0
  8 13  1  0  0  0  0
  8 11  2  0  0  0  0
  9 11  1  0  0  0  0
 10 19  1  6  0  0  0
 10  1  1  0  0  0  0
 12  2  1  0  0  0  0
 13  4  1  6  0  0  0
 13 15  1  0  0  0  0
 14  9  2  0  0  0  0
 15 20  1  0  0  0  0
 15  2  1  0  0  0  0
 15 24  1  1  0  0  0
 16 14  1  0  0  0  0
 17 16  1  0  0  0  0
 18 19  3  0  0  0  0
 20 21  1  0  0  0  0
 21 23  2  0  0  0  0
 23 22  2  0  0  0  0
 24 25  1  0  0  0  0
 25 26  1  0  0  0  0
 27 28  1  0  0  0  0
 28 26  1  0  0  0  0
 29  6  1  0  0  0  0
 30 29  1  0  0  0  0
 31 32  1  0  0  0  0
 32 30  1  1  0  0  0
 33 32  1  0  0  0  0
 35 37  1  0  0  0  0
 36 34  1  1  0  0  0
 36 35  1  0  0  0  0
 36 33  1  0  0  0  0
 37 31  1  0  0  0  0
M  END
>  <MODEL>
2

>  <REMARK>
 VINA RESULT:      -4.4      2.208      3.480
  Name = 
  11 active torsions:
  status: ('A' for Active; 'I' for Inactive)
    1  A    between atoms: O_1  and  C_5
    2  A    between atoms: O_1  and  C_36
    3  A    between atoms: C_3  and  C_32
    4  A    between atoms: C_6  and  C_31
    5  A    between atoms: N_14  and  C_37
    6  A    between atoms: C_17  and  C_26
    7  A    between atoms: C_17  and  C_33
    8  A    between atoms: C_24  and  C_28
    9  A    between atoms: C_26  and  N_34
   10  A    between atoms: C_31  and  C_37
   11  A    between atoms: C_33  and  C_36
                            x       y       z     vdW  Elec       q    Type
                         _______ _______ _______ _____ _____    ______ ____

>  <TORSDO>
F 11

$$$$
=
 OpenBabel11062409123D

 37 40  0  0  1  0  0  0  0  0999 V2000
  161.2290  211.8240  150.1710 C   0  0  0  0  0  3  0  0  0  0  0  0
  159.9360  209.3870  153.3600 C   0  0  0  0  0  2  0  0  0  0  0  0
  161.5360  208.0270  148.0810 C   0  0  0  0  0  3  0  0  0  0  0  0
  160.7630  211.0240  151.1320 C   0  0  0  0  0  0  0  0  0  0  0  0
  161.6530  209.0470  149.0320 C   0  0  0  0  0  0  0  0  0  0  0  0
  159.6480  211.4510  151.9510 N   0  0  0  0  0  0  0  0  0  0  0  0
  162.0380  210.2300  148.5340 C   0  0  0  0  0  2  0  0  0  0  0  0
  161.4750  208.7480  150.4290 C   0  0  0  0  0  0  0  0  0  0  0  0
  161.2000  206.3880  149.8080 C   0  0  0  0  0  3  0  0  0  0  0  0
  162.3880  211.4350  149.3340 C   0  0  1  0  0  3  0  0  0  0  0  0
  161.2820  207.3940  150.7670 C   0  0  0  0  0  3  0  0  0  0  0  0
  159.2770  210.7650  153.1980 C   0  0  0  0  0  2  0  0  0  0  0  0
  161.3810  209.6980  151.4180 C   0  0  2  0  0  3  0  0  0  0  0  0
  161.2940  206.7090  148.4600 C   0  0  0  0  0  0  0  0  0  0  0  0
  161.4000  209.4150  152.9250 C   0  0  1  0  0  0  0  0  0  0  0  0
  161.2080  205.6400  147.4280 C   0  0  0  0  0  2  0  0  0  0  0  0
  161.0020  206.2340  146.1190 N   0  0  0  0  0  1  0  0  0  0  0  0
  163.0020  213.4070  147.7220 N   0  0  0  0  0  0  0  0  0  0  0  0
  162.7310  212.5370  148.4340 C   0  0  0  0  0  0  0  0  0  0  0  0
  162.0590  210.4950  153.6010 O   0  0  0  0  0  0  0  0  0  0  0  0
  162.4030  210.4310  154.9510 C   0  0  0  0  0  3  0  0  0  0  0  0
  161.1140  211.8070  156.6530 O   0  0  0  0  0  0  0  0  0  0  0  0
  161.7420  211.1360  155.8240 C   0  0  0  0  0  0  0  0  0  0  0  0
  162.0960  208.1030  153.3310 C   0  0  0  0  0  2  0  0  0  0  0  0
  161.1160  207.0550  153.8390 C   0  0  0  0  0  2  0  0  0  0  0  0
  161.6760  205.6750  153.5750 C   0  0  0  0  0  2  0  0  0  0  0  0
  161.2200  203.8310  152.2290 C   0  0  0  0  0  1  0  0  0  0  0  0
  160.6110  204.8000  153.1200 N   0  0  0  0  0  2  0  0  0  0  0  0
  158.9050  212.6670  151.6400 C   0  0  0  0  0  2  0  0  0  0  0  0
  159.2710  213.7740  152.6240 C   0  0  0  0  0  2  0  0  0  0  0  0
  158.4640  213.8310  155.0250 C   0  0  0  0  0  2  0  0  0  0  0  0
  158.1160  214.1170  153.5590 C   0  0  2  0  0  3  0  0  0  0  0  0
  156.8140  213.4410  153.1230 C   0  0  0  0  0  2  0  0  0  0  0  0
  154.5760  214.3580  153.4560 N   0  0  0  0  0  1  0  0  0  0  0  0
  156.0910  214.4520  155.2890 N   0  0  0  0  0  2  0  0  0  0  0  0
  155.6690  213.6750  154.1220 C   0  0  2  0  0  3  0  0  0  0  0  0
  157.2180  213.7660  155.9160 C   0  0  0  0  0  2  0  0  0  0  0  0
  1  4  2  0  0  0  0
  3 14  2  0  0  0  0
  3  5  1  0  0  0  0
  4 13  1  0  0  0  0
  4  6  1  0  0  0  0
  5  8  2  0  0  0  0
  6 12  1  0  0  0  0
  7  5  1  0  0  0  0
  7 10  1  0  0  0  0
  8 11  1  0  0  0  0
  9 11  2  0  0  0  0
 10 19  1  6  0  0  0
 10  1  1  0  0  0  0
 12  2  1  0  0  0  0
 13  8  1  6  0  0  0
 13 15  1  0  0  0  0
 14  9  1  0  0  0  0
 15 24  1  1  0  0  0
 15  2  1  0  0  0  0
 15 20  1  0  0  0  0
 16 14  1  0  0  0  0
 17 16  1  0  0  0  0
 18 19  3  0  0  0  0
 20 21  1  0  0  0  0
 21 23  2  0  0  0  0
 23 22  2  0  0  0  0
 24 25  1  0  0  0  0
 26 25  1  0  0  0  0
 27 28  1  0  0  0  0
 28 26  1  0  0  0  0
 29  6  1  0  0  0  0
 29 30  1  0  0  0  0
 31 37  1  0  0  0  0
 32 30  1  6  0  0  0
 32 31  1  0  0  0  0
 33 32  1  0  0  0  0
 33 36  1  0  0  0  0
 35 37  1  0  0  0  0
 36 34  1  6  0  0  0
 36 35  1  0  0  0  0
M  END
>  <MODEL>
3

>  <REMARK>
 VINA RESULT:      -4.3      1.229      1.514
  Name = 
  11 active torsions:
  status: ('A' for Active; 'I' for Inactive)
    1  A    between atoms: O_1  and  C_5
    2  A    between atoms: O_1  and  C_36
    3  A    between atoms: C_3  and  C_32
    4  A    between atoms: C_6  and  C_31
    5  A    between atoms: N_14  and  C_37
    6  A    between atoms: C_17  and  C_26
    7  A    between atoms: C_17  and  C_33
    8  A    between atoms: C_24  and  C_28
    9  A    between atoms: C_26  and  N_34
   10  A    between atoms: C_31  and  C_37
   11  A    between atoms: C_33  and  C_36
                            x       y       z     vdW  Elec       q    Type
                         _______ _______ _______ _____ _____    ______ ____

>  <TORSDO>
F 11

$$$$
=
 OpenBabel11062409123D

 37 40  0  0  1  0  0  0  0  0999 V2000
  160.5470  210.7030  152.9450 C   0  0  0  0  0  3  0  0  0  0  0  0
  158.6450  214.4500  153.2830 C   0  0  0  0  0  2  0  0  0  0  0  0
  161.9980  212.3610  149.2010 C   0  0  0  0  0  3  0  0  0  0  0  0
  160.0170  211.9230  153.0440 C   0  0  0  0  0  0  0  0  0  0  0  0
  161.1760  211.9530  150.2570 C   0  0  0  0  0  0  0  0  0  0  0  0
  160.0010  212.6050  154.3220 N   0  0  0  0  0  0  0  0  0  0  0  0
  161.3830  210.6950  150.6710 C   0  0  0  0  0  2  0  0  0  0  0  0
  160.1330  212.8260  150.7310 C   0  0  0  0  0  0  0  0  0  0  0  0
  160.7510  214.4010  148.9500 C   0  0  0  0  0  3  0  0  0  0  0  0
  160.5520  209.9610  151.6630 C   0  0  1  0  0  3  0  0  0  0  0  0
  159.9420  214.0270  150.0200 C   0  0  0  0  0  3  0  0  0  0  0  0
  159.1850  213.8020  154.5660 C   0  0  0  0  0  2  0  0  0  0  0  0
  159.4000  212.6070  151.8730 C   0  0  2  0  0  3  0  0  0  0  0  0
  161.8030  213.5810  148.5610 C   0  0  0  0  0  0  0  0  0  0  0  0
  158.1530  213.3960  152.2910 C   0  0  1  0  0  0  0  0  0  0  0  0
  162.6730  213.9740  147.4190 C   0  0  0  0  0  2  0  0  0  0  0  0
  162.3640  213.1520  146.2610 N   0  0  0  0  0  1  0  0  0  0  0  0
  161.5520  207.5690  152.0430 N   0  0  0  0  0  0  0  0  0  0  0  0
  161.1100  208.6250  151.8750 C   0  0  0  0  0  0  0  0  0  0  0  0
  157.2420  212.5190  152.9680 O   0  0  0  0  0  0  0  0  0  0  0  0
  156.2940  212.9850  153.8780 C   0  0  0  0  0  3  0  0  0  0  0  0
  155.6580  211.5620  155.8840 O   0  0  0  0  0  0  0  0  0  0  0  0
  155.9690  212.2560  154.9070 C   0  0  0  0  0  0  0  0  0  0  0  0
  157.3940  214.0730  151.1360 C   0  0  0  0  0  2  0  0  0  0  0  0
  156.8420  213.0690  150.1330 C   0  0  0  0  0  2  0  0  0  0  0  0
  156.0460  213.8020  149.0760 C   0  0  0  0  0  2  0  0  0  0  0  0
  157.3330  212.7590  147.4400 C   0  0  0  0  0  1  0  0  0  0  0  0
  156.8910  214.0540  147.9230 N   0  0  0  0  0  2  0  0  0  0  0  0
  160.7090  212.0610  155.4750 C   0  0  0  0  0  2  0  0  0  0  0  0
  159.7210  211.4170  156.4430 C   0  0  0  0  0  2  0  0  0  0  0  0
  161.6200  209.8940  157.1430 C   0  0  0  0  0  2  0  0  0  0  0  0
  160.1250  209.9950  156.8170 C   0  0  2  0  0  3  0  0  0  0  0  0
  159.6880  208.9840  155.7540 C   0  0  0  0  0  2  0  0  0  0  0  0
  159.0640  206.6650  156.1950 N   0  0  0  0  0  1  0  0  0  0  0  0
  161.0210  207.5030  157.2610 N   0  0  0  0  0  2  0  0  0  0  0  0
  160.1950  207.5630  156.0520 C   0  0  2  0  0  3  0  0  0  0  0  0
  162.1260  208.4470  157.1100 C   0  0  0  0  0  2  0  0  0  0  0  0
  1  4  2  0  0  0  0
  2 12  1  0  0  0  0
  3  5  1  0  0  0  0
  4  6  1  0  0  0  0
  5  7  1  0  0  0  0
  5  8  2  0  0  0  0
  6 12  1  0  0  0  0
  6 29  1  0  0  0  0
  7 10  1  0  0  0  0
  9 11  2  0  0  0  0
 10 19  1  1  0  0  0
 10  1  1  0  0  0  0
 11  8  1  0  0  0  0
 13  8  1  1  0  0  0
 13 15  1  0  0  0  0
 13  4  1  0  0  0  0
 14  9  1  0  0  0  0
 14  3  2  0  0  0  0
 15 24  1  6  0  0  0
 15 20  1  0  0  0  0
 15  2  1  0  0  0  0
 16 14  1  0  0  0  0
 17 16  1  0  0  0  0
 19 18  3  0  0  0  0
 20 21  1  0  0  0  0
 21 23  2  0  0  0  0
 23 22  2  0  0  0  0
 25 24  1  0  0  0  0
 26 25  1  0  0  0  0
 27 28  1  0  0  0  0
 28 26  1  0  0  0  0
 29 30  1  0  0  0  0
 32 30  1  6  0  0  0
 32 31  1  0  0  0  0
 33 36  1  0  0  0  0
 33 32  1  0  0  0  0
 36 34  1  1  0  0  0
 36 35  1  0  0  0  0
 37 31  1  0  0  0  0
 37 35  1  0  0  0  0
M  END
>  <MODEL>
4

>  <REMARK>
 VINA RESULT:      -3.7      2.752      6.657
  Name = 
  11 active torsions:
  status: ('A' for Active; 'I' for Inactive)
    1  A    between atoms: O_1  and  C_5
    2  A    between atoms: O_1  and  C_36
    3  A    between atoms: C_3  and  C_32
    4  A    between atoms: C_6  and  C_31
    5  A    between atoms: N_14  and  C_37
    6  A    between atoms: C_17  and  C_26
    7  A    between atoms: C_17  and  C_33
    8  A    between atoms: C_24  and  C_28
    9  A    between atoms: C_26  and  N_34
   10  A    between atoms: C_31  and  C_37
   11  A    between atoms: C_33  and  C_36
                            x       y       z     vdW  Elec       q    Type
                         _______ _______ _______ _____ _____    ______ ____

>  <TORSDO>
F 11

$$$$
=
 OpenBabel11062409123D

 37 40  0  0  1  0  0  0  0  0999 V2000
  161.4610  211.8710  149.9800 C   0  0  0  0  0  3  0  0  0  0  0  0
  159.8180  209.6660  153.1770 C   0  0  0  0  0  2  0  0  0  0  0  0
  161.5550  207.9870  148.0350 C   0  0  0  0  0  3  0  0  0  0  0  0
  160.8850  211.1480  150.9420 C   0  0  0  0  0  0  0  0  0  0  0  0
  161.7090  209.0290  148.9570 C   0  0  0  0  0  0  0  0  0  0  0  0
  159.7690  211.6940  151.6880 N   0  0  0  0  0  0  0  0  0  0  0  0
  162.2150  210.1590  148.4410 C   0  0  0  0  0  2  0  0  0  0  0  0
  161.4390  208.7980  150.3520 C   0  0  0  0  0  0  0  0  0  0  0  0
  161.0010  206.4460  149.7950 C   0  0  0  0  0  3  0  0  0  0  0  0
  162.6230  211.3600  149.2180 C   0  0  1  0  0  3  0  0  0  0  0  0
  161.1190  207.4770  150.7230 C   0  0  0  0  0  3  0  0  0  0  0  0
  159.2840  211.0860  152.9360 C   0  0  0  0  0  2  0  0  0  0  0  0
  161.3760  209.7880  151.3030 C   0  0  2  0  0  3  0  0  0  0  0  0
  161.1870  206.7090  148.4430 C   0  0  0  0  0  0  0  0  0  0  0  0
  161.2990  209.5600  152.8170 C   0  0  1  0  0  0  0  0  0  0  0  0
  161.0630  205.6120  147.4450 C   0  0  0  0  0  2  0  0  0  0  0  0
  161.4760  204.3540  148.0420 N   0  0  0  0  0  1  0  0  0  0  0  0
  163.4760  213.2150  147.5760 N   0  0  0  0  0  0  0  0  0  0  0  0
  163.0990  212.3970  148.3010 C   0  0  0  0  0  0  0  0  0  0  0  0
  162.0110  210.6070  153.4910 O   0  0  0  0  0  0  0  0  0  0  0  0
  161.7360  210.9690  154.8090 C   0  0  0  0  0  3  0  0  0  0  0  0
  163.2460  210.1580  156.6850 O   0  0  0  0  0  0  0  0  0  0  0  0
  162.5110  210.5530  155.7710 C   0  0  0  0  0  0  0  0  0  0  0  0
  161.8640  208.2120  153.3010 C   0  0  0  0  0  2  0  0  0  0  0  0
  160.7990  207.3260  153.9330 C   0  0  0  0  0  2  0  0  0  0  0  0
  161.3820  205.9560  154.2010 C   0  0  0  0  0  2  0  0  0  0  0  0
  160.9940  204.2970  152.6140 C   0  0  0  0  0  1  0  0  0  0  0  0
  161.8810  205.3920  152.9600 N   0  0  0  0  0  2  0  0  0  0  0  0
  159.1460  212.9530  151.2990 C   0  0  0  0  0  2  0  0  0  0  0  0
  159.5950  213.3520  149.8970 C   0  0  0  0  0  2  0  0  0  0  0  0
  157.1350  213.9530  149.8450 C   0  0  0  0  0  2  0  0  0  0  0  0
  158.4340  213.8360  149.0370 C   0  0  2  0  0  3  0  0  0  0  0  0
  158.2650  212.9810  147.7780 C   0  0  0  0  0  2  0  0  0  0  0  0
  157.4300  213.7910  145.6320 N   0  0  0  0  0  1  0  0  0  0  0  0
  156.2540  214.4510  147.5940 N   0  0  0  0  0  2  0  0  0  0  0  0
  157.0240  213.3770  146.9620 C   0  0  2  0  0  3  0  0  0  0  0  0
  155.8960  214.0260  148.9450 C   0  0  0  0  0  2  0  0  0  0  0  0
  1  4  2  0  0  0  0
  3 14  2  0  0  0  0
  3  5  1  0  0  0  0
  4 13  1  0  0  0  0
  4  6  1  0  0  0  0
  5  8  2  0  0  0  0
  6 12  1  0  0  0  0
  7  5  1  0  0  0  0
  7 10  1  0  0  0  0
  8 11  1  0  0  0  0
  9 11  2  0  0  0  0
 10 19  1  6  0  0  0
 10  1  1  0  0  0  0
 12  2  1  0  0  0  0
 13  8  1  6  0  0  0
 13 15  1  0  0  0  0
 14  9  1  0  0  0  0
 15  2  1  0  0  0  0
 15 24  1  1  0  0  0
 15 20  1  0  0  0  0
 16 17  1  0  0  0  0
 16 14  1  0  0  0  0
 18 19  3  0  0  0  0
 20 21  1  0  0  0  0
 21 23  2  0  0  0  0
 23 22  2  0  0  0  0
 24 25  1  0  0  0  0
 25 26  1  0  0  0  0
 27 28  1  0  0  0  0
 28 26  1  0  0  0  0
 29  6  1  0  0  0  0
 30 29  1  0  0  0  0
 32 31  1  0  0  0  0
 32 30  1  1  0  0  0
 33 32  1  0  0  0  0
 35 37  1  0  0  0  0
 36 34  1  6  0  0  0
 36 35  1  0  0  0  0
 36 33  1  0  0  0  0
 37 31  1  0  0  0  0
M  END
>  <MODEL>
5

>  <REMARK>
 VINA RESULT:      -3.6      2.317      3.264
  Name = 
  11 active torsions:
  status: ('A' for Active; 'I' for Inactive)
    1  A    between atoms: O_1  and  C_5
    2  A    between atoms: O_1  and  C_36
    3  A    between atoms: C_3  and  C_32
    4  A    between atoms: C_6  and  C_31
    5  A    between atoms: N_14  and  C_37
    6  A    between atoms: C_17  and  C_26
    7  A    between atoms: C_17  and  C_33
    8  A    between atoms: C_24  and  C_28
    9  A    between atoms: C_26  and  N_34
   10  A    between atoms: C_31  and  C_37
   11  A    between atoms: C_33  and  C_36
                            x       y       z     vdW  Elec       q    Type
                         _______ _______ _______ _____ _____    ______ ____

>  <TORSDO>
F 11

$$$$
=
 OpenBabel11062409123D

 37 40  0  0  1  0  0  0  0  0999 V2000
  161.6960  209.8890  154.1020 C   0  0  0  0  0  3  0  0  0  0  0  0
  160.2420  212.7400  156.8470 C   0  0  0  0  0  2  0  0  0  0  0  0
  159.7430  212.4600  151.1950 C   0  0  0  0  0  3  0  0  0  0  0  0
  161.2740  210.8470  154.9290 C   0  0  0  0  0  0  0  0  0  0  0  0
  160.0100  211.6590  152.3120 C   0  0  0  0  0  0  0  0  0  0  0  0
  162.1230  211.2910  156.0160 N   0  0  0  0  0  0  0  0  0  0  0  0
  160.5930  210.4860  152.0290 C   0  0  0  0  0  2  0  0  0  0  0  0
  159.5580  212.0740  153.6140 C   0  0  0  0  0  0  0  0  0  0  0  0
  158.4920  214.0090  152.5420 C   0  0  0  0  0  3  0  0  0  0  0  0
  160.8450  209.3870  152.9990 C   0  0  1  0  0  3  0  0  0  0  0  0
  158.7730  213.2420  153.6700 C   0  0  0  0  0  3  0  0  0  0  0  0
  161.6180  212.1150  157.1230 C   0  0  0  0  0  2  0  0  0  0  0  0
  159.9250  211.4650  154.7910 C   0  0  2  0  0  3  0  0  0  0  0  0
  159.0060  213.6350  151.3060 C   0  0  0  0  0  0  0  0  0  0  0  0
  159.3050  211.7440  156.1650 C   0  0  1  0  0  0  0  0  0  0  0  0
  158.7100  214.4500  150.0960 C   0  0  0  0  0  2  0  0  0  0  0  0
  158.0910  213.6150  149.0810 N   0  0  0  0  0  1  0  0  0  0  0  0
  162.0620  207.4090  151.7860 N   0  0  0  0  0  0  0  0  0  0  0  0
  161.5250  208.2820  152.3210 C   0  0  0  0  0  0  0  0  0  0  0  0
  159.2870  210.5320  156.9320 O   0  0  0  0  0  0  0  0  0  0  0  0
  158.9780  209.2960  156.3650 C   0  0  0  0  0  3  0  0  0  0  0  0
  160.5560  207.3290  156.6780 O   0  0  0  0  0  0  0  0  0  0  0  0
  159.7870  208.2880  156.5260 C   0  0  0  0  0  0  0  0  0  0  0  0
  157.8730  212.3070  156.1300 C   0  0  0  0  0  2  0  0  0  0  0  0
  156.9490  211.6160  157.1230 C   0  0  0  0  0  2  0  0  0  0  0  0
  155.5110  211.8680  156.7290 C   0  0  0  0  0  2  0  0  0  0  0  0
  154.8730  214.0170  156.0970 C   0  0  0  0  0  1  0  0  0  0  0  0
  155.0880  213.1570  157.2460 N   0  0  0  0  0  2  0  0  0  0  0  0
  163.5040  210.8360  156.1290 C   0  0  0  0  0  2  0  0  0  0  0  0
  164.2110  211.5740  157.2600 C   0  0  0  0  0  2  0  0  0  0  0  0
  165.8270  213.5250  157.2570 C   0  0  0  0  0  2  0  0  0  0  0  0
  165.5960  212.0630  156.8520 C   0  0  2  0  0  3  0  0  0  0  0  0
  165.8680  211.8180  155.3650 C   0  0  0  0  0  2  0  0  0  0  0  0
  168.0620  211.3590  154.3970 N   0  0  0  0  0  1  0  0  0  0  0  0
  167.9030  213.1270  155.9830 N   0  0  0  0  0  2  0  0  0  0  0  0
  167.2080  212.4160  154.9080 C   0  0  2  0  0  3  0  0  0  0  0  0
  167.0080  214.1550  156.5090 C   0  0  0  0  0  2  0  0  0  0  0  0
  1  4  2  0  0  0  0
  2 12  1  0  0  0  0
  3 14  2  0  0  0  0
  3  5  1  0  0  0  0
  4  6  1  0  0  0  0
  5  8  2  0  0  0  0
  6 29  1  0  0  0  0
  6 12  1  0  0  0  0
  7  5  1  0  0  0  0
  7 10  1  0  0  0  0
  8 11  1  0  0  0  0
  9 11  2  0  0  0  0
 10 19  1  6  0  0  0
 10  1  1  0  0  0  0
 13  8  1  1  0  0  0
 13  4  1  0  0  0  0
 13 15  1  0  0  0  0
 14  9  1  0  0  0  0
 15 24  1  6  0  0  0
 15  2  1  0  0  0  0
 15 20  1  0  0  0  0
 16 14  1  0  0  0  0
 17 16  1  0  0  0  0
 18 19  3  0  0  0  0
 21 23  2  0  0  0  0
 21 20  1  0  0  0  0
 23 22  2  0  0  0  0
 24 25  1  0  0  0  0
 26 25  1  0  0  0  0
 26 28  1  0  0  0  0
 27 28  1  0  0  0  0
 29 30  1  0  0  0  0
 32 31  1  0  0  0  0
 32 30  1  6  0  0  0
 33 32  1  0  0  0  0
 35 37  1  0  0  0  0
 36 34  1  1  0  0  0
 36 33  1  0  0  0  0
 36 35  1  0  0  0  0
 37 31  1  0  0  0  0
M  END
>  <MODEL>
6

>  <REMARK>
 VINA RESULT:      -3.1      3.394      7.137
  Name = 
  11 active torsions:
  status: ('A' for Active; 'I' for Inactive)
    1  A    between atoms: O_1  and  C_5
    2  A    between atoms: O_1  and  C_36
    3  A    between atoms: C_3  and  C_32
    4  A    between atoms: C_6  and  C_31
    5  A    between atoms: N_14  and  C_37
    6  A    between atoms: C_17  and  C_26
    7  A    between atoms: C_17  and  C_33
    8  A    between atoms: C_24  and  C_28
    9  A    between atoms: C_26  and  N_34
   10  A    between atoms: C_31  and  C_37
   11  A    between atoms: C_33  and  C_36
                            x       y       z     vdW  Elec       q    Type
                         _______ _______ _______ _____ _____    ______ ____

>  <TORSDO>
F 11

$$$$
=
 OpenBabel11062409123D

 37 40  0  0  1  0  0  0  0  0999 V2000
  159.4430  212.5660  150.5660 C   0  0  0  0  0  3  0  0  0  0  0  0
  162.8250  210.1430  151.2500 C   0  0  0  0  0  2  0  0  0  0  0  0
  159.5180  212.9880  154.8900 C   0  0  0  0  0  3  0  0  0  0  0  0
  160.5460  211.8620  150.8200 C   0  0  0  0  0  0  0  0  0  0  0  0
  159.5170  212.4580  153.5940 C   0  0  0  0  0  0  0  0  0  0  0  0
  161.6920  211.9670  149.9400 N   0  0  0  0  0  0  0  0  0  0  0  0
  158.5650  212.9520  152.7910 C   0  0  0  0  0  2  0  0  0  0  0  0
  160.4190  211.3880  153.2580 C   0  0  0  0  0  0  0  0  0  0  0  0
  161.1620  211.3830  155.5990 C   0  0  0  0  0  3  0  0  0  0  0  0
  158.2410  212.4600  151.4250 C   0  0  1  0  0  3  0  0  0  0  0  0
  161.1990  210.8630  154.3070 C   0  0  0  0  0  3  0  0  0  0  0  0
  162.8120  211.0170  149.9870 C   0  0  0  0  0  2  0  0  0  0  0  0
  160.6330  210.9290  151.9800 C   0  0  2  0  0  3  0  0  0  0  0  0
  160.3440  212.4700  155.8830 C   0  0  0  0  0  0  0  0  0  0  0  0
  161.4190  209.6650  151.6110 C   0  0  1  0  0  0  0  0  0  0  0  0
  160.2990  213.0310  157.2610 C   0  0  0  0  0  2  0  0  0  0  0  0
  160.0090  214.4530  157.2030 N   0  0  0  0  0  1  0  0  0  0  0  0
  156.3090  213.9080  150.4070 N   0  0  0  0  0  0  0  0  0  0  0  0
  157.1620  213.2700  150.8560 C   0  0  0  0  0  0  0  0  0  0  0  0
  160.8290  209.0610  150.4520 O   0  0  0  0  0  0  0  0  0  0  0  0
  161.5670  208.2940  149.5510 C   0  0  0  0  0  3  0  0  0  0  0  0
  160.4230  206.4660  148.2090 O   0  0  0  0  0  0  0  0  0  0  0  0
  160.9800  207.3570  148.8630 C   0  0  0  0  0  0  0  0  0  0  0  0
  161.4930  208.5990  152.7190 C   0  0  0  0  0  2  0  0  0  0  0  0
  160.8330  207.2890  152.3130 C   0  0  0  0  0  2  0  0  0  0  0  0
  161.6530  206.1310  152.8380 C   0  0  0  0  0  2  0  0  0  0  0  0
  161.0820  203.9880  152.1290 C   0  0  0  0  0  1  0  0  0  0  0  0
  161.8570  205.1620  151.7760 N   0  0  0  0  0  2  0  0  0  0  0  0
  161.7330  212.9600  148.8720 C   0  0  0  0  0  2  0  0  0  0  0  0
  161.8570  212.2710  147.5170 C   0  0  0  0  0  2  0  0  0  0  0  0
  160.9800  212.7230  145.1840 C   0  0  0  0  0  2  0  0  0  0  0  0
  160.6170  212.4750  146.6530 C   0  0  2  0  0  3  0  0  0  0  0  0
  159.7010  213.5610  147.2230 C   0  0  0  0  0  2  0  0  0  0  0  0
  157.2700  213.6040  147.0060 N   0  0  0  0  0  1  0  0  0  0  0  0
  158.5420  213.0840  145.0620 N   0  0  0  0  0  2  0  0  0  0  0  0
  158.5100  213.8670  146.3000 C   0  0  2  0  0  3  0  0  0  0  0  0
  159.8170  213.3340  144.3930 C   0  0  0  0  0  2  0  0  0  0  0  0
  1  4  2  0  0  0  0
  1 10  1  0  0  0  0
  2 15  1  0  0  0  0
  3 14  1  0  0  0  0
  5  3  2  0  0  0  0
  6 12  1  0  0  0  0
  6  4  1  0  0  0  0
  7  5  1  0  0  0  0
  8  5  1  0  0  0  0
  8 11  2  0  0  0  0
  9 14  2  0  0  0  0
 10 19  1  6  0  0  0
 10  7  1  0  0  0  0
 11  9  1  0  0  0  0
 12  2  1  0  0  0  0
 13  4  1  6  0  0  0
 13  8  1  0  0  0  0
 14 16  1  0  0  0  0
 15 13  1  0  0  0  0
 15 24  1  1  0  0  0
 17 16  1  0  0  0  0
 18 19  3  0  0  0  0
 20 15  1  0  0  0  0
 21 20  1  0  0  0  0
 22 23  2  0  0  0  0
 23 21  2  0  0  0  0
 25 24  1  0  0  0  0
 25 26  1  0  0  0  0
 28 27  1  0  0  0  0
 28 26  1  0  0  0  0
 29  6  1  0  0  0  0
 30 29  1  0  0  0  0
 31 32  1  0  0  0  0
 32 33  1  0  0  0  0
 32 30  1  1  0  0  0
 35 36  1  0  0  0  0
 36 34  1  1  0  0  0
 36 33  1  0  0  0  0
 37 35  1  0  0  0  0
 37 31  1  0  0  0  0
M  END
>  <MODEL>
7

>  <REMARK>
 VINA RESULT:      -2.9      2.992      6.888
  Name = 
  11 active torsions:
  status: ('A' for Active; 'I' for Inactive)
    1  A    between atoms: O_1  and  C_5
    2  A    between atoms: O_1  and  C_36
    3  A    between atoms: C_3  and  C_32
    4  A    between atoms: C_6  and  C_31
    5  A    between atoms: N_14  and  C_37
    6  A    between atoms: C_17  and  C_26
    7  A    between atoms: C_17  and  C_33
    8  A    between atoms: C_24  and  C_28
    9  A    between atoms: C_26  and  N_34
   10  A    between atoms: C_31  and  C_37
   11  A    between atoms: C_33  and  C_36
                            x       y       z     vdW  Elec       q    Type
                         _______ _______ _______ _____ _____    ______ ____

>  <TORSDO>
F 11

$$$$
=
 OpenBabel11062409123D

 37 40  0  0  1  0  0  0  0  0999 V2000
  161.3090  208.9160  153.0710 C   0  0  0  0  0  3  0  0  0  0  0  0
  159.9690  208.6330  157.0580 C   0  0  0  0  0  2  0  0  0  0  0  0
  164.5590  211.1670  154.8720 C   0  0  0  0  0  3  0  0  0  0  0  0
  160.9560  208.7940  154.3510 C   0  0  0  0  0  0  0  0  0  0  0  0
  163.2900  210.7010  154.5110 C   0  0  0  0  0  0  0  0  0  0  0  0
  160.4240  207.5380  154.8400 N   0  0  0  0  0  0  0  0  0  0  0  0
  163.1140  210.5270  153.1940 C   0  0  0  0  0  2  0  0  0  0  0  0
  162.2680  210.5560  155.5150 C   0  0  0  0  0  0  0  0  0  0  0  0
  163.8510  211.4840  157.1470 C   0  0  0  0  0  3  0  0  0  0  0  0
  161.8260  210.1920  152.5280 C   0  0  1  0  0  3  0  0  0  0  0  0
  162.5910  210.9930  156.8140 C   0  0  0  0  0  3  0  0  0  0  0  0
  159.7490  207.4210  156.1410 C   0  0  0  0  0  2  0  0  0  0  0  0
  161.0600  209.9340  155.3060 C   0  0  2  0  0  3  0  0  0  0  0  0
  164.8480  211.5400  156.1810 C   0  0  0  0  0  0  0  0  0  0  0  0
  159.8760  209.9450  156.2800 C   0  0  1  0  0  0  0  0  0  0  0  0
  166.1970  212.0640  156.5280 C   0  0  0  0  0  2  0  0  0  0  0  0
  166.6780  212.9300  155.4650 N   0  0  0  0  0  1  0  0  0  0  0  0
  162.2130  209.9500  149.9470 N   0  0  0  0  0  0  0  0  0  0  0  0
  162.0420  210.0570  151.0860 C   0  0  0  0  0  0  0  0  0  0  0  0
  158.6500  209.9510  155.5360 O   0  0  0  0  0  0  0  0  0  0  0  0
  157.4360  210.3370  156.1020 C   0  0  0  0  0  3  0  0  0  0  0  0
  155.7340  211.6050  154.7060 O   0  0  0  0  0  0  0  0  0  0  0  0
  156.5630  210.9870  155.3860 C   0  0  0  0  0  0  0  0  0  0  0  0
  159.8480  211.1350  157.2560 C   0  0  0  0  0  2  0  0  0  0  0  0
  159.8030  212.4770  156.5380 C   0  0  0  0  0  2  0  0  0  0  0  0
  158.7740  213.3660  157.2020 C   0  0  0  0  0  2  0  0  0  0  0  0
  158.5450  213.8250  154.9310 C   0  0  0  0  0  1  0  0  0  0  0  0
  158.3220  214.3710  156.2570 N   0  0  0  0  0  2  0  0  0  0  0  0
  160.4250  206.3430  154.0040 C   0  0  0  0  0  2  0  0  0  0  0  0
  161.8030  206.1330  153.3860 C   0  0  0  0  0  2  0  0  0  0  0  0
  161.3150  206.2860  150.9060 C   0  0  0  0  0  2  0  0  0  0  0  0
  161.7330  205.3750  152.0660 C   0  0  2  0  0  3  0  0  0  0  0  0
  160.8550  204.1260  152.1760 C   0  0  0  0  0  2  0  0  0  0  0  0
  161.1840  202.0620  150.9130 N   0  0  0  0  0  1  0  0  0  0  0  0
  161.3390  204.1190  149.7250 N   0  0  0  0  0  2  0  0  0  0  0  0
  160.6720  203.4170  150.8240 C   0  0  2  0  0  3  0  0  0  0  0  0
  160.8380  205.4910  149.6850 C   0  0  0  0  0  2  0  0  0  0  0  0
  1  4  2  0  0  0  0
  3 14  1  0  0  0  0
  4  6  1  0  0  0  0
  5  3  2  0  0  0  0
  5  8  1  0  0  0  0
  6 12  1  0  0  0  0
  7  5  1  0  0  0  0
  8 11  2  0  0  0  0
 10 19  1  6  0  0  0
 10  1  1  0  0  0  0
 10  7  1  0  0  0  0
 11  9  1  0  0  0  0
 12  2  1  0  0  0  0
 13  4  1  1  0  0  0
 13  8  1  0  0  0  0
 13 15  1  0  0  0  0
 14 16  1  0  0  0  0
 14  9  2  0  0  0  0
 15  2  1  0  0  0  0
 15 24  1  1  0  0  0
 17 16  1  0  0  0  0
 18 19  3  0  0  0  0
 20 21  1  0  0  0  0
 20 15  1  0  0  0  0
 22 23  2  0  0  0  0
 23 21  2  0  0  0  0
 25 26  1  0  0  0  0
 25 24  1  0  0  0  0
 27 28  1  0  0  0  0
 28 26  1  0  0  0  0
 29  6  1  0  0  0  0
 30 29  1  0  0  0  0
 31 32  1  0  0  0  0
 32 33  1  0  0  0  0
 32 30  1  1  0  0  0
 35 36  1  0  0  0  0
 36 34  1  1  0  0  0
 36 33  1  0  0  0  0
 37 35  1  0  0  0  0
 37 31  1  0  0  0  0
M  END
>  <MODEL>
8

>  <REMARK>
 VINA RESULT:      -2.8      2.837      7.608
  Name = 
  11 active torsions:
  status: ('A' for Active; 'I' for Inactive)
    1  A    between atoms: O_1  and  C_5
    2  A    between atoms: O_1  and  C_36
    3  A    between atoms: C_3  and  C_32
    4  A    between atoms: C_6  and  C_31
    5  A    between atoms: N_14  and  C_37
    6  A    between atoms: C_17  and  C_26
    7  A    between atoms: C_17  and  C_33
    8  A    between atoms: C_24  and  C_28
    9  A    between atoms: C_26  and  N_34
   10  A    between atoms: C_31  and  C_37
   11  A    between atoms: C_33  and  C_36
                            x       y       z     vdW  Elec       q    Type
                         _______ _______ _______ _____ _____    ______ ____

>  <TORSDO>
F 11

$$$$
=
 OpenBabel11062409123D

 37 40  0  0  1  0  0  0  0  0999 V2000
  161.8420  210.0720  152.1760 C   0  0  0  0  0  3  0  0  0  0  0  0
  161.0490  211.1890  148.1890 C   0  0  0  0  0  2  0  0  0  0  0  0
  158.3790  212.5590  153.0120 C   0  0  0  0  0  3  0  0  0  0  0  0
  161.5170  210.3960  150.9240 C   0  0  0  0  0  0  0  0  0  0  0  0
  159.6090  212.0890  152.5370 C   0  0  0  0  0  0  0  0  0  0  0  0
  161.6130  209.4060  149.8710 N   0  0  0  0  0  0  0  0  0  0  0  0
  160.3800  211.5100  153.4680 C   0  0  0  0  0  2  0  0  0  0  0  0
  159.9960  212.3470  151.1750 C   0  0  0  0  0  0  0  0  0  0  0  0
  157.9270  213.6450  150.9150 C   0  0  0  0  0  3  0  0  0  0  0  0
  161.7870  211.0650  153.2730 C   0  0  1  0  0  3  0  0  0  0  0  0
  159.1320  213.1590  150.4140 C   0  0  0  0  0  3  0  0  0  0  0  0
  161.5580  209.7630  148.4460 C   0  0  0  0  0  2  0  0  0  0  0  0
  161.0820  211.7740  150.5580 C   0  0  2  0  0  3  0  0  0  0  0  0
  157.5340  213.3170  152.2070 C   0  0  0  0  0  0  0  0  0  0  0  0
  161.6420  212.1810  149.1890 C   0  0  1  0  0  0  0  0  0  0  0  0
  156.2470  213.8320  152.7500 C   0  0  0  0  0  2  0  0  0  0  0  0
  155.9060  213.1170  153.9670 N   0  0  0  0  0  1  0  0  0  0  0  0
  162.6730  209.9750  155.4850 N   0  0  0  0  0  0  0  0  0  0  0  0
  162.2820  210.4560  154.5090 C   0  0  0  0  0  0  0  0  0  0  0  0
  163.0680  212.0290  149.1960 O   0  0  0  0  0  0  0  0  0  0  0  0
  163.8910  212.6760  148.2750 C   0  0  0  0  0  3  0  0  0  0  0  0
  163.3430  212.5740  145.7960 O   0  0  0  0  0  0  0  0  0  0  0  0
  163.6100  212.6240  147.0040 C   0  0  0  0  0  0  0  0  0  0  0  0
  161.3180  213.6230  148.7570 C   0  0  0  0  0  2  0  0  0  0  0  0
  160.1730  213.6890  147.7560 C   0  0  0  0  0  2  0  0  0  0  0  0
  160.6230  214.4500  146.5290 C   0  0  0  0  0  2  0  0  0  0  0  0
  160.8740  214.3430  144.2160 C   0  0  0  0  0  1  0  0  0  0  0  0
  160.1530  213.7670  145.3370 N   0  0  0  0  0  2  0  0  0  0  0  0
  161.8930  208.0070  150.1750 C   0  0  0  0  0  2  0  0  0  0  0  0
  161.0740  207.0970  149.2650 C   0  0  0  0  0  2  0  0  0  0  0  0
  161.2070  205.7260  151.3900 C   0  0  0  0  0  2  0  0  0  0  0  0
  160.7490  205.7630  149.9270 C   0  0  2  0  0  3  0  0  0  0  0  0
  161.2840  204.5810  149.1150 C   0  0  0  0  0  2  0  0  0  0  0  0
  160.2510  202.3710  149.0040 N   0  0  0  0  0  1  0  0  0  0  0  0
  160.4510  203.3890  151.1460 N   0  0  0  0  0  2  0  0  0  0  0  0
  161.0740  203.2360  149.8300 C   0  0  2  0  0  3  0  0  0  0  0  0
  161.2750  204.2970  151.9420 C   0  0  0  0  0  2  0  0  0  0  0  0
  1 10  1  0  0  0  0
  2 12  1  0  0  0  0
  2 15  1  0  0  0  0
  4  1  2  0  0  0  0
  5  3  1  0  0  0  0
  5  7  1  0  0  0  0
  6 29  1  0  0  0  0
  6  4  1  0  0  0  0
  8  5  2  0  0  0  0
  9 14  1  0  0  0  0
 10  7  1  0  0  0  0
 10 19  1  1  0  0  0
 11  9  2  0  0  0  0
 11  8  1  0  0  0  0
 12  6  1  0  0  0  0
 13  4  1  6  0  0  0
 13  8  1  0  0  0  0
 14 16  1  0  0  0  0
 14  3  2  0  0  0  0
 15 24  1  6  0  0  0
 15 20  1  0  0  0  0
 15 13  1  0  0  0  0
 16 17  1  0  0  0  0
 19 18  3  0  0  0  0
 21 20  1  0  0  0  0
 22 23  2  0  0  0  0
 23 21  2  0  0  0  0
 25 24  1  0  0  0  0
 26 25  1  0  0  0  0
 27 28  1  0  0  0  0
 28 26  1  0  0  0  0
 30 29  1  0  0  0  0
 31 37  1  0  0  0  0
 32 30  1  6  0  0  0
 32 31  1  0  0  0  0
 33 36  1  0  0  0  0
 33 32  1  0  0  0  0
 35 37  1  0  0  0  0
 36 34  1  6  0  0  0
 36 35  1  0  0  0  0
M  END
>  <MODEL>
9

>  <REMARK>
 VINA RESULT:      -2.7      2.778      8.678
  Name = 
  11 active torsions:
  status: ('A' for Active; 'I' for Inactive)
    1  A    between atoms: O_1  and  C_5
    2  A    between atoms: O_1  and  C_36
    3  A    between atoms: C_3  and  C_32
    4  A    between atoms: C_6  and  C_31
    5  A    between atoms: N_14  and  C_37
    6  A    between atoms: C_17  and  C_26
    7  A    between atoms: C_17  and  C_33
    8  A    between atoms: C_24  and  C_28
    9  A    between atoms: C_26  and  N_34
   10  A    between atoms: C_31  and  C_37
   11  A    between atoms: C_33  and  C_36
                            x       y       z     vdW  Elec       q    Type
                         _______ _______ _______ _____ _____    ______ ____

>  <TORSDO>
F 11

$$$$
