=
 OpenBabel11062410373D

 32 36  0  0  1  0  0  0  0  0999 V2000
  156.6070  214.3570  156.4340 C   0  0  0  0  0  2  0  0  0  0  0  0
  159.2550  209.6360  155.9990 C   0  0  0  0  0  2  0  0  0  0  0  0
  159.3320  213.7430  152.7290 C   0  0  0  0  0  3  0  0  0  0  0  0
  159.2190  212.6780  151.8420 C   0  0  0  0  0  3  0  0  0  0  0  0
  160.1790  207.4970  155.0130 C   0  0  0  0  0  0  0  0  0  0  0  0
  160.8700  206.8650  153.8910 C   0  0  0  0  0  0  0  0  0  0  0  0
  157.4200  211.2170  156.3200 C   0  0  1  0  0  3  0  0  0  0  0  0
  159.4670  212.2460  157.1160 C   0  0  0  0  0  2  0  0  0  0  0  0
  161.8650  206.6280  151.9500 C   0  0  0  0  0  0  0  0  0  0  0  0
  157.5050  213.4290  157.2480 C   0  0  0  0  0  2  0  0  0  0  0  0
  159.8580  213.5310  154.0000 C   0  0  0  0  0  3  0  0  0  0  0  0
  160.9920  212.1660  156.0590 S   0  0  0  0  0  0  0  0  0  0  0  0
  160.2640  212.2560  154.4140 C   0  0  0  0  0  0  0  0  0  0  0  0
  160.5790  209.7350  153.7940 C   0  0  0  0  0  0  0  0  0  0  0  0
  161.6790  205.3080  152.4500 N   0  0  0  0  0  0  0  0  0  0  0  0
  155.2760  212.3720  156.1670 O   0  0  0  0  0  0  0  0  0  0  0  0
  158.2110  212.4780  156.3910 N   0  0  2  0  0  0  0  0  0  0  0  0
  161.0870  205.4430  153.5990 C   0  0  0  0  0  3  0  0  0  0  0  0
  156.1010  211.4220  155.5580 C   0  0  0  0  0  2  0  0  0  0  0  0
  155.6310  213.5810  155.5570 C   0  0  1  0  0  3  0  0  0  0  0  0
  159.6390  211.4060  152.2260 C   0  0  0  0  0  3  0  0  0  0  0  0
  160.1760  211.1560  153.5050 C   0  0  0  0  0  0  0  0  0  0  0  0
  161.1340  209.0320  152.7820 C   0  0  0  0  0  3  0  0  0  0  0  0
  158.1660  210.2110  155.5040 C   0  0  0  0  0  2  0  0  0  0  0  0
  159.6080  206.8040  155.8970 O   0  0  0  0  0  0  0  0  0  0  0  0
  162.3840  206.8960  150.8350 O   0  0  0  0  0  0  0  0  0  0  0  0
  160.2830  209.0020  155.1230 C   0  0  1  0  0  3  0  0  0  0  0  0
  161.3510  207.5830  152.9010 C   0  0  0  0  0  0  0  0  0  0  0  0
  154.3970  214.4240  155.2920 C   0  0  0  0  0  2  0  0  0  0  0  0
  154.0140  214.4520  153.5110 S   0  0  0  0  0  0  0  0  0  0  0  0
  155.8790  214.3770  151.5110 C   0  0  0  0  0  1  0  0  0  0  0  0
  155.7560  214.2790  153.0180 C   0  0  0  0  0  2  0  0  0  0  0  0
  1 10  1  0  0  0  0
  3 11  1  0  0  0  0
  4 21  1  0  0  0  0
  4  3  2  0  0  0  0
  5 27  1  0  0  0  0
  5 25  2  0  0  0  0
  6  5  1  0  0  0  0
  7 24  1  6  0  0  0
  7 17  1  0  0  0  0
  9 15  1  0  0  0  0
  9 28  1  0  0  0  0
 11 13  2  0  0  0  0
 12  8  1  0  0  0  0
 13 12  1  0  0  0  0
 14 27  1  0  0  0  0
 15 18  2  0  0  0  0
 17  8  1  1  0  0  0
 17 10  1  0  0  0  0
 18  6  1  0  0  0  0
 19 16  1  0  0  0  0
 19  7  1  0  0  0  0
 20 29  1  1  0  0  0
 20 16  1  0  0  0  0
 20  1  1  0  0  0  0
 21 22  2  0  0  0  0
 22 14  1  0  0  0  0
 22 13  1  0  0  0  0
 23 28  1  0  0  0  0
 23 14  2  0  0  0  0
 24  2  1  0  0  0  0
 26  9  2  0  0  0  0
 27  2  1  6  0  0  0
 28  6  2  0  0  0  0
 30 29  1  0  0  0  0
 31 32  1  0  0  0  0
 32 30  1  0  0  0  0
M  END
>  <MODEL>
1

>  <REMARK>
 VINA RESULT:      -4.3      0.000      0.000
  Name = 
  3 active torsions:
  status: ('A' for Active; 'I' for Inactive)
    1  A    between atoms: S_1  and  C_10
    2  A    between atoms: S_1  and  C_20
    3  A    between atoms: C_10  and  C_24
                            x       y       z     vdW  Elec       q    Type
                         _______ _______ _______ _____ _____    ______ ____

>  <TORSDO>
F 3

$$$$
=
 OpenBabel11062410373D

 32 36  0  0  1  0  0  0  0  0999 V2000
  158.5490  213.5230  156.8420 C   0  0  0  0  0  2  0  0  0  0  0  0
  160.5040  208.6640  155.4090 C   0  0  0  0  0  2  0  0  0  0  0  0
  159.6940  212.8830  152.3920 C   0  0  0  0  0  3  0  0  0  0  0  0
  159.1900  211.8640  151.5920 C   0  0  0  0  0  3  0  0  0  0  0  0
  160.8480  206.5110  154.1250 C   0  0  0  0  0  0  0  0  0  0  0  0
  161.0370  205.8810  152.8190 C   0  0  0  0  0  0  0  0  0  0  0  0
  159.0310  210.3440  156.3970 C   0  0  1  0  0  3  0  0  0  0  0  0
  161.2980  211.2090  156.4080 C   0  0  0  0  0  2  0  0  0  0  0  0
  161.2410  205.6580  150.6460 C   0  0  0  0  0  0  0  0  0  0  0  0
  159.6090  212.5080  157.2600 C   0  0  0  0  0  2  0  0  0  0  0  0
  160.6280  212.5890  153.3810 C   0  0  0  0  0  3  0  0  0  0  0  0
  162.3260  211.0740  154.8670 S   0  0  0  0  0  0  0  0  0  0  0  0
  161.0610  211.2750  153.6010 C   0  0  0  0  0  0  0  0  0  0  0  0
  160.9430  208.7650  152.8750 C   0  0  0  0  0  0  0  0  0  0  0  0
  161.1520  204.3340  151.1620 N   0  0  0  0  0  0  0  0  0  0  0  0
  157.0690  211.6390  157.0500 O   0  0  0  0  0  0  0  0  0  0  0  0
  159.8840  211.5490  156.1930 N   0  0  2  0  0  0  0  0  0  0  0  0
  161.0280  204.4610  152.4500 C   0  0  0  0  0  3  0  0  0  0  0  0
  157.5440  210.6630  156.1700 C   0  0  0  0  0  2  0  0  0  0  0  0
  157.2670  212.8460  156.3700 C   0  0  1  0  0  3  0  0  0  0  0  0
  159.6260  210.5530  151.7790 C   0  0  0  0  0  3  0  0  0  0  0  0
  160.5680  210.2190  152.7710 C   0  0  0  0  0  0  0  0  0  0  0  0
  161.0400  208.0690  151.7200 C   0  0  0  0  0  3  0  0  0  0  0  0
  159.3540  209.3260  155.3520 C   0  0  0  0  0  2  0  0  0  0  0  0
  160.5860  205.8210  155.1460 O   0  0  0  0  0  0  0  0  0  0  0  0
  161.3400  205.9370  149.4230 O   0  0  0  0  0  0  0  0  0  0  0  0
  161.0950  208.0010  154.2100 C   0  0  1  0  0  3  0  0  0  0  0  0
  161.1780  206.6050  151.7330 C   0  0  0  0  0  0  0  0  0  0  0  0
  156.0860  213.7760  156.5830 C   0  0  0  0  0  2  0  0  0  0  0  0
  155.0970  213.9110  155.0590 S   0  0  0  0  0  0  0  0  0  0  0  0
  156.3320  214.2880  152.6480 C   0  0  0  0  0  1  0  0  0  0  0  0
  156.5160  213.5770  153.9730 C   0  0  0  0  0  2  0  0  0  0  0  0
  1 10  1  0  0  0  0
  3 11  1  0  0  0  0
  4 21  1  0  0  0  0
  4  3  2  0  0  0  0
  5 27  1  0  0  0  0
  5 25  2  0  0  0  0
  6  5  1  0  0  0  0
  7 24  1  6  0  0  0
  9 15  1  0  0  0  0
  9 28  1  0  0  0  0
 11 13  2  0  0  0  0
 12  8  1  0  0  0  0
 13 12  1  0  0  0  0
 14 27  1  0  0  0  0
 15 18  2  0  0  0  0
 17  7  1  0  0  0  0
 17  8  1  1  0  0  0
 17 10  1  0  0  0  0
 18  6  1  0  0  0  0
 19  7  1  0  0  0  0
 19 16  1  0  0  0  0
 20 29  1  1  0  0  0
 20  1  1  0  0  0  0
 20 16  1  0  0  0  0
 21 22  2  0  0  0  0
 22 14  1  0  0  0  0
 22 13  1  0  0  0  0
 23 28  1  0  0  0  0
 23 14  2  0  0  0  0
 24  2  1  0  0  0  0
 26  9  2  0  0  0  0
 27  2  1  1  0  0  0
 28  6  2  0  0  0  0
 30 29  1  0  0  0  0
 31 32  1  0  0  0  0
 32 30  1  0  0  0  0
M  END
>  <MODEL>
2

>  <REMARK>
 VINA RESULT:      -2.3      1.299      1.689
  Name = 
  3 active torsions:
  status: ('A' for Active; 'I' for Inactive)
    1  A    between atoms: S_1  and  C_10
    2  A    between atoms: S_1  and  C_20
    3  A    between atoms: C_10  and  C_24
                            x       y       z     vdW  Elec       q    Type
                         _______ _______ _______ _____ _____    ______ ____

>  <TORSDO>
F 3

$$$$
=
 OpenBabel11062410373D

 32 36  0  0  1  0  0  0  0  0999 V2000
  162.8570  206.2890  151.9430 C   0  0  0  0  0  2  0  0  0  0  0  0
  160.0790  210.9150  152.5530 C   0  0  0  0  0  2  0  0  0  0  0  0
  160.8900  207.0990  156.0660 C   0  0  0  0  0  3  0  0  0  0  0  0
  159.5380  207.3690  156.2500 C   0  0  0  0  0  3  0  0  0  0  0  0
  158.2290  212.5280  153.1690 C   0  0  0  0  0  0  0  0  0  0  0  0
  157.2780  212.9680  154.1880 C   0  0  0  0  0  0  0  0  0  0  0  0
  160.8280  208.7980  151.5900 C   0  0  1  0  0  3  0  0  0  0  0  0
  162.6940  209.8100  152.7650 C   0  0  0  0  0  2  0  0  0  0  0  0
  156.1740  213.0490  156.0820 C   0  0  0  0  0  0  0  0  0  0  0  0
  163.0040  207.7920  151.7180 C   0  0  0  0  0  2  0  0  0  0  0  0
  161.7190  208.0680  155.5090 C   0  0  0  0  0  3  0  0  0  0  0  0
  162.4300  210.4800  154.4770 S   0  0  0  0  0  0  0  0  0  0  0  0
  161.2140  209.3120  155.1090 C   0  0  0  0  0  0  0  0  0  0  0  0
  159.1430  210.9010  154.9500 C   0  0  0  0  0  0  0  0  0  0  0  0
  155.5100  213.9590  155.2110 N   0  0  0  0  0  0  0  0  0  0  0  0
  160.8810  206.5680  150.6010 O   0  0  0  0  0  0  0  0  0  0  0  0
  162.0040  208.5470  152.4710 N   0  0  2  0  0  0  0  0  0  0  0  0
  156.1600  213.9130  154.0860 C   0  0  0  0  0  3  0  0  0  0  0  0
  160.0770  207.4970  151.2690 C   0  0  0  0  0  2  0  0  0  0  0  0
  161.4480  205.8010  151.6250 C   0  0  1  0  0  3  0  0  0  0  0  0
  159.0200  208.6090  155.8810 C   0  0  0  0  0  3  0  0  0  0  0  0
  159.8300  209.6120  155.3130 C   0  0  0  0  0  0  0  0  0  0  0  0
  158.1700  211.3380  155.7820 C   0  0  0  0  0  3  0  0  0  0  0  0
  159.8290  209.6320  152.3250 C   0  0  0  0  0  2  0  0  0  0  0  0
  158.1330  212.9250  151.9770 O   0  0  0  0  0  0  0  0  0  0  0  0
  155.8080  212.8020  157.2610 O   0  0  0  0  0  0  0  0  0  0  0  0
  159.3890  211.6760  153.6350 C   0  0  1  0  0  3  0  0  0  0  0  0
  157.2960  212.4550  155.3970 C   0  0  0  0  0  0  0  0  0  0  0  0
  161.4890  204.3360  151.2300 C   0  0  0  0  0  2  0  0  0  0  0  0
  161.1030  204.1410  149.4610 S   0  0  0  0  0  0  0  0  0  0  0  0
  160.9140  201.6310  148.3920 C   0  0  0  0  0  1  0  0  0  0  0  0
  160.5810  202.4100  149.6480 C   0  0  0  0  0  2  0  0  0  0  0  0
  3  4  1  0  0  0  0
  5 27  1  0  0  0  0
  5  6  1  0  0  0  0
  6 28  2  0  0  0  0
  7 19  1  1  0  0  0
  7 24  1  0  0  0  0
  7 17  1  0  0  0  0
  8 12  1  0  0  0  0
  9 26  2  0  0  0  0
 10  1  1  0  0  0  0
 11  3  2  0  0  0  0
 12 13  1  0  0  0  0
 13 22  2  0  0  0  0
 13 11  1  0  0  0  0
 14 22  1  0  0  0  0
 14 23  2  0  0  0  0
 15  9  1  0  0  0  0
 16 19  1  0  0  0  0
 16 20  1  0  0  0  0
 17 10  1  6  0  0  0
 17  8  1  0  0  0  0
 18  6  1  0  0  0  0
 18 15  2  0  0  0  0
 20 29  1  6  0  0  0
 20  1  1  0  0  0  0
 21  4  2  0  0  0  0
 22 21  1  0  0  0  0
 24  2  1  0  0  0  0
 25  5  2  0  0  0  0
 27  2  1  6  0  0  0
 27 14  1  0  0  0  0
 28 23  1  0  0  0  0
 28  9  1  0  0  0  0
 30 32  1  0  0  0  0
 30 29  1  0  0  0  0
 31 32  1  0  0  0  0
M  END
>  <MODEL>
3

>  <REMARK>
 VINA RESULT:      -2.3      2.947      8.234
  Name = 
  3 active torsions:
  status: ('A' for Active; 'I' for Inactive)
    1  A    between atoms: S_1  and  C_10
    2  A    between atoms: S_1  and  C_20
    3  A    between atoms: C_10  and  C_24
                            x       y       z     vdW  Elec       q    Type
                         _______ _______ _______ _____ _____    ______ ____

>  <TORSDO>
F 3

$$$$
