=
 OpenBabel11062409533D

 34 40  0  0  1  0  0  0  0  0999 V2000
  161.1400  210.2450  154.0860 C   0  0  1  0  0  3  0  0  0  0  0  0
  160.3680  208.5190  152.3230 C   0  0  1  0  0  3  0  0  0  0  0  0
  158.4150  213.4470  155.2090 C   0  0  0  0  0  0  0  0  0  0  0  0
  161.4920  207.9020  154.5430 C   0  0  2  0  0  3  0  0  0  0  0  0
  157.7320  211.0380  155.3050 C   0  0  0  0  0  2  0  0  0  0  0  0
  159.7830  212.9630  152.2130 O   0  0  0  0  0  0  0  0  0  0  0  0
  160.6220  210.7690  157.0250 C   0  0  2  0  0  3  0  0  0  0  0  0
  160.8300  211.6600  154.5740 C   0  0  0  0  0  2  0  0  0  0  0  0
  160.8850  209.3750  156.4630 C   0  0  1  0  0  0  0  0  0  0  0  0
  158.4670  212.5510  151.9620 C   0  0  0  0  0  0  0  0  0  0  0  0
  161.8180  208.5670  157.1440 O   0  0  0  0  0  0  0  0  0  0  0  0
  160.8260  212.9980  151.2360 C   0  0  2  0  0  3  0  0  0  0  0  0
  158.0810  212.3030  150.7880 O   0  0  0  0  0  0  0  0  0  0  0  0
  157.4790  213.5590  154.0370 C   0  0  0  0  0  2  0  0  0  0  0  0
  159.6280  209.6320  157.2610 C   0  0  0  0  0  2  0  0  0  0  0  0
  160.1340  211.7490  155.9350 C   0  0  1  0  0  3  0  0  0  0  0  0
  161.4200  206.7370  155.5290 C   0  0  0  0  0  2  0  0  0  0  0  0
  160.6600  209.1050  154.9770 C   0  0  1  0  0  3  0  0  0  0  0  0
  160.5160  214.0070  150.1440 C   0  0  0  0  0  1  0  0  0  0  0  0
  161.3970  207.2230  156.9940 C   0  0  0  0  0  2  0  0  0  0  0  0
  157.8220  210.9920  153.7800 C   0  0  0  0  0  2  0  0  0  0  0  0
  161.6400  210.6600  151.6420 C   0  0  0  0  0  0  0  0  0  0  0  0
  157.5250  212.3380  153.1020 C   0  0  2  0  0  3  0  0  0  0  0  0
  161.0950  211.6220  150.6310 C   0  0  0  0  0  2  0  0  0  0  0  0
  158.6370  212.1240  155.8990 C   0  0  1  0  0  3  0  0  0  0  0  0
  158.9500  214.4530  155.6420 O   0  0  0  0  0  0  0  0  0  0  0  0
  161.2320  207.4950  153.0830 C   0  0  0  0  0  2  0  0  0  0  0  0
  162.9320  210.3310  151.6020 C   0  0  0  0  0  2  0  0  0  0  0  0
  160.7010  210.0100  152.6270 C   0  0  2  0  0  3  0  0  0  0  0  0
  160.2400  208.1720  150.8470 C   0  0  0  0  0  2  0  0  0  0  0  0
  161.4660  207.2950  148.8950 C   0  0  2  0  0  3  0  0  0  0  0  0
  160.9030  206.1130  149.6520 C   0  0  0  0  0  2  0  0  0  0  0  0
  162.7670  207.0040  148.4890 O   0  0  0  0  0  1  0  0  0  0  0  0
  161.4160  207.3210  150.4090 C   0  0  2  0  0  3  0  0  0  0  0  0
  1  8  1  1  0  0  0
  1 18  1  0  0  0  0
  2 30  1  6  0  0  0
  2 29  1  0  0  0  0
  2 27  1  0  0  0  0
  3 26  2  0  0  0  0
  3 25  1  0  0  0  0
  4 27  1  6  0  0  0
  4 18  1  0  0  0  0
  4 17  1  0  0  0  0
  5 25  1  0  0  0  0
  7 15  1  1  0  0  0
  9  7  1  0  0  0  0
  9 11  1  0  0  0  0
  9 15  1  1  0  0  0
 10  6  1  0  0  0  0
 10 23  1  0  0  0  0
 12 19  1  6  0  0  0
 12  6  1  0  0  0  0
 13 10  2  0  0  0  0
 14  3  1  0  0  0  0
 16  8  1  6  0  0  0
 16  7  1  0  0  0  0
 17 20  1  0  0  0  0
 18  9  1  0  0  0  0
 20 11  1  0  0  0  0
 21  5  1  0  0  0  0
 22 29  1  0  0  0  0
 23 21  1  0  0  0  0
 23 14  1  0  0  0  0
 24 12  1  0  0  0  0
 24 22  1  0  0  0  0
 25 16  1  0  0  0  0
 28 22  2  0  0  0  0
 29  1  1  0  0  0  0
 31 32  1  0  0  0  0
 31 34  1  0  0  0  0
 32 34  1  0  0  0  0
 33 31  1  0  0  0  0
 34 30  1  0  0  0  0
M  END
>  <MODEL>
1

>  <REMARK>
 VINA RESULT:      -1.1      0.000      0.000
  Name = 
  2 active torsions:
  status: ('A' for Active; 'I' for Inactive)
    1  A    between atoms: C_2  and  C_23
    2  A    between atoms: C_23  and  C_25
                            x       y       z     vdW  Elec       q    Type
                         _______ _______ _______ _____ _____    ______ ____

>  <TORSDO>
F 2

$$$$
=
 OpenBabel11062409533D

 34 40  0  0  1  0  0  0  0  0999 V2000
  161.2840  210.6490  152.6500 C   0  0  1  0  0  3  0  0  0  0  0  0
  158.8170  211.0320  153.3210 C   0  0  1  0  0  3  0  0  0  0  0  0
  162.6510  206.5780  151.9460 C   0  0  0  0  0  0  0  0  0  0  0  0
  160.0420  212.3800  151.5170 C   0  0  2  0  0  3  0  0  0  0  0  0
  160.6460  207.5180  150.7720 C   0  0  0  0  0  2  0  0  0  0  0  0
  161.5810  207.8420  154.8340 O   0  0  0  0  0  0  0  0  0  0  0  0
  162.7980  210.0290  150.1000 C   0  0  2  0  0  3  0  0  0  0  0  0
  162.3520  209.5550  152.6340 C   0  0  0  0  0  2  0  0  0  0  0  0
  161.6850  211.0700  150.1730 C   0  0  1  0  0  0  0  0  0  0  0  0
  160.4820  207.0460  154.4810 C   0  0  0  0  0  0  0  0  0  0  0  0
  161.9340  212.3260  149.5850 O   0  0  0  0  0  0  0  0  0  0  0  0
  161.6810  208.6070  156.0370 C   0  0  2  0  0  3  0  0  0  0  0  0
  159.5400  206.8490  155.2940 O   0  0  0  0  0  0  0  0  0  0  0  0
  161.6740  205.7260  152.7110 C   0  0  0  0  0  2  0  0  0  0  0  0
  161.5930  209.9490  149.1630 C   0  0  0  0  0  2  0  0  0  0  0  0
  162.7060  209.0020  151.2510 C   0  0  1  0  0  3  0  0  0  0  0  0
  159.6610  213.0730  150.2100 C   0  0  0  0  0  2  0  0  0  0  0  0
  160.6610  211.0020  151.3040 C   0  0  1  0  0  3  0  0  0  0  0  0
  161.7010  207.7030  157.2570 C   0  0  0  0  0  1  0  0  0  0  0  0
  160.6970  212.8130  149.0960 C   0  0  0  0  0  2  0  0  0  0  0  0
  159.9270  207.5610  152.1190 C   0  0  0  0  0  2  0  0  0  0  0  0
  160.6590  210.6980  155.0990 C   0  0  0  0  0  0  0  0  0  0  0  0
  160.3900  206.4760  153.1030 C   0  0  2  0  0  3  0  0  0  0  0  0
  160.5630  209.6400  156.1560 C   0  0  0  0  0  2  0  0  0  0  0  0
  162.1700  207.5890  150.9360 C   0  0  1  0  0  3  0  0  0  0  0  0
  163.8470  206.3990  152.1020 O   0  0  0  0  0  0  0  0  0  0  0  0
  158.9150  212.3700  152.5650 C   0  0  0  0  0  2  0  0  0  0  0  0
  161.0840  211.9180  155.4310 C   0  0  0  0  0  2  0  0  0  0  0  0
  160.1860  210.3910  153.7010 C   0  0  2  0  0  3  0  0  0  0  0  0
  157.7940  211.0880  154.4470 C   0  0  0  0  0  2  0  0  0  0  0  0
  157.0870  212.6850  156.1880 C   0  0  2  0  0  3  0  0  0  0  0  0
  155.9560  212.5610  155.1920 C   0  0  0  0  0  2  0  0  0  0  0  0
  157.2450  214.0240  156.5410 O   0  0  0  0  0  1  0  0  0  0  0  0
  157.3920  212.5250  154.7120 C   0  0  2  0  0  3  0  0  0  0  0  0
  1  8  1  6  0  0  0
  1 29  1  0  0  0  0
  2 29  1  0  0  0  0
  2 30  1  1  0  0  0
  3 26  2  0  0  0  0
  3 14  1  0  0  0  0
  4 17  1  6  0  0  0
  4 27  1  0  0  0  0
  5 25  1  0  0  0  0
  5 21  1  0  0  0  0
  6 12  1  0  0  0  0
  7 15  1  6  0  0  0
  7  9  1  0  0  0  0
  7 16  1  0  0  0  0
  9 15  1  6  0  0  0
  9 18  1  0  0  0  0
 10  6  1  0  0  0  0
 10 13  2  0  0  0  0
 11  9  1  0  0  0  0
 12 24  1  0  0  0  0
 12 19  1  1  0  0  0
 14 23  1  0  0  0  0
 16  8  1  1  0  0  0
 18  4  1  0  0  0  0
 18  1  1  0  0  0  0
 20 11  1  0  0  0  0
 20 17  1  0  0  0  0
 21 23  1  0  0  0  0
 22 28  2  0  0  0  0
 22 24  1  0  0  0  0
 23 10  1  0  0  0  0
 25 16  1  0  0  0  0
 25  3  1  0  0  0  0
 27  2  1  0  0  0  0
 29 22  1  0  0  0  0
 30 34  1  0  0  0  0
 31 33  1  0  0  0  0
 32 31  1  0  0  0  0
 34 32  1  0  0  0  0
 34 31  1  0  0  0  0
M  END
>  <MODEL>
2

>  <REMARK>
 VINA RESULT:       1.0      1.694      7.120
  Name = 
  2 active torsions:
  status: ('A' for Active; 'I' for Inactive)
    1  A    between atoms: C_2  and  C_23
    2  A    between atoms: C_23  and  C_25
                            x       y       z     vdW  Elec       q    Type
                         _______ _______ _______ _____ _____    ______ ____

>  <TORSDO>
F 2

$$$$
=
 OpenBabel11062409533D

 34 40  0  0  1  0  0  0  0  0999 V2000
  161.3560  210.3080  152.8280 C   0  0  1  0  0  3  0  0  0  0  0  0
  160.7650  208.6570  150.9290 C   0  0  1  0  0  3  0  0  0  0  0  0
  158.5220  213.4590  153.8170 C   0  0  0  0  0  0  0  0  0  0  0  0
  161.6730  207.9490  153.2190 C   0  0  2  0  0  3  0  0  0  0  0  0
  157.8430  211.0480  153.7450 C   0  0  0  0  0  2  0  0  0  0  0  0
  160.1730  213.1020  150.9480 O   0  0  0  0  0  0  0  0  0  0  0  0
  160.5560  210.7080  155.7230 C   0  0  2  0  0  3  0  0  0  0  0  0
  160.9950  211.7020  153.3420 C   0  0  0  0  0  2  0  0  0  0  0  0
  160.8780  209.3390  155.1310 C   0  0  1  0  0  0  0  0  0  0  0  0
  158.8890  212.7010  150.5550 C   0  0  0  0  0  0  0  0  0  0  0  0
  161.7440  208.5040  155.8650 O   0  0  0  0  0  0  0  0  0  0  0  0
  161.3050  213.1790  150.0790 C   0  0  2  0  0  3  0  0  0  0  0  0
  158.6180  212.5020  149.3400 O   0  0  0  0  0  0  0  0  0  0  0  0
  157.7020  213.6200  152.5660 C   0  0  0  0  0  2  0  0  0  0  0  0
  159.5480  209.5620  155.8140 C   0  0  0  0  0  2  0  0  0  0  0  0
  160.1710  211.7330  154.6330 C   0  0  1  0  0  3  0  0  0  0  0  0
  161.5110  206.7430  154.1430 C   0  0  0  0  0  2  0  0  0  0  0  0
  160.7970  209.1320  153.6200 C   0  0  1  0  0  3  0  0  0  0  0  0
  161.0970  214.2320  149.0060 C   0  0  0  0  0  1  0  0  0  0  0  0
  161.3460  207.1670  155.6190 C   0  0  0  0  0  2  0  0  0  0  0  0
  158.0800  211.0670  152.2360 C   0  0  0  0  0  2  0  0  0  0  0  0
  162.0870  210.8260  150.4630 C   0  0  0  0  0  0  0  0  0  0  0  0
  157.8430  212.4400  151.5890 C   0  0  2  0  0  3  0  0  0  0  0  0
  161.6370  211.8300  149.4460 C   0  0  0  0  0  2  0  0  0  0  0  0
  158.6830  212.1090  154.4690 C   0  0  1  0  0  3  0  0  0  0  0  0
  159.0080  214.4470  154.3410 O   0  0  0  0  0  0  0  0  0  0  0  0
  161.5560  207.6030  151.7240 C   0  0  0  0  0  2  0  0  0  0  0  0
  163.3780  210.4990  150.5340 C   0  0  0  0  0  2  0  0  0  0  0  0
  161.0600  210.1350  151.3250 C   0  0  2  0  0  3  0  0  0  0  0  0
  160.7800  208.3730  149.4330 C   0  0  0  0  0  2  0  0  0  0  0  0
  161.1210  206.5380  147.8210 C   0  0  2  0  0  3  0  0  0  0  0  0
  160.6140  205.9290  149.1080 C   0  0  0  0  0  2  0  0  0  0  0  0
  162.1410  205.7410  147.3050 O   0  0  0  0  0  1  0  0  0  0  0  0
  161.5650  207.1070  149.1540 C   0  0  2  0  0  3  0  0  0  0  0  0
  1  8  1  1  0  0  0
  1 18  1  0  0  0  0
  2 30  1  6  0  0  0
  2 29  1  0  0  0  0
  2 27  1  0  0  0  0
  3 26  2  0  0  0  0
  3 25  1  0  0  0  0
  4 27  1  6  0  0  0
  4 18  1  0  0  0  0
  4 17  1  0  0  0  0
  5 25  1  0  0  0  0
  7 15  1  1  0  0  0
  9  7  1  0  0  0  0
  9 15  1  1  0  0  0
  9 11  1  0  0  0  0
 10  6  1  0  0  0  0
 10 23  1  0  0  0  0
 12 19  1  6  0  0  0
 12  6  1  0  0  0  0
 13 10  2  0  0  0  0
 14  3  1  0  0  0  0
 16  8  1  6  0  0  0
 16  7  1  0  0  0  0
 17 20  1  0  0  0  0
 18  9  1  0  0  0  0
 20 11  1  0  0  0  0
 21  5  1  0  0  0  0
 22 28  2  0  0  0  0
 22 29  1  0  0  0  0
 23 21  1  0  0  0  0
 23 14  1  0  0  0  0
 24 12  1  0  0  0  0
 24 22  1  0  0  0  0
 25 16  1  0  0  0  0
 29  1  1  0  0  0  0
 31 32  1  0  0  0  0
 31 34  1  0  0  0  0
 32 34  1  0  0  0  0
 33 31  1  0  0  0  0
 34 30  1  0  0  0  0
M  END
>  <MODEL>
3

>  <REMARK>
 VINA RESULT:       1.5      1.164      1.380
  Name = 
  2 active torsions:
  status: ('A' for Active; 'I' for Inactive)
    1  A    between atoms: C_2  and  C_23
    2  A    between atoms: C_23  and  C_25
                            x       y       z     vdW  Elec       q    Type
                         _______ _______ _______ _____ _____    ______ ____

>  <TORSDO>
F 2

$$$$
