=
 OpenBabel11062409553D

 43 48  0  0  1  0  0  0  0  0999 V2000
  161.0000  206.7160  153.7190 C   0  0  0  0  0  3  0  0  0  0  0  0
  161.1230  201.6590  148.2820 C   0  0  0  0  0  0  0  0  0  0  0  0
  161.2010  205.3590  151.6950 C   0  0  0  0  0  0  0  0  0  0  0  0
  162.0960  207.7290  150.3610 C   0  0  2  0  0  3  0  0  0  0  0  0
  161.1060  202.9350  150.3380 C   0  0  0  0  0  0  0  0  0  0  0  0
  161.2490  202.8410  147.5460 C   0  0  0  0  0  3  0  0  0  0  0  0
  161.0640  200.3520  147.5790 C   0  0  0  0  0  1  0  0  0  0  0  0
  161.2350  204.1350  149.6030 C   0  0  0  0  0  0  0  0  0  0  0  0
  161.0490  201.7050  149.6770 C   0  0  0  0  0  3  0  0  0  0  0  0
  161.3050  204.0740  148.2030 C   0  0  0  0  0  3  0  0  0  0  0  0
  161.3440  206.6730  149.5470 C   0  0  0  0  0  2  0  0  0  0  0  0
  161.2910  205.3610  150.2890 C   0  0  0  0  0  0  0  0  0  0  0  0
  161.0720  204.1830  152.3720 N   0  0  0  0  0  0  0  0  0  0  0  0
  161.2650  206.6460  152.4130 C   0  0  0  0  0  0  0  0  0  0  0  0
  161.5890  207.8010  151.6930 O   0  0  0  0  0  0  0  0  0  0  0  0
  161.0240  202.9860  151.7300 C   0  0  0  0  0  3  0  0  0  0  0  0
  160.2800  210.3730  154.5350 C   0  0  0  0  0  2  0  0  0  0  0  0
  159.5330  210.0400  155.7500 N   0  0  0  0  0  0  0  0  0  0  0  0
  160.2950  207.8410  155.7990 C   0  0  0  0  0  2  0  0  0  0  0  0
  160.4080  209.1270  153.6670 C   0  0  0  0  0  2  0  0  0  0  0  0
  161.0430  208.0000  154.4800 C   0  0  2  0  0  3  0  0  0  0  0  0
  160.2900  209.1220  156.5080 N   0  0  0  0  0  2  0  0  0  0  0  0
  158.4070  212.1060  155.9810 O   0  0  0  0  0  1  0  0  0  0  0  0
  159.3690  211.2580  156.5430 C   0  0  0  0  0  2  0  0  0  0  0  0
  161.9800  209.0610  149.7060 C   0  0  0  0  0  0  0  0  0  0  0  0
  161.8870  209.1280  148.4500 O   0  0  0  0  0  0  0  0  0  0  0  0
  161.9780  210.2170  150.4890 O   0  0  0  0  0  0  0  0  0  0  0  0
  161.0760  211.2920  150.2590 C   0  0  1  0  0  3  0  0  0  0  0  0
  160.6540  211.8100  151.4710 F   0  0  0  0  0  0  0  0  0  0  0  0
  161.7700  212.3890  149.4690 C   0  0  0  0  0  2  0  0  0  0  0  0
  161.3030  212.4020  148.0200 C   0  0  2  0  0  3  0  0  0  0  0  0
  161.2610  214.1550  146.5060 O   0  0  0  0  0  0  0  0  0  0  0  0
  162.3880  212.2460  147.1570 O   0  0  0  0  0  0  0  0  0  0  0  0
  160.6860  213.7300  147.6980 C   0  0  1  0  0  3  0  0  0  0  0  0
  162.4760  213.4570  146.4510 C   0  0  0  0  0  2  0  0  0  0  0  0
  158.3240  213.9030  148.6450 N   0  0  0  0  0  0  0  0  0  0  0  0
  159.1990  213.5970  147.5490 C   0  0  0  0  0  0  0  0  0  0  0  0
  156.1760  213.5690  149.7620 C   0  0  0  0  0  2  0  0  0  0  0  0
  157.9470  214.0690  151.0550 C   0  0  0  0  0  2  0  0  0  0  0  0
  156.6240  214.4450  150.7670 O   0  0  0  0  0  0  0  0  0  0  0  0
  158.8620  214.4510  149.8910 C   0  0  0  0  0  2  0  0  0  0  0  0
  156.8750  213.8930  148.4430 C   0  0  0  0  0  2  0  0  0  0  0  0
  158.7230  213.1760  146.4590 O   0  0  0  0  0  0  0  0  0  0  0  0
  2  9  1  0  0  0  0
  3 13  1  0  0  0  0
  3 14  1  0  0  0  0
  4 25  1  6  0  0  0
  4 15  1  0  0  0  0
  5 16  1  0  0  0  0
  6 10  1  0  0  0  0
  6  2  2  0  0  0  0
  7  2  1  0  0  0  0
  8 12  1  0  0  0  0
  8  5  1  0  0  0  0
  9  5  2  0  0  0  0
 10  8  2  0  0  0  0
 11 12  1  0  0  0  0
 11  4  1  0  0  0  0
 12  3  2  0  0  0  0
 14  1  2  0  0  0  0
 15 14  1  0  0  0  0
 16 13  2  0  0  0  0
 17 18  1  0  0  0  0
 18 22  1  0  0  0  0
 18 24  1  0  0  0  0
 19 22  1  0  0  0  0
 20 21  1  0  0  0  0
 20 17  1  0  0  0  0
 21  1  1  6  0  0  0
 21 19  1  0  0  0  0
 23 24  1  0  0  0  0
 25 27  1  0  0  0  0
 26 25  2  0  0  0  0
 28 27  1  0  0  0  0
 28 29  1  1  0  0  0
 30 28  1  0  0  0  0
 31 30  1  1  0  0  0
 32 34  1  0  0  0  0
 33 31  1  0  0  0  0
 34 37  1  6  0  0  0
 34 31  1  0  0  0  0
 35 32  1  0  0  0  0
 35 33  1  0  0  0  0
 36 41  1  0  0  0  0
 37 36  1  0  0  0  0
 38 40  1  0  0  0  0
 40 39  1  0  0  0  0
 41 39  1  0  0  0  0
 42 36  1  0  0  0  0
 42 38  1  0  0  0  0
 43 37  2  0  0  0  0
M  END
>  <MODEL>
1

>  <REMARK>
 VINA RESULT:      -9.7      0.000      0.000
  Name = 
  8 active torsions:
  status: ('A' for Active; 'I' for Inactive)
    1  A    between atoms: C_1  and  C_35
    2  A    between atoms: C_2  and  O_6
    3  A    between atoms: C_2  and  C_13
    4  A    between atoms: C_3  and  C_4
    5  A    between atoms: C_3  and  C_12
    6  A    between atoms: O_6  and  C_12
    7  A    between atoms: C_14  and  C_22
    8  A    between atoms: N_19  and  C_37
                            x       y       z     vdW  Elec       q    Type
                         _______ _______ _______ _____ _____    ______ ____

>  <TORSDO>
F 8

$$$$
=
 OpenBabel11062409553D

 43 48  0  0  1  0  0  0  0  0999 V2000
  161.0070  206.5720  153.9770 C   0  0  0  0  0  3  0  0  0  0  0  0
  161.0340  202.7360  147.6180 C   0  0  0  0  0  0  0  0  0  0  0  0
  161.1940  205.6500  151.7200 C   0  0  0  0  0  0  0  0  0  0  0  0
  162.2160  208.2010  150.9130 C   0  0  2  0  0  3  0  0  0  0  0  0
  161.0260  203.5630  149.8930 C   0  0  0  0  0  0  0  0  0  0  0  0
  161.2250  204.0370  147.1430 C   0  0  0  0  0  3  0  0  0  0  0  0
  160.9350  201.6050  146.6610 C   0  0  0  0  0  1  0  0  0  0  0  0
  161.2220  204.8810  149.4220 C   0  0  0  0  0  0  0  0  0  0  0  0
  160.9320  202.4990  148.9920 C   0  0  0  0  0  3  0  0  0  0  0  0
  161.3190  205.1060  148.0400 C   0  0  0  0  0  3  0  0  0  0  0  0
  161.4390  207.3690  149.8910 C   0  0  0  0  0  2  0  0  0  0  0  0
  161.3150  205.9370  150.3460 C   0  0  0  0  0  0  0  0  0  0  0  0
  161.0010  204.3680  152.1390 N   0  0  0  0  0  0  0  0  0  0  0  0
  161.2960  206.7590  152.6880 C   0  0  0  0  0  0  0  0  0  0  0  0
  161.6840  208.0210  152.2250 O   0  0  0  0  0  0  0  0  0  0  0  0
  160.9170  203.3320  151.2640 C   0  0  0  0  0  3  0  0  0  0  0  0
  160.9190  210.1300  155.3520 C   0  0  0  0  0  2  0  0  0  0  0  0
  159.7530  209.8630  156.1980 N   0  0  0  0  0  0  0  0  0  0  0  0
  159.9260  207.5530  155.9670 C   0  0  0  0  0  2  0  0  0  0  0  0
  161.0400  209.0340  154.3000 C   0  0  0  0  0  2  0  0  0  0  0  0
  161.0880  207.6690  154.9860 C   0  0  2  0  0  3  0  0  0  0  0  0
  159.9800  208.6680  156.9130 N   0  0  0  0  0  2  0  0  0  0  0  0
  159.7290  212.2020  156.5390 O   0  0  0  0  0  1  0  0  0  0  0  0
  159.6190  210.9530  157.1630 C   0  0  0  0  0  2  0  0  0  0  0  0
  162.1710  209.6420  150.5450 C   0  0  0  0  0  0  0  0  0  0  0  0
  162.4940  210.5110  151.3990 O   0  0  0  0  0  0  0  0  0  0  0  0
  161.7690  210.0140  149.2600 O   0  0  0  0  0  0  0  0  0  0  0  0
  162.0110  211.3110  148.7310 C   0  0  1  0  0  3  0  0  0  0  0  0
  163.3020  211.3760  148.2360 F   0  0  0  0  0  0  0  0  0  0  0  0
  161.0350  211.5990  147.6020 C   0  0  0  0  0  2  0  0  0  0  0  0
  161.2330  213.0040  147.0500 C   0  0  2  0  0  3  0  0  0  0  0  0
  159.8670  214.2330  145.6380 O   0  0  0  0  0  0  0  0  0  0  0  0
  160.5420  213.9340  147.8270 O   0  0  0  0  0  0  0  0  0  0  0  0
  160.6590  213.0900  145.6670 C   0  0  1  0  0  3  0  0  0  0  0  0
  159.5460  214.4530  146.9840 C   0  0  0  0  0  2  0  0  0  0  0  0
  161.5360  212.7490  143.2970 N   0  0  0  0  0  0  0  0  0  0  0  0
  161.7560  213.1830  144.6480 C   0  0  0  0  0  0  0  0  0  0  0  0
  162.4540  211.9020  141.1970 C   0  0  0  0  0  2  0  0  0  0  0  0
  160.3450  211.3180  141.7120 C   0  0  0  0  0  2  0  0  0  0  0  0
  161.1410  211.8740  140.6960 O   0  0  0  0  0  0  0  0  0  0  0  0
  160.2070  212.3110  142.8670 C   0  0  0  0  0  2  0  0  0  0  0  0
  162.5710  212.9670  142.2860 C   0  0  0  0  0  2  0  0  0  0  0  0
  162.8900  213.6100  144.9960 O   0  0  0  0  0  0  0  0  0  0  0  0
  2  9  1  0  0  0  0
  3 13  1  0  0  0  0
  3 14  1  0  0  0  0
  4 25  1  6  0  0  0
  4 15  1  0  0  0  0
  5 16  1  0  0  0  0
  6  2  2  0  0  0  0
  6 10  1  0  0  0  0
  7  2  1  0  0  0  0
  8  5  1  0  0  0  0
  8 12  1  0  0  0  0
  9  5  2  0  0  0  0
 10  8  2  0  0  0  0
 11 12  1  0  0  0  0
 11  4  1  0  0  0  0
 12  3  2  0  0  0  0
 14  1  2  0  0  0  0
 15 14  1  0  0  0  0
 16 13  2  0  0  0  0
 17 18  1  0  0  0  0
 18 22  1  0  0  0  0
 18 24  1  0  0  0  0
 19 22  1  0  0  0  0
 20 21  1  0  0  0  0
 20 17  1  0  0  0  0
 21  1  1  6  0  0  0
 21 19  1  0  0  0  0
 23 24  1  0  0  0  0
 25 26  2  0  0  0  0
 27 25  1  0  0  0  0
 28 29  1  6  0  0  0
 28 27  1  0  0  0  0
 30 28  1  0  0  0  0
 31 30  1  1  0  0  0
 31 33  1  0  0  0  0
 32 34  1  0  0  0  0
 32 35  1  0  0  0  0
 34 37  1  6  0  0  0
 34 31  1  0  0  0  0
 35 33  1  0  0  0  0
 36 37  1  0  0  0  0
 37 43  2  0  0  0  0
 38 42  1  0  0  0  0
 39 41  1  0  0  0  0
 40 38  1  0  0  0  0
 40 39  1  0  0  0  0
 41 36  1  0  0  0  0
 42 36  1  0  0  0  0
M  END
>  <MODEL>
2

>  <REMARK>
 VINA RESULT:      -9.7      2.351      3.823
  Name = 
  8 active torsions:
  status: ('A' for Active; 'I' for Inactive)
    1  A    between atoms: C_1  and  C_35
    2  A    between atoms: C_2  and  O_6
    3  A    between atoms: C_2  and  C_13
    4  A    between atoms: C_3  and  C_4
    5  A    between atoms: C_3  and  C_12
    6  A    between atoms: O_6  and  C_12
    7  A    between atoms: C_14  and  C_22
    8  A    between atoms: N_19  and  C_37
                            x       y       z     vdW  Elec       q    Type
                         _______ _______ _______ _____ _____    ______ ____

>  <TORSDO>
F 8

$$$$
=
 OpenBabel11062409553D

 43 48  0  0  1  0  0  0  0  0999 V2000
  161.0910  206.5120  153.4700 C   0  0  0  0  0  3  0  0  0  0  0  0
  161.1430  201.4320  148.0530 C   0  0  0  0  0  0  0  0  0  0  0  0
  161.2630  205.1470  151.4490 C   0  0  0  0  0  0  0  0  0  0  0  0
  162.1280  207.5150  150.0900 C   0  0  2  0  0  3  0  0  0  0  0  0
  161.1550  202.7170  150.1040 C   0  0  0  0  0  0  0  0  0  0  0  0
  161.2530  202.6120  147.3110 C   0  0  0  0  0  3  0  0  0  0  0  0
  161.0780  200.1210  147.3570 C   0  0  0  0  0  1  0  0  0  0  0  0
  161.2680  203.9140  149.3620 C   0  0  0  0  0  0  0  0  0  0  0  0
  161.0920  201.4840  149.4490 C   0  0  0  0  0  3  0  0  0  0  0  0
  161.3150  203.8480  147.9610 C   0  0  0  0  0  3  0  0  0  0  0  0
  161.3680  206.4530  149.2930 C   0  0  0  0  0  2  0  0  0  0  0  0
  161.3310  205.1440  150.0420 C   0  0  0  0  0  0  0  0  0  0  0  0
  161.1500  203.9740  152.1330 N   0  0  0  0  0  0  0  0  0  0  0  0
  161.3340  206.4370  152.1600 C   0  0  0  0  0  0  0  0  0  0  0  0
  161.6430  207.5910  151.4300 O   0  0  0  0  0  0  0  0  0  0  0  0
  161.0960  202.7740  151.4970 C   0  0  0  0  0  3  0  0  0  0  0  0
  160.2510  210.1240  154.3690 C   0  0  0  0  0  2  0  0  0  0  0  0
  159.6640  209.7530  155.6590 N   0  0  0  0  0  0  0  0  0  0  0  0
  160.5550  207.6030  155.6180 C   0  0  0  0  0  2  0  0  0  0  0  0
  160.3560  208.8840  153.4890 C   0  0  0  0  0  2  0  0  0  0  0  0
  161.1420  207.8000  154.2240 C   0  0  2  0  0  3  0  0  0  0  0  0
  160.5520  208.8840  156.3260 N   0  0  0  0  0  2  0  0  0  0  0  0
  158.8650  211.9760  155.7550 O   0  0  0  0  0  1  0  0  0  0  0  0
  159.5170  210.9620  156.4680 C   0  0  0  0  0  2  0  0  0  0  0  0
  161.9970  208.8430  149.4310 C   0  0  0  0  0  0  0  0  0  0  0  0
  161.6180  208.9050  148.2310 O   0  0  0  0  0  0  0  0  0  0  0  0
  162.2980  210.0020  150.1490 O   0  0  0  0  0  0  0  0  0  0  0  0
  162.3060  211.2910  149.5490 C   0  0  1  0  0  3  0  0  0  0  0  0
  162.7870  211.1960  148.2550 F   0  0  0  0  0  0  0  0  0  0  0  0
  160.8950  211.8530  149.5110 C   0  0  0  0  0  2  0  0  0  0  0  0
  160.8860  213.2800  148.9790 C   0  0  2  0  0  3  0  0  0  0  0  0
  159.3810  214.3030  147.5440 O   0  0  0  0  0  0  0  0  0  0  0  0
  160.0400  214.0800  149.7480 O   0  0  0  0  0  0  0  0  0  0  0  0
  160.3410  213.2960  147.5830 C   0  0  1  0  0  3  0  0  0  0  0  0
  158.9970  214.4510  148.8840 C   0  0  0  0  0  2  0  0  0  0  0  0
  161.2730  213.2270  145.2100 N   0  0  0  0  0  0  0  0  0  0  0  0
  161.4340  213.5720  146.5940 C   0  0  0  0  0  0  0  0  0  0  0  0
  162.2920  212.6380  143.0680 C   0  0  0  0  0  2  0  0  0  0  0  0
  160.2430  211.8180  143.4980 C   0  0  0  0  0  2  0  0  0  0  0  0
  160.9930  212.5250  142.5420 O   0  0  0  0  0  0  0  0  0  0  0  0
  159.9970  212.7000  144.7220 C   0  0  0  0  0  2  0  0  0  0  0  0
  162.2940  213.6210  144.2380 C   0  0  0  0  0  2  0  0  0  0  0  0
  162.5180  214.0770  146.9960 O   0  0  0  0  0  0  0  0  0  0  0  0
  2  9  1  0  0  0  0
  3 13  1  0  0  0  0
  3 14  1  0  0  0  0
  4 25  1  6  0  0  0
  4 15  1  0  0  0  0
  5 16  1  0  0  0  0
  6 10  1  0  0  0  0
  6  2  2  0  0  0  0
  7  2  1  0  0  0  0
  8 12  1  0  0  0  0
  8  5  1  0  0  0  0
  9  5  2  0  0  0  0
 10  8  2  0  0  0  0
 11 12  1  0  0  0  0
 11  4  1  0  0  0  0
 12  3  2  0  0  0  0
 14  1  2  0  0  0  0
 15 14  1  0  0  0  0
 16 13  2  0  0  0  0
 17 18  1  0  0  0  0
 18 22  1  0  0  0  0
 18 24  1  0  0  0  0
 19 22  1  0  0  0  0
 20 21  1  0  0  0  0
 20 17  1  0  0  0  0
 21  1  1  6  0  0  0
 21 19  1  0  0  0  0
 23 24  1  0  0  0  0
 25 27  1  0  0  0  0
 26 25  2  0  0  0  0
 28 29  1  6  0  0  0
 28 27  1  0  0  0  0
 30 28  1  0  0  0  0
 31 30  1  1  0  0  0
 31 33  1  0  0  0  0
 32 34  1  0  0  0  0
 32 35  1  0  0  0  0
 34 37  1  6  0  0  0
 34 31  1  0  0  0  0
 35 33  1  0  0  0  0
 36 37  1  0  0  0  0
 37 43  2  0  0  0  0
 38 42  1  0  0  0  0
 39 41  1  0  0  0  0
 40 38  1  0  0  0  0
 40 39  1  0  0  0  0
 41 36  1  0  0  0  0
 42 36  1  0  0  0  0
M  END
>  <MODEL>
3

>  <REMARK>
 VINA RESULT:      -9.5      1.701      3.143
  Name = 
  8 active torsions:
  status: ('A' for Active; 'I' for Inactive)
    1  A    between atoms: C_1  and  C_35
    2  A    between atoms: C_2  and  O_6
    3  A    between atoms: C_2  and  C_13
    4  A    between atoms: C_3  and  C_4
    5  A    between atoms: C_3  and  C_12
    6  A    between atoms: O_6  and  C_12
    7  A    between atoms: C_14  and  C_22
    8  A    between atoms: N_19  and  C_37
                            x       y       z     vdW  Elec       q    Type
                         _______ _______ _______ _____ _____    ______ ____

>  <TORSDO>
F 8

$$$$
=
 OpenBabel11062409553D

 43 48  0  0  1  0  0  0  0  0999 V2000
  161.0720  206.9670  153.2500 C   0  0  0  0  0  3  0  0  0  0  0  0
  161.2400  203.5090  146.6800 C   0  0  0  0  0  0  0  0  0  0  0  0
  161.2730  206.1920  150.9400 C   0  0  0  0  0  0  0  0  0  0  0  0
  162.0710  208.8570  150.2610 C   0  0  2  0  0  3  0  0  0  0  0  0
  161.2240  204.2040  148.9990 C   0  0  0  0  0  0  0  0  0  0  0  0
  161.3170  204.8460  146.2770 C   0  0  0  0  0  3  0  0  0  0  0  0
  161.2070  202.4280  145.6610 C   0  0  0  0  0  1  0  0  0  0  0  0
  161.3040  205.5570  148.6010 C   0  0  0  0  0  0  0  0  0  0  0  0
  161.1920  203.1870  148.0390 C   0  0  0  0  0  3  0  0  0  0  0  0
  161.3480  205.8660  147.2330 C   0  0  0  0  0  3  0  0  0  0  0  0
  161.3360  208.0250  149.2080 C   0  0  0  0  0  2  0  0  0  0  0  0
  161.3360  206.5640  149.5820 C   0  0  0  0  0  0  0  0  0  0  0  0
  161.1930  204.8770  151.2880 N   0  0  0  0  0  0  0  0  0  0  0  0
  161.3130  207.2490  151.9680 C   0  0  0  0  0  0  0  0  0  0  0  0
  161.5880  208.5620  151.5710 O   0  0  0  0  0  0  0  0  0  0  0  0
  161.1690  203.8880  150.3560 C   0  0  0  0  0  3  0  0  0  0  0  0
  160.5150  210.3670  154.8900 C   0  0  0  0  0  2  0  0  0  0  0  0
  159.5590  209.8340  155.8630 N   0  0  0  0  0  0  0  0  0  0  0  0
  160.1300  207.6180  155.4370 C   0  0  0  0  0  2  0  0  0  0  0  0
  160.6850  209.3680  153.7510 C   0  0  0  0  0  2  0  0  0  0  0  0
  161.0910  208.0090  154.3190 C   0  0  2  0  0  3  0  0  0  0  0  0
  160.1100  208.6750  156.4490 N   0  0  0  0  0  2  0  0  0  0  0  0
  158.1270  211.4700  156.7900 O   0  0  0  0  0  1  0  0  0  0  0  0
  159.3650  210.8280  156.9170 C   0  0  0  0  0  2  0  0  0  0  0  0
  161.9030  210.3080  149.9780 C   0  0  0  0  0  0  0  0  0  0  0  0
  161.7110  211.1080  150.9330 O   0  0  0  0  0  0  0  0  0  0  0  0
  161.9570  210.7650  148.6590 O   0  0  0  0  0  0  0  0  0  0  0  0
  161.9670  212.1490  148.3310 C   0  0  1  0  0  3  0  0  0  0  0  0
  163.2740  212.5980  148.2620 F   0  0  0  0  0  0  0  0  0  0  0  0
  161.3000  212.3650  146.9830 C   0  0  0  0  0  2  0  0  0  0  0  0
  160.1120  213.3100  147.1040 C   0  0  2  0  0  3  0  0  0  0  0  0
  157.8570  212.8170  147.3050 O   0  0  0  0  0  0  0  0  0  0  0  0
  159.7570  213.4760  148.4430 O   0  0  0  0  0  0  0  0  0  0  0  0
  158.9210  212.7170  146.4140 C   0  0  1  0  0  3  0  0  0  0  0  0
  158.4770  212.9090  148.5590 C   0  0  0  0  0  2  0  0  0  0  0  0
  159.2460  213.0890  143.9130 N   0  0  0  0  0  0  0  0  0  0  0  0
  158.6200  213.4640  145.1480 C   0  0  0  0  0  0  0  0  0  0  0  0
  160.0100  213.7220  141.6790 C   0  0  0  0  0  2  0  0  0  0  0  0
  161.1340  212.0820  142.7290 C   0  0  0  0  0  2  0  0  0  0  0  0
  160.4830  212.4070  141.5260 O   0  0  0  0  0  0  0  0  0  0  0  0
  160.1050  211.9060  143.8460 C   0  0  0  0  0  2  0  0  0  0  0  0
  158.8440  213.7430  142.6660 C   0  0  0  0  0  2  0  0  0  0  0  0
  157.8380  214.4530  145.1850 O   0  0  0  0  0  0  0  0  0  0  0  0
  2  9  1  0  0  0  0
  3 13  1  0  0  0  0
  3 14  1  0  0  0  0
  4 25  1  6  0  0  0
  4 15  1  0  0  0  0
  5 16  1  0  0  0  0
  6  2  2  0  0  0  0
  6 10  1  0  0  0  0
  7  2  1  0  0  0  0
  8  5  1  0  0  0  0
  8 12  1  0  0  0  0
  9  5  2  0  0  0  0
 10  8  2  0  0  0  0
 11 12  1  0  0  0  0
 11  4  1  0  0  0  0
 12  3  2  0  0  0  0
 14  1  2  0  0  0  0
 15 14  1  0  0  0  0
 16 13  2  0  0  0  0
 17 18  1  0  0  0  0
 18 22  1  0  0  0  0
 18 24  1  0  0  0  0
 19 22  1  0  0  0  0
 20 21  1  0  0  0  0
 20 17  1  0  0  0  0
 21  1  1  6  0  0  0
 21 19  1  0  0  0  0
 23 24  1  0  0  0  0
 25 26  2  0  0  0  0
 27 25  1  0  0  0  0
 28 29  1  6  0  0  0
 28 27  1  0  0  0  0
 30 28  1  0  0  0  0
 31 30  1  1  0  0  0
 31 33  1  0  0  0  0
 32 35  1  0  0  0  0
 33 35  1  0  0  0  0
 34 37  1  6  0  0  0
 34 31  1  0  0  0  0
 34 32  1  0  0  0  0
 36 37  1  0  0  0  0
 37 43  2  0  0  0  0
 38 42  1  0  0  0  0
 39 41  1  0  0  0  0
 40 38  1  0  0  0  0
 40 39  1  0  0  0  0
 41 36  1  0  0  0  0
 42 36  1  0  0  0  0
M  END
>  <MODEL>
4

>  <REMARK>
 VINA RESULT:      -9.0      2.207      3.518
  Name = 
  8 active torsions:
  status: ('A' for Active; 'I' for Inactive)
    1  A    between atoms: C_1  and  C_35
    2  A    between atoms: C_2  and  O_6
    3  A    between atoms: C_2  and  C_13
    4  A    between atoms: C_3  and  C_4
    5  A    between atoms: C_3  and  C_12
    6  A    between atoms: O_6  and  C_12
    7  A    between atoms: C_14  and  C_22
    8  A    between atoms: N_19  and  C_37
                            x       y       z     vdW  Elec       q    Type
                         _______ _______ _______ _____ _____    ______ ____

>  <TORSDO>
F 8

$$$$
=
 OpenBabel11062409553D

 43 48  0  0  1  0  0  0  0  0999 V2000
  161.3870  204.7530  152.0070 C   0  0  0  0  0  3  0  0  0  0  0  0
  160.4460  210.9430  155.9990 C   0  0  0  0  0  0  0  0  0  0  0  0
  161.0650  206.9850  152.9510 C   0  0  0  0  0  0  0  0  0  0  0  0
  161.2140  207.9880  150.2730 C   0  0  2  0  0  3  0  0  0  0  0  0
  160.5660  208.7110  155.0710 C   0  0  0  0  0  0  0  0  0  0  0  0
  160.8290  211.4790  154.7660 C   0  0  0  0  0  3  0  0  0  0  0  0
  160.1790  211.8450  157.1490 C   0  0  0  0  0  1  0  0  0  0  0  0
  160.9510  209.2440  153.8200 C   0  0  0  0  0  0  0  0  0  0  0  0
  160.3160  209.5600  156.1530 C   0  0  0  0  0  3  0  0  0  0  0  0
  161.0820  210.6350  153.6810 C   0  0  0  0  0  3  0  0  0  0  0  0
  161.6920  208.8850  151.4160 C   0  0  0  0  0  2  0  0  0  0  0  0
  161.1970  208.3720  152.7450 C   0  0  0  0  0  0  0  0  0  0  0  0
  160.6940  206.5050  154.1710 N   0  0  0  0  0  0  0  0  0  0  0  0
  161.3180  206.0720  151.8200 C   0  0  0  0  0  0  0  0  0  0  0  0
  161.5050  206.6180  150.5450 O   0  0  0  0  0  0  0  0  0  0  0  0
  160.4450  207.3300  155.2220 C   0  0  0  0  0  3  0  0  0  0  0  0
  161.2060  201.5070  150.0080 C   0  0  0  0  0  2  0  0  0  0  0  0
  160.5150  202.1420  148.8830 N   0  0  0  0  0  0  0  0  0  0  0  0
  160.9890  204.3010  149.6130 C   0  0  0  0  0  2  0  0  0  0  0  0
  161.1070  202.4100  151.2320 C   0  0  0  0  0  2  0  0  0  0  0  0
  161.6510  203.7960  150.8910 C   0  0  2  0  0  3  0  0  0  0  0  0
  161.2020  203.3270  148.5420 N   0  0  0  0  0  2  0  0  0  0  0  0
  161.5740  200.2760  147.8900 O   0  0  0  0  0  1  0  0  0  0  0  0
  160.5690  201.2380  147.7340 C   0  0  0  0  0  2  0  0  0  0  0  0
  161.8590  208.3950  148.9950 C   0  0  0  0  0  0  0  0  0  0  0  0
  161.7490  207.6550  147.9810 O   0  0  0  0  0  0  0  0  0  0  0  0
  162.5800  209.5900  148.9360 O   0  0  0  0  0  0  0  0  0  0  0  0
  161.9540  210.8640  149.0110 C   0  0  1  0  0  3  0  0  0  0  0  0
  162.9140  211.8420  149.2000 F   0  0  0  0  0  0  0  0  0  0  0  0
  161.2060  211.1490  147.7190 C   0  0  0  0  0  2  0  0  0  0  0  0
  161.2180  212.6370  147.3950 C   0  0  2  0  0  3  0  0  0  0  0  0
  159.6590  213.8990  146.2350 O   0  0  0  0  0  0  0  0  0  0  0  0
  160.4610  213.3440  148.3300 O   0  0  0  0  0  0  0  0  0  0  0  0
  160.5770  212.8690  146.0600 C   0  0  1  0  0  3  0  0  0  0  0  0
  159.3750  213.8660  147.6070 C   0  0  0  0  0  2  0  0  0  0  0  0
  161.4290  212.9130  143.6570 N   0  0  0  0  0  0  0  0  0  0  0  0
  161.6090  213.2500  145.0400 C   0  0  0  0  0  0  0  0  0  0  0  0
  162.4190  212.4420  141.4720 C   0  0  0  0  0  2  0  0  0  0  0  0
  160.4620  211.4470  141.9550 C   0  0  0  0  0  2  0  0  0  0  0  0
  161.1170  212.2280  140.9880 O   0  0  0  0  0  0  0  0  0  0  0  0
  160.1860  212.2860  143.2030 C   0  0  0  0  0  2  0  0  0  0  0  0
  162.3790  213.4050  142.6580 C   0  0  0  0  0  2  0  0  0  0  0  0
  162.6600  213.8390  145.4140 O   0  0  0  0  0  0  0  0  0  0  0  0
  2  9  1  0  0  0  0
  2  7  1  0  0  0  0
  3 13  1  0  0  0  0
  4 25  1  6  0  0  0
  4 15  1  0  0  0  0
  4 11  1  0  0  0  0
  5 16  1  0  0  0  0
  5  9  2  0  0  0  0
  6  2  2  0  0  0  0
  8  5  1  0  0  0  0
 10  8  2  0  0  0  0
 10  6  1  0  0  0  0
 11 12  1  0  0  0  0
 12  3  2  0  0  0  0
 12  8  1  0  0  0  0
 13 16  2  0  0  0  0
 14  1  2  0  0  0  0
 14  3  1  0  0  0  0
 15 14  1  0  0  0  0
 17 20  1  0  0  0  0
 18 17  1  0  0  0  0
 19 21  1  0  0  0  0
 21 20  1  0  0  0  0
 21  1  1  1  0  0  0
 22 18  1  0  0  0  0
 22 19  1  0  0  0  0
 24 23  1  0  0  0  0
 24 18  1  0  0  0  0
 26 25  2  0  0  0  0
 27 25  1  0  0  0  0
 27 28  1  0  0  0  0
 28 29  1  6  0  0  0
 30 28  1  0  0  0  0
 31 30  1  1  0  0  0
 31 33  1  0  0  0  0
 32 35  1  0  0  0  0
 34 37  1  6  0  0  0
 34 32  1  0  0  0  0
 34 31  1  0  0  0  0
 35 33  1  0  0  0  0
 36 37  1  0  0  0  0
 37 43  2  0  0  0  0
 38 42  1  0  0  0  0
 39 41  1  0  0  0  0
 40 38  1  0  0  0  0
 40 39  1  0  0  0  0
 41 36  1  0  0  0  0
 42 36  1  0  0  0  0
M  END
>  <MODEL>
5

>  <REMARK>
 VINA RESULT:      -8.9      2.753      7.226
  Name = 
  8 active torsions:
  status: ('A' for Active; 'I' for Inactive)
    1  A    between atoms: C_1  and  C_35
    2  A    between atoms: C_2  and  O_6
    3  A    between atoms: C_2  and  C_13
    4  A    between atoms: C_3  and  C_4
    5  A    between atoms: C_3  and  C_12
    6  A    between atoms: O_6  and  C_12
    7  A    between atoms: C_14  and  C_22
    8  A    between atoms: N_19  and  C_37
                            x       y       z     vdW  Elec       q    Type
                         _______ _______ _______ _____ _____    ______ ____

>  <TORSDO>
F 8

$$$$
=
 OpenBabel11062409553D

 43 48  0  0  1  0  0  0  0  0999 V2000
  161.1740  205.7030  153.2370 C   0  0  0  0  0  3  0  0  0  0  0  0
  161.0570  201.2250  147.3140 C   0  0  0  0  0  0  0  0  0  0  0  0
  161.2800  204.5610  151.0780 C   0  0  0  0  0  0  0  0  0  0  0  0
  162.0810  207.0670  149.9480 C   0  0  2  0  0  3  0  0  0  0  0  0
  161.1360  202.2860  149.4890 C   0  0  0  0  0  0  0  0  0  0  0  0
  161.1330  202.4770  146.6980 C   0  0  0  0  0  3  0  0  0  0  0  0
  160.9730  199.9940  146.4860 C   0  0  0  0  0  1  0  0  0  0  0  0
  161.2150  203.5550  148.8740 C   0  0  0  0  0  0  0  0  0  0  0  0
  161.0560  201.1280  148.7090 C   0  0  0  0  0  3  0  0  0  0  0  0
  161.2120  203.6380  147.4730 C   0  0  0  0  0  3  0  0  0  0  0  0
  161.2980  206.0880  149.0710 C   0  0  0  0  0  2  0  0  0  0  0  0
  161.2960  204.7070  149.6770 C   0  0  0  0  0  0  0  0  0  0  0  0
  161.1980  203.3210  151.6370 N   0  0  0  0  0  0  0  0  0  0  0  0
  161.3700  205.7690  151.9190 C   0  0  0  0  0  0  0  0  0  0  0  0
  161.6450  206.9960  151.3050 O   0  0  0  0  0  0  0  0  0  0  0  0
  161.1270  202.1950  150.8800 C   0  0  0  0  0  3  0  0  0  0  0  0
  160.7170  209.3320  154.3220 C   0  0  0  0  0  2  0  0  0  0  0  0
  159.7920  208.9800  155.4030 N   0  0  0  0  0  0  0  0  0  0  0  0
  160.3230  206.7140  155.3220 C   0  0  0  0  0  2  0  0  0  0  0  0
  160.8320  208.1600  153.3560 C   0  0  0  0  0  2  0  0  0  0  0  0
  161.2450  206.9040  154.1220 C   0  0  2  0  0  3  0  0  0  0  0  0
  160.3530  207.9220  156.1490 N   0  0  0  0  0  2  0  0  0  0  0  0
  160.6870  211.0550  156.0970 O   0  0  0  0  0  1  0  0  0  0  0  0
  159.6490  210.1350  156.2880 C   0  0  0  0  0  2  0  0  0  0  0  0
  161.9190  208.4560  149.4390 C   0  0  0  0  0  0  0  0  0  0  0  0
  162.3080  208.7390  148.2730 O   0  0  0  0  0  0  0  0  0  0  0  0
  161.3410  209.4280  150.2580 O   0  0  0  0  0  0  0  0  0  0  0  0
  162.0830  210.5220  150.7820 C   0  0  1  0  0  3  0  0  0  0  0  0
  162.7950  211.1300  149.7640 F   0  0  0  0  0  0  0  0  0  0  0  0
  161.1370  211.5400  151.3980 C   0  0  0  0  0  2  0  0  0  0  0  0
  160.2770  212.2060  150.3320 C   0  0  2  0  0  3  0  0  0  0  0  0
  160.0690  214.4530  149.8060 O   0  0  0  0  0  0  0  0  0  0  0  0
  161.0290  212.4470  149.1810 O   0  0  0  0  0  0  0  0  0  0  0  0
  159.8050  213.5420  150.8230 C   0  0  1  0  0  3  0  0  0  0  0  0
  161.0930  213.8450  149.0680 C   0  0  0  0  0  2  0  0  0  0  0  0
  157.8680  213.6180  152.4800 N   0  0  0  0  0  0  0  0  0  0  0  0
  158.3370  213.5020  151.1280 C   0  0  0  0  0  0  0  0  0  0  0  0
  156.1340  213.1550  154.1390 C   0  0  0  0  0  2  0  0  0  0  0  0
  158.2530  213.3160  154.8750 C   0  0  0  0  0  2  0  0  0  0  0  0
  156.9490  213.7950  155.0900 O   0  0  0  0  0  0  0  0  0  0  0  0
  158.8080  213.8850  153.5700 C   0  0  0  0  0  2  0  0  0  0  0  0
  156.4320  213.7080  152.7460 C   0  0  0  0  0  2  0  0  0  0  0  0
  157.5150  213.3250  150.1880 O   0  0  0  0  0  0  0  0  0  0  0  0
  2  9  1  0  0  0  0
  3 13  1  0  0  0  0
  3 14  1  0  0  0  0
  4 25  1  6  0  0  0
  4 15  1  0  0  0  0
  5 16  1  0  0  0  0
  6  2  2  0  0  0  0
  6 10  1  0  0  0  0
  7  2  1  0  0  0  0
  8  5  1  0  0  0  0
  8 12  1  0  0  0  0
  9  5  2  0  0  0  0
 10  8  2  0  0  0  0
 11 12  1  0  0  0  0
 11  4  1  0  0  0  0
 12  3  2  0  0  0  0
 14  1  2  0  0  0  0
 15 14  1  0  0  0  0
 16 13  2  0  0  0  0
 17 18  1  0  0  0  0
 18 22  1  0  0  0  0
 18 24  1  0  0  0  0
 19 22  1  0  0  0  0
 20 21  1  0  0  0  0
 20 17  1  0  0  0  0
 21  1  1  6  0  0  0
 21 19  1  0  0  0  0
 23 24  1  0  0  0  0
 25 27  1  0  0  0  0
 26 25  2  0  0  0  0
 27 28  1  0  0  0  0
 28 29  1  6  0  0  0
 28 30  1  0  0  0  0
 31 34  1  0  0  0  0
 31 30  1  1  0  0  0
 32 34  1  0  0  0  0
 33 31  1  0  0  0  0
 34 37  1  6  0  0  0
 35 33  1  0  0  0  0
 35 32  1  0  0  0  0
 36 42  1  0  0  0  0
 36 41  1  0  0  0  0
 37 36  1  0  0  0  0
 38 40  1  0  0  0  0
 39 40  1  0  0  0  0
 41 39  1  0  0  0  0
 42 38  1  0  0  0  0
 43 37  2  0  0  0  0
M  END
>  <MODEL>
6

>  <REMARK>
 VINA RESULT:      -8.1      1.711      2.279
  Name = 
  8 active torsions:
  status: ('A' for Active; 'I' for Inactive)
    1  A    between atoms: C_1  and  C_35
    2  A    between atoms: C_2  and  O_6
    3  A    between atoms: C_2  and  C_13
    4  A    between atoms: C_3  and  C_4
    5  A    between atoms: C_3  and  C_12
    6  A    between atoms: O_6  and  C_12
    7  A    between atoms: C_14  and  C_22
    8  A    between atoms: N_19  and  C_37
                            x       y       z     vdW  Elec       q    Type
                         _______ _______ _______ _____ _____    ______ ____

>  <TORSDO>
F 8

$$$$
=
 OpenBabel11062409553D

 43 48  0  0  1  0  0  0  0  0999 V2000
  161.9550  208.8970  148.6040 C   0  0  0  0  0  3  0  0  0  0  0  0
  161.0990  201.6050  147.4870 C   0  0  0  0  0  0  0  0  0  0  0  0
  161.5440  206.4870  148.6350 C   0  0  0  0  0  0  0  0  0  0  0  0
  160.9020  206.7710  151.4110 C   0  0  2  0  0  3  0  0  0  0  0  0
  161.3190  204.0140  147.3870 C   0  0  0  0  0  0  0  0  0  0  0  0
  161.0940  201.6610  148.8850 C   0  0  0  0  0  3  0  0  0  0  0  0
  160.9850  200.2950  146.7980 C   0  0  0  0  0  1  0  0  0  0  0  0
  161.3130  204.0800  148.7990 C   0  0  0  0  0  0  0  0  0  0  0  0
  161.2130  202.7800  146.7390 C   0  0  0  0  0  3  0  0  0  0  0  0
  161.2010  202.8920  149.5380 C   0  0  0  0  0  3  0  0  0  0  0  0
  161.5020  205.4480  150.9320 C   0  0  0  0  0  2  0  0  0  0  0  0
  161.4190  205.3310  149.4310 C   0  0  0  0  0  0  0  0  0  0  0  0
  161.5510  206.3860  147.2760 N   0  0  0  0  0  0  0  0  0  0  0  0
  161.6510  207.7990  149.3000 C   0  0  0  0  0  0  0  0  0  0  0  0
  161.4470  207.8710  150.6820 O   0  0  0  0  0  0  0  0  0  0  0  0
  161.4410  205.1880  146.6440 C   0  0  0  0  0  3  0  0  0  0  0  0
  161.5950  212.6750  149.0010 C   0  0  0  0  0  2  0  0  0  0  0  0
  160.7180  212.5520  150.1680 N   0  0  0  0  0  0  0  0  0  0  0  0
  161.2150  210.3010  150.4950 C   0  0  0  0  0  2  0  0  0  0  0  0
  161.6500  211.3390  148.2700 C   0  0  0  0  0  2  0  0  0  0  0  0
  162.0830  210.2420  149.2410 C   0  0  2  0  0  3  0  0  0  0  0  0
  161.2990  211.6420  151.0760 N   0  0  0  0  0  2  0  0  0  0  0  0
  159.3370  214.1000  151.3020 O   0  0  0  0  0  1  0  0  0  0  0  0
  160.6300  213.8560  150.8230 C   0  0  0  0  0  2  0  0  0  0  0  0
  161.1570  206.9550  152.8650 C   0  0  0  0  0  0  0  0  0  0  0  0
  161.5730  205.9820  153.5500 O   0  0  0  0  0  0  0  0  0  0  0  0
  160.9300  208.2010  153.4540 O   0  0  0  0  0  0  0  0  0  0  0  0
  160.3310  208.3420  154.7360 C   0  0  1  0  0  3  0  0  0  0  0  0
  159.7910  207.1300  155.1300 F   0  0  0  0  0  0  0  0  0  0  0  0
  161.3780  208.7700  155.7510 C   0  0  0  0  0  2  0  0  0  0  0  0
  161.7370  210.2400  155.5840 C   0  0  2  0  0  3  0  0  0  0  0  0
  161.3950  212.0090  157.0400 O   0  0  0  0  0  0  0  0  0  0  0  0
  162.9520  210.5180  156.2090 O   0  0  0  0  0  0  0  0  0  0  0  0
  160.7030  211.0930  156.2560 C   0  0  1  0  0  3  0  0  0  0  0  0
  162.6350  211.3940  157.2600 C   0  0  0  0  0  2  0  0  0  0  0  0
  158.5100  212.1800  155.5400 N   0  0  0  0  0  0  0  0  0  0  0  0
  159.8610  211.8010  155.2360 C   0  0  0  0  0  0  0  0  0  0  0  0
  156.2560  212.7000  154.7520 C   0  0  0  0  0  2  0  0  0  0  0  0
  156.4520  211.8060  156.8060 C   0  0  0  0  0  2  0  0  0  0  0  0
  155.8850  212.8790  156.0960 O   0  0  0  0  0  0  0  0  0  0  0  0
  157.9690  211.9790  156.8860 C   0  0  0  0  0  2  0  0  0  0  0  0
  157.7480  212.9840  154.5840 C   0  0  0  0  0  2  0  0  0  0  0  0
  160.3370  212.0280  154.0900 O   0  0  0  0  0  0  0  0  0  0  0  0
  1 14  2  0  0  0  0
  2  6  1  0  0  0  0
  3 14  1  0  0  0  0
  3 12  1  0  0  0  0
  4 25  1  1  0  0  0
  5  8  1  0  0  0  0
  6 10  2  0  0  0  0
  7  2  1  0  0  0  0
  8 12  2  0  0  0  0
  8 10  1  0  0  0  0
  9  5  1  0  0  0  0
  9  2  2  0  0  0  0
 11  4  1  0  0  0  0
 12 11  1  0  0  0  0
 13  3  2  0  0  0  0
 14 15  1  0  0  0  0
 15  4  1  0  0  0  0
 16 13  1  0  0  0  0
 16  5  2  0  0  0  0
 17 18  1  0  0  0  0
 18 24  1  0  0  0  0
 18 22  1  0  0  0  0
 19 22  1  0  0  0  0
 20 17  1  0  0  0  0
 20 21  1  0  0  0  0
 21  1  1  6  0  0  0
 21 19  1  0  0  0  0
 24 23  1  0  0  0  0
 25 27  1  0  0  0  0
 25 26  2  0  0  0  0
 27 28  1  0  0  0  0
 28 29  1  1  0  0  0
 28 30  1  0  0  0  0
 31 30  1  1  0  0  0
 31 33  1  0  0  0  0
 31 34  1  0  0  0  0
 32 35  1  0  0  0  0
 33 35  1  0  0  0  0
 34 37  1  6  0  0  0
 34 32  1  0  0  0  0
 36 41  1  0  0  0  0
 37 36  1  0  0  0  0
 38 40  1  0  0  0  0
 39 41  1  0  0  0  0
 40 39  1  0  0  0  0
 42 38  1  0  0  0  0
 42 36  1  0  0  0  0
 43 37  2  0  0  0  0
M  END
>  <MODEL>
7

>  <REMARK>
 VINA RESULT:      -7.8      2.659      5.813
  Name = 
  8 active torsions:
  status: ('A' for Active; 'I' for Inactive)
    1  A    between atoms: C_1  and  C_35
    2  A    between atoms: C_2  and  O_6
    3  A    between atoms: C_2  and  C_13
    4  A    between atoms: C_3  and  C_4
    5  A    between atoms: C_3  and  C_12
    6  A    between atoms: O_6  and  C_12
    7  A    between atoms: C_14  and  C_22
    8  A    between atoms: N_19  and  C_37
                            x       y       z     vdW  Elec       q    Type
                         _______ _______ _______ _____ _____    ______ ____

>  <TORSDO>
F 8

$$$$
=
 OpenBabel11062409553D

 43 48  0  0  1  0  0  0  0  0999 V2000
  161.3890  204.5340  151.4760 C   0  0  0  0  0  3  0  0  0  0  0  0
  160.8410  210.4680  155.9060 C   0  0  0  0  0  0  0  0  0  0  0  0
  161.1900  206.7070  152.5790 C   0  0  0  0  0  0  0  0  0  0  0  0
  161.2790  207.8840  149.9690 C   0  0  2  0  0  3  0  0  0  0  0  0
  160.8390  208.3020  154.8270 C   0  0  0  0  0  0  0  0  0  0  0  0
  161.1990  211.0730  154.6970 C   0  0  0  0  0  3  0  0  0  0  0  0
  160.6530  211.2990  157.1230 C   0  0  0  0  0  1  0  0  0  0  0  0
  161.1980  208.9040  153.6010 C   0  0  0  0  0  0  0  0  0  0  0  0
  160.6630  209.0840  155.9720 C   0  0  0  0  0  3  0  0  0  0  0  0
  161.3780  210.2950  153.5490 C   0  0  0  0  0  3  0  0  0  0  0  0
  161.8340  208.6830  151.1500 C   0  0  0  0  0  2  0  0  0  0  0  0
  161.3690  208.0990  152.4600 C   0  0  0  0  0  0  0  0  0  0  0  0
  160.8480  206.1590  153.7780 N   0  0  0  0  0  0  0  0  0  0  0  0
  161.3650  205.8640  151.3800 C   0  0  0  0  0  0  0  0  0  0  0  0
  161.5260  206.4880  150.1380 O   0  0  0  0  0  0  0  0  0  0  0  0
  160.6700  206.9180  154.8900 C   0  0  0  0  0  3  0  0  0  0  0  0
  160.8630  201.5260  149.1880 C   0  0  0  0  0  2  0  0  0  0  0  0
  160.3220  202.3440  148.1000 N   0  0  0  0  0  0  0  0  0  0  0  0
  161.0520  204.3450  149.0380 C   0  0  0  0  0  2  0  0  0  0  0  0
  160.8290  202.3270  150.4840 C   0  0  0  0  0  2  0  0  0  0  0  0
  161.5750  203.6460  150.2890 C   0  0  2  0  0  3  0  0  0  0  0  0
  161.1810  203.4430  147.8920 N   0  0  0  0  0  2  0  0  0  0  0  0
  161.5320  201.6170  146.2030 O   0  0  0  0  0  1  0  0  0  0  0  0
  160.3070  201.5410  146.8780 C   0  0  0  0  0  2  0  0  0  0  0  0
  161.8910  208.3530  148.6970 C   0  0  0  0  0  0  0  0  0  0  0  0
  162.6160  207.5660  148.0300 O   0  0  0  0  0  0  0  0  0  0  0  0
  161.6590  209.6590  148.2590 O   0  0  0  0  0  0  0  0  0  0  0  0
  162.3540  210.7780  148.7950 C   0  0  1  0  0  3  0  0  0  0  0  0
  163.4070  211.1110  147.9610 F   0  0  0  0  0  0  0  0  0  0  0  0
  161.4130  211.9670  148.9010 C   0  0  0  0  0  2  0  0  0  0  0  0
  160.8930  212.3800  147.5310 C   0  0  2  0  0  3  0  0  0  0  0  0
  160.9640  214.4530  146.4970 O   0  0  0  0  0  0  0  0  0  0  0  0
  161.9230  212.3530  146.5910 O   0  0  0  0  0  0  0  0  0  0  0  0
  160.3970  213.7940  147.5830 C   0  0  1  0  0  3  0  0  0  0  0  0
  162.1010  213.6900  146.1980 C   0  0  0  0  0  2  0  0  0  0  0  0
  158.1050  214.0220  148.6780 N   0  0  0  0  0  0  0  0  0  0  0  0
  158.9000  213.8300  147.4990 C   0  0  0  0  0  0  0  0  0  0  0  0
  155.9810  213.7030  149.8450 C   0  0  0  0  0  2  0  0  0  0  0  0
  157.8440  213.8030  151.1000 C   0  0  0  0  0  2  0  0  0  0  0  0
  156.5560  214.3460  150.9550 O   0  0  0  0  0  0  0  0  0  0  0  0
  158.7460  214.2930  149.9670 C   0  0  0  0  0  2  0  0  0  0  0  0
  156.6560  214.1840  148.5610 C   0  0  0  0  0  2  0  0  0  0  0  0
  158.3390  213.6510  146.3830 O   0  0  0  0  0  0  0  0  0  0  0  0
  2  9  1  0  0  0  0
  2  7  1  0  0  0  0
  3 13  1  0  0  0  0
  4 25  1  6  0  0  0
  4 15  1  0  0  0  0
  4 11  1  0  0  0  0
  5 16  1  0  0  0  0
  5  9  2  0  0  0  0
  6  2  2  0  0  0  0
  8  5  1  0  0  0  0
 10  8  2  0  0  0  0
 10  6  1  0  0  0  0
 11 12  1  0  0  0  0
 12  3  2  0  0  0  0
 12  8  1  0  0  0  0
 13 16  2  0  0  0  0
 14  1  2  0  0  0  0
 14  3  1  0  0  0  0
 15 14  1  0  0  0  0
 17 20  1  0  0  0  0
 18 17  1  0  0  0  0
 19 21  1  0  0  0  0
 21 20  1  0  0  0  0
 21  1  1  1  0  0  0
 22 18  1  0  0  0  0
 22 19  1  0  0  0  0
 23 24  1  0  0  0  0
 24 18  1  0  0  0  0
 26 25  2  0  0  0  0
 27 25  1  0  0  0  0
 27 28  1  0  0  0  0
 28 29  1  6  0  0  0
 28 30  1  0  0  0  0
 31 34  1  0  0  0  0
 31 30  1  1  0  0  0
 32 34  1  0  0  0  0
 33 31  1  0  0  0  0
 34 37  1  6  0  0  0
 35 32  1  0  0  0  0
 35 33  1  0  0  0  0
 36 41  1  0  0  0  0
 37 36  1  0  0  0  0
 38 40  1  0  0  0  0
 40 39  1  0  0  0  0
 41 39  1  0  0  0  0
 42 36  1  0  0  0  0
 42 38  1  0  0  0  0
 43 37  2  0  0  0  0
M  END
>  <MODEL>
8

>  <REMARK>
 VINA RESULT:      -7.8      1.979      6.309
  Name = 
  8 active torsions:
  status: ('A' for Active; 'I' for Inactive)
    1  A    between atoms: C_1  and  C_35
    2  A    between atoms: C_2  and  O_6
    3  A    between atoms: C_2  and  C_13
    4  A    between atoms: C_3  and  C_4
    5  A    between atoms: C_3  and  C_12
    6  A    between atoms: O_6  and  C_12
    7  A    between atoms: C_14  and  C_22
    8  A    between atoms: N_19  and  C_37
                            x       y       z     vdW  Elec       q    Type
                         _______ _______ _______ _____ _____    ______ ____

>  <TORSDO>
F 8

$$$$
=
 OpenBabel11062409553D

 43 48  0  0  1  0  0  0  0  0999 V2000
  159.1700  213.8870  149.7480 C   0  0  0  0  0  3  0  0  0  0  0  0
  155.7450  212.2250  156.1250 C   0  0  0  0  0  0  0  0  0  0  0  0
  158.3750  213.0970  151.9210 C   0  0  0  0  0  0  0  0  0  0  0  0
  160.6920  211.4150  152.0020 C   0  0  2  0  0  3  0  0  0  0  0  0
  156.6130  213.1630  154.0690 C   0  0  0  0  0  0  0  0  0  0  0  0
  156.6740  211.1830  156.0440 C   0  0  0  0  0  3  0  0  0  0  0  0
  154.7890  212.2790  157.2600 C   0  0  0  0  0  1  0  0  0  0  0  0
  157.5570  212.1160  153.9810 C   0  0  0  0  0  0  0  0  0  0  0  0
  155.7130  213.2140  155.1370 C   0  0  0  0  0  3  0  0  0  0  0  0
  157.5760  211.1270  154.9770 C   0  0  0  0  0  3  0  0  0  0  0  0
  159.4220  210.9440  152.7140 C   0  0  0  0  0  2  0  0  0  0  0  0
  158.4540  212.0850  152.8980 C   0  0  0  0  0  0  0  0  0  0  0  0
  157.4500  214.0900  152.0360 N   0  0  0  0  0  0  0  0  0  0  0  0
  159.3200  213.0650  150.7890 C   0  0  0  0  0  0  0  0  0  0  0  0
  160.3700  212.1410  150.8160 O   0  0  0  0  0  0  0  0  0  0  0  0
  156.5790  214.1440  153.0770 C   0  0  0  0  0  3  0  0  0  0  0  0
  161.3480  212.4460  146.9660 C   0  0  0  0  0  2  0  0  0  0  0  0
  160.5170  213.0200  145.9050 N   0  0  0  0  0  0  0  0  0  0  0  0
  159.3880  214.4490  147.3550 C   0  0  0  0  0  2  0  0  0  0  0  0
  160.5700  212.4580  148.2770 C   0  0  0  0  0  2  0  0  0  0  0  0
  160.0980  213.8790  148.5780 C   0  0  2  0  0  3  0  0  0  0  0  0
  160.2850  214.3800  146.2000 N   0  0  0  0  0  2  0  0  0  0  0  0
  162.6230  213.1780  144.8420 O   0  0  0  0  0  1  0  0  0  0  0  0
  161.2560  212.9470  144.6450 C   0  0  0  0  0  2  0  0  0  0  0  0
  161.5530  210.2500  151.6610 C   0  0  0  0  0  0  0  0  0  0  0  0
  162.7620  210.4410  151.3570 O   0  0  0  0  0  0  0  0  0  0  0  0
  161.0120  208.9630  151.6800 O   0  0  0  0  0  0  0  0  0  0  0  0
  161.4960  207.9450  152.5470 C   0  0  1  0  0  3  0  0  0  0  0  0
  160.4460  207.4270  153.2840 F   0  0  0  0  0  0  0  0  0  0  0  0
  162.1250  206.8280  151.7320 C   0  0  0  0  0  2  0  0  0  0  0  0
  161.0630  206.0150  151.0030 C   0  0  2  0  0  3  0  0  0  0  0  0
  161.3040  204.1010  149.7190 O   0  0  0  0  0  0  0  0  0  0  0  0
  160.6650  204.9270  151.7800 O   0  0  0  0  0  0  0  0  0  0  0  0
  161.6380  205.4510  149.7380 C   0  0  1  0  0  3  0  0  0  0  0  0
  161.0840  203.7910  151.0680 C   0  0  0  0  0  2  0  0  0  0  0  0
  161.1590  205.5640  147.2360 N   0  0  0  0  0  0  0  0  0  0  0  0
  161.0650  206.1520  148.5420 C   0  0  0  0  0  0  0  0  0  0  0  0
  161.2220  205.8560  144.8100 C   0  0  0  0  0  2  0  0  0  0  0  0
  162.3220  204.0920  145.6680 C   0  0  0  0  0  2  0  0  0  0  0  0
  161.3720  204.4620  144.7000 O   0  0  0  0  0  0  0  0  0  0  0  0
  161.7190  204.2220  147.0660 C   0  0  0  0  0  2  0  0  0  0  0  0
  160.4830  206.1970  146.1030 C   0  0  0  0  0  2  0  0  0  0  0  0
  160.5320  207.2860  148.6860 O   0  0  0  0  0  0  0  0  0  0  0  0
  1 14  2  0  0  0  0
  2  7  1  0  0  0  0
  3 13  2  0  0  0  0
  3 12  1  0  0  0  0
  4 25  1  6  0  0  0
  4 11  1  0  0  0  0
  5  9  1  0  0  0  0
  6  2  1  0  0  0  0
  8  5  1  0  0  0  0
  8 10  1  0  0  0  0
  9  2  2  0  0  0  0
 10  6  2  0  0  0  0
 11 12  1  0  0  0  0
 12  8  2  0  0  0  0
 13 16  1  0  0  0  0
 14 15  1  0  0  0  0
 14  3  1  0  0  0  0
 15  4  1  0  0  0  0
 16  5  2  0  0  0  0
 17 20  1  0  0  0  0
 18 22  1  0  0  0  0
 18 17  1  0  0  0  0
 19 21  1  0  0  0  0
 20 21  1  0  0  0  0
 21  1  1  1  0  0  0
 22 19  1  0  0  0  0
 24 23  1  0  0  0  0
 24 18  1  0  0  0  0
 25 27  1  0  0  0  0
 26 25  2  0  0  0  0
 27 28  1  0  0  0  0
 28 29  1  6  0  0  0
 30 28  1  0  0  0  0
 31 30  1  1  0  0  0
 31 33  1  0  0  0  0
 32 34  1  0  0  0  0
 32 35  1  0  0  0  0
 34 37  1  6  0  0  0
 34 31  1  0  0  0  0
 35 33  1  0  0  0  0
 36 37  1  0  0  0  0
 37 43  2  0  0  0  0
 38 42  1  0  0  0  0
 39 41  1  0  0  0  0
 40 38  1  0  0  0  0
 40 39  1  0  0  0  0
 41 36  1  0  0  0  0
 42 36  1  0  0  0  0
M  END
>  <MODEL>
9

>  <REMARK>
 VINA RESULT:      -7.2      2.850      9.515
  Name = 
  8 active torsions:
  status: ('A' for Active; 'I' for Inactive)
    1  A    between atoms: C_1  and  C_35
    2  A    between atoms: C_2  and  O_6
    3  A    between atoms: C_2  and  C_13
    4  A    between atoms: C_3  and  C_4
    5  A    between atoms: C_3  and  C_12
    6  A    between atoms: O_6  and  C_12
    7  A    between atoms: C_14  and  C_22
    8  A    between atoms: N_19  and  C_37
                            x       y       z     vdW  Elec       q    Type
                         _______ _______ _______ _____ _____    ______ ____

>  <TORSDO>
F 8

$$$$
