=
 OpenBabel11052422383D

 31 34  0  0  1  0  0  0  0  0999 V2000
  160.8200  207.7800  154.3060 C   0  0  0  0  0  0  0  0  0  0  0  0
  161.2590  207.2790  150.6200 C   0  0  0  0  0  0  0  0  0  0  0  0
  160.9050  205.8070  150.4080 C   0  0  2  0  0  3  0  0  0  0  0  0
  161.6410  203.5410  151.1410 C   0  0  0  0  0  0  0  0  0  0  0  0
  161.2040  207.8820  151.9030 C   0  0  0  0  0  0  0  0  0  0  0  0
  161.1250  209.1370  154.4220 C   0  0  0  0  0  3  0  0  0  0  0  0
  161.5500  204.8600  151.3900 C   0  0  0  0  0  3  0  0  0  0  0  0
  161.7860  209.4720  149.6830 C   0  0  0  0  0  0  0  0  0  0  0  0
  160.4890  207.0640  155.4080 F   0  0  0  0  0  0  0  0  0  0  0  0
  160.6520  206.2870  147.9760 C   0  0  0  0  0  2  0  0  0  0  0  0
  162.2150  202.7390  152.0730 F   0  0  0  0  0  0  0  0  0  0  0  0
  161.7800  210.0020  150.9340 N   0  0  0  0  0  0  0  0  0  0  0  0
  161.4900  208.1130  149.4930 C   0  0  0  0  0  0  0  0  0  0  0  0
  162.0730  210.3090  148.5560 N   0  0  0  0  0  2  0  0  0  0  0  0
  160.8570  207.1580  153.0550 C   0  0  0  0  0  3  0  0  0  0  0  0
  161.2670  202.9460  149.7990 C   0  0  0  0  0  2  0  0  0  0  0  0
  161.4920  209.2600  152.0310 C   0  0  0  0  0  0  0  0  0  0  0  0
  161.4580  209.8760  153.2850 C   0  0  0  0  0  3  0  0  0  0  0  0
  161.4760  207.5610  148.0870 C   0  0  0  0  0  2  0  0  0  0  0  0
  161.1950  205.3100  148.9930 C   0  0  2  0  0  3  0  0  0  0  0  0
  160.5730  203.9300  148.8470 C   0  0  0  0  0  2  0  0  0  0  0  0
  163.7850  211.9640  148.0840 C   0  0  0  0  0  1  0  0  0  0  0  0
  162.4100  211.7210  148.6840 C   0  0  1  0  0  3  0  0  0  0  0  0
  160.6630  211.8030  147.0390 O   0  0  0  0  0  1  0  0  0  0  0  0
  161.3570  212.5750  147.9740 C   0  0  1  0  0  3  0  0  0  0  0  0
  160.5010  212.9750  150.1440 O   0  0  0  0  0  0  0  0  0  0  0  0
  160.3760  213.1690  148.9430 C   0  0  0  0  0  0  0  0  0  0  0  0
  159.2080  213.9500  148.4290 C   0  0  0  0  0  2  0  0  0  0  0  0
  157.8970  213.2290  148.6940 C   0  0  0  0  0  3  0  0  0  0  0  0
  157.3170  212.7490  147.3800 C   0  0  0  0  0  1  0  0  0  0  0  0
  156.9080  214.1690  149.3550 C   0  0  0  0  0  1  0  0  0  0  0  0
  1  6  1  0  0  0  0
  1  9  1  0  0  0  0
  2  5  1  0  0  0  0
  3  2  1  0  0  0  0
  3  7  1  1  0  0  0
  4  7  2  0  0  0  0
  4 11  1  0  0  0  0
  5 17  2  0  0  0  0
  5 15  1  0  0  0  0
  8 12  2  0  0  0  0
 10 19  1  0  0  0  0
 12 17  1  0  0  0  0
 13  8  1  0  0  0  0
 13  2  2  0  0  0  0
 14 23  1  0  0  0  0
 14  8  1  0  0  0  0
 15  1  2  0  0  0  0
 16  4  1  0  0  0  0
 17 18  1  0  0  0  0
 18  6  2  0  0  0  0
 19 13  1  0  0  0  0
 20 10  1  6  0  0  0
 20  3  1  0  0  0  0
 21 20  1  0  0  0  0
 21 16  1  0  0  0  0
 23 22  1  6  0  0  0
 25 24  1  6  0  0  0
 25 23  1  0  0  0  0
 25 27  1  0  0  0  0
 27 26  2  0  0  0  0
 28 29  1  0  0  0  0
 28 27  1  0  0  0  0
 29 31  1  0  0  0  0
 30 29  1  0  0  0  0
M  END
>  <MODEL>
1

>  <REMARK>
 VINA RESULT:      -9.1      0.000      0.000
  Name = 
  5 active torsions:
  status: ('A' for Active; 'I' for Inactive)
    1  A    between atoms: C_1  and  C_24
    2  A    between atoms: C_9  and  C_22
    3  A    between atoms: C_9  and  N_23
    4  A    between atoms: C_19  and  C_22
    5  A    between atoms: C_19  and  C_24
                            x       y       z     vdW  Elec       q    Type
                         _______ _______ _______ _____ _____    ______ ____

>  <TORSDO>
F 5

$$$$
=
 OpenBabel11052422383D

 31 34  0  0  1  0  0  0  0  0999 V2000
  160.8210  207.5950  154.3190 C   0  0  0  0  0  0  0  0  0  0  0  0
  161.2730  207.1400  150.6290 C   0  0  0  0  0  0  0  0  0  0  0  0
  160.8890  205.6790  150.3930 C   0  0  2  0  0  3  0  0  0  0  0  0
  161.5710  203.3880  151.0960 C   0  0  0  0  0  0  0  0  0  0  0  0
  161.2240  207.7250  151.9210 C   0  0  0  0  0  0  0  0  0  0  0  0
  161.1550  208.9430  154.4570 C   0  0  0  0  0  3  0  0  0  0  0  0
  161.5060  204.7040  151.3640 C   0  0  0  0  0  3  0  0  0  0  0  0
  161.8540  209.3350  149.7280 C   0  0  0  0  0  0  0  0  0  0  0  0
  160.4680  206.8700  155.4080 F   0  0  0  0  0  0  0  0  0  0  0  0
  160.6630  206.2010  147.9660 C   0  0  0  0  0  2  0  0  0  0  0  0
  162.1210  202.5580  152.0190 F   0  0  0  0  0  0  0  0  0  0  0  0
  161.8510  209.8460  150.9880 N   0  0  0  0  0  0  0  0  0  0  0  0
  161.5300  207.9850  149.5160 C   0  0  0  0  0  0  0  0  0  0  0  0
  162.1670  210.1810  148.6160 N   0  0  0  0  0  2  0  0  0  0  0  0
  160.8530  206.9920  153.0600 C   0  0  0  0  0  3  0  0  0  0  0  0
  161.1930  202.8200  149.7420 C   0  0  0  0  0  2  0  0  0  0  0  0
  161.5400  209.0940  152.0710 C   0  0  0  0  0  0  0  0  0  0  0  0
  161.5120  209.6920  153.3340 C   0  0  0  0  0  3  0  0  0  0  0  0
  161.5130  207.4560  148.1020 C   0  0  0  0  0  2  0  0  0  0  0  0
  161.1770  205.1970  148.9720 C   0  0  2  0  0  3  0  0  0  0  0  0
  160.5260  203.8340  148.8010 C   0  0  0  0  0  2  0  0  0  0  0  0
  163.6680  211.9110  147.8100 C   0  0  0  0  0  1  0  0  0  0  0  0
  162.5340  211.5840  148.7670 C   0  0  1  0  0  3  0  0  0  0  0  0
  160.7460  212.8990  149.6860 O   0  0  0  0  0  1  0  0  0  0  0  0
  161.3210  212.4740  148.4850 C   0  0  1  0  0  3  0  0  0  0  0  0
  162.5490  214.4520  148.0620 O   0  0  0  0  0  0  0  0  0  0  0  0
  161.6910  213.6760  147.6660 C   0  0  0  0  0  0  0  0  0  0  0  0
  160.9610  213.9560  146.3900 C   0  0  0  0  0  2  0  0  0  0  0  0
  161.3200  212.9460  145.3120 C   0  0  0  0  0  3  0  0  0  0  0  0
  162.6020  213.3780  144.6320 C   0  0  0  0  0  1  0  0  0  0  0  0
  160.2130  212.8710  144.2770 C   0  0  0  0  0  1  0  0  0  0  0  0
  1  6  1  0  0  0  0
  1  9  1  0  0  0  0
  2  5  1  0  0  0  0
  3  2  1  0  0  0  0
  3  7  1  1  0  0  0
  4  7  2  0  0  0  0
  4 11  1  0  0  0  0
  5 17  2  0  0  0  0
  5 15  1  0  0  0  0
  8 12  2  0  0  0  0
 10 19  1  0  0  0  0
 12 17  1  0  0  0  0
 13  8  1  0  0  0  0
 13  2  2  0  0  0  0
 14 23  1  0  0  0  0
 14  8  1  0  0  0  0
 15  1  2  0  0  0  0
 16  4  1  0  0  0  0
 17 18  1  0  0  0  0
 18  6  2  0  0  0  0
 19 13  1  0  0  0  0
 20 10  1  6  0  0  0
 20  3  1  0  0  0  0
 21 20  1  0  0  0  0
 21 16  1  0  0  0  0
 23 22  1  6  0  0  0
 25 23  1  0  0  0  0
 25 24  1  1  0  0  0
 27 26  2  0  0  0  0
 27 25  1  0  0  0  0
 28 27  1  0  0  0  0
 29 28  1  0  0  0  0
 30 29  1  0  0  0  0
 31 29  1  0  0  0  0
M  END
>  <MODEL>
2

>  <REMARK>
 VINA RESULT:      -8.9      1.490      2.034
  Name = 
  5 active torsions:
  status: ('A' for Active; 'I' for Inactive)
    1  A    between atoms: C_1  and  C_24
    2  A    between atoms: C_9  and  C_22
    3  A    between atoms: C_9  and  N_23
    4  A    between atoms: C_19  and  C_22
    5  A    between atoms: C_19  and  C_24
                            x       y       z     vdW  Elec       q    Type
                         _______ _______ _______ _____ _____    ______ ____

>  <TORSDO>
F 5

$$$$
=
 OpenBabel11052422383D

 31 34  0  0  1  0  0  0  0  0999 V2000
  161.1140  201.2320  149.5640 C   0  0  0  0  0  0  0  0  0  0  0  0
  161.1920  204.9280  148.9610 C   0  0  0  0  0  0  0  0  0  0  0  0
  161.2100  205.0480  147.4380 C   0  0  2  0  0  3  0  0  0  0  0  0
  162.6000  204.3630  145.4850 C   0  0  0  0  0  0  0  0  0  0  0  0
  161.1470  203.6670  149.6100 C   0  0  0  0  0  0  0  0  0  0  0  0
  161.0660  201.1970  150.9590 C   0  0  0  0  0  3  0  0  0  0  0  0
  162.2010  204.1400  146.7500 C   0  0  0  0  0  3  0  0  0  0  0  0
  161.0030  205.9900  151.1530 C   0  0  0  0  0  0  0  0  0  0  0  0
  161.1260  200.0760  148.8580 F   0  0  0  0  0  0  0  0  0  0  0  0
  160.5310  207.4330  147.6830 C   0  0  0  0  0  2  0  0  0  0  0  0
  163.4790  203.5000  144.9160 F   0  0  0  0  0  0  0  0  0  0  0  0
  161.0190  204.7650  151.7420 N   0  0  0  0  0  0  0  0  0  0  0  0
  161.0510  206.0980  149.7540 C   0  0  0  0  0  0  0  0  0  0  0  0
  160.9150  207.1680  151.9620 N   0  0  0  0  0  2  0  0  0  0  0  0
  161.1510  202.4580  148.8960 C   0  0  0  0  0  3  0  0  0  0  0  0
  162.2270  205.6230  144.7310 C   0  0  0  0  0  2  0  0  0  0  0  0
  161.0780  203.6190  151.0210 C   0  0  0  0  0  0  0  0  0  0  0  0
  161.0460  202.3890  151.6860 C   0  0  0  0  0  3  0  0  0  0  0  0
  161.0010  207.4730  149.1300 C   0  0  0  0  0  2  0  0  0  0  0  0
  161.4360  206.4760  146.9430 C   0  0  2  0  0  3  0  0  0  0  0  0
  161.1830  206.4950  145.4430 C   0  0  0  0  0  2  0  0  0  0  0  0
  161.9330  206.1450  153.9160 C   0  0  0  0  0  1  0  0  0  0  0  0
  160.8850  207.1280  153.4200 C   0  0  1  0  0  3  0  0  0  0  0  0
  160.3720  209.4710  153.3110 O   0  0  0  0  0  1  0  0  0  0  0  0
  161.1480  208.5250  153.9860 C   0  0  1  0  0  3  0  0  0  0  0  0
  159.7240  208.3310  155.8650 O   0  0  0  0  0  0  0  0  0  0  0  0
  160.8440  208.5970  155.4540 C   0  0  0  0  0  0  0  0  0  0  0  0
  161.9020  209.0570  156.4060 C   0  0  0  0  0  2  0  0  0  0  0  0
  162.3310  210.4860  156.1140 C   0  0  0  0  0  3  0  0  0  0  0  0
  163.4660  210.8640  157.0420 C   0  0  0  0  0  1  0  0  0  0  0  0
  161.1710  211.4360  156.3400 C   0  0  0  0  0  1  0  0  0  0  0  0
  1  6  1  0  0  0  0
  2  5  1  0  0  0  0
  2 13  2  0  0  0  0
  3  7  1  6  0  0  0
  3  2  1  0  0  0  0
  4  7  2  0  0  0  0
  5 17  2  0  0  0  0
  6 18  2  0  0  0  0
  8 12  2  0  0  0  0
  8 14  1  0  0  0  0
  9  1  1  0  0  0  0
 10 19  1  0  0  0  0
 11  4  1  0  0  0  0
 13  8  1  0  0  0  0
 14 23  1  0  0  0  0
 15  1  2  0  0  0  0
 15  5  1  0  0  0  0
 16 21  1  0  0  0  0
 16  4  1  0  0  0  0
 17 18  1  0  0  0  0
 17 12  1  0  0  0  0
 19 13  1  0  0  0  0
 20 21  1  6  0  0  0
 20  3  1  0  0  0  0
 20 10  1  0  0  0  0
 23 22  1  1  0  0  0
 23 25  1  0  0  0  0
 25 24  1  6  0  0  0
 25 27  1  0  0  0  0
 27 26  2  0  0  0  0
 27 28  1  0  0  0  0
 29 31  1  0  0  0  0
 29 28  1  0  0  0  0
 29 30  1  0  0  0  0
M  END
>  <MODEL>
3

>  <REMARK>
 VINA RESULT:      -7.3      4.142      6.635
  Name = 
  5 active torsions:
  status: ('A' for Active; 'I' for Inactive)
    1  A    between atoms: C_1  and  C_24
    2  A    between atoms: C_9  and  C_22
    3  A    between atoms: C_9  and  N_23
    4  A    between atoms: C_19  and  C_22
    5  A    between atoms: C_19  and  C_24
                            x       y       z     vdW  Elec       q    Type
                         _______ _______ _______ _____ _____    ______ ____

>  <TORSDO>
F 5

$$$$
=
 OpenBabel11052422383D

 31 34  0  0  1  0  0  0  0  0999 V2000
  162.2580  206.8280  147.2390 C   0  0  0  0  0  0  0  0  0  0  0  0
  161.3490  204.9550  150.3520 C   0  0  0  0  0  0  0  0  0  0  0  0
  161.3970  203.4890  149.9220 C   0  0  2  0  0  3  0  0  0  0  0  0
  160.3300  201.9440  148.2820 C   0  0  0  0  0  0  0  0  0  0  0  0
  161.6490  206.0070  149.4500 C   0  0  0  0  0  0  0  0  0  0  0  0
  162.2260  208.1420  147.7080 C   0  0  0  0  0  3  0  0  0  0  0  0
  160.6920  203.1940  148.6210 C   0  0  0  0  0  3  0  0  0  0  0  0
  161.1460  206.6210  152.1270 C   0  0  0  0  0  0  0  0  0  0  0  0
  162.5620  206.5790  145.9420 F   0  0  0  0  0  0  0  0  0  0  0  0
  161.4780  202.8540  152.3310 C   0  0  0  0  0  2  0  0  0  0  0  0
  159.7170  201.7410  147.0890 F   0  0  0  0  0  0  0  0  0  0  0  0
  161.3830  207.6060  151.2210 N   0  0  0  0  0  0  0  0  0  0  0  0
  161.1610  205.2760  151.7230 C   0  0  0  0  0  0  0  0  0  0  0  0
  160.9040  206.9570  153.4980 N   0  0  0  0  0  2  0  0  0  0  0  0
  161.9740  205.7690  148.1040 C   0  0  0  0  0  3  0  0  0  0  0  0
  160.4430  200.7820  149.2480 C   0  0  0  0  0  2  0  0  0  0  0  0
  161.6400  207.3410  149.9180 C   0  0  0  0  0  0  0  0  0  0  0  0
  161.9190  208.3980  149.0460 C   0  0  0  0  0  3  0  0  0  0  0  0
  160.9240  204.2040  152.7610 C   0  0  0  0  0  2  0  0  0  0  0  0
  160.8720  202.5260  150.9860 C   0  0  2  0  0  3  0  0  0  0  0  0
  161.2060  201.1110  150.5390 C   0  0  0  0  0  2  0  0  0  0  0  0
  160.0810  209.1830  152.9840 C   0  0  0  0  0  1  0  0  0  0  0  0
  160.8530  208.3320  153.9790 C   0  0  1  0  0  3  0  0  0  0  0  0
  160.0720  207.0880  155.8780 O   0  0  0  0  0  1  0  0  0  0  0  0
  160.1850  208.3790  155.3560 C   0  0  1  0  0  3  0  0  0  0  0  0
  162.1320  208.9910  156.5530 O   0  0  0  0  0  0  0  0  0  0  0  0
  160.9570  209.2320  156.3200 C   0  0  0  0  0  0  0  0  0  0  0  0
  160.2630  210.3430  157.0430 C   0  0  0  0  0  2  0  0  0  0  0  0
  159.3080  211.0920  156.1270 C   0  0  0  0  0  3  0  0  0  0  0  0
  160.0810  212.1380  155.3510 C   0  0  0  0  0  1  0  0  0  0  0  0
  158.2310  211.7790  156.9430 C   0  0  0  0  0  1  0  0  0  0  0  0
  1  6  2  0  0  0  0
  1 15  1  0  0  0  0
  2 13  2  0  0  0  0
  3  7  1  6  0  0  0
  3  2  1  0  0  0  0
  3 20  1  0  0  0  0
  4  7  2  0  0  0  0
  4 16  1  0  0  0  0
  5 17  1  0  0  0  0
  5  2  1  0  0  0  0
  6 18  1  0  0  0  0
  8 14  1  0  0  0  0
  9  1  1  0  0  0  0
 10 19  1  0  0  0  0
 11  4  1  0  0  0  0
 12  8  2  0  0  0  0
 13  8  1  0  0  0  0
 13 19  1  0  0  0  0
 14 23  1  0  0  0  0
 15  5  2  0  0  0  0
 16 21  1  0  0  0  0
 17 12  1  0  0  0  0
 18 17  2  0  0  0  0
 20 21  1  6  0  0  0
 20 10  1  0  0  0  0
 23 22  1  6  0  0  0
 23 25  1  0  0  0  0
 25 24  1  1  0  0  0
 25 27  1  0  0  0  0
 27 26  2  0  0  0  0
 27 28  1  0  0  0  0
 29 31  1  0  0  0  0
 29 28  1  0  0  0  0
 30 29  1  0  0  0  0
M  END
>  <MODEL>
4

>  <REMARK>
 VINA RESULT:      -7.2      4.284      6.143
  Name = 
  5 active torsions:
  status: ('A' for Active; 'I' for Inactive)
    1  A    between atoms: C_1  and  C_24
    2  A    between atoms: C_9  and  C_22
    3  A    between atoms: C_9  and  N_23
    4  A    between atoms: C_19  and  C_22
    5  A    between atoms: C_19  and  C_24
                            x       y       z     vdW  Elec       q    Type
                         _______ _______ _______ _____ _____    ______ ____

>  <TORSDO>
F 5

$$$$
=
 OpenBabel11052422383D

 31 34  0  0  1  0  0  0  0  0999 V2000
  160.7390  202.2440  150.6700 C   0  0  0  0  0  0  0  0  0  0  0  0
  161.2060  205.5980  149.0710 C   0  0  0  0  0  0  0  0  0  0  0  0
  160.9790  205.3280  147.5840 C   0  0  2  0  0  3  0  0  0  0  0  0
  161.9090  203.9440  145.7310 C   0  0  0  0  0  0  0  0  0  0  0  0
  161.1050  204.5680  150.0410 C   0  0  0  0  0  0  0  0  0  0  0  0
  160.9270  202.5680  152.0140 C   0  0  0  0  0  3  0  0  0  0  0  0
  161.7060  204.1190  147.0490 C   0  0  0  0  0  3  0  0  0  0  0  0
  161.5400  207.1920  150.8930 C   0  0  0  0  0  0  0  0  0  0  0  0
  160.4750  200.9640  150.3130 F   0  0  0  0  0  0  0  0  0  0  0  0
  160.6770  207.7790  147.2510 C   0  0  0  0  0  2  0  0  0  0  0  0
  162.5530  202.8260  145.3110 F   0  0  0  0  0  0  0  0  0  0  0  0
  161.4930  206.1700  151.7870 N   0  0  0  0  0  0  0  0  0  0  0  0
  161.3610  206.9360  149.5230 C   0  0  0  0  0  0  0  0  0  0  0  0
  161.7510  208.5320  151.3520 N   0  0  0  0  0  2  0  0  0  0  0  0
  160.8250  203.2370  149.6920 C   0  0  0  0  0  3  0  0  0  0  0  0
  161.5830  205.0200  144.7150 C   0  0  0  0  0  2  0  0  0  0  0  0
  161.2740  204.8880  151.4080 C   0  0  0  0  0  0  0  0  0  0  0  0
  161.1920  203.8890  152.3830 C   0  0  0  0  0  3  0  0  0  0  0  0
  161.3890  208.0980  148.5580 C   0  0  0  0  0  2  0  0  0  0  0  0
  161.3050  206.5240  146.6910 C   0  0  2  0  0  3  0  0  0  0  0  0
  160.8030  206.2110  145.2910 C   0  0  0  0  0  2  0  0  0  0  0  0
  162.5480  210.2640  152.8550 C   0  0  0  0  0  1  0  0  0  0  0  0
  161.9660  208.8640  152.7550 C   0  0  1  0  0  3  0  0  0  0  0  0
  160.8290  208.0890  154.7230 O   0  0  0  0  0  1  0  0  0  0  0  0
  160.6440  208.7760  153.5210 C   0  0  1  0  0  3  0  0  0  0  0  0
  160.2200  210.6360  154.9210 O   0  0  0  0  0  0  0  0  0  0  0  0
  160.0800  210.1360  153.8150 C   0  0  0  0  0  0  0  0  0  0  0  0
  159.2910  210.8520  152.7650 C   0  0  0  0  0  2  0  0  0  0  0  0
  159.3840  212.3610  152.9310 C   0  0  0  0  0  3  0  0  0  0  0  0
  158.0450  212.8940  153.3940 C   0  0  0  0  0  1  0  0  0  0  0  0
  159.7440  213.0110  151.6090 C   0  0  0  0  0  1  0  0  0  0  0  0
  1  6  1  0  0  0  0
  2 13  2  0  0  0  0
  2  5  1  0  0  0  0
  3  7  1  6  0  0  0
  3  2  1  0  0  0  0
  4  7  2  0  0  0  0
  5 17  2  0  0  0  0
  6 18  2  0  0  0  0
  8 14  1  0  0  0  0
  8 12  2  0  0  0  0
  9  1  1  0  0  0  0
 10 19  1  0  0  0  0
 11  4  1  0  0  0  0
 13  8  1  0  0  0  0
 14 23  1  0  0  0  0
 15  5  1  0  0  0  0
 15  1  2  0  0  0  0
 16 21  1  0  0  0  0
 16  4  1  0  0  0  0
 17 12  1  0  0  0  0
 17 18  1  0  0  0  0
 19 13  1  0  0  0  0
 20 21  1  6  0  0  0
 20 10  1  0  0  0  0
 20  3  1  0  0  0  0
 23 22  1  6  0  0  0
 23 25  1  0  0  0  0
 25 27  1  0  0  0  0
 25 24  1  1  0  0  0
 27 26  2  0  0  0  0
 28 29  1  0  0  0  0
 28 27  1  0  0  0  0
 29 30  1  0  0  0  0
 31 29  1  0  0  0  0
M  END
>  <MODEL>
5

>  <REMARK>
 VINA RESULT:      -7.0      3.209      5.039
  Name = 
  5 active torsions:
  status: ('A' for Active; 'I' for Inactive)
    1  A    between atoms: C_1  and  C_24
    2  A    between atoms: C_9  and  C_22
    3  A    between atoms: C_9  and  N_23
    4  A    between atoms: C_19  and  C_22
    5  A    between atoms: C_19  and  C_24
                            x       y       z     vdW  Elec       q    Type
                         _______ _______ _______ _____ _____    ______ ____

>  <TORSDO>
F 5

$$$$
=
 OpenBabel11052422383D

 31 34  0  0  1  0  0  0  0  0999 V2000
  162.1500  210.2650  149.2850 C   0  0  0  0  0  0  0  0  0  0  0  0
  161.3090  206.9200  150.7430 C   0  0  0  0  0  0  0  0  0  0  0  0
  161.5790  205.9450  149.5970 C   0  0  2  0  0  3  0  0  0  0  0  0
  160.8320  205.4880  147.2630 C   0  0  0  0  0  0  0  0  0  0  0  0
  161.5220  208.3150  150.6010 C   0  0  0  0  0  0  0  0  0  0  0  0
  161.9140  211.0940  150.3830 C   0  0  0  0  0  3  0  0  0  0  0  0
  161.0020  206.3660  148.2680 C   0  0  0  0  0  3  0  0  0  0  0  0
  160.7760  207.3050  153.0960 C   0  0  0  0  0  0  0  0  0  0  0  0
  162.5650  210.7990  148.1110 F   0  0  0  0  0  0  0  0  0  0  0  0
  161.5960  204.0930  151.2640 C   0  0  0  0  0  2  0  0  0  0  0  0
  160.3260  205.9320  146.0850 F   0  0  0  0  0  0  0  0  0  0  0  0
  160.9350  208.6420  152.9060 N   0  0  0  0  0  0  0  0  0  0  0  0
  160.9960  206.4140  152.0330 C   0  0  0  0  0  0  0  0  0  0  0  0
  160.4080  206.8070  154.3870 N   0  0  0  0  0  2  0  0  0  0  0  0
  161.9580  208.8860  149.3950 C   0  0  0  0  0  3  0  0  0  0  0  0
  161.0390  203.9980  147.4500 C   0  0  0  0  0  2  0  0  0  0  0  0
  161.3050  209.1630  151.7120 C   0  0  0  0  0  0  0  0  0  0  0  0
  161.4940  210.5430  151.5950 C   0  0  0  0  0  3  0  0  0  0  0  0
  160.8410  204.9320  152.2840 C   0  0  0  0  0  2  0  0  0  0  0  0
  161.1230  204.5170  149.8930 C   0  0  2  0  0  3  0  0  0  0  0  0
  161.6700  203.6160  148.7970 C   0  0  0  0  0  2  0  0  0  0  0  0
  159.2410  206.9530  156.5110 C   0  0  0  0  0  1  0  0  0  0  0  0
  160.1440  207.6780  155.5260 C   0  0  1  0  0  3  0  0  0  0  0  0
  162.5390  207.5150  155.5050 O   0  0  0  0  0  1  0  0  0  0  0  0
  161.4610  208.0740  156.1960 C   0  0  1  0  0  3  0  0  0  0  0  0
  162.7440  210.0620  156.1520 O   0  0  0  0  0  0  0  0  0  0  0  0
  161.6320  209.5640  156.2500 C   0  0  0  0  0  0  0  0  0  0  0  0
  160.4400  210.4370  156.4850 C   0  0  0  0  0  2  0  0  0  0  0  0
  160.2290  211.4130  155.3380 C   0  0  0  0  0  3  0  0  0  0  0  0
  160.0810  212.8120  155.8960 C   0  0  0  0  0  1  0  0  0  0  0  0
  158.9730  211.0520  154.5700 C   0  0  0  0  0  1  0  0  0  0  0  0
  1 15  2  0  0  0  0
  1  6  1  0  0  0  0
  2 13  2  0  0  0  0
  3  7  1  6  0  0  0
  3 20  1  0  0  0  0
  3  2  1  0  0  0  0
  4 16  1  0  0  0  0
  4  7  2  0  0  0  0
  5  2  1  0  0  0  0
  5 17  2  0  0  0  0
  6 18  2  0  0  0  0
  8 14  1  0  0  0  0
  9  1  1  0  0  0  0
 10 19  1  0  0  0  0
 11  4  1  0  0  0  0
 12  8  2  0  0  0  0
 13 19  1  0  0  0  0
 13  8  1  0  0  0  0
 14 23  1  0  0  0  0
 15  5  1  0  0  0  0
 16 21  1  0  0  0  0
 17 12  1  0  0  0  0
 18 17  1  0  0  0  0
 20 21  1  6  0  0  0
 20 10  1  0  0  0  0
 23 25  1  0  0  0  0
 23 22  1  1  0  0  0
 25 24  1  6  0  0  0
 25 27  1  0  0  0  0
 26 27  2  0  0  0  0
 27 28  1  0  0  0  0
 29 30  1  0  0  0  0
 29 28  1  0  0  0  0
 31 29  1  0  0  0  0
M  END
>  <MODEL>
6

>  <REMARK>
 VINA RESULT:      -6.9      3.799      5.961
  Name = 
  5 active torsions:
  status: ('A' for Active; 'I' for Inactive)
    1  A    between atoms: C_1  and  C_24
    2  A    between atoms: C_9  and  C_22
    3  A    between atoms: C_9  and  N_23
    4  A    between atoms: C_19  and  C_22
    5  A    between atoms: C_19  and  C_24
                            x       y       z     vdW  Elec       q    Type
                         _______ _______ _______ _____ _____    ______ ____

>  <TORSDO>
F 5

$$$$
=
 OpenBabel11052422383D

 31 34  0  0  1  0  0  0  0  0999 V2000
  161.9560  210.3970  150.1260 C   0  0  0  0  0  0  0  0  0  0  0  0
  161.3530  207.9030  152.8540 C   0  0  0  0  0  0  0  0  0  0  0  0
  161.0500  208.7680  154.0780 C   0  0  2  0  0  3  0  0  0  0  0  0
  162.1100  210.5390  155.4750 C   0  0  0  0  0  0  0  0  0  0  0  0
  161.6290  208.4750  151.5860 C   0  0  0  0  0  0  0  0  0  0  0  0
  162.1930  209.5470  149.0450 C   0  0  0  0  0  3  0  0  0  0  0  0
  162.0080  209.9140  154.2880 C   0  0  0  0  0  3  0  0  0  0  0  0
  161.4470  205.6980  151.8080 C   0  0  0  0  0  0  0  0  0  0  0  0
  162.0020  211.7400  149.9540 F   0  0  0  0  0  0  0  0  0  0  0  0
  160.0810  206.7540  155.1790 C   0  0  0  0  0  2  0  0  0  0  0  0
  162.9770  211.5760  155.5950 F   0  0  0  0  0  0  0  0  0  0  0  0
  161.7650  206.2810  150.6220 N   0  0  0  0  0  0  0  0  0  0  0  0
  161.1980  206.4940  152.9380 C   0  0  0  0  0  0  0  0  0  0  0  0
  161.3450  204.2720  151.8970 N   0  0  0  0  0  2  0  0  0  0  0  0
  161.6740  209.8650  151.3860 C   0  0  0  0  0  3  0  0  0  0  0  0
  161.4070  210.0310  156.7170 C   0  0  0  0  0  2  0  0  0  0  0  0
  161.8510  207.6250  150.4790 C   0  0  0  0  0  0  0  0  0  0  0  0
  162.1390  208.1630  149.2210 C   0  0  0  0  0  3  0  0  0  0  0  0
  160.8170  205.8170  154.2340 C   0  0  0  0  0  2  0  0  0  0  0  0
  160.9540  207.9710  155.3780 C   0  0  2  0  0  3  0  0  0  0  0  0
  160.4070  208.8970  156.4530 C   0  0  0  0  0  2  0  0  0  0  0  0
  161.8090  201.9700  151.2810 C   0  0  0  0  0  1  0  0  0  0  0  0
  161.6120  203.3870  150.7700 C   0  0  1  0  0  3  0  0  0  0  0  0
  160.6730  204.4450  148.8290 O   0  0  0  0  0  1  0  0  0  0  0  0
  160.4490  203.4420  149.7760 C   0  0  1  0  0  3  0  0  0  0  0  0
  159.3460  201.3850  149.3860 O   0  0  0  0  0  0  0  0  0  0  0  0
  160.2600  202.1320  149.0680 C   0  0  0  0  0  0  0  0  0  0  0  0
  161.2340  201.7150  148.0110 C   0  0  0  0  0  2  0  0  0  0  0  0
  160.5930  201.7180  146.6320 C   0  0  0  0  0  3  0  0  0  0  0  0
  160.8310  200.3770  145.9710 C   0  0  0  0  0  1  0  0  0  0  0  0
  161.2060  202.8070  145.7740 C   0  0  0  0  0  1  0  0  0  0  0  0
  1 15  1  0  0  0  0
  2 13  2  0  0  0  0
  2  3  1  0  0  0  0
  3  7  1  1  0  0  0
  3 20  1  0  0  0  0
  4 11  1  0  0  0  0
  4 16  1  0  0  0  0
  5  2  1  0  0  0  0
  6 18  1  0  0  0  0
  6  1  2  0  0  0  0
  7  4  2  0  0  0  0
  8 14  1  0  0  0  0
  8 13  1  0  0  0  0
  9  1  1  0  0  0  0
 12  8  2  0  0  0  0
 13 19  1  0  0  0  0
 15  5  2  0  0  0  0
 17 12  1  0  0  0  0
 17  5  1  0  0  0  0
 18 17  2  0  0  0  0
 19 10  1  0  0  0  0
 20 10  1  6  0  0  0
 20 21  1  0  0  0  0
 21 16  1  0  0  0  0
 23 22  1  1  0  0  0
 23 14  1  0  0  0  0
 25 24  1  6  0  0  0
 25 23  1  0  0  0  0
 27 26  2  0  0  0  0
 27 25  1  0  0  0  0
 28 27  1  0  0  0  0
 29 28  1  0  0  0  0
 30 29  1  0  0  0  0
 31 29  1  0  0  0  0
M  END
>  <MODEL>
7

>  <REMARK>
 VINA RESULT:      -6.9      3.866      8.036
  Name = 
  5 active torsions:
  status: ('A' for Active; 'I' for Inactive)
    1  A    between atoms: C_1  and  C_24
    2  A    between atoms: C_9  and  C_22
    3  A    between atoms: C_9  and  N_23
    4  A    between atoms: C_19  and  C_22
    5  A    between atoms: C_19  and  C_24
                            x       y       z     vdW  Elec       q    Type
                         _______ _______ _______ _____ _____    ______ ____

>  <TORSDO>
F 5

$$$$
=
 OpenBabel11052422383D

 31 34  0  0  1  0  0  0  0  0999 V2000
  161.9560  210.3990  150.1800 C   0  0  0  0  0  0  0  0  0  0  0  0
  161.2960  207.9640  152.9480 C   0  0  0  0  0  0  0  0  0  0  0  0
  160.8770  208.8510  154.1210 C   0  0  2  0  0  3  0  0  0  0  0  0
  161.7660  210.7120  155.5200 C   0  0  0  0  0  0  0  0  0  0  0  0
  161.6260  208.5090  151.6810 C   0  0  0  0  0  0  0  0  0  0  0  0
  162.2990  209.5280  149.1450 C   0  0  0  0  0  3  0  0  0  0  0  0
  161.7680  210.0470  154.3520 C   0  0  0  0  0  3  0  0  0  0  0  0
  161.5560  205.7340  151.9850 C   0  0  0  0  0  0  0  0  0  0  0  0
  161.9510  211.7370  149.9660 F   0  0  0  0  0  0  0  0  0  0  0  0
  159.9340  206.8270  155.2280 C   0  0  0  0  0  2  0  0  0  0  0  0
  162.5760  211.7920  155.6590 F   0  0  0  0  0  0  0  0  0  0  0  0
  161.9210  206.2950  150.8010 N   0  0  0  0  0  0  0  0  0  0  0  0
  161.2000  206.5520  153.0700 C   0  0  0  0  0  0  0  0  0  0  0  0
  161.5130  204.3090  152.1150 N   0  0  0  0  0  2  0  0  0  0  0  0
  161.6200  209.8920  151.4380 C   0  0  0  0  0  3  0  0  0  0  0  0
  161.0100  210.2090  156.7340 C   0  0  0  0  0  2  0  0  0  0  0  0
  161.9550  207.6370  150.6190 C   0  0  0  0  0  0  0  0  0  0  0  0
  162.2970  208.1490  149.3630 C   0  0  0  0  0  3  0  0  0  0  0  0
  160.7700  205.8970  154.3610 C   0  0  0  0  0  2  0  0  0  0  0  0
  160.7360  208.0900  155.4390 C   0  0  2  0  0  3  0  0  0  0  0  0
  160.0810  209.0210  156.4460 C   0  0  0  0  0  2  0  0  0  0  0  0
  162.3310  202.0750  151.6290 C   0  0  0  0  0  1  0  0  0  0  0  0
  161.8910  203.4030  151.0360 C   0  0  1  0  0  3  0  0  0  0  0  0
  159.7140  204.1470  150.3490 O   0  0  0  0  0  1  0  0  0  0  0  0
  160.7080  203.2010  150.0860 C   0  0  1  0  0  3  0  0  0  0  0  0
  161.1380  202.3230  147.9310 O   0  0  0  0  0  0  0  0  0  0  0  0
  161.1240  203.3130  148.6480 C   0  0  0  0  0  0  0  0  0  0  0  0
  161.5810  204.6320  148.1110 C   0  0  0  0  0  2  0  0  0  0  0  0
  161.6230  204.6300  146.5920 C   0  0  0  0  0  3  0  0  0  0  0  0
  163.0640  204.7030  146.1330 C   0  0  0  0  0  1  0  0  0  0  0  0
  160.8700  205.8280  146.0460 C   0  0  0  0  0  1  0  0  0  0  0  0
  1 15  1  0  0  0  0
  2 13  2  0  0  0  0
  2  3  1  0  0  0  0
  3  7  1  1  0  0  0
  3 20  1  0  0  0  0
  4 11  1  0  0  0  0
  4 16  1  0  0  0  0
  5  2  1  0  0  0  0
  6 18  1  0  0  0  0
  6  1  2  0  0  0  0
  7  4  2  0  0  0  0
  8 14  1  0  0  0  0
  8 13  1  0  0  0  0
  9  1  1  0  0  0  0
 12  8  2  0  0  0  0
 13 19  1  0  0  0  0
 15  5  2  0  0  0  0
 17 12  1  0  0  0  0
 17  5  1  0  0  0  0
 18 17  2  0  0  0  0
 19 10  1  0  0  0  0
 20 10  1  6  0  0  0
 20 21  1  0  0  0  0
 21 16  1  0  0  0  0
 23 22  1  1  0  0  0
 23 14  1  0  0  0  0
 25 24  1  1  0  0  0
 25 23  1  0  0  0  0
 26 27  2  0  0  0  0
 27 25  1  0  0  0  0
 28 27  1  0  0  0  0
 29 28  1  0  0  0  0
 30 29  1  0  0  0  0
 31 29  1  0  0  0  0
M  END
>  <MODEL>
8

>  <REMARK>
 VINA RESULT:      -6.9      3.918      7.511
  Name = 
  5 active torsions:
  status: ('A' for Active; 'I' for Inactive)
    1  A    between atoms: C_1  and  C_24
    2  A    between atoms: C_9  and  C_22
    3  A    between atoms: C_9  and  N_23
    4  A    between atoms: C_19  and  C_22
    5  A    between atoms: C_19  and  C_24
                            x       y       z     vdW  Elec       q    Type
                         _______ _______ _______ _____ _____    ______ ____

>  <TORSDO>
F 5

$$$$
=
 OpenBabel11052422383D

 31 34  0  0  1  0  0  0  0  0999 V2000
  160.6490  202.7290  151.0650 C   0  0  0  0  0  0  0  0  0  0  0  0
  161.2350  205.8850  149.1360 C   0  0  0  0  0  0  0  0  0  0  0  0
  160.9540  205.4840  147.6880 C   0  0  2  0  0  3  0  0  0  0  0  0
  161.7650  203.8820  145.9590 C   0  0  0  0  0  0  0  0  0  0  0  0
  161.1100  204.9600  150.2040 C   0  0  0  0  0  0  0  0  0  0  0  0
  160.8900  203.1710  152.3670 C   0  0  0  0  0  3  0  0  0  0  0  0
  161.6070  204.1930  147.2570 C   0  0  0  0  0  3  0  0  0  0  0  0
  161.6950  207.6280  150.7850 C   0  0  0  0  0  0  0  0  0  0  0  0
  160.3130  201.4350  150.8410 F   0  0  0  0  0  0  0  0  0  0  0  0
  160.7630  207.9040  147.1240 C   0  0  0  0  0  2  0  0  0  0  0  0
  162.3430  202.6980  145.6360 F   0  0  0  0  0  0  0  0  0  0  0  0
  161.6230  206.7000  151.7760 N   0  0  0  0  0  0  0  0  0  0  0  0
  161.4670  207.2510  149.4520 C   0  0  0  0  0  0  0  0  0  0  0  0
  161.9830  208.9930  151.1060 N   0  0  0  0  0  2  0  0  0  0  0  0
  160.7560  203.6170  149.9920 C   0  0  0  0  0  3  0  0  0  0  0  0
  161.4640  204.8710  144.8500 C   0  0  0  0  0  2  0  0  0  0  0  0
  161.3310  205.4010  151.5290 C   0  0  0  0  0  0  0  0  0  0  0  0
  161.2280  204.5060  152.5980 C   0  0  0  0  0  3  0  0  0  0  0  0
  161.5250  208.3110  148.3770 C   0  0  0  0  0  2  0  0  0  0  0  0
  161.3140  206.5700  146.6750 C   0  0  2  0  0  3  0  0  0  0  0  0
  160.7590  206.1490  145.3230 C   0  0  0  0  0  2  0  0  0  0  0  0
  163.4910  210.3280  152.4630 C   0  0  0  0  0  1  0  0  0  0  0  0
  162.2520  209.4480  152.4650 C   0  0  1  0  0  3  0  0  0  0  0  0
  159.8620  209.5640  152.6610 O   0  0  0  0  0  1  0  0  0  0  0  0
  161.0460  210.2200  153.0050 C   0  0  1  0  0  3  0  0  0  0  0  0
  160.8520  211.4500  155.0180 O   0  0  0  0  0  0  0  0  0  0  0  0
  161.1070  210.3730  154.4970 C   0  0  0  0  0  0  0  0  0  0  0  0
  161.5410  209.2170  155.3420 C   0  0  0  0  0  2  0  0  0  0  0  0
  160.3580  208.3560  155.7550 C   0  0  0  0  0  3  0  0  0  0  0  0
  160.3610  208.1940  157.2610 C   0  0  0  0  0  1  0  0  0  0  0  0
  160.4590  206.9860  155.1120 C   0  0  0  0  0  1  0  0  0  0  0  0
  1  6  1  0  0  0  0
  2 13  2  0  0  0  0
  2  5  1  0  0  0  0
  3  7  1  6  0  0  0
  3  2  1  0  0  0  0
  4  7  2  0  0  0  0
  5 17  2  0  0  0  0
  6 18  2  0  0  0  0
  8 14  1  0  0  0  0
  8 12  2  0  0  0  0
  9  1  1  0  0  0  0
 10 19  1  0  0  0  0
 11  4  1  0  0  0  0
 13  8  1  0  0  0  0
 14 23  1  0  0  0  0
 15  5  1  0  0  0  0
 15  1  2  0  0  0  0
 16 21  1  0  0  0  0
 16  4  1  0  0  0  0
 17 12  1  0  0  0  0
 17 18  1  0  0  0  0
 19 13  1  0  0  0  0
 20 21  1  6  0  0  0
 20 10  1  0  0  0  0
 20  3  1  0  0  0  0
 23 22  1  6  0  0  0
 23 25  1  0  0  0  0
 25 24  1  1  0  0  0
 25 27  1  0  0  0  0
 27 26  2  0  0  0  0
 27 28  1  0  0  0  0
 28 29  1  0  0  0  0
 29 30  1  0  0  0  0
 31 29  1  0  0  0  0
M  END
>  <MODEL>
9

>  <REMARK>
 VINA RESULT:      -6.8      3.481      5.510
  Name = 
  5 active torsions:
  status: ('A' for Active; 'I' for Inactive)
    1  A    between atoms: C_1  and  C_24
    2  A    between atoms: C_9  and  C_22
    3  A    between atoms: C_9  and  N_23
    4  A    between atoms: C_19  and  C_22
    5  A    between atoms: C_19  and  C_24
                            x       y       z     vdW  Elec       q    Type
                         _______ _______ _______ _____ _____    ______ ____

>  <TORSDO>
F 5

$$$$
