=
 OpenBabel11062410183D

 43 46  0  0  1  0  0  0  0  0999 V2000
  161.1690  206.1930  150.1140 C   0  0  0  0  0  0  0  0  0  0  0  0
  161.8340  208.9520  149.4880 C   0  0  0  0  0  0  0  0  0  0  0  0
  161.4210  204.2870  147.7380 C   0  0  0  0  0  0  0  0  0  0  0  0
  161.5110  205.6030  147.6550 C   0  0  0  0  0  3  0  0  0  0  0  0
  161.3100  208.0330  148.3770 C   0  0  0  0  0  2  0  0  0  0  0  0
  161.6190  206.5900  148.7740 C   0  0  0  0  0  0  0  0  0  0  0  0
  160.9170  204.7230  150.3790 C   0  0  0  0  0  3  0  0  0  0  0  0
  161.3160  207.1760  151.1630 C   0  0  1  0  0  3  0  0  0  0  0  0
  161.7800  208.5310  150.7520 C   0  0  0  0  0  3  0  0  0  0  0  0
  161.2690  203.7130  149.2240 C   0  0  0  0  0  3  0  0  0  0  0  0
  162.4100  210.2400  149.1010 C   0  0  2  0  0  3  0  0  0  0  0  0
  162.6550  210.9780  150.2860 O   0  0  0  0  0  1  0  0  0  0  0  0
  161.4590  210.9230  148.2720 N   0  0  0  0  0  2  0  0  0  0  0  0
  161.5630  212.1680  147.6230 C   0  0  0  0  0  0  0  0  0  0  0  0
  162.7160  212.7520  147.5400 O   0  0  0  0  0  0  0  0  0  0  0  0
  160.3880  212.8040  147.0380 C   0  0  2  0  0  3  0  0  0  0  0  0
  159.5270  213.5440  148.1140 C   0  0  1  0  0  3  0  0  0  0  0  0
  158.1740  213.1390  148.0740 O   0  0  0  0  0  1  0  0  0  0  0  0
  160.0390  213.5850  149.5460 C   0  0  0  0  0  2  0  0  0  0  0  0
  158.9980  214.3090  150.3740 C   0  0  0  0  0  2  0  0  0  0  0  0
  157.4970  213.9120  152.2260 O   0  0  0  0  0  0  0  0  0  0  0  0
  158.7040  213.5910  151.5610 C   0  0  1  0  0  3  0  0  0  0  0  0
  156.9920  212.6710  154.0660 C   0  0  0  0  0  2  0  0  0  0  0  0
  158.8750  211.3710  152.6420 C   0  0  0  0  0  2  0  0  0  0  0  0
  158.2660  211.8570  154.0000 C   0  0  0  0  0  2  0  0  0  0  0  0
  159.4340  212.5120  151.8710 C   0  0  0  0  0  2  0  0  0  0  0  0
  157.3220  214.0230  153.5910 C   0  0  0  0  0  2  0  0  0  0  0  0
  159.6960  212.3180  145.0270 C   0  0  0  0  0  1  0  0  0  0  0  0
  159.7000  211.8250  146.3430 O   0  0  0  0  0  0  0  0  0  0  0  0
  161.0180  206.8920  152.5400 N   0  0  0  0  0  2  0  0  0  0  0  0
  161.2370  209.8450  154.9730 C   0  0  0  0  0  2  0  0  0  0  0  0
  160.4790  209.1930  156.1050 C   0  0  0  0  0  0  0  0  0  0  0  0
  160.3660  207.0200  154.7940 C   0  0  0  0  0  2  0  0  0  0  0  0
  161.5090  208.9230  153.7550 C   0  0  0  0  0  2  0  0  0  0  0  0
  160.4990  207.8020  153.5150 C   0  0  1  0  0  3  0  0  0  0  0  0
  160.0340  207.9470  156.0140 C   0  0  0  0  0  3  0  0  0  0  0  0
  160.0780  210.0150  157.2610 C   0  0  0  0  0  2  0  0  0  0  0  0
  159.5430  211.1850  156.9220 F   0  0  0  0  0  0  0  0  0  0  0  0
  161.6400  203.4930  146.4000 C   0  0  1  0  0  3  0  0  0  0  0  0
  160.8110  202.0220  146.5540 C   0  0  0  0  0  2  0  0  0  0  0  0
  161.3610  200.4790  147.3750 S   0  0  0  0  0  1  0  0  0  0  0  0
  160.3950  204.5520  144.6250 O   0  0  0  0  0  1  0  0  0  0  0  0
  161.6910  204.2240  145.1360 N   0  0  0  0  0  2  0  0  0  0  0  0
  1  7  1  0  0  0  0
  1  8  1  0  0  0  0
  2  9  2  0  0  0  0
  3 10  1  0  0  0  0
  4  3  2  0  0  0  0
  4  6  1  0  0  0  0
  5  6  1  0  0  0  0
  5  2  1  0  0  0  0
  6  1  2  0  0  0  0
  8 30  1  6  0  0  0
  9  8  1  0  0  0  0
 10  7  2  0  0  0  0
 11  2  1  0  0  0  0
 11 12  1  1  0  0  0
 13 11  1  0  0  0  0
 14 13  1  0  0  0  0
 15 14  2  0  0  0  0
 16 29  1  1  0  0  0
 16 14  1  0  0  0  0
 16 17  1  0  0  0  0
 17 18  1  1  0  0  0
 17 19  1  0  0  0  0
 19 20  1  0  0  0  0
 21 27  1  0  0  0  0
 22 20  1  6  0  0  0
 22 26  1  0  0  0  0
 22 21  1  0  0  0  0
 24 25  1  0  0  0  0
 25 23  1  0  0  0  0
 26 24  1  0  0  0  0
 27 23  1  0  0  0  0
 28 29  1  0  0  0  0
 31 32  1  0  0  0  0
 32 37  1  0  0  0  0
 33 36  1  0  0  0  0
 34 31  1  0  0  0  0
 35 30  1  6  0  0  0
 35 34  1  0  0  0  0
 35 33  1  0  0  0  0
 36 32  2  0  0  0  0
 38 37  1  0  0  0  0
 39 40  1  6  0  0  0
 39  3  1  0  0  0  0
 40 41  1  0  0  0  0
 42 43  1  0  0  0  0
 43 39  1  0  0  0  0
M  END
>  <MODEL>
1

>  <REMARK>
 VINA RESULT:      -7.6      0.000      0.000
  Name = 
  14 active torsions:
  status: ('A' for Active; 'I' for Inactive)
    1  A    between atoms: N_1  and  C_34
    2  A    between atoms: N_1  and  C_35
    3  A    between atoms: C_2  and  N_6
    4  A    between atoms: C_2  and  C_13
    5  A    between atoms: C_3  and  C_4
    6  A    between atoms: C_3  and  C_12
    7  A    between atoms: C_3  and  O_42
    8  A    between atoms: C_4  and  C_22
    9  A    between atoms: C_5  and  C_16
   10  A    between atoms: C_5  and  C_18
   11  A    between atoms: C_5  and  N_23
   12  A    between atoms: C_14  and  C_41
   13  A    between atoms: C_19  and  C_25
   14  A    between atoms: C_22  and  C_41
                            x       y       z     vdW  Elec       q    Type
                         _______ _______ _______ _____ _____    ______ ____

>  <TORSDO>
F 14

$$$$
=
 OpenBabel11062410183D

 43 46  0  0  1  0  0  0  0  0999 V2000
  162.0770  208.0620  150.2860 C   0  0  0  0  0  0  0  0  0  0  0  0
  161.9640  210.6940  149.0590 C   0  0  0  0  0  0  0  0  0  0  0  0
  161.1400  208.0080  153.1940 C   0  0  0  0  0  0  0  0  0  0  0  0
  161.3310  209.1100  152.4890 C   0  0  0  0  0  3  0  0  0  0  0  0
  162.1410  210.5780  150.5780 C   0  0  0  0  0  2  0  0  0  0  0  0
  161.5730  209.2300  151.0180 C   0  0  0  0  0  0  0  0  0  0  0  0
  162.0320  206.7110  150.9710 C   0  0  0  0  0  3  0  0  0  0  0  0
  162.2730  208.2250  148.8640 C   0  0  1  0  0  3  0  0  0  0  0  0
  162.0720  209.5940  148.3120 C   0  0  0  0  0  3  0  0  0  0  0  0
  161.3350  206.6430  152.3810 C   0  0  0  0  0  3  0  0  0  0  0  0
  161.6430  212.0070  148.5010 C   0  0  2  0  0  3  0  0  0  0  0  0
  160.9750  212.7520  149.5050 O   0  0  0  0  0  1  0  0  0  0  0  0
  160.7850  211.8120  147.3670 N   0  0  0  0  0  2  0  0  0  0  0  0
  160.2900  212.7510  146.4430 C   0  0  0  0  0  0  0  0  0  0  0  0
  160.7890  213.9460  146.4140 O   0  0  0  0  0  0  0  0  0  0  0  0
  159.2240  212.3920  145.5140 C   0  0  2  0  0  3  0  0  0  0  0  0
  159.6770  212.5340  144.0230 C   0  0  1  0  0  3  0  0  0  0  0  0
  159.2310  213.7470  143.4520 O   0  0  0  0  0  1  0  0  0  0  0  0
  161.1380  212.2790  143.6840 C   0  0  0  0  0  2  0  0  0  0  0  0
  161.5850  213.3940  142.7620 C   0  0  0  0  0  2  0  0  0  0  0  0
  163.1380  213.6050  140.9220 O   0  0  0  0  0  0  0  0  0  0  0  0
  162.1040  212.8710  141.5490 C   0  0  1  0  0  3  0  0  0  0  0  0
  164.0310  212.6920  139.0380 C   0  0  0  0  0  2  0  0  0  0  0  0
  162.6800  210.7750  140.3660 C   0  0  0  0  0  2  0  0  0  0  0  0
  163.0980  211.5010  139.0430 C   0  0  0  0  0  2  0  0  0  0  0  0
  161.7730  211.6290  141.1770 C   0  0  0  0  0  2  0  0  0  0  0  0
  163.2710  213.8340  139.5670 C   0  0  0  0  0  2  0  0  0  0  0  0
  157.3700  212.2970  146.6590 C   0  0  0  0  0  1  0  0  0  0  0  0
  158.1220  213.1590  145.8420 O   0  0  0  0  0  0  0  0  0  0  0  0
  162.6590  207.1400  148.0040 N   0  0  0  0  0  2  0  0  0  0  0  0
  161.3320  203.5780  147.5200 C   0  0  0  0  0  2  0  0  0  0  0  0
  161.2220  203.6380  146.0140 C   0  0  0  0  0  0  0  0  0  0  0  0
  162.2850  205.9450  146.0150 C   0  0  0  0  0  2  0  0  0  0  0  0
  161.9740  204.8290  148.1760 C   0  0  0  0  0  2  0  0  0  0  0  0
  161.8030  206.1500  147.4260 C   0  0  1  0  0  3  0  0  0  0  0  0
  161.5920  204.7150  145.3340 C   0  0  0  0  0  3  0  0  0  0  0  0
  160.5300  202.5450  145.3070 C   0  0  0  0  0  2  0  0  0  0  0  0
  160.2480  201.5020  146.0840 F   0  0  0  0  0  0  0  0  0  0  0  0
  160.5980  208.2070  154.6560 C   0  0  1  0  0  3  0  0  0  0  0  0
  159.9780  209.7820  154.7450 C   0  0  0  0  0  2  0  0  0  0  0  0
  159.3390  210.6800  156.2100 S   0  0  0  0  0  1  0  0  0  0  0  0
  160.3350  206.9780  156.7160 O   0  0  0  0  0  1  0  0  0  0  0  0
  159.9610  207.0840  155.3390 N   0  0  0  0  0  2  0  0  0  0  0  0
  1  7  2  0  0  0  0
  1  6  1  0  0  0  0
  2  5  1  0  0  0  0
  3 39  1  0  0  0  0
  4  3  1  0  0  0  0
  5  6  1  0  0  0  0
  6  4  2  0  0  0  0
  7 10  1  0  0  0  0
  8 30  1  1  0  0  0
  8  1  1  0  0  0  0
  9  8  1  0  0  0  0
  9  2  2  0  0  0  0
 10  3  2  0  0  0  0
 11  2  1  0  0  0  0
 11 12  1  1  0  0  0
 13 11  1  0  0  0  0
 14 13  1  0  0  0  0
 15 14  2  0  0  0  0
 16 29  1  6  0  0  0
 16 14  1  0  0  0  0
 17 18  1  1  0  0  0
 17 16  1  0  0  0  0
 19 17  1  0  0  0  0
 20 19  1  0  0  0  0
 21 22  1  0  0  0  0
 22 20  1  1  0  0  0
 23 25  1  0  0  0  0
 23 27  1  0  0  0  0
 24 26  1  0  0  0  0
 25 24  1  0  0  0  0
 26 22  1  0  0  0  0
 27 21  1  0  0  0  0
 29 28  1  0  0  0  0
 31 34  1  0  0  0  0
 32 31  1  0  0  0  0
 33 35  1  0  0  0  0
 35 30  1  1  0  0  0
 35 34  1  0  0  0  0
 36 32  2  0  0  0  0
 36 33  1  0  0  0  0
 37 32  1  0  0  0  0
 37 38  1  0  0  0  0
 39 40  1  6  0  0  0
 39 43  1  0  0  0  0
 40 41  1  0  0  0  0
 43 42  1  0  0  0  0
M  END
>  <MODEL>
2

>  <REMARK>
 VINA RESULT:      -7.4      4.389      8.731
  Name = 
  14 active torsions:
  status: ('A' for Active; 'I' for Inactive)
    1  A    between atoms: N_1  and  C_34
    2  A    between atoms: N_1  and  C_35
    3  A    between atoms: C_2  and  N_6
    4  A    between atoms: C_2  and  C_13
    5  A    between atoms: C_3  and  C_4
    6  A    between atoms: C_3  and  C_12
    7  A    between atoms: C_3  and  O_42
    8  A    between atoms: C_4  and  C_22
    9  A    between atoms: C_5  and  C_16
   10  A    between atoms: C_5  and  C_18
   11  A    between atoms: C_5  and  N_23
   12  A    between atoms: C_14  and  C_41
   13  A    between atoms: C_19  and  C_25
   14  A    between atoms: C_22  and  C_41
                            x       y       z     vdW  Elec       q    Type
                         _______ _______ _______ _____ _____    ______ ____

>  <TORSDO>
F 14

$$$$
=
 OpenBabel11062410183D

 43 46  0  0  1  0  0  0  0  0999 V2000
  161.1220  206.0940  149.9800 C   0  0  0  0  0  0  0  0  0  0  0  0
  161.8090  208.8700  149.4620 C   0  0  0  0  0  0  0  0  0  0  0  0
  161.4640  204.2600  147.5600 C   0  0  0  0  0  0  0  0  0  0  0  0
  161.5570  205.5770  147.5190 C   0  0  0  0  0  3  0  0  0  0  0  0
  161.3280  207.9850  148.3050 C   0  0  0  0  0  2  0  0  0  0  0  0
  161.6210  206.5300  148.6710 C   0  0  0  0  0  0  0  0  0  0  0  0
  160.8600  204.6170  150.1920 C   0  0  0  0  0  3  0  0  0  0  0  0
  161.2280  207.0450  151.0630 C   0  0  0  0  0  0  0  0  0  0  0  0
  161.7070  208.4110  150.7100 C   0  0  0  0  0  3  0  0  0  0  0  0
  161.2550  203.6410  149.0210 C   0  0  0  0  0  3  0  0  0  0  0  0
  162.3990  210.1680  149.1360 C   0  0  2  0  0  3  0  0  0  0  0  0
  162.6020  210.8690  150.3510 O   0  0  0  0  0  1  0  0  0  0  0  0
  161.4780  210.8780  148.2950 N   0  0  0  0  0  2  0  0  0  0  0  0
  161.4800  212.2290  147.9010 C   0  0  0  0  0  0  0  0  0  0  0  0
  162.5310  212.9570  148.1120 O   0  0  0  0  0  0  0  0  0  0  0  0
  160.3130  212.8180  147.2520 C   0  0  2  0  0  3  0  0  0  0  0  0
  160.5330  213.0060  145.7160 C   0  0  1  0  0  3  0  0  0  0  0  0
  161.9000  212.9270  145.3660 O   0  0  0  0  0  1  0  0  0  0  0  0
  159.6790  212.1870  144.7580 C   0  0  0  0  0  2  0  0  0  0  0  0
  159.1780  213.1320  143.6850 C   0  0  0  0  0  2  0  0  0  0  0  0
  160.4560  211.5930  142.3270 O   0  0  0  0  0  0  0  0  0  0  0  0
  159.5390  212.6680  142.3930 C   0  0  1  0  0  3  0  0  0  0  0  0
  160.9340  210.7930  140.2500 C   0  0  0  0  0  2  0  0  0  0  0  0
  158.6750  212.2580  140.1100 C   0  0  0  0  0  2  0  0  0  0  0  0
  160.0630  211.8080  139.5420 C   0  0  0  0  0  2  0  0  0  0  0  0
  158.8450  213.0910  141.3300 C   0  0  0  0  0  2  0  0  0  0  0  0
  161.4980  211.4630  141.4310 C   0  0  0  0  0  2  0  0  0  0  0  0
  158.6480  213.8620  148.1980 C   0  0  0  0  0  1  0  0  0  0  0  0
  160.0210  213.9890  147.9270 O   0  0  0  0  0  0  0  0  0  0  0  0
  160.8790  206.7210  152.4180 N   0  0  0  0  0  0  0  0  0  0  0  0
  160.4770  207.6610  156.1120 C   0  0  0  0  0  2  0  0  0  0  0  0
  160.4190  209.1560  155.9040 C   0  0  0  0  0  0  0  0  0  0  0  0
  160.4600  208.8210  153.3860 C   0  0  0  0  0  2  0  0  0  0  0  0
  160.5190  206.8240  154.8060 C   0  0  0  0  0  2  0  0  0  0  0  0
  161.1500  207.4990  153.5890 C   0  0  1  0  0  3  0  0  0  0  0  0
  160.4690  209.6900  154.6910 C   0  0  0  0  0  3  0  0  0  0  0  0
  160.4830  210.0420  157.0810 C   0  0  0  0  0  2  0  0  0  0  0  0
  160.4170  211.3360  156.7780 F   0  0  0  0  0  0  0  0  0  0  0  0
  161.7330  203.5050  146.2080 C   0  0  1  0  0  3  0  0  0  0  0  0
  160.8980  202.0320  146.2860 C   0  0  0  0  0  2  0  0  0  0  0  0
  159.9080  201.2070  144.9830 S   0  0  0  0  0  1  0  0  0  0  0  0
  160.5620  204.6830  144.4590 O   0  0  0  0  0  1  0  0  0  0  0  0
  161.8340  204.2740  144.9700 N   0  0  0  0  0  2  0  0  0  0  0  0
  1  7  1  0  0  0  0
  1  8  1  0  0  0  0
  2  9  2  0  0  0  0
  3 10  1  0  0  0  0
  4  3  2  0  0  0  0
  4  6  1  0  0  0  0
  5  6  1  0  0  0  0
  5  2  1  0  0  0  0
  6  1  2  0  0  0  0
  8 30  2  0  0  0  0
  9  8  1  0  0  0  0
 10  7  2  0  0  0  0
 11  2  1  0  0  0  0
 11 12  1  1  0  0  0
 13 11  1  0  0  0  0
 14 15  2  0  0  0  0
 14 13  1  0  0  0  0
 16 14  1  1  0  0  0
 16 29  1  0  0  0  0
 17 18  1  1  0  0  0
 17 16  1  0  0  0  0
 19 17  1  0  0  0  0
 20 19  1  0  0  0  0
 21 22  1  0  0  0  0
 22 20  1  1  0  0  0
 23 27  1  0  0  0  0
 24 26  1  0  0  0  0
 25 24  1  0  0  0  0
 25 23  1  0  0  0  0
 26 22  1  0  0  0  0
 27 21  1  0  0  0  0
 29 28  1  0  0  0  0
 32 31  1  0  0  0  0
 32 37  1  0  0  0  0
 33 35  1  0  0  0  0
 33 36  1  0  0  0  0
 34 31  1  0  0  0  0
 35 30  1  6  0  0  0
 35 34  1  0  0  0  0
 36 32  2  0  0  0  0
 38 37  1  0  0  0  0
 39 40  1  6  0  0  0
 39  3  1  0  0  0  0
 41 40  1  0  0  0  0
 42 43  1  0  0  0  0
 43 39  1  0  0  0  0
M  END
>  <MODEL>
3

>  <REMARK>
 VINA RESULT:      -7.4      1.966      5.318
  Name = 
  14 active torsions:
  status: ('A' for Active; 'I' for Inactive)
    1  A    between atoms: N_1  and  C_34
    2  A    between atoms: N_1  and  C_35
    3  A    between atoms: C_2  and  N_6
    4  A    between atoms: C_2  and  C_13
    5  A    between atoms: C_3  and  C_4
    6  A    between atoms: C_3  and  C_12
    7  A    between atoms: C_3  and  O_42
    8  A    between atoms: C_4  and  C_22
    9  A    between atoms: C_5  and  C_16
   10  A    between atoms: C_5  and  C_18
   11  A    between atoms: C_5  and  N_23
   12  A    between atoms: C_14  and  C_41
   13  A    between atoms: C_19  and  C_25
   14  A    between atoms: C_22  and  C_41
                            x       y       z     vdW  Elec       q    Type
                         _______ _______ _______ _____ _____    ______ ____

>  <TORSDO>
F 14

$$$$
=
 OpenBabel11062410183D

 43 46  0  0  1  0  0  0  0  0999 V2000
  162.0490  207.9100  150.6450 C   0  0  0  0  0  0  0  0  0  0  0  0
  162.1650  210.2210  148.8870 C   0  0  0  0  0  0  0  0  0  0  0  0
  161.0140  208.5370  153.4520 C   0  0  0  0  0  0  0  0  0  0  0  0
  161.3060  209.4490  152.5400 C   0  0  0  0  0  3  0  0  0  0  0  0
  162.2820  210.4210  150.4030 C   0  0  0  0  0  2  0  0  0  0  0  0
  161.6050  209.2360  151.0900 C   0  0  0  0  0  0  0  0  0  0  0  0
  161.8840  206.7410  151.5970 C   0  0  0  0  0  3  0  0  0  0  0  0
  162.3030  207.7520  149.2320 C   0  0  1  0  0  3  0  0  0  0  0  0
  162.2190  208.9820  148.3950 C   0  0  0  0  0  3  0  0  0  0  0  0
  161.1380  207.0200  152.9550 C   0  0  0  0  0  3  0  0  0  0  0  0
  161.9570  211.4020  148.0500 C   0  0  2  0  0  3  0  0  0  0  0  0
  162.8590  212.4050  148.4850 O   0  0  0  0  0  1  0  0  0  0  0  0
  160.6000  211.8380  148.2240 N   0  0  0  0  0  2  0  0  0  0  0  0
  160.0980  213.1220  148.5030 C   0  0  0  0  0  0  0  0  0  0  0  0
  160.8790  214.1510  148.4030 O   0  0  0  0  0  0  0  0  0  0  0  0
  158.7060  213.3090  148.8970 C   0  0  2  0  0  3  0  0  0  0  0  0
  157.7480  213.3330  147.6610 C   0  0  1  0  0  3  0  0  0  0  0  0
  156.4600  213.8040  148.0050 O   0  0  0  0  0  1  0  0  0  0  0  0
  158.2390  213.9840  146.3770 C   0  0  0  0  0  2  0  0  0  0  0  0
  158.2140  212.9220  145.2980 C   0  0  0  0  0  2  0  0  0  0  0  0
  160.6180  212.7850  145.0830 O   0  0  0  0  0  0  0  0  0  0  0  0
  159.3620  213.0120  144.4700 C   0  0  1  0  0  3  0  0  0  0  0  0
  162.4360  212.8240  143.7140 C   0  0  0  0  0  2  0  0  0  0  0  0
  160.2250  212.5370  142.1990 C   0  0  0  0  0  2  0  0  0  0  0  0
  161.6330  213.1650  142.4780 C   0  0  0  0  0  2  0  0  0  0  0  0
  159.2090  213.0740  143.1420 C   0  0  0  0  0  2  0  0  0  0  0  0
  161.7800  213.4910  144.8480 C   0  0  0  0  0  2  0  0  0  0  0  0
  158.0880  213.9920  150.8740 C   0  0  0  0  0  1  0  0  0  0  0  0
  158.6530  214.4530  149.6720 O   0  0  0  0  0  0  0  0  0  0  0  0
  162.6400  206.4870  148.6390 N   0  0  0  0  0  2  0  0  0  0  0  0
  161.0680  203.1350  147.6510 C   0  0  0  0  0  2  0  0  0  0  0  0
  161.1720  203.3280  146.1570 C   0  0  0  0  0  0  0  0  0  0  0  0
  162.4340  205.5040  146.5140 C   0  0  0  0  0  2  0  0  0  0  0  0
  161.7270  204.2540  148.5010 C   0  0  0  0  0  2  0  0  0  0  0  0
  161.7830  205.6420  147.8640 C   0  0  1  0  0  3  0  0  0  0  0  0
  161.7300  204.4130  145.6360 C   0  0  0  0  0  3  0  0  0  0  0  0
  160.4860  202.3750  145.2660 C   0  0  0  0  0  2  0  0  0  0  0  0
  159.6800  202.9580  144.3830 F   0  0  0  0  0  0  0  0  0  0  0  0
  160.4390  209.0770  154.8110 C   0  0  1  0  0  3  0  0  0  0  0  0
  161.5230  208.6130  156.0280 C   0  0  0  0  0  2  0  0  0  0  0  0
  162.4100  209.6680  157.2350 S   0  0  0  0  0  1  0  0  0  0  0  0
  158.6010  210.3780  155.6770 O   0  0  0  0  0  1  0  0  0  0  0  0
  159.7560  210.3680  154.8330 N   0  0  0  0  0  2  0  0  0  0  0  0
  1  6  2  0  0  0  0
  1  7  1  0  0  0  0
  2  5  1  0  0  0  0
  3 39  1  0  0  0  0
  4  3  2  0  0  0  0
  5  6  1  0  0  0  0
  6  4  1  0  0  0  0
  7 10  2  0  0  0  0
  8 30  1  1  0  0  0
  8  1  1  0  0  0  0
  9  2  2  0  0  0  0
  9  8  1  0  0  0  0
 10  3  1  0  0  0  0
 11 13  1  0  0  0  0
 11 12  1  1  0  0  0
 11  2  1  0  0  0  0
 13 14  1  0  0  0  0
 15 14  2  0  0  0  0
 16 14  1  6  0  0  0
 16 29  1  0  0  0  0
 17 18  1  1  0  0  0
 17 16  1  0  0  0  0
 19 17  1  0  0  0  0
 20 19  1  0  0  0  0
 22 21  1  0  0  0  0
 22 20  1  6  0  0  0
 23 27  1  0  0  0  0
 24 25  1  0  0  0  0
 24 26  1  0  0  0  0
 25 23  1  0  0  0  0
 26 22  1  0  0  0  0
 27 21  1  0  0  0  0
 29 28  1  0  0  0  0
 31 34  1  0  0  0  0
 32 31  1  0  0  0  0
 33 35  1  0  0  0  0
 35 34  1  0  0  0  0
 35 30  1  1  0  0  0
 36 32  2  0  0  0  0
 36 33  1  0  0  0  0
 37 32  1  0  0  0  0
 38 37  1  0  0  0  0
 39 43  1  0  0  0  0
 39 40  1  1  0  0  0
 40 41  1  0  0  0  0
 43 42  1  0  0  0  0
M  END
>  <MODEL>
4

>  <REMARK>
 VINA RESULT:      -7.1      3.815      7.856
  Name = 
  14 active torsions:
  status: ('A' for Active; 'I' for Inactive)
    1  A    between atoms: N_1  and  C_34
    2  A    between atoms: N_1  and  C_35
    3  A    between atoms: C_2  and  N_6
    4  A    between atoms: C_2  and  C_13
    5  A    between atoms: C_3  and  C_4
    6  A    between atoms: C_3  and  C_12
    7  A    between atoms: C_3  and  O_42
    8  A    between atoms: C_4  and  C_22
    9  A    between atoms: C_5  and  C_16
   10  A    between atoms: C_5  and  C_18
   11  A    between atoms: C_5  and  N_23
   12  A    between atoms: C_14  and  C_41
   13  A    between atoms: C_19  and  C_25
   14  A    between atoms: C_22  and  C_41
                            x       y       z     vdW  Elec       q    Type
                         _______ _______ _______ _____ _____    ______ ____

>  <TORSDO>
F 14

$$$$
=
 OpenBabel11062410183D

 43 46  0  0  1  0  0  0  0  0999 V2000
  159.4900  213.4690  146.0650 C   0  0  0  0  0  0  0  0  0  0  0  0
  161.5050  212.6000  147.9700 C   0  0  0  0  0  0  0  0  0  0  0  0
  160.3530  213.2160  143.1440 C   0  0  0  0  0  0  0  0  0  0  0  0
  161.1550  213.0380  144.1800 C   0  0  0  0  0  3  0  0  0  0  0  0
  161.9430  213.1220  146.5960 C   0  0  0  0  0  2  0  0  0  0  0  0
  160.7800  212.9270  145.6240 C   0  0  0  0  0  0  0  0  0  0  0  0
  158.4640  213.8280  145.0090 C   0  0  0  0  0  3  0  0  0  0  0  0
  159.1680  213.3160  147.4650 C   0  0  1  0  0  3  0  0  0  0  0  0
  160.2320  212.7460  148.3390 C   0  0  0  0  0  3  0  0  0  0  0  0
  158.8190  213.4820  143.5140 C   0  0  0  0  0  3  0  0  0  0  0  0
  162.5020  211.9240  148.7990 C   0  0  2  0  0  3  0  0  0  0  0  0
  163.7490  212.0070  148.1310 O   0  0  0  0  0  1  0  0  0  0  0  0
  162.1030  210.5530  148.9480 N   0  0  0  0  0  2  0  0  0  0  0  0
  161.9460  209.7860  150.1170 C   0  0  0  0  0  0  0  0  0  0  0  0
  161.9410  210.3710  151.2720 O   0  0  0  0  0  0  0  0  0  0  0  0
  161.7820  208.3380  150.0410 C   0  0  2  0  0  3  0  0  0  0  0  0
  161.5760  207.8500  148.5700 C   0  0  1  0  0  3  0  0  0  0  0  0
  162.8070  207.6060  147.9200 O   0  0  0  0  0  1  0  0  0  0  0  0
  160.5940  206.7150  148.3160 C   0  0  0  0  0  2  0  0  0  0  0  0
  161.3940  205.5380  147.7980 C   0  0  0  0  0  2  0  0  0  0  0  0
  161.4830  203.1300  147.9980 O   0  0  0  0  0  0  0  0  0  0  0  0
  161.1520  204.3780  148.5780 C   0  0  1  0  0  3  0  0  0  0  0  0
  161.1920  201.2920  149.3080 C   0  0  0  0  0  2  0  0  0  0  0  0
  161.2060  203.4790  150.8840 C   0  0  0  0  0  2  0  0  0  0  0  0
  160.6350  202.0790  150.4740 C   0  0  0  0  0  2  0  0  0  0  0  0
  160.8520  204.5120  149.8760 C   0  0  0  0  0  2  0  0  0  0  0  0
  160.7420  201.9680  148.0820 C   0  0  0  0  0  2  0  0  0  0  0  0
  161.4080  207.3190  151.9340 C   0  0  0  0  0  1  0  0  0  0  0  0
  160.7490  208.0000  150.8960 O   0  0  0  0  0  0  0  0  0  0  0  0
  157.8980  213.7020  148.0170 N   0  0  0  0  0  2  0  0  0  0  0  0
  157.8420  213.4530  151.8410 C   0  0  0  0  0  2  0  0  0  0  0  0
  156.4790  214.0740  152.0340 C   0  0  0  0  0  0  0  0  0  0  0  0
  156.1510  214.1690  149.5170 C   0  0  0  0  0  2  0  0  0  0  0  0
  158.2510  213.2300  150.3610 C   0  0  0  0  0  2  0  0  0  0  0  0
  157.6450  214.1900  149.3380 C   0  0  1  0  0  3  0  0  0  0  0  0
  155.7360  214.4520  151.0020 C   0  0  0  0  0  3  0  0  0  0  0  0
  156.0420  214.4230  153.3980 C   0  0  0  0  0  2  0  0  0  0  0  0
  156.5420  213.6260  154.3380 F   0  0  0  0  0  0  0  0  0  0  0  0
  160.9900  212.9790  141.7270 C   0  0  1  0  0  3  0  0  0  0  0  0
  160.7780  211.3380  141.3560 C   0  0  0  0  0  2  0  0  0  0  0  0
  161.0760  210.4760  139.7670 S   0  0  0  0  0  1  0  0  0  0  0  0
  162.1180  214.2940  140.0480 O   0  0  0  0  0  1  0  0  0  0  0  0
  160.8800  214.0230  140.7120 N   0  0  0  0  0  2  0  0  0  0  0  0
  1  8  1  0  0  0  0
  2  9  2  0  0  0  0
  2 11  1  0  0  0  0
  3 10  2  0  0  0  0
  3  4  1  0  0  0  0
  4  6  2  0  0  0  0
  5  2  1  0  0  0  0
  6  1  1  0  0  0  0
  6  5  1  0  0  0  0
  7  1  2  0  0  0  0
  8 30  1  1  0  0  0
  8  9  1  0  0  0  0
 10  7  1  0  0  0  0
 11 12  1  6  0  0  0
 11 13  1  0  0  0  0
 13 14  1  0  0  0  0
 14 15  2  0  0  0  0
 16 14  1  6  0  0  0
 16 29  1  0  0  0  0
 17 18  1  1  0  0  0
 17 16  1  0  0  0  0
 19 17  1  0  0  0  0
 20 19  1  0  0  0  0
 21 27  1  0  0  0  0
 21 22  1  0  0  0  0
 22 20  1  1  0  0  0
 22 26  1  0  0  0  0
 23 25  1  0  0  0  0
 25 24  1  0  0  0  0
 26 24  1  0  0  0  0
 27 23  1  0  0  0  0
 29 28  1  0  0  0  0
 31 32  1  0  0  0  0
 32 37  1  0  0  0  0
 33 36  1  0  0  0  0
 34 31  1  0  0  0  0
 35 30  1  6  0  0  0
 35 33  1  0  0  0  0
 35 34  1  0  0  0  0
 36 32  2  0  0  0  0
 37 38  1  0  0  0  0
 39 40  1  6  0  0  0
 39  3  1  0  0  0  0
 41 40  1  0  0  0  0
 42 43  1  0  0  0  0
 43 39  1  0  0  0  0
M  END
>  <MODEL>
5

>  <REMARK>
 VINA RESULT:      -7.0      3.507      8.483
  Name = 
  14 active torsions:
  status: ('A' for Active; 'I' for Inactive)
    1  A    between atoms: N_1  and  C_34
    2  A    between atoms: N_1  and  C_35
    3  A    between atoms: C_2  and  N_6
    4  A    between atoms: C_2  and  C_13
    5  A    between atoms: C_3  and  C_4
    6  A    between atoms: C_3  and  C_12
    7  A    between atoms: C_3  and  O_42
    8  A    between atoms: C_4  and  C_22
    9  A    between atoms: C_5  and  C_16
   10  A    between atoms: C_5  and  C_18
   11  A    between atoms: C_5  and  N_23
   12  A    between atoms: C_14  and  C_41
   13  A    between atoms: C_19  and  C_25
   14  A    between atoms: C_22  and  C_41
                            x       y       z     vdW  Elec       q    Type
                         _______ _______ _______ _____ _____    ______ ____

>  <TORSDO>
F 14

$$$$
=
 OpenBabel11062410183D

 43 46  0  0  1  0  0  0  0  0999 V2000
  161.7920  208.6540  150.9960 C   0  0  0  0  0  0  0  0  0  0  0  0
  162.0790  210.7040  148.9560 C   0  0  0  0  0  0  0  0  0  0  0  0
  160.7460  209.7030  153.6700 C   0  0  0  0  0  0  0  0  0  0  0  0
  161.1090  210.4690  152.6550 C   0  0  0  0  0  3  0  0  0  0  0  0
  162.1810  211.0950  150.4360 C   0  0  0  0  0  2  0  0  0  0  0  0
  161.4210  210.0510  151.2530 C   0  0  0  0  0  0  0  0  0  0  0  0
  161.5400  207.6330  152.0870 C   0  0  0  0  0  3  0  0  0  0  0  0
  162.0620  208.2980  149.6220 C   0  0  1  0  0  3  0  0  0  0  0  0
  162.0670  209.4110  148.6310 C   0  0  0  0  0  3  0  0  0  0  0  0
  160.7880  208.1300  153.3780 C   0  0  0  0  0  3  0  0  0  0  0  0
  161.9570  211.7750  147.9680 C   0  0  2  0  0  3  0  0  0  0  0  0
  162.3730  212.9820  148.5840 O   0  0  0  0  0  1  0  0  0  0  0  0
  160.5800  211.8630  147.5730 N   0  0  0  0  0  2  0  0  0  0  0  0
  159.7590  212.9960  147.4230 C   0  0  0  0  0  0  0  0  0  0  0  0
  160.2910  214.1770  147.4220 O   0  0  0  0  0  0  0  0  0  0  0  0
  158.3160  212.8540  147.2620 C   0  0  2  0  0  3  0  0  0  0  0  0
  157.8920  212.8600  145.7570 C   0  0  1  0  0  3  0  0  0  0  0  0
  156.6870  213.5700  145.5530 O   0  0  0  0  0  1  0  0  0  0  0  0
  158.9320  213.2460  144.7150 C   0  0  0  0  0  2  0  0  0  0  0  0
  159.5130  211.9600  144.1640 C   0  0  0  0  0  2  0  0  0  0  0  0
  159.8500  212.3100  141.7960 O   0  0  0  0  0  0  0  0  0  0  0  0
  160.4070  212.2240  143.0950 C   0  0  1  0  0  3  0  0  0  0  0  0
  161.2840  212.8440  140.1120 C   0  0  0  0  0  2  0  0  0  0  0  0
  162.4390  213.4850  142.4610 C   0  0  0  0  0  2  0  0  0  0  0  0
  162.4980  212.8890  141.0140 C   0  0  0  0  0  2  0  0  0  0  0  0
  161.6610  212.6020  143.3680 C   0  0  0  0  0  2  0  0  0  0  0  0
  160.3980  211.7960  140.6380 C   0  0  0  0  0  2  0  0  0  0  0  0
  157.0780  213.1300  149.0370 C   0  0  0  0  0  1  0  0  0  0  0  0
  157.7230  213.8500  148.0180 O   0  0  0  0  0  0  0  0  0  0  0  0
  162.3320  206.9490  149.2080 N   0  0  0  0  0  2  0  0  0  0  0  0
  160.7890  203.7210  150.5790 C   0  0  0  0  0  2  0  0  0  0  0  0
  160.6790  203.0050  149.2540 C   0  0  0  0  0  0  0  0  0  0  0  0
  161.8800  204.9250  148.1030 C   0  0  0  0  0  2  0  0  0  0  0  0
  161.5080  205.0950  150.5200 C   0  0  0  0  0  2  0  0  0  0  0  0
  161.4160  205.8500  149.1950 C   0  0  1  0  0  3  0  0  0  0  0  0
  161.1120  203.5590  148.1290 C   0  0  0  0  0  3  0  0  0  0  0  0
  159.9200  201.7430  149.1860 C   0  0  0  0  0  2  0  0  0  0  0  0
  160.5620  200.7700  148.5460 F   0  0  0  0  0  0  0  0  0  0  0  0
  160.1800  210.4490  154.9320 C   0  0  1  0  0  3  0  0  0  0  0  0
  160.6670  209.5620  156.2920 C   0  0  0  0  0  2  0  0  0  0  0  0
  162.3250  209.4720  157.0660 S   0  0  0  0  0  1  0  0  0  0  0  0
  158.8130  212.4280  154.7510 O   0  0  0  0  0  1  0  0  0  0  0  0
  160.1330  211.9090  154.9360 N   0  0  0  0  0  2  0  0  0  0  0  0
  1  6  2  0  0  0  0
  1  7  1  0  0  0  0
  2  5  1  0  0  0  0
  3 39  1  0  0  0  0
  4  3  2  0  0  0  0
  5  6  1  0  0  0  0
  6  4  1  0  0  0  0
  7 10  2  0  0  0  0
  8 30  1  1  0  0  0
  8  1  1  0  0  0  0
  9  2  2  0  0  0  0
  9  8  1  0  0  0  0
 10  3  1  0  0  0  0
 11 12  1  1  0  0  0
 11  2  1  0  0  0  0
 13 11  1  0  0  0  0
 14 13  1  0  0  0  0
 15 14  2  0  0  0  0
 16 14  1  6  0  0  0
 16 29  1  0  0  0  0
 17 18  1  1  0  0  0
 17 16  1  0  0  0  0
 19 17  1  0  0  0  0
 20 19  1  0  0  0  0
 21 22  1  0  0  0  0
 22 26  1  0  0  0  0
 22 20  1  1  0  0  0
 23 27  1  0  0  0  0
 23 25  1  0  0  0  0
 24 26  1  0  0  0  0
 25 24  1  0  0  0  0
 27 21  1  0  0  0  0
 29 28  1  0  0  0  0
 32 31  1  0  0  0  0
 33 36  1  0  0  0  0
 33 35  1  0  0  0  0
 34 31  1  0  0  0  0
 35 30  1  1  0  0  0
 35 34  1  0  0  0  0
 36 32  2  0  0  0  0
 37 32  1  0  0  0  0
 38 37  1  0  0  0  0
 39 43  1  0  0  0  0
 39 40  1  1  0  0  0
 40 41  1  0  0  0  0
 42 43  1  0  0  0  0
M  END
>  <MODEL>
6

>  <REMARK>
 VINA RESULT:      -6.9      3.732      8.020
  Name = 
  14 active torsions:
  status: ('A' for Active; 'I' for Inactive)
    1  A    between atoms: N_1  and  C_34
    2  A    between atoms: N_1  and  C_35
    3  A    between atoms: C_2  and  N_6
    4  A    between atoms: C_2  and  C_13
    5  A    between atoms: C_3  and  C_4
    6  A    between atoms: C_3  and  C_12
    7  A    between atoms: C_3  and  O_42
    8  A    between atoms: C_4  and  C_22
    9  A    between atoms: C_5  and  C_16
   10  A    between atoms: C_5  and  C_18
   11  A    between atoms: C_5  and  N_23
   12  A    between atoms: C_14  and  C_41
   13  A    between atoms: C_19  and  C_25
   14  A    between atoms: C_22  and  C_41
                            x       y       z     vdW  Elec       q    Type
                         _______ _______ _______ _____ _____    ______ ____

>  <TORSDO>
F 14

$$$$
=
 OpenBabel11062410183D

 43 46  0  0  1  0  0  0  0  0999 V2000
  161.9380  207.8280  150.0740 C   0  0  0  0  0  0  0  0  0  0  0  0
  161.6440  207.5890  152.9560 C   0  0  0  0  0  0  0  0  0  0  0  0
  161.3600  205.2430  148.5500 C   0  0  0  0  0  0  0  0  0  0  0  0
  161.4500  205.3320  149.8650 C   0  0  0  0  0  3  0  0  0  0  0  0
  162.0050  206.3480  152.1300 C   0  0  0  0  0  2  0  0  0  0  0  0
  161.5110  206.5710  150.7010 C   0  0  0  0  0  0  0  0  0  0  0  0
  161.9920  207.8930  148.5610 C   0  0  0  0  0  3  0  0  0  0  0  0
  161.9580  208.9990  150.9200 C   0  0  1  0  0  3  0  0  0  0  0  0
  161.6740  208.7850  152.3670 C   0  0  0  0  0  3  0  0  0  0  0  0
  161.4720  206.6350  147.7690 C   0  0  0  0  0  3  0  0  0  0  0  0
  161.2410  207.3960  154.3480 C   0  0  2  0  0  3  0  0  0  0  0  0
  159.8850  206.9840  154.3530 O   0  0  0  0  0  1  0  0  0  0  0  0
  161.3880  208.6490  155.0330 N   0  0  0  0  0  2  0  0  0  0  0  0
  161.2330  208.9490  156.3990 C   0  0  0  0  0  0  0  0  0  0  0  0
  161.1480  207.9870  157.2610 O   0  0  0  0  0  0  0  0  0  0  0  0
  161.1740  210.3340  156.8550 C   0  0  2  0  0  3  0  0  0  0  0  0
  159.7520  210.9540  156.6570 C   0  0  1  0  0  3  0  0  0  0  0  0
  159.6950  212.2920  157.1100 O   0  0  0  0  0  1  0  0  0  0  0  0
  159.0850  210.8120  155.2980 C   0  0  0  0  0  2  0  0  0  0  0  0
  159.4620  212.0320  154.4830 C   0  0  0  0  0  2  0  0  0  0  0  0
  157.2780  213.0020  154.8490 O   0  0  0  0  0  0  0  0  0  0  0  0
  158.3100  212.6580  153.9430 C   0  0  1  0  0  3  0  0  0  0  0  0
  155.4890  214.1050  153.9770 C   0  0  0  0  0  2  0  0  0  0  0  0
  157.5340  214.2650  152.2280 C   0  0  0  0  0  2  0  0  0  0  0  0
  156.0160  214.0620  152.5590 C   0  0  0  0  0  2  0  0  0  0  0  0
  158.3360  213.0980  152.6790 C   0  0  0  0  0  2  0  0  0  0  0  0
  155.9220  212.8630  154.6330 C   0  0  0  0  0  2  0  0  0  0  0  0
  163.2720  210.8890  157.0820 C   0  0  0  0  0  1  0  0  0  0  0  0
  162.1830  211.0200  156.2030 O   0  0  0  0  0  0  0  0  0  0  0  0
  162.2510  210.3140  150.4200 N   0  0  0  0  0  2  0  0  0  0  0  0
  161.8050  212.5990  147.3760 C   0  0  0  0  0  2  0  0  0  0  0  0
  160.7470  213.4900  147.9820 C   0  0  0  0  0  0  0  0  0  0  0  0
  160.9840  212.2820  150.2040 C   0  0  0  0  0  2  0  0  0  0  0  0
  162.4020  211.5440  148.3450 C   0  0  0  0  0  2  0  0  0  0  0  0
  161.4870  211.0670  149.4720 C   0  0  1  0  0  3  0  0  0  0  0  0
  160.3300  213.3210  149.2300 C   0  0  0  0  0  3  0  0  0  0  0  0
  160.0440  214.4530  147.1150 C   0  0  0  0  0  2  0  0  0  0  0  0
  160.1550  214.1810  145.8170 F   0  0  0  0  0  0  0  0  0  0  0  0
  160.9970  203.8260  147.9750 C   0  0  1  0  0  3  0  0  0  0  0  0
  161.6070  203.7590  146.3950 C   0  0  0  0  0  2  0  0  0  0  0  0
  160.8620  204.4080  144.8520 S   0  0  0  0  0  1  0  0  0  0  0  0
  159.9270  201.7730  148.6560 O   0  0  0  0  0  1  0  0  0  0  0  0
  161.0230  202.6680  148.8650 N   0  0  0  0  0  2  0  0  0  0  0  0
  1  6  1  0  0  0  0
  1  8  1  0  0  0  0
  2 11  1  0  0  0  0
  3  4  1  0  0  0  0
  4  6  2  0  0  0  0
  5  2  1  0  0  0  0
  6  5  1  0  0  0  0
  7  1  2  0  0  0  0
  8 30  1  1  0  0  0
  8  9  1  0  0  0  0
  9  2  2  0  0  0  0
 10  3  2  0  0  0  0
 10  7  1  0  0  0  0
 11 12  1  6  0  0  0
 11 13  1  0  0  0  0
 13 14  1  0  0  0  0
 14 16  1  0  0  0  0
 14 15  2  0  0  0  0
 16 29  1  6  0  0  0
 17 16  1  0  0  0  0
 17 18  1  6  0  0  0
 19 17  1  0  0  0  0
 20 19  1  0  0  0  0
 22 20  1  1  0  0  0
 22 21  1  0  0  0  0
 23 27  1  0  0  0  0
 24 25  1  0  0  0  0
 24 26  1  0  0  0  0
 25 23  1  0  0  0  0
 26 22  1  0  0  0  0
 27 21  1  0  0  0  0
 29 28  1  0  0  0  0
 31 32  1  0  0  0  0
 31 34  1  0  0  0  0
 32 36  2  0  0  0  0
 34 35  1  0  0  0  0
 35 33  1  0  0  0  0
 35 30  1  1  0  0  0
 36 33  1  0  0  0  0
 37 32  1  0  0  0  0
 38 37  1  0  0  0  0
 39 40  1  6  0  0  0
 39  3  1  0  0  0  0
 39 43  1  0  0  0  0
 41 40  1  0  0  0  0
 42 43  1  0  0  0  0
M  END
>  <MODEL>
7

>  <REMARK>
 VINA RESULT:      -6.8      3.452      6.356
  Name = 
  14 active torsions:
  status: ('A' for Active; 'I' for Inactive)
    1  A    between atoms: N_1  and  C_34
    2  A    between atoms: N_1  and  C_35
    3  A    between atoms: C_2  and  N_6
    4  A    between atoms: C_2  and  C_13
    5  A    between atoms: C_3  and  C_4
    6  A    between atoms: C_3  and  C_12
    7  A    between atoms: C_3  and  O_42
    8  A    between atoms: C_4  and  C_22
    9  A    between atoms: C_5  and  C_16
   10  A    between atoms: C_5  and  C_18
   11  A    between atoms: C_5  and  N_23
   12  A    between atoms: C_14  and  C_41
   13  A    between atoms: C_19  and  C_25
   14  A    between atoms: C_22  and  C_41
                            x       y       z     vdW  Elec       q    Type
                         _______ _______ _______ _____ _____    ______ ____

>  <TORSDO>
F 14

$$$$
=
 OpenBabel11062410183D

 43 46  0  0  1  0  0  0  0  0999 V2000
  162.0240  208.3560  150.7400 C   0  0  0  0  0  0  0  0  0  0  0  0
  161.9440  210.6050  148.9010 C   0  0  0  0  0  0  0  0  0  0  0  0
  161.0290  209.0180  153.5520 C   0  0  0  0  0  0  0  0  0  0  0  0
  161.2370  209.9130  152.6020 C   0  0  0  0  0  3  0  0  0  0  0  0
  162.0900  210.8670  150.4050 C   0  0  0  0  0  2  0  0  0  0  0  0
  161.5090  209.6670  151.1520 C   0  0  0  0  0  0  0  0  0  0  0  0
  161.9600  207.2150  151.7350 C   0  0  0  0  0  3  0  0  0  0  0  0
  162.2480  208.1650  149.3250 C   0  0  1  0  0  3  0  0  0  0  0  0
  162.0630  209.3560  148.4500 C   0  0  0  0  0  3  0  0  0  0  0  0
  161.2350  207.4960  153.1040 C   0  0  0  0  0  3  0  0  0  0  0  0
  161.6380  211.7410  148.0310 C   0  0  2  0  0  3  0  0  0  0  0  0
  162.5860  212.7600  148.2990 O   0  0  0  0  0  1  0  0  0  0  0  0
  160.3120  212.1950  148.3410 N   0  0  0  0  0  2  0  0  0  0  0  0
  159.7520  213.4810  148.2200 C   0  0  0  0  0  0  0  0  0  0  0  0
  160.3840  214.3950  147.5560 O   0  0  0  0  0  0  0  0  0  0  0  0
  158.4640  213.7920  148.8300 C   0  0  2  0  0  3  0  0  0  0  0  0
  158.6120  214.1960  150.3340 C   0  0  1  0  0  3  0  0  0  0  0  0
  157.3590  214.4530  150.9350 O   0  0  0  0  0  1  0  0  0  0  0  0
  159.4770  213.3250  151.2340 C   0  0  0  0  0  2  0  0  0  0  0  0
  158.5920  212.2190  151.7720 C   0  0  0  0  0  2  0  0  0  0  0  0
  157.8080  211.2650  153.8500 O   0  0  0  0  0  0  0  0  0  0  0  0
  158.4090  212.3520  153.1730 C   0  0  1  0  0  3  0  0  0  0  0  0
  157.6260  211.4530  156.1100 C   0  0  0  0  0  2  0  0  0  0  0  0
  159.4250  213.2610  155.2380 C   0  0  0  0  0  2  0  0  0  0  0  0
  158.2230  212.8430  156.1510 C   0  0  0  0  0  2  0  0  0  0  0  0
  159.0030  213.3640  153.8170 C   0  0  0  0  0  2  0  0  0  0  0  0
  156.8670  211.3500  154.8560 C   0  0  0  0  0  2  0  0  0  0  0  0
  157.0220  213.0080  147.3940 C   0  0  0  0  0  1  0  0  0  0  0  0
  157.6400  212.7020  148.6190 O   0  0  0  0  0  0  0  0  0  0  0  0
  162.6480  206.9030  148.7660 N   0  0  0  0  0  2  0  0  0  0  0  0
  161.1520  203.5490  147.6710 C   0  0  0  0  0  2  0  0  0  0  0  0
  161.4290  203.7100  146.1950 C   0  0  0  0  0  0  0  0  0  0  0  0
  162.6720  205.8780  146.6510 C   0  0  0  0  0  2  0  0  0  0  0  0
  161.7250  204.6780  148.5680 C   0  0  0  0  0  2  0  0  0  0  0  0
  161.8740  206.0520  147.9150 C   0  0  1  0  0  3  0  0  0  0  0  0
  162.0580  204.7770  145.7200 C   0  0  0  0  0  3  0  0  0  0  0  0
  160.8360  202.7470  145.2490 C   0  0  0  0  0  2  0  0  0  0  0  0
  160.3680  201.6470  145.8330 F   0  0  0  0  0  0  0  0  0  0  0  0
  160.4580  209.5700  154.9090 C   0  0  1  0  0  3  0  0  0  0  0  0
  159.6210  208.2950  155.6500 C   0  0  0  0  0  2  0  0  0  0  0  0
  159.9570  207.4880  157.2600 S   0  0  0  0  0  1  0  0  0  0  0  0
  162.4950  209.9900  156.1320 O   0  0  0  0  0  1  0  0  0  0  0  0
  161.2490  210.5270  155.6780 N   0  0  0  0  0  2  0  0  0  0  0  0
  1  6  2  0  0  0  0
  1  7  1  0  0  0  0
  2  5  1  0  0  0  0
  3 39  1  0  0  0  0
  4  3  2  0  0  0  0
  5  6  1  0  0  0  0
  6  4  1  0  0  0  0
  7 10  2  0  0  0  0
  8 30  1  1  0  0  0
  8  1  1  0  0  0  0
  9  2  2  0  0  0  0
  9  8  1  0  0  0  0
 10  3  1  0  0  0  0
 11 12  1  1  0  0  0
 11 13  1  0  0  0  0
 11  2  1  0  0  0  0
 14 13  1  0  0  0  0
 15 14  2  0  0  0  0
 16 14  1  1  0  0  0
 16 17  1  0  0  0  0
 17 18  1  1  0  0  0
 17 19  1  0  0  0  0
 19 20  1  0  0  0  0
 21 27  1  0  0  0  0
 22 20  1  6  0  0  0
 22 26  1  0  0  0  0
 22 21  1  0  0  0  0
 23 25  1  0  0  0  0
 24 25  1  0  0  0  0
 26 24  1  0  0  0  0
 27 23  1  0  0  0  0
 28 29  1  0  0  0  0
 29 16  1  0  0  0  0
 31 34  1  0  0  0  0
 32 31  1  0  0  0  0
 33 35  1  0  0  0  0
 35 34  1  0  0  0  0
 35 30  1  1  0  0  0
 36 32  2  0  0  0  0
 36 33  1  0  0  0  0
 37 38  1  0  0  0  0
 37 32  1  0  0  0  0
 39 40  1  1  0  0  0
 39 43  1  0  0  0  0
 40 41  1  0  0  0  0
 43 42  1  0  0  0  0
M  END
>  <MODEL>
8

>  <REMARK>
 VINA RESULT:      -6.8      3.627      6.730
  Name = 
  14 active torsions:
  status: ('A' for Active; 'I' for Inactive)
    1  A    between atoms: N_1  and  C_34
    2  A    between atoms: N_1  and  C_35
    3  A    between atoms: C_2  and  N_6
    4  A    between atoms: C_2  and  C_13
    5  A    between atoms: C_3  and  C_4
    6  A    between atoms: C_3  and  C_12
    7  A    between atoms: C_3  and  O_42
    8  A    between atoms: C_4  and  C_22
    9  A    between atoms: C_5  and  C_16
   10  A    between atoms: C_5  and  C_18
   11  A    between atoms: C_5  and  N_23
   12  A    between atoms: C_14  and  C_41
   13  A    between atoms: C_19  and  C_25
   14  A    between atoms: C_22  and  C_41
                            x       y       z     vdW  Elec       q    Type
                         _______ _______ _______ _____ _____    ______ ____

>  <TORSDO>
F 14

$$$$
=
 OpenBabel11062410183D

 43 46  0  0  1  0  0  0  0  0999 V2000
  161.5150  208.6260  151.5080 C   0  0  0  0  0  0  0  0  0  0  0  0
  162.2130  210.2810  149.2230 C   0  0  0  0  0  0  0  0  0  0  0  0
  160.7130  210.2160  153.9920 C   0  0  0  0  0  0  0  0  0  0  0  0
  161.2230  210.7480  152.8950 C   0  0  0  0  0  3  0  0  0  0  0  0
  162.3960  210.8380  150.6410 C   0  0  0  0  0  2  0  0  0  0  0  0
  161.4400  210.0910  151.5690 C   0  0  0  0  0  0  0  0  0  0  0  0
  161.0600  207.8340  152.7180 C   0  0  0  0  0  3  0  0  0  0  0  0
  161.7020  208.0420  150.2010 C   0  0  1  0  0  3  0  0  0  0  0  0
  161.9340  208.9860  149.0710 C   0  0  0  0  0  3  0  0  0  0  0  0
  160.4290  208.6430  153.9120 C   0  0  0  0  0  3  0  0  0  0  0  0
  162.3120  211.2120  148.1000 C   0  0  2  0  0  3  0  0  0  0  0  0
  163.0460  212.3430  148.5380 O   0  0  0  0  0  1  0  0  0  0  0  0
  160.9820  211.5940  147.7180 N   0  0  0  0  0  2  0  0  0  0  0  0
  160.4420  212.8760  147.5070 C   0  0  0  0  0  0  0  0  0  0  0  0
  161.2320  213.8980  147.4230 O   0  0  0  0  0  0  0  0  0  0  0  0
  159.0010  213.0640  147.3750 C   0  0  2  0  0  3  0  0  0  0  0  0
  158.4750  212.5940  145.9790 C   0  0  1  0  0  3  0  0  0  0  0  0
  157.1190  212.1980  146.0350 O   0  0  0  0  0  1  0  0  0  0  0  0
  158.7330  213.4840  144.7730 C   0  0  0  0  0  2  0  0  0  0  0  0
  160.0640  213.0660  144.1830 C   0  0  0  0  0  2  0  0  0  0  0  0
  160.4670  211.5390  142.3530 O   0  0  0  0  0  0  0  0  0  0  0  0
  159.9370  212.7730  142.8010 C   0  0  1  0  0  3  0  0  0  0  0  0
  160.1540  211.0390  140.1550 C   0  0  0  0  0  2  0  0  0  0  0  0
  158.4410  213.0040  140.8430 C   0  0  0  0  0  2  0  0  0  0  0  0
  159.4540  212.3450  139.8470 C   0  0  0  0  0  2  0  0  0  0  0  0
  159.1440  213.5350  142.0400 C   0  0  0  0  0  2  0  0  0  0  0  0
  161.1660  211.3280  141.1820 C   0  0  0  0  0  2  0  0  0  0  0  0
  158.1590  214.3340  148.9360 C   0  0  0  0  0  1  0  0  0  0  0  0
  158.7370  214.3930  147.6570 O   0  0  0  0  0  0  0  0  0  0  0  0
  161.6880  206.6230  149.9750 N   0  0  0  0  0  2  0  0  0  0  0  0
  161.0490  203.5250  147.8100 C   0  0  0  0  0  2  0  0  0  0  0  0
  161.5770  204.1040  146.5190 C   0  0  0  0  0  0  0  0  0  0  0  0
  162.3060  206.2070  147.7460 C   0  0  0  0  0  2  0  0  0  0  0  0
  161.2280  204.4360  149.0540 C   0  0  0  0  0  2  0  0  0  0  0  0
  161.2570  205.9410  148.7920 C   0  0  1  0  0  3  0  0  0  0  0  0
  162.0900  205.3270  146.4660 C   0  0  0  0  0  3  0  0  0  0  0  0
  161.3600  203.3630  145.2640 C   0  0  0  0  0  2  0  0  0  0  0  0
  160.4550  202.3930  145.3680 F   0  0  0  0  0  0  0  0  0  0  0  0
  160.3160  211.2250  155.1300 C   0  0  1  0  0  3  0  0  0  0  0  0
  158.7410  211.7560  154.7950 C   0  0  0  0  0  2  0  0  0  0  0  0
  157.1490  211.0440  155.3580 S   0  0  0  0  0  1  0  0  0  0  0  0
  162.0310  210.2930  156.5480 O   0  0  0  0  0  1  0  0  0  0  0  0
  160.7760  210.9780  156.4940 N   0  0  0  0  0  2  0  0  0  0  0  0
  1  6  2  0  0  0  0
  1  7  1  0  0  0  0
  2  5  1  0  0  0  0
  3 39  1  0  0  0  0
  4  3  2  0  0  0  0
  5  6  1  0  0  0  0
  6  4  1  0  0  0  0
  7 10  2  0  0  0  0
  8 30  1  1  0  0  0
  8  1  1  0  0  0  0
  9  2  2  0  0  0  0
  9  8  1  0  0  0  0
 10  3  1  0  0  0  0
 11 12  1  1  0  0  0
 11  2  1  0  0  0  0
 13 11  1  0  0  0  0
 14 13  1  0  0  0  0
 15 14  2  0  0  0  0
 16 14  1  6  0  0  0
 16 29  1  0  0  0  0
 17 18  1  1  0  0  0
 17 16  1  0  0  0  0
 19 17  1  0  0  0  0
 20 19  1  0  0  0  0
 21 22  1  0  0  0  0
 22 20  1  1  0  0  0
 23 27  1  0  0  0  0
 24 26  1  0  0  0  0
 25 23  1  0  0  0  0
 25 24  1  0  0  0  0
 26 22  1  0  0  0  0
 27 21  1  0  0  0  0
 29 28  1  0  0  0  0
 31 34  1  0  0  0  0
 32 31  1  0  0  0  0
 33 35  1  0  0  0  0
 35 34  1  0  0  0  0
 35 30  1  1  0  0  0
 36 32  2  0  0  0  0
 36 33  1  0  0  0  0
 37 38  1  0  0  0  0
 37 32  1  0  0  0  0
 39 40  1  1  0  0  0
 39 43  1  0  0  0  0
 40 41  1  0  0  0  0
 43 42  1  0  0  0  0
M  END
>  <MODEL>
9

>  <REMARK>
 VINA RESULT:      -6.6      3.910      8.456
  Name = 
  14 active torsions:
  status: ('A' for Active; 'I' for Inactive)
    1  A    between atoms: N_1  and  C_34
    2  A    between atoms: N_1  and  C_35
    3  A    between atoms: C_2  and  N_6
    4  A    between atoms: C_2  and  C_13
    5  A    between atoms: C_3  and  C_4
    6  A    between atoms: C_3  and  C_12
    7  A    between atoms: C_3  and  O_42
    8  A    between atoms: C_4  and  C_22
    9  A    between atoms: C_5  and  C_16
   10  A    between atoms: C_5  and  C_18
   11  A    between atoms: C_5  and  N_23
   12  A    between atoms: C_14  and  C_41
   13  A    between atoms: C_19  and  C_25
   14  A    between atoms: C_22  and  C_41
                            x       y       z     vdW  Elec       q    Type
                         _______ _______ _______ _____ _____    ______ ____

>  <TORSDO>
F 14

$$$$
