=
 OpenBabel11062409243D

 37 40  0  0  1  0  0  0  0  0999 V2000
  161.1930  209.5370  150.6320 C   0  0  2  0  0  3  0  0  0  0  0  0
  161.7790  208.4980  148.5540 O   0  0  0  0  0  0  0  0  0  0  0  0
  161.0480  207.4970  149.2200 C   0  0  2  0  0  3  0  0  0  0  0  0
  161.9680  208.4070  149.9490 C   0  0  2  0  0  3  0  0  0  0  0  0
  161.6560  206.1040  148.9670 C   0  0  1  0  0  3  0  0  0  0  0  0
  161.1430  204.9680  149.8610 C   0  0  0  0  0  1  0  0  0  0  0  0
  161.6710  205.7450  147.4780 C   0  0  2  0  0  3  0  0  0  0  0  0
  160.5970  206.4960  146.6970 C   0  0  0  0  0  1  0  0  0  0  0  0
  161.5160  204.2420  147.2930 C   0  0  0  0  0  2  0  0  0  0  0  0
  161.3950  203.8850  145.8440 C   0  0  0  0  0  3  0  0  0  0  0  0
  161.2370  202.7220  145.5030 O   0  0  0  0  0  0  0  0  0  0  0  0
  163.4770  210.7110  150.7420 C   0  0  0  0  0  1  0  0  0  0  0  0
  161.9870  210.8450  150.4700 C   0  0  1  0  0  3  0  0  0  0  0  0
  161.6070  211.6920  149.2320 C   0  0  1  0  0  3  0  0  0  0  0  0
  159.5230  212.8380  149.6710 O   0  0  0  0  0  0  0  0  0  0  0  0
  160.8800  213.0190  149.5080 C   0  0  0  0  0  3  0  0  0  0  0  0
  159.9860  213.2940  148.4960 O   0  0  0  0  0  0  0  0  0  0  0  0
  162.6910  211.8250  148.1600 C   0  0  0  0  0  2  0  0  0  0  0  0
  162.5110  212.8810  146.0640 O   0  0  0  0  0  0  0  0  0  0  0  0
  162.4800  213.0120  147.2760 C   0  0  0  0  0  3  0  0  0  0  0  0
  160.8480  209.1960  152.1060 C   0  0  1  0  0  3  0  0  0  0  0  0
  161.4990  210.0180  154.8690 C   0  0  1  0  0  3  0  0  0  0  0  0
  159.9140  209.6990  156.8490 C   0  0  0  0  0  2  0  0  0  0  0  0
  159.1840  211.0380  154.9600 O   0  0  0  0  0  0  0  0  0  0  0  0
  161.3340  210.0840  156.4010 C   0  0  2  0  0  3  0  0  0  0  0  0
  159.8740  210.2080  152.7480 C   0  0  1  0  0  3  0  0  0  0  0  0
  160.2800  210.6640  154.1540 C   0  0  2  0  0  0  0  0  0  0  0  0
  159.5840  212.5750  152.8720 O   0  0  0  0  0  1  0  0  0  0  0  0
  158.8620  209.9200  155.7510 C   0  0  0  0  0  2  0  0  0  0  0  0
  162.8630  210.5250  154.4040 C   0  0  0  0  0  1  0  0  0  0  0  0
  160.5440  211.5640  152.9570 C   0  0  2  0  0  3  0  0  0  0  0  0
  163.0510  211.6860  157.2540 O   0  0  0  0  0  1  0  0  0  0  0  0
  160.8420  212.2890  157.2230 O   0  0  0  0  0  0  0  0  0  0  0  0
  161.7170  211.4150  156.9810 C   0  0  0  0  0  0  0  0  0  0  0  0
  160.4250  207.8540  152.2810 O   0  0  0  0  0  0  0  0  0  0  0  0
  161.0590  207.3050  153.4100 C   0  0  0  0  0  2  0  0  0  0  0  0
  161.9000  206.1180  152.9880 C   0  0  0  0  0  1  0  0  0  0  0  0
  1 13  1  1  0  0  0
  1 21  1  0  0  0  0
  2  3  1  0  0  0  0
  2  4  1  0  0  0  0
  3  5  1  6  0  0  0
  3  4  1  0  0  0  0
  4  1  1  1  0  0  0
  5  6  1  1  0  0  0
  7  8  1  6  0  0  0
  7  5  1  0  0  0  0
  9  7  1  0  0  0  0
 10  9  1  0  0  0  0
 11 10  2  0  0  0  0
 13 12  1  6  0  0  0
 14 18  1  1  0  0  0
 14 16  1  0  0  0  0
 14 13  1  0  0  0  0
 16 15  1  0  0  0  0
 17 16  1  0  0  0  0
 17 15  1  0  0  0  0
 19 20  2  0  0  0  0
 20 18  1  0  0  0  0
 21 35  1  6  0  0  0
 22 30  1  1  0  0  0
 22 25  1  0  0  0  0
 24 29  1  0  0  0  0
 25 23  1  0  0  0  0
 25 34  1  6  0  0  0
 26 21  1  6  0  0  0
 26 31  1  0  0  0  0
 26 27  1  0  0  0  0
 27 22  1  0  0  0  0
 27 24  1  1  0  0  0
 29 23  1  0  0  0  0
 31 28  1  1  0  0  0
 31 27  1  0  0  0  0
 34 33  2  0  0  0  0
 34 32  1  0  0  0  0
 35 36  1  0  0  0  0
 37 36  1  0  0  0  0
M  END
>  <MODEL>
1

>  <REMARK>
 VINA RESULT:      -4.0      0.000      0.000
  Name = 
  15 active torsions:
  status: ('A' for Active; 'I' for Inactive)
    1  A    between atoms: C_1  and  C_5
    2  A    between atoms: C_1  and  C_23
    3  A    between atoms: C_5  and  C_26
    4  A    between atoms: C_8  and  C_19
    5  A    between atoms: C_9  and  C_13
    6  A    between atoms: C_9  and  C_16
    7  A    between atoms: C_9  and  C_30
    8  A    between atoms: C_10  and  C_29
    9  A    between atoms: C_11  and  C_26
   10  A    between atoms: C_13  and  C_20
   11  A    between atoms: C_16  and  C_24
   12  A    between atoms: C_20  and  C_25
   13  A    between atoms: C_20  and  C_29
   14  A    between atoms: C_27  and  O_33
   15  A    between atoms: C_29  and  O_33
                            x       y       z     vdW  Elec       q    Type
                         _______ _______ _______ _____ _____    ______ ____

>  <TORSDO>
F 15

$$$$
=
 OpenBabel11062409243D

 37 40  0  0  1  0  0  0  0  0999 V2000
  161.3410  210.3370  153.5860 C   0  0  2  0  0  3  0  0  0  0  0  0
  162.6790  209.0610  152.0620 O   0  0  0  0  0  0  0  0  0  0  0  0
  162.1000  210.0440  151.2370 C   0  0  2  0  0  3  0  0  0  0  0  0
  161.3480  209.4220  152.3580 C   0  0  2  0  0  3  0  0  0  0  0  0
  161.7190  209.4620  149.8630 C   0  0  1  0  0  3  0  0  0  0  0  0
  162.0810  210.3170  148.6420 C   0  0  0  0  0  1  0  0  0  0  0  0
  162.1400  207.9960  149.7240 C   0  0  2  0  0  3  0  0  0  0  0  0
  162.8330  207.7220  148.3920 C   0  0  0  0  0  1  0  0  0  0  0  0
  160.9370  207.0790  149.9000 C   0  0  0  0  0  2  0  0  0  0  0  0
  160.8880  206.0380  148.8270 C   0  0  0  0  0  3  0  0  0  0  0  0
  160.6310  204.8750  149.1000 O   0  0  0  0  0  0  0  0  0  0  0  0
  162.3370  210.4510  155.9540 C   0  0  0  0  0  1  0  0  0  0  0  0
  161.9630  209.5740  154.7690 C   0  0  1  0  0  3  0  0  0  0  0  0
  161.2710  208.2350  155.1210 C   0  0  1  0  0  3  0  0  0  0  0  0
  160.3620  207.0050  156.9950 O   0  0  0  0  0  0  0  0  0  0  0  0
  160.3780  208.2350  156.3740 C   0  0  0  0  0  3  0  0  0  0  0  0
  159.3300  207.3560  156.2130 O   0  0  0  0  0  0  0  0  0  0  0  0
  160.6410  207.4840  153.9470 C   0  0  0  0  0  2  0  0  0  0  0  0
  160.7700  205.3740  152.9110 O   0  0  0  0  0  0  0  0  0  0  0  0
  161.2380  206.1280  153.7470 C   0  0  0  0  0  3  0  0  0  0  0  0
  159.9260  210.9000  153.8830 C   0  0  1  0  0  3  0  0  0  0  0  0
  157.3320  211.7570  155.0090 C   0  0  1  0  0  3  0  0  0  0  0  0
  156.2480  214.0160  154.5020 C   0  0  0  0  0  2  0  0  0  0  0  0
  158.4490  213.9690  155.5280 O   0  0  0  0  0  0  0  0  0  0  0  0
  156.0680  212.6300  155.1430 C   0  0  2  0  0  3  0  0  0  0  0  0
  159.9560  212.2030  154.7110 C   0  0  1  0  0  3  0  0  0  0  0  0
  158.6080  212.5800  155.3360 C   0  0  2  0  0  0  0  0  0  0  0  0
  160.3480  212.8740  156.9690 O   0  0  0  0  0  1  0  0  0  0  0  0
  157.7210  214.4490  154.4240 C   0  0  0  0  0  2  0  0  0  0  0  0
  157.2100  210.4300  155.7550 C   0  0  0  0  0  1  0  0  0  0  0  0
  159.6850  211.9250  156.1880 C   0  0  2  0  0  3  0  0  0  0  0  0
  154.7620  211.8050  157.1060 O   0  0  0  0  0  0  0  0  0  0  0  0
  155.9430  213.7600  157.2610 O   0  0  0  0  0  1  0  0  0  0  0  0
  155.5940  212.7730  156.5610 C   0  0  0  0  0  0  0  0  0  0  0  0
  159.1210  211.0170  152.7210 O   0  0  0  0  0  0  0  0  0  0  0  0
  159.4950  212.1670  152.0040 C   0  0  0  0  0  2  0  0  0  0  0  0
  158.2730  212.7660  151.3400 C   0  0  0  0  0  1  0  0  0  0  0  0
  1 21  1  1  0  0  0
  1 13  1  0  0  0  0
  2  4  1  0  0  0  0
  3  5  1  6  0  0  0
  3  2  1  0  0  0  0
  3  4  1  0  0  0  0
  4  1  1  1  0  0  0
  5  6  1  6  0  0  0
  7  8  1  6  0  0  0
  7  5  1  0  0  0  0
  7  9  1  0  0  0  0
 10 11  2  0  0  0  0
 10  9  1  0  0  0  0
 13 14  1  0  0  0  0
 13 12  1  1  0  0  0
 14 18  1  6  0  0  0
 14 16  1  0  0  0  0
 16 15  1  0  0  0  0
 17 16  1  0  0  0  0
 17 15  1  0  0  0  0
 19 20  2  0  0  0  0
 20 18  1  0  0  0  0
 21 35  1  6  0  0  0
 22 25  1  0  0  0  0
 22 27  1  0  0  0  0
 22 30  1  1  0  0  0
 23 25  1  0  0  0  0
 25 34  1  1  0  0  0
 26 21  1  6  0  0  0
 26 27  1  0  0  0  0
 26 31  1  0  0  0  0
 27 24  1  1  0  0  0
 27 31  1  0  0  0  0
 29 23  1  0  0  0  0
 29 24  1  0  0  0  0
 31 28  1  1  0  0  0
 34 32  2  0  0  0  0
 34 33  1  0  0  0  0
 36 35  1  0  0  0  0
 37 36  1  0  0  0  0
M  END
>  <MODEL>
2

>  <REMARK>
 VINA RESULT:      -4.0      2.657      5.697
  Name = 
  15 active torsions:
  status: ('A' for Active; 'I' for Inactive)
    1  A    between atoms: C_1  and  C_5
    2  A    between atoms: C_1  and  C_23
    3  A    between atoms: C_5  and  C_26
    4  A    between atoms: C_8  and  C_19
    5  A    between atoms: C_9  and  C_13
    6  A    between atoms: C_9  and  C_16
    7  A    between atoms: C_9  and  C_30
    8  A    between atoms: C_10  and  C_29
    9  A    between atoms: C_11  and  C_26
   10  A    between atoms: C_13  and  C_20
   11  A    between atoms: C_16  and  C_24
   12  A    between atoms: C_20  and  C_25
   13  A    between atoms: C_20  and  C_29
   14  A    between atoms: C_27  and  O_33
   15  A    between atoms: C_29  and  O_33
                            x       y       z     vdW  Elec       q    Type
                         _______ _______ _______ _____ _____    ______ ____

>  <TORSDO>
F 15

$$$$
=
 OpenBabel11062409243D

 37 40  0  0  1  0  0  0  0  0999 V2000
  162.0200  209.0370  150.8600 C   0  0  2  0  0  3  0  0  0  0  0  0
  162.0630  209.8310  148.6000 O   0  0  0  0  0  0  0  0  0  0  0  0
  162.0580  211.0170  149.3580 C   0  0  2  0  0  3  0  0  0  0  0  0
  161.2800  209.8210  149.7730 C   0  0  2  0  0  3  0  0  0  0  0  0
  161.1870  212.0980  148.6910 C   0  0  1  0  0  3  0  0  0  0  0  0
  161.0840  213.4370  149.4330 C   0  0  0  0  0  1  0  0  0  0  0  0
  161.5040  212.2530  147.2000 C   0  0  2  0  0  3  0  0  0  0  0  0
  162.8800  212.8680  146.9680 C   0  0  0  0  0  1  0  0  0  0  0  0
  160.4250  213.0770  146.5110 C   0  0  0  0  0  2  0  0  0  0  0  0
  159.8500  212.3440  145.3390 C   0  0  0  0  0  3  0  0  0  0  0  0
  160.4880  212.2340  144.3030 O   0  0  0  0  0  0  0  0  0  0  0  0
  163.0260  206.7140  151.3130 C   0  0  0  0  0  1  0  0  0  0  0  0
  162.4010  207.6570  150.2960 C   0  0  1  0  0  3  0  0  0  0  0  0
  161.3520  207.0220  149.3530 C   0  0  1  0  0  3  0  0  0  0  0  0
  161.2150  207.1820  146.9430 O   0  0  0  0  0  0  0  0  0  0  0  0
  161.8630  206.5480  147.9810 C   0  0  0  0  0  3  0  0  0  0  0  0
  160.8470  205.9360  147.2790 O   0  0  0  0  0  0  0  0  0  0  0  0
  160.3930  206.0230  150.0040 C   0  0  0  0  0  2  0  0  0  0  0  0
  160.8010  203.9080  150.9540 O   0  0  0  0  0  0  0  0  0  0  0  0
  160.9170  204.6230  149.9730 C   0  0  0  0  0  3  0  0  0  0  0  0
  161.2080  208.9670  152.1810 C   0  0  1  0  0  3  0  0  0  0  0  0
  161.0780  210.2590  154.8350 C   0  0  1  0  0  3  0  0  0  0  0  0
  158.9570  210.3540  156.2580 C   0  0  0  0  0  2  0  0  0  0  0  0
  158.9340  211.3480  154.0420 O   0  0  0  0  0  0  0  0  0  0  0  0
  160.4730  210.6090  156.2090 C   0  0  2  0  0  3  0  0  0  0  0  0
  160.1760  210.1080  152.3170 C   0  0  1  0  0  3  0  0  0  0  0  0
  160.1850  210.8000  153.6850 C   0  0  2  0  0  0  0  0  0  0  0  0
  160.0640  212.4650  151.9550 O   0  0  0  0  0  1  0  0  0  0  0  0
  158.3000  210.4030  154.8700 C   0  0  0  0  0  2  0  0  0  0  0  0
  162.5560  210.6320  154.7340 C   0  0  0  0  0  1  0  0  0  0  0  0
  160.8660  211.4580  152.4950 C   0  0  2  0  0  3  0  0  0  0  0  0
  161.9940  212.2900  157.2590 O   0  0  0  0  0  1  0  0  0  0  0  0
  159.9410  212.9370  156.4780 O   0  0  0  0  0  0  0  0  0  0  0  0
  160.7760  212.0110  156.6520 C   0  0  0  0  0  0  0  0  0  0  0  0
  160.6360  207.6900  152.4130 O   0  0  0  0  0  0  0  0  0  0  0  0
  160.8970  207.2920  153.7360 C   0  0  0  0  0  2  0  0  0  0  0  0
  160.8340  205.7820  153.8300 C   0  0  0  0  0  1  0  0  0  0  0  0
  1 13  1  6  0  0  0
  1 21  1  0  0  0  0
  2  3  1  0  0  0  0
  2  4  1  0  0  0  0
  3  5  1  6  0  0  0
  3  4  1  0  0  0  0
  4  1  1  1  0  0  0
  5  6  1  1  0  0  0
  7  8  1  1  0  0  0
  7  5  1  0  0  0  0
  9  7  1  0  0  0  0
 10  9  1  0  0  0  0
 11 10  2  0  0  0  0
 13 12  1  1  0  0  0
 14 18  1  1  0  0  0
 14 13  1  0  0  0  0
 15 17  1  0  0  0  0
 15 16  1  0  0  0  0
 16 14  1  0  0  0  0
 17 16  1  0  0  0  0
 20 18  1  0  0  0  0
 20 19  2  0  0  0  0
 21 35  1  6  0  0  0
 22 30  1  1  0  0  0
 22 25  1  0  0  0  0
 24 29  1  0  0  0  0
 25 23  1  0  0  0  0
 25 34  1  6  0  0  0
 26 21  1  1  0  0  0
 26 31  1  0  0  0  0
 26 27  1  0  0  0  0
 27 24  1  1  0  0  0
 27 22  1  0  0  0  0
 29 23  1  0  0  0  0
 31 28  1  6  0  0  0
 31 27  1  0  0  0  0
 33 34  2  0  0  0  0
 34 32  1  0  0  0  0
 35 36  1  0  0  0  0
 36 37  1  0  0  0  0
M  END
>  <MODEL>
3

>  <REMARK>
 VINA RESULT:      -3.9      1.547      4.928
  Name = 
  15 active torsions:
  status: ('A' for Active; 'I' for Inactive)
    1  A    between atoms: C_1  and  C_5
    2  A    between atoms: C_1  and  C_23
    3  A    between atoms: C_5  and  C_26
    4  A    between atoms: C_8  and  C_19
    5  A    between atoms: C_9  and  C_13
    6  A    between atoms: C_9  and  C_16
    7  A    between atoms: C_9  and  C_30
    8  A    between atoms: C_10  and  C_29
    9  A    between atoms: C_11  and  C_26
   10  A    between atoms: C_13  and  C_20
   11  A    between atoms: C_16  and  C_24
   12  A    between atoms: C_20  and  C_25
   13  A    between atoms: C_20  and  C_29
   14  A    between atoms: C_27  and  O_33
   15  A    between atoms: C_29  and  O_33
                            x       y       z     vdW  Elec       q    Type
                         _______ _______ _______ _____ _____    ______ ____

>  <TORSDO>
F 15

$$$$
=
 OpenBabel11062409243D

 37 40  0  0  1  0  0  0  0  0999 V2000
  160.8150  209.0610  152.4360 C   0  0  2  0  0  3  0  0  0  0  0  0
  162.2650  210.7330  151.5160 O   0  0  0  0  0  0  0  0  0  0  0  0
  161.4720  210.3530  150.4170 C   0  0  2  0  0  3  0  0  0  0  0  0
  161.9280  209.3660  151.4290 C   0  0  2  0  0  3  0  0  0  0  0  0
  162.3040  210.3120  149.1210 C   0  0  1  0  0  3  0  0  0  0  0  0
  162.2330  209.0110  148.3120 C   0  0  0  0  0  1  0  0  0  0  0  0
  162.1040  211.5690  148.2690 C   0  0  2  0  0  3  0  0  0  0  0  0
  163.4260  212.2530  147.9360 C   0  0  0  0  0  1  0  0  0  0  0  0
  161.1590  212.5390  148.9670 C   0  0  0  0  0  2  0  0  0  0  0  0
  160.2040  213.1580  147.9950 C   0  0  0  0  0  3  0  0  0  0  0  0
  159.7690  212.5110  147.0550 O   0  0  0  0  0  0  0  0  0  0  0  0
  162.6050  210.1440  153.9310 C   0  0  0  0  0  1  0  0  0  0  0  0
  161.1380  209.7810  153.7570 C   0  0  1  0  0  3  0  0  0  0  0  0
  160.1250  210.8750  154.1710 C   0  0  1  0  0  3  0  0  0  0  0  0
  159.6450  212.5900  152.5350 O   0  0  0  0  0  0  0  0  0  0  0  0
  159.1950  211.4000  153.0640 C   0  0  0  0  0  3  0  0  0  0  0  0
  158.6490  212.6100  153.4330 O   0  0  0  0  0  0  0  0  0  0  0  0
  159.3940  210.6370  155.4930 C   0  0  0  0  0  2  0  0  0  0  0  0
  160.9890  211.9360  156.6400 O   0  0  0  0  0  0  0  0  0  0  0  0
  160.2350  210.9780  156.6820 C   0  0  0  0  0  3  0  0  0  0  0  0
  160.5810  207.5360  152.5990 C   0  0  1  0  0  3  0  0  0  0  0  0
  160.4060  205.3550  150.6130 C   0  0  1  0  0  3  0  0  0  0  0  0
  160.8340  202.8970  151.1710 C   0  0  0  0  0  2  0  0  0  0  0  0
  162.6040  204.5170  151.5490 O   0  0  0  0  0  0  0  0  0  0  0  0
  160.3290  203.8970  150.1160 C   0  0  2  0  0  3  0  0  0  0  0  0
  161.8670  206.7030  152.4070 C   0  0  1  0  0  3  0  0  0  0  0  0
  161.7610  205.6260  151.3220 C   0  0  2  0  0  0  0  0  0  0  0  0
  163.8610  206.7740  151.0960 O   0  0  0  0  0  1  0  0  0  0  0  0
  161.8160  203.5300  152.1690 C   0  0  0  0  0  2  0  0  0  0  0  0
  160.0320  206.3630  149.5280 C   0  0  0  0  0  1  0  0  0  0  0  0
  162.4760  206.9360  151.0270 C   0  0  2  0  0  3  0  0  0  0  0  0
  160.9240  202.4520  148.1670 O   0  0  0  0  0  0  0  0  0  0  0  0
  161.7380  204.5880  148.2960 O   0  0  0  0  0  1  0  0  0  0  0  0
  161.0390  203.6760  148.8120 C   0  0  0  0  0  0  0  0  0  0  0  0
  159.8960  207.2050  153.7960 O   0  0  0  0  0  0  0  0  0  0  0  0
  160.8120  206.7030  154.7370 C   0  0  0  0  0  2  0  0  0  0  0  0
  160.3790  207.1140  156.1290 C   0  0  0  0  0  1  0  0  0  0  0  0
  1 21  1  1  0  0  0
  1 13  1  0  0  0  0
  3  5  1  6  0  0  0
  3  4  1  0  0  0  0
  3  2  1  0  0  0  0
  4  2  1  0  0  0  0
  4  1  1  1  0  0  0
  5  6  1  6  0  0  0
  7  8  1  1  0  0  0
  7  9  1  0  0  0  0
  7  5  1  0  0  0  0
 10  9  1  0  0  0  0
 11 10  2  0  0  0  0
 13 12  1  6  0  0  0
 13 14  1  0  0  0  0
 14 18  1  1  0  0  0
 15 16  1  0  0  0  0
 15 17  1  0  0  0  0
 16 17  1  0  0  0  0
 16 14  1  0  0  0  0
 18 20  1  0  0  0  0
 19 20  2  0  0  0  0
 21 35  1  1  0  0  0
 22 30  1  6  0  0  0
 22 27  1  0  0  0  0
 23 29  1  0  0  0  0
 24 29  1  0  0  0  0
 25 34  1  6  0  0  0
 25 22  1  0  0  0  0
 25 23  1  0  0  0  0
 26 21  1  6  0  0  0
 27 24  1  1  0  0  0
 27 26  1  0  0  0  0
 31 28  1  1  0  0  0
 31 27  1  0  0  0  0
 31 26  1  0  0  0  0
 32 34  2  0  0  0  0
 33 34  1  0  0  0  0
 35 36  1  0  0  0  0
 36 37  1  0  0  0  0
M  END
>  <MODEL>
4

>  <REMARK>
 VINA RESULT:      -3.4      1.849      6.909
  Name = 
  15 active torsions:
  status: ('A' for Active; 'I' for Inactive)
    1  A    between atoms: C_1  and  C_5
    2  A    between atoms: C_1  and  C_23
    3  A    between atoms: C_5  and  C_26
    4  A    between atoms: C_8  and  C_19
    5  A    between atoms: C_9  and  C_13
    6  A    between atoms: C_9  and  C_16
    7  A    between atoms: C_9  and  C_30
    8  A    between atoms: C_10  and  C_29
    9  A    between atoms: C_11  and  C_26
   10  A    between atoms: C_13  and  C_20
   11  A    between atoms: C_16  and  C_24
   12  A    between atoms: C_20  and  C_25
   13  A    between atoms: C_20  and  C_29
   14  A    between atoms: C_27  and  O_33
   15  A    between atoms: C_29  and  O_33
                            x       y       z     vdW  Elec       q    Type
                         _______ _______ _______ _____ _____    ______ ____

>  <TORSDO>
F 15

$$$$
=
 OpenBabel11062409243D

 37 40  0  0  1  0  0  0  0  0999 V2000
  161.1480  210.9490  153.0080 C   0  0  2  0  0  3  0  0  0  0  0  0
  162.6800  209.8700  151.5150 O   0  0  0  0  0  0  0  0  0  0  0  0
  162.3800  211.0760  150.8530 C   0  0  2  0  0  3  0  0  0  0  0  0
  161.3510  210.3300  151.6230 C   0  0  2  0  0  3  0  0  0  0  0  0
  162.2660  210.8600  149.3320 C   0  0  1  0  0  3  0  0  0  0  0  0
  161.5440  209.5840  148.8820 C   0  0  0  0  0  1  0  0  0  0  0  0
  161.7820  212.1200  148.6070 C   0  0  2  0  0  3  0  0  0  0  0  0
  161.2030  213.1500  149.5720 C   0  0  0  0  0  1  0  0  0  0  0  0
  160.7630  211.7570  147.5350 C   0  0  0  0  0  2  0  0  0  0  0  0
  160.9440  212.5960  146.3100 C   0  0  0  0  0  3  0  0  0  0  0  0
  162.0640  212.8410  145.8850 O   0  0  0  0  0  0  0  0  0  0  0  0
  162.3250  210.6020  155.2670 C   0  0  0  0  0  1  0  0  0  0  0  0
  161.6490  209.9540  154.0680 C   0  0  1  0  0  3  0  0  0  0  0  0
  160.6720  208.7990  154.3960 C   0  0  1  0  0  3  0  0  0  0  0  0
  161.8870  207.4690  152.7820 O   0  0  0  0  0  0  0  0  0  0  0  0
  161.0710  207.4020  153.8910 C   0  0  0  0  0  3  0  0  0  0  0  0
  160.5830  207.1970  152.6180 O   0  0  0  0  0  0  0  0  0  0  0  0
  160.1270  208.7770  155.8260 C   0  0  0  0  0  2  0  0  0  0  0  0
  160.4430  206.7770  157.0280 O   0  0  0  0  0  0  0  0  0  0  0  0
  159.7280  207.4040  156.2650 C   0  0  0  0  0  3  0  0  0  0  0  0
  159.6830  211.4100  153.2290 C   0  0  1  0  0  3  0  0  0  0  0  0
  157.1560  211.7340  154.7270 C   0  0  1  0  0  3  0  0  0  0  0  0
  155.5930  213.7370  154.4470 C   0  0  0  0  0  2  0  0  0  0  0  0
  157.8830  214.1200  155.1590 O   0  0  0  0  0  0  0  0  0  0  0  0
  155.7780  212.3390  155.0620 C   0  0  2  0  0  3  0  0  0  0  0  0
  159.5750  212.6900  154.0870 C   0  0  1  0  0  3  0  0  0  0  0  0
  158.2810  212.7900  154.9030 C   0  0  2  0  0  0  0  0  0  0  0  0
  160.1430  213.4150  156.2900 O   0  0  0  0  0  1  0  0  0  0  0  0
  156.9270  214.4520  154.1820 C   0  0  0  0  0  2  0  0  0  0  0  0
  157.4010  210.4060  155.4400 C   0  0  0  0  0  1  0  0  0  0  0  0
  159.5740  212.3570  155.5770 C   0  0  2  0  0  3  0  0  0  0  0  0
  154.6980  211.3930  157.1060 O   0  0  0  0  0  0  0  0  0  0  0  0
  155.9590  213.2980  157.2580 O   0  0  0  0  0  1  0  0  0  0  0  0
  155.4900  212.3800  156.5350 C   0  0  0  0  0  0  0  0  0  0  0  0
  158.9430  211.5050  152.0230 O   0  0  0  0  0  0  0  0  0  0  0  0
  158.9430  212.8380  151.5750 C   0  0  0  0  0  2  0  0  0  0  0  0
  157.7750  213.0540  150.6350 C   0  0  0  0  0  1  0  0  0  0  0  0
  1 21  1  1  0  0  0
  1 13  1  0  0  0  0
  2  4  1  0  0  0  0
  3  5  1  6  0  0  0
  3  2  1  0  0  0  0
  3  4  1  0  0  0  0
  4  1  1  1  0  0  0
  5  6  1  1  0  0  0
  7  5  1  0  0  0  0
  7  8  1  1  0  0  0
  9  7  1  0  0  0  0
 10  9  1  0  0  0  0
 11 10  2  0  0  0  0
 13 14  1  0  0  0  0
 13 12  1  1  0  0  0
 14 18  1  1  0  0  0
 15 16  1  0  0  0  0
 16 14  1  0  0  0  0
 17 15  1  0  0  0  0
 17 16  1  0  0  0  0
 18 20  1  0  0  0  0
 20 19  2  0  0  0  0
 21 35  1  6  0  0  0
 22 27  1  0  0  0  0
 22 25  1  0  0  0  0
 22 30  1  1  0  0  0
 23 25  1  0  0  0  0
 25 34  1  1  0  0  0
 26 21  1  6  0  0  0
 26 27  1  0  0  0  0
 26 31  1  0  0  0  0
 27 24  1  1  0  0  0
 27 31  1  0  0  0  0
 29 23  1  0  0  0  0
 29 24  1  0  0  0  0
 31 28  1  1  0  0  0
 34 32  2  0  0  0  0
 34 33  1  0  0  0  0
 36 35  1  0  0  0  0
 37 36  1  0  0  0  0
M  END
>  <MODEL>
5

>  <REMARK>
 VINA RESULT:      -3.3      2.869      6.307
  Name = 
  15 active torsions:
  status: ('A' for Active; 'I' for Inactive)
    1  A    between atoms: C_1  and  C_5
    2  A    between atoms: C_1  and  C_23
    3  A    between atoms: C_5  and  C_26
    4  A    between atoms: C_8  and  C_19
    5  A    between atoms: C_9  and  C_13
    6  A    between atoms: C_9  and  C_16
    7  A    between atoms: C_9  and  C_30
    8  A    between atoms: C_10  and  C_29
    9  A    between atoms: C_11  and  C_26
   10  A    between atoms: C_13  and  C_20
   11  A    between atoms: C_16  and  C_24
   12  A    between atoms: C_20  and  C_25
   13  A    between atoms: C_20  and  C_29
   14  A    between atoms: C_27  and  O_33
   15  A    between atoms: C_29  and  O_33
                            x       y       z     vdW  Elec       q    Type
                         _______ _______ _______ _____ _____    ______ ____

>  <TORSDO>
F 15

$$$$
=
 OpenBabel11062409243D

 37 40  0  0  1  0  0  0  0  0999 V2000
  161.1410  209.1710  152.0260 C   0  0  2  0  0  3  0  0  0  0  0  0
  162.5600  207.4390  151.1730 O   0  0  0  0  0  0  0  0  0  0  0  0
  161.3770  206.7530  151.5040 C   0  0  2  0  0  3  0  0  0  0  0  0
  161.8890  207.8720  152.3350 C   0  0  2  0  0  3  0  0  0  0  0  0
  161.6880  205.3680  152.1030 C   0  0  1  0  0  3  0  0  0  0  0  0
  160.9670  205.0200  153.4110 C   0  0  0  0  0  1  0  0  0  0  0  0
  161.6100  204.2560  151.0520 C   0  0  2  0  0  3  0  0  0  0  0  0
  160.9890  204.7440  149.7460 C   0  0  0  0  0  1  0  0  0  0  0  0
  160.8390  203.0620  151.5980 C   0  0  0  0  0  2  0  0  0  0  0  0
  160.5850  202.0460  150.5290 C   0  0  0  0  0  3  0  0  0  0  0  0
  161.4790  201.3030  150.1550 O   0  0  0  0  0  0  0  0  0  0  0  0
  163.4580  210.2200  152.4030 C   0  0  0  0  0  1  0  0  0  0  0  0
  162.1660  210.2380  151.6010 C   0  0  1  0  0  3  0  0  0  0  0  0
  162.3310  210.4160  150.0720 C   0  0  1  0  0  3  0  0  0  0  0  0
  162.5750  209.3910  147.8960 O   0  0  0  0  0  0  0  0  0  0  0  0
  162.4020  209.1260  149.2370 C   0  0  0  0  0  3  0  0  0  0  0  0
  161.3510  209.0750  148.3480 O   0  0  0  0  0  0  0  0  0  0  0  0
  161.4470  211.4880  149.4300 C   0  0  0  0  0  2  0  0  0  0  0  0
  161.6410  213.2540  147.8860 O   0  0  0  0  0  0  0  0  0  0  0  0
  162.2250  212.4330  148.5720 C   0  0  0  0  0  3  0  0  0  0  0  0
  160.2330  209.6140  153.2030 C   0  0  1  0  0  3  0  0  0  0  0  0
  159.4030  211.6160  155.2120 C   0  0  1  0  0  3  0  0  0  0  0  0
  157.0190  211.8070  156.1150 C   0  0  0  0  0  2  0  0  0  0  0  0
  157.4000  212.0630  153.7300 O   0  0  0  0  0  0  0  0  0  0  0  0
  158.4800  212.2680  156.2610 C   0  0  2  0  0  3  0  0  0  0  0  0
  159.0990  210.5670  152.7660 C   0  0  1  0  0  3  0  0  0  0  0  0
  158.7420  211.6350  153.8070 C   0  0  2  0  0  0  0  0  0  0  0  0
  158.8590  212.6540  151.6320 O   0  0  0  0  0  1  0  0  0  0  0  0
  156.6850  211.3280  154.6940 C   0  0  0  0  0  2  0  0  0  0  0  0
  160.8270  212.1660  155.2630 C   0  0  0  0  0  1  0  0  0  0  0  0
  159.6090  211.9980  152.6100 C   0  0  2  0  0  3  0  0  0  0  0  0
  159.3410  214.4150  157.2030 O   0  0  0  0  0  1  0  0  0  0  0  0
  157.9040  214.4460  155.4210 O   0  0  0  0  0  0  0  0  0  0  0  0
  158.5510  213.7680  156.2630 C   0  0  0  0  0  0  0  0  0  0  0  0
  159.7560  208.5250  153.9750 O   0  0  0  0  0  0  0  0  0  0  0  0
  160.1930  208.6640  155.3050 C   0  0  0  0  0  2  0  0  0  0  0  0
  160.0850  207.3300  156.0140 C   0  0  0  0  0  1  0  0  0  0  0  0
  1 13  1  1  0  0  0
  1 21  1  0  0  0  0
  2  3  1  0  0  0  0
  2  4  1  0  0  0  0
  3  5  1  1  0  0  0
  3  4  1  0  0  0  0
  4  1  1  6  0  0  0
  5  6  1  1  0  0  0
  7  8  1  6  0  0  0
  7  9  1  0  0  0  0
  7  5  1  0  0  0  0
 10  9  1  0  0  0  0
 11 10  2  0  0  0  0
 13 12  1  6  0  0  0
 14 18  1  6  0  0  0
 14 13  1  0  0  0  0
 15 17  1  0  0  0  0
 15 16  1  0  0  0  0
 16 14  1  0  0  0  0
 17 16  1  0  0  0  0
 19 20  2  0  0  0  0
 20 18  1  0  0  0  0
 21 35  1  6  0  0  0
 22 30  1  6  0  0  0
 22 25  1  0  0  0  0
 23 25  1  0  0  0  0
 24 29  1  0  0  0  0
 25 34  1  6  0  0  0
 26 21  1  1  0  0  0
 26 27  1  0  0  0  0
 27 24  1  6  0  0  0
 27 22  1  0  0  0  0
 29 23  1  0  0  0  0
 31 28  1  6  0  0  0
 31 26  1  0  0  0  0
 31 27  1  0  0  0  0
 33 34  2  0  0  0  0
 34 32  1  0  0  0  0
 35 36  1  0  0  0  0
 36 37  1  0  0  0  0
M  END
>  <MODEL>
6

>  <REMARK>
 VINA RESULT:      -2.7      2.128      3.133
  Name = 
  15 active torsions:
  status: ('A' for Active; 'I' for Inactive)
    1  A    between atoms: C_1  and  C_5
    2  A    between atoms: C_1  and  C_23
    3  A    between atoms: C_5  and  C_26
    4  A    between atoms: C_8  and  C_19
    5  A    between atoms: C_9  and  C_13
    6  A    between atoms: C_9  and  C_16
    7  A    between atoms: C_9  and  C_30
    8  A    between atoms: C_10  and  C_29
    9  A    between atoms: C_11  and  C_26
   10  A    between atoms: C_13  and  C_20
   11  A    between atoms: C_16  and  C_24
   12  A    between atoms: C_20  and  C_25
   13  A    between atoms: C_20  and  C_29
   14  A    between atoms: C_27  and  O_33
   15  A    between atoms: C_29  and  O_33
                            x       y       z     vdW  Elec       q    Type
                         _______ _______ _______ _____ _____    ______ ____

>  <TORSDO>
F 15

$$$$
=
 OpenBabel11062409243D

 37 40  0  0  1  0  0  0  0  0999 V2000
  161.0230  211.1770  151.9790 C   0  0  2  0  0  3  0  0  0  0  0  0
  160.8290  208.9010  152.7030 O   0  0  0  0  0  0  0  0  0  0  0  0
  161.6970  208.8150  151.5980 C   0  0  2  0  0  3  0  0  0  0  0  0
  160.5540  209.7640  151.6220 C   0  0  2  0  0  3  0  0  0  0  0  0
  161.4100  207.5520  150.7650 C   0  0  1  0  0  3  0  0  0  0  0  0
  162.3400  207.3040  149.5700 C   0  0  0  0  0  1  0  0  0  0  0  0
  161.2120  206.3150  151.6460 C   0  0  2  0  0  3  0  0  0  0  0  0
  162.4800  205.9450  152.4100 C   0  0  0  0  0  1  0  0  0  0  0  0
  160.7290  205.1380  150.8100 C   0  0  0  0  0  2  0  0  0  0  0  0
  161.0260  203.8360  151.4840 C   0  0  0  0  0  3  0  0  0  0  0  0
  160.8690  202.7790  150.8900 O   0  0  0  0  0  0  0  0  0  0  0  0
  158.7000  211.1790  153.0810 C   0  0  0  0  0  1  0  0  0  0  0  0
  160.1200  211.7250  153.0970 C   0  0  1  0  0  3  0  0  0  0  0  0
  160.7840  211.8170  154.4920 C   0  0  1  0  0  3  0  0  0  0  0  0
  159.5560  213.4880  155.7360 O   0  0  0  0  0  0  0  0  0  0  0  0
  159.8550  212.1440  155.6730 C   0  0  0  0  0  3  0  0  0  0  0  0
  160.4880  212.9860  156.5600 O   0  0  0  0  0  0  0  0  0  0  0  0
  161.7910  210.7120  154.8210 C   0  0  0  0  0  2  0  0  0  0  0  0
  161.6420  208.6550  155.9560 O   0  0  0  0  0  0  0  0  0  0  0  0
  161.3310  209.8340  155.9400 C   0  0  0  0  0  3  0  0  0  0  0  0
  161.0990  212.0970  150.7320 C   0  0  1  0  0  3  0  0  0  0  0  0
  161.7360  213.5330  148.2300 C   0  0  1  0  0  3  0  0  0  0  0  0
  159.9750  214.2250  146.5100 C   0  0  0  0  0  2  0  0  0  0  0  0
  160.2240  211.8730  147.0600 O   0  0  0  0  0  0  0  0  0  0  0  0
  161.4440  214.3450  146.9520 C   0  0  2  0  0  3  0  0  0  0  0  0
  160.6770  211.3850  149.4290 C   0  0  1  0  0  3  0  0  0  0  0  0
  161.0840  212.1260  148.1500 C   0  0  2  0  0  0  0  0  0  0  0  0
  161.5710  209.7850  147.8990 O   0  0  0  0  0  1  0  0  0  0  0  0
  159.3050  212.9380  147.0140 C   0  0  0  0  0  2  0  0  0  0  0  0
  163.2170  213.5390  148.6010 C   0  0  0  0  0  1  0  0  0  0  0  0
  161.8950  210.9310  148.6280 C   0  0  2  0  0  3  0  0  0  0  0  0
  163.4520  213.1790  146.0320 O   0  0  0  0  0  1  0  0  0  0  0  0
  162.1400  214.4530  144.6540 O   0  0  0  0  0  0  0  0  0  0  0  0
  162.3570  214.0030  145.8100 C   0  0  0  0  0  0  0  0  0  0  0  0
  160.4290  213.3340  150.9140 O   0  0  0  0  0  0  0  0  0  0  0  0
  159.1370  213.2530  150.3650 C   0  0  0  0  0  2  0  0  0  0  0  0
  158.2330  214.2540  151.0540 C   0  0  0  0  0  1  0  0  0  0  0  0
  1 21  1  6  0  0  0
  1 13  1  0  0  0  0
  3  5  1  6  0  0  0
  3  4  1  0  0  0  0
  3  2  1  0  0  0  0
  4  1  1  1  0  0  0
  4  2  1  0  0  0  0
  5  6  1  6  0  0  0
  5  7  1  0  0  0  0
  7  8  1  6  0  0  0
  9 10  1  0  0  0  0
  9  7  1  0  0  0  0
 11 10  2  0  0  0  0
 13 12  1  1  0  0  0
 13 14  1  0  0  0  0
 14 18  1  1  0  0  0
 14 16  1  0  0  0  0
 15 17  1  0  0  0  0
 16 15  1  0  0  0  0
 16 17  1  0  0  0  0
 18 20  1  0  0  0  0
 20 19  2  0  0  0  0
 21 35  1  1  0  0  0
 22 30  1  6  0  0  0
 23 25  1  0  0  0  0
 23 29  1  0  0  0  0
 25 34  1  6  0  0  0
 25 22  1  0  0  0  0
 26 21  1  1  0  0  0
 27 24  1  6  0  0  0
 27 22  1  0  0  0  0
 27 31  1  0  0  0  0
 27 26  1  0  0  0  0
 29 24  1  0  0  0  0
 31 28  1  6  0  0  0
 31 26  1  0  0  0  0
 33 34  2  0  0  0  0
 34 32  1  0  0  0  0
 36 35  1  0  0  0  0
 36 37  1  0  0  0  0
M  END
>  <MODEL>
7

>  <REMARK>
 VINA RESULT:      -2.4      2.143      7.034
  Name = 
  15 active torsions:
  status: ('A' for Active; 'I' for Inactive)
    1  A    between atoms: C_1  and  C_5
    2  A    between atoms: C_1  and  C_23
    3  A    between atoms: C_5  and  C_26
    4  A    between atoms: C_8  and  C_19
    5  A    between atoms: C_9  and  C_13
    6  A    between atoms: C_9  and  C_16
    7  A    between atoms: C_9  and  C_30
    8  A    between atoms: C_10  and  C_29
    9  A    between atoms: C_11  and  C_26
   10  A    between atoms: C_13  and  C_20
   11  A    between atoms: C_16  and  C_24
   12  A    between atoms: C_20  and  C_25
   13  A    between atoms: C_20  and  C_29
   14  A    between atoms: C_27  and  O_33
   15  A    between atoms: C_29  and  O_33
                            x       y       z     vdW  Elec       q    Type
                         _______ _______ _______ _____ _____    ______ ____

>  <TORSDO>
F 15

$$$$
=
 OpenBabel11062409243D

 37 40  0  0  1  0  0  0  0  0999 V2000
  161.1090  209.3520  152.7100 C   0  0  2  0  0  3  0  0  0  0  0  0
  161.1410  208.0140  150.7230 O   0  0  0  0  0  0  0  0  0  0  0  0
  160.6300  207.1340  151.6960 C   0  0  2  0  0  3  0  0  0  0  0  0
  161.6950  208.1200  152.0160 C   0  0  2  0  0  3  0  0  0  0  0  0
  161.1740  205.7070  151.4940 C   0  0  1  0  0  3  0  0  0  0  0  0
  161.2420  204.8250  152.7470 C   0  0  0  0  0  1  0  0  0  0  0  0
  160.5260  205.0090  150.2940 C   0  0  2  0  0  3  0  0  0  0  0  0
  160.4600  203.4960  150.4770 C   0  0  0  0  0  1  0  0  0  0  0  0
  161.2660  205.3620  149.0110 C   0  0  0  0  0  2  0  0  0  0  0  0
  161.5470  204.1400  148.1940 C   0  0  0  0  0  3  0  0  0  0  0  0
  161.7410  204.2280  146.9910 O   0  0  0  0  0  0  0  0  0  0  0  0
  163.3330  210.4620  152.0530 C   0  0  0  0  0  1  0  0  0  0  0  0
  161.8230  210.6040  152.1710 C   0  0  1  0  0  3  0  0  0  0  0  0
  161.1220  211.2960  150.9780 C   0  0  1  0  0  3  0  0  0  0  0  0
  159.0890  212.5740  150.6870 O   0  0  0  0  0  0  0  0  0  0  0  0
  160.3240  212.5710  151.3000 C   0  0  0  0  0  3  0  0  0  0  0  0
  160.0880  213.2900  150.1480 O   0  0  0  0  0  0  0  0  0  0  0  0
  161.9570  211.4280  149.7030 C   0  0  0  0  0  2  0  0  0  0  0  0
  162.3120  209.4710  148.4420 O   0  0  0  0  0  0  0  0  0  0  0  0
  161.5790  210.4200  148.6640 C   0  0  0  0  0  3  0  0  0  0  0  0
  161.1550  209.2250  154.2560 C   0  0  1  0  0  3  0  0  0  0  0  0
  158.6430  210.6500  154.8820 C   0  0  1  0  0  3  0  0  0  0  0  0
  158.0980  212.9960  154.0280 C   0  0  0  0  0  2  0  0  0  0  0  0
  160.0820  212.6700  155.3900 O   0  0  0  0  0  0  0  0  0  0  0  0
  157.5650  211.7430  154.7430 C   0  0  2  0  0  3  0  0  0  0  0  0
  161.3190  210.5850  154.9690 C   0  0  1  0  0  3  0  0  0  0  0  0
  159.9950  211.2620  155.3400 C   0  0  2  0  0  0  0  0  0  0  0  0
  161.5130  211.4180  157.1980 O   0  0  0  0  0  1  0  0  0  0  0  0
  159.6220  213.1480  154.1500 C   0  0  0  0  0  2  0  0  0  0  0  0
  158.1640  209.4560  155.7060 C   0  0  0  0  0  1  0  0  0  0  0  0
  160.7950  210.5230  156.4020 C   0  0  2  0  0  3  0  0  0  0  0  0
  155.6040  211.8040  156.2890 O   0  0  0  0  0  0  0  0  0  0  0  0
  157.5970  212.7270  156.9360 O   0  0  0  0  0  1  0  0  0  0  0  0
  156.9340  212.1230  156.0520 C   0  0  0  0  0  0  0  0  0  0  0  0
  160.0790  208.4660  154.7810 O   0  0  0  0  0  0  0  0  0  0  0  0
  160.5530  207.2120  155.2060 C   0  0  0  0  0  2  0  0  0  0  0  0
  160.0920  206.9530  156.6250 C   0  0  0  0  0  1  0  0  0  0  0  0
  1 13  1  1  0  0  0
  1 21  1  0  0  0  0
  2  3  1  0  0  0  0
  2  4  1  0  0  0  0
  3  5  1  6  0  0  0
  3  4  1  0  0  0  0
  4  1  1  1  0  0  0
  5  6  1  1  0  0  0
  7  8  1  1  0  0  0
  7  5  1  0  0  0  0
  9  7  1  0  0  0  0
 10  9  1  0  0  0  0
 11 10  2  0  0  0  0
 13 12  1  6  0  0  0
 14 18  1  6  0  0  0
 14 16  1  0  0  0  0
 14 13  1  0  0  0  0
 15 16  1  0  0  0  0
 17 15  1  0  0  0  0
 17 16  1  0  0  0  0
 19 20  2  0  0  0  0
 20 18  1  0  0  0  0
 21 35  1  1  0  0  0
 22 27  1  0  0  0  0
 22 30  1  1  0  0  0
 23 29  1  0  0  0  0
 23 25  1  0  0  0  0
 25 22  1  0  0  0  0
 25 34  1  1  0  0  0
 26 21  1  6  0  0  0
 26 27  1  0  0  0  0
 26 31  1  0  0  0  0
 27 24  1  1  0  0  0
 27 31  1  0  0  0  0
 29 24  1  0  0  0  0
 31 28  1  1  0  0  0
 34 32  2  0  0  0  0
 34 33  1  0  0  0  0
 35 36  1  0  0  0  0
 36 37  1  0  0  0  0
M  END
>  <MODEL>
8

>  <REMARK>
 VINA RESULT:      -2.4      1.804      3.251
  Name = 
  15 active torsions:
  status: ('A' for Active; 'I' for Inactive)
    1  A    between atoms: C_1  and  C_5
    2  A    between atoms: C_1  and  C_23
    3  A    between atoms: C_5  and  C_26
    4  A    between atoms: C_8  and  C_19
    5  A    between atoms: C_9  and  C_13
    6  A    between atoms: C_9  and  C_16
    7  A    between atoms: C_9  and  C_30
    8  A    between atoms: C_10  and  C_29
    9  A    between atoms: C_11  and  C_26
   10  A    between atoms: C_13  and  C_20
   11  A    between atoms: C_16  and  C_24
   12  A    between atoms: C_20  and  C_25
   13  A    between atoms: C_20  and  C_29
   14  A    between atoms: C_27  and  O_33
   15  A    between atoms: C_29  and  O_33
                            x       y       z     vdW  Elec       q    Type
                         _______ _______ _______ _____ _____    ______ ____

>  <TORSDO>
F 15

$$$$
=
 OpenBabel11062409243D

 37 40  0  0  1  0  0  0  0  0999 V2000
  161.8770  207.7420  150.4230 C   0  0  2  0  0  3  0  0  0  0  0  0
  161.7980  209.0280  148.4020 O   0  0  0  0  0  0  0  0  0  0  0  0
  162.2050  209.9680  149.3670 C   0  0  2  0  0  3  0  0  0  0  0  0
  161.2150  208.9060  149.6810 C   0  0  2  0  0  3  0  0  0  0  0  0
  161.5540  211.3410  149.1140 C   0  0  1  0  0  3  0  0  0  0  0  0
  161.6410  212.3540  150.2630 C   0  0  0  0  0  1  0  0  0  0  0  0
  161.9560  211.9260  147.7560 C   0  0  2  0  0  3  0  0  0  0  0  0
  163.0740  212.9570  147.8840 C   0  0  0  0  0  1  0  0  0  0  0  0
  160.7450  212.5320  147.0590 C   0  0  0  0  0  2  0  0  0  0  0  0
  161.1570  213.3690  145.8890 C   0  0  0  0  0  3  0  0  0  0  0  0
  160.8880  213.0180  144.7500 O   0  0  0  0  0  0  0  0  0  0  0  0
  159.7080  206.5810  149.6750 C   0  0  0  0  0  1  0  0  0  0  0  0
  161.1880  206.4340  149.9970 C   0  0  1  0  0  3  0  0  0  0  0  0
  162.0000  205.5540  149.0170 C   0  0  1  0  0  3  0  0  0  0  0  0
  160.4610  203.7040  149.2480 O   0  0  0  0  0  0  0  0  0  0  0  0
  161.7930  204.0340  149.1300 C   0  0  0  0  0  3  0  0  0  0  0  0
  161.2310  203.7190  150.3470 O   0  0  0  0  0  0  0  0  0  0  0  0
  162.0400  206.0390  147.5660 C   0  0  0  0  0  2  0  0  0  0  0  0
  162.8240  204.9950  145.6070 O   0  0  0  0  0  0  0  0  0  0  0  0
  162.1020  204.9110  146.5870 C   0  0  0  0  0  3  0  0  0  0  0  0
  161.8940  207.9660  151.9580 C   0  0  1  0  0  3  0  0  0  0  0  0
  162.0950  209.3760  154.5470 C   0  0  1  0  0  3  0  0  0  0  0  0
  160.7550  208.7180  156.6220 C   0  0  0  0  0  2  0  0  0  0  0  0
  159.5640  209.3430  154.6000 O   0  0  0  0  0  0  0  0  0  0  0  0
  161.8920  209.5890  156.0610 C   0  0  2  0  0  3  0  0  0  0  0  0
  160.5750  208.5630  152.4970 C   0  0  1  0  0  3  0  0  0  0  0  0
  160.7310  209.3450  153.8060 C   0  0  2  0  0  0  0  0  0  0  0  0
  159.3220  210.5860  152.3030 O   0  0  0  0  0  1  0  0  0  0  0  0
  159.7260  208.3200  155.5530 C   0  0  0  0  0  2  0  0  0  0  0  0
  163.1300  210.3300  153.9550 C   0  0  0  0  0  1  0  0  0  0  0  0
  160.6150  210.0890  152.4840 C   0  0  2  0  0  3  0  0  0  0  0  0
  160.5910  211.7160  155.9030 O   0  0  0  0  0  0  0  0  0  0  0  0
  162.4610  211.6160  157.2210 O   0  0  0  0  0  1  0  0  0  0  0  0
  161.6740  211.0270  156.4330 C   0  0  0  0  0  0  0  0  0  0  0  0
  162.3010  206.8150  152.6810 O   0  0  0  0  0  0  0  0  0  0  0  0
  161.1870  206.2450  153.3220 C   0  0  0  0  0  2  0  0  0  0  0  0
  161.2010  204.7450  153.1170 C   0  0  0  0  0  1  0  0  0  0  0  0
  1 13  1  1  0  0  0
  1 21  1  0  0  0  0
  2  3  1  0  0  0  0
  2  4  1  0  0  0  0
  3  5  1  6  0  0  0
  3  4  1  0  0  0  0
  4  1  1  1  0  0  0
  5  6  1  1  0  0  0
  7  8  1  1  0  0  0
  7  5  1  0  0  0  0
  9  7  1  0  0  0  0
 10  9  1  0  0  0  0
 11 10  2  0  0  0  0
 13 12  1  6  0  0  0
 14 18  1  6  0  0  0
 14 16  1  0  0  0  0
 14 13  1  0  0  0  0
 15 17  1  0  0  0  0
 16 15  1  0  0  0  0
 16 17  1  0  0  0  0
 19 20  2  0  0  0  0
 20 18  1  0  0  0  0
 21 35  1  1  0  0  0
 22 30  1  6  0  0  0
 22 25  1  0  0  0  0
 24 29  1  0  0  0  0
 25 34  1  6  0  0  0
 25 23  1  0  0  0  0
 26 21  1  6  0  0  0
 26 27  1  0  0  0  0
 27 22  1  0  0  0  0
 27 24  1  1  0  0  0
 29 23  1  0  0  0  0
 31 28  1  1  0  0  0
 31 26  1  0  0  0  0
 31 27  1  0  0  0  0
 32 34  2  0  0  0  0
 34 33  1  0  0  0  0
 35 36  1  0  0  0  0
 37 36  1  0  0  0  0
M  END
>  <MODEL>
9

>  <REMARK>
 VINA RESULT:      -2.2      1.663      5.223
  Name = 
  15 active torsions:
  status: ('A' for Active; 'I' for Inactive)
    1  A    between atoms: C_1  and  C_5
    2  A    between atoms: C_1  and  C_23
    3  A    between atoms: C_5  and  C_26
    4  A    between atoms: C_8  and  C_19
    5  A    between atoms: C_9  and  C_13
    6  A    between atoms: C_9  and  C_16
    7  A    between atoms: C_9  and  C_30
    8  A    between atoms: C_10  and  C_29
    9  A    between atoms: C_11  and  C_26
   10  A    between atoms: C_13  and  C_20
   11  A    between atoms: C_16  and  C_24
   12  A    between atoms: C_20  and  C_25
   13  A    between atoms: C_20  and  C_29
   14  A    between atoms: C_27  and  O_33
   15  A    between atoms: C_29  and  O_33
                            x       y       z     vdW  Elec       q    Type
                         _______ _______ _______ _____ _____    ______ ____

>  <TORSDO>
F 15

$$$$
