=
 OpenBabel11052423113D

 27 31  0  0  1  0  0  0  0  0999 V2000
  161.4610  209.1060  149.0370 C   0  0  0  0  0  3  0  0  0  0  0  0
  161.1770  210.7470  150.8660 C   0  0  0  0  0  0  0  0  0  0  0  0
  161.9130  208.6570  152.0220 C   0  0  0  0  0  3  0  0  0  0  0  0
  159.9540  212.3080  154.3050 N   0  0  0  0  0  0  0  0  0  0  0  0
  159.3610  210.8590  156.1010 N   0  0  0  0  0  1  0  0  0  0  0  0
  160.3660  212.0000  150.8610 C   0  0  0  0  0  3  0  0  0  0  0  0
  161.0500  210.2290  154.5270 N   0  0  0  0  0  0  0  0  0  0  0  0
  161.8010  205.4040  151.7540 C   0  0  0  0  0  2  0  0  0  0  0  0
  162.4820  210.5140  154.4630 C   0  0  0  0  0  1  0  0  0  0  0  0
  160.6720  205.2210  150.7380 C   0  0  0  0  0  2  0  0  0  0  0  0
  160.4090  210.3510  153.2030 C   0  0  1  0  0  3  0  0  0  0  0  0
  161.9790  210.3660  149.6460 C   0  0  2  0  0  3  0  0  0  0  0  0
  160.4570  211.3480  155.2810 C   0  0  1  0  0  3  0  0  0  0  0  0
  159.9280  211.7380  153.1590 C   0  0  0  0  0  0  0  0  0  0  0  0
  161.5200  207.9250  149.6520 C   0  0  0  0  0  0  0  0  0  0  0  0
  161.2180  209.9660  151.9760 C   0  0  0  0  0  0  0  0  0  0  0  0
  162.7940  206.5060  151.3800 C   0  0  0  0  0  2  0  0  0  0  0  0
  159.7990  212.4570  151.9370 N   0  0  0  0  0  0  0  0  0  0  0  0
  161.1600  205.4530  149.3130 C   0  0  0  0  0  2  0  0  0  0  0  0
  161.0170  206.8230  148.9380 O   0  0  0  0  0  0  0  0  0  0  0  0
  162.0980  207.7780  151.0240 C   0  0  0  0  0  0  0  0  0  0  0  0
  162.4100  213.4560  146.6800 C   0  0  0  0  0  3  0  0  0  0  0  0
  162.1420  211.4590  148.6280 C   0  0  0  0  0  0  0  0  0  0  0  0
  163.3160  212.2260  148.5580 C   0  0  0  0  0  3  0  0  0  0  0  0
  163.4480  213.2230  147.5870 C   0  0  0  0  0  3  0  0  0  0  0  0
  161.2420  212.6900  146.7420 C   0  0  0  0  0  3  0  0  0  0  0  0
  161.1100  211.6940  147.7130 C   0  0  0  0  0  3  0  0  0  0  0  0
  1 12  1  0  0  0  0
  1 15  2  0  0  0  0
  2 16  2  0  0  0  0
  4 13  1  0  0  0  0
  6  2  1  0  0  0  0
  6 18  2  0  0  0  0
  7 13  1  0  0  0  0
  9  7  1  0  0  0  0
 10  8  1  0  0  0  0
 11 16  1  6  0  0  0
 11  7  1  0  0  0  0
 12 23  1  6  0  0  0
 12  2  1  0  0  0  0
 13  5  1  6  0  0  0
 14 11  1  0  0  0  0
 14  4  2  0  0  0  0
 15 21  1  0  0  0  0
 16  3  1  0  0  0  0
 17  8  1  0  0  0  0
 18 14  1  0  0  0  0
 19 10  1  0  0  0  0
 20 19  1  0  0  0  0
 20 15  1  0  0  0  0
 21 17  1  0  0  0  0
 21  3  2  0  0  0  0
 22 26  2  0  0  0  0
 22 25  1  0  0  0  0
 24 23  1  0  0  0  0
 25 24  2  0  0  0  0
 26 27  1  0  0  0  0
 27 23  2  0  0  0  0
M  END
>  <MODEL>
1

>  <REMARK>
 VINA RESULT:      -6.0      0.000      0.000
  Name = 
  1 active torsions:
  status: ('A' for Active; 'I' for Inactive)
    1  A    between atoms: C_9  and  C_15
                            x       y       z     vdW  Elec       q    Type
                         _______ _______ _______ _____ _____    ______ ____

>  <TORSDO>
F 1

$$$$
=
 OpenBabel11052423113D

 27 31  0  0  1  0  0  0  0  0999 V2000
  161.5940  210.4170  150.9510 C   0  0  0  0  0  3  0  0  0  0  0  0
  160.8900  210.4740  153.3220 C   0  0  0  0  0  0  0  0  0  0  0  0
  159.5760  212.3060  152.2430 C   0  0  0  0  0  3  0  0  0  0  0  0
  160.0940  211.9250  156.9300 N   0  0  0  0  0  0  0  0  0  0  0  0
  159.5660  214.2350  157.1700 N   0  0  0  0  0  1  0  0  0  0  0  0
  161.6130  209.9350  154.5110 C   0  0  0  0  0  3  0  0  0  0  0  0
  158.9870  213.0500  155.1740 N   0  0  0  0  0  0  0  0  0  0  0  0
  159.7100  214.4530  149.7850 C   0  0  0  0  0  2  0  0  0  0  0  0
  157.8310  212.2260  154.8270 C   0  0  0  0  0  1  0  0  0  0  0  0
  161.2040  214.4430  149.4540 C   0  0  0  0  0  2  0  0  0  0  0  0
  160.2490  212.4460  154.7040 C   0  0  1  0  0  3  0  0  0  0  0  0
  160.8690  209.6890  152.0330 C   0  0  2  0  0  3  0  0  0  0  0  0
  159.1100  212.9620  156.6400 C   0  0  1  0  0  3  0  0  0  0  0  0
  160.7210  211.6540  155.8470 C   0  0  0  0  0  0  0  0  0  0  0  0
  161.1720  211.5760  150.4470 C   0  0  0  0  0  0  0  0  0  0  0  0
  160.2260  211.6560  153.4060 C   0  0  0  0  0  0  0  0  0  0  0  0
  159.1180  213.0590  149.9980 C   0  0  0  0  0  2  0  0  0  0  0  0
  161.5170  210.4860  155.6830 N   0  0  0  0  0  0  0  0  0  0  0  0
  161.5780  213.2400  148.5970 C   0  0  0  0  0  2  0  0  0  0  0  0
  161.9460  212.1260  149.4100 O   0  0  0  0  0  0  0  0  0  0  0  0
  159.9360  212.2520  150.9510 C   0  0  0  0  0  0  0  0  0  0  0  0
  162.1680  205.5940  152.3070 C   0  0  0  0  0  3  0  0  0  0  0  0
  161.3220  208.2610  152.1550 C   0  0  0  0  0  0  0  0  0  0  0  0
  160.8220  207.4160  153.1580 C   0  0  0  0  0  3  0  0  0  0  0  0
  161.2450  206.0860  153.2350 C   0  0  0  0  0  3  0  0  0  0  0  0
  162.6650  206.4290  151.3030 C   0  0  0  0  0  3  0  0  0  0  0  0
  162.2410  207.7590  151.2260 C   0  0  0  0  0  3  0  0  0  0  0  0
  1 12  1  0  0  0  0
  2 16  2  0  0  0  0
  2  6  1  0  0  0  0
  3 16  1  0  0  0  0
  6 18  2  0  0  0  0
  7 13  1  0  0  0  0
  8 17  1  0  0  0  0
  9  7  1  0  0  0  0
 10  8  1  0  0  0  0
 11 16  1  6  0  0  0
 11  7  1  0  0  0  0
 11 14  1  0  0  0  0
 12 23  1  1  0  0  0
 12  2  1  0  0  0  0
 13  4  1  0  0  0  0
 13  5  1  6  0  0  0
 14  4  2  0  0  0  0
 15  1  2  0  0  0  0
 15 21  1  0  0  0  0
 17 21  1  0  0  0  0
 18 14  1  0  0  0  0
 19 20  1  0  0  0  0
 19 10  1  0  0  0  0
 20 15  1  0  0  0  0
 21  3  2  0  0  0  0
 22 25  1  0  0  0  0
 23 24  1  0  0  0  0
 24 25  2  0  0  0  0
 26 22  2  0  0  0  0
 27 26  1  0  0  0  0
 27 23  2  0  0  0  0
M  END
>  <MODEL>
2

>  <REMARK>
 VINA RESULT:      -5.1      1.913      5.685
  Name = 
  1 active torsions:
  status: ('A' for Active; 'I' for Inactive)
    1  A    between atoms: C_9  and  C_15
                            x       y       z     vdW  Elec       q    Type
                         _______ _______ _______ _____ _____    ______ ____

>  <TORSDO>
F 1

$$$$
=
 OpenBabel11052423113D

 27 31  0  0  1  0  0  0  0  0999 V2000
  160.8180  209.6500  152.0840 C   0  0  0  0  0  3  0  0  0  0  0  0
  159.5810  211.7320  152.5900 C   0  0  0  0  0  0  0  0  0  0  0  0
  160.1480  210.7900  154.8350 C   0  0  0  0  0  3  0  0  0  0  0  0
  156.8830  214.1560  154.2040 N   0  0  0  0  0  0  0  0  0  0  0  0
  155.8900  213.5740  156.2900 N   0  0  0  0  0  1  0  0  0  0  0  0
  158.6400  212.4810  151.7070 C   0  0  0  0  0  3  0  0  0  0  0  0
  158.1360  212.9220  155.7810 N   0  0  0  0  0  0  0  0  0  0  0  0
  160.6880  207.9550  156.3630 C   0  0  0  0  0  2  0  0  0  0  0  0
  159.4120  213.6190  155.9220 C   0  0  0  0  0  1  0  0  0  0  0  0
  160.0870  206.9550  155.3720 C   0  0  0  0  0  2  0  0  0  0  0  0
  158.0460  212.2020  154.4950 C   0  0  1  0  0  3  0  0  0  0  0  0
  160.8440  211.1400  152.0130 C   0  0  2  0  0  3  0  0  0  0  0  0
  157.1210  213.9810  155.6330 C   0  0  1  0  0  3  0  0  0  0  0  0
  157.3970  213.1570  153.5880 C   0  0  0  0  0  0  0  0  0  0  0  0
  160.8290  208.9770  153.2350 C   0  0  0  0  0  0  0  0  0  0  0  0
  159.3180  211.6060  153.9160 C   0  0  0  0  0  0  0  0  0  0  0  0
  161.5510  209.0320  155.7040 C   0  0  0  0  0  2  0  0  0  0  0  0
  157.6340  213.1510  152.1840 N   0  0  0  0  0  0  0  0  0  0  0  0
  161.0420  206.6670  154.2210 C   0  0  0  0  0  2  0  0  0  0  0  0
  160.8310  207.5750  153.1390 O   0  0  0  0  0  0  0  0  0  0  0  0
  160.8460  209.6770  154.5570 C   0  0  0  0  0  0  0  0  0  0  0  0
  161.9430  212.5200  148.0870 C   0  0  0  0  0  3  0  0  0  0  0  0
  161.2050  211.6340  150.6400 C   0  0  0  0  0  0  0  0  0  0  0  0
  160.8310  212.9130  150.2000 C   0  0  0  0  0  3  0  0  0  0  0  0
  161.1980  213.3540  148.9250 C   0  0  0  0  0  3  0  0  0  0  0  0
  162.3230  211.2480  148.5230 C   0  0  0  0  0  3  0  0  0  0  0  0
  161.9560  210.8070  149.7980 C   0  0  0  0  0  3  0  0  0  0  0  0
  1 15  2  0  0  0  0
  2 16  2  0  0  0  0
  4 13  1  0  0  0  0
  6 18  2  0  0  0  0
  6  2  1  0  0  0  0
  7  9  1  0  0  0  0
 10  8  1  0  0  0  0
 11 14  1  6  0  0  0
 11  7  1  0  0  0  0
 12 23  1  6  0  0  0
 12  1  1  0  0  0  0
 12  2  1  0  0  0  0
 13  7  1  0  0  0  0
 13  5  1  1  0  0  0
 14  4  2  0  0  0  0
 15 21  1  0  0  0  0
 16 11  1  0  0  0  0
 16  3  1  0  0  0  0
 17  8  1  0  0  0  0
 18 14  1  0  0  0  0
 19 10  1  0  0  0  0
 20 15  1  0  0  0  0
 20 19  1  0  0  0  0
 21  3  2  0  0  0  0
 21 17  1  0  0  0  0
 22 26  2  0  0  0  0
 22 25  1  0  0  0  0
 24 23  1  0  0  0  0
 25 24  2  0  0  0  0
 26 27  1  0  0  0  0
 27 23  2  0  0  0  0
M  END
>  <MODEL>
3

>  <REMARK>
 VINA RESULT:      -5.0      2.458      3.651
  Name = 
  1 active torsions:
  status: ('A' for Active; 'I' for Inactive)
    1  A    between atoms: C_9  and  C_15
                            x       y       z     vdW  Elec       q    Type
                         _______ _______ _______ _____ _____    ______ ____

>  <TORSDO>
F 1

$$$$
=
 OpenBabel11052423113D

 27 31  0  0  1  0  0  0  0  0999 V2000
  162.3310  209.8520  148.6060 C   0  0  0  0  0  3  0  0  0  0  0  0
  161.5410  209.2530  150.8720 C   0  0  0  0  0  0  0  0  0  0  0  0
  160.7860  211.6150  150.5600 C   0  0  0  0  0  3  0  0  0  0  0  0
  160.9480  209.4990  154.7900 N   0  0  0  0  0  0  0  0  0  0  0  0
  161.0050  211.6330  155.8470 N   0  0  0  0  0  1  0  0  0  0  0  0
  162.0440  208.1670  151.7650 C   0  0  0  0  0  3  0  0  0  0  0  0
  160.2510  211.4090  153.5870 N   0  0  0  0  0  0  0  0  0  0  0  0
  161.5810  214.3770  149.0110 C   0  0  0  0  0  2  0  0  0  0  0  0
  158.9450  211.0780  153.0210 C   0  0  0  0  0  1  0  0  0  0  0  0
  163.0400  214.1070  148.6360 C   0  0  0  0  0  2  0  0  0  0  0  0
  161.3440  210.7090  152.8840 C   0  0  1  0  0  3  0  0  0  0  0  0
  161.3920  209.0000  149.3910 C   0  0  2  0  0  3  0  0  0  0  0  0
  160.2720  210.7850  154.9220 C   0  0  1  0  0  3  0  0  0  0  0  0
  161.5430  209.4760  153.6550 C   0  0  0  0  0  0  0  0  0  0  0  0
  162.2390  211.1820  148.5590 C   0  0  0  0  0  0  0  0  0  0  0  0
  161.1920  210.4570  151.3930 C   0  0  0  0  0  0  0  0  0  0  0  0
  160.6480  213.1950  148.7440 C   0  0  0  0  0  2  0  0  0  0  0  0
  162.0290  208.2780  153.0590 N   0  0  0  0  0  0  0  0  0  0  0  0
  163.1440  213.2280  147.3970 C   0  0  0  0  0  2  0  0  0  0  0  0
  163.1800  211.8450  147.7510 O   0  0  0  0  0  0  0  0  0  0  0  0
  161.1880  211.9270  149.3180 C   0  0  0  0  0  0  0  0  0  0  0  0
  161.6060  204.8830  148.1550 C   0  0  0  0  0  3  0  0  0  0  0  0
  161.4660  207.5550  148.9850 C   0  0  0  0  0  0  0  0  0  0  0  0
  160.7390  206.5650  149.6640 C   0  0  0  0  0  3  0  0  0  0  0  0
  160.8100  205.2310  149.2500 C   0  0  0  0  0  3  0  0  0  0  0  0
  162.3270  205.8660  147.4730 C   0  0  0  0  0  3  0  0  0  0  0  0
  162.2560  207.1990  147.8860 C   0  0  0  0  0  3  0  0  0  0  0  0
  1 12  1  0  0  0  0
  2 16  2  0  0  0  0
  2  6  1  0  0  0  0
  3 16  1  0  0  0  0
  4 13  1  0  0  0  0
  6 18  2  0  0  0  0
  7 13  1  0  0  0  0
  9  7  1  0  0  0  0
 10  8  1  0  0  0  0
 11 16  1  6  0  0  0
 11  7  1  0  0  0  0
 11 14  1  0  0  0  0
 12 23  1  1  0  0  0
 12  2  1  0  0  0  0
 13  5  1  1  0  0  0
 14  4  2  0  0  0  0
 15  1  2  0  0  0  0
 15 21  1  0  0  0  0
 17  8  1  0  0  0  0
 17 21  1  0  0  0  0
 18 14  1  0  0  0  0
 19 20  1  0  0  0  0
 19 10  1  0  0  0  0
 20 15  1  0  0  0  0
 21  3  2  0  0  0  0
 22 25  1  0  0  0  0
 23 24  1  0  0  0  0
 25 24  2  0  0  0  0
 26 27  1  0  0  0  0
 26 22  2  0  0  0  0
 27 23  2  0  0  0  0
M  END
>  <MODEL>
4

>  <REMARK>
 VINA RESULT:      -5.0      1.731      5.243
  Name = 
  1 active torsions:
  status: ('A' for Active; 'I' for Inactive)
    1  A    between atoms: C_9  and  C_15
                            x       y       z     vdW  Elec       q    Type
                         _______ _______ _______ _____ _____    ______ ____

>  <TORSDO>
F 1

$$$$
=
 OpenBabel11052423113D

 27 31  0  0  1  0  0  0  0  0999 V2000
  157.9530  213.5520  141.4220 C   0  0  0  0  0  3  0  0  0  0  0  0
  159.5530  212.8550  139.6700 C   0  0  0  0  0  0  0  0  0  0  0  0
  160.6560  212.1920  141.8120 C   0  0  0  0  0  3  0  0  0  0  0  0
  162.9800  212.4780  137.7000 N   0  0  0  0  0  0  0  0  0  0  0  0
  165.0360  212.6850  138.8840 N   0  0  0  0  0  1  0  0  0  0  0  0
  159.6580  213.3540  138.2670 C   0  0  0  0  0  3  0  0  0  0  0  0
  163.0890  211.8060  139.9620 N   0  0  0  0  0  0  0  0  0  0  0  0
  160.8490  213.0290  144.9630 C   0  0  0  0  0  2  0  0  0  0  0  0
  162.5250  210.4590  140.0140 C   0  0  0  0  0  1  0  0  0  0  0  0
  160.2890  214.4530  144.9350 C   0  0  0  0  0  2  0  0  0  0  0  0
  162.0430  212.8280  139.7630 C   0  0  1  0  0  3  0  0  0  0  0  0
  158.1960  212.6170  140.2850 C   0  0  2  0  0  3  0  0  0  0  0  0
  163.8490  211.8680  138.7010 C   0  0  1  0  0  3  0  0  0  0  0  0
  161.9860  213.0110  138.3070 C   0  0  0  0  0  0  0  0  0  0  0  0
  158.6570  213.5180  142.5540 C   0  0  0  0  0  0  0  0  0  0  0  0
  160.6770  212.5880  140.3830 C   0  0  0  0  0  0  0  0  0  0  0  0
  160.0360  212.0310  144.1370 C   0  0  0  0  0  2  0  0  0  0  0  0
  160.7940  213.4110  137.6390 N   0  0  0  0  0  0  0  0  0  0  0  0
  158.7660  214.4530  144.8920 C   0  0  0  0  0  2  0  0  0  0  0  0
  158.2900  214.4440  143.5460 O   0  0  0  0  0  0  0  0  0  0  0  0
  159.7720  212.5420  142.7590 C   0  0  0  0  0  0  0  0  0  0  0  0
  154.8820  212.6280  137.5380 C   0  0  0  0  0  3  0  0  0  0  0  0
  157.0520  212.6050  139.3100 C   0  0  0  0  0  0  0  0  0  0  0  0
  156.6980  211.4410  138.6100 C   0  0  0  0  0  3  0  0  0  0  0  0
  155.6160  211.4530  137.7250 C   0  0  0  0  0  3  0  0  0  0  0  0
  155.2270  213.7880  138.2360 C   0  0  0  0  0  3  0  0  0  0  0  0
  156.3090  213.7760  139.1220 C   0  0  0  0  0  3  0  0  0  0  0  0
  1 15  2  0  0  0  0
  2 12  1  0  0  0  0
  2 16  2  0  0  0  0
  3 21  2  0  0  0  0
  4 14  2  0  0  0  0
  4 13  1  0  0  0  0
  6  2  1  0  0  0  0
  7  9  1  0  0  0  0
 10  8  1  0  0  0  0
 11 14  1  6  0  0  0
 11  7  1  0  0  0  0
 11 16  1  0  0  0  0
 12 23  1  6  0  0  0
 12  1  1  0  0  0  0
 13  5  1  1  0  0  0
 13  7  1  0  0  0  0
 15 21  1  0  0  0  0
 15 20  1  0  0  0  0
 16  3  1  0  0  0  0
 17  8  1  0  0  0  0
 18  6  2  0  0  0  0
 18 14  1  0  0  0  0
 19 10  1  0  0  0  0
 20 19  1  0  0  0  0
 21 17  1  0  0  0  0
 22 25  2  0  0  0  0
 22 26  1  0  0  0  0
 24 23  2  0  0  0  0
 25 24  1  0  0  0  0
 26 27  2  0  0  0  0
 27 23  1  0  0  0  0
M  END
>  <MODEL>
5

>  <REMARK>
 VINA RESULT:      -4.0      8.858     12.437
  Name = 
  1 active torsions:
  status: ('A' for Active; 'I' for Inactive)
    1  A    between atoms: C_9  and  C_15
                            x       y       z     vdW  Elec       q    Type
                         _______ _______ _______ _____ _____    ______ ____

>  <TORSDO>
F 1

$$$$
=
 OpenBabel11052423113D

 27 31  0  0  1  0  0  0  0  0999 V2000
  160.8770  210.8430  151.6340 C   0  0  0  0  0  3  0  0  0  0  0  0
  161.2830  208.4810  151.0250 C   0  0  0  0  0  0  0  0  0  0  0  0
  162.1480  209.7780  149.0720 C   0  0  0  0  0  3  0  0  0  0  0  0
  161.2620  205.1340  148.8890 N   0  0  0  0  0  0  0  0  0  0  0  0
  161.1040  205.2640  146.5160 N   0  0  0  0  0  1  0  0  0  0  0  0
  160.6150  207.2620  151.5690 C   0  0  0  0  0  3  0  0  0  0  0  0
  162.1950  206.9890  147.7650 N   0  0  0  0  0  0  0  0  0  0  0  0
  161.6890  212.5720  147.4440 C   0  0  0  0  0  2  0  0  0  0  0  0
  163.5640  207.1190  148.2610 C   0  0  0  0  0  1  0  0  0  0  0  0
  160.2990  212.9850  147.9340 C   0  0  0  0  0  2  0  0  0  0  0  0
  161.2060  207.4220  148.7710 C   0  0  1  0  0  3  0  0  0  0  0  0
  161.6560  209.6110  151.9530 C   0  0  2  0  0  3  0  0  0  0  0  0
  161.9470  205.5400  147.6670 C   0  0  1  0  0  3  0  0  0  0  0  0
  160.8520  206.1900  149.4870 C   0  0  0  0  0  0  0  0  0  0  0  0
  161.0150  211.5140  150.4890 C   0  0  0  0  0  0  0  0  0  0  0  0
  161.5830  208.5610  149.7030 C   0  0  0  0  0  0  0  0  0  0  0  0
  162.6170  212.0880  148.5600 C   0  0  0  0  0  2  0  0  0  0  0  0
  160.4300  206.1980  150.8460 N   0  0  0  0  0  0  0  0  0  0  0  0
  160.3650  213.6430  149.3070 C   0  0  0  0  0  2  0  0  0  0  0  0
  160.2330  212.6740  150.3470 O   0  0  0  0  0  0  0  0  0  0  0  0
  161.9560  211.0610  149.4190 C   0  0  0  0  0  0  0  0  0  0  0  0
  161.5670  208.6840  156.1550 C   0  0  0  0  0  3  0  0  0  0  0  0
  161.6030  209.2730  153.4160 C   0  0  0  0  0  0  0  0  0  0  0  0
  161.2250  207.9960  153.8600 C   0  0  0  0  0  3  0  0  0  0  0  0
  161.2060  207.7030  155.2270 C   0  0  0  0  0  3  0  0  0  0  0  0
  161.9500  209.9550  155.7180 C   0  0  0  0  0  3  0  0  0  0  0  0
  161.9700  210.2480  154.3510 C   0  0  0  0  0  3  0  0  0  0  0  0
  1 12  1  0  0  0  0
  2  6  1  0  0  0  0
  2 12  1  0  0  0  0
  3 21  2  0  0  0  0
  3 16  1  0  0  0  0
  4 14  2  0  0  0  0
  7  9  1  0  0  0  0
  7 11  1  0  0  0  0
  8 10  1  0  0  0  0
  8 17  1  0  0  0  0
 10 19  1  0  0  0  0
 11 14  1  1  0  0  0
 11 16  1  0  0  0  0
 12 23  1  1  0  0  0
 13  5  1  6  0  0  0
 13  7  1  0  0  0  0
 13  4  1  0  0  0  0
 14 18  1  0  0  0  0
 15  1  2  0  0  0  0
 16  2  2  0  0  0  0
 17 21  1  0  0  0  0
 18  6  2  0  0  0  0
 19 20  1  0  0  0  0
 20 15  1  0  0  0  0
 21 15  1  0  0  0  0
 23 24  2  0  0  0  0
 23 27  1  0  0  0  0
 24 25  1  0  0  0  0
 25 22  2  0  0  0  0
 26 22  1  0  0  0  0
 27 26  2  0  0  0  0
M  END
>  <MODEL>
6

>  <REMARK>
 VINA RESULT:      -3.9      3.416      6.986
  Name = 
  1 active torsions:
  status: ('A' for Active; 'I' for Inactive)
    1  A    between atoms: C_9  and  C_15
                            x       y       z     vdW  Elec       q    Type
                         _______ _______ _______ _____ _____    ______ ____

>  <TORSDO>
F 1

$$$$
