=
 OpenBabel11062408143D

 32 38  0  0  1  0  0  0  0  0999 V2000
  161.6660  206.8920  152.7570 C   0  0  2  0  0  0  0  0  0  0  0  0
  161.8580  208.1740  150.5920 C   0  0  0  0  0  0  0  0  0  0  0  0
  161.8210  205.6100  153.5470 C   0  0  0  0  0  2  0  0  0  0  0  0
  162.2650  206.9210  151.3470 C   0  0  2  0  0  3  0  0  0  0  0  0
  161.9630  208.1880  149.1950 C   0  0  0  0  0  0  0  0  0  0  0  0
  160.6390  212.9500  150.3690 C   0  0  0  0  0  2  0  0  0  0  0  0
  161.5070  209.3510  151.2640 C   0  0  0  0  0  0  0  0  0  0  0  0
  161.3300  211.7590  148.3150 C   0  0  0  0  0  2  0  0  0  0  0  0
  161.5890  210.5400  149.1460 C   0  0  0  0  0  0  0  0  0  0  0  0
  161.8330  205.6190  150.6520 C   0  0  2  0  0  3  0  0  0  0  0  0
  161.8070  209.3540  148.5070 N   0  0  0  0  0  0  0  0  0  0  0  0
  161.5120  205.7450  149.1550 C   0  0  0  0  0  2  0  0  0  0  0  0
  160.6050  205.1310  151.4030 C   0  0  0  0  0  2  0  0  0  0  0  0
  161.3220  209.3340  152.7260 C   0  0  0  0  0  3  0  0  0  0  0  0
  161.3780  208.2170  153.4800 C   0  0  0  0  0  0  0  0  0  0  0  0
  161.3930  210.5560  150.5470 C   0  0  0  0  0  0  0  0  0  0  0  0
  162.2700  206.9010  148.4840 C   0  0  1  0  0  3  0  0  0  0  0  0
  160.5510  205.8590  152.7460 C   0  0  2  0  0  3  0  0  0  0  0  0
  161.4910  213.0420  149.1150 C   0  0  0  0  0  2  0  0  0  0  0  0
  161.2310  211.8760  151.2730 C   0  0  0  0  0  2  0  0  0  0  0  0
  160.4060  212.2140  155.3250 C   0  0  0  0  0  1  0  0  0  0  0  0
  157.8860  210.8220  155.2770 O   0  0  0  0  0  1  0  0  0  0  0  0
  162.0390  209.7020  157.0350 C   0  0  0  0  0  1  0  0  0  0  0  0
  158.8310  208.6400  155.3800 C   0  0  0  0  0  2  0  0  0  0  0  0
  161.3460  208.5020  154.9880 C   0  0  2  0  0  3  0  0  0  0  0  0
  160.2560  210.7400  155.6940 C   0  0  2  0  0  3  0  0  0  0  0  0
  160.1210  207.8550  155.6450 C   0  0  0  0  0  2  0  0  0  0  0  0
  161.5780  209.9120  155.6010 C   0  0  0  0  0  0  0  0  0  0  0  0
  162.7350  210.6260  154.9150 C   0  0  0  0  0  1  0  0  0  0  0  0
  159.0460  210.1020  154.9760 C   0  0  2  0  0  3  0  0  0  0  0  0
  162.0630  206.9610  147.0840 O   0  0  0  0  0  0  0  0  0  0  0  0
  160.9170  206.2300  146.7280 C   0  0  0  0  0  1  0  0  0  0  0  0
  1 15  1  0  0  0  0
  1  3  1  1  0  0  0
  2  7  1  0  0  0  0
  4  2  1  6  0  0  0
  4  1  1  0  0  0  0
  5  2  2  0  0  0  0
  6 20  1  0  0  0  0
  7 14  1  0  0  0  0
  8 19  1  0  0  0  0
  8  9  1  0  0  0  0
  9 16  1  0  0  0  0
 10 12  1  6  0  0  0
 10  4  1  0  0  0  0
 10 13  1  0  0  0  0
 11  9  2  0  0  0  0
 11  5  1  0  0  0  0
 14 15  2  0  0  0  0
 16  7  2  0  0  0  0
 16 20  1  0  0  0  0
 17 31  1  6  0  0  0
 17 12  1  0  0  0  0
 17  5  1  0  0  0  0
 18 13  1  6  0  0  0
 18  1  1  0  0  0  0
 18  3  1  0  0  0  0
 19  6  1  0  0  0  0
 24 27  1  0  0  0  0
 25 15  1  6  0  0  0
 25 28  1  0  0  0  0
 25 27  1  0  0  0  0
 26 21  1  6  0  0  0
 28 26  1  0  0  0  0
 28 23  1  0  0  0  0
 29 28  1  0  0  0  0
 30 22  1  1  0  0  0
 30 24  1  0  0  0  0
 30 26  1  0  0  0  0
 32 31  1  0  0  0  0
M  END
>  <MODEL>
1

>  <REMARK>
 VINA RESULT:      -5.7      0.000      0.000
  Name = 
  2 active torsions:
  status: ('A' for Active; 'I' for Inactive)
    1  A    between atoms: O_13  and  C_29
    2  A    between atoms: C_16  and  C_27
                            x       y       z     vdW  Elec       q    Type
                         _______ _______ _______ _____ _____    ______ ____

>  <TORSDO>
F 2

$$$$
=
 OpenBabel11062408143D

 32 38  0  0  1  0  0  0  0  0999 V2000
  161.3040  208.9360  152.4450 C   0  0  2  0  0  0  0  0  0  0  0  0
  161.1280  207.0920  150.7310 C   0  0  0  0  0  0  0  0  0  0  0  0
  161.2830  210.4070  152.8040 C   0  0  0  0  0  2  0  0  0  0  0  0
  160.8580  208.5560  151.0280 C   0  0  2  0  0  3  0  0  0  0  0  0
  161.1680  206.6680  149.3960 C   0  0  0  0  0  0  0  0  0  0  0  0
  161.5550  202.3600  152.0610 C   0  0  0  0  0  2  0  0  0  0  0  0
  161.2070  206.1410  151.7540 C   0  0  0  0  0  0  0  0  0  0  0  0
  161.2880  202.9490  149.6740 C   0  0  0  0  0  2  0  0  0  0  0  0
  161.1500  204.3850  150.0750 C   0  0  0  0  0  0  0  0  0  0  0  0
  161.5700  209.5200  150.0630 C   0  0  2  0  0  3  0  0  0  0  0  0
  161.1990  205.3380  149.1000 N   0  0  0  0  0  0  0  0  0  0  0  0
  162.0200  208.9050  148.7290 C   0  0  0  0  0  2  0  0  0  0  0  0
  162.7780  210.0520  150.8180 C   0  0  0  0  0  2  0  0  0  0  0  0
  161.2400  206.5780  153.1620 C   0  0  0  0  0  3  0  0  0  0  0  0
  161.2920  207.8680  153.5500 C   0  0  0  0  0  0  0  0  0  0  0  0
  161.1930  204.7710  151.4360 C   0  0  0  0  0  0  0  0  0  0  0  0
  161.1540  207.7070  148.3100 C   0  0  1  0  0  3  0  0  0  0  0  0
  162.5710  209.7660  152.3050 C   0  0  2  0  0  3  0  0  0  0  0  0
  160.8340  202.0010  150.7730 C   0  0  0  0  0  2  0  0  0  0  0  0
  161.0590  203.7240  152.5230 C   0  0  0  0  0  2  0  0  0  0  0  0
  160.5530  211.8170  155.5940 C   0  0  0  0  0  1  0  0  0  0  0  0
  157.9190  210.7320  155.1690 O   0  0  0  0  0  1  0  0  0  0  0  0
  161.7010  209.0240  157.2610 C   0  0  0  0  0  1  0  0  0  0  0  0
  158.6060  208.4540  155.1990 C   0  0  0  0  0  2  0  0  0  0  0  0
  161.1200  208.0530  155.0630 C   0  0  2  0  0  3  0  0  0  0  0  0
  160.2040  210.3490  155.8260 C   0  0  2  0  0  3  0  0  0  0  0  0
  159.7660  207.5090  155.5340 C   0  0  0  0  0  2  0  0  0  0  0  0
  161.4310  209.3810  155.8080 C   0  0  0  0  0  0  0  0  0  0  0  0
  162.7290  210.0020  155.3060 C   0  0  0  0  0  1  0  0  0  0  0  0
  159.0220  209.9050  154.9370 C   0  0  2  0  0  3  0  0  0  0  0  0
  161.4920  207.1980  147.0320 O   0  0  0  0  0  0  0  0  0  0  0  0
  160.3910  206.5350  146.4640 C   0  0  0  0  0  1  0  0  0  0  0  0
  1  3  1  1  0  0  0
  1 15  1  0  0  0  0
  2  7  1  0  0  0  0
  4  2  1  6  0  0  0
  4  1  1  0  0  0  0
  5  2  2  0  0  0  0
  6 20  1  0  0  0  0
  7 14  1  0  0  0  0
  8  9  1  0  0  0  0
  8 19  1  0  0  0  0
  9 16  1  0  0  0  0
 10 12  1  6  0  0  0
 10 13  1  0  0  0  0
 10  4  1  0  0  0  0
 11  5  1  0  0  0  0
 11  9  2  0  0  0  0
 14 15  2  0  0  0  0
 16  7  2  0  0  0  0
 16 20  1  0  0  0  0
 17 31  1  6  0  0  0
 17 12  1  0  0  0  0
 17  5  1  0  0  0  0
 18 13  1  6  0  0  0
 18  1  1  0  0  0  0
 18  3  1  0  0  0  0
 19  6  1  0  0  0  0
 24 27  1  0  0  0  0
 25 15  1  6  0  0  0
 25 27  1  0  0  0  0
 25 28  1  0  0  0  0
 26 21  1  6  0  0  0
 28 26  1  0  0  0  0
 28 23  1  0  0  0  0
 29 28  1  0  0  0  0
 30 22  1  1  0  0  0
 30 24  1  0  0  0  0
 30 26  1  0  0  0  0
 32 31  1  0  0  0  0
M  END
>  <MODEL>
2

>  <REMARK>
 VINA RESULT:      -5.2      1.538      4.384
  Name = 
  2 active torsions:
  status: ('A' for Active; 'I' for Inactive)
    1  A    between atoms: O_13  and  C_29
    2  A    between atoms: C_16  and  C_27
                            x       y       z     vdW  Elec       q    Type
                         _______ _______ _______ _____ _____    ______ ____

>  <TORSDO>
F 2

$$$$
=
 OpenBabel11062408143D

 32 38  0  0  1  0  0  0  0  0999 V2000
  160.5840  204.1050  149.9310 C   0  0  2  0  0  0  0  0  0  0  0  0
  160.9350  206.3530  151.0240 C   0  0  0  0  0  0  0  0  0  0  0  0
  160.1740  202.6500  150.0140 C   0  0  0  0  0  2  0  0  0  0  0  0
  160.2890  204.9840  151.1520 C   0  0  2  0  0  3  0  0  0  0  0  0
  161.1190  207.1260  152.1780 C   0  0  0  0  0  0  0  0  0  0  0  0
  162.5310  210.2140  148.4000 C   0  0  0  0  0  2  0  0  0  0  0  0
  161.2290  206.9080  149.7740 C   0  0  0  0  0  0  0  0  0  0  0  0
  162.1860  210.4400  150.8380 C   0  0  0  0  0  2  0  0  0  0  0  0
  161.6720  209.0350  150.8650 C   0  0  0  0  0  0  0  0  0  0  0  0
  160.7540  204.1990  152.3900 C   0  0  2  0  0  3  0  0  0  0  0  0
  161.4990  208.4300  152.0760 N   0  0  0  0  0  0  0  0  0  0  0  0
  161.3830  205.0430  153.5090 C   0  0  0  0  0  2  0  0  0  0  0  0
  161.7630  203.1800  151.8850 C   0  0  0  0  0  2  0  0  0  0  0  0
  161.1100  206.0840  148.5570 C   0  0  0  0  0  3  0  0  0  0  0  0
  160.8170  204.7680  148.5650 C   0  0  0  0  0  0  0  0  0  0  0  0
  161.5780  208.2680  149.6790 C   0  0  0  0  0  0  0  0  0  0  0  0
  160.8670  206.4910  153.5170 C   0  0  1  0  0  3  0  0  0  0  0  0
  161.5970  203.0590  150.3700 C   0  0  2  0  0  3  0  0  0  0  0  0
  161.9620  211.1070  149.4890 C   0  0  0  0  0  2  0  0  0  0  0  0
  161.6880  208.9470  148.3300 C   0  0  0  0  0  2  0  0  0  0  0  0
  162.8270  206.2040  144.7930 C   0  0  0  0  0  1  0  0  0  0  0  0
  164.4580  204.0000  145.6730 O   0  0  0  0  0  1  0  0  0  0  0  0
  159.9110  204.3600  144.7840 C   0  0  0  0  0  1  0  0  0  0  0  0
  162.7050  202.8610  146.8100 C   0  0  0  0  0  2  0  0  0  0  0  0
  160.5630  204.1960  147.1630 C   0  0  2  0  0  3  0  0  0  0  0  0
  162.2500  204.8960  145.3310 C   0  0  2  0  0  3  0  0  0  0  0  0
  161.1870  202.8040  147.0140 C   0  0  0  0  0  2  0  0  0  0  0  0
  160.7810  205.0040  145.8530 C   0  0  0  0  0  0  0  0  0  0  0  0
  160.2510  206.4260  145.9890 C   0  0  0  0  0  1  0  0  0  0  0  0
  163.2300  204.2090  146.3070 C   0  0  2  0  0  3  0  0  0  0  0  0
  161.3590  207.2490  154.6070 O   0  0  0  0  0  0  0  0  0  0  0  0
  160.4050  207.2960  155.6380 C   0  0  0  0  0  1  0  0  0  0  0  0
  1  3  1  6  0  0  0
  1 18  1  0  0  0  0
  1  4  1  0  0  0  0
  2  5  1  0  0  0  0
  4  2  1  6  0  0  0
  4 10  1  0  0  0  0
  5 17  1  0  0  0  0
  6 19  1  0  0  0  0
  7  2  2  0  0  0  0
  8  9  1  0  0  0  0
  9 11  1  0  0  0  0
 10 13  1  6  0  0  0
 10 12  1  0  0  0  0
 11  5  2  0  0  0  0
 12 17  1  0  0  0  0
 14 15  2  0  0  0  0
 14  7  1  0  0  0  0
 15  1  1  0  0  0  0
 16  7  1  0  0  0  0
 16  9  2  0  0  0  0
 17 31  1  1  0  0  0
 18  3  1  1  0  0  0
 18 13  1  0  0  0  0
 19  8  1  0  0  0  0
 20  6  1  0  0  0  0
 20 16  1  0  0  0  0
 23 28  1  0  0  0  0
 24 27  1  0  0  0  0
 25 15  1  1  0  0  0
 26 21  1  1  0  0  0
 26 28  1  0  0  0  0
 26 30  1  0  0  0  0
 27 25  1  0  0  0  0
 28 29  1  0  0  0  0
 28 25  1  0  0  0  0
 30 22  1  6  0  0  0
 30 24  1  0  0  0  0
 31 32  1  0  0  0  0
M  END
>  <MODEL>
3

>  <REMARK>
 VINA RESULT:      -4.6      2.368      7.364
  Name = 
  2 active torsions:
  status: ('A' for Active; 'I' for Inactive)
    1  A    between atoms: O_13  and  C_29
    2  A    between atoms: C_16  and  C_27
                            x       y       z     vdW  Elec       q    Type
                         _______ _______ _______ _____ _____    ______ ____

>  <TORSDO>
F 2

$$$$
=
 OpenBabel11062408143D

 32 38  0  0  1  0  0  0  0  0999 V2000
  160.5920  209.3770  155.2190 C   0  0  2  0  0  0  0  0  0  0  0  0
  161.4960  208.7740  152.9410 C   0  0  0  0  0  0  0  0  0  0  0  0
  160.3600  209.0370  156.6760 C   0  0  0  0  0  2  0  0  0  0  0  0
  161.5180  208.4500  154.4240 C   0  0  2  0  0  3  0  0  0  0  0  0
  161.9440  207.8100  152.0290 C   0  0  0  0  0  0  0  0  0  0  0  0
  161.0730  211.9020  149.1480 C   0  0  0  0  0  2  0  0  0  0  0  0
  161.1640  210.0520  152.4780 C   0  0  0  0  0  0  0  0  0  0  0  0
  162.0700  209.6670  148.7960 C   0  0  0  0  0  2  0  0  0  0  0  0
  161.9370  209.4100  150.2650 C   0  0  0  0  0  0  0  0  0  0  0  0
  161.0880  207.0080  154.7440 C   0  0  2  0  0  3  0  0  0  0  0  0
  162.1330  208.1380  150.7210 N   0  0  0  0  0  0  0  0  0  0  0  0
  161.1690  206.0210  153.5700 C   0  0  0  0  0  2  0  0  0  0  0  0
  159.6560  207.0990  155.2430 C   0  0  0  0  0  2  0  0  0  0  0  0
  160.6220  211.0550  153.4130 C   0  0  0  0  0  3  0  0  0  0  0  0
  160.3280  210.8000  154.7040 C   0  0  0  0  0  0  0  0  0  0  0  0
  161.4060  210.3920  151.1340 C   0  0  0  0  0  0  0  0  0  0  0  0
  162.2280  206.4220  152.5320 C   0  0  1  0  0  3  0  0  0  0  0  0
  159.3760  208.5550  155.6190 C   0  0  2  0  0  3  0  0  0  0  0  0
  162.2130  211.1490  148.4850 C   0  0  0  0  0  2  0  0  0  0  0  0
  161.2610  211.8230  150.6580 C   0  0  0  0  0  2  0  0  0  0  0  0
  156.6080  213.2670  154.0730 C   0  0  0  0  0  1  0  0  0  0  0  0
  155.8920  211.4240  156.1670 O   0  0  0  0  0  1  0  0  0  0  0  0
  159.3910  214.4530  155.7320 C   0  0  0  0  0  1  0  0  0  0  0  0
  158.1080  211.1470  156.9900 C   0  0  0  0  0  2  0  0  0  0  0  0
  159.9650  212.0600  155.5020 C   0  0  2  0  0  3  0  0  0  0  0  0
  157.5380  212.9120  155.2310 C   0  0  2  0  0  3  0  0  0  0  0  0
  159.5360  211.7020  156.9300 C   0  0  0  0  0  2  0  0  0  0  0  0
  159.0510  213.1910  154.9550 C   0  0  0  0  0  0  0  0  0  0  0  0
  159.3880  213.5180  153.5050 C   0  0  0  0  0  1  0  0  0  0  0  0
  157.2350  211.5020  155.7830 C   0  0  2  0  0  3  0  0  0  0  0  0
  162.3850  205.4650  151.5000 O   0  0  0  0  0  0  0  0  0  0  0  0
  161.5280  204.3720  151.7150 C   0  0  0  0  0  1  0  0  0  0  0  0
  1 18  1  0  0  0  0
  1  3  1  1  0  0  0
  4  2  1  6  0  0  0
  4 10  1  0  0  0  0
  4  1  1  0  0  0  0
  5 17  1  0  0  0  0
  5  2  2  0  0  0  0
  6 20  1  0  0  0  0
  7  2  1  0  0  0  0
  7 14  1  0  0  0  0
  8  9  1  0  0  0  0
  9 11  2  0  0  0  0
  9 16  1  0  0  0  0
 10 12  1  6  0  0  0
 10 13  1  0  0  0  0
 11  5  1  0  0  0  0
 14 15  2  0  0  0  0
 15  1  1  0  0  0  0
 16  7  2  0  0  0  0
 17 31  1  6  0  0  0
 17 12  1  0  0  0  0
 18 13  1  6  0  0  0
 18  3  1  0  0  0  0
 19  8  1  0  0  0  0
 19  6  1  0  0  0  0
 20 16  1  0  0  0  0
 25 15  1  6  0  0  0
 25 27  1  0  0  0  0
 26 21  1  6  0  0  0
 26 30  1  0  0  0  0
 27 24  1  0  0  0  0
 28 26  1  0  0  0  0
 28 25  1  0  0  0  0
 28 23  1  0  0  0  0
 29 28  1  0  0  0  0
 30 22  1  1  0  0  0
 30 24  1  0  0  0  0
 31 32  1  0  0  0  0
M  END
>  <MODEL>
4

>  <REMARK>
 VINA RESULT:      -4.6      1.872      3.516
  Name = 
  2 active torsions:
  status: ('A' for Active; 'I' for Inactive)
    1  A    between atoms: O_13  and  C_29
    2  A    between atoms: C_16  and  C_27
                            x       y       z     vdW  Elec       q    Type
                         _______ _______ _______ _____ _____    ______ ____

>  <TORSDO>
F 2

$$$$
=
 OpenBabel11062408143D

 32 38  0  0  1  0  0  0  0  0999 V2000
  161.0830  209.9670  153.3070 C   0  0  2  0  0  0  0  0  0  0  0  0
  161.5810  210.3230  150.8590 C   0  0  0  0  0  0  0  0  0  0  0  0
  161.2290  209.1550  154.5760 C   0  0  0  0  0  2  0  0  0  0  0  0
  161.9740  209.5780  152.1220 C   0  0  2  0  0  3  0  0  0  0  0  0
  161.9940  209.8190  149.6180 C   0  0  0  0  0  0  0  0  0  0  0  0
  159.8090  214.2590  148.4670 C   0  0  0  0  0  2  0  0  0  0  0  0
  160.9330  211.5620  150.9130 C   0  0  0  0  0  0  0  0  0  0  0  0
  161.0980  212.5460  147.2340 C   0  0  0  0  0  2  0  0  0  0  0  0
  161.3260  211.8290  148.5290 C   0  0  0  0  0  0  0  0  0  0  0  0
  161.8890  208.0480  151.9840 C   0  0  2  0  0  3  0  0  0  0  0  0
  161.8410  210.5660  148.4890 N   0  0  0  0  0  0  0  0  0  0  0  0
  161.8980  207.5150  150.5440 C   0  0  0  0  0  2  0  0  0  0  0  0
  160.6020  207.6360  152.6780 C   0  0  0  0  0  2  0  0  0  0  0  0
  160.4280  212.0710  152.2010 C   0  0  0  0  0  3  0  0  0  0  0  0
  160.4640  211.3730  153.3530 C   0  0  0  0  0  0  0  0  0  0  0  0
  160.8210  212.3420  149.7470 C   0  0  0  0  0  0  0  0  0  0  0  0
  162.6240  208.4560  149.5700 C   0  0  1  0  0  3  0  0  0  0  0  0
  160.1490  208.7960  153.5660 C   0  0  2  0  0  3  0  0  0  0  0  0
  160.9010  214.0410  147.4340 C   0  0  0  0  0  2  0  0  0  0  0  0
  160.3220  213.7710  149.8170 C   0  0  0  0  0  2  0  0  0  0  0  0
  156.4330  213.3080  153.9250 C   0  0  0  0  0  1  0  0  0  0  0  0
  156.1950  210.7650  155.2530 O   0  0  0  0  0  1  0  0  0  0  0  0
  159.2380  214.2480  155.7000 C   0  0  0  0  0  1  0  0  0  0  0  0
  158.5100  210.5570  155.7610 C   0  0  0  0  0  2  0  0  0  0  0  0
  160.0560  212.2030  154.5780 C   0  0  2  0  0  3  0  0  0  0  0  0
  157.5310  212.7180  154.8060 C   0  0  2  0  0  3  0  0  0  0  0  0
  159.8460  211.3090  155.8050 C   0  0  0  0  0  2  0  0  0  0  0  0
  158.9560  213.3010  154.5440 C   0  0  0  0  0  0  0  0  0  0  0  0
  159.0760  214.1610  153.2910 C   0  0  0  0  0  1  0  0  0  0  0  0
  157.4620  211.1750  154.8290 C   0  0  2  0  0  3  0  0  0  0  0  0
  162.7310  207.9250  148.2610 O   0  0  0  0  0  0  0  0  0  0  0  0
  161.7520  206.9380  148.0540 C   0  0  0  0  0  1  0  0  0  0  0  0
  1 15  1  0  0  0  0
  1 18  1  0  0  0  0
  1  3  1  1  0  0  0
  2  7  1  0  0  0  0
  4  2  1  6  0  0  0
  4  1  1  0  0  0  0
  5  2  2  0  0  0  0
  6 20  1  0  0  0  0
  7 14  1  0  0  0  0
  8 19  1  0  0  0  0
  8  9  1  0  0  0  0
  9 16  1  0  0  0  0
 10 12  1  6  0  0  0
 10  4  1  0  0  0  0
 10 13  1  0  0  0  0
 11  9  2  0  0  0  0
 11  5  1  0  0  0  0
 14 15  2  0  0  0  0
 16 20  1  0  0  0  0
 16  7  2  0  0  0  0
 17 31  1  6  0  0  0
 17  5  1  0  0  0  0
 17 12  1  0  0  0  0
 18 13  1  6  0  0  0
 18  3  1  0  0  0  0
 19  6  1  0  0  0  0
 24 27  1  0  0  0  0
 25 15  1  6  0  0  0
 25 27  1  0  0  0  0
 26 21  1  6  0  0  0
 26 30  1  0  0  0  0
 28 25  1  0  0  0  0
 28 26  1  0  0  0  0
 28 23  1  0  0  0  0
 29 28  1  0  0  0  0
 30 22  1  1  0  0  0
 30 24  1  0  0  0  0
 32 31  1  0  0  0  0
M  END
>  <MODEL>
5

>  <REMARK>
 VINA RESULT:      -4.4      1.664      2.945
  Name = 
  2 active torsions:
  status: ('A' for Active; 'I' for Inactive)
    1  A    between atoms: O_13  and  C_29
    2  A    between atoms: C_16  and  C_27
                            x       y       z     vdW  Elec       q    Type
                         _______ _______ _______ _____ _____    ______ ____

>  <TORSDO>
F 2

$$$$
=
 OpenBabel11062408143D

 32 38  0  0  1  0  0  0  0  0999 V2000
  160.9110  209.1570  152.9200 C   0  0  2  0  0  0  0  0  0  0  0  0
  160.3030  211.3260  151.7820 C   0  0  0  0  0  0  0  0  0  0  0  0
  160.6930  208.1410  154.0220 C   0  0  0  0  0  2  0  0  0  0  0  0
  159.8590  210.2620  152.7710 C   0  0  2  0  0  3  0  0  0  0  0  0
  159.6840  212.5830  151.8160 C   0  0  0  0  0  0  0  0  0  0  0  0
  162.7080  212.8170  147.7400 C   0  0  0  0  0  2  0  0  0  0  0  0
  161.2150  211.0390  150.7610 C   0  0  0  0  0  0  0  0  0  0  0  0
  160.9690  214.2620  148.7410 C   0  0  0  0  0  2  0  0  0  0  0  0
  160.6940  213.1840  149.7440 C   0  0  0  0  0  0  0  0  0  0  0  0
  159.5860  210.8120  154.1810 C   0  0  2  0  0  3  0  0  0  0  0  0
  159.9070  213.4830  150.8180 N   0  0  0  0  0  0  0  0  0  0  0  0
  159.3370  212.3250  154.2630 C   0  0  0  0  0  2  0  0  0  0  0  0
  160.8010  210.4440  155.0170 C   0  0  0  0  0  2  0  0  0  0  0  0
  161.9280  209.7480  150.7530 C   0  0  0  0  0  3  0  0  0  0  0  0
  161.8320  208.8290  151.7350 C   0  0  0  0  0  0  0  0  0  0  0  0
  161.4020  211.9590  149.7130 C   0  0  0  0  0  0  0  0  0  0  0  0
  158.7620  212.9000  152.9590 C   0  0  1  0  0  3  0  0  0  0  0  0
  161.5760  209.3550  154.2740 C   0  0  2  0  0  3  0  0  0  0  0  0
  161.5130  213.7030  147.4350 C   0  0  0  0  0  2  0  0  0  0  0  0
  162.2130  211.5860  148.4900 C   0  0  0  0  0  2  0  0  0  0  0  0
  159.6720  205.0070  150.7120 C   0  0  0  0  0  1  0  0  0  0  0  0
  160.1950  206.2330  148.1600 O   0  0  0  0  0  1  0  0  0  0  0  0
  162.9750  205.0920  151.7040 C   0  0  0  0  0  1  0  0  0  0  0  0
  162.1310  207.4200  148.8710 C   0  0  0  0  0  2  0  0  0  0  0  0
  162.5180  207.5000  151.3900 C   0  0  2  0  0  3  0  0  0  0  0  0
  160.9980  205.6770  150.3600 C   0  0  2  0  0  3  0  0  0  0  0  0
  163.1610  207.5570  149.9990 C   0  0  0  0  0  2  0  0  0  0  0  0
  161.8520  206.1110  151.5950 C   0  0  0  0  0  0  0  0  0  0  0  0
  161.1260  206.0420  152.9330 C   0  0  0  0  0  1  0  0  0  0  0  0
  160.8060  206.7770  149.2930 C   0  0  2  0  0  3  0  0  0  0  0  0
  158.4300  214.2730  153.0570 O   0  0  0  0  0  0  0  0  0  0  0  0
  157.0420  214.4500  152.9230 C   0  0  0  0  0  1  0  0  0  0  0  0
  1  3  1  1  0  0  0
  1 18  1  0  0  0  0
  2  5  1  0  0  0  0
  4  2  1  6  0  0  0
  4  1  1  0  0  0  0
  4 10  1  0  0  0  0
  5 17  1  0  0  0  0
  6 20  1  0  0  0  0
  7  2  2  0  0  0  0
  8  9  1  0  0  0  0
  9 11  1  0  0  0  0
 10 12  1  6  0  0  0
 10 13  1  0  0  0  0
 11  5  2  0  0  0  0
 14  7  1  0  0  0  0
 14 15  2  0  0  0  0
 15  1  1  0  0  0  0
 16  9  2  0  0  0  0
 16  7  1  0  0  0  0
 17 31  1  1  0  0  0
 17 12  1  0  0  0  0
 18  3  1  1  0  0  0
 18 13  1  0  0  0  0
 19  6  1  0  0  0  0
 19  8  1  0  0  0  0
 20 16  1  0  0  0  0
 24 30  1  0  0  0  0
 24 27  1  0  0  0  0
 25 28  1  0  0  0  0
 25 15  1  6  0  0  0
 26 21  1  1  0  0  0
 26 28  1  0  0  0  0
 27 25  1  0  0  0  0
 28 23  1  0  0  0  0
 28 29  1  0  0  0  0
 30 22  1  6  0  0  0
 30 26  1  0  0  0  0
 32 31  1  0  0  0  0
M  END
>  <MODEL>
6

>  <REMARK>
 VINA RESULT:      -4.3      1.912      5.849
  Name = 
  2 active torsions:
  status: ('A' for Active; 'I' for Inactive)
    1  A    between atoms: O_13  and  C_29
    2  A    between atoms: C_16  and  C_27
                            x       y       z     vdW  Elec       q    Type
                         _______ _______ _______ _____ _____    ______ ____

>  <TORSDO>
F 2

$$$$
=
 OpenBabel11062408143D

 32 38  0  0  1  0  0  0  0  0999 V2000
  161.3870  208.8510  153.0510 C   0  0  2  0  0  0  0  0  0  0  0  0
  161.7870  209.5570  150.6610 C   0  0  0  0  0  0  0  0  0  0  0  0
  161.5450  207.8450  154.1710 C   0  0  0  0  0  2  0  0  0  0  0  0
  162.1950  208.6050  151.7720 C   0  0  2  0  0  3  0  0  0  0  0  0
  162.1100  209.2310  149.3370 C   0  0  0  0  0  0  0  0  0  0  0  0
  160.1380  213.9010  149.0020 C   0  0  0  0  0  2  0  0  0  0  0  0
  161.2170  210.8040  150.9400 C   0  0  0  0  0  0  0  0  0  0  0  0
  161.2620  212.3370  147.4510 C   0  0  0  0  0  2  0  0  0  0  0  0
  161.5100  211.4180  148.6070 C   0  0  0  0  0  0  0  0  0  0  0  0
  162.0130  207.1220  151.4070 C   0  0  2  0  0  3  0  0  0  0  0  0
  161.9460  210.1510  148.3460 N   0  0  0  0  0  0  0  0  0  0  0  0
  161.9210  206.8190  149.9040 C   0  0  0  0  0  2  0  0  0  0  0  0
  160.7380  206.6730  152.1020 C   0  0  0  0  0  2  0  0  0  0  0  0
  160.8060  211.1320  152.3170 C   0  0  0  0  0  3  0  0  0  0  0  0
  160.8550  210.2620  153.3460 C   0  0  0  0  0  0  0  0  0  0  0  0
  161.0950  211.7600  149.9150 C   0  0  0  0  0  0  0  0  0  0  0  0
  162.6550  207.8610  149.0460 C   0  0  1  0  0  3  0  0  0  0  0  0
  160.3990  207.7020  153.1800 C   0  0  2  0  0  3  0  0  0  0  0  0
  161.1640  213.7910  147.8870 C   0  0  0  0  0  2  0  0  0  0  0  0
  160.6860  213.1840  150.2300 C   0  0  0  0  0  2  0  0  0  0  0  0
  159.8880  208.0030  157.1250 C   0  0  0  0  0  1  0  0  0  0  0  0
  162.7320  208.4300  157.2600 O   0  0  0  0  0  1  0  0  0  0  0  0
  159.1600  211.3480  156.6960 C   0  0  0  0  0  1  0  0  0  0  0  0
  162.7260  210.4130  155.9450 C   0  0  0  0  0  2  0  0  0  0  0  0
  160.5560  210.9120  154.7040 C   0  0  2  0  0  3  0  0  0  0  0  0
  160.5560  209.3220  156.7440 C   0  0  2  0  0  3  0  0  0  0  0  0
  161.8300  211.4930  155.3290 C   0  0  0  0  0  2  0  0  0  0  0  0
  159.6990  210.2360  155.8100 C   0  0  0  0  0  0  0  0  0  0  0  0
  158.4630  209.5690  155.2180 C   0  0  0  0  0  1  0  0  0  0  0  0
  162.0080  209.0990  156.2690 C   0  0  2  0  0  3  0  0  0  0  0  0
  162.6660  207.5360  147.6670 O   0  0  0  0  0  0  0  0  0  0  0  0
  162.0460  206.2920  147.4540 C   0  0  0  0  0  1  0  0  0  0  0  0
  1 18  1  0  0  0  0
  1 15  1  0  0  0  0
  1  3  1  1  0  0  0
  2  7  1  0  0  0  0
  4  2  1  6  0  0  0
  4  1  1  0  0  0  0
  5  2  2  0  0  0  0
  6 20  1  0  0  0  0
  7 14  1  0  0  0  0
  8 19  1  0  0  0  0
  8  9  1  0  0  0  0
  9 16  1  0  0  0  0
 10 12  1  6  0  0  0
 10  4  1  0  0  0  0
 10 13  1  0  0  0  0
 11  9  2  0  0  0  0
 11  5  1  0  0  0  0
 14 15  2  0  0  0  0
 16 20  1  0  0  0  0
 16  7  2  0  0  0  0
 17 31  1  6  0  0  0
 17  5  1  0  0  0  0
 17 12  1  0  0  0  0
 18 13  1  6  0  0  0
 18  3  1  0  0  0  0
 19  6  1  0  0  0  0
 24 30  1  0  0  0  0
 25 15  1  6  0  0  0
 25 27  1  0  0  0  0
 25 28  1  0  0  0  0
 26 21  1  6  0  0  0
 27 24  1  0  0  0  0
 28 23  1  0  0  0  0
 28 26  1  0  0  0  0
 29 28  1  0  0  0  0
 30 26  1  0  0  0  0
 30 22  1  1  0  0  0
 32 31  1  0  0  0  0
M  END
>  <MODEL>
7

>  <REMARK>
 VINA RESULT:      -3.2      1.494      2.495
  Name = 
  2 active torsions:
  status: ('A' for Active; 'I' for Inactive)
    1  A    between atoms: O_13  and  C_29
    2  A    between atoms: C_16  and  C_27
                            x       y       z     vdW  Elec       q    Type
                         _______ _______ _______ _____ _____    ______ ____

>  <TORSDO>
F 2

$$$$
