=
 OpenBabel11062410453D

 32 35  0  0  1  0  0  0  0  0999 V2000
  160.9460  206.4000  151.1570 C   0  0  0  0  0  0  0  0  0  0  0  0
  162.0160  210.4680  148.3860 C   0  0  0  0  0  3  0  0  0  0  0  0
  162.2280  211.1760  149.5030 C   0  0  0  0  0  3  0  0  0  0  0  0
  160.9510  206.5210  153.6640 C   0  0  0  0  0  0  0  0  0  0  0  0
  160.9920  207.3650  154.8320 N   0  0  0  0  0  0  0  0  0  0  0  0
  161.1360  204.0750  150.2630 C   0  0  1  0  0  3  0  0  0  0  0  0
  161.9070  206.0150  148.8890 C   0  0  0  0  0  2  0  0  0  0  0  0
  161.7620  209.5590  155.6390 C   0  0  0  0  0  0  0  0  0  0  0  0
  161.5830  209.0270  148.4160 C   0  0  0  0  0  2  0  0  0  0  0  0
  161.1430  206.9970  149.7770 C   0  0  2  0  0  3  0  0  0  0  0  0
  161.8580  208.3470  149.7620 C   0  0  2  0  0  3  0  0  0  0  0  0
  161.5820  208.5620  152.2470 C   0  0  1  0  0  3  0  0  0  0  0  0
  162.2460  209.0080  156.9370 C   0  0  0  0  0  1  0  0  0  0  0  0
  161.2180  204.6520  148.8470 C   0  0  1  0  0  3  0  0  0  0  0  0
  160.5760  206.8000  156.1120 C   0  0  0  0  0  1  0  0  0  0  0  0
  162.1600  210.5570  150.8720 C   0  0  0  0  0  2  0  0  0  0  0  0
  161.3660  209.2440  150.8960 C   0  0  1  0  0  3  0  0  0  0  0  0
  160.9070  209.3810  153.3420 C   0  0  0  0  0  2  0  0  0  0  0  0
  160.3500  205.0190  151.1710 C   0  0  0  0  0  2  0  0  0  0  0  0
  160.8030  205.2770  153.8130 O   0  0  0  0  0  0  0  0  0  0  0  0
  161.9560  210.9530  155.4080 N   0  0  0  0  0  1  0  0  0  0  0  0
  161.1130  207.1180  152.2980 C   0  0  0  0  0  0  0  0  0  0  0  0
  161.2230  208.7820  154.6750 C   0  0  0  0  0  0  0  0  0  0  0  0
  161.1770  202.0650  151.1950 C   0  0  0  0  0  1  0  0  0  0  0  0
  160.5000  202.8300  150.2420 O   0  0  0  0  0  0  0  0  0  0  0  0
  162.0030  203.7160  147.9360 C   0  0  0  0  0  2  0  0  0  0  0  0
  161.1080  203.1050  146.8690 C   0  0  0  0  0  2  0  0  0  0  0  0
  161.6610  203.3970  145.4870 C   0  0  0  0  0  2  0  0  0  0  0  0
  160.6870  204.2840  144.7290 C   0  0  0  0  0  2  0  0  0  0  0  0
  161.0590  205.7570  144.8480 C   0  0  0  0  0  3  0  0  0  0  0  0
  160.2140  206.4030  145.7510 O   0  0  0  0  0  1  0  0  0  0  0  0
  162.3860  205.8930  145.2600 O   0  0  0  0  0  1  0  0  0  0  0  0
  1 19  1  0  0  0  0
  1 22  2  0  0  0  0
  2  9  1  0  0  0  0
  2  3  2  0  0  0  0
  3 16  1  0  0  0  0
  4 20  2  0  0  0  0
  4  5  1  0  0  0  0
  5 15  1  0  0  0  0
  6 25  1  6  0  0  0
  6 19  1  0  0  0  0
  8 13  1  0  0  0  0
 10  7  1  6  0  0  0
 10  1  1  0  0  0  0
 11  9  1  6  0  0  0
 11 10  1  0  0  0  0
 11 17  1  0  0  0  0
 12 22  1  0  0  0  0
 12 18  1  1  0  0  0
 14 26  1  6  0  0  0
 14  7  1  0  0  0  0
 14  6  1  0  0  0  0
 17 16  1  1  0  0  0
 17 12  1  0  0  0  0
 18 23  1  0  0  0  0
 21  8  1  0  0  0  0
 22  4  1  0  0  0  0
 23  5  1  0  0  0  0
 23  8  2  0  0  0  0
 25 24  1  0  0  0  0
 27 26  1  0  0  0  0
 28 27  1  0  0  0  0
 29 30  1  0  0  0  0
 29 28  1  0  0  0  0
 30 32  1  0  0  0  0
 30 31  1  0  0  0  0
M  END
>  <MODEL>
1

>  <REMARK>
 VINA RESULT:      -8.6      0.000      0.000
  Name = 
  6 active torsions:
  status: ('A' for Active; 'I' for Inactive)
    1  A    between atoms: C_1  and  C_10
    2  A    between atoms: C_2  and  C_12
    3  A    between atoms: C_2  and  C_24
    4  A    between atoms: C_8  and  O_23
    5  A    between atoms: C_10  and  C_24
    6  A    between atoms: C_12  and  C_21
                            x       y       z     vdW  Elec       q    Type
                         _______ _______ _______ _____ _____    ______ ____

>  <TORSDO>
F 6

$$$$
=
 OpenBabel11062410453D

 32 35  0  0  1  0  0  0  0  0999 V2000
  161.0460  209.9170  152.0710 C   0  0  0  0  0  0  0  0  0  0  0  0
  160.8380  206.6400  155.8910 C   0  0  0  0  0  3  0  0  0  0  0  0
  160.0450  207.4780  156.5710 C   0  0  0  0  0  3  0  0  0  0  0  0
  159.8730  212.1310  152.2190 C   0  0  0  0  0  0  0  0  0  0  0  0
  159.1890  213.0810  153.0600 N   0  0  0  0  0  0  0  0  0  0  0  0
  161.5980  209.2260  149.7340 C   0  0  1  0  0  3  0  0  0  0  0  0
  161.2940  207.4980  151.5150 C   0  0  0  0  0  2  0  0  0  0  0  0
  157.8510  213.2710  155.1170 C   0  0  0  0  0  0  0  0  0  0  0  0
  161.3960  206.9800  154.5360 C   0  0  0  0  0  2  0  0  0  0  0  0
  161.4270  208.5530  152.6150 C   0  0  2  0  0  3  0  0  0  0  0  0
  160.6270  208.1060  153.8360 C   0  0  2  0  0  3  0  0  0  0  0  0
  159.7000  210.4200  154.1210 C   0  0  1  0  0  3  0  0  0  0  0  0
  156.9030  214.2500  154.5130 C   0  0  0  0  0  1  0  0  0  0  0  0
  162.1000  207.8840  150.2760 C   0  0  1  0  0  3  0  0  0  0  0  0
  159.0420  214.4520  152.5810 C   0  0  0  0  0  1  0  0  0  0  0  0
  159.5590  208.7760  155.9860 C   0  0  0  0  0  2  0  0  0  0  0  0
  160.4190  209.2620  154.8130 C   0  0  1  0  0  3  0  0  0  0  0  0
  159.6810  211.6320  155.0480 C   0  0  0  0  0  2  0  0  0  0  0  0
  161.7460  210.3110  150.8000 C   0  0  0  0  0  2  0  0  0  0  0  0
  160.1000  212.4320  151.0150 O   0  0  0  0  0  0  0  0  0  0  0  0
  157.6020  212.8640  156.4610 N   0  0  0  0  0  1  0  0  0  0  0  0
  160.2800  210.7960  152.7680 C   0  0  0  0  0  0  0  0  0  0  0  0
  158.8700  212.7220  154.4220 C   0  0  0  0  0  0  0  0  0  0  0  0
  162.2620  210.9910  148.5710 C   0  0  0  0  0  1  0  0  0  0  0  0
  162.3310  209.5960  148.6030 O   0  0  0  0  0  0  0  0  0  0  0  0
  161.9530  206.7970  149.2180 C   0  0  0  0  0  2  0  0  0  0  0  0
  160.9120  205.7660  149.6270 C   0  0  0  0  0  2  0  0  0  0  0  0
  161.1740  204.4460  148.9250 C   0  0  0  0  0  2  0  0  0  0  0  0
  160.7670  203.3000  149.8360 C   0  0  0  0  0  2  0  0  0  0  0  0
  160.5230  202.0170  149.0520 C   0  0  0  0  0  3  0  0  0  0  0  0
  160.9210  202.1740  147.7230 O   0  0  0  0  0  1  0  0  0  0  0  0
  161.2140  200.9510  149.6310 O   0  0  0  0  0  1  0  0  0  0  0  0
  1 10  1  0  0  0  0
  1 22  2  0  0  0  0
  2  3  2  0  0  0  0
  4 22  1  0  0  0  0
  4  5  1  0  0  0  0
  5 23  1  0  0  0  0
  6 25  1  6  0  0  0
  6 14  1  0  0  0  0
  6 19  1  0  0  0  0
  8 21  1  0  0  0  0
  9  2  1  0  0  0  0
 10  7  1  6  0  0  0
 10 11  1  0  0  0  0
 11  9  1  1  0  0  0
 11 17  1  0  0  0  0
 12 17  1  0  0  0  0
 12 18  1  1  0  0  0
 13  8  1  0  0  0  0
 14 26  1  6  0  0  0
 14  7  1  0  0  0  0
 15  5  1  0  0  0  0
 16  3  1  0  0  0  0
 17 16  1  1  0  0  0
 19  1  1  0  0  0  0
 20  4  2  0  0  0  0
 22 12  1  0  0  0  0
 23 18  1  0  0  0  0
 23  8  2  0  0  0  0
 24 25  1  0  0  0  0
 26 27  1  0  0  0  0
 28 27  1  0  0  0  0
 28 29  1  0  0  0  0
 30 32  1  0  0  0  0
 30 29  1  0  0  0  0
 31 30  1  0  0  0  0
M  END
>  <MODEL>
2

>  <REMARK>
 VINA RESULT:      -7.6      3.035      5.697
  Name = 
  6 active torsions:
  status: ('A' for Active; 'I' for Inactive)
    1  A    between atoms: C_1  and  C_10
    2  A    between atoms: C_2  and  C_12
    3  A    between atoms: C_2  and  C_24
    4  A    between atoms: C_8  and  O_23
    5  A    between atoms: C_10  and  C_24
    6  A    between atoms: C_12  and  C_21
                            x       y       z     vdW  Elec       q    Type
                         _______ _______ _______ _____ _____    ______ ____

>  <TORSDO>
F 6

$$$$
=
 OpenBabel11062410453D

 32 35  0  0  1  0  0  0  0  0999 V2000
  161.2140  207.1070  152.8440 C   0  0  0  0  0  0  0  0  0  0  0  0
  162.0580  210.7560  149.4750 C   0  0  0  0  0  3  0  0  0  0  0  0
  162.0110  209.8560  148.4850 C   0  0  0  0  0  3  0  0  0  0  0  0
  160.9870  204.7170  152.1120 C   0  0  0  0  0  0  0  0  0  0  0  0
  161.1430  203.7610  151.0440 N   0  0  0  0  0  0  0  0  0  0  0  0
  160.2580  207.5600  155.1070 C   0  0  1  0  0  3  0  0  0  0  0  0
  160.4260  209.4010  153.4250 C   0  0  0  0  0  2  0  0  0  0  0  0
  161.1760  203.5500  148.5920 C   0  0  0  0  0  0  0  0  0  0  0  0
  161.9110  210.3700  150.9220 C   0  0  0  0  0  2  0  0  0  0  0  0
  161.4050  208.5870  152.5760 C   0  0  2  0  0  3  0  0  0  0  0  0
  161.2570  208.9960  151.1120 C   0  0  2  0  0  3  0  0  0  0  0  0
  161.3270  206.5920  150.3970 C   0  0  1  0  0  3  0  0  0  0  0  0
  160.3840  202.2860  148.6050 C   0  0  0  0  0  1  0  0  0  0  0  0
  160.5510  209.0500  154.9060 C   0  0  1  0  0  3  0  0  0  0  0  0
  161.1760  202.3420  151.3820 C   0  0  0  0  0  1  0  0  0  0  0  0
  161.6940  208.4070  148.7310 C   0  0  0  0  0  2  0  0  0  0  0  0
  161.9270  207.9820  150.1870 C   0  0  1  0  0  3  0  0  0  0  0  0
  162.1410  205.5650  149.6140 C   0  0  0  0  0  2  0  0  0  0  0  0
  161.2400  206.7170  154.2970 C   0  0  0  0  0  2  0  0  0  0  0  0
  160.6380  204.3080  153.2530 O   0  0  0  0  0  0  0  0  0  0  0  0
  161.5470  204.0760  147.3200 N   0  0  0  0  0  1  0  0  0  0  0  0
  161.2090  206.1780  151.8540 C   0  0  0  0  0  0  0  0  0  0  0  0
  161.4810  204.2270  149.7200 C   0  0  0  0  0  0  0  0  0  0  0  0
  161.5940  207.7720  156.8610 C   0  0  0  0  0  1  0  0  0  0  0  0
  160.3760  207.2220  156.4580 O   0  0  0  0  0  0  0  0  0  0  0  0
  159.5740  209.8970  155.7120 C   0  0  0  0  0  2  0  0  0  0  0  0
  159.6510  211.3620  155.3100 C   0  0  0  0  0  2  0  0  0  0  0  0
  158.3060  212.0350  155.5100 C   0  0  0  0  0  2  0  0  0  0  0  0
  157.2870  211.4200  154.5650 C   0  0  0  0  0  2  0  0  0  0  0  0
  155.8980  211.3760  155.1880 C   0  0  0  0  0  3  0  0  0  0  0  0
  155.2480  210.1890  154.8490 O   0  0  0  0  0  1  0  0  0  0  0  0
  155.9820  211.4900  156.5770 O   0  0  0  0  0  1  0  0  0  0  0  0
  1 19  1  0  0  0  0
  2  9  1  0  0  0  0
  3 16  1  0  0  0  0
  3  2  2  0  0  0  0
  4 20  2  0  0  0  0
  5 15  1  0  0  0  0
  5  4  1  0  0  0  0
  6 25  1  1  0  0  0
  7 14  1  0  0  0  0
  8 13  1  0  0  0  0
  8 23  2  0  0  0  0
 10  1  1  0  0  0  0
 10  7  1  1  0  0  0
 11  9  1  1  0  0  0
 11 10  1  0  0  0  0
 12 18  1  6  0  0  0
 12 22  1  0  0  0  0
 14  6  1  0  0  0  0
 14 26  1  1  0  0  0
 17 16  1  6  0  0  0
 17 12  1  0  0  0  0
 17 11  1  0  0  0  0
 18 23  1  0  0  0  0
 19  6  1  0  0  0  0
 21  8  1  0  0  0  0
 22  4  1  0  0  0  0
 22  1  2  0  0  0  0
 23  5  1  0  0  0  0
 25 24  1  0  0  0  0
 27 28  1  0  0  0  0
 27 26  1  0  0  0  0
 29 30  1  0  0  0  0
 29 28  1  0  0  0  0
 30 32  1  0  0  0  0
 31 30  1  0  0  0  0
M  END
>  <MODEL>
3

>  <REMARK>
 VINA RESULT:      -7.6      3.216      7.625
  Name = 
  6 active torsions:
  status: ('A' for Active; 'I' for Inactive)
    1  A    between atoms: C_1  and  C_10
    2  A    between atoms: C_2  and  C_12
    3  A    between atoms: C_2  and  C_24
    4  A    between atoms: C_8  and  O_23
    5  A    between atoms: C_10  and  C_24
    6  A    between atoms: C_12  and  C_21
                            x       y       z     vdW  Elec       q    Type
                         _______ _______ _______ _____ _____    ______ ____

>  <TORSDO>
F 6

$$$$
=
 OpenBabel11062410453D

 32 35  0  0  1  0  0  0  0  0999 V2000
  161.1840  207.1290  152.9080 C   0  0  0  0  0  0  0  0  0  0  0  0
  161.9880  210.8140  149.5680 C   0  0  0  0  0  3  0  0  0  0  0  0
  161.9570  209.9200  148.5710 C   0  0  0  0  0  3  0  0  0  0  0  0
  160.9930  204.7410  152.1580 C   0  0  0  0  0  0  0  0  0  0  0  0
  161.1650  203.7950  151.0830 N   0  0  0  0  0  0  0  0  0  0  0  0
  160.2150  207.5520  155.1710 C   0  0  1  0  0  3  0  0  0  0  0  0
  160.3630  209.4070  153.5020 C   0  0  0  0  0  2  0  0  0  0  0  0
  161.2080  203.6020  148.6300 C   0  0  0  0  0  0  0  0  0  0  0  0
  161.8420  210.4140  151.0120 C   0  0  0  0  0  2  0  0  0  0  0  0
  161.3560  208.6130  152.6510 C   0  0  2  0  0  3  0  0  0  0  0  0
  161.2070  209.0310  151.1890 C   0  0  2  0  0  3  0  0  0  0  0  0
  161.3120  206.6330  150.4570 C   0  0  1  0  0  3  0  0  0  0  0  0
  160.4340  202.3280  148.6310 C   0  0  0  0  0  1  0  0  0  0  0  0
  160.4890  209.0470  154.9820 C   0  0  1  0  0  3  0  0  0  0  0  0
  161.2170  202.3750  151.4110 C   0  0  0  0  0  1  0  0  0  0  0  0
  161.6590  208.4640  148.8050 C   0  0  0  0  0  2  0  0  0  0  0  0
  161.8930  208.0330  150.2590 C   0  0  1  0  0  3  0  0  0  0  0  0
  162.1420  205.6230  149.6700 C   0  0  0  0  0  2  0  0  0  0  0  0
  161.2120  206.7290  154.3570 C   0  0  0  0  0  2  0  0  0  0  0  0
  160.6460  204.3190  153.2950 O   0  0  0  0  0  0  0  0  0  0  0  0
  161.5760  204.1420  147.3630 N   0  0  0  0  0  1  0  0  0  0  0  0
  161.1960  206.2060  151.9110 C   0  0  0  0  0  0  0  0  0  0  0  0
  161.5010  204.2750  149.7630 C   0  0  0  0  0  0  0  0  0  0  0  0
  161.5790  207.7030  156.9100 C   0  0  0  0  0  1  0  0  0  0  0  0
  160.3340  207.2060  156.5200 O   0  0  0  0  0  0  0  0  0  0  0  0
  159.4970  209.8750  155.7900 C   0  0  0  0  0  2  0  0  0  0  0  0
  159.2470  211.2270  155.1400 C   0  0  0  0  0  2  0  0  0  0  0  0
  157.7630  211.5450  155.1380 C   0  0  0  0  0  2  0  0  0  0  0  0
  157.4170  212.3370  153.8890 C   0  0  0  0  0  2  0  0  0  0  0  0
  158.6630  212.7160  153.0990 C   0  0  0  0  0  3  0  0  0  0  0  0
  158.5940  212.2060  151.8020 O   0  0  0  0  0  1  0  0  0  0  0  0
  158.8100  214.1030  153.0560 O   0  0  0  0  0  1  0  0  0  0  0  0
  1 19  1  0  0  0  0
  2  9  1  0  0  0  0
  3 16  1  0  0  0  0
  3  2  2  0  0  0  0
  4 20  2  0  0  0  0
  5 15  1  0  0  0  0
  5  4  1  0  0  0  0
  6 25  1  1  0  0  0
  7 14  1  0  0  0  0
  8 13  1  0  0  0  0
  8 23  2  0  0  0  0
 10  1  1  0  0  0  0
 10  7  1  1  0  0  0
 11  9  1  1  0  0  0
 11 10  1  0  0  0  0
 12 18  1  6  0  0  0
 12 22  1  0  0  0  0
 14  6  1  0  0  0  0
 14 26  1  1  0  0  0
 17 16  1  6  0  0  0
 17 12  1  0  0  0  0
 17 11  1  0  0  0  0
 18 23  1  0  0  0  0
 19  6  1  0  0  0  0
 21  8  1  0  0  0  0
 22  4  1  0  0  0  0
 22  1  2  0  0  0  0
 23  5  1  0  0  0  0
 25 24  1  0  0  0  0
 27 26  1  0  0  0  0
 28 27  1  0  0  0  0
 29 28  1  0  0  0  0
 30 29  1  0  0  0  0
 31 30  1  0  0  0  0
 32 30  1  0  0  0  0
M  END
>  <MODEL>
4

>  <REMARK>
 VINA RESULT:      -7.4      3.221      7.272
  Name = 
  6 active torsions:
  status: ('A' for Active; 'I' for Inactive)
    1  A    between atoms: C_1  and  C_10
    2  A    between atoms: C_2  and  C_12
    3  A    between atoms: C_2  and  C_24
    4  A    between atoms: C_8  and  O_23
    5  A    between atoms: C_10  and  C_24
    6  A    between atoms: C_12  and  C_21
                            x       y       z     vdW  Elec       q    Type
                         _______ _______ _______ _____ _____    ______ ____

>  <TORSDO>
F 6

$$$$
=
 OpenBabel11062410453D

 32 35  0  0  1  0  0  0  0  0999 V2000
  160.9970  206.8000  150.9090 C   0  0  0  0  0  0  0  0  0  0  0  0
  161.9930  211.0450  148.3860 C   0  0  0  0  0  3  0  0  0  0  0  0
  162.2000  211.6870  149.5430 C   0  0  0  0  0  3  0  0  0  0  0  0
  161.0150  206.7680  153.4180 C   0  0  0  0  0  0  0  0  0  0  0  0
  161.0490  207.5400  154.6360 N   0  0  0  0  0  0  0  0  0  0  0  0
  161.2170  204.5370  149.8740 C   0  0  1  0  0  3  0  0  0  0  0  0
  161.9520  206.5680  148.6170 C   0  0  0  0  0  2  0  0  0  0  0  0
  161.7910  209.6920  155.5710 C   0  0  0  0  0  0  0  0  0  0  0  0
  161.5810  209.5990  148.3300 C   0  0  0  0  0  2  0  0  0  0  0  0
  161.1780  207.4830  149.5670 C   0  0  2  0  0  3  0  0  0  0  0  0
  161.8730  208.8420  149.6300 C   0  0  2  0  0  3  0  0  0  0  0  0
  161.6080  208.9010  152.1250 C   0  0  1  0  0  3  0  0  0  0  0  0
  162.2910  209.0710  156.8310 C   0  0  0  0  0  1  0  0  0  0  0  0
  161.2820  205.2000  148.4950 C   0  0  1  0  0  3  0  0  0  0  0  0
  160.6490  206.8920  155.8800 C   0  0  0  0  0  1  0  0  0  0  0  0
  162.1480  210.9840  150.8720 C   0  0  0  0  0  2  0  0  0  0  0  0
  161.3750  209.6610  150.8190 C   0  0  1  0  0  3  0  0  0  0  0  0
  160.9260  209.6420  153.2720 C   0  0  0  0  0  2  0  0  0  0  0  0
  160.4220  205.4120  150.8410 C   0  0  0  0  0  2  0  0  0  0  0  0
  160.8860  205.5150  153.4920 O   0  0  0  0  0  0  0  0  0  0  0  0
  161.9640  211.1000  155.4240 N   0  0  0  0  0  1  0  0  0  0  0  0
  161.1600  207.4500  152.0900 C   0  0  0  0  0  0  0  0  0  0  0  0
  161.2590  208.9670  154.5640 C   0  0  0  0  0  0  0  0  0  0  0  0
  160.8540  202.6670  151.0060 C   0  0  0  0  0  1  0  0  0  0  0  0
  160.6000  203.2860  149.7800 O   0  0  0  0  0  0  0  0  0  0  0  0
  162.0760  204.3330  147.5260 C   0  0  0  0  0  2  0  0  0  0  0  0
  161.3210  204.1310  146.2210 C   0  0  0  0  0  2  0  0  0  0  0  0
  161.6160  202.7570  145.6480 C   0  0  0  0  0  2  0  0  0  0  0  0
  160.7090  201.7300  146.3050 C   0  0  0  0  0  2  0  0  0  0  0  0
  161.5080  200.6210  146.9760 C   0  0  0  0  0  3  0  0  0  0  0  0
  161.2130  200.5610  148.3380 O   0  0  0  0  0  1  0  0  0  0  0  0
  161.2330  199.3900  146.3770 O   0  0  0  0  0  1  0  0  0  0  0  0
  1 22  2  0  0  0  0
  2  3  2  0  0  0  0
  3 16  1  0  0  0  0
  4 20  2  0  0  0  0
  4  5  1  0  0  0  0
  5 15  1  0  0  0  0
  6 25  1  6  0  0  0
  6 19  1  0  0  0  0
  8 13  1  0  0  0  0
  9  2  1  0  0  0  0
 10  7  1  6  0  0  0
 10 11  1  0  0  0  0
 10  1  1  0  0  0  0
 11  9  1  6  0  0  0
 11 17  1  0  0  0  0
 12 18  1  1  0  0  0
 14 26  1  6  0  0  0
 14  7  1  0  0  0  0
 14  6  1  0  0  0  0
 17 16  1  1  0  0  0
 17 12  1  0  0  0  0
 18 23  1  0  0  0  0
 19  1  1  0  0  0  0
 21  8  1  0  0  0  0
 22 12  1  0  0  0  0
 22  4  1  0  0  0  0
 23  5  1  0  0  0  0
 23  8  2  0  0  0  0
 25 24  1  0  0  0  0
 27 26  1  0  0  0  0
 28 27  1  0  0  0  0
 28 29  1  0  0  0  0
 29 30  1  0  0  0  0
 30 31  1  0  0  0  0
 32 30  1  0  0  0  0
M  END
>  <MODEL>
5

>  <REMARK>
 VINA RESULT:      -7.4      1.496      2.051
  Name = 
  6 active torsions:
  status: ('A' for Active; 'I' for Inactive)
    1  A    between atoms: C_1  and  C_10
    2  A    between atoms: C_2  and  C_12
    3  A    between atoms: C_2  and  C_24
    4  A    between atoms: C_8  and  O_23
    5  A    between atoms: C_10  and  C_24
    6  A    between atoms: C_12  and  C_21
                            x       y       z     vdW  Elec       q    Type
                         _______ _______ _______ _____ _____    ______ ____

>  <TORSDO>
F 6

$$$$
=
 OpenBabel11062410453D

 32 35  0  0  1  0  0  0  0  0999 V2000
  161.8080  206.9500  148.9320 C   0  0  0  0  0  0  0  0  0  0  0  0
  161.1200  204.3080  153.1660 C   0  0  0  0  0  3  0  0  0  0  0  0
  160.8780  205.4410  153.8360 C   0  0  0  0  0  3  0  0  0  0  0  0
  161.6560  209.4550  148.9470 C   0  0  0  0  0  0  0  0  0  0  0  0
  161.5880  210.6560  149.7430 N   0  0  0  0  0  0  0  0  0  0  0  0
  161.5530  205.9420  146.6600 C   0  0  1  0  0  3  0  0  0  0  0  0
  160.9690  204.6140  148.6950 C   0  0  0  0  0  2  0  0  0  0  0  0
  160.8840  211.5140  151.9390 C   0  0  0  0  0  0  0  0  0  0  0  0
  161.4760  204.2980  151.7030 C   0  0  0  0  0  2  0  0  0  0  0  0
  161.7270  205.5890  149.5970 C   0  0  2  0  0  3  0  0  0  0  0  0
  161.0850  205.5930  150.9830 C   0  0  2  0  0  3  0  0  0  0  0  0
  161.2190  208.0970  151.0770 C   0  0  1  0  0  3  0  0  0  0  0  0
  160.2940  212.7560  151.3610 C   0  0  0  0  0  1  0  0  0  0  0  0
  161.5880  204.5510  147.3000 C   0  0  1  0  0  3  0  0  0  0  0  0
  161.8950  211.9300  149.1030 C   0  0  0  0  0  1  0  0  0  0  0  0
  160.8300  206.7820  153.1570 C   0  0  0  0  0  2  0  0  0  0  0  0
  161.5520  206.7930  151.8040 C   0  0  1  0  0  3  0  0  0  0  0  0
  161.8680  209.2660  151.8120 C   0  0  0  0  0  2  0  0  0  0  0  0
  162.3310  206.9360  147.5210 C   0  0  0  0  0  2  0  0  0  0  0  0
  161.7300  209.5560  147.6920 O   0  0  0  0  0  0  0  0  0  0  0  0
  160.7770  211.3350  153.3500 N   0  0  0  0  0  1  0  0  0  0  0  0
  161.6090  208.1100  149.6090 C   0  0  0  0  0  0  0  0  0  0  0  0
  161.4400  210.5500  151.1750 C   0  0  0  0  0  0  0  0  0  0  0  0
  161.0400  205.8280  144.5080 C   0  0  0  0  0  1  0  0  0  0  0  0
  162.1240  205.9020  145.3850 O   0  0  0  0  0  0  0  0  0  0  0  0
  160.8130  203.5540  146.4470 C   0  0  0  0  0  2  0  0  0  0  0  0
  161.5810  202.2510  146.2850 C   0  0  0  0  0  2  0  0  0  0  0  0
  160.8240  201.1090  146.9360 C   0  0  0  0  0  2  0  0  0  0  0  0
  161.4700  200.7690  148.2690 C   0  0  0  0  0  2  0  0  0  0  0  0
  160.7710  201.4700  149.4270 C   0  0  0  0  0  3  0  0  0  0  0  0
  159.3870  201.3290  149.3190 O   0  0  0  0  0  1  0  0  0  0  0  0
  161.2060  200.9490  150.6470 O   0  0  0  0  0  1  0  0  0  0  0  0
  1 10  1  0  0  0  0
  1 22  2  0  0  0  0
  2  3  2  0  0  0  0
  4 22  1  0  0  0  0
  4  5  1  0  0  0  0
  5 23  1  0  0  0  0
  6 25  1  6  0  0  0
  6 14  1  0  0  0  0
  6 19  1  0  0  0  0
  8 21  1  0  0  0  0
  9  2  1  0  0  0  0
 10  7  1  6  0  0  0
 10 11  1  0  0  0  0
 11  9  1  1  0  0  0
 11 17  1  0  0  0  0
 12 17  1  0  0  0  0
 12 18  1  1  0  0  0
 13  8  1  0  0  0  0
 14 26  1  6  0  0  0
 14  7  1  0  0  0  0
 15  5  1  0  0  0  0
 16  3  1  0  0  0  0
 17 16  1  1  0  0  0
 19  1  1  0  0  0  0
 20  4  2  0  0  0  0
 22 12  1  0  0  0  0
 23 18  1  0  0  0  0
 23  8  2  0  0  0  0
 24 25  1  0  0  0  0
 27 26  1  0  0  0  0
 27 28  1  0  0  0  0
 28 29  1  0  0  0  0
 29 30  1  0  0  0  0
 30 32  1  0  0  0  0
 31 30  1  0  0  0  0
M  END
>  <MODEL>
6

>  <REMARK>
 VINA RESULT:      -7.0      2.059      5.025
  Name = 
  6 active torsions:
  status: ('A' for Active; 'I' for Inactive)
    1  A    between atoms: C_1  and  C_10
    2  A    between atoms: C_2  and  C_12
    3  A    between atoms: C_2  and  C_24
    4  A    between atoms: C_8  and  O_23
    5  A    between atoms: C_10  and  C_24
    6  A    between atoms: C_12  and  C_21
                            x       y       z     vdW  Elec       q    Type
                         _______ _______ _______ _____ _____    ______ ____

>  <TORSDO>
F 6

$$$$
=
 OpenBabel11062410453D

 32 35  0  0  1  0  0  0  0  0999 V2000
  161.8380  205.7310  148.4080 C   0  0  0  0  0  0  0  0  0  0  0  0
  160.8920  201.7920  151.4030 C   0  0  0  0  0  3  0  0  0  0  0  0
  160.6530  202.6230  152.4250 C   0  0  0  0  0  3  0  0  0  0  0  0
  161.7570  208.0720  149.3080 C   0  0  0  0  0  0  0  0  0  0  0  0
  161.6900  208.9140  150.4760 N   0  0  0  0  0  0  0  0  0  0  0  0
  161.6520  205.6040  145.9200 C   0  0  1  0  0  3  0  0  0  0  0  0
  160.9420  203.6670  147.3310 C   0  0  0  0  0  2  0  0  0  0  0  0
  160.9170  208.9680  152.8120 C   0  0  0  0  0  0  0  0  0  0  0  0
  161.3100  202.2850  150.0440 C   0  0  0  0  0  2  0  0  0  0  0  0
  161.6890  204.2270  148.5430 C   0  0  2  0  0  3  0  0  0  0  0  0
  160.9870  203.7670  149.8190 C   0  0  2  0  0  3  0  0  0  0  0  0
  161.1900  206.0670  150.8020 C   0  0  1  0  0  3  0  0  0  0  0  0
  160.3880  210.3580  152.6960 C   0  0  0  0  0  1  0  0  0  0  0  0
  161.6190  204.0760  146.0240 C   0  0  1  0  0  3  0  0  0  0  0  0
  162.0610  210.3190  150.3410 C   0  0  0  0  0  1  0  0  0  0  0  0
  160.6740  204.1190  152.2660 C   0  0  0  0  0  2  0  0  0  0  0  0
  161.4530  204.5780  151.0270 C   0  0  1  0  0  3  0  0  0  0  0  0
  161.8400  206.8710  151.9240 C   0  0  0  0  0  2  0  0  0  0  0  0
  162.4200  206.1950  147.1010 C   0  0  0  0  0  2  0  0  0  0  0  0
  161.8890  208.6080  148.1740 O   0  0  0  0  0  0  0  0  0  0  0  0
  160.7440  208.3060  154.0640 N   0  0  0  0  0  1  0  0  0  0  0  0
  161.6430  206.5830  149.4470 C   0  0  0  0  0  0  0  0  0  0  0  0
  161.4770  208.3140  151.7730 C   0  0  0  0  0  0  0  0  0  0  0  0
  161.2730  205.9310  143.7610 C   0  0  0  0  0  1  0  0  0  0  0  0
  162.2760  205.9940  144.7310 O   0  0  0  0  0  0  0  0  0  0  0  0
  160.8530  203.4810  144.8490 C   0  0  0  0  0  2  0  0  0  0  0  0
  159.8100  202.4790  145.3210 C   0  0  0  0  0  2  0  0  0  0  0  0
  159.9140  201.1940  144.5210 C   0  0  0  0  0  2  0  0  0  0  0  0
  159.8820  200.0050  145.4680 C   0  0  0  0  0  2  0  0  0  0  0  0
  161.2850  199.5420  145.8370 C   0  0  0  0  0  3  0  0  0  0  0  0
  161.5470  199.8010  147.1830 O   0  0  0  0  0  1  0  0  0  0  0  0
  161.4330  198.1780  145.5790 O   0  0  0  0  0  1  0  0  0  0  0  0
  1 10  1  0  0  0  0
  1 22  2  0  0  0  0
  2  3  2  0  0  0  0
  4 22  1  0  0  0  0
  4  5  1  0  0  0  0
  5 23  1  0  0  0  0
  6 25  1  6  0  0  0
  6 14  1  0  0  0  0
  6 19  1  0  0  0  0
  8 21  1  0  0  0  0
  9  2  1  0  0  0  0
 10  7  1  6  0  0  0
 10 11  1  0  0  0  0
 11  9  1  1  0  0  0
 11 17  1  0  0  0  0
 12 17  1  0  0  0  0
 12 18  1  1  0  0  0
 13  8  1  0  0  0  0
 14 26  1  6  0  0  0
 14  7  1  0  0  0  0
 15  5  1  0  0  0  0
 16  3  1  0  0  0  0
 17 16  1  1  0  0  0
 19  1  1  0  0  0  0
 20  4  2  0  0  0  0
 22 12  1  0  0  0  0
 23 18  1  0  0  0  0
 23  8  2  0  0  0  0
 24 25  1  0  0  0  0
 26 27  1  0  0  0  0
 28 27  1  0  0  0  0
 28 29  1  0  0  0  0
 29 30  1  0  0  0  0
 30 31  1  0  0  0  0
 32 30  1  0  0  0  0
M  END
>  <MODEL>
7

>  <REMARK>
 VINA RESULT:      -6.9      2.249      5.318
  Name = 
  6 active torsions:
  status: ('A' for Active; 'I' for Inactive)
    1  A    between atoms: C_1  and  C_10
    2  A    between atoms: C_2  and  C_12
    3  A    between atoms: C_2  and  C_24
    4  A    between atoms: C_8  and  O_23
    5  A    between atoms: C_10  and  C_24
    6  A    between atoms: C_12  and  C_21
                            x       y       z     vdW  Elec       q    Type
                         _______ _______ _______ _____ _____    ______ ____

>  <TORSDO>
F 6

$$$$
=
 OpenBabel11062410453D

 32 35  0  0  1  0  0  0  0  0999 V2000
  161.6070  206.8200  150.2290 C   0  0  0  0  0  0  0  0  0  0  0  0
  160.7960  206.6740  155.1990 C   0  0  0  0  0  3  0  0  0  0  0  0
  160.6150  208.0010  155.2110 C   0  0  0  0  0  3  0  0  0  0  0  0
  161.5850  209.0030  148.9920 C   0  0  0  0  0  0  0  0  0  0  0  0
  161.5820  210.4430  149.0830 N   0  0  0  0  0  0  0  0  0  0  0  0
  161.2930  204.8270  148.7550 C   0  0  1  0  0  3  0  0  0  0  0  0
  160.6460  204.7190  151.1680 C   0  0  0  0  0  2  0  0  0  0  0  0
  160.9310  212.3130  150.5440 C   0  0  0  0  0  0  0  0  0  0  0  0
  161.1460  205.9200  153.9440 C   0  0  0  0  0  2  0  0  0  0  0  0
  161.4570  205.9770  151.4810 C   0  0  2  0  0  3  0  0  0  0  0  0
  160.8200  206.7000  152.6660 C   0  0  2  0  0  3  0  0  0  0  0  0
  161.0850  208.9090  151.5050 C   0  0  1  0  0  3  0  0  0  0  0  0
  160.4040  213.1270  149.4110 C   0  0  0  0  0  1  0  0  0  0  0  0
  161.2570  203.9400  150.0040 C   0  0  1  0  0  3  0  0  0  0  0  0
  161.9530  211.2130  147.9010 C   0  0  0  0  0  1  0  0  0  0  0  0
  160.6350  208.8250  153.9530 C   0  0  0  0  0  2  0  0  0  0  0  0
  161.3520  208.1270  152.7910 C   0  0  1  0  0  3  0  0  0  0  0  0
  161.7960  210.2580  151.5760 C   0  0  0  0  0  2  0  0  0  0  0  0
  162.1230  206.0800  149.0250 C   0  0  0  0  0  2  0  0  0  0  0  0
  161.6610  208.4620  147.8560 O   0  0  0  0  0  0  0  0  0  0  0  0
  160.8190  212.8660  151.8540 N   0  0  0  0  0  1  0  0  0  0  0  0
  161.4710  208.1710  150.2350 C   0  0  0  0  0  0  0  0  0  0  0  0
  161.4340  211.0720  150.3740 C   0  0  0  0  0  0  0  0  0  0  0  0
  161.5740  204.9110  146.5590 C   0  0  0  0  0  1  0  0  0  0  0  0
  161.8570  204.1310  147.6830 O   0  0  0  0  0  0  0  0  0  0  0  0
  160.4290  202.6880  149.7420 C   0  0  0  0  0  2  0  0  0  0  0  0
  161.2460  201.4270  149.9730 C   0  0  0  0  0  2  0  0  0  0  0  0
  161.5480  200.7450  148.6510 C   0  0  0  0  0  2  0  0  0  0  0  0
  160.4840  201.1220  147.6330 C   0  0  0  0  0  2  0  0  0  0  0  0
  160.9940  200.9710  146.2050 C   0  0  0  0  0  3  0  0  0  0  0  0
  161.1840  199.6240  145.8940 O   0  0  0  0  0  1  0  0  0  0  0  0
  160.0950  201.5440  145.3040 O   0  0  0  0  0  1  0  0  0  0  0  0
  1 22  2  0  0  0  0
  1 10  1  0  0  0  0
  2  3  2  0  0  0  0
  4  5  1  0  0  0  0
  4 22  1  0  0  0  0
  5 23  1  0  0  0  0
  6 25  1  6  0  0  0
  6 19  1  0  0  0  0
  6 14  1  0  0  0  0
  8 21  1  0  0  0  0
  9  2  1  0  0  0  0
 10  7  1  6  0  0  0
 10 11  1  0  0  0  0
 11 17  1  0  0  0  0
 11  9  1  1  0  0  0
 12 18  1  1  0  0  0
 12 17  1  0  0  0  0
 13  8  1  0  0  0  0
 14 26  1  6  0  0  0
 14  7  1  0  0  0  0
 15  5  1  0  0  0  0
 16  3  1  0  0  0  0
 17 16  1  1  0  0  0
 19  1  1  0  0  0  0
 20  4  2  0  0  0  0
 22 12  1  0  0  0  0
 23  8  2  0  0  0  0
 23 18  1  0  0  0  0
 24 25  1  0  0  0  0
 26 27  1  0  0  0  0
 28 27  1  0  0  0  0
 29 28  1  0  0  0  0
 30 29  1  0  0  0  0
 31 30  1  0  0  0  0
 32 30  1  0  0  0  0
M  END
>  <MODEL>
8

>  <REMARK>
 VINA RESULT:      -6.7      2.362      4.899
  Name = 
  6 active torsions:
  status: ('A' for Active; 'I' for Inactive)
    1  A    between atoms: C_1  and  C_10
    2  A    between atoms: C_2  and  C_12
    3  A    between atoms: C_2  and  C_24
    4  A    between atoms: C_8  and  O_23
    5  A    between atoms: C_10  and  C_24
    6  A    between atoms: C_12  and  C_21
                            x       y       z     vdW  Elec       q    Type
                         _______ _______ _______ _____ _____    ______ ____

>  <TORSDO>
F 6

$$$$
=
 OpenBabel11062410453D

 32 35  0  0  1  0  0  0  0  0999 V2000
  161.3360  207.0100  152.5480 C   0  0  0  0  0  0  0  0  0  0  0  0
  162.0550  210.7280  149.2250 C   0  0  0  0  0  3  0  0  0  0  0  0
  161.9920  209.8450  148.2200 C   0  0  0  0  0  3  0  0  0  0  0  0
  161.1140  204.6320  151.7800 C   0  0  0  0  0  0  0  0  0  0  0  0
  161.2530  203.6970  150.6910 N   0  0  0  0  0  0  0  0  0  0  0  0
  160.4330  207.4130  154.8430 C   0  0  1  0  0  3  0  0  0  0  0  0
  160.5390  209.2850  153.1900 C   0  0  0  0  0  2  0  0  0  0  0  0
  161.2250  203.5290  148.2350 C   0  0  0  0  0  0  0  0  0  0  0  0
  161.9490  210.3140  150.6690 C   0  0  0  0  0  2  0  0  0  0  0  0
  161.5050  208.4970  152.3020 C   0  0  2  0  0  3  0  0  0  0  0  0
  161.3150  208.9310  150.8500 C   0  0  2  0  0  3  0  0  0  0  0  0
  161.3910  206.5400  150.0900 C   0  0  1  0  0  3  0  0  0  0  0  0
  160.4460  202.2570  148.2450 C   0  0  0  0  0  1  0  0  0  0  0  0
  160.7060  208.9090  154.6610 C   0  0  1  0  0  3  0  0  0  0  0  0
  161.3090  202.2720  151.0020 C   0  0  0  0  0  1  0  0  0  0  0  0
  161.6960  208.3880  148.4480 C   0  0  0  0  0  2  0  0  0  0  0  0
  161.9710  207.9400  149.8900 C   0  0  1  0  0  3  0  0  0  0  0  0
  162.1950  205.5360  149.2690 C   0  0  0  0  0  2  0  0  0  0  0  0
  161.4030  206.5950  153.9920 C   0  0  0  0  0  2  0  0  0  0  0  0
  160.8000  204.1980  152.9220 O   0  0  0  0  0  0  0  0  0  0  0  0
  161.5580  204.0820  146.9630 N   0  0  0  0  0  1  0  0  0  0  0  0
  161.3150  206.0990  151.5420 C   0  0  0  0  0  0  0  0  0  0  0  0
  161.5520  204.1890  149.3670 C   0  0  0  0  0  0  0  0  0  0  0  0
  159.3310  206.5940  156.5820 C   0  0  0  0  0  1  0  0  0  0  0  0
  160.5900  207.0520  156.1840 O   0  0  0  0  0  0  0  0  0  0  0  0
  159.7410  209.7310  155.5070 C   0  0  0  0  0  2  0  0  0  0  0  0
  159.8800  211.2170  155.2150 C   0  0  0  0  0  2  0  0  0  0  0  0
  161.1790  211.7480  155.7900 C   0  0  0  0  0  2  0  0  0  0  0  0
  161.4440  211.0900  157.1340 C   0  0  0  0  0  2  0  0  0  0  0  0
  162.8800  210.5910  157.2420 C   0  0  0  0  0  3  0  0  0  0  0  0
  162.9120  209.1960  157.2600 O   0  0  0  0  0  1  0  0  0  0  0  0
  163.6440  211.0690  156.1760 O   0  0  0  0  0  1  0  0  0  0  0  0
  1 19  1  0  0  0  0
  2  9  1  0  0  0  0
  3 16  1  0  0  0  0
  3  2  2  0  0  0  0
  4 20  2  0  0  0  0
  5 15  1  0  0  0  0
  5  4  1  0  0  0  0
  6 25  1  1  0  0  0
  7 14  1  0  0  0  0
  8 13  1  0  0  0  0
  8 23  2  0  0  0  0
 10  1  1  0  0  0  0
 10  7  1  1  0  0  0
 11  9  1  1  0  0  0
 11 10  1  0  0  0  0
 12 18  1  6  0  0  0
 12 22  1  0  0  0  0
 14  6  1  0  0  0  0
 14 26  1  1  0  0  0
 17 16  1  6  0  0  0
 17 12  1  0  0  0  0
 17 11  1  0  0  0  0
 18 23  1  0  0  0  0
 19  6  1  0  0  0  0
 21  8  1  0  0  0  0
 22  4  1  0  0  0  0
 22  1  2  0  0  0  0
 23  5  1  0  0  0  0
 25 24  1  0  0  0  0
 27 26  1  0  0  0  0
 27 28  1  0  0  0  0
 28 29  1  0  0  0  0
 29 30  1  0  0  0  0
 30 31  1  0  0  0  0
 32 30  1  0  0  0  0
M  END
>  <MODEL>
9

>  <REMARK>
 VINA RESULT:      -6.6      3.020      7.652
  Name = 
  6 active torsions:
  status: ('A' for Active; 'I' for Inactive)
    1  A    between atoms: C_1  and  C_10
    2  A    between atoms: C_2  and  C_12
    3  A    between atoms: C_2  and  C_24
    4  A    between atoms: C_8  and  O_23
    5  A    between atoms: C_10  and  C_24
    6  A    between atoms: C_12  and  C_21
                            x       y       z     vdW  Elec       q    Type
                         _______ _______ _______ _____ _____    ______ ____

>  <TORSDO>
F 6

$$$$
