=
 OpenBabel11052422593D

 28 32  0  0  1  0  0  0  0  0999 V2000
  160.2020  211.2120  153.3210 C   0  0  1  0  0  3  0  0  0  0  0  0
  161.7670  207.7510  149.6410 C   0  0  0  0  0  3  0  0  0  0  0  0
  160.6870  206.9210  155.5980 O   0  0  0  0  0  0  0  0  0  0  0  0
  161.1460  205.7050  150.7820 C   0  0  0  0  0  0  0  0  0  0  0  0
  161.5180  207.8140  152.1520 C   0  0  1  0  0  3  0  0  0  0  0  0
  161.3390  205.7380  148.3680 C   0  0  0  0  0  0  0  0  0  0  0  0
  161.4720  207.0730  150.8340 C   0  0  0  0  0  0  0  0  0  0  0  0
  161.3270  205.5320  153.2650 C   0  0  0  0  0  2  0  0  0  0  0  0
  161.0650  205.0470  149.5510 C   0  0  0  0  0  3  0  0  0  0  0  0
  160.6680  209.0700  154.5850 C   0  0  0  0  0  0  0  0  0  0  0  0
  160.6460  209.0740  152.0700 C   0  0  0  0  0  2  0  0  0  0  0  0
  160.9110  204.9800  151.9870 N   0  0  0  0  0  2  0  0  0  0  0  0
  160.5850  211.1940  155.7740 C   0  0  0  0  0  3  0  0  0  0  0  0
  160.8100  207.6080  154.5450 C   0  0  0  0  0  0  0  0  0  0  0  0
  160.6550  209.7270  155.7480 C   0  0  0  0  0  3  0  0  0  0  0  0
  161.2580  205.0810  147.1470 O   0  0  0  0  0  1  0  0  0  0  0  0
  161.6990  207.0860  148.4130 C   0  0  0  0  0  3  0  0  0  0  0  0
  161.0940  206.9740  153.2890 N   0  0  0  0  0  0  0  0  0  0  0  0
  160.4090  211.8930  154.6510 C   0  0  0  0  0  3  0  0  0  0  0  0
  160.6160  209.7990  153.3420 N   0  0  0  0  0  0  0  0  0  0  0  0
  158.7500  211.3700  152.8410 C   0  0  0  0  0  2  0  0  0  0  0  0
  157.8530  211.9980  153.8620 C   0  0  0  0  0  0  0  0  0  0  0  0
  156.2140  213.1720  155.8030 C   0  0  0  0  0  0  0  0  0  0  0  0
  157.7010  213.3890  153.9030 C   0  0  0  0  0  3  0  0  0  0  0  0
  157.1820  211.1960  154.7920 C   0  0  0  0  0  3  0  0  0  0  0  0
  156.3630  211.7830  155.7620 C   0  0  0  0  0  3  0  0  0  0  0  0
  155.4220  213.7410  156.7430 F   0  0  0  0  0  0  0  0  0  0  0  0
  156.8820  213.9750  154.8730 C   0  0  0  0  0  3  0  0  0  0  0  0
  1 21  1  1  0  0  0
  1 20  1  0  0  0  0
  1 19  1  0  0  0  0
  2  7  1  0  0  0  0
  4  7  2  0  0  0  0
  4 12  1  0  0  0  0
  5 11  1  6  0  0  0
  5 18  1  0  0  0  0
  6 17  1  0  0  0  0
  6  9  2  0  0  0  0
  7  5  1  0  0  0  0
  8 18  1  0  0  0  0
  9  4  1  0  0  0  0
 10 15  2  0  0  0  0
 11 20  1  0  0  0  0
 12  8  1  0  0  0  0
 14 10  1  0  0  0  0
 14  3  2  0  0  0  0
 15 13  1  0  0  0  0
 16  6  1  0  0  0  0
 17  2  2  0  0  0  0
 18 14  1  0  0  0  0
 19 13  2  0  0  0  0
 20 10  1  0  0  0  0
 21 22  1  0  0  0  0
 22 24  2  0  0  0  0
 22 25  1  0  0  0  0
 23 27  1  0  0  0  0
 24 28  1  0  0  0  0
 25 26  2  0  0  0  0
 26 23  1  0  0  0  0
 28 23  2  0  0  0  0
M  END
>  <MODEL>
1

>  <REMARK>
 VINA RESULT:      -8.4      0.000      0.000
  Name = 
  2 active torsions:
  status: ('A' for Active; 'I' for Inactive)
    1  A    between atoms: C_1  and  C_2
    2  A    between atoms: C_2  and  C_3
                            x       y       z     vdW  Elec       q    Type
                         _______ _______ _______ _____ _____    ______ ____

>  <TORSDO>
F 2

$$$$
=
 OpenBabel11052422593D

 28 32  0  0  1  0  0  0  0  0999 V2000
  160.3030  211.4990  153.9330 C   0  0  1  0  0  3  0  0  0  0  0  0
  161.9990  208.4810  149.9350 C   0  0  0  0  0  3  0  0  0  0  0  0
  160.5060  206.9360  155.6550 O   0  0  0  0  0  0  0  0  0  0  0  0
  161.2420  206.3320  150.7590 C   0  0  0  0  0  0  0  0  0  0  0  0
  161.5880  208.2310  152.4130 C   0  0  1  0  0  3  0  0  0  0  0  0
  161.5930  206.6670  148.3860 C   0  0  0  0  0  0  0  0  0  0  0  0
  161.6060  207.6680  151.0090 C   0  0  0  0  0  0  0  0  0  0  0  0
  161.2540  205.8340  153.2040 C   0  0  0  0  0  2  0  0  0  0  0  0
  161.2210  205.8410  149.4500 C   0  0  0  0  0  3  0  0  0  0  0  0
  160.6200  209.1960  154.9320 C   0  0  0  0  0  0  0  0  0  0  0  0
  160.7620  209.5250  152.4440 C   0  0  0  0  0  2  0  0  0  0  0  0
  160.9060  205.4680  151.8420 N   0  0  0  0  0  2  0  0  0  0  0  0
  160.5250  211.1520  156.3820 C   0  0  0  0  0  3  0  0  0  0  0  0
  160.7190  207.7460  154.7110 C   0  0  0  0  0  0  0  0  0  0  0  0
  160.5510  209.6980  156.1690 C   0  0  0  0  0  3  0  0  0  0  0  0
  161.5720  206.1760  147.0870 O   0  0  0  0  0  1  0  0  0  0  0  0
  161.9910  207.9840  148.6290 C   0  0  0  0  0  3  0  0  0  0  0  0
  161.0650  207.2690  153.4020 N   0  0  0  0  0  0  0  0  0  0  0  0
  160.4440  211.9950  155.3510 C   0  0  0  0  0  3  0  0  0  0  0  0
  160.6710  210.0800  153.7950 N   0  0  0  0  0  0  0  0  0  0  0  0
  158.8920  211.7740  153.3910 C   0  0  0  0  0  2  0  0  0  0  0  0
  158.8910  212.5020  152.0820 C   0  0  0  0  0  0  0  0  0  0  0  0
  158.8850  213.8170  149.6120 C   0  0  0  0  0  0  0  0  0  0  0  0
  157.6930  212.9980  151.5560 C   0  0  0  0  0  3  0  0  0  0  0  0
  160.0850  212.6670  151.3730 C   0  0  0  0  0  3  0  0  0  0  0  0
  160.0820  213.3240  150.1380 C   0  0  0  0  0  3  0  0  0  0  0  0
  158.8810  214.4530  148.4160 F   0  0  0  0  0  0  0  0  0  0  0  0
  157.6900  213.6550  150.3210 C   0  0  0  0  0  3  0  0  0  0  0  0
  1 21  1  1  0  0  0
  1 19  1  0  0  0  0
  2  7  1  0  0  0  0
  4  7  2  0  0  0  0
  4 12  1  0  0  0  0
  5 11  1  6  0  0  0
  5 18  1  0  0  0  0
  6 17  1  0  0  0  0
  6  9  2  0  0  0  0
  7  5  1  0  0  0  0
  8 18  1  0  0  0  0
  9  4  1  0  0  0  0
 10 15  2  0  0  0  0
 11 20  1  0  0  0  0
 12  8  1  0  0  0  0
 14 10  1  0  0  0  0
 14  3  2  0  0  0  0
 15 13  1  0  0  0  0
 16  6  1  0  0  0  0
 17  2  2  0  0  0  0
 18 14  1  0  0  0  0
 19 13  2  0  0  0  0
 20  1  1  0  0  0  0
 20 10  1  0  0  0  0
 22 21  1  0  0  0  0
 23 26  2  0  0  0  0
 23 28  1  0  0  0  0
 24 22  1  0  0  0  0
 25 22  2  0  0  0  0
 26 25  1  0  0  0  0
 27 23  1  0  0  0  0
 28 24  2  0  0  0  0
M  END
>  <MODEL>
2

>  <REMARK>
 VINA RESULT:      -8.0      2.275      2.918
  Name = 
  2 active torsions:
  status: ('A' for Active; 'I' for Inactive)
    1  A    between atoms: C_1  and  C_2
    2  A    between atoms: C_2  and  C_3
                            x       y       z     vdW  Elec       q    Type
                         _______ _______ _______ _____ _____    ______ ____

>  <TORSDO>
F 2

$$$$
=
 OpenBabel11052422593D

 28 32  0  0  1  0  0  0  0  0999 V2000
  161.4240  210.4450  152.9480 C   0  0  1  0  0  3  0  0  0  0  0  0
  162.3100  207.1680  148.8930 C   0  0  0  0  0  3  0  0  0  0  0  0
  160.6440  205.9330  154.6400 O   0  0  0  0  0  0  0  0  0  0  0  0
  161.1120  205.2320  149.7240 C   0  0  0  0  0  0  0  0  0  0  0  0
  161.9120  206.9890  151.3790 C   0  0  1  0  0  3  0  0  0  0  0  0
  161.4730  205.5060  147.3450 C   0  0  0  0  0  0  0  0  0  0  0  0
  161.7710  206.4510  149.9720 C   0  0  0  0  0  0  0  0  0  0  0  0
  161.0700  204.7180  152.1660 C   0  0  0  0  0  2  0  0  0  0  0  0
  160.9520  204.7730  148.4140 C   0  0  0  0  0  3  0  0  0  0  0  0
  161.2430  208.1190  153.9270 C   0  0  0  0  0  0  0  0  0  0  0  0
  161.3960  208.4340  151.4370 C   0  0  0  0  0  2  0  0  0  0  0  0
  160.6180  204.4530  150.8110 N   0  0  0  0  0  2  0  0  0  0  0  0
  161.6200  210.0310  155.3880 C   0  0  0  0  0  3  0  0  0  0  0  0
  161.0110  206.6860  153.6960 C   0  0  0  0  0  0  0  0  0  0  0  0
  161.3160  208.6100  155.1670 C   0  0  0  0  0  3  0  0  0  0  0  0
  161.3140  205.0460  146.0450 O   0  0  0  0  0  1  0  0  0  0  0  0
  162.1610  206.6980  147.5850 C   0  0  0  0  0  3  0  0  0  0  0  0
  161.2110  206.1570  152.3760 N   0  0  0  0  0  0  0  0  0  0  0  0
  161.7050  210.8820  154.3640 C   0  0  0  0  0  3  0  0  0  0  0  0
  161.4640  208.9810  152.7930 N   0  0  0  0  0  0  0  0  0  0  0  0
  160.0980  211.0330  152.4430 C   0  0  0  0  0  2  0  0  0  0  0  0
  160.2640  211.9500  151.2710 C   0  0  0  0  0  0  0  0  0  0  0  0
  160.5410  213.6350  149.0540 C   0  0  0  0  0  0  0  0  0  0  0  0
  159.4880  213.1110  151.1710 C   0  0  0  0  0  3  0  0  0  0  0  0
  161.1800  211.6360  150.2610 C   0  0  0  0  0  3  0  0  0  0  0  0
  161.3180  212.4780  149.1530 C   0  0  0  0  0  3  0  0  0  0  0  0
  160.6740  214.4510  147.9800 F   0  0  0  0  0  0  0  0  0  0  0  0
  159.6260  213.9530  150.0630 C   0  0  0  0  0  3  0  0  0  0  0  0
  1 21  1  1  0  0  0
  1 19  1  0  0  0  0
  2  7  1  0  0  0  0
  4  7  2  0  0  0  0
  4 12  1  0  0  0  0
  5 11  1  6  0  0  0
  5 18  1  0  0  0  0
  6 17  1  0  0  0  0
  6  9  2  0  0  0  0
  7  5  1  0  0  0  0
  8 18  1  0  0  0  0
  9  4  1  0  0  0  0
 10 15  2  0  0  0  0
 11 20  1  0  0  0  0
 12  8  1  0  0  0  0
 14 10  1  0  0  0  0
 14  3  2  0  0  0  0
 15 13  1  0  0  0  0
 16  6  1  0  0  0  0
 17  2  2  0  0  0  0
 18 14  1  0  0  0  0
 19 13  2  0  0  0  0
 20  1  1  0  0  0  0
 20 10  1  0  0  0  0
 22 21  1  0  0  0  0
 23 26  2  0  0  0  0
 23 28  1  0  0  0  0
 24 22  1  0  0  0  0
 25 22  2  0  0  0  0
 26 25  1  0  0  0  0
 27 23  1  0  0  0  0
 28 24  2  0  0  0  0
M  END
>  <MODEL>
3

>  <REMARK>
 VINA RESULT:      -7.5      2.947      3.605
  Name = 
  2 active torsions:
  status: ('A' for Active; 'I' for Inactive)
    1  A    between atoms: C_1  and  C_2
    2  A    between atoms: C_2  and  C_3
                            x       y       z     vdW  Elec       q    Type
                         _______ _______ _______ _____ _____    ______ ____

>  <TORSDO>
F 2

$$$$
=
 OpenBabel11052422593D

 28 32  0  0  1  0  0  0  0  0999 V2000
  161.6400  205.4600  151.1900 C   0  0  1  0  0  3  0  0  0  0  0  0
  162.5450  205.4510  145.9790 C   0  0  0  0  0  3  0  0  0  0  0  0
  159.8770  201.2320  149.5030 O   0  0  0  0  0  0  0  0  0  0  0  0
  160.9320  203.7610  145.3350 C   0  0  0  0  0  0  0  0  0  0  0  0
  161.7650  203.8160  147.7370 C   0  0  1  0  0  3  0  0  0  0  0  0
  161.6760  205.4060  143.7210 C   0  0  0  0  0  0  0  0  0  0  0  0
  161.7420  204.3530  146.3230 C   0  0  0  0  0  0  0  0  0  0  0  0
  160.4490  201.8290  146.8390 C   0  0  0  0  0  2  0  0  0  0  0  0
  160.8890  204.2990  144.0450 C   0  0  0  0  0  3  0  0  0  0  0  0
  160.9310  203.1630  150.4000 C   0  0  0  0  0  0  0  0  0  0  0  0
  161.4960  204.9550  148.7290 C   0  0  0  0  0  2  0  0  0  0  0  0
  160.1610  202.6030  145.6430 N   0  0  0  0  0  2  0  0  0  0  0  0
  161.4070  203.5490  152.7580 C   0  0  0  0  0  3  0  0  0  0  0  0
  160.4990  202.3090  149.2850 C   0  0  0  0  0  0  0  0  0  0  0  0
  160.9050  202.7140  151.6580 C   0  0  0  0  0  3  0  0  0  0  0  0
  161.6320  205.9360  142.4390 O   0  0  0  0  0  1  0  0  0  0  0  0
  162.5110  205.9770  144.6850 C   0  0  0  0  0  3  0  0  0  0  0  0
  160.7970  202.7220  147.9420 N   0  0  0  0  0  0  0  0  0  0  0  0
  161.7810  204.8120  152.5450 C   0  0  0  0  0  3  0  0  0  0  0  0
  161.4560  204.4740  150.1120 N   0  0  0  0  0  0  0  0  0  0  0  0
  160.5190  206.5100  151.1960 C   0  0  0  0  0  2  0  0  0  0  0  0
  160.8600  207.7370  151.9840 C   0  0  0  0  0  0  0  0  0  0  0  0
  161.5420  210.0090  153.4690 C   0  0  0  0  0  0  0  0  0  0  0  0
  161.4700  208.8290  151.3550 C   0  0  0  0  0  3  0  0  0  0  0  0
  160.5900  207.7860  153.3560 C   0  0  0  0  0  3  0  0  0  0  0  0
  160.9300  208.9200  154.0980 C   0  0  0  0  0  3  0  0  0  0  0  0
  161.8720  211.1080  154.1880 F   0  0  0  0  0  0  0  0  0  0  0  0
  161.8110  209.9640  152.0970 C   0  0  0  0  0  3  0  0  0  0  0  0
  1 21  1  1  0  0  0
  1 19  1  0  0  0  0
  2  7  1  0  0  0  0
  4 12  1  0  0  0  0
  4  7  2  0  0  0  0
  5 18  1  0  0  0  0
  5 11  1  1  0  0  0
  6  9  2  0  0  0  0
  6 17  1  0  0  0  0
  7  5  1  0  0  0  0
  8 18  1  0  0  0  0
  9  4  1  0  0  0  0
 10 15  2  0  0  0  0
 11 20  1  0  0  0  0
 12  8  1  0  0  0  0
 14  3  2  0  0  0  0
 14 10  1  0  0  0  0
 15 13  1  0  0  0  0
 16  6  1  0  0  0  0
 17  2  2  0  0  0  0
 18 14  1  0  0  0  0
 19 13  2  0  0  0  0
 20 10  1  0  0  0  0
 20  1  1  0  0  0  0
 21 22  1  0  0  0  0
 22 25  1  0  0  0  0
 23 26  1  0  0  0  0
 23 27  1  0  0  0  0
 24 22  2  0  0  0  0
 24 28  1  0  0  0  0
 25 26  2  0  0  0  0
 28 23  2  0  0  0  0
M  END
>  <MODEL>
4

>  <REMARK>
 VINA RESULT:      -7.2      3.935      6.380
  Name = 
  2 active torsions:
  status: ('A' for Active; 'I' for Inactive)
    1  A    between atoms: C_1  and  C_2
    2  A    between atoms: C_2  and  C_3
                            x       y       z     vdW  Elec       q    Type
                         _______ _______ _______ _____ _____    ______ ____

>  <TORSDO>
F 2

$$$$
=
 OpenBabel11052422593D

 28 32  0  0  1  0  0  0  0  0999 V2000
  161.1160  209.5130  152.7540 C   0  0  1  0  0  3  0  0  0  0  0  0
  162.0950  207.0350  148.1850 C   0  0  0  0  0  3  0  0  0  0  0  0
  160.9040  204.7320  153.7180 O   0  0  0  0  0  0  0  0  0  0  0  0
  161.1520  204.8730  148.7380 C   0  0  0  0  0  0  0  0  0  0  0  0
  161.8640  206.4240  150.6220 C   0  0  1  0  0  3  0  0  0  0  0  0
  161.3430  205.5570  146.4220 C   0  0  0  0  0  0  0  0  0  0  0  0
  161.6960  206.1030  149.1540 C   0  0  0  0  0  0  0  0  0  0  0  0
  161.3070  203.9780  151.0620 C   0  0  0  0  0  2  0  0  0  0  0  0
  160.9630  204.6110  147.3770 C   0  0  0  0  0  3  0  0  0  0  0  0
  161.2320  207.0560  153.3460 C   0  0  0  0  0  0  0  0  0  0  0  0
  161.2070  207.7750  150.9370 C   0  0  0  0  0  2  0  0  0  0  0  0
  160.8050  203.8820  149.7020 N   0  0  0  0  0  2  0  0  0  0  0  0
  161.4960  208.7430  155.0830 C   0  0  0  0  0  3  0  0  0  0  0  0
  161.1360  205.6610  152.8940 C   0  0  0  0  0  0  0  0  0  0  0  0
  161.3270  207.3500  154.6460 C   0  0  0  0  0  3  0  0  0  0  0  0
  161.1560  205.2930  145.0720 O   0  0  0  0  0  1  0  0  0  0  0  0
  161.9180  206.7650  146.8250 C   0  0  0  0  0  3  0  0  0  0  0  0
  161.3110  205.3720  151.4980 N   0  0  0  0  0  0  0  0  0  0  0  0
  161.4330  209.7490  154.2090 C   0  0  0  0  0  3  0  0  0  0  0  0
  161.2970  208.1060  152.3600 N   0  0  0  0  0  0  0  0  0  0  0  0
  159.7090  210.0230  152.4070 C   0  0  0  0  0  2  0  0  0  0  0  0
  159.2580  211.1570  153.2750 C   0  0  0  0  0  0  0  0  0  0  0  0
  158.4630  213.2790  154.9160 C   0  0  0  0  0  0  0  0  0  0  0  0
  159.2730  212.4670  152.7830 C   0  0  0  0  0  3  0  0  0  0  0  0
  158.8430  210.9100  154.5880 C   0  0  0  0  0  3  0  0  0  0  0  0
  158.4450  211.9710  155.4080 C   0  0  0  0  0  3  0  0  0  0  0  0
  158.0790  214.3070  155.7110 F   0  0  0  0  0  0  0  0  0  0  0  0
  158.8760  213.5280  153.6030 C   0  0  0  0  0  3  0  0  0  0  0  0
  1 21  1  1  0  0  0
  1 19  1  0  0  0  0
  2  7  1  0  0  0  0
  4  7  2  0  0  0  0
  4 12  1  0  0  0  0
  5 11  1  6  0  0  0
  5 18  1  0  0  0  0
  6 17  1  0  0  0  0
  6  9  2  0  0  0  0
  7  5  1  0  0  0  0
  8 18  1  0  0  0  0
  9  4  1  0  0  0  0
 10 15  2  0  0  0  0
 11 20  1  0  0  0  0
 12  8  1  0  0  0  0
 14 10  1  0  0  0  0
 14  3  2  0  0  0  0
 15 13  1  0  0  0  0
 16  6  1  0  0  0  0
 17  2  2  0  0  0  0
 18 14  1  0  0  0  0
 19 13  2  0  0  0  0
 20  1  1  0  0  0  0
 20 10  1  0  0  0  0
 21 22  1  0  0  0  0
 22 25  1  0  0  0  0
 23 26  1  0  0  0  0
 23 27  1  0  0  0  0
 24 22  2  0  0  0  0
 24 28  1  0  0  0  0
 25 26  2  0  0  0  0
 28 23  2  0  0  0  0
M  END
>  <MODEL>
5

>  <REMARK>
 VINA RESULT:      -7.1      1.572      2.253
  Name = 
  2 active torsions:
  status: ('A' for Active; 'I' for Inactive)
    1  A    between atoms: C_1  and  C_2
    2  A    between atoms: C_2  and  C_3
                            x       y       z     vdW  Elec       q    Type
                         _______ _______ _______ _____ _____    ______ ____

>  <TORSDO>
F 2

$$$$
=
 OpenBabel11052422593D

 28 32  0  0  1  0  0  0  0  0999 V2000
  161.6430  205.2840  151.1420 C   0  0  1  0  0  3  0  0  0  0  0  0
  162.5660  205.3660  145.9350 C   0  0  0  0  0  3  0  0  0  0  0  0
  159.7740  201.1430  149.3570 O   0  0  0  0  0  0  0  0  0  0  0  0
  160.9100  203.7350  145.2500 C   0  0  0  0  0  0  0  0  0  0  0  0
  161.7370  203.7140  147.6540 C   0  0  1  0  0  3  0  0  0  0  0  0
  161.7040  205.3950  143.6740 C   0  0  0  0  0  0  0  0  0  0  0  0
  161.7330  204.2830  146.2520 C   0  0  0  0  0  0  0  0  0  0  0  0
  160.3710  201.7840  146.7080 C   0  0  0  0  0  2  0  0  0  0  0  0
  160.8860  204.3020  143.9720 C   0  0  0  0  0  3  0  0  0  0  0  0
  160.8760  203.0250  150.3000 C   0  0  0  0  0  0  0  0  0  0  0  0
  161.4940  204.8380  148.6710 C   0  0  0  0  0  2  0  0  0  0  0  0
  160.1080  202.5910  145.5290 N   0  0  0  0  0  2  0  0  0  0  0  0
  161.3530  203.3460  152.6670 C   0  0  0  0  0  3  0  0  0  0  0  0
  160.4250  202.2080  149.1640 C   0  0  0  0  0  0  0  0  0  0  0  0
  160.8330  202.5490  151.5470 C   0  0  0  0  0  3  0  0  0  0  0  0
  161.6790  205.9540  142.4040 O   0  0  0  0  0  1  0  0  0  0  0  0
  162.5510  205.9210  144.6530 C   0  0  0  0  0  3  0  0  0  0  0  0
  160.7390  202.6420  147.8320 N   0  0  0  0  0  0  0  0  0  0  0  0
  161.7620  204.6020  152.4830 C   0  0  0  0  0  3  0  0  0  0  0  0
  161.4370  204.3280  150.0420 N   0  0  0  0  0  0  0  0  0  0  0  0
  160.5500  206.3640  151.1690 C   0  0  0  0  0  2  0  0  0  0  0  0
  161.0480  207.7210  150.7790 C   0  0  0  0  0  0  0  0  0  0  0  0
  162.0250  210.2460  150.0700 C   0  0  0  0  0  0  0  0  0  0  0  0
  161.4950  207.9580  149.4750 C   0  0  0  0  0  3  0  0  0  0  0  0
  161.0890  208.7500  151.7270 C   0  0  0  0  0  3  0  0  0  0  0  0
  161.5770  210.0110  151.3720 C   0  0  0  0  0  3  0  0  0  0  0  0
  162.4990  211.4670  149.7260 F   0  0  0  0  0  0  0  0  0  0  0  0
  161.9840  209.2200  149.1200 C   0  0  0  0  0  3  0  0  0  0  0  0
  1 21  1  1  0  0  0
  1 19  1  0  0  0  0
  2  7  1  0  0  0  0
  4 12  1  0  0  0  0
  4  7  2  0  0  0  0
  5 18  1  0  0  0  0
  5 11  1  1  0  0  0
  6  9  2  0  0  0  0
  6 17  1  0  0  0  0
  7  5  1  0  0  0  0
  8 18  1  0  0  0  0
  9  4  1  0  0  0  0
 10 15  2  0  0  0  0
 11 20  1  0  0  0  0
 12  8  1  0  0  0  0
 14  3  2  0  0  0  0
 14 10  1  0  0  0  0
 15 13  1  0  0  0  0
 16  6  1  0  0  0  0
 17  2  2  0  0  0  0
 18 14  1  0  0  0  0
 19 13  2  0  0  0  0
 20 10  1  0  0  0  0
 20  1  1  0  0  0  0
 22 21  1  0  0  0  0
 22 25  1  0  0  0  0
 23 26  1  0  0  0  0
 24 22  2  0  0  0  0
 26 25  2  0  0  0  0
 27 23  1  0  0  0  0
 28 24  1  0  0  0  0
 28 23  2  0  0  0  0
M  END
>  <MODEL>
6

>  <REMARK>
 VINA RESULT:      -7.0      4.659      6.928
  Name = 
  2 active torsions:
  status: ('A' for Active; 'I' for Inactive)
    1  A    between atoms: C_1  and  C_2
    2  A    between atoms: C_2  and  C_3
                            x       y       z     vdW  Elec       q    Type
                         _______ _______ _______ _____ _____    ______ ____

>  <TORSDO>
F 2

$$$$
=
 OpenBabel11052422593D

 28 32  0  0  1  0  0  0  0  0999 V2000
  162.1140  204.2430  148.1510 C   0  0  1  0  0  3  0  0  0  0  0  0
  161.9610  205.9270  153.1620 C   0  0  0  0  0  3  0  0  0  0  0  0
  161.3960  209.0670  147.9510 O   0  0  0  0  0  0  0  0  0  0  0  0
  160.8300  208.0390  152.7990 C   0  0  0  0  0  0  0  0  0  0  0  0
  162.0550  206.9490  150.8560 C   0  0  1  0  0  3  0  0  0  0  0  0
  160.7280  206.9650  154.9670 C   0  0  0  0  0  0  0  0  0  0  0  0
  161.6020  206.9740  152.2990 C   0  0  0  0  0  0  0  0  0  0  0  0
  161.2420  209.3580  150.7210 C   0  0  0  0  0  2  0  0  0  0  0  0
  160.3830  208.0240  154.1240 C   0  0  0  0  0  3  0  0  0  0  0  0
  161.9810  206.7650  147.9970 C   0  0  0  0  0  0  0  0  0  0  0  0
  161.6560  205.6160  150.2090 C   0  0  0  0  0  2  0  0  0  0  0  0
  160.5130  209.1470  151.9600 N   0  0  0  0  0  2  0  0  0  0  0  0
  162.7640  205.4660  146.0910 C   0  0  0  0  0  3  0  0  0  0  0  0
  161.6150  208.0340  148.6420 C   0  0  0  0  0  0  0  0  0  0  0  0
  162.3310  206.7270  146.7080 C   0  0  0  0  0  3  0  0  0  0  0  0
  160.2830  206.9530  156.2820 O   0  0  0  0  0  1  0  0  0  0  0  0
  161.5250  205.9220  154.4900 C   0  0  0  0  0  3  0  0  0  0  0  0
  161.5140  208.0770  150.0740 N   0  0  0  0  0  0  0  0  0  0  0  0
  162.6990  204.3150  146.7630 C   0  0  0  0  0  3  0  0  0  0  0  0
  162.0270  205.5650  148.7940 N   0  0  0  0  0  0  0  0  0  0  0  0
  160.7540  203.5270  148.1400 C   0  0  0  0  0  2  0  0  0  0  0  0
  160.7760  202.2230  147.4040 C   0  0  0  0  0  0  0  0  0  0  0  0
  160.8640  199.7980  146.0110 C   0  0  0  0  0  0  0  0  0  0  0  0
  161.2060  201.0590  148.0500 C   0  0  0  0  0  3  0  0  0  0  0  0
  160.3880  202.1710  146.0610 C   0  0  0  0  0  3  0  0  0  0  0  0
  160.4320  200.9600  145.3650 C   0  0  0  0  0  3  0  0  0  0  0  0
  160.9070  198.6240  145.3360 F   0  0  0  0  0  0  0  0  0  0  0  0
  161.2500  199.8470  147.3540 C   0  0  0  0  0  3  0  0  0  0  0  0
  1 21  1  6  0  0  0
  1 20  1  0  0  0  0
  2 17  1  0  0  0  0
  3 14  2  0  0  0  0
  4  9  2  0  0  0  0
  5 11  1  6  0  0  0
  5  7  1  0  0  0  0
  6 16  1  0  0  0  0
  7  4  1  0  0  0  0
  7  2  2  0  0  0  0
  8 12  1  0  0  0  0
  9  6  1  0  0  0  0
 10 14  1  0  0  0  0
 10 20  1  0  0  0  0
 12  4  1  0  0  0  0
 13 15  1  0  0  0  0
 13 19  2  0  0  0  0
 14 18  1  0  0  0  0
 15 10  2  0  0  0  0
 17  6  2  0  0  0  0
 18  8  1  0  0  0  0
 18  5  1  0  0  0  0
 19  1  1  0  0  0  0
 20 11  1  0  0  0  0
 22 24  1  0  0  0  0
 22 21  1  0  0  0  0
 23 28  1  0  0  0  0
 25 22  2  0  0  0  0
 26 23  2  0  0  0  0
 26 25  1  0  0  0  0
 27 23  1  0  0  0  0
 28 24  2  0  0  0  0
M  END
>  <MODEL>
7

>  <REMARK>
 VINA RESULT:      -6.9      5.011      9.856
  Name = 
  2 active torsions:
  status: ('A' for Active; 'I' for Inactive)
    1  A    between atoms: C_1  and  C_2
    2  A    between atoms: C_2  and  C_3
                            x       y       z     vdW  Elec       q    Type
                         _______ _______ _______ _____ _____    ______ ____

>  <TORSDO>
F 2

$$$$
=
 OpenBabel11052422593D

 28 32  0  0  1  0  0  0  0  0999 V2000
  161.8730  207.1220  150.4160 C   0  0  1  0  0  3  0  0  0  0  0  0
  160.6430  209.7610  154.8310 C   0  0  0  0  0  3  0  0  0  0  0  0
  161.1520  211.7610  149.0800 O   0  0  0  0  0  0  0  0  0  0  0  0
  159.5870  211.6910  153.8150 C   0  0  0  0  0  0  0  0  0  0  0  0
  161.2090  210.3060  152.4320 C   0  0  1  0  0  3  0  0  0  0  0  0
  159.0420  211.0670  156.0910 C   0  0  0  0  0  0  0  0  0  0  0  0
  160.4610  210.5930  153.7150 C   0  0  0  0  0  0  0  0  0  0  0  0
  160.4120  212.5900  151.6380 C   0  0  0  0  0  2  0  0  0  0  0  0
  158.8690  211.9150  154.9940 C   0  0  0  0  0  3  0  0  0  0  0  0
  161.7430  209.5510  149.7190 C   0  0  0  0  0  0  0  0  0  0  0  0
  160.9730  208.8500  152.0070 C   0  0  0  0  0  2  0  0  0  0  0  0
  159.4400  212.5890  152.7180 N   0  0  0  0  0  2  0  0  0  0  0  0
  162.9290  207.9440  148.3240 C   0  0  0  0  0  3  0  0  0  0  0  0
  161.2330  210.9010  150.0000 C   0  0  0  0  0  0  0  0  0  0  0  0
  162.3590  209.2760  148.5650 C   0  0  0  0  0  3  0  0  0  0  0  0
  158.3290  211.2930  157.2610 O   0  0  0  0  0  1  0  0  0  0  0  0
  159.9350  209.9960  156.0130 C   0  0  0  0  0  3  0  0  0  0  0  0
  160.8310  211.2230  151.3400 N   0  0  0  0  0  0  0  0  0  0  0  0
  162.7370  206.9480  149.1920 C   0  0  0  0  0  3  0  0  0  0  0  0
  161.6350  208.5380  150.7400 N   0  0  0  0  0  0  0  0  0  0  0  0
  160.5560  206.3430  150.2750 C   0  0  0  0  0  2  0  0  0  0  0  0
  160.7460  204.8580  150.2370 C   0  0  0  0  0  0  0  0  0  0  0  0
  161.0510  202.0770  150.1700 C   0  0  0  0  0  0  0  0  0  0  0  0
  160.8160  204.1900  149.0090 C   0  0  0  0  0  3  0  0  0  0  0  0
  160.8310  204.1330  151.4310 C   0  0  0  0  0  3  0  0  0  0  0  0
  160.9830  202.7430  151.3970 C   0  0  0  0  0  3  0  0  0  0  0  0
  161.1970  200.7310  150.1370 F   0  0  0  0  0  0  0  0  0  0  0  0
  160.9680  202.8010  148.9760 C   0  0  0  0  0  3  0  0  0  0  0  0
  1 21  1  6  0  0  0
  1 20  1  0  0  0  0
  2 17  1  0  0  0  0
  3 14  2  0  0  0  0
  4  9  2  0  0  0  0
  5 11  1  6  0  0  0
  5  7  1  0  0  0  0
  6 16  1  0  0  0  0
  7  4  1  0  0  0  0
  7  2  2  0  0  0  0
  8 12  1  0  0  0  0
  9  6  1  0  0  0  0
 10 14  1  0  0  0  0
 10 20  1  0  0  0  0
 12  4  1  0  0  0  0
 13 15  1  0  0  0  0
 13 19  2  0  0  0  0
 14 18  1  0  0  0  0
 15 10  2  0  0  0  0
 17  6  2  0  0  0  0
 18  8  1  0  0  0  0
 18  5  1  0  0  0  0
 19  1  1  0  0  0  0
 20 11  1  0  0  0  0
 22 21  1  0  0  0  0
 22 25  1  0  0  0  0
 23 26  1  0  0  0  0
 24 22  2  0  0  0  0
 26 25  2  0  0  0  0
 27 23  1  0  0  0  0
 28 24  1  0  0  0  0
 28 23  2  0  0  0  0
M  END
>  <MODEL>
8

>  <REMARK>
 VINA RESULT:      -6.9      3.843      8.466
  Name = 
  2 active torsions:
  status: ('A' for Active; 'I' for Inactive)
    1  A    between atoms: C_1  and  C_2
    2  A    between atoms: C_2  and  C_3
                            x       y       z     vdW  Elec       q    Type
                         _______ _______ _______ _____ _____    ______ ____

>  <TORSDO>
F 2

$$$$
=
 OpenBabel11052422593D

 28 32  0  0  1  0  0  0  0  0999 V2000
  160.6630  206.3270  150.0560 C   0  0  1  0  0  3  0  0  0  0  0  0
  158.9840  210.7680  152.3860 C   0  0  0  0  0  3  0  0  0  0  0  0
  162.3310  206.1800  154.6400 O   0  0  0  0  0  0  0  0  0  0  0  0
  160.5530  210.8220  154.2320 C   0  0  0  0  0  0  0  0  0  0  0  0
  160.0890  208.6060  153.0750 C   0  0  1  0  0  3  0  0  0  0  0  0
  159.5040  212.8680  153.4700 C   0  0  0  0  0  0  0  0  0  0  0  0
  159.8760  210.0950  153.2340 C   0  0  0  0  0  0  0  0  0  0  0  0
  161.3390  208.7050  155.2920 C   0  0  0  0  0  2  0  0  0  0  0  0
  160.3780  212.2060  154.3350 C   0  0  0  0  0  3  0  0  0  0  0  0
  161.3430  206.0970  152.4820 C   0  0  0  0  0  0  0  0  0  0  0  0
  160.4560  208.2870  151.6190 C   0  0  0  0  0  2  0  0  0  0  0  0
  161.4110  210.1490  155.1500 N   0  0  0  0  0  2  0  0  0  0  0  0
  161.2120  204.1240  151.0600 C   0  0  0  0  0  3  0  0  0  0  0  0
  161.6390  206.7610  153.7590 C   0  0  0  0  0  0  0  0  0  0  0  0
  161.5780  204.7930  152.3160 C   0  0  0  0  0  3  0  0  0  0  0  0
  159.3310  214.2410  153.5770 O   0  0  0  0  0  1  0  0  0  0  0  0
  158.8000  212.1490  152.5020 C   0  0  0  0  0  3  0  0  0  0  0  0
  161.1240  208.0820  153.9880 N   0  0  0  0  0  0  0  0  0  0  0  0
  160.7550  204.8220  150.0180 C   0  0  0  0  0  3  0  0  0  0  0  0
  160.7250  206.8600  151.4260 N   0  0  0  0  0  0  0  0  0  0  0  0
  161.7260  206.9670  149.1490 C   0  0  0  0  0  2  0  0  0  0  0  0
  161.6700  206.4800  147.7340 C   0  0  0  0  0  0  0  0  0  0  0  0
  161.5500  205.5250  145.1060 C   0  0  0  0  0  0  0  0  0  0  0  0
  160.5160  206.6800  146.9670 C   0  0  0  0  0  3  0  0  0  0  0  0
  162.7640  205.8040  147.1830 C   0  0  0  0  0  3  0  0  0  0  0  0
  162.7040  205.3270  145.8700 C   0  0  0  0  0  3  0  0  0  0  0  0
  161.4910  205.0630  143.8350 F   0  0  0  0  0  0  0  0  0  0  0  0
  160.4560  206.2030  145.6550 C   0  0  0  0  0  3  0  0  0  0  0  0
  1 21  1  6  0  0  0
  1 20  1  0  0  0  0
  2 17  2  0  0  0  0
  2  7  1  0  0  0  0
  4  9  1  0  0  0  0
  4 12  1  0  0  0  0
  5 11  1  6  0  0  0
  5  7  1  0  0  0  0
  5 18  1  0  0  0  0
  6 16  1  0  0  0  0
  6  9  2  0  0  0  0
  7  4  2  0  0  0  0
 10 14  1  0  0  0  0
 12  8  1  0  0  0  0
 13 15  1  0  0  0  0
 14 18  1  0  0  0  0
 14  3  2  0  0  0  0
 15 10  2  0  0  0  0
 17  6  1  0  0  0  0
 18  8  1  0  0  0  0
 19  1  1  0  0  0  0
 19 13  2  0  0  0  0
 20 11  1  0  0  0  0
 20 10  1  0  0  0  0
 22 21  1  0  0  0  0
 23 28  2  0  0  0  0
 23 26  1  0  0  0  0
 24 22  2  0  0  0  0
 25 22  1  0  0  0  0
 26 25  2  0  0  0  0
 27 23  1  0  0  0  0
 28 24  1  0  0  0  0
M  END
>  <MODEL>
9

>  <REMARK>
 VINA RESULT:      -6.1      3.906      8.198
  Name = 
  2 active torsions:
  status: ('A' for Active; 'I' for Inactive)
    1  A    between atoms: C_1  and  C_2
    2  A    between atoms: C_2  and  C_3
                            x       y       z     vdW  Elec       q    Type
                         _______ _______ _______ _____ _____    ______ ____

>  <TORSDO>
F 2

$$$$
