=
 OpenBabel11052423163D

 27 31  0  0  0  0  0  0  0  0999 V2000
  160.8660  210.5170  151.5550 N   0  0  0  0  0  0  0  0  0  0  0  0
  161.5400  208.8430  149.8850 C   0  0  0  0  0  0  0  0  0  0  0  0
  161.5800  207.7000  152.1300 N   0  0  0  0  0  0  0  0  0  0  0  0
  161.3570  205.1030  148.1020 C   0  0  0  0  0  2  0  0  0  0  0  0
  161.0590  202.6500  148.2010 O   0  0  0  0  0  1  0  0  0  0  0  0
  161.6620  208.6340  148.4970 C   0  0  0  0  0  3  0  0  0  0  0  0
  161.2150  205.1760  150.9750 C   0  0  0  0  0  3  0  0  0  0  0  0
  161.4170  209.4000  155.3360 N   0  0  0  0  0  0  0  0  0  0  0  0
  161.0890  203.8930  150.1990 C   0  0  0  0  0  3  0  0  0  0  0  0
  161.4460  208.8880  156.6930 C   0  0  0  0  0  1  0  0  0  0  0  0
  161.3340  206.4120  150.1030 C   0  0  0  0  0  0  0  0  0  0  0  0
  161.5150  210.1270  150.3360 C   0  0  0  0  0  0  0  0  0  0  0  0
  161.1660  203.8620  148.8690 C   0  0  0  0  0  0  0  0  0  0  0  0
  161.4270  206.2930  148.7040 C   0  0  0  0  0  0  0  0  0  0  0  0
  160.7230  209.9130  152.6890 C   0  0  0  0  0  0  0  0  0  0  0  0
  161.4070  207.6870  150.7060 C   0  0  0  0  0  0  0  0  0  0  0  0
  161.5550  208.2460  154.4500 C   0  0  0  0  0  2  0  0  0  0  0  0
  161.6040  207.3990  147.9460 N   0  0  0  0  0  0  0  0  0  0  0  0
  160.0880  209.9600  155.1260 C   0  0  0  0  0  2  0  0  0  0  0  0
  160.0480  210.6900  153.7860 C   0  0  0  0  0  2  0  0  0  0  0  0
  161.3650  208.6240  153.0070 C   0  0  0  0  0  0  0  0  0  0  0  0
  162.6900  213.4540  147.8840 C   0  0  0  0  0  3  0  0  0  0  0  0
  161.9100  211.2630  149.4580 C   0  0  0  0  0  0  0  0  0  0  0  0
  163.0770  211.2010  148.6770 C   0  0  0  0  0  3  0  0  0  0  0  0
  163.4610  212.2900  147.8900 C   0  0  0  0  0  3  0  0  0  0  0  0
  161.5380  213.5340  148.6710 C   0  0  0  0  0  3  0  0  0  0  0  0
  161.1540  212.4440  149.4590 C   0  0  0  0  0  3  0  0  0  0  0  0
  1 15  1  0  0  0  0
  2 12  1  0  0  0  0
  2 16  1  0  0  0  0
  3 21  1  0  0  0  0
  4 14  1  0  0  0  0
  4 13  1  0  0  0  0
  5 13  1  0  0  0  0
  6  2  2  0  0  0  0
  8 10  1  0  0  0  0
  9  7  1  0  0  0  0
 11 16  1  0  0  0  0
 11  7  2  0  0  0  0
 12  1  2  0  0  0  0
 13  9  2  0  0  0  0
 14 11  1  0  0  0  0
 15 21  2  0  0  0  0
 15 20  1  0  0  0  0
 16  3  2  0  0  0  0
 17  8  1  0  0  0  0
 18  6  1  0  0  0  0
 18 14  2  0  0  0  0
 19  8  1  0  0  0  0
 20 19  1  0  0  0  0
 21 17  1  0  0  0  0
 22 25  2  0  0  0  0
 22 26  1  0  0  0  0
 23 27  1  0  0  0  0
 23 12  1  0  0  0  0
 24 23  2  0  0  0  0
 25 24  1  0  0  0  0
 26 27  2  0  0  0  0
M  END
>  <MODEL>
1

>  <REMARK>
 VINA RESULT:      -7.9      0.000      0.000
  Name = 
  1 active torsions:
  status: ('A' for Active; 'I' for Inactive)
    1  A    between atoms: C_9  and  C_15
                            x       y       z     vdW  Elec       q    Type
                         _______ _______ _______ _____ _____    ______ ____

>  <TORSDO>
F 1

$$$$
=
 OpenBabel11052423163D

 27 31  0  0  0  0  0  0  0  0999 V2000
  161.4490  206.9270  153.2680 N   0  0  0  0  0  0  0  0  0  0  0  0
  161.4010  207.7460  150.9490 C   0  0  0  0  0  0  0  0  0  0  0  0
  160.6530  209.6510  152.4180 N   0  0  0  0  0  0  0  0  0  0  0  0
  162.2480  210.5110  147.9760 C   0  0  0  0  0  2  0  0  0  0  0  0
  162.5550  212.8300  147.1750 O   0  0  0  0  0  1  0  0  0  0  0  0
  161.7480  207.3910  149.6310 C   0  0  0  0  0  3  0  0  0  0  0  0
  161.4360  211.5620  150.5290 C   0  0  0  0  0  3  0  0  0  0  0  0
  159.7110  209.3410  155.9130 N   0  0  0  0  0  0  0  0  0  0  0  0
  161.8410  212.4540  149.3860 C   0  0  0  0  0  3  0  0  0  0  0  0
  159.2500  210.3280  156.8710 C   0  0  0  0  0  1  0  0  0  0  0  0
  161.5810  210.0810  150.2320 C   0  0  0  0  0  0  0  0  0  0  0  0
  161.2470  206.7450  151.8590 C   0  0  0  0  0  0  0  0  0  0  0  0
  162.2050  211.9640  148.2020 C   0  0  0  0  0  0  0  0  0  0  0  0
  161.9560  209.6420  148.9480 C   0  0  0  0  0  0  0  0  0  0  0  0
  161.2260  207.9320  154.0490 C   0  0  0  0  0  0  0  0  0  0  0  0
  161.2840  209.1350  151.2380 C   0  0  0  0  0  0  0  0  0  0  0  0
  159.9000  210.0440  154.6460 C   0  0  0  0  0  2  0  0  0  0  0  0
  162.0120  208.3190  148.6800 N   0  0  0  0  0  0  0  0  0  0  0  0
  161.0230  208.8950  156.3670 C   0  0  0  0  0  2  0  0  0  0  0  0
  161.4840  207.7150  155.5150 C   0  0  0  0  0  2  0  0  0  0  0  0
  160.5450  209.1640  153.6100 C   0  0  0  0  0  0  0  0  0  0  0  0
  160.8310  202.6380  150.6630 C   0  0  0  0  0  3  0  0  0  0  0  0
  161.1360  205.3230  151.4310 C   0  0  0  0  0  0  0  0  0  0  0  0
  160.8860  204.9880  150.0890 C   0  0  0  0  0  3  0  0  0  0  0  0
  160.7410  203.6520  149.7070 C   0  0  0  0  0  3  0  0  0  0  0  0
  161.0610  202.9600  152.0030 C   0  0  0  0  0  3  0  0  0  0  0  0
  161.2060  204.2970  152.3860 C   0  0  0  0  0  3  0  0  0  0  0  0
  1 15  1  0  0  0  0
  2 16  1  0  0  0  0
  2 12  1  0  0  0  0
  3 21  1  0  0  0  0
  4 13  1  0  0  0  0
  4 14  1  0  0  0  0
  5 13  1  0  0  0  0
  6  2  2  0  0  0  0
  8 19  1  0  0  0  0
  8 10  1  0  0  0  0
  9  7  1  0  0  0  0
 11  7  2  0  0  0  0
 11 16  1  0  0  0  0
 12  1  2  0  0  0  0
 13  9  2  0  0  0  0
 14 11  1  0  0  0  0
 15 20  1  0  0  0  0
 16  3  2  0  0  0  0
 17  8  1  0  0  0  0
 18 14  2  0  0  0  0
 18  6  1  0  0  0  0
 20 19  1  0  0  0  0
 21 15  2  0  0  0  0
 21 17  1  0  0  0  0
 22 26  1  0  0  0  0
 23 12  1  0  0  0  0
 23 27  1  0  0  0  0
 24 23  2  0  0  0  0
 25 24  1  0  0  0  0
 25 22  2  0  0  0  0
 26 27  2  0  0  0  0
M  END
>  <MODEL>
2

>  <REMARK>
 VINA RESULT:      -7.4      2.318      5.858
  Name = 
  1 active torsions:
  status: ('A' for Active; 'I' for Inactive)
    1  A    between atoms: C_9  and  C_15
                            x       y       z     vdW  Elec       q    Type
                         _______ _______ _______ _____ _____    ______ ____

>  <TORSDO>
F 1

$$$$
=
 OpenBabel11052423163D

 27 31  0  0  0  0  0  0  0  0999 V2000
  161.3150  207.9740  153.2120 N   0  0  0  0  0  0  0  0  0  0  0  0
  161.3830  208.7290  150.8730 C   0  0  0  0  0  0  0  0  0  0  0  0
  160.4030  210.6150  152.2260 N   0  0  0  0  0  0  0  0  0  0  0  0
  162.2600  211.4690  147.8860 C   0  0  0  0  0  2  0  0  0  0  0  0
  162.4700  213.7830  147.0390 O   0  0  0  0  0  1  0  0  0  0  0  0
  161.8480  208.3650  149.5940 C   0  0  0  0  0  3  0  0  0  0  0  0
  161.1940  212.5260  150.3410 C   0  0  0  0  0  3  0  0  0  0  0  0
  159.2300  210.3290  155.6520 N   0  0  0  0  0  0  0  0  0  0  0  0
  161.6220  213.4150  149.2030 C   0  0  0  0  0  3  0  0  0  0  0  0
  158.6350  211.3060  156.5440 C   0  0  0  0  0  1  0  0  0  0  0  0
  161.4590  211.0510  150.1000 C   0  0  0  0  0  0  0  0  0  0  0  0
  161.2290  207.7430  151.7990 C   0  0  0  0  0  0  0  0  0  0  0  0
  162.1040  212.9210  148.0650 C   0  0  0  0  0  0  0  0  0  0  0  0
  161.9560  210.6070  148.8600 C   0  0  0  0  0  0  0  0  0  0  0  0
  160.9680  208.9800  153.9450 C   0  0  0  0  0  0  0  0  0  0  0  0
  161.1530  210.1130  151.1100 C   0  0  0  0  0  0  0  0  0  0  0  0
  159.4640  211.0110  154.3810 C   0  0  0  0  0  2  0  0  0  0  0  0
  162.1200  209.2840  148.6370 N   0  0  0  0  0  0  0  0  0  0  0  0
  160.5310  209.9860  156.2130 C   0  0  0  0  0  2  0  0  0  0  0  0
  161.1310  208.8190  155.4320 C   0  0  0  0  0  2  0  0  0  0  0  0
  160.2410  210.1520  153.4210 C   0  0  0  0  0  0  0  0  0  0  0  0
  161.1860  203.5830  150.7210 C   0  0  0  0  0  3  0  0  0  0  0  0
  161.2440  206.3060  151.4070 C   0  0  0  0  0  0  0  0  0  0  0  0
  160.8540  205.9030  150.1190 C   0  0  0  0  0  3  0  0  0  0  0  0
  160.8310  204.5480  149.7770 C   0  0  0  0  0  3  0  0  0  0  0  0
  161.5590  203.9710  152.0110 C   0  0  0  0  0  3  0  0  0  0  0  0
  161.5820  205.3260  152.3530 C   0  0  0  0  0  3  0  0  0  0  0  0
  1 15  1  0  0  0  0
  2 16  1  0  0  0  0
  2 12  1  0  0  0  0
  3 21  1  0  0  0  0
  4 13  1  0  0  0  0
  4 14  1  0  0  0  0
  5 13  1  0  0  0  0
  6  2  2  0  0  0  0
  8 19  1  0  0  0  0
  8 10  1  0  0  0  0
  9  7  1  0  0  0  0
 11  7  2  0  0  0  0
 11 16  1  0  0  0  0
 12  1  2  0  0  0  0
 13  9  2  0  0  0  0
 14 11  1  0  0  0  0
 15 20  1  0  0  0  0
 16  3  2  0  0  0  0
 17  8  1  0  0  0  0
 18 14  2  0  0  0  0
 18  6  1  0  0  0  0
 20 19  1  0  0  0  0
 21 15  2  0  0  0  0
 21 17  1  0  0  0  0
 22 26  1  0  0  0  0
 23 12  1  0  0  0  0
 23 27  1  0  0  0  0
 24 23  2  0  0  0  0
 25 24  1  0  0  0  0
 25 22  2  0  0  0  0
 26 27  2  0  0  0  0
M  END
>  <MODEL>
3

>  <REMARK>
 VINA RESULT:      -7.2      2.481      5.867
  Name = 
  1 active torsions:
  status: ('A' for Active; 'I' for Inactive)
    1  A    between atoms: C_9  and  C_15
                            x       y       z     vdW  Elec       q    Type
                         _______ _______ _______ _____ _____    ______ ____

>  <TORSDO>
F 1

$$$$
=
 OpenBabel11052423163D

 27 31  0  0  0  0  0  0  0  0999 V2000
  162.4910  208.4210  148.2610 N   0  0  0  0  0  0  0  0  0  0  0  0
  161.6600  209.2790  150.4100 C   0  0  0  0  0  0  0  0  0  0  0  0
  161.0340  206.8410  150.3010 N   0  0  0  0  0  0  0  0  0  0  0  0
  161.1580  209.1140  154.5240 C   0  0  0  0  0  3  0  0  0  0  0  0
  160.8260  207.8680  156.6340 O   0  0  0  0  0  1  0  0  0  0  0  0
  161.6820  210.4140  151.2440 C   0  0  0  0  0  3  0  0  0  0  0  0
  160.9200  206.6310  153.0890 C   0  0  0  0  0  2  0  0  0  0  0  0
  161.1710  204.7890  147.3070 N   0  0  0  0  0  0  0  0  0  0  0  0
  160.8310  206.7020  154.5900 C   0  0  0  0  0  3  0  0  0  0  0  0
  160.8320  203.3960  147.0850 C   0  0  0  0  0  1  0  0  0  0  0  0
  161.2290  207.9620  152.4290 C   0  0  0  0  0  0  0  0  0  0  0  0
  161.9390  209.4540  149.0900 C   0  0  0  0  0  0  0  0  0  0  0  0
  160.9310  207.8540  155.2500 C   0  0  0  0  0  0  0  0  0  0  0  0
  161.3020  209.1400  153.1960 C   0  0  0  0  0  0  0  0  0  0  0  0
  162.3250  207.1390  148.2540 C   0  0  0  0  0  0  0  0  0  0  0  0
  161.3910  208.0250  151.0280 C   0  0  0  0  0  0  0  0  0  0  0  0
  160.8750  205.0730  148.7090 C   0  0  0  0  0  2  0  0  0  0  0  0
  161.5080  210.3270  152.5840 N   0  0  0  0  0  0  0  0  0  0  0  0
  162.6130  204.9040  147.1290 C   0  0  0  0  0  2  0  0  0  0  0  0
  163.0140  206.3760  147.1550 C   0  0  0  0  0  2  0  0  0  0  0  0
  161.3480  206.4440  149.1120 C   0  0  0  0  0  0  0  0  0  0  0  0
  162.0510  213.3320  147.2430 C   0  0  0  0  0  3  0  0  0  0  0  0
  161.9590  210.8110  148.4770 C   0  0  0  0  0  0  0  0  0  0  0  0
  160.8310  211.3210  147.8120 C   0  0  0  0  0  3  0  0  0  0  0  0
  160.8760  212.5790  147.2030 C   0  0  0  0  0  3  0  0  0  0  0  0
  163.1840  212.8280  147.8860 C   0  0  0  0  0  3  0  0  0  0  0  0
  163.1390  211.5700  148.4950 C   0  0  0  0  0  3  0  0  0  0  0  0
  1 12  1  0  0  0  0
  2 16  1  0  0  0  0
  2  6  1  0  0  0  0
  3 16  1  0  0  0  0
  4 13  1  0  0  0  0
  6 18  2  0  0  0  0
  7  9  1  0  0  0  0
  8 17  1  0  0  0  0
  9 13  2  0  0  0  0
 10  8  1  0  0  0  0
 11  7  1  0  0  0  0
 11 14  1  0  0  0  0
 12  2  2  0  0  0  0
 13  5  1  0  0  0  0
 14  4  2  0  0  0  0
 15  1  2  0  0  0  0
 15 21  1  0  0  0  0
 16 11  2  0  0  0  0
 17 21  1  0  0  0  0
 18 14  1  0  0  0  0
 19 20  1  0  0  0  0
 19  8  1  0  0  0  0
 20 15  1  0  0  0  0
 21  3  2  0  0  0  0
 22 26  1  0  0  0  0
 23 27  1  0  0  0  0
 23 12  1  0  0  0  0
 24 23  2  0  0  0  0
 25 22  2  0  0  0  0
 25 24  1  0  0  0  0
 26 27  2  0  0  0  0
M  END
>  <MODEL>
4

>  <REMARK>
 VINA RESULT:      -7.0      2.360      5.585
  Name = 
  1 active torsions:
  status: ('A' for Active; 'I' for Inactive)
    1  A    between atoms: C_9  and  C_15
                            x       y       z     vdW  Elec       q    Type
                         _______ _______ _______ _____ _____    ______ ____

>  <TORSDO>
F 1

$$$$
=
 OpenBabel11052423163D

 27 31  0  0  0  0  0  0  0  0999 V2000
  160.3910  211.7740  151.8590 N   0  0  0  0  0  0  0  0  0  0  0  0
  161.3730  209.6930  150.9900 C   0  0  0  0  0  0  0  0  0  0  0  0
  161.2560  209.4600  153.4950 N   0  0  0  0  0  0  0  0  0  0  0  0
  161.6790  205.5660  150.7260 C   0  0  0  0  0  2  0  0  0  0  0  0
  161.5650  203.3010  151.7130 O   0  0  0  0  0  1  0  0  0  0  0  0
  161.6610  209.0080  149.7930 C   0  0  0  0  0  3  0  0  0  0  0  0
  161.2180  206.6650  153.3450 C   0  0  0  0  0  3  0  0  0  0  0  0
  160.6120  212.1830  155.8120 N   0  0  0  0  0  0  0  0  0  0  0  0
  161.2790  205.1820  153.0970 C   0  0  0  0  0  3  0  0  0  0  0  0
  160.5320  212.2070  157.2610 C   0  0  0  0  0  1  0  0  0  0  0  0
  161.3350  207.5030  152.0850 C   0  0  0  0  0  0  0  0  0  0  0  0
  161.1980  211.0420  150.9250 C   0  0  0  0  0  0  0  0  0  0  0  0
  161.5030  204.6770  151.8850 C   0  0  0  0  0  0  0  0  0  0  0  0
  161.5890  206.8930  150.8420 C   0  0  0  0  0  0  0  0  0  0  0  0
  160.1720  211.6120  153.1230 C   0  0  0  0  0  0  0  0  0  0  0  0
  161.2410  208.9090  152.1710 C   0  0  0  0  0  0  0  0  0  0  0  0
  160.9350  210.8080  155.4350 C   0  0  0  0  0  2  0  0  0  0  0  0
  161.7610  207.6590  149.7410 N   0  0  0  0  0  0  0  0  0  0  0  0
  159.2730  212.4720  155.3130 C   0  0  0  0  0  2  0  0  0  0  0  0
  159.3230  212.6540  153.7980 C   0  0  0  0  0  2  0  0  0  0  0  0
  160.8750  210.6100  153.9450 C   0  0  0  0  0  0  0  0  0  0  0  0
  162.3120  213.2000  147.3800 C   0  0  0  0  0  3  0  0  0  0  0  0
  161.5970  211.8160  149.7170 C   0  0  0  0  0  0  0  0  0  0  0  0
  160.8250  212.9000  149.2650 C   0  0  0  0  0  3  0  0  0  0  0  0
  161.1850  213.5920  148.1060 C   0  0  0  0  0  3  0  0  0  0  0  0
  163.0770  212.1130  147.8100 C   0  0  0  0  0  3  0  0  0  0  0  0
  162.7160  211.4200  148.9700 C   0  0  0  0  0  3  0  0  0  0  0  0
  1 15  1  0  0  0  0
  2 16  1  0  0  0  0
  3 21  1  0  0  0  0
  4 14  1  0  0  0  0
  4 13  1  0  0  0  0
  5 13  1  0  0  0  0
  6  2  2  0  0  0  0
  8 10  1  0  0  0  0
  9  7  1  0  0  0  0
 11 16  1  0  0  0  0
 11  7  2  0  0  0  0
 12  2  1  0  0  0  0
 12  1  2  0  0  0  0
 13  9  2  0  0  0  0
 14 11  1  0  0  0  0
 15 20  1  0  0  0  0
 15 21  2  0  0  0  0
 16  3  2  0  0  0  0
 17  8  1  0  0  0  0
 18  6  1  0  0  0  0
 18 14  2  0  0  0  0
 19  8  1  0  0  0  0
 20 19  1  0  0  0  0
 21 17  1  0  0  0  0
 22 26  2  0  0  0  0
 22 25  1  0  0  0  0
 23 12  1  0  0  0  0
 24 23  1  0  0  0  0
 25 24  2  0  0  0  0
 26 27  1  0  0  0  0
 27 23  2  0  0  0  0
M  END
>  <MODEL>
5

>  <REMARK>
 VINA RESULT:      -6.9      1.629      2.362
  Name = 
  1 active torsions:
  status: ('A' for Active; 'I' for Inactive)
    1  A    between atoms: C_9  and  C_15
                            x       y       z     vdW  Elec       q    Type
                         _______ _______ _______ _____ _____    ______ ____

>  <TORSDO>
F 1

$$$$
=
 OpenBabel11052423163D

 27 31  0  0  0  0  0  0  0  0999 V2000
  160.8070  209.8330  152.1170 N   0  0  0  0  0  0  0  0  0  0  0  0
  161.3690  208.1080  150.4560 C   0  0  0  0  0  0  0  0  0  0  0  0
  161.4700  207.0090  152.7200 N   0  0  0  0  0  0  0  0  0  0  0  0
  161.0170  204.3400  148.7590 C   0  0  0  0  0  2  0  0  0  0  0  0
  160.6590  201.8980  148.9200 O   0  0  0  0  0  1  0  0  0  0  0  0
  161.4280  207.8690  149.0690 C   0  0  0  0  0  3  0  0  0  0  0  0
  160.9930  204.4730  151.6340 C   0  0  0  0  0  3  0  0  0  0  0  0
  161.4820  208.7750  155.8940 N   0  0  0  0  0  0  0  0  0  0  0  0
  160.8020  203.1790  150.8890 C   0  0  0  0  0  3  0  0  0  0  0  0
  161.5520  208.2890  157.2600 C   0  0  0  0  0  1  0  0  0  0  0  0
  161.1090  205.6890  150.7320 C   0  0  0  0  0  0  0  0  0  0  0  0
  161.3950  209.4010  150.8810 C   0  0  0  0  0  0  0  0  0  0  0  0
  160.8250  203.1200  149.5590 C   0  0  0  0  0  0  0  0  0  0  0  0
  161.1420  205.5400  149.3330 C   0  0  0  0  0  0  0  0  0  0  0  0
  160.6940  209.2540  153.2670 C   0  0  0  0  0  0  0  0  0  0  0  0
  161.2390  206.9730  151.3050 C   0  0  0  0  0  0  0  0  0  0  0  0
  161.5530  207.6000  155.0280 C   0  0  0  0  0  2  0  0  0  0  0  0
  161.3170  206.6250  148.5460 N   0  0  0  0  0  0  0  0  0  0  0  0
  160.1600  209.3650  155.7260 C   0  0  0  0  0  2  0  0  0  0  0  0
  160.0850  210.0710  154.3750 C   0  0  0  0  0  2  0  0  0  0  0  0
  161.3150  207.9550  153.5860 C   0  0  0  0  0  0  0  0  0  0  0  0
  162.4380  212.5730  148.1760 C   0  0  0  0  0  3  0  0  0  0  0  0
  161.7840  210.5080  149.9650 C   0  0  0  0  0  0  0  0  0  0  0  0
  161.4850  211.8460  150.2780 C   0  0  0  0  0  3  0  0  0  0  0  0
  161.8170  212.8720  149.3900 C   0  0  0  0  0  3  0  0  0  0  0  0
  162.7230  211.2460  147.8460 C   0  0  0  0  0  3  0  0  0  0  0  0
  162.3920  210.2180  148.7340 C   0  0  0  0  0  3  0  0  0  0  0  0
  1 15  1  0  0  0  0
  2 12  1  0  0  0  0
  2 16  1  0  0  0  0
  3 21  1  0  0  0  0
  4 14  1  0  0  0  0
  4 13  1  0  0  0  0
  5 13  1  0  0  0  0
  6  2  2  0  0  0  0
  8 10  1  0  0  0  0
  9  7  1  0  0  0  0
 11 16  1  0  0  0  0
 11  7  2  0  0  0  0
 12  1  2  0  0  0  0
 13  9  2  0  0  0  0
 14 11  1  0  0  0  0
 15 21  2  0  0  0  0
 15 20  1  0  0  0  0
 16  3  2  0  0  0  0
 17  8  1  0  0  0  0
 18  6  1  0  0  0  0
 18 14  2  0  0  0  0
 19  8  1  0  0  0  0
 20 19  1  0  0  0  0
 21 17  1  0  0  0  0
 22 25  1  0  0  0  0
 23 24  1  0  0  0  0
 23 12  1  0  0  0  0
 25 24  2  0  0  0  0
 26 22  2  0  0  0  0
 26 27  1  0  0  0  0
 27 23  2  0  0  0  0
M  END
>  <MODEL>
6

>  <REMARK>
 VINA RESULT:      -6.8      0.901      1.304
  Name = 
  1 active torsions:
  status: ('A' for Active; 'I' for Inactive)
    1  A    between atoms: C_9  and  C_15
                            x       y       z     vdW  Elec       q    Type
                         _______ _______ _______ _____ _____    ______ ____

>  <TORSDO>
F 1

$$$$
=
 OpenBabel11052423163D

 27 31  0  0  0  0  0  0  0  0999 V2000
  162.0160  208.9360  152.0710 N   0  0  0  0  0  0  0  0  0  0  0  0
  161.1600  206.6330  151.9450 C   0  0  0  0  0  0  0  0  0  0  0  0
  161.1530  207.5490  149.5990 N   0  0  0  0  0  0  0  0  0  0  0  0
  161.0240  202.8120  150.3400 C   0  0  0  0  0  3  0  0  0  0  0  0
  161.1710  201.2350  148.4390 O   0  0  0  0  0  1  0  0  0  0  0  0
  160.9620  205.4710  152.7160 C   0  0  0  0  0  3  0  0  0  0  0  0
  161.3040  204.9890  148.4790 C   0  0  0  0  0  2  0  0  0  0  0  0
  161.5700  211.0520  148.7290 N   0  0  0  0  0  0  0  0  0  0  0  0
  161.3120  203.5500  148.0370 C   0  0  0  0  0  3  0  0  0  0  0  0
  161.5720  211.7250  147.4440 C   0  0  0  0  0  1  0  0  0  0  0  0
  161.2230  205.1680  149.9840 C   0  0  0  0  0  0  0  0  0  0  0  0
  161.2880  207.8190  152.6020 C   0  0  0  0  0  0  0  0  0  0  0  0
  161.1720  202.5450  148.9000 C   0  0  0  0  0  0  0  0  0  0  0  0
  161.0580  204.0540  150.8280 C   0  0  0  0  0  0  0  0  0  0  0  0
  162.1730  209.3680  150.8630 C   0  0  0  0  0  0  0  0  0  0  0  0
  161.2580  206.4680  150.5350 C   0  0  0  0  0  0  0  0  0  0  0  0
  161.3190  209.6380  148.4600 C   0  0  0  0  0  2  0  0  0  0  0  0
  160.9160  204.2370  152.1600 N   0  0  0  0  0  0  0  0  0  0  0  0
  162.9210  211.1640  149.2640 C   0  0  0  0  0  2  0  0  0  0  0  0
  162.9450  210.6490  150.7010 C   0  0  0  0  0  2  0  0  0  0  0  0
  161.4650  208.7990  149.7000 C   0  0  0  0  0  0  0  0  0  0  0  0
  160.1500  208.2310  156.7250 C   0  0  0  0  0  3  0  0  0  0  0  0
  160.9250  207.9480  154.0400 C   0  0  0  0  0  0  0  0  0  0  0  0
  160.5130  206.8300  154.7860 C   0  0  0  0  0  3  0  0  0  0  0  0
  160.1330  206.9710  156.1230 C   0  0  0  0  0  3  0  0  0  0  0  0
  160.5400  209.3530  155.9880 C   0  0  0  0  0  3  0  0  0  0  0  0
  160.9200  209.2120  154.6500 C   0  0  0  0  0  3  0  0  0  0  0  0
  1 12  1  0  0  0  0
  2 12  2  0  0  0  0
  2  6  1  0  0  0  0
  3 21  2  0  0  0  0
  3 16  1  0  0  0  0
  4 14  2  0  0  0  0
  5 13  1  0  0  0  0
  7 11  1  0  0  0  0
  8 19  1  0  0  0  0
  9  7  1  0  0  0  0
  9 13  2  0  0  0  0
 10  8  1  0  0  0  0
 11 16  2  0  0  0  0
 11 14  1  0  0  0  0
 12 23  1  0  0  0  0
 13  4  1  0  0  0  0
 14 18  1  0  0  0  0
 15  1  2  0  0  0  0
 16  2  1  0  0  0  0
 17  8  1  0  0  0  0
 17 21  1  0  0  0  0
 18  6  2  0  0  0  0
 19 20  1  0  0  0  0
 20 15  1  0  0  0  0
 21 15  1  0  0  0  0
 23 27  2  0  0  0  0
 23 24  1  0  0  0  0
 24 25  2  0  0  0  0
 25 22  1  0  0  0  0
 26 22  2  0  0  0  0
 27 26  1  0  0  0  0
M  END
>  <MODEL>
7

>  <REMARK>
 VINA RESULT:      -6.7      1.538      5.463
  Name = 
  1 active torsions:
  status: ('A' for Active; 'I' for Inactive)
    1  A    between atoms: C_9  and  C_15
                            x       y       z     vdW  Elec       q    Type
                         _______ _______ _______ _____ _____    ______ ____

>  <TORSDO>
F 1

$$$$
=
 OpenBabel11052423163D

 27 31  0  0  0  0  0  0  0  0999 V2000
  161.2190  208.6010  148.2610 N   0  0  0  0  0  0  0  0  0  0  0  0
  161.5180  207.5480  150.4640 C   0  0  0  0  0  0  0  0  0  0  0  0
  162.1370  209.9760  150.7190 N   0  0  0  0  0  0  0  0  0  0  0  0
  161.0230  207.3510  154.5760 C   0  0  0  0  0  3  0  0  0  0  0  0
  160.8340  208.4050  156.8060 O   0  0  0  0  0  1  0  0  0  0  0  0
  161.3050  206.3450  151.1660 C   0  0  0  0  0  2  0  0  0  0  0  0
  161.5810  209.9440  153.4620 C   0  0  0  0  0  3  0  0  0  0  0  0
  162.7070  212.2810  147.9700 N   0  0  0  0  0  0  0  0  0  0  0  0
  161.3100  209.7430  154.9290 C   0  0  0  0  0  3  0  0  0  0  0  0
  163.0800  213.6830  147.9580 C   0  0  0  0  0  1  0  0  0  0  0  0
  161.4460  208.6800  152.6340 C   0  0  0  0  0  0  0  0  0  0  0  0
  161.5630  207.4920  149.1040 C   0  0  0  0  0  0  0  0  0  0  0  0
  161.0620  208.5390  155.4420 C   0  0  0  0  0  0  0  0  0  0  0  0
  161.2000  207.4410  153.2560 C   0  0  0  0  0  0  0  0  0  0  0  0
  161.3740  209.8760  148.4060 C   0  0  0  0  0  0  0  0  0  0  0  0
  161.6240  208.7400  151.2340 C   0  0  0  0  0  0  0  0  0  0  0  0
  162.6610  211.8720  149.3720 C   0  0  0  0  0  2  0  0  0  0  0  0
  161.1530  206.3140  152.5110 N   0  0  0  0  0  0  0  0  0  0  0  0
  161.3500  212.2030  147.4440 C   0  0  0  0  0  2  0  0  0  0  0  0
  160.9620  210.7400  147.2450 C   0  0  0  0  0  2  0  0  0  0  0  0
  162.1140  210.4790  149.5290 C   0  0  0  0  0  0  0  0  0  0  0  0
  161.8540  203.7500  147.0100 C   0  0  0  0  0  3  0  0  0  0  0  0
  161.6980  206.1930  148.3880 C   0  0  0  0  0  0  0  0  0  0  0  0
  162.3310  206.1190  147.1360 C   0  0  0  0  0  3  0  0  0  0  0  0
  162.4130  204.9020  146.4540 C   0  0  0  0  0  3  0  0  0  0  0  0
  161.2060  203.8150  148.2460 C   0  0  0  0  0  3  0  0  0  0  0  0
  161.1230  205.0320  148.9290 C   0  0  0  0  0  3  0  0  0  0  0  0
  1 15  2  0  0  0  0
  1 12  1  0  0  0  0
  2  6  1  0  0  0  0
  2 16  1  0  0  0  0
  3 16  1  0  0  0  0
  4 13  2  0  0  0  0
  6 18  1  0  0  0  0
  7  9  2  0  0  0  0
  8 17  1  0  0  0  0
  9 13  1  0  0  0  0
 10  8  1  0  0  0  0
 11 14  1  0  0  0  0
 11  7  1  0  0  0  0
 12  2  2  0  0  0  0
 13  5  1  0  0  0  0
 14  4  1  0  0  0  0
 15 21  1  0  0  0  0
 16 11  2  0  0  0  0
 17 21  1  0  0  0  0
 18 14  2  0  0  0  0
 19  8  1  0  0  0  0
 20 19  1  0  0  0  0
 20 15  1  0  0  0  0
 21  3  2  0  0  0  0
 22 26  1  0  0  0  0
 23 27  1  0  0  0  0
 23 12  1  0  0  0  0
 24 23  2  0  0  0  0
 25 22  2  0  0  0  0
 25 24  1  0  0  0  0
 26 27  2  0  0  0  0
M  END
>  <MODEL>
8

>  <REMARK>
 VINA RESULT:      -6.2      2.499      6.432
  Name = 
  1 active torsions:
  status: ('A' for Active; 'I' for Inactive)
    1  A    between atoms: C_9  and  C_15
                            x       y       z     vdW  Elec       q    Type
                         _______ _______ _______ _____ _____    ______ ____

>  <TORSDO>
F 1

$$$$
=
 OpenBabel11052423163D

 27 31  0  0  0  0  0  0  0  0999 V2000
  162.1890  210.8090  150.7040 N   0  0  0  0  0  0  0  0  0  0  0  0
  161.3940  208.4920  150.9320 C   0  0  0  0  0  0  0  0  0  0  0  0
  161.2220  209.0920  148.4910 N   0  0  0  0  0  0  0  0  0  0  0  0
  161.2730  204.4910  149.8480 C   0  0  0  0  0  3  0  0  0  0  0  0
  161.3530  202.6820  148.1630 O   0  0  0  0  0  1  0  0  0  0  0  0
  161.2750  207.4370  151.8580 C   0  0  0  0  0  3  0  0  0  0  0  0
  161.3800  206.4100  147.7070 C   0  0  0  0  0  2  0  0  0  0  0  0
  161.4880  212.4580  147.1500 N   0  0  0  0  0  0  0  0  0  0  0  0
  161.4040  204.9260  147.4560 C   0  0  0  0  0  3  0  0  0  0  0  0
  161.3950  212.9560  145.7900 C   0  0  0  0  0  1  0  0  0  0  0  0
  161.3830  206.7840  149.1770 C   0  0  0  0  0  0  0  0  0  0  0  0
  161.5260  209.7560  151.4200 C   0  0  0  0  0  0  0  0  0  0  0  0
  161.3430  204.0410  148.4490 C   0  0  0  0  0  0  0  0  0  0  0  0
  161.2990  205.7880  150.1680 C   0  0  0  0  0  0  0  0  0  0  0  0
  162.2630  211.0820  149.4430 C   0  0  0  0  0  0  0  0  0  0  0  0
  161.4140  208.1450  149.5510 C   0  0  0  0  0  0  0  0  0  0  0  0
  161.2620  211.0150  147.0830 C   0  0  0  0  0  2  0  0  0  0  0  0
  161.2310  206.1410  151.4710 N   0  0  0  0  0  0  0  0  0  0  0  0
  162.8640  212.6670  147.5810 C   0  0  0  0  0  2  0  0  0  0  0  0
  162.9870  212.3450  149.0680 C   0  0  0  0  0  2  0  0  0  0  0  0
  161.5050  210.3500  148.4100 C   0  0  0  0  0  0  0  0  0  0  0  0
  160.7410  210.7480  155.5270 C   0  0  0  0  0  3  0  0  0  0  0  0
  161.2440  210.0660  152.8490 C   0  0  0  0  0  0  0  0  0  0  0  0
  159.9270  210.2470  153.3040 C   0  0  0  0  0  3  0  0  0  0  0  0
  159.6780  210.5800  154.6380 C   0  0  0  0  0  3  0  0  0  0  0  0
  162.0560  210.5890  155.0810 C   0  0  0  0  0  3  0  0  0  0  0  0
  162.3060  210.2560  153.7470 C   0  0  0  0  0  3  0  0  0  0  0  0
  1 12  1  0  0  0  0
  2 12  2  0  0  0  0
  2  6  1  0  0  0  0
  3 16  1  0  0  0  0
  4 14  2  0  0  0  0
  5 13  1  0  0  0  0
  7 11  1  0  0  0  0
  8 19  1  0  0  0  0
  9  7  1  0  0  0  0
  9 13  2  0  0  0  0
 10  8  1  0  0  0  0
 11 16  2  0  0  0  0
 11 14  1  0  0  0  0
 12 23  1  0  0  0  0
 13  4  1  0  0  0  0
 14 18  1  0  0  0  0
 15  1  2  0  0  0  0
 16  2  1  0  0  0  0
 17  8  1  0  0  0  0
 17 21  1  0  0  0  0
 18  6  2  0  0  0  0
 19 20  1  0  0  0  0
 20 15  1  0  0  0  0
 21  3  2  0  0  0  0
 21 15  1  0  0  0  0
 23 24  2  0  0  0  0
 23 27  1  0  0  0  0
 24 25  1  0  0  0  0
 25 22  2  0  0  0  0
 26 22  1  0  0  0  0
 27 26  2  0  0  0  0
M  END
>  <MODEL>
9

>  <REMARK>
 VINA RESULT:      -5.6      1.574      5.261
  Name = 
  1 active torsions:
  status: ('A' for Active; 'I' for Inactive)
    1  A    between atoms: C_9  and  C_15
                            x       y       z     vdW  Elec       q    Type
                         _______ _______ _______ _____ _____    ______ ____

>  <TORSDO>
F 1

$$$$
