=
 OpenBabel11062408233D

 32 37  0  0  1  0  0  0  0  0999 V2000
  161.6800  207.4430  152.1370 C   0  0  0  0  0  0  0  0  0  0  0  0
  161.5650  209.9280  152.5320 C   0  0  2  0  0  3  0  0  0  0  0  0
  161.5720  206.1340  152.6350 C   0  0  0  0  0  3  0  0  0  0  0  0
  161.3650  208.5150  152.9750 C   0  0  0  0  0  0  0  0  0  0  0  0
  160.2670  210.6960  152.8020 C   0  0  2  0  0  3  0  0  0  0  0  0
  161.5860  212.8320  148.4160 C   0  0  0  0  0  2  0  0  0  0  0  0
  162.0330  210.0160  151.0630 C   0  0  1  0  0  3  0  0  0  0  0  0
  160.2030  213.3900  150.4270 C   0  0  0  0  0  2  0  0  0  0  0  0
  160.4150  211.9860  150.9810 C   0  0  2  0  0  3  0  0  0  0  0  0
  159.2350  211.5890  154.9950 N   0  0  0  0  0  2  0  0  0  0  0  0
  160.7540  208.3030  154.2140 C   0  0  0  0  0  0  0  0  0  0  0  0
  160.4160  212.0280  152.3870 O   0  0  0  0  0  0  0  0  0  0  0  0
  160.1370  209.4160  154.8870 N   0  0  0  0  0  0  0  0  0  0  0  0
  160.6290  207.0000  154.7060 C   0  0  0  0  0  3  0  0  0  0  0  0
  161.4850  208.9690  150.2900 O   0  0  0  0  0  0  0  0  0  0  0  0
  158.8290  212.7350  154.4000 O   0  0  0  0  0  1  0  0  0  0  0  0
  162.1120  207.7750  150.7210 C   0  0  2  0  0  3  0  0  0  0  0  0
  161.7540  211.4100  150.4730 C   0  0  2  0  0  3  0  0  0  0  0  0
  159.9220  210.5570  154.2830 C   0  0  0  0  0  0  0  0  0  0  0  0
  161.0640  205.9180  153.9250 C   0  0  0  0  0  3  0  0  0  0  0  0
  160.2420  213.3670  148.9010 C   0  0  0  0  0  2  0  0  0  0  0  0
  161.8160  211.4190  148.9440 C   0  0  0  0  0  2  0  0  0  0  0  0
  161.8820  205.7780  147.4890 C   0  0  0  0  0  0  0  0  0  0  0  0
  162.1920  205.9200  146.1420 O   0  0  0  0  0  1  0  0  0  0  0  0
  161.8220  206.6690  149.7470 C   0  0  0  0  0  0  0  0  0  0  0  0
  161.3110  204.5870  147.9440 C   0  0  0  0  0  3  0  0  0  0  0  0
  161.2540  205.4670  150.1950 C   0  0  0  0  0  3  0  0  0  0  0  0
  162.1410  206.8200  148.3870 C   0  0  0  0  0  0  0  0  0  0  0  0
  162.7130  208.0030  147.9280 O   0  0  0  0  0  1  0  0  0  0  0  0
  160.9930  204.4250  149.3020 C   0  0  0  0  0  0  0  0  0  0  0  0
  160.4290  202.0300  149.0470 C   0  0  0  0  0  1  0  0  0  0  0  0
  160.4240  203.2450  149.7860 O   0  0  0  0  0  0  0  0  0  0  0  0
  1  3  2  0  0  0  0
  1  4  1  0  0  0  0
  2  5  1  0  0  0  0
  2  4  1  6  0  0  0
  3 20  1  0  0  0  0
  4 11  2  0  0  0  0
  5 12  1  1  0  0  0
  5 19  1  0  0  0  0
  6 21  1  0  0  0  0
  6 22  1  0  0  0  0
  7 15  1  6  0  0  0
  7  2  1  0  0  0  0
  9  8  1  6  0  0  0
  9 12  1  0  0  0  0
 11 14  1  0  0  0  0
 11 13  1  0  0  0  0
 15 17  1  0  0  0  0
 16 10  1  0  0  0  0
 17 25  1  6  0  0  0
 17  1  1  0  0  0  0
 18 22  1  6  0  0  0
 18  9  1  0  0  0  0
 18  7  1  0  0  0  0
 19 13  2  0  0  0  0
 19 10  1  0  0  0  0
 20 14  2  0  0  0  0
 21  8  1  0  0  0  0
 23 26  2  0  0  0  0
 23 28  1  0  0  0  0
 24 23  1  0  0  0  0
 25 27  1  0  0  0  0
 26 30  1  0  0  0  0
 28 25  2  0  0  0  0
 29 28  1  0  0  0  0
 30 32  1  0  0  0  0
 30 27  2  0  0  0  0
 31 32  1  0  0  0  0
M  END
>  <MODEL>
1

>  <REMARK>
 VINA RESULT:      -9.9      0.000      0.000
  Name = 
  2 active torsions:
  status: ('A' for Active; 'I' for Inactive)
    1  A    between atoms: O_15  and  C_26
    2  A    between atoms: C_16  and  C_27
                            x       y       z     vdW  Elec       q    Type
                         _______ _______ _______ _____ _____    ______ ____

>  <TORSDO>
F 2

$$$$
=
 OpenBabel11062408233D

 32 37  0  0  1  0  0  0  0  0999 V2000
  161.8710  209.1680  151.1160 C   0  0  0  0  0  0  0  0  0  0  0  0
  162.3080  206.9720  149.9610 C   0  0  2  0  0  3  0  0  0  0  0  0
  161.8110  210.5700  151.0630 C   0  0  0  0  0  3  0  0  0  0  0  0
  162.1270  208.4560  149.9420 C   0  0  0  0  0  0  0  0  0  0  0  0
  161.3970  206.3710  148.8850 C   0  0  2  0  0  3  0  0  0  0  0  0
  160.8900  202.8320  152.4560 C   0  0  0  0  0  2  0  0  0  0  0  0
  162.0700  206.3750  151.3650 C   0  0  1  0  0  3  0  0  0  0  0  0
  160.6600  203.0280  149.9710 C   0  0  0  0  0  2  0  0  0  0  0  0
  160.8940  204.5320  150.0530 C   0  0  2  0  0  3  0  0  0  0  0  0
  161.6080  206.3070  146.3100 N   0  0  0  0  0  2  0  0  0  0  0  0
  162.1180  209.0930  148.6980 C   0  0  0  0  0  0  0  0  0  0  0  0
  161.5350  204.9750  148.8810 O   0  0  0  0  0  0  0  0  0  0  0  0
  162.0390  208.2910  147.5050 N   0  0  0  0  0  0  0  0  0  0  0  0
  162.0400  210.4880  148.6400 C   0  0  0  0  0  3  0  0  0  0  0  0
  161.0870  207.1050  152.0690 O   0  0  0  0  0  0  0  0  0  0  0  0
  161.1470  205.0360  146.2510 O   0  0  0  0  0  1  0  0  0  0  0  0
  161.6610  208.3600  152.3830 C   0  0  2  0  0  3  0  0  0  0  0  0
  161.7600  204.8690  151.2850 C   0  0  2  0  0  3  0  0  0  0  0  0
  161.7420  207.0170  147.5450 C   0  0  0  0  0  0  0  0  0  0  0  0
  161.9150  211.2260  149.8260 C   0  0  0  0  0  3  0  0  0  0  0  0
  160.0030  202.5250  151.2530 C   0  0  0  0  0  2  0  0  0  0  0  0
  161.1270  204.3350  152.5710 C   0  0  0  0  0  2  0  0  0  0  0  0
  160.0230  209.3430  155.6760 C   0  0  0  0  0  0  0  0  0  0  0  0
  160.0210  208.9450  157.0070 O   0  0  0  0  0  1  0  0  0  0  0  0
  160.8060  209.0710  153.3940 C   0  0  0  0  0  0  0  0  0  0  0  0
  159.2360  210.4250  155.2770 C   0  0  0  0  0  3  0  0  0  0  0  0
  160.0160  210.1630  153.0040 C   0  0  0  0  0  3  0  0  0  0  0  0
  160.8110  208.6640  154.7380 C   0  0  0  0  0  0  0  0  0  0  0  0
  161.5960  207.5880  155.1420 O   0  0  0  0  0  1  0  0  0  0  0  0
  159.2280  210.8420  153.9370 C   0  0  0  0  0  0  0  0  0  0  0  0
  158.5260  212.4450  152.1900 C   0  0  0  0  0  1  0  0  0  0  0  0
  158.4530  211.9230  153.5090 O   0  0  0  0  0  0  0  0  0  0  0  0
  1 17  1  0  0  0  0
  2  4  1  1  0  0  0
  2  7  1  0  0  0  0
  3  1  1  0  0  0  0
  4  1  2  0  0  0  0
  5 19  1  6  0  0  0
  5  2  1  0  0  0  0
  6 22  1  0  0  0  0
  7 15  1  6  0  0  0
  8 21  1  0  0  0  0
  9  8  1  6  0  0  0
  9 18  1  0  0  0  0
 10 19  1  0  0  0  0
 11  4  1  0  0  0  0
 12  5  1  0  0  0  0
 12  9  1  0  0  0  0
 13 19  2  0  0  0  0
 13 11  1  0  0  0  0
 14 11  2  0  0  0  0
 14 20  1  0  0  0  0
 15 17  1  0  0  0  0
 16 10  1  0  0  0  0
 17 25  1  1  0  0  0
 18  7  1  0  0  0  0
 18 22  1  1  0  0  0
 20  3  2  0  0  0  0
 21  6  1  0  0  0  0
 23 24  1  0  0  0  0
 25 28  1  0  0  0  0
 26 23  1  0  0  0  0
 27 25  2  0  0  0  0
 27 30  1  0  0  0  0
 28 29  1  0  0  0  0
 28 23  2  0  0  0  0
 30 26  2  0  0  0  0
 31 32  1  0  0  0  0
 32 30  1  0  0  0  0
M  END
>  <MODEL>
2

>  <REMARK>
 VINA RESULT:      -9.0      2.842      7.735
  Name = 
  2 active torsions:
  status: ('A' for Active; 'I' for Inactive)
    1  A    between atoms: O_15  and  C_26
    2  A    between atoms: C_16  and  C_27
                            x       y       z     vdW  Elec       q    Type
                         _______ _______ _______ _____ _____    ______ ____

>  <TORSDO>
F 2

$$$$
=
 OpenBabel11062408233D

 32 37  0  0  1  0  0  0  0  0999 V2000
  161.1090  208.2370  153.4220 C   0  0  0  0  0  0  0  0  0  0  0  0
  160.5450  210.6430  153.9100 C   0  0  2  0  0  3  0  0  0  0  0  0
  161.2520  206.9140  153.8720 C   0  0  0  0  0  3  0  0  0  0  0  0
  160.6150  209.2020  154.3030 C   0  0  0  0  0  0  0  0  0  0  0  0
  159.1320  211.1480  154.2220 C   0  0  2  0  0  3  0  0  0  0  0  0
  159.9620  213.6420  149.9060 C   0  0  0  0  0  2  0  0  0  0  0  0
  160.9640  210.8670  152.4410 C   0  0  1  0  0  3  0  0  0  0  0  0
  158.5340  213.8650  151.9490 C   0  0  0  0  0  2  0  0  0  0  0  0
  159.0100  212.5050  152.4490 C   0  0  2  0  0  3  0  0  0  0  0  0
  157.9900  211.7590  156.4570 N   0  0  0  0  0  2  0  0  0  0  0  0
  160.0750  208.8380  155.5390 C   0  0  0  0  0  0  0  0  0  0  0  0
  159.0270  212.4980  153.8560 O   0  0  0  0  0  0  0  0  0  0  0  0
  159.2750  209.7950  156.2590 N   0  0  0  0  0  0  0  0  0  0  0  0
  160.2000  207.5180  155.9830 C   0  0  0  0  0  3  0  0  0  0  0  0
  160.6050  209.7640  151.6360 O   0  0  0  0  0  0  0  0  0  0  0  0
  157.3700  212.8300  155.9090 O   0  0  0  0  0  1  0  0  0  0  0  0
  161.4480  208.6920  152.0150 C   0  0  2  0  0  3  0  0  0  0  0  0
  160.4240  212.2050  151.9060 C   0  0  2  0  0  3  0  0  0  0  0  0
  158.8430  210.8970  155.7000 C   0  0  0  0  0  0  0  0  0  0  0  0
  160.8140  206.5630  155.1580 C   0  0  0  0  0  3  0  0  0  0  0  0
  158.5510  213.9020  150.4240 C   0  0  0  0  0  2  0  0  0  0  0  0
  160.4570  212.2790  150.3780 C   0  0  0  0  0  2  0  0  0  0  0  0
  161.6450  206.7710  148.7350 C   0  0  0  0  0  0  0  0  0  0  0  0
  162.0090  206.9860  147.4120 O   0  0  0  0  0  1  0  0  0  0  0  0
  161.3510  207.5860  151.0030 C   0  0  0  0  0  0  0  0  0  0  0  0
  161.2000  205.5080  149.1320 C   0  0  0  0  0  3  0  0  0  0  0  0
  160.9100  206.3120  151.3930 C   0  0  0  0  0  3  0  0  0  0  0  0
  161.7230  207.8120  149.6680 C   0  0  0  0  0  0  0  0  0  0  0  0
  162.1710  209.0680  149.2680 O   0  0  0  0  0  1  0  0  0  0  0  0
  160.8300  205.2710  150.4650 C   0  0  0  0  0  0  0  0  0  0  0  0
  161.2020  203.1230  151.6340 C   0  0  0  0  0  1  0  0  0  0  0  0
  160.3840  204.0170  150.8910 O   0  0  0  0  0  0  0  0  0  0  0  0
  1  3  2  0  0  0  0
  1  4  1  0  0  0  0
  2  5  1  0  0  0  0
  2  4  1  6  0  0  0
  3 20  1  0  0  0  0
  4 11  2  0  0  0  0
  5 12  1  1  0  0  0
  5 19  1  0  0  0  0
  6 22  1  0  0  0  0
  6 21  1  0  0  0  0
  7 15  1  6  0  0  0
  7  2  1  0  0  0  0
  9  8  1  1  0  0  0
  9 12  1  0  0  0  0
 11 14  1  0  0  0  0
 11 13  1  0  0  0  0
 15 17  1  0  0  0  0
 16 10  1  0  0  0  0
 17 25  1  6  0  0  0
 17  1  1  0  0  0  0
 18 22  1  6  0  0  0
 18  7  1  0  0  0  0
 18  9  1  0  0  0  0
 19 13  2  0  0  0  0
 19 10  1  0  0  0  0
 20 14  2  0  0  0  0
 21  8  1  0  0  0  0
 23 26  2  0  0  0  0
 23 28  1  0  0  0  0
 24 23  1  0  0  0  0
 25 27  1  0  0  0  0
 26 30  1  0  0  0  0
 28 25  2  0  0  0  0
 29 28  1  0  0  0  0
 30 32  1  0  0  0  0
 30 27  2  0  0  0  0
 32 31  1  0  0  0  0
M  END
>  <MODEL>
3

>  <REMARK>
 VINA RESULT:      -8.8      1.393      1.857
  Name = 
  2 active torsions:
  status: ('A' for Active; 'I' for Inactive)
    1  A    between atoms: O_15  and  C_26
    2  A    between atoms: C_16  and  C_27
                            x       y       z     vdW  Elec       q    Type
                         _______ _______ _______ _____ _____    ______ ____

>  <TORSDO>
F 2

$$$$
=
 OpenBabel11062408233D

 32 37  0  0  1  0  0  0  0  0999 V2000
  161.7980  205.4140  150.7780 C   0  0  0  0  0  0  0  0  0  0  0  0
  161.9870  207.5660  152.0730 C   0  0  2  0  0  3  0  0  0  0  0  0
  161.5940  204.0240  150.7670 C   0  0  0  0  0  3  0  0  0  0  0  0
  161.6750  206.1070  151.9840 C   0  0  0  0  0  0  0  0  0  0  0  0
  160.8070  208.2600  152.7630 C   0  0  2  0  0  3  0  0  0  0  0  0
  161.9590  211.8040  149.3490 C   0  0  0  0  0  2  0  0  0  0  0  0
  162.3310  208.1720  150.6940 C   0  0  1  0  0  3  0  0  0  0  0  0
  160.8260  211.6510  151.5760 C   0  0  0  0  0  2  0  0  0  0  0  0
  160.9340  210.1300  151.5420 C   0  0  2  0  0  3  0  0  0  0  0  0
  160.0740  208.3240  155.2390 N   0  0  0  0  0  2  0  0  0  0  0  0
  161.1560  205.4840  153.1220 C   0  0  0  0  0  0  0  0  0  0  0  0
  161.0620  209.6370  152.8540 O   0  0  0  0  0  0  0  0  0  0  0  0
  160.7240  206.2980  154.2280 N   0  0  0  0  0  0  0  0  0  0  0  0
  160.9350  204.1030  153.1100 C   0  0  0  0  0  3  0  0  0  0  0  0
  161.6070  207.5350  149.6630 O   0  0  0  0  0  0  0  0  0  0  0  0
  159.7430  209.6340  155.1630 O   0  0  0  0  0  1  0  0  0  0  0  0
  162.1370  206.2280  149.5430 C   0  0  2  0  0  3  0  0  0  0  0  0
  162.1530  209.7020  150.6990 C   0  0  2  0  0  3  0  0  0  0  0  0
  160.5810  207.5950  154.1180 C   0  0  0  0  0  0  0  0  0  0  0  0
  161.1810  203.3710  151.9390 C   0  0  0  0  0  3  0  0  0  0  0  0
  160.7280  212.2040  150.1570 C   0  0  0  0  0  2  0  0  0  0  0  0
  162.0810  210.2840  149.2860 C   0  0  0  0  0  2  0  0  0  0  0  0
  160.8300  205.7950  145.9950 C   0  0  0  0  0  0  0  0  0  0  0  0
  160.4560  206.5780  144.9100 O   0  0  0  0  0  1  0  0  0  0  0  0
  161.6460  205.5940  148.2730 C   0  0  0  0  0  0  0  0  0  0  0  0
  160.7640  204.4030  145.8960 C   0  0  0  0  0  3  0  0  0  0  0  0
  161.5810  204.1970  148.1620 C   0  0  0  0  0  3  0  0  0  0  0  0
  161.2720  206.3940  147.1810 C   0  0  0  0  0  0  0  0  0  0  0  0
  161.3380  207.7820  147.2720 O   0  0  0  0  0  1  0  0  0  0  0  0
  161.1400  203.5950  146.9800 C   0  0  0  0  0  0  0  0  0  0  0  0
  160.5350  201.5090  145.7980 C   0  0  0  0  0  1  0  0  0  0  0  0
  161.0880  202.2010  146.9100 O   0  0  0  0  0  0  0  0  0  0  0  0
  1  4  1  0  0  0  0
  2  4  1  6  0  0  0
  2  5  1  0  0  0  0
  3  1  2  0  0  0  0
  3 20  1  0  0  0  0
  4 11  2  0  0  0  0
  5 12  1  1  0  0  0
  5 19  1  0  0  0  0
  6 21  1  0  0  0  0
  7 15  1  6  0  0  0
  7 18  1  0  0  0  0
  7  2  1  0  0  0  0
  9  8  1  1  0  0  0
  9 12  1  0  0  0  0
 11 13  1  0  0  0  0
 14 11  1  0  0  0  0
 16 10  1  0  0  0  0
 17 25  1  6  0  0  0
 17 15  1  0  0  0  0
 17  1  1  0  0  0  0
 18 22  1  6  0  0  0
 18  9  1  0  0  0  0
 19 13  2  0  0  0  0
 19 10  1  0  0  0  0
 20 14  2  0  0  0  0
 21  8  1  0  0  0  0
 22  6  1  0  0  0  0
 23 28  1  0  0  0  0
 24 23  1  0  0  0  0
 26 23  2  0  0  0  0
 26 30  1  0  0  0  0
 27 25  1  0  0  0  0
 28 29  1  0  0  0  0
 28 25  2  0  0  0  0
 30 27  2  0  0  0  0
 31 32  1  0  0  0  0
 32 30  1  0  0  0  0
M  END
>  <MODEL>
4

>  <REMARK>
 VINA RESULT:      -7.9      1.711      2.464
  Name = 
  2 active torsions:
  status: ('A' for Active; 'I' for Inactive)
    1  A    between atoms: O_15  and  C_26
    2  A    between atoms: C_16  and  C_27
                            x       y       z     vdW  Elec       q    Type
                         _______ _______ _______ _____ _____    ______ ____

>  <TORSDO>
F 2

$$$$
=
 OpenBabel11062408233D

 32 37  0  0  1  0  0  0  0  0999 V2000
  161.2000  208.1970  152.9780 C   0  0  0  0  0  0  0  0  0  0  0  0
  161.3040  210.6860  152.6080 C   0  0  2  0  0  3  0  0  0  0  0  0
  160.8760  207.1110  153.8070 C   0  0  0  0  0  3  0  0  0  0  0  0
  160.8850  209.4900  153.4010 C   0  0  0  0  0  0  0  0  0  0  0  0
  160.0720  211.5780  152.4150 C   0  0  2  0  0  3  0  0  0  0  0  0
  162.2500  212.1940  147.8960 C   0  0  0  0  0  2  0  0  0  0  0  0
  161.9890  210.2950  151.2810 C   0  0  1  0  0  3  0  0  0  0  0  0
  160.6560  213.4210  149.3870 C   0  0  0  0  0  2  0  0  0  0  0  0
  160.6290  212.2410  150.3520 C   0  0  2  0  0  3  0  0  0  0  0  0
  158.8340  213.1580  154.0410 N   0  0  0  0  0  2  0  0  0  0  0  0
  160.0800  209.7030  154.5230 C   0  0  0  0  0  0  0  0  0  0  0  0
  160.4270  212.7090  151.6640 O   0  0  0  0  0  0  0  0  0  0  0  0
  159.4970  211.0040  154.7260 N   0  0  0  0  0  0  0  0  0  0  0  0
  159.7400  208.6220  155.3420 C   0  0  0  0  0  3  0  0  0  0  0  0
  161.4480  209.0980  150.7630 O   0  0  0  0  0  0  0  0  0  0  0  0
  158.6490  214.0910  153.0780 O   0  0  0  0  0  1  0  0  0  0  0  0
  161.8690  208.0560  151.6230 C   0  0  2  0  0  3  0  0  0  0  0  0
  161.9560  211.4570  150.2730 C   0  0  2  0  0  3  0  0  0  0  0  0
  159.5000  211.9180  153.7890 C   0  0  0  0  0  0  0  0  0  0  0  0
  160.1630  207.3290  154.9960 C   0  0  0  0  0  3  0  0  0  0  0  0
  160.9160  212.9320  147.9650 C   0  0  0  0  0  2  0  0  0  0  0  0
  162.2420  210.9970  148.8430 C   0  0  0  0  0  2  0  0  0  0  0  0
  161.5820  204.3000  151.0770 C   0  0  0  0  0  0  0  0  0  0  0  0
  161.8170  203.1170  151.7670 O   0  0  0  0  0  1  0  0  0  0  0  0
  161.6060  206.7250  150.9770 C   0  0  0  0  0  0  0  0  0  0  0  0
  161.0780  204.2510  149.7760 C   0  0  0  0  0  3  0  0  0  0  0  0
  161.0950  206.6660  149.6710 C   0  0  0  0  0  3  0  0  0  0  0  0
  161.8450  205.5350  151.6820 C   0  0  0  0  0  0  0  0  0  0  0  0
  162.3430  205.5770  152.9810 O   0  0  0  0  0  1  0  0  0  0  0  0
  160.8320  205.4350  149.0640 C   0  0  0  0  0  0  0  0  0  0  0  0
  160.8770  206.2030  146.7140 C   0  0  0  0  0  1  0  0  0  0  0  0
  160.3260  205.4170  147.7620 O   0  0  0  0  0  0  0  0  0  0  0  0
  1  4  2  0  0  0  0
  1  3  1  0  0  0  0
  2  4  1  6  0  0  0
  3 20  2  0  0  0  0
  4 11  1  0  0  0  0
  5 12  1  1  0  0  0
  5  2  1  0  0  0  0
  5 19  1  0  0  0  0
  6 21  1  0  0  0  0
  6 22  1  0  0  0  0
  7 15  1  6  0  0  0
  7  2  1  0  0  0  0
  9  8  1  6  0  0  0
  9 12  1  0  0  0  0
 11 13  1  0  0  0  0
 11 14  2  0  0  0  0
 15 17  1  0  0  0  0
 16 10  1  0  0  0  0
 17 25  1  6  0  0  0
 17  1  1  0  0  0  0
 18 22  1  6  0  0  0
 18  9  1  0  0  0  0
 18  7  1  0  0  0  0
 19 10  1  0  0  0  0
 19 13  2  0  0  0  0
 20 14  1  0  0  0  0
 21  8  1  0  0  0  0
 23 28  1  0  0  0  0
 23 24  1  0  0  0  0
 25 28  2  0  0  0  0
 26 23  2  0  0  0  0
 27 25  1  0  0  0  0
 28 29  1  0  0  0  0
 30 27  2  0  0  0  0
 30 26  1  0  0  0  0
 31 32  1  0  0  0  0
 32 30  1  0  0  0  0
M  END
>  <MODEL>
5

>  <REMARK>
 VINA RESULT:      -7.3      1.403      2.345
  Name = 
  2 active torsions:
  status: ('A' for Active; 'I' for Inactive)
    1  A    between atoms: O_15  and  C_26
    2  A    between atoms: C_16  and  C_27
                            x       y       z     vdW  Elec       q    Type
                         _______ _______ _______ _____ _____    ______ ____

>  <TORSDO>
F 2

$$$$
=
 OpenBabel11062408233D

 32 37  0  0  1  0  0  0  0  0999 V2000
  158.6830  212.2650  153.6330 C   0  0  0  0  0  0  0  0  0  0  0  0
  158.4540  213.7020  151.5770 C   0  0  2  0  0  3  0  0  0  0  0  0
  158.1520  211.7980  154.8460 C   0  0  0  0  0  3  0  0  0  0  0  0
  157.9000  213.0900  152.8230 C   0  0  0  0  0  0  0  0  0  0  0  0
  157.4730  213.4170  150.4350 C   0  0  2  0  0  3  0  0  0  0  0  0
  161.8270  212.9010  147.9220 C   0  0  0  0  0  2  0  0  0  0  0  0
  159.8910  213.2200  151.2820 C   0  0  1  0  0  3  0  0  0  0  0  0
  159.4320  213.4340  147.4240 C   0  0  0  0  0  2  0  0  0  0  0  0
  159.0530  213.1550  148.8740 C   0  0  2  0  0  3  0  0  0  0  0  0
  155.1780  214.4530  149.8560 N   0  0  0  0  0  2  0  0  0  0  0  0
  156.5430  213.2860  153.0960 C   0  0  0  0  0  0  0  0  0  0  0  0
  157.9670  213.9700  149.2440 O   0  0  0  0  0  0  0  0  0  0  0  0
  155.7010  213.8460  152.0710 N   0  0  0  0  0  0  0  0  0  0  0  0
  156.0060  212.8080  154.2940 C   0  0  0  0  0  3  0  0  0  0  0  0
  160.0810  211.8890  151.7140 O   0  0  0  0  0  0  0  0  0  0  0  0
  155.4510  214.4500  148.5300 O   0  0  0  0  0  1  0  0  0  0  0  0
  160.0710  211.9160  153.1290 C   0  0  2  0  0  3  0  0  0  0  0  0
  160.2560  213.4310  149.8010 C   0  0  2  0  0  3  0  0  0  0  0  0
  156.1010  213.9580  150.8300 C   0  0  0  0  0  0  0  0  0  0  0  0
  156.8200  212.0860  155.1810 C   0  0  0  0  0  3  0  0  0  0  0  0
  160.6360  212.5870  147.0210 C   0  0  0  0  0  2  0  0  0  0  0  0
  161.4790  212.6140  149.3800 C   0  0  0  0  0  2  0  0  0  0  0  0
  161.5780  209.3080  155.4560 C   0  0  0  0  0  0  0  0  0  0  0  0
  162.1230  209.2280  156.7310 O   0  0  0  0  0  1  0  0  0  0  0  0
  160.5770  210.6070  153.6660 C   0  0  0  0  0  0  0  0  0  0  0  0
  161.4840  208.1560  154.6720 C   0  0  0  0  0  3  0  0  0  0  0  0
  160.4820  209.4440  152.8880 C   0  0  0  0  0  3  0  0  0  0  0  0
  161.1240  210.5350  154.9570 C   0  0  0  0  0  0  0  0  0  0  0  0
  161.2170  211.6790  155.7450 O   0  0  0  0  0  1  0  0  0  0  0  0
  160.9350  208.2170  153.3820 C   0  0  0  0  0  0  0  0  0  0  0  0
  161.2420  205.7930  153.0050 C   0  0  0  0  0  1  0  0  0  0  0  0
  160.8260  207.0820  152.5760 O   0  0  0  0  0  0  0  0  0  0  0  0
  1  3  1  0  0  0  0
  2  4  1  1  0  0  0
  3 20  2  0  0  0  0
  4 11  1  0  0  0  0
  4  1  2  0  0  0  0
  5 12  1  6  0  0  0
  5 19  1  0  0  0  0
  5  2  1  0  0  0  0
  6 22  1  0  0  0  0
  7  2  1  0  0  0  0
  7 15  1  6  0  0  0
  9  8  1  6  0  0  0
  9 12  1  0  0  0  0
  9 18  1  0  0  0  0
 10 19  1  0  0  0  0
 11 14  2  0  0  0  0
 13 11  1  0  0  0  0
 14 20  1  0  0  0  0
 15 17  1  0  0  0  0
 16 10  1  0  0  0  0
 17  1  1  0  0  0  0
 17 25  1  1  0  0  0
 18 22  1  6  0  0  0
 18  7  1  0  0  0  0
 19 13  2  0  0  0  0
 21  8  1  0  0  0  0
 21  6  1  0  0  0  0
 23 24  1  0  0  0  0
 25 28  2  0  0  0  0
 26 23  2  0  0  0  0
 27 30  2  0  0  0  0
 27 25  1  0  0  0  0
 28 23  1  0  0  0  0
 28 29  1  0  0  0  0
 30 26  1  0  0  0  0
 32 31  1  0  0  0  0
 32 30  1  0  0  0  0
M  END
>  <MODEL>
6

>  <REMARK>
 VINA RESULT:      -7.2      3.377      5.970
  Name = 
  2 active torsions:
  status: ('A' for Active; 'I' for Inactive)
    1  A    between atoms: O_15  and  C_26
    2  A    between atoms: C_16  and  C_27
                            x       y       z     vdW  Elec       q    Type
                         _______ _______ _______ _____ _____    ______ ____

>  <TORSDO>
F 2

$$$$
=
 OpenBabel11062408233D

 32 37  0  0  1  0  0  0  0  0999 V2000
  160.5770  211.8990  151.6620 C   0  0  0  0  0  0  0  0  0  0  0  0
  161.9770  209.8460  151.2470 C   0  0  2  0  0  3  0  0  0  0  0  0
  160.1090  213.1500  151.2290 C   0  0  0  0  0  3  0  0  0  0  0  0
  161.3650  211.1340  150.7990 C   0  0  0  0  0  0  0  0  0  0  0  0
  161.6440  208.7760  150.2020 C   0  0  2  0  0  3  0  0  0  0  0  0
  161.2370  205.9820  154.3920 C   0  0  0  0  0  2  0  0  0  0  0  0
  161.5390  209.4610  152.6770 C   0  0  1  0  0  3  0  0  0  0  0  0
  161.6840  205.6400  151.9530 C   0  0  0  0  0  2  0  0  0  0  0  0
  161.4130  207.1160  151.6820 C   0  0  2  0  0  3  0  0  0  0  0  0
  162.5960  208.3420  147.8390 N   0  0  0  0  0  2  0  0  0  0  0  0
  161.5200  211.4950  149.4580 C   0  0  0  0  0  0  0  0  0  0  0  0
  162.1970  207.5490  150.5960 O   0  0  0  0  0  0  0  0  0  0  0  0
  162.0370  210.5240  148.5300 N   0  0  0  0  0  0  0  0  0  0  0  0
  161.0400  212.7330  149.0180 C   0  0  0  0  0  3  0  0  0  0  0  0
  160.2210  209.8940  152.9400 O   0  0  0  0  0  0  0  0  0  0  0  0
  162.5840  207.0010  148.0230 O   0  0  0  0  0  1  0  0  0  0  0  0
  160.2680  211.3060  153.0240 C   0  0  2  0  0  3  0  0  0  0  0  0
  161.7410  207.9560  152.9340 C   0  0  2  0  0  3  0  0  0  0  0  0
  162.1450  209.2570  148.8420 C   0  0  0  0  0  0  0  0  0  0  0  0
  160.3590  213.5710  149.9140 C   0  0  0  0  0  3  0  0  0  0  0  0
  160.8720  205.1670  153.1550 C   0  0  0  0  0  2  0  0  0  0  0  0
  160.9590  207.4630  154.1530 C   0  0  0  0  0  2  0  0  0  0  0  0
  157.4350  212.0020  155.4700 C   0  0  0  0  0  0  0  0  0  0  0  0
  157.0730  211.6890  156.7740 O   0  0  0  0  0  1  0  0  0  0  0  0
  158.9840  211.8230  153.6090 C   0  0  0  0  0  0  0  0  0  0  0  0
  156.6050  212.8200  154.7010 C   0  0  0  0  0  3  0  0  0  0  0  0
  158.1450  212.6500  152.8460 C   0  0  0  0  0  3  0  0  0  0  0  0
  158.6260  211.5030  154.9290 C   0  0  0  0  0  0  0  0  0  0  0  0
  159.4510  210.6910  155.7020 O   0  0  0  0  0  1  0  0  0  0  0  0
  156.9560  213.1500  153.3820 C   0  0  0  0  0  0  0  0  0  0  0  0
  154.7610  214.1520  152.8430 C   0  0  0  0  0  1  0  0  0  0  0  0
  156.1470  213.9680  152.5900 O   0  0  0  0  0  0  0  0  0  0  0  0
  1 17  1  0  0  0  0
  2  4  1  6  0  0  0
  2  7  1  0  0  0  0
  3  1  1  0  0  0  0
  4  1  2  0  0  0  0
  5 19  1  6  0  0  0
  5 12  1  0  0  0  0
  5  2  1  0  0  0  0
  7 18  1  0  0  0  0
  7 15  1  6  0  0  0
  8 21  1  0  0  0  0
  9  8  1  1  0  0  0
  9 18  1  0  0  0  0
 10 16  1  0  0  0  0
 10 19  1  0  0  0  0
 11  4  1  0  0  0  0
 12  9  1  0  0  0  0
 13 19  2  0  0  0  0
 13 11  1  0  0  0  0
 14 11  2  0  0  0  0
 14 20  1  0  0  0  0
 15 17  1  0  0  0  0
 17 25  1  6  0  0  0
 18 22  1  1  0  0  0
 20  3  2  0  0  0  0
 21  6  1  0  0  0  0
 22  6  1  0  0  0  0
 23 24  1  0  0  0  0
 25 28  2  0  0  0  0
 26 23  2  0  0  0  0
 27 30  2  0  0  0  0
 27 25  1  0  0  0  0
 28 23  1  0  0  0  0
 28 29  1  0  0  0  0
 30 26  1  0  0  0  0
 32 31  1  0  0  0  0
 32 30  1  0  0  0  0
M  END
>  <MODEL>
7

>  <REMARK>
 VINA RESULT:      -7.0      2.766      7.992
  Name = 
  2 active torsions:
  status: ('A' for Active; 'I' for Inactive)
    1  A    between atoms: O_15  and  C_26
    2  A    between atoms: C_16  and  C_27
                            x       y       z     vdW  Elec       q    Type
                         _______ _______ _______ _____ _____    ______ ____

>  <TORSDO>
F 2

$$$$
=
 OpenBabel11062408233D

 32 37  0  0  1  0  0  0  0  0999 V2000
  160.8280  206.1930  151.1610 C   0  0  0  0  0  0  0  0  0  0  0  0
  160.3780  204.4310  149.4180 C   0  0  2  0  0  3  0  0  0  0  0  0
  161.0330  206.5360  152.5070 C   0  0  0  0  0  3  0  0  0  0  0  0
  160.7040  204.8450  150.8170 C   0  0  0  0  0  0  0  0  0  0  0  0
  161.3920  203.3640  148.9930 C   0  0  2  0  0  3  0  0  0  0  0  0
  160.9440  205.8590  144.6210 C   0  0  0  0  0  2  0  0  0  0  0  0
  160.3170  205.6360  148.4540 C   0  0  1  0  0  3  0  0  0  0  0  0
  161.6060  203.5780  145.4130 C   0  0  0  0  0  2  0  0  0  0  0  0
  161.5100  204.0390  146.8640 C   0  0  2  0  0  3  0  0  0  0  0  0
  161.6120  200.8680  149.6210 N   0  0  0  0  0  2  0  0  0  0  0  0
  160.9840  203.8370  151.7440 C   0  0  0  0  0  0  0  0  0  0  0  0
  161.1210  202.9580  147.6770 O   0  0  0  0  0  0  0  0  0  0  0  0
  161.1830  202.4920  151.2720 N   0  0  0  0  0  0  0  0  0  0  0  0
  161.2060  204.1760  153.0820 C   0  0  0  0  0  3  0  0  0  0  0  0
  161.2350  206.6390  148.8340 O   0  0  0  0  0  0  0  0  0  0  0  0
  161.9490  200.5240  148.3560 O   0  0  0  0  0  1  0  0  0  0  0  0
  160.7420  207.2050  150.0340 C   0  0  2  0  0  3  0  0  0  0  0  0
  160.4860  205.1870  146.9910 C   0  0  2  0  0  3  0  0  0  0  0  0
  161.3430  202.2200  150.0020 C   0  0  0  0  0  0  0  0  0  0  0  0
  161.2030  205.5250  153.4670 C   0  0  0  0  0  3  0  0  0  0  0  0
  161.9860  204.7500  144.5120 C   0  0  0  0  0  2  0  0  0  0  0  0
  160.8400  206.3490  146.0620 C   0  0  0  0  0  2  0  0  0  0  0  0
  162.5400  210.5300  149.5860 C   0  0  0  0  0  0  0  0  0  0  0  0
  162.9270  211.3850  148.5610 O   0  0  0  0  0  1  0  0  0  0  0  0
  161.4810  208.4790  150.3360 C   0  0  0  0  0  0  0  0  0  0  0  0
  162.8260  210.8670  150.9100 C   0  0  0  0  0  3  0  0  0  0  0  0
  161.7680  208.8280  151.6640 C   0  0  0  0  0  3  0  0  0  0  0  0
  161.8660  209.3380  149.2940 C   0  0  0  0  0  0  0  0  0  0  0  0
  161.5810  209.0100  147.9720 O   0  0  0  0  0  1  0  0  0  0  0  0
  162.4410  210.0170  151.9590 C   0  0  0  0  0  0  0  0  0  0  0  0
  161.7080  210.3290  154.3000 C   0  0  0  0  0  1  0  0  0  0  0  0
  162.7110  210.3280  153.2940 O   0  0  0  0  0  0  0  0  0  0  0  0
  1  3  1  0  0  0  0
  2  4  1  1  0  0  0
  3 20  2  0  0  0  0
  4  1  2  0  0  0  0
  4 11  1  0  0  0  0
  5 12  1  6  0  0  0
  5  2  1  0  0  0  0
  5 19  1  0  0  0  0
  6 22  1  0  0  0  0
  7 15  1  1  0  0  0
  7  2  1  0  0  0  0
  9  8  1  6  0  0  0
  9 18  1  0  0  0  0
  9 12  1  0  0  0  0
 10 19  1  0  0  0  0
 11 14  2  0  0  0  0
 13 11  1  0  0  0  0
 14 20  1  0  0  0  0
 15 17  1  0  0  0  0
 16 10  1  0  0  0  0
 17 25  1  1  0  0  0
 17  1  1  0  0  0  0
 18 22  1  6  0  0  0
 18  7  1  0  0  0  0
 19 13  2  0  0  0  0
 21  6  1  0  0  0  0
 21  8  1  0  0  0  0
 23 26  1  0  0  0  0
 24 23  1  0  0  0  0
 25 27  2  0  0  0  0
 26 30  2  0  0  0  0
 27 30  1  0  0  0  0
 28 23  2  0  0  0  0
 28 25  1  0  0  0  0
 29 28  1  0  0  0  0
 30 32  1  0  0  0  0
 32 31  1  0  0  0  0
M  END
>  <MODEL>
8

>  <REMARK>
 VINA RESULT:      -6.9      3.051      7.096
  Name = 
  2 active torsions:
  status: ('A' for Active; 'I' for Inactive)
    1  A    between atoms: O_15  and  C_26
    2  A    between atoms: C_16  and  C_27
                            x       y       z     vdW  Elec       q    Type
                         _______ _______ _______ _____ _____    ______ ____

>  <TORSDO>
F 2

$$$$
