=
 OpenBabel11052421593D

 30 35  0  0  1  0  0  0  0  0999 V2000
  161.6260  207.3320  152.7710 C   0  0  1  0  0  3  0  0  0  0  0  0
  159.6270  207.9250  155.9020 C   0  0  2  0  0  3  0  0  0  0  0  0
  162.9480  210.7860  154.3660 N   0  0  0  0  0  2  0  0  0  0  0  0
  160.5900  208.0830  153.6210 C   0  0  1  0  0  3  0  0  0  0  0  0
  161.6790  205.9270  153.1400 N   0  0  0  0  0  0  0  0  0  0  0  0
  160.5200  205.0710  149.7830 S   0  0  0  0  0  0  0  0  0  0  0  0
  161.7770  208.3000  148.9950 C   0  0  1  0  0  3  0  0  0  0  0  0
  161.7370  205.9640  150.8110 C   0  0  2  0  0  3  0  0  0  0  0  0
  161.4430  203.8490  152.0340 N   0  0  0  0  0  2  0  0  0  0  0  0
  161.3470  209.8520  150.9860 C   0  0  2  0  0  3  0  0  0  0  0  0
  162.8020  210.3930  152.9960 C   0  0  0  0  0  0  0  0  0  0  0  0
  161.7990  205.2160  152.0770 C   0  0  0  0  0  0  0  0  0  0  0  0
  161.2530  207.3340  151.2770 C   0  0  2  0  0  3  0  0  0  0  0  0
  159.4610  209.2690  156.5840 C   0  0  0  0  0  2  0  0  0  0  0  0
  161.8450  211.0730  150.1940 C   0  0  0  0  0  2  0  0  0  0  0  0
  161.4920  209.5820  148.2100 C   0  0  0  0  0  2  0  0  0  0  0  0
  160.8540  202.4300  150.2490 N   0  0  0  0  0  2  0  0  0  0  0  0
  159.6520  206.7940  156.9160 C   0  0  0  0  0  1  0  0  0  0  0  0
  161.8540  210.8410  155.3210 C   0  0  0  0  0  2  0  0  0  0  0  0
  160.7600  209.6340  157.2590 C   0  0  0  0  0  2  0  0  0  0  0  0
  160.8280  203.6060  150.7780 C   0  0  0  0  0  0  0  0  0  0  0  0
  160.8280  207.8710  155.0550 N   0  0  1  0  0  0  0  0  0  0  0  0
  160.4180  209.5660  153.2560 C   0  0  0  0  0  2  0  0  0  0  0  0
  163.8330  210.3690  152.2720 O   0  0  0  0  0  0  0  0  0  0  0  0
  161.5170  210.0500  152.4260 N   0  0  0  0  0  0  0  0  0  0  0  0
  162.3010  210.7380  148.7740 C   0  0  0  0  0  2  0  0  0  0  0  0
  162.9250  207.6880  148.4880 O   0  0  0  0  0  1  0  0  0  0  0  0
  161.8700  209.6140  156.2230 C   0  0  1  0  0  3  0  0  0  0  0  0
  162.0200  208.3740  155.5360 O   0  0  0  0  0  0  0  0  0  0  0  0
  161.9270  208.4970  150.5210 C   0  0  1  0  0  3  0  0  0  0  0  0
  1  5  1  1  0  0  0
  1  4  1  0  0  0  0
  2 14  1  0  0  0  0
  2 18  1  1  0  0  0
  3 19  1  0  0  0  0
  4 23  1  1  0  0  0
  4 22  1  0  0  0  0
  6 21  1  0  0  0  0
  7 27  1  6  0  0  0
  7 30  1  0  0  0  0
  8  6  1  6  0  0  0
  8 13  1  0  0  0  0
  8 12  1  0  0  0  0
  9 12  1  0  0  0  0
 10 15  1  6  0  0  0
 10 25  1  0  0  0  0
 11  3  1  0  0  0  0
 12  5  2  0  0  0  0
 13  1  1  0  0  0  0
 14 20  1  0  0  0  0
 16 26  1  0  0  0  0
 16  7  1  0  0  0  0
 17 21  2  0  0  0  0
 19 28  1  0  0  0  0
 21  9  1  0  0  0  0
 22 29  1  0  0  0  0
 22  2  1  0  0  0  0
 24 11  2  0  0  0  0
 25 11  1  0  0  0  0
 25 23  1  0  0  0  0
 26 15  1  0  0  0  0
 28 20  1  0  0  0  0
 29 28  1  0  0  0  0
 30 10  1  0  0  0  0
 30 13  1  0  0  0  0
M  END
>  <MODEL>
1

>  <REMARK>
 VINA RESULT:      -4.8      0.000      0.000
  Name = 
  0 active torsions:
  status: ('A' for Active; 'I' for Inactive)
                            x       y       z     vdW  Elec       q    Type
                         _______ _______ _______ _____ _____    ______ ____

>  <TORSDO>
F 0

$$$$
=
 OpenBabel11052421593D

 30 35  0  0  1  0  0  0  0  0999 V2000
  160.1130  211.9780  150.6570 C   0  0  1  0  0  3  0  0  0  0  0  0
  162.5740  213.4880  148.2470 C   0  0  2  0  0  3  0  0  0  0  0  0
  158.0680  212.8780  147.3060 N   0  0  0  0  0  2  0  0  0  0  0  0
  160.7030  213.1350  149.8360 C   0  0  1  0  0  3  0  0  0  0  0  0
  161.1440  211.0220  151.0220 N   0  0  0  0  0  0  0  0  0  0  0  0
  160.5540  211.8280  154.5360 S   0  0  0  0  0  0  0  0  0  0  0  0
  157.4150  212.9500  153.3030 C   0  0  1  0  0  3  0  0  0  0  0  0
  159.8470  211.3020  152.9370 C   0  0  2  0  0  3  0  0  0  0  0  0
  161.9720  210.0650  153.0210 N   0  0  0  0  0  2  0  0  0  0  0  0
  157.7700  213.9830  150.9870 C   0  0  2  0  0  3  0  0  0  0  0  0
  157.6630  212.9270  148.6800 C   0  0  0  0  0  0  0  0  0  0  0  0
  160.9460  210.6270  152.2280 C   0  0  0  0  0  0  0  0  0  0  0  0
  159.5300  212.4630  151.9980 C   0  0  2  0  0  3  0  0  0  0  0  0
  162.2060  214.3580  147.0610 C   0  0  0  0  0  2  0  0  0  0  0  0
  156.3060  214.4530  150.9290 C   0  0  0  0  0  2  0  0  0  0  0  0
  156.3730  214.0650  153.4040 C   0  0  0  0  0  2  0  0  0  0  0  0
  162.2370  209.8780  155.3540 N   0  0  0  0  0  2  0  0  0  0  0  0
  163.7970  212.6390  147.9450 C   0  0  0  0  0  1  0  0  0  0  0  0
  159.1760  213.6370  146.7530 C   0  0  0  0  0  2  0  0  0  0  0  0
  161.5880  213.4880  145.9950 C   0  0  0  0  0  2  0  0  0  0  0  0
  161.8090  210.5550  154.3430 C   0  0  0  0  0  0  0  0  0  0  0  0
  161.4600  212.6330  148.6830 N   0  0  1  0  0  0  0  0  0  0  0  0
  159.6940  214.2320  149.4600 C   0  0  0  0  0  2  0  0  0  0  0  0
  156.6940  212.2060  149.0400 O   0  0  0  0  0  0  0  0  0  0  0  0
  158.3160  213.7860  149.6440 N   0  0  0  0  0  0  0  0  0  0  0  0
  155.4920  214.0770  152.1660 C   0  0  0  0  0  2  0  0  0  0  0  0
  156.8570  211.7470  153.7400 O   0  0  0  0  0  1  0  0  0  0  0  0
  160.4040  212.7490  146.5950 C   0  0  1  0  0  3  0  0  0  0  0  0
  160.7150  211.9560  147.7380 O   0  0  0  0  0  0  0  0  0  0  0  0
  158.0200  212.7560  151.8940 C   0  0  1  0  0  3  0  0  0  0  0  0
  1  5  1  1  0  0  0
  1 13  1  0  0  0  0
  2 18  1  6  0  0  0
  2 22  1  0  0  0  0
  3 11  1  0  0  0  0
  4 23  1  6  0  0  0
  4  1  1  0  0  0  0
  5 12  2  0  0  0  0
  7 16  1  0  0  0  0
  7 27  1  6  0  0  0
  8 12  1  6  0  0  0
  8  6  1  0  0  0  0
  9 21  1  0  0  0  0
 10 15  1  6  0  0  0
 10 30  1  0  0  0  0
 11 24  2  0  0  0  0
 11 25  1  0  0  0  0
 12  9  1  0  0  0  0
 13  8  1  0  0  0  0
 14  2  1  0  0  0  0
 15 26  1  0  0  0  0
 19  3  1  0  0  0  0
 20 28  1  0  0  0  0
 20 14  1  0  0  0  0
 21  6  1  0  0  0  0
 21 17  2  0  0  0  0
 22  4  1  0  0  0  0
 23 25  1  0  0  0  0
 25 10  1  0  0  0  0
 26 16  1  0  0  0  0
 28 19  1  0  0  0  0
 28 29  1  0  0  0  0
 29 22  1  0  0  0  0
 30 13  1  0  0  0  0
 30  7  1  0  0  0  0
M  END
>  <MODEL>
2

>  <REMARK>
 VINA RESULT:      -4.0      4.593      8.022
  Name = 
  0 active torsions:
  status: ('A' for Active; 'I' for Inactive)
                            x       y       z     vdW  Elec       q    Type
                         _______ _______ _______ _____ _____    ______ ____

>  <TORSDO>
F 0

$$$$
=
 OpenBabel11052421593D

 30 35  0  0  1  0  0  0  0  0999 V2000
  158.4040  213.4590  141.1100 C   0  0  1  0  0  3  0  0  0  0  0  0
  154.8890  212.6930  140.0150 C   0  0  2  0  0  3  0  0  0  0  0  0
  158.2880  213.9630  137.1160 N   0  0  0  0  0  2  0  0  0  0  0  0
  157.3400  212.6190  140.3890 C   0  0  1  0  0  3  0  0  0  0  0  0
  157.8360  214.1390  142.2620 N   0  0  0  0  0  0  0  0  0  0  0  0
  160.0620  212.2030  144.4180 S   0  0  0  0  0  0  0  0  0  0  0  0
  161.9440  211.8480  141.4240 C   0  0  1  0  0  3  0  0  0  0  0  0
  159.8940  213.3130  142.9770 C   0  0  2  0  0  3  0  0  0  0  0  0
  158.2880  214.2620  144.5820 N   0  0  0  0  0  2  0  0  0  0  0  0
  160.3170  211.6670  139.4550 C   0  0  2  0  0  3  0  0  0  0  0  0
  159.3370  213.4690  137.9580 C   0  0  0  0  0  0  0  0  0  0  0  0
  158.6770  214.1010  143.2330 C   0  0  0  0  0  0  0  0  0  0  0  0
  159.5350  212.5850  141.6850 C   0  0  2  0  0  3  0  0  0  0  0  0
  154.4810  212.3270  138.6010 C   0  0  0  0  0  2  0  0  0  0  0  0
  161.4690  211.3690  138.4790 C   0  0  0  0  0  2  0  0  0  0  0  0
  162.7440  210.8580  140.5750 C   0  0  0  0  0  2  0  0  0  0  0  0
  159.2970  213.5980  146.6030 N   0  0  0  0  0  2  0  0  0  0  0  0
  153.7990  213.4900  140.7120 C   0  0  0  0  0  1  0  0  0  0  0  0
  156.9710  213.3570  137.0110 C   0  0  0  0  0  2  0  0  0  0  0  0
  154.5550  213.5630  137.7400 C   0  0  0  0  0  2  0  0  0  0  0  0
  159.0530  213.3550  145.3600 C   0  0  0  0  0  0  0  0  0  0  0  0
  156.1610  213.4290  140.0580 N   0  0  1  0  0  0  0  0  0  0  0  0
  157.8670  211.8110  139.1920 C   0  0  0  0  0  2  0  0  0  0  0  0
  160.4300  214.0950  137.9730 O   0  0  0  0  0  0  0  0  0  0  0  0
  159.1820  212.2760  138.7620 N   0  0  0  0  0  0  0  0  0  0  0  0
  162.8460  211.3530  139.1420 C   0  0  0  0  0  2  0  0  0  0  0  0
  162.7870  212.8630  141.8790 O   0  0  0  0  0  1  0  0  0  0  0  0
  155.9570  214.1400  137.8350 C   0  0  1  0  0  3  0  0  0  0  0  0
  156.3820  214.4530  139.1590 O   0  0  0  0  0  0  0  0  0  0  0  0
  160.7240  212.4730  140.7100 C   0  0  1  0  0  3  0  0  0  0  0  0
  1 13  1  0  0  0  0
  1  5  1  1  0  0  0
  2 22  1  0  0  0  0
  2 18  1  6  0  0  0
  3 11  1  0  0  0  0
  4 23  1  6  0  0  0
  4  1  1  0  0  0  0
  5 12  2  0  0  0  0
  6 21  1  0  0  0  0
  7 27  1  6  0  0  0
  8 12  1  1  0  0  0
  8  6  1  0  0  0  0
  9 21  1  0  0  0  0
 10 15  1  6  0  0  0
 10 30  1  0  0  0  0
 11 24  2  0  0  0  0
 11 25  1  0  0  0  0
 12  9  1  0  0  0  0
 13  8  1  0  0  0  0
 14  2  1  0  0  0  0
 15 26  1  0  0  0  0
 16  7  1  0  0  0  0
 19  3  1  0  0  0  0
 19 28  1  0  0  0  0
 20 28  1  0  0  0  0
 20 14  1  0  0  0  0
 21 17  2  0  0  0  0
 22  4  1  0  0  0  0
 25 23  1  0  0  0  0
 25 10  1  0  0  0  0
 26 16  1  0  0  0  0
 28 29  1  0  0  0  0
 29 22  1  0  0  0  0
 30  7  1  0  0  0  0
 30 13  1  0  0  0  0
M  END
>  <MODEL>
3

>  <REMARK>
 VINA RESULT:      -3.5     10.512     14.402
  Name = 
  0 active torsions:
  status: ('A' for Active; 'I' for Inactive)
                            x       y       z     vdW  Elec       q    Type
                         _______ _______ _______ _____ _____    ______ ____

>  <TORSDO>
F 0

$$$$
=
 OpenBabel11052421593D

 30 35  0  0  1  0  0  0  0  0999 V2000
  160.9840  206.2460  149.3160 C   0  0  1  0  0  3  0  0  0  0  0  0
  162.6700  209.3720  150.5550 C   0  0  2  0  0  3  0  0  0  0  0  0
  160.2320  206.4930  153.2640 N   0  0  0  0  0  2  0  0  0  0  0  0
  162.0440  207.0110  150.1240 C   0  0  1  0  0  3  0  0  0  0  0  0
  160.5940  206.9950  148.1330 N   0  0  0  0  0  0  0  0  0  0  0  0
  161.9440  204.3020  146.0660 S   0  0  0  0  0  0  0  0  0  0  0  0
  161.4950  202.3890  149.0270 C   0  0  1  0  0  3  0  0  0  0  0  0
  160.8260  204.7870  147.4260 C   0  0  2  0  0  3  0  0  0  0  0  0
  160.5210  206.6080  145.7990 N   0  0  0  0  0  2  0  0  0  0  0  0
  161.9970  203.8810  151.0460 C   0  0  2  0  0  3  0  0  0  0  0  0
  160.4560  205.3480  152.4330 C   0  0  0  0  0  0  0  0  0  0  0  0
  160.4560  206.1840  147.1460 C   0  0  0  0  0  0  0  0  0  0  0  0
  161.5260  204.9090  148.7770 C   0  0  2  0  0  3  0  0  0  0  0  0
  163.0300  209.6480  152.0020 C   0  0  0  0  0  2  0  0  0  0  0  0
  161.8640  202.6900  152.0110 C   0  0  0  0  0  2  0  0  0  0  0  0
  162.1350  201.3280  149.9240 C   0  0  0  0  0  2  0  0  0  0  0  0
  161.0110  205.4540  143.8060 N   0  0  0  0  0  2  0  0  0  0  0  0
  162.2880  210.6510  149.8310 C   0  0  0  0  0  1  0  0  0  0  0  0
  161.1900  207.5700  153.4480 C   0  0  0  0  0  2  0  0  0  0  0  0
  161.7650  209.9410  152.7690 C   0  0  0  0  0  2  0  0  0  0  0  0
  161.2180  205.6110  145.0690 C   0  0  0  0  0  0  0  0  0  0  0  0
  161.5960  208.3760  150.4260 N   0  0  1  0  0  0  0  0  0  0  0  0
  162.5650  206.2630  151.3620 C   0  0  0  0  0  2  0  0  0  0  0  0
  159.5370  204.4900  152.3440 O   0  0  0  0  0  0  0  0  0  0  0  0
  161.6990  205.1450  151.7220 N   0  0  0  0  0  0  0  0  0  0  0  0
  161.5230  201.3730  151.3150 C   0  0  0  0  0  2  0  0  0  0  0  0
  160.3140  201.8870  148.4780 O   0  0  0  0  0  1  0  0  0  0  0  0
  160.8080  208.7740  152.5950 C   0  0  1  0  0  3  0  0  0  0  0  0
  160.4860  208.4650  151.2420 O   0  0  0  0  0  0  0  0  0  0  0  0
  161.2060  203.7370  149.7260 C   0  0  1  0  0  3  0  0  0  0  0  0
  1  5  1  6  0  0  0
  1  4  1  0  0  0  0
  2 18  1  1  0  0  0
  2 14  1  0  0  0  0
  3 19  1  0  0  0  0
  4 22  1  0  0  0  0
  4 23  1  1  0  0  0
  7 27  1  1  0  0  0
  7 30  1  0  0  0  0
  7 16  1  0  0  0  0
  8  6  1  6  0  0  0
  8 13  1  0  0  0  0
  9 12  1  0  0  0  0
 10 25  1  0  0  0  0
 10 15  1  1  0  0  0
 11  3  1  0  0  0  0
 12  8  1  0  0  0  0
 12  5  2  0  0  0  0
 13  1  1  0  0  0  0
 13 30  1  0  0  0  0
 14 20  1  0  0  0  0
 16 26  1  0  0  0  0
 17 21  2  0  0  0  0
 21  9  1  0  0  0  0
 21  6  1  0  0  0  0
 22  2  1  0  0  0  0
 22 29  1  0  0  0  0
 23 25  1  0  0  0  0
 24 11  2  0  0  0  0
 25 11  1  0  0  0  0
 26 15  1  0  0  0  0
 28 20  1  0  0  0  0
 28 19  1  0  0  0  0
 29 28  1  0  0  0  0
 30 10  1  0  0  0  0
M  END
>  <MODEL>
4

>  <REMARK>
 VINA RESULT:      -2.5      3.247      5.861
  Name = 
  0 active torsions:
  status: ('A' for Active; 'I' for Inactive)
                            x       y       z     vdW  Elec       q    Type
                         _______ _______ _______ _____ _____    ______ ____

>  <TORSDO>
F 0

$$$$
=
 OpenBabel11052421593D

 30 35  0  0  1  0  0  0  0  0999 V2000
  161.8460  208.3120  149.7120 C   0  0  1  0  0  3  0  0  0  0  0  0
  160.4040  206.1110  147.0250 C   0  0  2  0  0  3  0  0  0  0  0  0
  162.4780  204.5020  150.8560 N   0  0  0  0  0  2  0  0  0  0  0  0
  160.8310  207.3000  149.1600 C   0  0  1  0  0  3  0  0  0  0  0  0
  162.3430  209.1780  148.6570 N   0  0  0  0  0  0  0  0  0  0  0  0
  160.8310  212.0260  150.3740 S   0  0  0  0  0  0  0  0  0  0  0  0
  161.0030  209.8660  153.1910 C   0  0  1  0  0  3  0  0  0  0  0  0
  161.9400  210.5790  150.4740 C   0  0  2  0  0  3  0  0  0  0  0  0
  162.4630  211.5070  148.2570 N   0  0  0  0  0  2  0  0  0  0  0  0
  160.5650  207.4680  152.4080 C   0  0  2  0  0  3  0  0  0  0  0  0
  162.1810  205.6670  151.6360 C   0  0  0  0  0  0  0  0  0  0  0  0
  162.4420  210.3770  149.1060 C   0  0  0  0  0  0  0  0  0  0  0  0
  161.2060  209.2660  150.7380 C   0  0  2  0  0  3  0  0  0  0  0  0
  160.0190  204.6560  147.2090 C   0  0  0  0  0  2  0  0  0  0  0  0
  160.5570  206.9530  153.8570 C   0  0  0  0  0  2  0  0  0  0  0  0
  160.2400  209.3740  154.4220 C   0  0  0  0  0  2  0  0  0  0  0  0
  161.9420  213.7730  148.6360 N   0  0  0  0  0  2  0  0  0  0  0  0
  160.9240  206.3680  145.6210 C   0  0  0  0  0  1  0  0  0  0  0  0
  161.6140  203.9750  149.8130 C   0  0  0  0  0  2  0  0  0  0  0  0
  161.2780  203.8310  147.3080 C   0  0  0  0  0  2  0  0  0  0  0  0
  161.7050  212.5290  148.8850 C   0  0  0  0  0  0  0  0  0  0  0  0
  161.3880  206.5600  148.0200 N   0  0  1  0  0  0  0  0  0  0  0  0
  160.2020  206.3820  150.2200 C   0  0  0  0  0  2  0  0  0  0  0  0
  163.0220  206.0330  152.5000 O   0  0  0  0  0  0  0  0  0  0  0  0
  160.9510  206.4100  151.4730 N   0  0  0  0  0  0  0  0  0  0  0  0
  160.8040  208.0460  154.8970 C   0  0  0  0  0  2  0  0  0  0  0  0
  162.1530  210.5470  153.5940 O   0  0  0  0  0  1  0  0  0  0  0  0
  162.1320  204.3790  148.4380 C   0  0  1  0  0  3  0  0  0  0  0  0
  162.4720  205.7570  148.3120 O   0  0  0  0  0  0  0  0  0  0  0  0
  161.3860  208.7590  152.1830 C   0  0  1  0  0  3  0  0  0  0  0  0
  1  5  1  6  0  0  0
  1 13  1  0  0  0  0
  2 18  1  6  0  0  0
  2 14  1  0  0  0  0
  2 22  1  0  0  0  0
  3 11  1  0  0  0  0
  4  1  1  0  0  0  0
  4 23  1  1  0  0  0
  5 12  2  0  0  0  0
  6  8  1  0  0  0  0
  7 27  1  1  0  0  0
  7 16  1  0  0  0  0
  8 12  1  6  0  0  0
  8 13  1  0  0  0  0
  9 21  1  0  0  0  0
  9 12  1  0  0  0  0
 10 15  1  1  0  0  0
 11 24  2  0  0  0  0
 13 30  1  0  0  0  0
 14 20  1  0  0  0  0
 15 26  1  0  0  0  0
 16 26  1  0  0  0  0
 17 21  2  0  0  0  0
 19  3  1  0  0  0  0
 20 28  1  0  0  0  0
 21  6  1  0  0  0  0
 22 29  1  0  0  0  0
 22  4  1  0  0  0  0
 23 25  1  0  0  0  0
 25 11  1  0  0  0  0
 25 10  1  0  0  0  0
 28 19  1  0  0  0  0
 29 28  1  0  0  0  0
 30 10  1  0  0  0  0
 30  7  1  0  0  0  0
M  END
>  <MODEL>
5

>  <REMARK>
 VINA RESULT:      -2.3      2.875      7.094
  Name = 
  0 active torsions:
  status: ('A' for Active; 'I' for Inactive)
                            x       y       z     vdW  Elec       q    Type
                         _______ _______ _______ _____ _____    ______ ____

>  <TORSDO>
F 0

$$$$
=
 OpenBabel11052421593D

 30 35  0  0  1  0  0  0  0  0999 V2000
  157.8680  210.5270  138.3410 C   0  0  1  0  0  3  0  0  0  0  0  0
  161.2610  209.3390  139.4470 C   0  0  2  0  0  3  0  0  0  0  0  0
  160.2550  213.7680  138.4760 N   0  0  0  0  0  2  0  0  0  0  0  0
  159.0330  210.4240  139.3370 C   0  0  1  0  0  3  0  0  0  0  0  0
  157.7810  209.3310  137.5190 N   0  0  0  0  0  0  0  0  0  0  0  0
  154.5020  208.6490  138.9770 S   0  0  0  0  0  0  0  0  0  0  0  0
  154.5800  212.1270  139.7010 C   0  0  1  0  0  3  0  0  0  0  0  0
  155.5870  209.8390  138.1170 C   0  0  2  0  0  3  0  0  0  0  0  0
  156.1340  207.7100  137.0110 N   0  0  0  0  0  2  0  0  0  0  0  0
  156.9880  212.7880  140.2710 C   0  0  2  0  0  3  0  0  0  0  0  0
  158.8610  213.6300  138.7780 C   0  0  0  0  0  0  0  0  0  0  0  0
  156.5460  209.0160  137.3620 C   0  0  0  0  0  0  0  0  0  0  0  0
  156.5070  210.6150  139.0550 C   0  0  2  0  0  3  0  0  0  0  0  0
  162.3360  210.2220  140.0490 C   0  0  0  0  0  2  0  0  0  0  0  0
  156.5480  214.2100  140.6590 C   0  0  0  0  0  2  0  0  0  0  0  0
  154.2680  213.1760  140.7700 C   0  0  0  0  0  2  0  0  0  0  0  0
  154.0930  206.5700  137.2990 N   0  0  0  0  0  2  0  0  0  0  0  0
  161.8700  208.2290  138.6070 C   0  0  0  0  0  1  0  0  0  0  0  0
  161.3150  213.0420  139.1560 C   0  0  0  0  0  2  0  0  0  0  0  0
  162.9160  211.0910  138.9610 C   0  0  0  0  0  2  0  0  0  0  0  0
  154.9550  207.4210  137.7450 C   0  0  0  0  0  0  0  0  0  0  0  0
  160.2900  210.1030  138.6490 N   0  0  1  0  0  0  0  0  0  0  0  0
  159.1620  211.6190  140.2940 C   0  0  0  0  0  2  0  0  0  0  0  0
  158.0380  214.3030  138.1020 O   0  0  0  0  0  0  0  0  0  0  0  0
  158.3850  212.7660  139.8360 N   0  0  0  0  0  0  0  0  0  0  0  0
  155.0480  214.4530  140.5010 C   0  0  0  0  0  2  0  0  0  0  0  0
  153.7680  212.3390  138.5860 O   0  0  0  0  0  1  0  0  0  0  0  0
  161.7890  211.8700  138.3060 C   0  0  1  0  0  3  0  0  0  0  0  0
  160.7430  211.0650  137.7690 O   0  0  0  0  0  0  0  0  0  0  0  0
  156.0610  212.0770  139.2590 C   0  0  1  0  0  3  0  0  0  0  0  0
  1  5  1  6  0  0  0
  1 13  1  0  0  0  0
  1  4  1  0  0  0  0
  2 18  1  6  0  0  0
  2 14  1  0  0  0  0
  3 11  1  0  0  0  0
  3 19  1  0  0  0  0
  4 23  1  6  0  0  0
  7 27  1  6  0  0  0
  7 16  1  0  0  0  0
  8 12  1  6  0  0  0
  8  6  1  0  0  0  0
  8 13  1  0  0  0  0
  9 12  1  0  0  0  0
  9 21  1  0  0  0  0
 10 15  1  6  0  0  0
 11 25  1  0  0  0  0
 12  5  2  0  0  0  0
 13 30  1  0  0  0  0
 17 21  2  0  0  0  0
 20 14  1  0  0  0  0
 21  6  1  0  0  0  0
 22  4  1  0  0  0  0
 22  2  1  0  0  0  0
 24 11  2  0  0  0  0
 25 10  1  0  0  0  0
 25 23  1  0  0  0  0
 26 15  1  0  0  0  0
 26 16  1  0  0  0  0
 28 20  1  0  0  0  0
 28 19  1  0  0  0  0
 29 28  1  0  0  0  0
 29 22  1  0  0  0  0
 30  7  1  0  0  0  0
 30 10  1  0  0  0  0
M  END
>  <MODEL>
6

>  <REMARK>
 VINA RESULT:      -2.3     13.719     15.101
  Name = 
  0 active torsions:
  status: ('A' for Active; 'I' for Inactive)
                            x       y       z     vdW  Elec       q    Type
                         _______ _______ _______ _____ _____    ______ ____

>  <TORSDO>
F 0

$$$$
=
 OpenBabel11052421593D

 30 35  0  0  1  0  0  0  0  0999 V2000
  160.6120  210.7190  152.3890 C   0  0  1  0  0  3  0  0  0  0  0  0
  160.8300  207.1250  151.3040 C   0  0  2  0  0  3  0  0  0  0  0  0
  161.7570  208.5920  155.6120 N   0  0  0  0  0  2  0  0  0  0  0  0
  160.1550  209.2520  152.3850 C   0  0  1  0  0  3  0  0  0  0  0  0
  161.2080  211.0810  151.1150 N   0  0  0  0  0  0  0  0  0  0  0  0
  158.5090  213.4900  150.6100 S   0  0  0  0  0  0  0  0  0  0  0  0
  158.2240  213.2580  154.1440 C   0  0  1  0  0  3  0  0  0  0  0  0
  159.8430  212.8770  151.6960 C   0  0  2  0  0  3  0  0  0  0  0  0
  160.8580  212.7340  149.4590 N   0  0  0  0  0  2  0  0  0  0  0  0
  158.7250  210.8470  154.8470 C   0  0  2  0  0  3  0  0  0  0  0  0
  160.9150  209.7470  155.5150 C   0  0  0  0  0  0  0  0  0  0  0  0
  160.8310  212.2650  150.7920 C   0  0  0  0  0  0  0  0  0  0  0  0
  159.4280  211.6900  152.5610 C   0  0  2  0  0  3  0  0  0  0  0  0
  160.7940  205.9320  152.2390 C   0  0  0  0  0  2  0  0  0  0  0  0
  158.3370  211.1480  156.3050 C   0  0  0  0  0  2  0  0  0  0  0  0
  157.2300  213.1600  155.3020 C   0  0  0  0  0  2  0  0  0  0  0  0
  159.6730  214.4530  148.3680 N   0  0  0  0  0  2  0  0  0  0  0  0
  161.7280  206.8570  150.1080 C   0  0  0  0  0  1  0  0  0  0  0  0
  161.4840  207.3240  154.9560 C   0  0  0  0  0  2  0  0  0  0  0  0
  162.1040  205.8610  152.9850 C   0  0  0  0  0  2  0  0  0  0  0  0
  159.6920  213.5160  149.2560 C   0  0  0  0  0  0  0  0  0  0  0  0
  161.2490  208.3580  151.9850 N   0  0  1  0  0  0  0  0  0  0  0  0
  159.4500  208.7990  153.6740 C   0  0  0  0  0  2  0  0  0  0  0  0
  161.2710  210.7940  156.1190 O   0  0  0  0  0  0  0  0  0  0  0  0
  159.6740  209.7350  154.7710 N   0  0  0  0  0  0  0  0  0  0  0  0
  157.9110  212.5970  156.5380 C   0  0  0  0  0  2  0  0  0  0  0  0
  158.9410  214.4520  154.2420 O   0  0  0  0  0  1  0  0  0  0  0  0
  162.3310  207.1820  153.6970 C   0  0  1  0  0  3  0  0  0  0  0  0
  162.3270  208.3250  152.8460 O   0  0  0  0  0  0  0  0  0  0  0  0
  159.2100  212.0720  154.0380 C   0  0  1  0  0  3  0  0  0  0  0  0
  1  5  1  6  0  0  0
  1 13  1  0  0  0  0
  2 18  1  6  0  0  0
  2 22  1  0  0  0  0
  2 14  1  0  0  0  0
  4  1  1  0  0  0  0
  4 23  1  1  0  0  0
  7 27  1  1  0  0  0
  7 16  1  0  0  0  0
  8  6  1  6  0  0  0
  8 13  1  0  0  0  0
  9 12  1  0  0  0  0
 10 15  1  1  0  0  0
 11  3  1  0  0  0  0
 11 24  2  0  0  0  0
 12  5  2  0  0  0  0
 12  8  1  0  0  0  0
 13 30  1  0  0  0  0
 14 20  1  0  0  0  0
 15 26  1  0  0  0  0
 16 26  1  0  0  0  0
 17 21  2  0  0  0  0
 19  3  1  0  0  0  0
 20 28  1  0  0  0  0
 21  9  1  0  0  0  0
 21  6  1  0  0  0  0
 22  4  1  0  0  0  0
 22 29  1  0  0  0  0
 23 25  1  0  0  0  0
 25 10  1  0  0  0  0
 25 11  1  0  0  0  0
 28 19  1  0  0  0  0
 29 28  1  0  0  0  0
 30  7  1  0  0  0  0
 30 10  1  0  0  0  0
M  END
>  <MODEL>
7

>  <REMARK>
 VINA RESULT:      -2.0      3.269      6.450
  Name = 
  0 active torsions:
  status: ('A' for Active; 'I' for Inactive)
                            x       y       z     vdW  Elec       q    Type
                         _______ _______ _______ _____ _____    ______ ____

>  <TORSDO>
F 0

$$$$
