=
 OpenBabel11052421473D

 30 33  0  0  1  0  0  0  0  0999 V2000
  159.0620  210.0170  153.6780 C   0  0  2  0  0  3  0  0  0  0  0  0
  160.2040  211.1280  155.6020 C   0  0  2  0  0  3  0  0  0  0  0  0
  157.7740  210.8500  153.5560 C   0  0  0  0  0  2  0  0  0  0  0  0
  157.0460  212.0240  157.0640 N   0  0  0  0  0  0  0  0  0  0  0  0
  159.5100  213.6140  156.2920 C   0  0  1  0  0  3  0  0  0  0  0  0
  157.7020  211.8070  155.8910 C   0  0  0  0  0  0  0  0  0  0  0  0
  155.7660  210.6340  155.0460 C   0  0  0  0  0  3  0  0  0  0  0  0
  157.0730  211.0880  154.8600 C   0  0  0  0  0  0  0  0  0  0  0  0
  159.1360  212.2390  155.7290 C   0  0  2  0  0  0  0  0  0  0  0  0
  160.8660  213.7040  156.6100 O   0  0  0  0  0  1  0  0  0  0  0  0
  155.7730  211.5850  157.2610 C   0  0  0  0  0  3  0  0  0  0  0  0
  155.1090  210.8820  156.2520 C   0  0  0  0  0  3  0  0  0  0  0  0
  159.6170  209.8820  155.0460 N   0  0  0  0  0  0  0  0  0  0  0  0
  158.1830  214.0180  154.3670 O   0  0  0  0  0  1  0  0  0  0  0  0
  159.3750  213.4270  154.7920 C   0  0  1  0  0  3  0  0  0  0  0  0
  160.8970  209.3300  152.0720 C   0  0  0  0  0  0  0  0  0  0  0  0
  161.8280  209.6380  151.0750 C   0  0  0  0  0  3  0  0  0  0  0  0
  160.7890  207.6670  152.6320 Cl  0  0  0  0  0  0  0  0  0  0  0  0
  160.1930  211.6490  152.1100 C   0  0  0  0  0  3  0  0  0  0  0  0
  161.2320  213.2190  150.6520 F   0  0  0  0  0  0  0  0  0  0  0  0
  160.0710  210.3410  152.6010 C   0  0  0  0  0  0  0  0  0  0  0  0
  161.9420  210.9450  150.5970 C   0  0  0  0  0  3  0  0  0  0  0  0
  161.1240  211.9520  151.1150 C   0  0  0  0  0  0  0  0  0  0  0  0
  160.6040  208.8000  155.0280 C   0  0  0  0  0  2  0  0  0  0  0  0
  160.0150  207.4620  156.8760 O   0  0  0  0  0  0  0  0  0  0  0  0
  160.0340  207.5740  155.6610 C   0  0  0  0  0  3  0  0  0  0  0  0
  160.7770  210.8670  157.0010 C   0  0  0  0  0  2  0  0  0  0  0  0
  162.6560  209.3150  157.2610 O   0  0  0  0  0  0  0  0  0  0  0  0
  162.1980  210.5680  156.9260 N   0  0  0  0  0  0  0  0  0  0  0  0
  162.9690  211.3800  156.3780 O   0  0  0  0  0  0  0  0  0  0  0  0
  1 21  1  6  0  0  0
  1 13  1  0  0  0  0
  2  9  1  0  0  0  0
  2 27  1  1  0  0  0
  3  1  1  0  0  0  0
  3  8  1  0  0  0  0
  4 11  1  0  0  0  0
  5 10  1  6  0  0  0
  6  4  2  0  0  0  0
  7 12  1  0  0  0  0
  8  7  2  0  0  0  0
  8  6  1  0  0  0  0
  9  6  1  1  0  0  0
  9  5  1  0  0  0  0
 12 11  2  0  0  0  0
 13  2  1  0  0  0  0
 15 14  1  1  0  0  0
 15  9  1  0  0  0  0
 15  5  1  0  0  0  0
 16 21  1  0  0  0  0
 16 18  1  0  0  0  0
 17 16  2  0  0  0  0
 19 21  2  0  0  0  0
 20 23  1  0  0  0  0
 22 17  1  0  0  0  0
 22 23  2  0  0  0  0
 23 19  1  0  0  0  0
 24 13  1  0  0  0  0
 24 26  1  0  0  0  0
 26 25  2  0  0  0  0
 29 27  1  0  0  0  0
 29 28  2  0  0  0  0
 30 29  2  0  0  0  0
M  END
>  <MODEL>
1

>  <REMARK>
 VINA RESULT:      -2.5      0.000      0.000
  Name = 
  5 active torsions:
  status: ('A' for Active; 'I' for Inactive)
    1  A    between atoms: C_1  and  C_22
    2  A    between atoms: C_4  and  C_25
    3  A    between atoms: C_10  and  N_23
    4  A    between atoms: C_10  and  C_26
    5  A    between atoms: N_11  and  C_25
                            x       y       z     vdW  Elec       q    Type
                         _______ _______ _______ _____ _____    ______ ____

>  <TORSDO>
F 5

$$$$
=
 OpenBabel11052421473D

 30 33  0  0  1  0  0  0  0  0999 V2000
  160.9880  211.0770  153.8900 C   0  0  2  0  0  3  0  0  0  0  0  0
  158.5010  211.2580  153.7610 C   0  0  2  0  0  3  0  0  0  0  0  0
  161.2340  211.2330  155.4010 C   0  0  0  0  0  2  0  0  0  0  0  0
  158.4290  213.4400  156.6150 N   0  0  0  0  0  0  0  0  0  0  0  0
  157.0300  210.8330  155.9510 C   0  0  1  0  0  3  0  0  0  0  0  0
  159.0870  212.4010  156.0310 C   0  0  0  0  0  0  0  0  0  0  0  0
  161.1940  213.4060  156.6560 C   0  0  0  0  0  3  0  0  0  0  0  0
  160.4920  212.3750  156.0280 C   0  0  0  0  0  0  0  0  0  0  0  0
  158.3220  211.3320  155.2950 C   0  0  2  0  0  0  0  0  0  0  0  0
  156.1320  210.3100  155.0190 O   0  0  0  0  0  1  0  0  0  0  0  0
  159.0990  214.4530  157.2280 C   0  0  0  0  0  3  0  0  0  0  0  0
  160.4960  214.4530  157.2610 C   0  0  0  0  0  3  0  0  0  0  0  0
  159.8180  211.8070  153.3480 N   0  0  0  0  0  0  0  0  0  0  0  0
  158.8170  209.9790  157.2570 O   0  0  0  0  0  1  0  0  0  0  0  0
  158.2710  209.9600  155.9720 C   0  0  1  0  0  3  0  0  0  0  0  0
  161.7470  209.3660  152.1830 C   0  0  0  0  0  0  0  0  0  0  0  0
  161.8780  208.0410  151.7540 C   0  0  0  0  0  3  0  0  0  0  0  0
  162.3650  210.6450  151.1480 Cl  0  0  0  0  0  0  0  0  0  0  0  0
  160.6680  208.5880  154.2090 C   0  0  0  0  0  3  0  0  0  0  0  0
  160.3440  206.2530  154.5490 F   0  0  0  0  0  0  0  0  0  0  0  0
  161.1340  209.6490  153.4190 C   0  0  0  0  0  0  0  0  0  0  0  0
  161.4060  206.9930  152.5490 C   0  0  0  0  0  3  0  0  0  0  0  0
  160.8010  207.2670  153.7770 C   0  0  0  0  0  0  0  0  0  0  0  0
  159.9400  211.8350  151.8890 C   0  0  0  0  0  2  0  0  0  0  0  0
  159.8240  213.5240  150.2500 O   0  0  0  0  0  0  0  0  0  0  0  0
  160.0730  213.2430  151.4120 C   0  0  0  0  0  3  0  0  0  0  0  0
  157.3640  212.0640  153.1170 C   0  0  0  0  0  2  0  0  0  0  0  0
  158.1510  214.3450  153.5470 O   0  0  0  0  0  0  0  0  0  0  0  0
  157.2200  213.3570  153.7660 N   0  0  0  0  0  0  0  0  0  0  0  0
  156.1590  213.6310  154.3620 O   0  0  0  0  0  0  0  0  0  0  0  0
  1 21  1  1  0  0  0
  1  3  1  0  0  0  0
  2 27  1  6  0  0  0
  2  9  1  0  0  0  0
  3  8  1  0  0  0  0
  4 11  1  0  0  0  0
  5 10  1  6  0  0  0
  5 15  1  0  0  0  0
  6  4  2  0  0  0  0
  7 12  1  0  0  0  0
  8  6  1  0  0  0  0
  8  7  2  0  0  0  0
  9  5  1  0  0  0  0
  9 15  1  0  0  0  0
  9  6  1  1  0  0  0
 11 12  2  0  0  0  0
 13  2  1  0  0  0  0
 13  1  1  0  0  0  0
 15 14  1  1  0  0  0
 16 21  1  0  0  0  0
 17 16  2  0  0  0  0
 17 22  1  0  0  0  0
 18 16  1  0  0  0  0
 21 19  2  0  0  0  0
 22 23  2  0  0  0  0
 23 19  1  0  0  0  0
 23 20  1  0  0  0  0
 24 13  1  0  0  0  0
 25 26  2  0  0  0  0
 26 24  1  0  0  0  0
 27 29  1  0  0  0  0
 28 29  2  0  0  0  0
 29 30  2  0  0  0  0
M  END
>  <MODEL>
2

>  <REMARK>
 VINA RESULT:      -2.4      2.640      4.936
  Name = 
  5 active torsions:
  status: ('A' for Active; 'I' for Inactive)
    1  A    between atoms: C_1  and  C_22
    2  A    between atoms: C_4  and  C_25
    3  A    between atoms: C_10  and  N_23
    4  A    between atoms: C_10  and  C_26
    5  A    between atoms: N_11  and  C_25
                            x       y       z     vdW  Elec       q    Type
                         _______ _______ _______ _____ _____    ______ ____

>  <TORSDO>
F 5

$$$$
=
 OpenBabel11052421473D

 30 33  0  0  1  0  0  0  0  0999 V2000
  160.8720  210.8650  154.0000 C   0  0  2  0  0  3  0  0  0  0  0  0
  158.4420  211.2570  153.5790 C   0  0  2  0  0  3  0  0  0  0  0  0
  160.9550  211.0280  155.5280 C   0  0  0  0  0  2  0  0  0  0  0  0
  158.2320  213.4900  156.3870 N   0  0  0  0  0  0  0  0  0  0  0  0
  156.6970  211.0010  155.5860 C   0  0  1  0  0  3  0  0  0  0  0  0
  158.8590  212.3870  155.8930 C   0  0  0  0  0  0  0  0  0  0  0  0
  160.9600  213.2190  156.7500 C   0  0  0  0  0  3  0  0  0  0  0  0
  160.2480  212.2410  156.0540 C   0  0  0  0  0  0  0  0  0  0  0  0
  158.0940  211.3750  155.0820 C   0  0  2  0  0  0  0  0  0  0  0  0
  155.8700  210.5390  154.5610 O   0  0  0  0  0  1  0  0  0  0  0  0
  158.9130  214.4530  157.0660 C   0  0  0  0  0  3  0  0  0  0  0  0
  160.2910  214.3330  157.2610 C   0  0  0  0  0  3  0  0  0  0  0  0
  159.8410  211.6830  153.3180 N   0  0  0  0  0  0  0  0  0  0  0  0
  158.2400  210.0210  157.1000 O   0  0  0  0  0  1  0  0  0  0  0  0
  157.8460  210.0240  155.7600 C   0  0  1  0  0  3  0  0  0  0  0  0
  161.1180  208.3960  154.5120 C   0  0  0  0  0  0  0  0  0  0  0  0
  161.1850  207.0620  154.0980 C   0  0  0  0  0  3  0  0  0  0  0  0
  161.2510  208.7470  156.2290 Cl  0  0  0  0  0  0  0  0  0  0  0  0
  160.8350  209.0830  152.2050 C   0  0  0  0  0  3  0  0  0  0  0  0
  160.7960  207.4380  150.4830 F   0  0  0  0  0  0  0  0  0  0  0  0
  160.9460  209.4210  153.5610 C   0  0  0  0  0  0  0  0  0  0  0  0
  161.0770  206.7380  152.7430 C   0  0  0  0  0  3  0  0  0  0  0  0
  160.9020  207.7500  151.7960 C   0  0  0  0  0  0  0  0  0  0  0  0
  160.1320  211.6730  151.8830 C   0  0  0  0  0  2  0  0  0  0  0  0
  159.8460  213.3750  150.2790 O   0  0  0  0  0  0  0  0  0  0  0  0
  160.2780  213.0700  151.3790 C   0  0  0  0  0  3  0  0  0  0  0  0
  157.4620  212.1450  152.8010 C   0  0  0  0  0  2  0  0  0  0  0  0
  158.2690  214.3860  153.3780 O   0  0  0  0  0  0  0  0  0  0  0  0
  157.2890  213.4250  153.4670 N   0  0  0  0  0  0  0  0  0  0  0  0
  156.1790  213.7210  153.9520 O   0  0  0  0  0  0  0  0  0  0  0  0
  1 21  1  1  0  0  0
  1  3  1  0  0  0  0
  2 27  1  6  0  0  0
  2  9  1  0  0  0  0
  3  8  1  0  0  0  0
  4 11  1  0  0  0  0
  5 10  1  6  0  0  0
  5 15  1  0  0  0  0
  6  8  1  0  0  0  0
  6  4  2  0  0  0  0
  7 12  1  0  0  0  0
  8  7  2  0  0  0  0
  9  5  1  0  0  0  0
  9 15  1  0  0  0  0
  9  6  1  1  0  0  0
 11 12  2  0  0  0  0
 13  2  1  0  0  0  0
 13  1  1  0  0  0  0
 15 14  1  1  0  0  0
 16 18  1  0  0  0  0
 17 16  1  0  0  0  0
 19 21  1  0  0  0  0
 20 23  1  0  0  0  0
 21 16  2  0  0  0  0
 22 17  2  0  0  0  0
 23 19  2  0  0  0  0
 23 22  1  0  0  0  0
 24 13  1  0  0  0  0
 25 26  2  0  0  0  0
 26 24  1  0  0  0  0
 27 29  1  0  0  0  0
 28 29  2  0  0  0  0
 29 30  2  0  0  0  0
M  END
>  <MODEL>
3

>  <REMARK>
 VINA RESULT:      -2.0      2.497      4.826
  Name = 
  5 active torsions:
  status: ('A' for Active; 'I' for Inactive)
    1  A    between atoms: C_1  and  C_22
    2  A    between atoms: C_4  and  C_25
    3  A    between atoms: C_10  and  N_23
    4  A    between atoms: C_10  and  C_26
    5  A    between atoms: N_11  and  C_25
                            x       y       z     vdW  Elec       q    Type
                         _______ _______ _______ _____ _____    ______ ____

>  <TORSDO>
F 5

$$$$
=
 OpenBabel11052421473D

 30 33  0  0  1  0  0  0  0  0999 V2000
  161.8100  210.1000  152.3340 C   0  0  2  0  0  3  0  0  0  0  0  0
  159.7270  209.7740  153.6730 C   0  0  2  0  0  3  0  0  0  0  0  0
  162.8950  209.6680  153.3350 C   0  0  0  0  0  2  0  0  0  0  0  0
  161.4760  210.5090  156.7250 N   0  0  0  0  0  0  0  0  0  0  0  0
  159.7690  208.1750  155.8120 C   0  0  1  0  0  3  0  0  0  0  0  0
  161.5980  209.9740  155.4790 C   0  0  0  0  0  0  0  0  0  0  0  0
  163.7430  211.0620  155.2410 C   0  0  0  0  0  3  0  0  0  0  0  0
  162.7360  210.2570  154.7040 C   0  0  0  0  0  0  0  0  0  0  0  0
  160.4750  209.1670  154.8820 C   0  0  2  0  0  0  0  0  0  0  0  0
  158.4630  207.9020  155.4020 O   0  0  0  0  0  1  0  0  0  0  0  0
  162.4470  211.2970  157.2610 C   0  0  0  0  0  3  0  0  0  0  0  0
  163.6000  211.5870  156.5270 C   0  0  0  0  0  3  0  0  0  0  0  0
  160.5970  210.7160  152.9230 N   0  0  0  0  0  0  0  0  0  0  0  0
  161.9160  207.2670  155.3700 O   0  0  0  0  0  1  0  0  0  0  0  0
  160.7270  207.6620  154.7530 C   0  0  1  0  0  3  0  0  0  0  0  0
  161.7630  209.3740  149.9070 C   0  0  0  0  0  0  0  0  0  0  0  0
  161.5240  208.4080  148.9240 C   0  0  0  0  0  3  0  0  0  0  0  0
  162.3260  210.9610  149.4030 Cl  0  0  0  0  0  0  0  0  0  0  0  0
  161.1130  207.7780  151.6120 C   0  0  0  0  0  3  0  0  0  0  0  0
  160.4490  205.5810  150.9760 F   0  0  0  0  0  0  0  0  0  0  0  0
  161.5540  209.0630  151.2650 C   0  0  0  0  0  0  0  0  0  0  0  0
  161.0820  207.1320  149.2820 C   0  0  0  0  0  3  0  0  0  0  0  0
  160.8770  206.8170  150.6280 C   0  0  0  0  0  0  0  0  0  0  0  0
  159.8540  211.3700  151.8440 C   0  0  0  0  0  2  0  0  0  0  0  0
  160.0350  213.4870  150.8240 O   0  0  0  0  0  0  0  0  0  0  0  0
  160.1170  212.8390  151.8560 C   0  0  0  0  0  3  0  0  0  0  0  0
  158.4880  210.5060  154.2070 C   0  0  0  0  0  2  0  0  0  0  0  0
  159.5320  212.5770  155.0020 O   0  0  0  0  0  0  0  0  0  0  0  0
  158.8530  211.4140  155.2830 N   0  0  0  0  0  0  0  0  0  0  0  0
  158.3830  211.2340  156.4240 O   0  0  0  0  0  0  0  0  0  0  0  0
  1 21  1  1  0  0  0
  1 13  1  0  0  0  0
  1  3  1  0  0  0  0
  2 27  1  1  0  0  0
  2  9  1  0  0  0  0
  3  8  1  0  0  0  0
  4 11  1  0  0  0  0
  5 10  1  6  0  0  0
  6  4  2  0  0  0  0
  7 12  1  0  0  0  0
  8  7  2  0  0  0  0
  8  6  1  0  0  0  0
  9  6  1  1  0  0  0
  9  5  1  0  0  0  0
 12 11  2  0  0  0  0
 13  2  1  0  0  0  0
 15  9  1  0  0  0  0
 15 14  1  1  0  0  0
 15  5  1  0  0  0  0
 16 21  1  0  0  0  0
 17 22  1  0  0  0  0
 17 16  2  0  0  0  0
 18 16  1  0  0  0  0
 21 19  2  0  0  0  0
 22 23  2  0  0  0  0
 23 20  1  0  0  0  0
 23 19  1  0  0  0  0
 24 26  1  0  0  0  0
 24 13  1  0  0  0  0
 25 26  2  0  0  0  0
 27 29  1  0  0  0  0
 28 29  2  0  0  0  0
 29 30  2  0  0  0  0
M  END
>  <MODEL>
4

>  <REMARK>
 VINA RESULT:      -1.7      2.759      5.318
  Name = 
  5 active torsions:
  status: ('A' for Active; 'I' for Inactive)
    1  A    between atoms: C_1  and  C_22
    2  A    between atoms: C_4  and  C_25
    3  A    between atoms: C_10  and  N_23
    4  A    between atoms: C_10  and  C_26
    5  A    between atoms: N_11  and  C_25
                            x       y       z     vdW  Elec       q    Type
                         _______ _______ _______ _____ _____    ______ ____

>  <TORSDO>
F 5

$$$$
=
 OpenBabel11052421473D

 30 33  0  0  1  0  0  0  0  0999 V2000
  158.6590  210.5120  155.0660 C   0  0  2  0  0  3  0  0  0  0  0  0
  160.7600  210.9320  153.7830 C   0  0  2  0  0  3  0  0  0  0  0  0
  159.1110  209.4280  156.0600 C   0  0  0  0  0  2  0  0  0  0  0  0
  161.8250  207.5320  154.2570 N   0  0  0  0  0  0  0  0  0  0  0  0
  163.1110  210.2170  154.8310 C   0  0  1  0  0  3  0  0  0  0  0  0
  161.1240  208.5610  154.8080 C   0  0  0  0  0  0  0  0  0  0  0  0
  159.4200  207.0000  155.5120 C   0  0  0  0  0  3  0  0  0  0  0  0
  159.8920  208.3110  155.4360 C   0  0  0  0  0  0  0  0  0  0  0  0
  161.6080  209.9800  154.6580 C   0  0  2  0  0  0  0  0  0  0  0  0
  163.5470  211.3590  154.1570 O   0  0  0  0  0  1  0  0  0  0  0  0
  161.3760  206.2490  154.3200 C   0  0  0  0  0  3  0  0  0  0  0  0
  160.1640  205.9600  154.9510 C   0  0  0  0  0  3  0  0  0  0  0  0
  159.3380  210.5040  153.7480 N   0  0  0  0  0  0  0  0  0  0  0  0
  162.2570  209.7400  156.9920 O   0  0  0  0  0  1  0  0  0  0  0  0
  162.1520  210.6390  155.9290 C   0  0  1  0  0  3  0  0  0  0  0  0
  157.2440  212.4690  155.8330 C   0  0  0  0  0  0  0  0  0  0  0  0
  157.1180  213.7270  156.4300 C   0  0  0  0  0  3  0  0  0  0  0  0
  155.7900  211.6670  155.2540 Cl  0  0  0  0  0  0  0  0  0  0  0  0
  159.6380  212.5510  156.1980 C   0  0  0  0  0  3  0  0  0  0  0  0
  160.6030  214.4530  157.2580 F   0  0  0  0  0  0  0  0  0  0  0  0
  158.5130  211.8710  155.7090 C   0  0  0  0  0  0  0  0  0  0  0  0
  158.2460  214.3960  156.9090 C   0  0  0  0  0  3  0  0  0  0  0  0
  159.5080  213.8070  156.7930 C   0  0  0  0  0  0  0  0  0  0  0  0
  158.5600  211.3420  152.8340 C   0  0  0  0  0  2  0  0  0  0  0  0
  158.9030  213.4030  151.7450 O   0  0  0  0  0  0  0  0  0  0  0  0
  159.2220  212.6700  152.6670 C   0  0  0  0  0  3  0  0  0  0  0  0
  161.3530  210.9200  152.3680 C   0  0  0  0  0  2  0  0  0  0  0  0
  160.4660  208.7740  151.5820 O   0  0  0  0  0  0  0  0  0  0  0  0
  161.5500  209.5550  151.9060 N   0  0  0  0  0  0  0  0  0  0  0  0
  162.6990  209.1640  151.6200 O   0  0  0  0  0  0  0  0  0  0  0  0
  1 21  1  1  0  0  0
  1  3  1  0  0  0  0
  2 27  1  6  0  0  0
  2  9  1  0  0  0  0
  4 11  2  0  0  0  0
  4  6  1  0  0  0  0
  5 10  1  6  0  0  0
  5 15  1  0  0  0  0
  6  8  2  0  0  0  0
  8  7  1  0  0  0  0
  8  3  1  0  0  0  0
  9  6  1  1  0  0  0
  9  5  1  0  0  0  0
  9 15  1  0  0  0  0
 11 12  1  0  0  0  0
 12  7  2  0  0  0  0
 13  2  1  0  0  0  0
 13  1  1  0  0  0  0
 15 14  1  1  0  0  0
 16 17  1  0  0  0  0
 17 22  2  0  0  0  0
 18 16  1  0  0  0  0
 19 23  2  0  0  0  0
 21 16  2  0  0  0  0
 21 19  1  0  0  0  0
 23 22  1  0  0  0  0
 23 20  1  0  0  0  0
 24 13  1  0  0  0  0
 25 26  2  0  0  0  0
 26 24  1  0  0  0  0
 28 29  2  0  0  0  0
 29 27  1  0  0  0  0
 30 29  2  0  0  0  0
M  END
>  <MODEL>
5

>  <REMARK>
 VINA RESULT:      -0.2      2.818      5.577
  Name = 
  5 active torsions:
  status: ('A' for Active; 'I' for Inactive)
    1  A    between atoms: C_1  and  C_22
    2  A    between atoms: C_4  and  C_25
    3  A    between atoms: C_10  and  N_23
    4  A    between atoms: C_10  and  C_26
    5  A    between atoms: N_11  and  C_25
                            x       y       z     vdW  Elec       q    Type
                         _______ _______ _______ _____ _____    ______ ____

>  <TORSDO>
F 5

$$$$
=
 OpenBabel11052421473D

 30 33  0  0  1  0  0  0  0  0999 V2000
  161.1200  209.9940  154.7940 C   0  0  2  0  0  3  0  0  0  0  0  0
  160.4230  211.3540  152.8180 C   0  0  2  0  0  3  0  0  0  0  0  0
  159.9980  210.3070  155.8000 C   0  0  0  0  0  2  0  0  0  0  0  0
  158.8830  213.8060  154.9470 N   0  0  0  0  0  0  0  0  0  0  0  0
  157.8860  212.1630  152.6010 C   0  0  1  0  0  3  0  0  0  0  0  0
  159.1840  212.4850  154.8160 C   0  0  0  0  0  0  0  0  0  0  0  0
  159.8120  212.4150  157.1480 C   0  0  0  0  0  3  0  0  0  0  0  0
  159.6730  211.7650  155.9200 C   0  0  0  0  0  0  0  0  0  0  0  0
  159.0980  211.8130  153.4700 C   0  0  2  0  0  0  0  0  0  0  0  0
  158.1400  211.9790  151.2410 O   0  0  0  0  0  1  0  0  0  0  0  0
  159.0160  214.4530  156.1360 C   0  0  0  0  0  3  0  0  0  0  0  0
  159.4830  213.7670  157.2600 C   0  0  0  0  0  3  0  0  0  0  0  0
  161.4600  211.0820  153.8460 N   0  0  0  0  0  0  0  0  0  0  0  0
  157.0700  210.8180  154.3770 O   0  0  0  0  0  1  0  0  0  0  0  0
  157.9510  210.8140  153.2930 C   0  0  1  0  0  3  0  0  0  0  0  0
  160.8820  207.4800  154.9990 C   0  0  0  0  0  0  0  0  0  0  0  0
  160.7580  206.2120  154.4210 C   0  0  0  0  0  3  0  0  0  0  0  0
  160.9010  207.6030  156.7520 Cl  0  0  0  0  0  0  0  0  0  0  0  0
  160.9550  208.4650  152.7850 C   0  0  0  0  0  3  0  0  0  0  0  0
  160.8060  207.0610  150.8670 F   0  0  0  0  0  0  0  0  0  0  0  0
  160.9860  208.6200  154.1780 C   0  0  0  0  0  0  0  0  0  0  0  0
  160.7330  206.0700  153.0320 C   0  0  0  0  0  3  0  0  0  0  0  0
  160.8310  207.1970  152.2130 C   0  0  0  0  0  0  0  0  0  0  0  0
  162.7430  210.7520  153.2230 C   0  0  0  0  0  2  0  0  0  0  0  0
  163.5420  210.8450  155.4380 O   0  0  0  0  0  0  0  0  0  0  0  0
  163.8040  210.6270  154.2660 C   0  0  0  0  0  3  0  0  0  0  0  0
  160.8920  212.4690  151.8740 C   0  0  0  0  0  2  0  0  0  0  0  0
  160.9370  212.7950  149.4440 O   0  0  0  0  0  0  0  0  0  0  0  0
  161.0750  211.9560  150.5260 N   0  0  0  0  0  0  0  0  0  0  0  0
  161.5450  210.8130  150.3620 O   0  0  0  0  0  0  0  0  0  0  0  0
  1 21  1  6  0  0  0
  1  3  1  0  0  0  0
  2 27  1  6  0  0  0
  2  9  1  0  0  0  0
  2 13  1  0  0  0  0
  3  8  1  0  0  0  0
  4 11  1  0  0  0  0
  5 10  1  6  0  0  0
  5 15  1  0  0  0  0
  5  9  1  0  0  0  0
  6  4  2  0  0  0  0
  6  8  1  0  0  0  0
  7 12  1  0  0  0  0
  8  7  2  0  0  0  0
  9  6  1  1  0  0  0
 11 12  2  0  0  0  0
 13  1  1  0  0  0  0
 15  9  1  0  0  0  0
 15 14  1  1  0  0  0
 16 18  1  0  0  0  0
 17 16  1  0  0  0  0
 19 21  1  0  0  0  0
 20 23  1  0  0  0  0
 21 16  2  0  0  0  0
 22 17  2  0  0  0  0
 23 19  2  0  0  0  0
 23 22  1  0  0  0  0
 24 13  1  0  0  0  0
 24 26  1  0  0  0  0
 26 25  2  0  0  0  0
 28 29  2  0  0  0  0
 29 27  1  0  0  0  0
 30 29  2  0  0  0  0
M  END
>  <MODEL>
6

>  <REMARK>
 VINA RESULT:      -0.2      2.913      4.566
  Name = 
  5 active torsions:
  status: ('A' for Active; 'I' for Inactive)
    1  A    between atoms: C_1  and  C_22
    2  A    between atoms: C_4  and  C_25
    3  A    between atoms: C_10  and  N_23
    4  A    between atoms: C_10  and  C_26
    5  A    between atoms: N_11  and  C_25
                            x       y       z     vdW  Elec       q    Type
                         _______ _______ _______ _____ _____    ______ ____

>  <TORSDO>
F 5

$$$$
=
 OpenBabel11052421473D

 30 33  0  0  1  0  0  0  0  0999 V2000
  159.6500  209.5810  154.3000 C   0  0  2  0  0  3  0  0  0  0  0  0
  160.2640  211.9990  154.3910 C   0  0  2  0  0  3  0  0  0  0  0  0
  158.1750  209.6490  153.8650 C   0  0  0  0  0  2  0  0  0  0  0  0
  156.9000  212.9060  155.2730 N   0  0  0  0  0  0  0  0  0  0  0  0
  158.7840  213.7880  153.0680 C   0  0  1  0  0  3  0  0  0  0  0  0
  157.6630  212.0150  154.5810 C   0  0  0  0  0  0  0  0  0  0  0  0
  156.2480  210.2200  155.3660 C   0  0  0  0  0  3  0  0  0  0  0  0
  157.3560  210.6440  154.6300 C   0  0  0  0  0  0  0  0  0  0  0  0
  158.8960  212.4750  153.8480 C   0  0  2  0  0  0  0  0  0  0  0  0
  160.0210  214.4140  152.9060 O   0  0  0  0  0  1  0  0  0  0  0  0
  155.8200  212.5070  155.9980 C   0  0  0  0  0  3  0  0  0  0  0  0
  155.4730  211.1550  156.0560 C   0  0  0  0  0  3  0  0  0  0  0  0
  160.1330  210.7150  155.1240 N   0  0  0  0  0  0  0  0  0  0  0  0
  157.5190  212.1830  151.8620 O   0  0  0  0  0  1  0  0  0  0  0  0
  158.8080  212.4670  152.3200 C   0  0  1  0  0  3  0  0  0  0  0  0
  161.0120  207.8230  153.0870 C   0  0  0  0  0  0  0  0  0  0  0  0
  161.8650  207.4390  152.0470 C   0  0  0  0  0  3  0  0  0  0  0  0
  160.5150  206.6060  154.2550 Cl  0  0  0  0  0  0  0  0  0  0  0  0
  160.9910  210.0840  152.2150 C   0  0  0  0  0  3  0  0  0  0  0  0
  162.2410  210.6020  150.2550 F   0  0  0  0  0  0  0  0  0  0  0  0
  160.5710  209.1570  153.1800 C   0  0  0  0  0  0  0  0  0  0  0  0
  162.2790  208.3720  151.0940 C   0  0  0  0  0  3  0  0  0  0  0  0
  161.8410  209.6960  151.1790 C   0  0  0  0  0  0  0  0  0  0  0  0
  161.4080  210.3220  155.7270 C   0  0  0  0  0  2  0  0  0  0  0  0
  161.9590  208.2210  156.6400 O   0  0  0  0  0  0  0  0  0  0  0  0
  161.2030  209.1790  156.6640 C   0  0  0  0  0  3  0  0  0  0  0  0
  160.8020  213.0920  155.3250 C   0  0  0  0  0  2  0  0  0  0  0  0
  159.5270  212.2190  157.2270 O   0  0  0  0  0  0  0  0  0  0  0  0
  159.9070  213.2900  156.4530 N   0  0  0  0  0  0  0  0  0  0  0  0
  159.6420  214.4480  156.8300 O   0  0  0  0  0  0  0  0  0  0  0  0
  1 21  1  6  0  0  0
  1 13  1  0  0  0  0
  2 13  1  0  0  0  0
  2 27  1  1  0  0  0
  3  1  1  0  0  0  0
  3  8  1  0  0  0  0
  4 11  1  0  0  0  0
  5 10  1  6  0  0  0
  5  9  1  0  0  0  0
  6  8  1  0  0  0  0
  6  4  2  0  0  0  0
  7 12  1  0  0  0  0
  8  7  2  0  0  0  0
  9  2  1  0  0  0  0
  9  6  1  1  0  0  0
 11 12  2  0  0  0  0
 13 24  1  0  0  0  0
 15 14  1  1  0  0  0
 15  5  1  0  0  0  0
 15  9  1  0  0  0  0
 16 21  1  0  0  0  0
 16 18  1  0  0  0  0
 17 16  2  0  0  0  0
 19 21  2  0  0  0  0
 20 23  1  0  0  0  0
 22 23  2  0  0  0  0
 22 17  1  0  0  0  0
 23 19  1  0  0  0  0
 24 26  1  0  0  0  0
 25 26  2  0  0  0  0
 27 29  1  0  0  0  0
 29 30  2  0  0  0  0
 29 28  2  0  0  0  0
M  END
>  <MODEL>
7

>  <REMARK>
 VINA RESULT:       0.0      1.709      2.402
  Name = 
  5 active torsions:
  status: ('A' for Active; 'I' for Inactive)
    1  A    between atoms: C_1  and  C_22
    2  A    between atoms: C_4  and  C_25
    3  A    between atoms: C_10  and  N_23
    4  A    between atoms: C_10  and  C_26
    5  A    between atoms: N_11  and  C_25
                            x       y       z     vdW  Elec       q    Type
                         _______ _______ _______ _____ _____    ______ ____

>  <TORSDO>
F 5

$$$$
=
 OpenBabel11052421473D

 30 33  0  0  1  0  0  0  0  0999 V2000
  158.9990  210.7890  153.2430 C   0  0  2  0  0  3  0  0  0  0  0  0
  160.1180  211.9060  155.1760 C   0  0  2  0  0  3  0  0  0  0  0  0
  157.5740  211.3610  153.3330 C   0  0  0  0  0  2  0  0  0  0  0  0
  157.0260  212.0180  157.0050 N   0  0  0  0  0  0  0  0  0  0  0  0
  159.0550  214.1270  156.2130 C   0  0  1  0  0  3  0  0  0  0  0  0
  157.5800  212.0500  155.7620 C   0  0  0  0  0  0  0  0  0  0  0  0
  155.8140  210.6110  154.9570 C   0  0  0  0  0  3  0  0  0  0  0  0
  156.9870  211.3280  154.7120 C   0  0  0  0  0  0  0  0  0  0  0  0
  158.8830  212.7680  155.5260 C   0  0  2  0  0  0  0  0  0  0  0  0
  160.3970  214.4490  156.4190 O   0  0  0  0  0  1  0  0  0  0  0  0
  155.8860  211.3210  157.2600 C   0  0  0  0  0  3  0  0  0  0  0  0
  155.2580  210.6050  156.2370 C   0  0  0  0  0  3  0  0  0  0  0  0
  159.7140  210.6300  154.5310 N   0  0  0  0  0  0  0  0  0  0  0  0
  157.4750  214.4520  154.4730 O   0  0  0  0  0  1  0  0  0  0  0  0
  158.7950  214.0660  154.7190 C   0  0  1  0  0  3  0  0  0  0  0  0
  159.3030  212.5100  151.4080 C   0  0  0  0  0  0  0  0  0  0  0  0
  160.0580  213.0780  150.3780 C   0  0  0  0  0  3  0  0  0  0  0  0
  157.7300  213.2040  151.7750 Cl  0  0  0  0  0  0  0  0  0  0  0  0
  161.0740  210.9020  151.7990 C   0  0  0  0  0  3  0  0  0  0  0  0
  163.0430  210.9710  150.4620 F   0  0  0  0  0  0  0  0  0  0  0  0
  159.8080  211.4090  152.1270 C   0  0  0  0  0  0  0  0  0  0  0  0
  161.3160  212.5620  150.0580 C   0  0  0  0  0  3  0  0  0  0  0  0
  161.8240  211.4730  150.7700 C   0  0  0  0  0  0  0  0  0  0  0  0
  160.8760  209.7690  154.2990 C   0  0  0  0  0  2  0  0  0  0  0  0
  161.1120  207.5720  153.4820 O   0  0  0  0  0  0  0  0  0  0  0  0
  160.4410  208.3510  154.1400 C   0  0  0  0  0  3  0  0  0  0  0  0
  160.8780  211.6250  156.4800 C   0  0  0  0  0  2  0  0  0  0  0  0
  159.2730  209.8810  157.1040 O   0  0  0  0  0  0  0  0  0  0  0  0
  160.5790  210.2900  156.9710 N   0  0  0  0  0  0  0  0  0  0  0  0
  161.5000  209.4570  157.0840 O   0  0  0  0  0  0  0  0  0  0  0  0
  1 21  1  6  0  0  0
  1  3  1  0  0  0  0
  1 13  1  0  0  0  0
  2  9  1  0  0  0  0
  2 27  1  1  0  0  0
  3  8  1  0  0  0  0
  4 11  1  0  0  0  0
  5 10  1  6  0  0  0
  6  4  2  0  0  0  0
  7 12  1  0  0  0  0
  8  7  2  0  0  0  0
  8  6  1  0  0  0  0
  9  6  1  1  0  0  0
  9  5  1  0  0  0  0
 12 11  2  0  0  0  0
 13  2  1  0  0  0  0
 15 14  1  1  0  0  0
 15  9  1  0  0  0  0
 15  5  1  0  0  0  0
 16 18  1  0  0  0  0
 16 21  1  0  0  0  0
 17 16  2  0  0  0  0
 19 21  2  0  0  0  0
 20 23  1  0  0  0  0
 22 17  1  0  0  0  0
 22 23  2  0  0  0  0
 23 19  1  0  0  0  0
 24 13  1  0  0  0  0
 25 26  2  0  0  0  0
 26 24  1  0  0  0  0
 27 29  1  0  0  0  0
 29 30  2  0  0  0  0
 29 28  2  0  0  0  0
M  END
>  <MODEL>
8

>  <REMARK>
 VINA RESULT:       0.1      1.737      2.082
  Name = 
  5 active torsions:
  status: ('A' for Active; 'I' for Inactive)
    1  A    between atoms: C_1  and  C_22
    2  A    between atoms: C_4  and  C_25
    3  A    between atoms: C_10  and  N_23
    4  A    between atoms: C_10  and  C_26
    5  A    between atoms: N_11  and  C_25
                            x       y       z     vdW  Elec       q    Type
                         _______ _______ _______ _____ _____    ______ ____

>  <TORSDO>
F 5

$$$$
=
 OpenBabel11052421473D

 30 33  0  0  1  0  0  0  0  0999 V2000
  157.0910  213.6730  154.1600 C   0  0  2  0  0  3  0  0  0  0  0  0
  157.8110  211.2980  153.8770 C   0  0  2  0  0  3  0  0  0  0  0  0
  158.4440  214.3980  154.2700 C   0  0  0  0  0  2  0  0  0  0  0  0
  160.7700  211.8760  155.8320 N   0  0  0  0  0  0  0  0  0  0  0  0
  160.2950  210.7610  153.0530 C   0  0  1  0  0  3  0  0  0  0  0  0
  159.8820  212.4450  154.9720 C   0  0  0  0  0  0  0  0  0  0  0  0
  159.8940  214.4530  156.3170 C   0  0  0  0  0  3  0  0  0  0  0  0
  159.4130  213.7490  155.2120 C   0  0  0  0  0  0  0  0  0  0  0  0
  159.3160  211.6510  153.8240 C   0  0  2  0  0  0  0  0  0  0  0  0
  159.6560  209.6900  152.4260 O   0  0  0  0  0  1  0  0  0  0  0  0
  161.2460  212.5490  156.9150 C   0  0  0  0  0  3  0  0  0  0  0  0
  160.8160  213.8530  157.1760 C   0  0  0  0  0  3  0  0  0  0  0  0
  157.0570  212.2880  154.6880 N   0  0  0  0  0  0  0  0  0  0  0  0
  160.8270  212.9990  152.4740 O   0  0  0  0  0  1  0  0  0  0  0  0
  159.8010  212.0530  152.4290 C   0  0  1  0  0  3  0  0  0  0  0  0
  155.0690  214.2220  152.7360 C   0  0  0  0  0  0  0  0  0  0  0  0
  154.4650  214.4020  151.4870 C   0  0  0  0  0  3  0  0  0  0  0  0
  154.0930  214.4520  154.1790 Cl  0  0  0  0  0  0  0  0  0  0  0  0
  157.1650  213.7080  151.6320 C   0  0  0  0  0  3  0  0  0  0  0  0
  157.2780  213.7290  149.2530 F   0  0  0  0  0  0  0  0  0  0  0  0
  156.4300  213.8680  152.8160 C   0  0  0  0  0  0  0  0  0  0  0  0
  155.2070  214.2360  150.3150 C   0  0  0  0  0  3  0  0  0  0  0  0
  156.5580  213.8890  150.3880 C   0  0  0  0  0  0  0  0  0  0  0  0
  155.6530  211.8920  154.8250 C   0  0  0  0  0  2  0  0  0  0  0  0
  154.9220  210.4560  156.5440 O   0  0  0  0  0  0  0  0  0  0  0  0
  155.3510  211.5600  156.2480 C   0  0  0  0  0  3  0  0  0  0  0  0
  157.6800  209.8980  154.4910 C   0  0  0  0  0  2  0  0  0  0  0  0
  158.0780  210.5340  156.8250 O   0  0  0  0  0  0  0  0  0  0  0  0
  158.4500  209.8020  155.7210 N   0  0  0  0  0  0  0  0  0  0  0  0
  159.3210  208.9180  155.8320 O   0  0  0  0  0  0  0  0  0  0  0  0
  1 21  1  6  0  0  0
  1  3  1  0  0  0  0
  1 13  1  0  0  0  0
  2 27  1  1  0  0  0
  2 13  1  0  0  0  0
  3  8  1  0  0  0  0
  4 11  1  0  0  0  0
  5 10  1  6  0  0  0
  5  9  1  0  0  0  0
  6  8  1  0  0  0  0
  6  4  2  0  0  0  0
  7 12  1  0  0  0  0
  8  7  2  0  0  0  0
  9  2  1  0  0  0  0
  9  6  1  1  0  0  0
 11 12  2  0  0  0  0
 13 24  1  0  0  0  0
 15 14  1  1  0  0  0
 15  5  1  0  0  0  0
 15  9  1  0  0  0  0
 16 21  1  0  0  0  0
 16 18  1  0  0  0  0
 17 16  2  0  0  0  0
 19 21  2  0  0  0  0
 20 23  1  0  0  0  0
 22 23  2  0  0  0  0
 22 17  1  0  0  0  0
 23 19  1  0  0  0  0
 24 26  1  0  0  0  0
 26 25  2  0  0  0  0
 27 29  1  0  0  0  0
 29 30  2  0  0  0  0
 29 28  2  0  0  0  0
M  END
>  <MODEL>
9

>  <REMARK>
 VINA RESULT:       0.1      3.404      5.229
  Name = 
  5 active torsions:
  status: ('A' for Active; 'I' for Inactive)
    1  A    between atoms: C_1  and  C_22
    2  A    between atoms: C_4  and  C_25
    3  A    between atoms: C_10  and  N_23
    4  A    between atoms: C_10  and  C_26
    5  A    between atoms: N_11  and  C_25
                            x       y       z     vdW  Elec       q    Type
                         _______ _______ _______ _____ _____    ______ ____

>  <TORSDO>
F 5

$$$$
