=
 OpenBabel11062407443D

 34 39  0  0  1  0  0  0  0  0999 V2000
  162.0030  208.8900  148.9210 C   0  0  0  0  0  0  0  0  0  0  0  0
  161.3020  209.7700  151.0630 C   0  0  0  0  0  0  0  0  0  0  0  0
  161.4010  207.2760  150.6680 C   0  0  0  0  0  0  0  0  0  0  0  0
  161.0580  205.5420  152.3190 C   0  0  0  0  0  0  0  0  0  0  0  0
  162.1050  211.2270  149.3200 C   0  0  0  0  0  3  0  0  0  0  0  0
  161.5890  211.0520  150.5990 C   0  0  0  0  0  3  0  0  0  0  0  0
  161.5500  207.5970  153.1810 N   0  0  0  0  0  2  0  0  0  0  0  0
  161.5790  208.6360  150.2550 C   0  0  0  0  0  0  0  0  0  0  0  0
  161.0720  205.3120  153.7830 C   0  0  0  0  0  2  0  0  0  0  0  0
  162.2790  210.1550  148.5090 N   0  0  0  0  0  0  0  0  0  0  0  0
  161.4200  206.2400  149.6790 C   0  0  0  0  0  0  0  0  0  0  0  0
  162.1050  207.8540  148.0000 C   0  0  0  0  0  3  0  0  0  0  0  0
  160.6140  209.6880  152.2260 F   0  0  0  0  0  0  0  0  0  0  0  0
  160.9920  204.5820  151.3720 N   0  0  0  0  0  0  0  0  0  0  0  0
  161.1500  204.8870  150.0520 C   0  0  0  0  0  0  0  0  0  0  0  0
  161.4190  206.7080  154.3350 C   0  0  2  0  0  3  0  0  0  0  0  0
  161.2760  206.8520  152.0090 C   0  0  0  0  0  0  0  0  0  0  0  0
  161.7930  206.5540  148.3680 C   0  0  0  0  0  3  0  0  0  0  0  0
  161.2080  202.8880  146.8190 C   0  0  0  0  0  0  0  0  0  0  0  0
  160.8030  201.6420  147.2960 C   0  0  0  0  0  3  0  0  0  0  0  0
  161.0660  203.7690  149.0750 C   0  0  0  0  0  0  0  0  0  0  0  0
  160.5310  201.4750  148.6170 N   0  0  0  0  0  0  0  0  0  0  0  0
  161.3340  203.9530  147.7110 C   0  0  0  0  0  3  0  0  0  0  0  0
  160.6470  202.5000  149.5030 C   0  0  0  0  0  3  0  0  0  0  0  0
  161.4820  203.0680  145.4710 O   0  0  0  0  0  1  0  0  0  0  0  0
  160.3460  207.2180  155.2960 C   0  0  0  0  0  2  0  0  0  0  0  0
  160.9190  208.1330  156.3730 C   0  0  0  0  0  2  0  0  0  0  0  0
  162.8730  210.1210  157.2590 C   0  0  0  0  0  1  0  0  0  0  0  0
  160.7490  209.5710  155.9880 C   0  0  0  0  0  0  0  0  0  0  0  0
  161.7880  210.6230  156.3220 C   0  0  1  0  0  3  0  0  0  0  0  0
  159.8070  212.2860  156.2380 C   0  0  0  0  0  2  0  0  0  0  0  0
  159.4330  211.4090  155.0380 C   0  0  0  0  0  2  0  0  0  0  0  0
  159.6190  209.9620  155.3830 C   0  0  0  0  0  3  0  0  0  0  0  0
  161.1390  211.8870  156.9080 C   0  0  0  0  0  2  0  0  0  0  0  0
  1  8  1  0  0  0  0
  2 13  1  0  0  0  0
  3 17  1  0  0  0  0
  4  9  1  0  0  0  0
  5  6  2  0  0  0  0
  6  2  1  0  0  0  0
  7 16  1  0  0  0  0
  8  3  1  0  0  0  0
  8  2  2  0  0  0  0
  9 16  1  0  0  0  0
 10  1  2  0  0  0  0
 10  5  1  0  0  0  0
 11 15  1  0  0  0  0
 11  3  2  0  0  0  0
 12 18  2  0  0  0  0
 12  1  1  0  0  0  0
 14  4  1  0  0  0  0
 15 14  2  0  0  0  0
 16 26  1  1  0  0  0
 17  4  2  0  0  0  0
 17  7  1  0  0  0  0
 18 11  1  0  0  0  0
 19 20  2  0  0  0  0
 19 23  1  0  0  0  0
 20 22  1  0  0  0  0
 21 24  1  0  0  0  0
 21 15  1  0  0  0  0
 22 24  2  0  0  0  0
 23 21  2  0  0  0  0
 25 19  1  0  0  0  0
 26 27  1  0  0  0  0
 29 30  1  0  0  0  0
 29 27  1  0  0  0  0
 30 34  1  0  0  0  0
 30 28  1  1  0  0  0
 31 34  1  0  0  0  0
 32 33  1  0  0  0  0
 32 31  1  0  0  0  0
 33 29  2  0  0  0  0
M  END
>  <MODEL>
1

>  <REMARK>
 VINA RESULT:      -9.6      0.000      0.000
  Name = 
  4 active torsions:
  status: ('A' for Active; 'I' for Inactive)
    1  A    between atoms: C_3  and  C_13
    2  A    between atoms: C_3  and  C_17
    3  A    between atoms: C_12  and  C_28
    4  A    between atoms: C_17  and  C_29
                            x       y       z     vdW  Elec       q    Type
                         _______ _______ _______ _____ _____    ______ ____

>  <TORSDO>
F 4

$$$$
=
 OpenBabel11062407443D

 34 39  0  0  1  0  0  0  0  0999 V2000
  161.9770  209.1830  149.2520 C   0  0  0  0  0  0  0  0  0  0  0  0
  161.1760  210.4520  151.1490 C   0  0  0  0  0  0  0  0  0  0  0  0
  161.3280  207.9320  151.2590 C   0  0  0  0  0  0  0  0  0  0  0  0
  160.9440  206.5510  153.2080 C   0  0  0  0  0  0  0  0  0  0  0  0
  162.0270  211.5550  149.1830 C   0  0  0  0  0  3  0  0  0  0  0  0
  161.4620  211.6240  150.4510 C   0  0  0  0  0  3  0  0  0  0  0  0
  161.3700  208.7460  153.6630 N   0  0  0  0  0  2  0  0  0  0  0  0
  161.5030  209.1880  150.5930 C   0  0  0  0  0  0  0  0  0  0  0  0
  160.9020  206.6150  154.6880 C   0  0  0  0  0  2  0  0  0  0  0  0
  162.2500  210.3490  148.6080 N   0  0  0  0  0  0  0  0  0  0  0  0
  161.4030  206.7220  150.4970 C   0  0  0  0  0  0  0  0  0  0  0  0
  162.1310  207.9890  148.5580 C   0  0  0  0  0  3  0  0  0  0  0  0
  160.4420  210.5850  152.2790 F   0  0  0  0  0  0  0  0  0  0  0  0
  160.9310  205.4220  152.4680 N   0  0  0  0  0  0  0  0  0  0  0  0
  161.1380  205.4640  151.1200 C   0  0  0  0  0  0  0  0  0  0  0  0
  161.2050  208.1000  154.9650 C   0  0  2  0  0  3  0  0  0  0  0  0
  161.1540  207.7790  152.6530 C   0  0  0  0  0  0  0  0  0  0  0  0
  161.8250  206.7800  149.1640 C   0  0  0  0  0  3  0  0  0  0  0  0
  161.1180  202.8890  148.3230 C   0  0  0  0  0  0  0  0  0  0  0  0
  160.9670  201.7210  149.0690 C   0  0  0  0  0  3  0  0  0  0  0  0
  161.1110  204.1730  150.3820 C   0  0  0  0  0  0  0  0  0  0  0  0
  160.8820  201.7850  150.4230 N   0  0  0  0  0  0  0  0  0  0  0  0
  161.1840  204.1170  148.9830 C   0  0  0  0  0  3  0  0  0  0  0  0
  160.9450  202.9720  151.0860 C   0  0  0  0  0  3  0  0  0  0  0  0
  161.2000  202.8330  146.9390 O   0  0  0  0  0  1  0  0  0  0  0  0
  160.0860  208.7640  155.7660 C   0  0  0  0  0  2  0  0  0  0  0  0
  160.4240  210.2000  156.1540 C   0  0  0  0  0  2  0  0  0  0  0  0
  160.3150  212.9080  157.2540 C   0  0  0  0  0  1  0  0  0  0  0  0
  159.3240  211.1300  155.7410 C   0  0  0  0  0  0  0  0  0  0  0  0
  159.2820  212.5780  156.1910 C   0  0  1  0  0  3  0  0  0  0  0  0
  156.7240  212.3740  155.8590 C   0  0  0  0  0  2  0  0  0  0  0  0
  157.1870  211.5860  154.6280 C   0  0  0  0  0  2  0  0  0  0  0  0
  158.3080  210.6640  155.0030 C   0  0  0  0  0  3  0  0  0  0  0  0
  157.8820  212.9710  156.6860 C   0  0  0  0  0  2  0  0  0  0  0  0
  1  8  1  0  0  0  0
  2 13  1  0  0  0  0
  3 17  1  0  0  0  0
  4  9  1  0  0  0  0
  5  6  1  0  0  0  0
  6  2  2  0  0  0  0
  7 16  1  0  0  0  0
  8  2  1  0  0  0  0
  8  3  2  0  0  0  0
  9 16  1  0  0  0  0
 10  5  2  0  0  0  0
 10  1  1  0  0  0  0
 11 15  1  0  0  0  0
 11  3  1  0  0  0  0
 12 18  1  0  0  0  0
 12  1  2  0  0  0  0
 14  4  1  0  0  0  0
 15 14  2  0  0  0  0
 16 26  1  6  0  0  0
 17  4  2  0  0  0  0
 17  7  1  0  0  0  0
 18 11  2  0  0  0  0
 19 23  2  0  0  0  0
 19 20  1  0  0  0  0
 20 22  2  0  0  0  0
 21 24  2  0  0  0  0
 21 15  1  0  0  0  0
 22 24  1  0  0  0  0
 23 21  1  0  0  0  0
 25 19  1  0  0  0  0
 26 27  1  0  0  0  0
 29 27  1  0  0  0  0
 29 30  1  0  0  0  0
 30 34  1  0  0  0  0
 30 28  1  1  0  0  0
 31 34  1  0  0  0  0
 32 33  1  0  0  0  0
 32 31  1  0  0  0  0
 33 29  2  0  0  0  0
M  END
>  <MODEL>
2

>  <REMARK>
 VINA RESULT:      -8.9      1.221      1.724
  Name = 
  4 active torsions:
  status: ('A' for Active; 'I' for Inactive)
    1  A    between atoms: C_3  and  C_13
    2  A    between atoms: C_3  and  C_17
    3  A    between atoms: C_12  and  C_28
    4  A    between atoms: C_17  and  C_29
                            x       y       z     vdW  Elec       q    Type
                         _______ _______ _______ _____ _____    ______ ____

>  <TORSDO>
F 4

$$$$
=
 OpenBabel11062407443D

 34 39  0  0  1  0  0  0  0  0999 V2000
  161.0670  207.9760  154.2590 C   0  0  0  0  0  0  0  0  0  0  0  0
  162.0150  210.0070  153.3490 C   0  0  0  0  0  0  0  0  0  0  0  0
  161.5400  208.0270  151.8530 C   0  0  0  0  0  0  0  0  0  0  0  0
  161.7350  207.9660  149.4420 C   0  0  0  0  0  0  0  0  0  0  0  0
  161.3220  209.8790  155.6540 C   0  0  0  0  0  3  0  0  0  0  0  0
  161.8840  210.5970  154.6060 C   0  0  0  0  0  3  0  0  0  0  0  0
  161.5920  210.0610  150.3350 N   0  0  0  0  0  2  0  0  0  0  0  0
  161.5310  208.6920  153.1210 C   0  0  0  0  0  0  0  0  0  0  0  0
  161.7780  208.8540  148.2570 C   0  0  0  0  0  2  0  0  0  0  0  0
  160.9480  208.5900  155.4650 N   0  0  0  0  0  0  0  0  0  0  0  0
  161.3140  206.6140  151.8050 C   0  0  0  0  0  0  0  0  0  0  0  0
  160.7630  206.6220  154.1700 C   0  0  0  0  0  3  0  0  0  0  0  0
  162.7550  210.6810  152.4380 F   0  0  0  0  0  0  0  0  0  0  0  0
  161.6060  206.6220  149.4150 N   0  0  0  0  0  0  0  0  0  0  0  0
  161.4130  205.9130  150.5640 C   0  0  0  0  0  0  0  0  0  0  0  0
  161.6670  210.2550  148.8880 C   0  0  2  0  0  3  0  0  0  0  0  0
  161.6860  208.6750  150.6060 C   0  0  0  0  0  0  0  0  0  0  0  0
  160.9100  205.9470  152.9670 C   0  0  0  0  0  3  0  0  0  0  0  0
  160.7780  202.4340  149.1670 C   0  0  0  0  0  0  0  0  0  0  0  0
  160.9580  201.6720  150.3210 C   0  0  0  0  0  3  0  0  0  0  0  0
  161.2770  204.4370  150.4440 C   0  0  0  0  0  0  0  0  0  0  0  0
  161.2770  202.2790  151.4940 N   0  0  0  0  0  0  0  0  0  0  0  0
  160.9320  203.8190  149.2330 C   0  0  0  0  0  3  0  0  0  0  0  0
  161.4330  203.6280  151.5790 C   0  0  0  0  0  3  0  0  0  0  0  0
  160.4460  201.8230  147.9670 O   0  0  0  0  0  1  0  0  0  0  0  0
  162.8580  211.1370  148.5160 C   0  0  0  0  0  2  0  0  0  0  0  0
  162.5100  212.6230  148.5410 C   0  0  0  0  0  2  0  0  0  0  0  0
  159.6810  213.3310  148.3190 C   0  0  0  0  0  1  0  0  0  0  0  0
  161.9500  213.0540  147.2200 C   0  0  0  0  0  0  0  0  0  0  0  0
  160.5210  213.5400  147.0710 C   0  0  1  0  0  3  0  0  0  0  0  0
  160.7350  212.7260  144.6240 C   0  0  0  0  0  2  0  0  0  0  0  0
  162.1280  213.3450  144.7910 C   0  0  0  0  0  2  0  0  0  0  0  0
  162.7060  212.9530  146.1190 C   0  0  0  0  0  3  0  0  0  0  0  0
  159.8300  212.8880  145.8630 C   0  0  0  0  0  2  0  0  0  0  0  0
  1 10  2  0  0  0  0
  2  6  1  0  0  0  0
  3  8  1  0  0  0  0
  4 17  1  0  0  0  0
  6  5  2  0  0  0  0
  7 17  1  0  0  0  0
  8  2  2  0  0  0  0
  8  1  1  0  0  0  0
  9 16  1  0  0  0  0
  9  4  1  0  0  0  0
 10  5  1  0  0  0  0
 11  3  1  0  0  0  0
 11 18  1  0  0  0  0
 12  1  1  0  0  0  0
 13  2  1  0  0  0  0
 14  4  2  0  0  0  0
 14 15  1  0  0  0  0
 15 11  2  0  0  0  0
 16 26  1  1  0  0  0
 16  7  1  0  0  0  0
 17  3  2  0  0  0  0
 18 12  2  0  0  0  0
 19 23  2  0  0  0  0
 19 20  1  0  0  0  0
 20 22  2  0  0  0  0
 21 15  1  0  0  0  0
 21 24  2  0  0  0  0
 22 24  1  0  0  0  0
 23 21  1  0  0  0  0
 25 19  1  0  0  0  0
 26 27  1  0  0  0  0
 29 27  1  0  0  0  0
 30 29  1  0  0  0  0
 30 28  1  1  0  0  0
 31 32  1  0  0  0  0
 31 34  1  0  0  0  0
 32 33  1  0  0  0  0
 33 29  2  0  0  0  0
 34 30  1  0  0  0  0
M  END
>  <MODEL>
3

>  <REMARK>
 VINA RESULT:      -8.9      2.348      6.243
  Name = 
  4 active torsions:
  status: ('A' for Active; 'I' for Inactive)
    1  A    between atoms: C_3  and  C_13
    2  A    between atoms: C_3  and  C_17
    3  A    between atoms: C_12  and  C_28
    4  A    between atoms: C_17  and  C_29
                            x       y       z     vdW  Elec       q    Type
                         _______ _______ _______ _____ _____    ______ ____

>  <TORSDO>
F 4

$$$$
=
 OpenBabel11062407443D

 34 39  0  0  1  0  0  0  0  0999 V2000
  161.1340  207.4940  153.5770 C   0  0  0  0  0  0  0  0  0  0  0  0
  162.0620  209.6780  153.1060 C   0  0  0  0  0  0  0  0  0  0  0  0
  161.5610  208.0630  151.2290 C   0  0  0  0  0  0  0  0  0  0  0  0
  161.7100  208.5210  148.8590 C   0  0  0  0  0  0  0  0  0  0  0  0
  161.4130  209.0560  155.3420 C   0  0  0  0  0  3  0  0  0  0  0  0
  161.9550  209.9850  154.4620 C   0  0  0  0  0  3  0  0  0  0  0  0
  161.5820  210.3750  150.1820 N   0  0  0  0  0  2  0  0  0  0  0  0
  161.5760  208.4410  152.6100 C   0  0  0  0  0  0  0  0  0  0  0  0
  161.7290  209.6430  147.8900 C   0  0  0  0  0  2  0  0  0  0  0  0
  161.0380  207.8350  154.8890 N   0  0  0  0  0  0  0  0  0  0  0  0
  161.3360  206.6920  150.8840 C   0  0  0  0  0  0  0  0  0  0  0  0
  160.8310  206.1900  153.2050 C   0  0  0  0  0  3  0  0  0  0  0  0
  162.7830  210.5370  152.3480 F   0  0  0  0  0  0  0  0  0  0  0  0
  161.5830  207.2130  148.5460 N   0  0  0  0  0  0  0  0  0  0  0  0
  161.4120  206.2740  149.5200 C   0  0  0  0  0  0  0  0  0  0  0  0
  161.6280  210.8760  148.8090 C   0  0  2  0  0  3  0  0  0  0  0  0
  161.6830  208.9640  150.1480 C   0  0  0  0  0  0  0  0  0  0  0  0
  160.9550  205.7890  151.8830 C   0  0  0  0  0  3  0  0  0  0  0  0
  160.8300  202.5170  149.5480 C   0  0  0  0  0  0  0  0  0  0  0  0
  161.1290  202.2140  148.2200 C   0  0  0  0  0  3  0  0  0  0  0  0
  161.2760  204.8570  149.0880 C   0  0  0  0  0  0  0  0  0  0  0  0
  161.4970  203.2020  147.3630 N   0  0  0  0  0  0  0  0  0  0  0  0
  160.9110  203.8400  149.9820 C   0  0  0  0  0  3  0  0  0  0  0  0
  161.5810  204.4990  147.7660 C   0  0  0  0  0  3  0  0  0  0  0  0
  160.4590  201.5120  150.4300 O   0  0  0  0  0  1  0  0  0  0  0  0
  162.8110  211.8230  148.6140 C   0  0  0  0  0  2  0  0  0  0  0  0
  162.3660  213.2530  148.3220 C   0  0  0  0  0  2  0  0  0  0  0  0
  159.4950  213.7120  148.6400 C   0  0  0  0  0  1  0  0  0  0  0  0
  161.4780  213.2930  147.1160 C   0  0  0  0  0  0  0  0  0  0  0  0
  160.0050  213.6390  147.2110 C   0  0  1  0  0  3  0  0  0  0  0  0
  159.7630  212.2310  145.0540 C   0  0  0  0  0  2  0  0  0  0  0  0
  161.0740  212.9530  144.7210 C   0  0  0  0  0  2  0  0  0  0  0  0
  161.9760  212.9540  145.9190 C   0  0  0  0  0  3  0  0  0  0  0  0
  159.1450  212.6560  146.4020 C   0  0  0  0  0  2  0  0  0  0  0  0
  1 10  2  0  0  0  0
  2  6  1  0  0  0  0
  3  8  1  0  0  0  0
  4 17  1  0  0  0  0
  6  5  2  0  0  0  0
  8  2  2  0  0  0  0
  8  1  1  0  0  0  0
  9 16  1  0  0  0  0
  9  4  1  0  0  0  0
 10  5  1  0  0  0  0
 11  3  1  0  0  0  0
 11 18  1  0  0  0  0
 12  1  1  0  0  0  0
 13  2  1  0  0  0  0
 14  4  2  0  0  0  0
 14 15  1  0  0  0  0
 15 11  2  0  0  0  0
 16 26  1  1  0  0  0
 16  7  1  0  0  0  0
 17  7  1  0  0  0  0
 17  3  2  0  0  0  0
 18 12  2  0  0  0  0
 19 23  1  0  0  0  0
 19 25  1  0  0  0  0
 20 19  2  0  0  0  0
 21 15  1  0  0  0  0
 21 23  2  0  0  0  0
 22 24  2  0  0  0  0
 22 20  1  0  0  0  0
 24 21  1  0  0  0  0
 27 26  1  0  0  0  0
 29 30  1  0  0  0  0
 29 27  1  0  0  0  0
 30 28  1  1  0  0  0
 31 34  1  0  0  0  0
 32 31  1  0  0  0  0
 32 33  1  0  0  0  0
 33 29  2  0  0  0  0
 34 30  1  0  0  0  0
M  END
>  <MODEL>
4

>  <REMARK>
 VINA RESULT:      -8.4      2.459      6.239
  Name = 
  4 active torsions:
  status: ('A' for Active; 'I' for Inactive)
    1  A    between atoms: C_3  and  C_13
    2  A    between atoms: C_3  and  C_17
    3  A    between atoms: C_12  and  C_28
    4  A    between atoms: C_17  and  C_29
                            x       y       z     vdW  Elec       q    Type
                         _______ _______ _______ _____ _____    ______ ____

>  <TORSDO>
F 4

$$$$
=
 OpenBabel11062407443D

 34 39  0  0  1  0  0  0  0  0999 V2000
  160.1250  213.4830  150.2240 C   0  0  0  0  0  0  0  0  0  0  0  0
  161.5740  211.6500  149.5980 C   0  0  0  0  0  0  0  0  0  0  0  0
  160.3720  211.6370  151.8210 C   0  0  0  0  0  0  0  0  0  0  0  0
  160.3200  209.8210  153.4180 C   0  0  0  0  0  0  0  0  0  0  0  0
  161.0860  213.4350  148.0550 C   0  0  0  0  0  3  0  0  0  0  0  0
  161.7490  212.2500  148.3520 C   0  0  0  0  0  3  0  0  0  0  0  0
  160.9200  209.2130  151.3020 N   0  0  0  0  0  2  0  0  0  0  0  0
  160.6850  212.2160  150.5490 C   0  0  0  0  0  0  0  0  0  0  0  0
  160.5310  208.3580  153.5210 C   0  0  0  0  0  2  0  0  0  0  0  0
  160.3130  214.0310  148.9950 N   0  0  0  0  0  0  0  0  0  0  0  0
  159.7120  212.4370  152.8080 C   0  0  0  0  0  0  0  0  0  0  0  0
  159.4070  214.2040  151.1710 C   0  0  0  0  0  3  0  0  0  0  0  0
  162.4020  210.6220  149.8950 F   0  0  0  0  0  0  0  0  0  0  0  0
  159.7760  210.6070  154.3710 N   0  0  0  0  0  0  0  0  0  0  0  0
  159.4750  211.9130  154.1150 C   0  0  0  0  0  0  0  0  0  0  0  0
  160.9210  207.9760  152.0810 C   0  0  2  0  0  3  0  0  0  0  0  0
  160.6000  210.2870  152.1670 C   0  0  0  0  0  0  0  0  0  0  0  0
  159.2260  213.7000  152.4500 C   0  0  0  0  0  3  0  0  0  0  0  0
  156.9600  213.5590  156.4430 C   0  0  0  0  0  0  0  0  0  0  0  0
  157.8240  214.2870  157.2610 C   0  0  0  0  0  3  0  0  0  0  0  0
  158.8740  212.7070  155.2200 C   0  0  0  0  0  0  0  0  0  0  0  0
  159.1660  214.2280  157.0530 N   0  0  0  0  0  0  0  0  0  0  0  0
  157.4880  212.7740  155.4180 C   0  0  0  0  0  3  0  0  0  0  0  0
  159.7010  213.4680  156.0600 C   0  0  0  0  0  3  0  0  0  0  0  0
  155.5880  213.6180  156.6450 O   0  0  0  0  0  1  0  0  0  0  0  0
  162.2900  207.2990  152.0270 C   0  0  0  0  0  2  0  0  0  0  0  0
  162.1840  205.7770  152.0150 C   0  0  0  0  0  2  0  0  0  0  0  0
  160.8380  203.1800  152.0100 C   0  0  0  0  0  1  0  0  0  0  0  0
  161.4700  205.3080  150.7840 C   0  0  0  0  0  0  0  0  0  0  0  0
  160.6610  204.0260  150.7600 C   0  0  1  0  0  3  0  0  0  0  0  0
  161.1780  204.0090  148.2250 C   0  0  0  0  0  2  0  0  0  0  0  0
  160.9140  205.5080  148.4040 C   0  0  0  0  0  2  0  0  0  0  0  0
  161.5940  206.0030  149.6450 C   0  0  0  0  0  3  0  0  0  0  0  0
  160.9800  203.1850  149.5140 C   0  0  0  0  0  2  0  0  0  0  0  0
  1  8  2  0  0  0  0
  1 12  1  0  0  0  0
  2 13  1  0  0  0  0
  2  8  1  0  0  0  0
  3 17  2  0  0  0  0
  3 11  1  0  0  0  0
  4  9  1  0  0  0  0
  4 14  2  0  0  0  0
  5  6  1  0  0  0  0
  5 10  2  0  0  0  0
  6  2  2  0  0  0  0
  7 16  1  0  0  0  0
  7 17  1  0  0  0  0
  8  3  1  0  0  0  0
 10  1  1  0  0  0  0
 11 15  2  0  0  0  0
 12 18  2  0  0  0  0
 15 14  1  0  0  0  0
 15 21  1  0  0  0  0
 16 26  1  1  0  0  0
 16  9  1  0  0  0  0
 17  4  1  0  0  0  0
 18 11  1  0  0  0  0
 19 25  1  0  0  0  0
 19 20  1  0  0  0  0
 21 23  1  0  0  0  0
 21 24  2  0  0  0  0
 22 20  2  0  0  0  0
 23 19  2  0  0  0  0
 24 22  1  0  0  0  0
 27 26  1  0  0  0  0
 29 27  1  0  0  0  0
 30 29  1  0  0  0  0
 30 28  1  1  0  0  0
 31 32  1  0  0  0  0
 31 34  1  0  0  0  0
 32 33  1  0  0  0  0
 33 29  2  0  0  0  0
 34 30  1  0  0  0  0
M  END
>  <MODEL>
5

>  <REMARK>
 VINA RESULT:      -8.1      3.840      8.647
  Name = 
  4 active torsions:
  status: ('A' for Active; 'I' for Inactive)
    1  A    between atoms: C_3  and  C_13
    2  A    between atoms: C_3  and  C_17
    3  A    between atoms: C_12  and  C_28
    4  A    between atoms: C_17  and  C_29
                            x       y       z     vdW  Elec       q    Type
                         _______ _______ _______ _____ _____    ______ ____

>  <TORSDO>
F 4

$$$$
=
 OpenBabel11062407443D

 34 39  0  0  1  0  0  0  0  0999 V2000
  161.3350  205.7560  148.1580 C   0  0  0  0  0  0  0  0  0  0  0  0
  161.4930  204.8050  150.3770 C   0  0  0  0  0  0  0  0  0  0  0  0
  161.4240  207.3100  150.0530 C   0  0  0  0  0  0  0  0  0  0  0  0
  161.2830  208.9820  151.7960 C   0  0  0  0  0  0  0  0  0  0  0  0
  161.2050  203.4020  148.4380 C   0  0  0  0  0  3  0  0  0  0  0  0
  161.3720  203.5360  149.8110 C   0  0  0  0  0  3  0  0  0  0  0  0
  160.6490  206.8850  152.4330 N   0  0  0  0  0  2  0  0  0  0  0  0
  161.3970  205.9640  149.5640 C   0  0  0  0  0  0  0  0  0  0  0  0
  160.8890  209.1530  153.2140 C   0  0  0  0  0  2  0  0  0  0  0  0
  161.2110  204.5030  147.6470 N   0  0  0  0  0  0  0  0  0  0  0  0
  161.6260  208.3840  149.1290 C   0  0  0  0  0  0  0  0  0  0  0  0
  161.4410  206.8250  147.2770 C   0  0  0  0  0  3  0  0  0  0  0  0
  161.8590  204.8540  151.6790 F   0  0  0  0  0  0  0  0  0  0  0  0
  161.5600  209.9810  150.9300 N   0  0  0  0  0  0  0  0  0  0  0  0
  161.7530  209.7260  149.6040 C   0  0  0  0  0  0  0  0  0  0  0  0
  160.4550  207.7290  153.6110 C   0  0  2  0  0  3  0  0  0  0  0  0
  161.1910  207.6820  151.3960 C   0  0  0  0  0  0  0  0  0  0  0  0
  161.6090  208.1160  147.7550 C   0  0  0  0  0  3  0  0  0  0  0  0
  161.3910  212.5300  147.0630 C   0  0  0  0  0  0  0  0  0  0  0  0
  162.7050  212.9960  147.0250 C   0  0  0  0  0  3  0  0  0  0  0  0
  162.0490  210.8840  148.7190 C   0  0  0  0  0  0  0  0  0  0  0  0
  163.6550  212.4150  147.8030 N   0  0  0  0  0  0  0  0  0  0  0  0
  161.0660  211.4690  147.9070 C   0  0  0  0  0  3  0  0  0  0  0  0
  163.3590  211.3790  148.6340 C   0  0  0  0  0  3  0  0  0  0  0  0
  160.4160  213.1150  146.2660 O   0  0  0  0  0  1  0  0  0  0  0  0
  161.2630  207.2030  154.7970 C   0  0  0  0  0  2  0  0  0  0  0  0
  160.6530  207.6020  156.1370 C   0  0  0  0  0  2  0  0  0  0  0  0
  158.9560  209.9840  156.2000 C   0  0  0  0  0  1  0  0  0  0  0  0
  161.2170  208.9090  156.6040 C   0  0  0  0  0  0  0  0  0  0  0  0
  160.3560  210.1470  156.7650 C   0  0  1  0  0  3  0  0  0  0  0  0
  162.5530  211.4550  156.3630 C   0  0  0  0  0  2  0  0  0  0  0  0
  163.1020  210.3370  157.2560 C   0  0  0  0  0  2  0  0  0  0  0  0
  162.5330  209.0160  156.8310 C   0  0  0  0  0  3  0  0  0  0  0  0
  161.0270  211.3820  156.1420 C   0  0  0  0  0  2  0  0  0  0  0  0
  1  8  1  0  0  0  0
  2 13  1  0  0  0  0
  3 17  1  0  0  0  0
  4  9  1  0  0  0  0
  5  6  2  0  0  0  0
  6  2  1  0  0  0  0
  7 16  1  0  0  0  0
  8  3  1  0  0  0  0
  8  2  2  0  0  0  0
  9 16  1  0  0  0  0
 10  1  2  0  0  0  0
 10  5  1  0  0  0  0
 11 15  1  0  0  0  0
 11  3  2  0  0  0  0
 12 18  2  0  0  0  0
 12  1  1  0  0  0  0
 14  4  1  0  0  0  0
 15 14  2  0  0  0  0
 16 26  1  1  0  0  0
 17  4  2  0  0  0  0
 17  7  1  0  0  0  0
 18 11  1  0  0  0  0
 19 23  1  0  0  0  0
 20 19  2  0  0  0  0
 20 22  1  0  0  0  0
 21 15  1  0  0  0  0
 22 24  2  0  0  0  0
 23 21  2  0  0  0  0
 24 21  1  0  0  0  0
 25 19  1  0  0  0  0
 26 27  1  0  0  0  0
 27 29  1  0  0  0  0
 29 30  1  0  0  0  0
 29 33  2  0  0  0  0
 30 28  1  6  0  0  0
 31 32  1  0  0  0  0
 33 32  1  0  0  0  0
 34 31  1  0  0  0  0
 34 30  1  0  0  0  0
M  END
>  <MODEL>
6

>  <REMARK>
 VINA RESULT:      -7.7      2.422      5.516
  Name = 
  4 active torsions:
  status: ('A' for Active; 'I' for Inactive)
    1  A    between atoms: C_3  and  C_13
    2  A    between atoms: C_3  and  C_17
    3  A    between atoms: C_12  and  C_28
    4  A    between atoms: C_17  and  C_29
                            x       y       z     vdW  Elec       q    Type
                         _______ _______ _______ _____ _____    ______ ____

>  <TORSDO>
F 4

$$$$
=
 OpenBabel11062407443D

 34 39  0  0  1  0  0  0  0  0999 V2000
  161.0920  204.3760  152.4600 C   0  0  0  0  0  0  0  0  0  0  0  0
  160.8330  203.7560  150.1360 C   0  0  0  0  0  0  0  0  0  0  0  0
  161.2570  206.1610  150.7860 C   0  0  0  0  0  0  0  0  0  0  0  0
  161.6640  208.0090  149.2780 C   0  0  0  0  0  0  0  0  0  0  0  0
  160.8860  202.0860  151.8720 C   0  0  0  0  0  3  0  0  0  0  0  0
  160.7610  202.4210  150.5290 C   0  0  0  0  0  3  0  0  0  0  0  0
  162.0000  205.9430  148.3680 N   0  0  0  0  0  2  0  0  0  0  0  0
  161.0820  204.7740  151.0940 C   0  0  0  0  0  0  0  0  0  0  0  0
  162.1000  208.3040  147.8930 C   0  0  0  0  0  2  0  0  0  0  0  0
  161.0260  203.0630  152.8010 N   0  0  0  0  0  0  0  0  0  0  0  0
  161.1970  207.1240  151.8440 C   0  0  0  0  0  0  0  0  0  0  0  0
  161.1270  205.3260  153.4740 C   0  0  0  0  0  3  0  0  0  0  0  0
  160.4980  204.0280  148.8530 F   0  0  0  0  0  0  0  0  0  0  0  0
  161.5200  208.9150  150.2690 N   0  0  0  0  0  0  0  0  0  0  0  0
  161.2720  208.5200  151.5500 C   0  0  0  0  0  0  0  0  0  0  0  0
  162.3310  206.8970  147.3100 C   0  0  2  0  0  3  0  0  0  0  0  0
  161.5620  206.6670  149.5030 C   0  0  0  0  0  0  0  0  0  0  0  0
  161.1530  206.6780  153.1700 C   0  0  0  0  0  3  0  0  0  0  0  0
  161.7980  210.6470  154.6570 C   0  0  0  0  0  0  0  0  0  0  0  0
  160.7480  211.5540  154.5110 C   0  0  0  0  0  3  0  0  0  0  0  0
  161.1320  209.5830  152.5810 C   0  0  0  0  0  0  0  0  0  0  0  0
  159.9170  211.4660  153.4400 N   0  0  0  0  0  0  0  0  0  0  0  0
  161.9840  209.6570  153.6910 C   0  0  0  0  0  3  0  0  0  0  0  0
  160.0820  210.5090  152.4870 C   0  0  0  0  0  3  0  0  0  0  0  0
  162.6470  210.7270  155.7510 O   0  0  0  0  0  1  0  0  0  0  0  0
  161.4750  206.6530  146.0680 C   0  0  0  0  0  2  0  0  0  0  0  0
  161.9570  205.4530  145.2590 C   0  0  0  0  0  2  0  0  0  0  0  0
  162.4570  203.1450  146.9840 C   0  0  0  0  0  1  0  0  0  0  0  0
  160.9570  204.3380  145.3240 C   0  0  0  0  0  0  0  0  0  0  0  0
  161.1100  203.1750  146.2840 C   0  0  1  0  0  3  0  0  0  0  0  0
  159.7060  201.8550  144.5560 C   0  0  0  0  0  2  0  0  0  0  0  0
  158.9510  203.1880  144.5080 C   0  0  0  0  0  2  0  0  0  0  0  0
  159.9250  204.3270  144.4690 C   0  0  0  0  0  3  0  0  0  0  0  0
  160.8600  201.8310  145.5810 C   0  0  0  0  0  2  0  0  0  0  0  0
  1 10  1  0  0  0  0
  1 12  1  0  0  0  0
  2  6  2  0  0  0  0
  2  8  1  0  0  0  0
  3  8  1  0  0  0  0
  3 11  1  0  0  0  0
  4 17  1  0  0  0  0
  4 14  2  0  0  0  0
  5 10  2  0  0  0  0
  6  5  1  0  0  0  0
  7 17  1  0  0  0  0
  8  1  2  0  0  0  0
  9  4  1  0  0  0  0
 11 18  1  0  0  0  0
 13  2  1  0  0  0  0
 14 15  1  0  0  0  0
 15 11  2  0  0  0  0
 15 21  1  0  0  0  0
 16 26  1  6  0  0  0
 16  9  1  0  0  0  0
 16  7  1  0  0  0  0
 17  3  2  0  0  0  0
 18 12  2  0  0  0  0
 19 25  1  0  0  0  0
 20 19  1  0  0  0  0
 21 23  1  0  0  0  0
 22 20  2  0  0  0  0
 23 19  2  0  0  0  0
 24 21  2  0  0  0  0
 24 22  1  0  0  0  0
 27 29  1  0  0  0  0
 27 26  1  0  0  0  0
 29 30  1  0  0  0  0
 30 28  1  6  0  0  0
 31 34  1  0  0  0  0
 32 31  1  0  0  0  0
 33 32  1  0  0  0  0
 33 29  2  0  0  0  0
 34 30  1  0  0  0  0
M  END
>  <MODEL>
7

>  <REMARK>
 VINA RESULT:      -7.6      3.143      9.137
  Name = 
  4 active torsions:
  status: ('A' for Active; 'I' for Inactive)
    1  A    between atoms: C_3  and  C_13
    2  A    between atoms: C_3  and  C_17
    3  A    between atoms: C_12  and  C_28
    4  A    between atoms: C_17  and  C_29
                            x       y       z     vdW  Elec       q    Type
                         _______ _______ _______ _____ _____    ______ ____

>  <TORSDO>
F 4

$$$$
=
 OpenBabel11062407443D

 34 39  0  0  1  0  0  0  0  0999 V2000
  161.3380  206.2990  149.4300 C   0  0  0  0  0  0  0  0  0  0  0  0
  161.4240  205.9700  151.8250 C   0  0  0  0  0  0  0  0  0  0  0  0
  161.3530  208.3000  150.8480 C   0  0  0  0  0  0  0  0  0  0  0  0
  161.1430  210.3710  152.0800 C   0  0  0  0  0  0  0  0  0  0  0  0
  161.2110  204.1020  150.3190 C   0  0  0  0  0  3  0  0  0  0  0  0
  161.3290  204.5960  151.6120 C   0  0  0  0  0  3  0  0  0  0  0  0
  160.4990  208.5080  153.2290 N   0  0  0  0  0  2  0  0  0  0  0  0
  161.3500  206.8720  150.7320 C   0  0  0  0  0  0  0  0  0  0  0  0
  160.7000  210.9050  153.3900 C   0  0  0  0  0  2  0  0  0  0  0  0
  161.2390  204.9530  149.2650 N   0  0  0  0  0  0  0  0  0  0  0  0
  161.5820  209.0940  149.6790 C   0  0  0  0  0  0  0  0  0  0  0  0
  161.4690  207.0990  148.3010 C   0  0  0  0  0  3  0  0  0  0  0  0
  161.7450  206.3670  153.0790 F   0  0  0  0  0  0  0  0  0  0  0  0
  161.4450  211.1090  150.9900 N   0  0  0  0  0  0  0  0  0  0  0  0
  161.6850  210.5150  149.7860 C   0  0  0  0  0  0  0  0  0  0  0  0
  160.2590  209.6310  154.1360 C   0  0  2  0  0  3  0  0  0  0  0  0
  161.0720  209.0100  152.0370 C   0  0  0  0  0  0  0  0  0  0  0  0
  161.6140  208.4720  148.4260 C   0  0  0  0  0  3  0  0  0  0  0  0
  161.3690  212.6300  146.6430 C   0  0  0  0  0  0  0  0  0  0  0  0
  162.7030  212.9930  146.4590 C   0  0  0  0  0  3  0  0  0  0  0  0
  162.0060  211.4020  148.6360 C   0  0  0  0  0  0  0  0  0  0  0  0
  163.6510  212.5650  147.3320 N   0  0  0  0  0  0  0  0  0  0  0  0
  161.0240  211.8280  147.7310 C   0  0  0  0  0  3  0  0  0  0  0  0
  163.3350  211.7830  148.4000 C   0  0  0  0  0  3  0  0  0  0  0  0
  160.3960  213.0590  145.7510 O   0  0  0  0  0  1  0  0  0  0  0  0
  161.0280  209.4480  155.4440 C   0  0  0  0  0  2  0  0  0  0  0  0
  160.1510  209.6840  156.6690 C   0  0  0  0  0  2  0  0  0  0  0  0
  157.5190  210.6910  155.8870 C   0  0  0  0  0  1  0  0  0  0  0  0
  159.8350  211.1410  156.8180 C   0  0  0  0  0  0  0  0  0  0  0  0
  158.4530  211.6980  156.5360 C   0  0  1  0  0  3  0  0  0  0  0  0
  159.6920  213.9140  156.0350 C   0  0  0  0  0  2  0  0  0  0  0  0
  160.5000  213.4600  157.2570 C   0  0  0  0  0  2  0  0  0  0  0  0
  160.8100  211.9970  157.1510 C   0  0  0  0  0  3  0  0  0  0  0  0
  158.5260  212.9700  155.6760 C   0  0  0  0  0  2  0  0  0  0  0  0
  1  8  1  0  0  0  0
  2 13  1  0  0  0  0
  3 17  1  0  0  0  0
  4  9  1  0  0  0  0
  5  6  2  0  0  0  0
  6  2  1  0  0  0  0
  7 16  1  0  0  0  0
  8  3  1  0  0  0  0
  8  2  2  0  0  0  0
  9 16  1  0  0  0  0
 10  1  2  0  0  0  0
 10  5  1  0  0  0  0
 11 15  1  0  0  0  0
 11  3  2  0  0  0  0
 12 18  2  0  0  0  0
 12  1  1  0  0  0  0
 14  4  1  0  0  0  0
 15 14  2  0  0  0  0
 16 26  1  1  0  0  0
 17  4  2  0  0  0  0
 17  7  1  0  0  0  0
 18 11  1  0  0  0  0
 19 23  1  0  0  0  0
 20 19  2  0  0  0  0
 20 22  1  0  0  0  0
 21 15  1  0  0  0  0
 22 24  2  0  0  0  0
 23 21  2  0  0  0  0
 24 21  1  0  0  0  0
 25 19  1  0  0  0  0
 26 27  1  0  0  0  0
 27 29  1  0  0  0  0
 29 33  2  0  0  0  0
 30 28  1  6  0  0  0
 30 29  1  0  0  0  0
 31 32  1  0  0  0  0
 33 32  1  0  0  0  0
 34 31  1  0  0  0  0
 34 30  1  0  0  0  0
M  END
>  <MODEL>
8

>  <REMARK>
 VINA RESULT:      -7.6      2.583      5.662
  Name = 
  4 active torsions:
  status: ('A' for Active; 'I' for Inactive)
    1  A    between atoms: C_3  and  C_13
    2  A    between atoms: C_3  and  C_17
    3  A    between atoms: C_12  and  C_28
    4  A    between atoms: C_17  and  C_29
                            x       y       z     vdW  Elec       q    Type
                         _______ _______ _______ _____ _____    ______ ____

>  <TORSDO>
F 4

$$$$
=
 OpenBabel11062407443D

 34 39  0  0  1  0  0  0  0  0999 V2000
  160.8840  205.2470  152.8980 C   0  0  0  0  0  0  0  0  0  0  0  0
  161.7280  207.5020  152.6630 C   0  0  0  0  0  0  0  0  0  0  0  0
  161.3540  206.0500  150.6290 C   0  0  0  0  0  0  0  0  0  0  0  0
  161.5510  206.7340  148.3170 C   0  0  0  0  0  0  0  0  0  0  0  0
  161.0430  206.6460  154.8090 C   0  0  0  0  0  3  0  0  0  0  0  0
  161.5680  207.6750  154.0370 C   0  0  0  0  0  3  0  0  0  0  0  0
  161.3030  208.4490  149.8010 N   0  0  0  0  0  2  0  0  0  0  0  0
  161.3120  206.2970  152.0390 C   0  0  0  0  0  0  0  0  0  0  0  0
  161.5490  207.9420  147.4580 C   0  0  0  0  0  2  0  0  0  0  0  0
  160.7350  205.4590  154.2320 N   0  0  0  0  0  0  0  0  0  0  0  0
  161.2000  204.7090  150.1510 C   0  0  0  0  0  0  0  0  0  0  0  0
  160.6500  203.9720  152.3980 C   0  0  0  0  0  3  0  0  0  0  0  0
  162.4330  208.4560  152.0110 F   0  0  0  0  0  0  0  0  0  0  0  0
  161.4910  205.4570  147.8810 N   0  0  0  0  0  0  0  0  0  0  0  0
  161.3340  204.4240  148.7570 C   0  0  0  0  0  0  0  0  0  0  0  0
  161.3670  209.0770  148.4820 C   0  0  2  0  0  3  0  0  0  0  0  0
  161.4670  207.0530  149.6400 C   0  0  0  0  0  0  0  0  0  0  0  0
  160.8300  203.7020  151.0490 C   0  0  0  0  0  3  0  0  0  0  0  0
  160.7960  201.5010  146.3860 C   0  0  0  0  0  0  0  0  0  0  0  0
  161.1020  200.4390  147.2360 C   0  0  0  0  0  3  0  0  0  0  0  0
  161.2730  203.0490  148.1920 C   0  0  0  0  0  0  0  0  0  0  0  0
  161.4710  200.6800  148.5210 N   0  0  0  0  0  0  0  0  0  0  0  0
  160.8770  202.8080  146.8690 C   0  0  0  0  0  3  0  0  0  0  0  0
  161.5560  201.9470  149.0110 C   0  0  0  0  0  3  0  0  0  0  0  0
  160.4130  201.2630  145.0740 O   0  0  0  0  0  1  0  0  0  0  0  0
  162.5120  210.0870  148.4150 C   0  0  0  0  0  2  0  0  0  0  0  0
  162.2490  211.3210  149.2720 C   0  0  0  0  0  2  0  0  0  0  0  0
  160.2360  213.3110  150.0090 C   0  0  0  0  0  1  0  0  0  0  0  0
  162.0400  212.5280  148.4080 C   0  0  0  0  0  0  0  0  0  0  0  0
  161.0930  213.6450  148.8010 C   0  0  1  0  0  3  0  0  0  0  0  0
  160.9090  214.0810  146.2570 C   0  0  0  0  0  2  0  0  0  0  0  0
  162.4120  213.7920  146.3400 C   0  0  0  0  0  2  0  0  0  0  0  0
  162.6570  212.6030  147.2210 C   0  0  0  0  0  3  0  0  0  0  0  0
  160.1950  214.0580  147.6240 C   0  0  0  0  0  2  0  0  0  0  0  0
  1 10  2  0  0  0  0
  2  6  1  0  0  0  0
  3  8  1  0  0  0  0
  4 17  1  0  0  0  0
  6  5  2  0  0  0  0
  8  2  2  0  0  0  0
  8  1  1  0  0  0  0
  9  4  1  0  0  0  0
  9 16  1  0  0  0  0
 10  5  1  0  0  0  0
 11  3  1  0  0  0  0
 11 18  1  0  0  0  0
 12  1  1  0  0  0  0
 13  2  1  0  0  0  0
 14  4  2  0  0  0  0
 14 15  1  0  0  0  0
 15 11  2  0  0  0  0
 16 26  1  1  0  0  0
 16  7  1  0  0  0  0
 17  7  1  0  0  0  0
 17  3  2  0  0  0  0
 18 12  2  0  0  0  0
 19 23  2  0  0  0  0
 19 20  1  0  0  0  0
 20 22  2  0  0  0  0
 21 15  1  0  0  0  0
 21 24  2  0  0  0  0
 22 24  1  0  0  0  0
 23 21  1  0  0  0  0
 25 19  1  0  0  0  0
 26 27  1  0  0  0  0
 29 30  1  0  0  0  0
 29 27  1  0  0  0  0
 30 28  1  1  0  0  0
 31 32  1  0  0  0  0
 31 34  1  0  0  0  0
 32 33  1  0  0  0  0
 33 29  2  0  0  0  0
 34 30  1  0  0  0  0
M  END
>  <MODEL>
9

>  <REMARK>
 VINA RESULT:      -7.5      2.328      5.660
  Name = 
  4 active torsions:
  status: ('A' for Active; 'I' for Inactive)
    1  A    between atoms: C_3  and  C_13
    2  A    between atoms: C_3  and  C_17
    3  A    between atoms: C_12  and  C_28
    4  A    between atoms: C_17  and  C_29
                            x       y       z     vdW  Elec       q    Type
                         _______ _______ _______ _____ _____    ______ ____

>  <TORSDO>
F 4

$$$$
