=
 OpenBabel11062409473D

 34 39  0  0  1  0  0  0  0  0999 V2000
  159.8490  209.5340  154.9690 C   0  0  1  0  0  3  0  0  0  0  0  0
  158.9570  213.1430  154.3330 C   0  0  0  0  0  3  0  0  0  0  0  0
  160.8610  212.3220  155.5810 C   0  0  0  0  0  2  0  0  0  0  0  0
  161.7970  208.9780  156.5750 C   0  0  0  0  0  0  0  0  0  0  0  0
  162.7130  209.7540  157.2600 C   0  0  0  0  0  3  0  0  0  0  0  0
  161.7140  207.5920  156.5860 O   0  0  0  0  0  1  0  0  0  0  0  0
  161.4130  211.0930  156.1470 N   0  0  0  0  0  0  0  0  0  0  0  0
  160.9950  209.8460  155.8790 C   0  0  0  0  0  0  0  0  0  0  0  0
  162.4500  211.0500  156.9690 N   0  0  0  0  0  0  0  0  0  0  0  0
  157.6920  213.0630  153.5460 C   0  0  0  0  0  2  0  0  0  0  0  0
  156.5410  212.6490  154.4060 C   0  0  0  0  0  0  0  0  0  0  0  0
  156.5110  211.4430  154.9810 C   0  0  0  0  0  3  0  0  0  0  0  0
  159.5220  212.0910  154.9280 C   0  0  0  0  0  0  0  0  0  0  0  0
  157.6120  210.4590  154.9730 C   0  0  0  0  0  3  0  0  0  0  0  0
  158.9270  210.7170  154.9100 C   0  0  0  0  0  0  0  0  0  0  0  0
  155.3830  213.5510  154.5300 C   0  0  0  0  0  0  0  0  0  0  0  0
  155.0640  214.1100  155.7610 O   0  0  0  0  0  1  0  0  0  0  0  0
  154.6710  213.8250  153.5250 O   0  0  0  0  0  0  0  0  0  0  0  0
  160.3440  209.2030  153.5660 C   0  0  0  0  0  2  0  0  0  0  0  0
  162.0670  207.8490  149.8030 C   0  0  0  0  0  2  0  0  0  0  0  0
  160.9420  205.8370  151.7210 C   0  0  0  0  0  2  0  0  0  0  0  0
  161.4960  204.8520  147.5590 C   0  0  0  0  0  0  0  0  0  0  0  0
  160.6780  207.7220  153.4480 C   0  0  2  0  0  3  0  0  0  0  0  0
  161.8320  206.1330  148.0060 C   0  0  0  0  0  3  0  0  0  0  0  0
  161.6570  206.4800  149.3500 C   0  0  0  0  0  0  0  0  0  0  0  0
  162.1620  207.5580  153.1470 C   0  0  0  0  0  2  0  0  0  0  0  0
  160.8370  204.2410  149.8080 C   0  0  0  0  0  3  0  0  0  0  0  0
  161.1600  205.5230  150.2640 C   0  0  0  0  0  0  0  0  0  0  0  0
  161.0040  203.9050  148.4620 C   0  0  0  0  0  3  0  0  0  0  0  0
  161.1440  207.3140  152.0570 C   0  0  1  0  0  0  0  0  0  0  0  0
  161.1680  208.3450  150.9260 C   0  0  0  0  0  2  0  0  0  0  0  0
  161.6790  204.4910  146.1230 C   0  0  0  0  0  2  0  0  0  0  0  0
  161.4450  205.6360  145.2790 N   0  0  0  0  0  0  0  0  0  0  0  0
  160.3380  205.9080  144.9240 O   0  0  0  0  0  0  0  0  0  0  0  0
  1 19  1  6  0  0  0
  1  8  1  0  0  0  0
  2 13  2  0  0  0  0
  3  7  1  0  0  0  0
  4  6  1  0  0  0  0
  4  5  1  0  0  0  0
  7  9  1  0  0  0  0
  8  7  1  0  0  0  0
  8  4  2  0  0  0  0
  9  5  2  0  0  0  0
 10  2  1  0  0  0  0
 10 11  1  0  0  0  0
 11 16  1  0  0  0  0
 11 12  2  0  0  0  0
 13  3  1  0  0  0  0
 14 12  1  0  0  0  0
 15 13  1  0  0  0  0
 15  1  1  0  0  0  0
 15 14  2  0  0  0  0
 16 17  1  0  0  0  0
 18 16  2  0  0  0  0
 20 31  1  0  0  0  0
 21 30  1  0  0  0  0
 22 24  2  0  0  0  0
 22 29  1  0  0  0  0
 23 19  1  6  0  0  0
 24 25  1  0  0  0  0
 25 20  1  0  0  0  0
 25 28  2  0  0  0  0
 26 23  1  0  0  0  0
 27 28  1  0  0  0  0
 28 21  1  0  0  0  0
 29 27  2  0  0  0  0
 30 31  1  6  0  0  0
 30 26  1  0  0  0  0
 30 23  1  0  0  0  0
 32 22  1  0  0  0  0
 33 32  1  0  0  0  0
 34 33  2  0  0  0  0
M  END
>  <MODEL>
1

>  <REMARK>
 VINA RESULT:      -8.1      0.000      0.000
  Name = 
  5 active torsions:
  status: ('A' for Active; 'I' for Inactive)
    1  A    between atoms: C_1  and  C_9
    2  A    between atoms: C_3  and  C_25
    3  A    between atoms: C_7  and  C_11
    4  A    between atoms: C_8  and  C_9
    5  A    between atoms: C_11  and  N_15
                            x       y       z     vdW  Elec       q    Type
                         _______ _______ _______ _____ _____    ______ ____

>  <TORSDO>
F 5

$$$$
=
 OpenBabel11062409473D

 34 39  0  0  1  0  0  0  0  0999 V2000
  161.8900  210.6120  150.4880 C   0  0  1  0  0  3  0  0  0  0  0  0
  159.3930  211.1850  153.2560 C   0  0  0  0  0  3  0  0  0  0  0  0
  159.7200  212.5650  151.2950 C   0  0  0  0  0  2  0  0  0  0  0  0
  162.1880  212.4180  148.6630 C   0  0  0  0  0  0  0  0  0  0  0  0
  161.5470  213.6130  148.3960 C   0  0  0  0  0  3  0  0  0  0  0  0
  163.2290  211.8560  147.9350 O   0  0  0  0  0  1  0  0  0  0  0  0
  160.6310  212.7520  150.1680 N   0  0  0  0  0  0  0  0  0  0  0  0
  161.5880  211.8950  149.7800 C   0  0  0  0  0  0  0  0  0  0  0  0
  160.5910  213.7840  149.3400 N   0  0  0  0  0  0  0  0  0  0  0  0
  159.6460  210.0600  154.2030 C   0  0  0  0  0  2  0  0  0  0  0  0
  160.9260  210.2550  154.9500 C   0  0  0  0  0  0  0  0  0  0  0  0
  162.1010  210.2660  154.3120 C   0  0  0  0  0  3  0  0  0  0  0  0
  160.1850  211.4710  152.2230 C   0  0  0  0  0  0  0  0  0  0  0  0
  162.2830  210.2380  152.8470 C   0  0  0  0  0  3  0  0  0  0  0  0
  161.4450  210.7200  151.9170 C   0  0  0  0  0  0  0  0  0  0  0  0
  160.8890  210.3310  156.4210 C   0  0  0  0  0  0  0  0  0  0  0  0
  159.6690  210.3200  157.0880 O   0  0  0  0  0  1  0  0  0  0  0  0
  161.9560  210.4060  157.0880 O   0  0  0  0  0  0  0  0  0  0  0  0
  161.1770  209.4420  149.8200 C   0  0  0  0  0  2  0  0  0  0  0  0
  162.0790  205.8310  147.5600 C   0  0  0  0  0  2  0  0  0  0  0  0
  161.2010  205.6040  150.4180 C   0  0  0  0  0  2  0  0  0  0  0  0
  160.9070  202.2340  147.7420 C   0  0  0  0  0  0  0  0  0  0  0  0
  161.3870  208.1590  150.6150 C   0  0  2  0  0  3  0  0  0  0  0  0
  161.4030  203.4480  147.2580 C   0  0  0  0  0  3  0  0  0  0  0  0
  161.5040  204.5580  148.1030 C   0  0  0  0  0  0  0  0  0  0  0  0
  162.7750  207.6030  150.3260 C   0  0  0  0  0  2  0  0  0  0  0  0
  160.6400  203.2220  149.9380 C   0  0  0  0  0  3  0  0  0  0  0  0
  161.1250  204.4440  149.4600 C   0  0  0  0  0  0  0  0  0  0  0  0
  160.5310  202.1210  149.0850 C   0  0  0  0  0  3  0  0  0  0  0  0
  161.5590  206.9250  149.7390 C   0  0  1  0  0  0  0  0  0  0  0  0
  161.4390  207.0440  148.2190 C   0  0  0  0  0  2  0  0  0  0  0  0
  160.7960  201.0560  146.8340 C   0  0  0  0  0  2  0  0  0  0  0  0
  160.4140  201.4740  145.5090 N   0  0  0  0  0  0  0  0  0  0  0  0
  160.0280  200.6740  144.7110 O   0  0  0  0  0  0  0  0  0  0  0  0
  1 19  1  6  0  0  0
  1 15  1  0  0  0  0
  2 10  1  0  0  0  0
  3 13  1  0  0  0  0
  4  8  2  0  0  0  0
  5  4  1  0  0  0  0
  5  9  2  0  0  0  0
  6  4  1  0  0  0  0
  7  3  1  0  0  0  0
  8  7  1  0  0  0  0
  8  1  1  0  0  0  0
  9  7  1  0  0  0  0
 10 11  1  0  0  0  0
 11 16  1  0  0  0  0
 12 11  2  0  0  0  0
 13  2  2  0  0  0  0
 14 12  1  0  0  0  0
 15 13  1  0  0  0  0
 15 14  2  0  0  0  0
 16 18  2  0  0  0  0
 16 17  1  0  0  0  0
 20 25  1  0  0  0  0
 20 31  1  0  0  0  0
 22 29  1  0  0  0  0
 23 19  1  6  0  0  0
 24 22  2  0  0  0  0
 24 25  1  0  0  0  0
 25 28  2  0  0  0  0
 26 23  1  0  0  0  0
 28 27  1  0  0  0  0
 28 21  1  0  0  0  0
 29 27  2  0  0  0  0
 30 31  1  6  0  0  0
 30 26  1  0  0  0  0
 30 21  1  0  0  0  0
 30 23  1  0  0  0  0
 32 22  1  0  0  0  0
 33 32  1  0  0  0  0
 34 33  2  0  0  0  0
M  END
>  <MODEL>
2

>  <REMARK>
 VINA RESULT:      -8.0      3.221      5.114
  Name = 
  5 active torsions:
  status: ('A' for Active; 'I' for Inactive)
    1  A    between atoms: C_1  and  C_9
    2  A    between atoms: C_3  and  C_25
    3  A    between atoms: C_7  and  C_11
    4  A    between atoms: C_8  and  C_9
    5  A    between atoms: C_11  and  N_15
                            x       y       z     vdW  Elec       q    Type
                         _______ _______ _______ _____ _____    ______ ____

>  <TORSDO>
F 5

$$$$
=
 OpenBabel11062409473D

 34 39  0  0  1  0  0  0  0  0999 V2000
  159.9960  208.8090  154.0990 C   0  0  1  0  0  3  0  0  0  0  0  0
  160.4460  212.4290  153.1410 C   0  0  0  0  0  3  0  0  0  0  0  0
  161.6740  211.2190  154.8390 C   0  0  0  0  0  2  0  0  0  0  0  0
  161.2720  207.8760  156.1450 C   0  0  0  0  0  0  0  0  0  0  0  0
  162.2130  208.4140  157.0030 C   0  0  0  0  0  3  0  0  0  0  0  0
  160.7560  206.5870  156.1850 O   0  0  0  0  0  1  0  0  0  0  0  0
  161.6750  209.9500  155.5640 N   0  0  0  0  0  0  0  0  0  0  0  0
  160.9550  208.8630  155.2470 C   0  0  0  0  0  0  0  0  0  0  0  0
  162.4400  209.6900  156.6130 N   0  0  0  0  0  0  0  0  0  0  0  0
  159.4230  212.6450  152.0770 C   0  0  0  0  0  2  0  0  0  0  0  0
  158.0420  212.6870  152.6480 C   0  0  0  0  0  0  0  0  0  0  0  0
  157.5100  211.6140  153.2410 C   0  0  0  0  0  3  0  0  0  0  0  0
  160.5070  211.3280  153.8920 C   0  0  0  0  0  0  0  0  0  0  0  0
  158.2200  210.3520  153.5330 C   0  0  0  0  0  3  0  0  0  0  0  0
  159.5300  210.1990  153.7790 C   0  0  0  0  0  0  0  0  0  0  0  0
  157.2280  213.9000  152.4580 C   0  0  0  0  0  0  0  0  0  0  0  0
  157.0900  214.4530  151.1910 O   0  0  0  0  0  0  0  0  0  0  0  0
  156.6510  214.4470  153.4360 O   0  0  0  0  0  1  0  0  0  0  0  0
  160.6560  208.1970  152.8690 C   0  0  0  0  0  2  0  0  0  0  0  0
  161.8500  205.8490  149.4020 C   0  0  0  0  0  2  0  0  0  0  0  0
  160.9820  204.4470  151.9070 C   0  0  0  0  0  2  0  0  0  0  0  0
  160.9670  202.3990  148.1110 C   0  0  0  0  0  0  0  0  0  0  0  0
  160.9630  206.7230  153.1010 C   0  0  2  0  0  3  0  0  0  0  0  0
  161.3670  203.7380  148.1620 C   0  0  0  0  0  3  0  0  0  0  0  0
  161.3760  204.4270  149.3790 C   0  0  0  0  0  0  0  0  0  0  0  0
  162.3920  206.4270  152.6650 C   0  0  0  0  0  2  0  0  0  0  0  0
  160.6130  202.4160  150.5080 C   0  0  0  0  0  3  0  0  0  0  0  0
  161.0020  203.7590  150.5670 C   0  0  0  0  0  0  0  0  0  0  0  0
  160.5960  201.7380  149.2860 C   0  0  0  0  0  3  0  0  0  0  0  0
  161.2360  205.9510  151.8170 C   0  0  1  0  0  0  0  0  0  0  0  0
  161.1130  206.6530  150.4630 C   0  0  0  0  0  2  0  0  0  0  0  0
  160.9530  201.6720  146.8090 C   0  0  0  0  0  2  0  0  0  0  0  0
  160.9480  202.6040  145.7100 N   0  0  0  0  0  0  0  0  0  0  0  0
  160.0850  202.5610  144.8850 O   0  0  0  0  0  0  0  0  0  0  0  0
  1 19  1  6  0  0  0
  1  8  1  0  0  0  0
  2 13  2  0  0  0  0
  3  7  1  0  0  0  0
  4  6  1  0  0  0  0
  4  5  1  0  0  0  0
  7  9  1  0  0  0  0
  8  7  1  0  0  0  0
  8  4  2  0  0  0  0
  9  5  2  0  0  0  0
 10 11  1  0  0  0  0
 10  2  1  0  0  0  0
 11 12  2  0  0  0  0
 12 14  1  0  0  0  0
 13  3  1  0  0  0  0
 14 15  2  0  0  0  0
 15 13  1  0  0  0  0
 15  1  1  0  0  0  0
 16 11  1  0  0  0  0
 16 18  1  0  0  0  0
 17 16  2  0  0  0  0
 20 31  1  0  0  0  0
 22 24  2  0  0  0  0
 22 29  1  0  0  0  0
 23 19  1  6  0  0  0
 24 25  1  0  0  0  0
 25 20  1  0  0  0  0
 25 28  2  0  0  0  0
 26 23  1  0  0  0  0
 27 28  1  0  0  0  0
 28 21  1  0  0  0  0
 29 27  2  0  0  0  0
 30 31  1  6  0  0  0
 30 21  1  0  0  0  0
 30 26  1  0  0  0  0
 30 23  1  0  0  0  0
 32 22  1  0  0  0  0
 33 32  1  0  0  0  0
 34 33  2  0  0  0  0
M  END
>  <MODEL>
3

>  <REMARK>
 VINA RESULT:      -7.3      1.709      2.119
  Name = 
  5 active torsions:
  status: ('A' for Active; 'I' for Inactive)
    1  A    between atoms: C_1  and  C_9
    2  A    between atoms: C_3  and  C_25
    3  A    between atoms: C_7  and  C_11
    4  A    between atoms: C_8  and  C_9
    5  A    between atoms: C_11  and  N_15
                            x       y       z     vdW  Elec       q    Type
                         _______ _______ _______ _____ _____    ______ ____

>  <TORSDO>
F 5

$$$$
=
 OpenBabel11062409473D

 34 39  0  0  1  0  0  0  0  0999 V2000
  160.0110  209.8370  154.1010 C   0  0  1  0  0  3  0  0  0  0  0  0
  159.1800  213.4800  154.6100 C   0  0  0  0  0  3  0  0  0  0  0  0
  160.6420  212.1250  155.9820 C   0  0  0  0  0  2  0  0  0  0  0  0
  161.3910  208.5930  155.8980 C   0  0  0  0  0  0  0  0  0  0  0  0
  162.0100  208.9960  157.0680 C   0  0  0  0  0  3  0  0  0  0  0  0
  161.3780  207.3090  155.3680 O   0  0  0  0  0  1  0  0  0  0  0  0
  161.0530  210.7390  156.1910 N   0  0  0  0  0  0  0  0  0  0  0  0
  160.8010  209.7110  155.3650 C   0  0  0  0  0  0  0  0  0  0  0  0
  161.7840  210.3230  157.2130 N   0  0  0  0  0  0  0  0  0  0  0  0
  158.2260  213.7860  153.5040 C   0  0  0  0  0  2  0  0  0  0  0  0
  156.8880  213.1670  153.7520 C   0  0  0  0  0  0  0  0  0  0  0  0
  156.7420  211.8390  153.8000 C   0  0  0  0  0  3  0  0  0  0  0  0
  159.5840  212.2460  154.9150 C   0  0  0  0  0  0  0  0  0  0  0  0
  157.8400  210.8520  153.7640 C   0  0  0  0  0  3  0  0  0  0  0  0
  159.0950  211.0210  154.2060 C   0  0  0  0  0  0  0  0  0  0  0  0
  155.7040  214.0400  153.8410 C   0  0  0  0  0  0  0  0  0  0  0  0
  155.2350  214.4520  155.0820 O   0  0  0  0  0  1  0  0  0  0  0  0
  155.1070  214.4210  152.7980 O   0  0  0  0  0  0  0  0  0  0  0  0
  160.9330  210.0120  152.9000 C   0  0  0  0  0  2  0  0  0  0  0  0
  160.4290  206.8550  149.9430 C   0  0  0  0  0  2  0  0  0  0  0  0
  162.3280  206.4490  152.2290 C   0  0  0  0  0  2  0  0  0  0  0  0
  160.7890  203.0850  150.0110 C   0  0  0  0  0  0  0  0  0  0  0  0
  161.9890  208.9150  152.8680 C   0  0  2  0  0  3  0  0  0  0  0  0
  160.3790  204.3750  149.6640 C   0  0  0  0  0  3  0  0  0  0  0  0
  160.8590  205.4830  150.3700 C   0  0  0  0  0  0  0  0  0  0  0  0
  162.6300  208.8660  151.4870 C   0  0  0  0  0  2  0  0  0  0  0  0
  162.1940  204.0040  151.7580 C   0  0  0  0  0  3  0  0  0  0  0  0
  161.7820  205.2980  151.4250 C   0  0  0  0  0  0  0  0  0  0  0  0
  161.7020  202.9010  151.0550 C   0  0  0  0  0  3  0  0  0  0  0  0
  161.6600  207.7840  151.9020 C   0  0  1  0  0  0  0  0  0  0  0  0
  160.3360  207.7940  151.1370 C   0  0  0  0  0  2  0  0  0  0  0  0
  160.2690  201.9070  149.2580 C   0  0  0  0  0  2  0  0  0  0  0  0
  161.2910  200.9000  149.1250 N   0  0  0  0  0  0  0  0  0  0  0  0
  161.5760  200.4670  148.0490 O   0  0  0  0  0  0  0  0  0  0  0  0
  1 19  1  6  0  0  0
  1 15  1  0  0  0  0
  1  8  1  0  0  0  0
  2 13  2  0  0  0  0
  3  7  1  0  0  0  0
  4  5  1  0  0  0  0
  5  9  2  0  0  0  0
  6  4  1  0  0  0  0
  7  9  1  0  0  0  0
  8  4  2  0  0  0  0
  8  7  1  0  0  0  0
 10 11  1  0  0  0  0
 10  2  1  0  0  0  0
 11 12  2  0  0  0  0
 11 16  1  0  0  0  0
 13  3  1  0  0  0  0
 14 12  1  0  0  0  0
 14 15  2  0  0  0  0
 15 13  1  0  0  0  0
 16 17  1  0  0  0  0
 18 16  2  0  0  0  0
 20 25  1  0  0  0  0
 20 31  1  0  0  0  0
 22 29  1  0  0  0  0
 23 19  1  6  0  0  0
 24 22  2  0  0  0  0
 24 25  1  0  0  0  0
 25 28  2  0  0  0  0
 26 30  1  0  0  0  0
 26 23  1  0  0  0  0
 28 27  1  0  0  0  0
 28 21  1  0  0  0  0
 29 27  2  0  0  0  0
 30 31  1  6  0  0  0
 30 21  1  0  0  0  0
 30 23  1  0  0  0  0
 32 22  1  0  0  0  0
 33 32  1  0  0  0  0
 34 33  2  0  0  0  0
M  END
>  <MODEL>
4

>  <REMARK>
 VINA RESULT:      -6.0      1.994      2.200
  Name = 
  5 active torsions:
  status: ('A' for Active; 'I' for Inactive)
    1  A    between atoms: C_1  and  C_9
    2  A    between atoms: C_3  and  C_25
    3  A    between atoms: C_7  and  C_11
    4  A    between atoms: C_8  and  C_9
    5  A    between atoms: C_11  and  N_15
                            x       y       z     vdW  Elec       q    Type
                         _______ _______ _______ _____ _____    ______ ____

>  <TORSDO>
F 5

$$$$
=
 OpenBabel11062409473D

 34 39  0  0  1  0  0  0  0  0999 V2000
  162.1960  209.1530  149.9110 C   0  0  1  0  0  3  0  0  0  0  0  0
  160.1860  206.2040  148.6930 C   0  0  0  0  0  3  0  0  0  0  0  0
  160.3000  207.0380  150.9620 C   0  0  0  0  0  2  0  0  0  0  0  0
  162.3290  209.6300  152.4480 C   0  0  0  0  0  0  0  0  0  0  0  0
  161.7310  209.0550  153.5550 C   0  0  0  0  0  3  0  0  0  0  0  0
  163.2120  210.7020  152.4470 O   0  0  0  0  0  1  0  0  0  0  0  0
  161.0410  207.9810  151.7970 N   0  0  0  0  0  0  0  0  0  0  0  0
  161.8720  208.9370  151.3560 C   0  0  0  0  0  0  0  0  0  0  0  0
  160.9420  208.0460  153.1160 N   0  0  0  0  0  0  0  0  0  0  0  0
  160.5080  206.1300  147.2380 C   0  0  0  0  0  2  0  0  0  0  0  0
  161.8950  205.6210  147.0130 C   0  0  0  0  0  0  0  0  0  0  0  0
  162.9590  206.3140  147.4320 C   0  0  0  0  0  3  0  0  0  0  0  0
  160.8300  206.9950  149.5510 C   0  0  0  0  0  0  0  0  0  0  0  0
  162.9170  207.5360  148.2600 C   0  0  0  0  0  3  0  0  0  0  0  0
  161.9790  207.8720  149.1590 C   0  0  0  0  0  0  0  0  0  0  0  0
  162.0850  204.3900  146.2250 C   0  0  0  0  0  0  0  0  0  0  0  0
  163.0840  204.3280  145.2620 O   0  0  0  0  0  0  0  0  0  0  0  0
  161.3470  203.3850  146.4160 O   0  0  0  0  0  1  0  0  0  0  0  0
  161.3190  210.2480  149.3160 C   0  0  0  0  0  2  0  0  0  0  0  0
  159.8730  212.5570  145.9190 C   0  0  0  0  0  2  0  0  0  0  0  0
  162.7200  212.8630  146.8080 C   0  0  0  0  0  2  0  0  0  0  0  0
  161.5060  214.0400  142.8410 C   0  0  0  0  0  0  0  0  0  0  0  0
  162.1660  211.4330  148.8700 C   0  0  2  0  0  3  0  0  0  0  0  0
  160.5570  213.4940  143.7100 C   0  0  0  0  0  3  0  0  0  0  0  0
  160.9250  213.1000  145.0010 C   0  0  0  0  0  0  0  0  0  0  0  0
  161.3340  212.7070  148.9380 C   0  0  0  0  0  2  0  0  0  0  0  0
  163.1990  213.8330  144.5610 C   0  0  0  0  0  3  0  0  0  0  0  0
  162.2590  213.2760  145.4350 C   0  0  0  0  0  0  0  0  0  0  0  0
  162.8260  214.2140  143.2700 C   0  0  0  0  0  3  0  0  0  0  0  0
  161.6600  212.0950  147.5960 C   0  0  1  0  0  0  0  0  0  0  0  0
  160.4540  211.5090  146.8580 C   0  0  0  0  0  2  0  0  0  0  0  0
  161.1080  214.4530  141.4640 C   0  0  0  0  0  2  0  0  0  0  0  0
  160.9930  213.3020  140.6040 N   0  0  0  0  0  0  0  0  0  0  0  0
  161.8070  212.4300  140.6510 O   0  0  0  0  0  0  0  0  0  0  0  0
  1 19  1  6  0  0  0
  1  8  1  0  0  0  0
  2 13  2  0  0  0  0
  3  7  1  0  0  0  0
  4  5  1  0  0  0  0
  6  4  1  0  0  0  0
  7  9  1  0  0  0  0
  8  7  1  0  0  0  0
  8  4  2  0  0  0  0
  9  5  2  0  0  0  0
 10  2  1  0  0  0  0
 11 10  1  0  0  0  0
 11 12  2  0  0  0  0
 12 14  1  0  0  0  0
 13  3  1  0  0  0  0
 14 15  2  0  0  0  0
 15 13  1  0  0  0  0
 15  1  1  0  0  0  0
 16 18  1  0  0  0  0
 16 11  1  0  0  0  0
 17 16  2  0  0  0  0
 20 31  1  0  0  0  0
 22 29  2  0  0  0  0
 22 24  1  0  0  0  0
 23 26  1  0  0  0  0
 23 19  1  1  0  0  0
 24 25  2  0  0  0  0
 25 28  1  0  0  0  0
 25 20  1  0  0  0  0
 27 28  2  0  0  0  0
 28 21  1  0  0  0  0
 29 27  1  0  0  0  0
 30 21  1  6  0  0  0
 30 23  1  0  0  0  0
 30 26  1  0  0  0  0
 31 30  1  0  0  0  0
 32 22  1  0  0  0  0
 33 34  2  0  0  0  0
 33 32  1  0  0  0  0
M  END
>  <MODEL>
5

>  <REMARK>
 VINA RESULT:      -5.2      5.289      8.848
  Name = 
  5 active torsions:
  status: ('A' for Active; 'I' for Inactive)
    1  A    between atoms: C_1  and  C_9
    2  A    between atoms: C_3  and  C_25
    3  A    between atoms: C_7  and  C_11
    4  A    between atoms: C_8  and  C_9
    5  A    between atoms: C_11  and  N_15
                            x       y       z     vdW  Elec       q    Type
                         _______ _______ _______ _____ _____    ______ ____

>  <TORSDO>
F 5

$$$$
