=
 OpenBabel11052421443D

 30 34  0  0  1  0  0  0  0  0999 V2000
  160.4550  211.4930  151.6110 C   0  0  0  0  0  0  0  0  0  0  0  0
  159.0040  213.4070  150.8830 C   0  0  0  0  0  0  0  0  0  0  0  0
  160.2110  210.7490  152.6920 C   0  0  0  0  0  0  0  0  0  0  0  0
  161.2070  211.0010  150.4010 C   0  0  0  0  0  3  0  0  0  0  0  0
  162.0470  207.1650  151.6830 S   0  0  0  0  0  0  0  0  0  0  0  0
  161.9570  209.0140  155.0690 C   0  0  0  0  0  3  0  0  0  0  0  0
  161.3390  208.8030  151.7550 C   0  0  0  0  0  0  0  0  0  0  0  0
  162.0420  208.8280  149.5400 C   0  0  0  0  0  2  0  0  0  0  0  0
  159.5100  210.7470  155.9180 N   0  0  0  0  0  2  0  0  0  0  0  0
  161.4950  209.5330  150.5100 C   0  0  0  0  0  0  0  0  0  0  0  0
  160.7630  209.3620  152.8340 C   0  0  0  0  0  0  0  0  0  0  0  0
  157.9080  214.0730  151.3100 C   0  0  0  0  0  3  0  0  0  0  0  0
  159.4510  209.6050  156.4930 C   0  0  0  0  0  2  0  0  0  0  0  0
  161.8720  209.1670  156.4070 C   0  0  0  0  0  3  0  0  0  0  0  0
  161.4030  206.4900  149.1050 C   0  0  0  0  0  1  0  0  0  0  0  0
  159.2360  213.3270  149.5460 F   0  0  0  0  0  0  0  0  0  0  0  0
  158.4320  214.0490  155.0300 F   0  0  0  0  0  0  0  0  0  0  0  0
  157.5430  214.2360  152.7750 C   0  0  0  0  0  2  0  0  0  0  0  0
  162.3310  207.3990  149.8860 C   0  0  2  0  0  3  0  0  0  0  0  0
  160.0700  212.9140  151.8450 C   0  0  1  0  0  3  0  0  0  0  0  0
  159.4570  211.5690  153.6540 C   0  0  0  0  0  0  0  0  0  0  0  0
  158.6500  210.9890  154.7960 C   0  0  2  0  0  3  0  0  0  0  0  0
  160.6230  209.1040  157.2610 C   0  0  0  0  0  2  0  0  0  0  0  0
  160.0320  207.7660  154.4190 O   0  0  0  0  0  0  0  0  0  0  0  0
  158.7550  214.0490  153.6870 C   0  0  2  0  0  3  0  0  0  0  0  0
  159.5100  212.8420  153.2270 C   0  0  0  0  0  0  0  0  0  0  0  0
  160.8510  208.6810  154.1400 C   0  0  0  0  0  0  0  0  0  0  0  0
  157.1100  211.8300  156.6250 C   0  0  0  0  0  1  0  0  0  0  0  0
  157.2940  211.6250  155.1320 C   0  0  0  0  0  3  0  0  0  0  0  0
  156.1730  210.7300  154.6360 C   0  0  0  0  0  1  0  0  0  0  0  0
  1 20  1  0  0  0  0
  1  3  1  0  0  0  0
  2 12  2  0  0  0  0
  3 11  2  0  0  0  0
  3 21  1  0  0  0  0
  4 10  1  0  0  0  0
  4  1  2  0  0  0  0
  5  7  1  0  0  0  0
  6 14  2  0  0  0  0
  7 11  1  0  0  0  0
  8 19  1  0  0  0  0
  8 10  1  0  0  0  0
  9 13  1  0  0  0  0
 10  7  2  0  0  0  0
 11 27  1  0  0  0  0
 12 18  1  0  0  0  0
 13 23  1  0  0  0  0
 14 23  1  0  0  0  0
 16  2  1  0  0  0  0
 18 25  1  0  0  0  0
 19 15  1  6  0  0  0
 19  5  1  0  0  0  0
 20  2  1  6  0  0  0
 20 26  1  0  0  0  0
 21 22  1  0  0  0  0
 22 29  1  1  0  0  0
 22  9  1  0  0  0  0
 25 17  1  1  0  0  0
 26 21  2  0  0  0  0
 26 25  1  0  0  0  0
 27 24  2  0  0  0  0
 27  6  1  0  0  0  0
 29 28  1  0  0  0  0
 30 29  1  0  0  0  0
M  END
>  <MODEL>
1

>  <REMARK>
 VINA RESULT:      -5.1      0.000      0.000
  Name = 
  1 active torsions:
  status: ('A' for Active; 'I' for Inactive)
    1  A    between atoms: C_11  and  C_25
                            x       y       z     vdW  Elec       q    Type
                         _______ _______ _______ _____ _____    ______ ____

>  <TORSDO>
F 1

$$$$
=
 OpenBabel11052421443D

 30 34  0  0  1  0  0  0  0  0999 V2000
  159.1510  212.9770  151.8800 C   0  0  0  0  0  0  0  0  0  0  0  0
  157.0540  214.2400  151.3270 C   0  0  0  0  0  0  0  0  0  0  0  0
  159.2410  212.0930  152.8760 C   0  0  0  0  0  0  0  0  0  0  0  0
  160.0040  212.9380  150.6390 C   0  0  0  0  0  3  0  0  0  0  0  0
  162.2970  209.6220  151.5380 S   0  0  0  0  0  0  0  0  0  0  0  0
  161.5820  210.9440  155.0930 C   0  0  0  0  0  3  0  0  0  0  0  0
  161.0110  210.8410  151.7650 C   0  0  0  0  0  0  0  0  0  0  0  0
  161.5950  211.3570  149.5750 C   0  0  0  0  0  2  0  0  0  0  0  0
  158.6770  211.4990  156.0740 N   0  0  0  0  0  2  0  0  0  0  0  0
  160.8420  211.6940  150.6020 C   0  0  0  0  0  0  0  0  0  0  0  0
  160.2910  211.0220  152.8860 C   0  0  0  0  0  0  0  0  0  0  0  0
  155.7960  214.3820  151.8010 C   0  0  0  0  0  3  0  0  0  0  0  0
  159.0800  210.3720  156.5300 C   0  0  0  0  0  2  0  0  0  0  0  0
  161.4780  210.9190  156.4380 C   0  0  0  0  0  3  0  0  0  0  0  0
  161.9010  209.0100  148.8960 C   0  0  0  0  0  1  0  0  0  0  0  0
  157.2660  214.3890  149.9920 F   0  0  0  0  0  0  0  0  0  0  0  0
  156.3820  214.1940  155.5080 F   0  0  0  0  0  0  0  0  0  0  0  0
  155.4340  214.2440  153.2700 C   0  0  0  0  0  2  0  0  0  0  0  0
  162.4240  210.1250  149.7790 C   0  0  2  0  0  3  0  0  0  0  0  0
  158.2510  214.1070  152.2510 C   0  0  1  0  0  3  0  0  0  0  0  0
  158.2530  212.4560  153.9050 C   0  0  0  0  0  0  0  0  0  0  0  0
  157.7630  211.4980  154.9690 C   0  0  2  0  0  3  0  0  0  0  0  0
  160.3720  210.2910  157.2610 C   0  0  0  0  0  2  0  0  0  0  0  0
  160.2760  209.1190  154.2900 O   0  0  0  0  0  0  0  0  0  0  0  0
  156.6460  214.4530  154.1770 C   0  0  2  0  0  3  0  0  0  0  0  0
  157.7980  213.6850  153.6100 C   0  0  0  0  0  0  0  0  0  0  0  0
  160.6690  210.3030  154.1170 C   0  0  0  0  0  0  0  0  0  0  0  0
  156.0620  211.4440  156.8480 C   0  0  0  0  0  1  0  0  0  0  0  0
  156.2750  211.5210  155.3460 C   0  0  0  0  0  3  0  0  0  0  0  0
  155.5670  210.3410  154.7070 C   0  0  0  0  0  1  0  0  0  0  0  0
  1 20  1  0  0  0  0
  1  3  1  0  0  0  0
  2 12  2  0  0  0  0
  3 11  2  0  0  0  0
  3 21  1  0  0  0  0
  4  1  2  0  0  0  0
  5  7  1  0  0  0  0
  6 14  2  0  0  0  0
  7 11  1  0  0  0  0
  8 19  1  0  0  0  0
  8 10  1  0  0  0  0
  9 13  1  0  0  0  0
 10  4  1  0  0  0  0
 10  7  2  0  0  0  0
 11 27  1  0  0  0  0
 12 18  1  0  0  0  0
 13 23  1  0  0  0  0
 14 23  1  0  0  0  0
 16  2  1  0  0  0  0
 18 25  1  0  0  0  0
 19 15  1  6  0  0  0
 19  5  1  0  0  0  0
 20  2  1  6  0  0  0
 20 26  1  0  0  0  0
 21 22  1  0  0  0  0
 22 29  1  1  0  0  0
 22  9  1  0  0  0  0
 25 17  1  1  0  0  0
 26 21  2  0  0  0  0
 26 25  1  0  0  0  0
 27 24  2  0  0  0  0
 27  6  1  0  0  0  0
 29 28  1  0  0  0  0
 30 29  1  0  0  0  0
M  END
>  <MODEL>
2

>  <REMARK>
 VINA RESULT:      -4.8      1.430      1.915
  Name = 
  1 active torsions:
  status: ('A' for Active; 'I' for Inactive)
    1  A    between atoms: C_11  and  C_25
                            x       y       z     vdW  Elec       q    Type
                         _______ _______ _______ _____ _____    ______ ____

>  <TORSDO>
F 1

$$$$
=
 OpenBabel11052421443D

 30 34  0  0  1  0  0  0  0  0999 V2000
  161.3250  209.1040  150.7420 C   0  0  0  0  0  0  0  0  0  0  0  0
  162.5660  206.9570  151.1300 C   0  0  0  0  0  0  0  0  0  0  0  0
  160.9270  209.9170  151.7230 C   0  0  0  0  0  0  0  0  0  0  0  0
  161.6280  209.5620  149.3390 C   0  0  0  0  0  3  0  0  0  0  0  0
  160.7950  213.5840  149.7810 S   0  0  0  0  0  0  0  0  0  0  0  0
  158.3690  212.0920  152.3860 C   0  0  0  0  0  3  0  0  0  0  0  0
  161.0100  211.8850  150.2890 C   0  0  0  0  0  0  0  0  0  0  0  0
  161.9160  211.7250  148.1550 C   0  0  0  0  0  2  0  0  0  0  0  0
  159.3610  210.1570  154.6190 N   0  0  0  0  0  2  0  0  0  0  0  0
  161.5810  211.0580  149.2410 C   0  0  0  0  0  0  0  0  0  0  0  0
  160.6490  211.3700  151.4780 C   0  0  0  0  0  0  0  0  0  0  0  0
  162.9980  206.2050  152.1660 C   0  0  0  0  0  3  0  0  0  0  0  0
  159.2170  211.3350  155.1000 C   0  0  0  0  0  2  0  0  0  0  0  0
  157.5420  212.0660  153.4510 C   0  0  0  0  0  3  0  0  0  0  0  0
  163.0530  213.9060  148.2610 C   0  0  0  0  0  1  0  0  0  0  0  0
  163.2720  206.9310  149.9680 F   0  0  0  0  0  0  0  0  0  0  0  0
  160.2030  206.6720  154.6330 F   0  0  0  0  0  0  0  0  0  0  0  0
  162.2940  206.1470  153.5110 C   0  0  0  0  0  2  0  0  0  0  0  0
  161.7090  213.2070  148.2360 C   0  0  2  0  0  3  0  0  0  0  0  0
  161.2290  207.6770  151.1620 C   0  0  1  0  0  3  0  0  0  0  0  0
  160.7330  209.1100  152.9390 C   0  0  0  0  0  0  0  0  0  0  0  0
  160.6880  209.6960  154.3330 C   0  0  2  0  0  3  0  0  0  0  0  0
  157.9300  212.0560  154.9150 C   0  0  0  0  0  2  0  0  0  0  0  0
  160.4260  213.0130  153.1650 O   0  0  0  0  0  0  0  0  0  0  0  0
  160.8310  206.5770  153.4070 C   0  0  2  0  0  3  0  0  0  0  0  0
  160.7630  207.8170  152.5730 C   0  0  0  0  0  0  0  0  0  0  0  0
  159.8490  212.1850  152.4100 C   0  0  0  0  0  0  0  0  0  0  0  0
  160.3980  208.5010  156.5500 C   0  0  0  0  0  1  0  0  0  0  0  0
  161.3770  208.9300  155.4720 C   0  0  0  0  0  3  0  0  0  0  0  0
  162.4330  209.8110  156.1140 C   0  0  0  0  0  1  0  0  0  0  0  0
  1  3  1  0  0  0  0
  2 20  1  0  0  0  0
  2 12  2  0  0  0  0
  3 21  1  0  0  0  0
  4  1  2  0  0  0  0
  5  7  1  0  0  0  0
  6 27  1  0  0  0  0
  6 14  2  0  0  0  0
  7 11  1  0  0  0  0
  8 19  1  0  0  0  0
  8 10  1  0  0  0  0
  9 13  1  0  0  0  0
 10  4  1  0  0  0  0
 10  7  2  0  0  0  0
 11  3  2  0  0  0  0
 11 27  1  0  0  0  0
 12 18  1  0  0  0  0
 14 23  1  0  0  0  0
 16  2  1  0  0  0  0
 19 15  1  1  0  0  0
 19  5  1  0  0  0  0
 20  1  1  1  0  0  0
 20 26  1  0  0  0  0
 21 22  1  0  0  0  0
 22  9  1  0  0  0  0
 22 29  1  1  0  0  0
 23 13  1  0  0  0  0
 25 18  1  0  0  0  0
 25 17  1  1  0  0  0
 26 21  2  0  0  0  0
 26 25  1  0  0  0  0
 27 24  2  0  0  0  0
 29 30  1  0  0  0  0
 29 28  1  0  0  0  0
M  END
>  <MODEL>
3

>  <REMARK>
 VINA RESULT:      -3.9      2.985      5.451
  Name = 
  1 active torsions:
  status: ('A' for Active; 'I' for Inactive)
    1  A    between atoms: C_11  and  C_25
                            x       y       z     vdW  Elec       q    Type
                         _______ _______ _______ _____ _____    ______ ____

>  <TORSDO>
F 1

$$$$
=
 OpenBabel11052421443D

 30 34  0  0  1  0  0  0  0  0999 V2000
  161.7620  209.8210  150.6930 C   0  0  0  0  0  0  0  0  0  0  0  0
  161.5130  210.8870  148.4340 C   0  0  0  0  0  0  0  0  0  0  0  0
  161.0630  210.1920  151.7670 C   0  0  0  0  0  0  0  0  0  0  0  0
  162.3220  208.4370  150.4880 C   0  0  0  0  0  3  0  0  0  0  0  0
  161.0500  206.7000  154.0130 S   0  0  0  0  0  0  0  0  0  0  0  0
  161.4580  210.3610  155.1630 C   0  0  0  0  0  3  0  0  0  0  0  0
  161.2160  207.9800  152.7790 C   0  0  0  0  0  0  0  0  0  0  0  0
  162.1030  206.2100  151.5620 C   0  0  0  0  0  2  0  0  0  0  0  0
  160.0680  212.7100  153.6570 N   0  0  0  0  0  2  0  0  0  0  0  0
  161.8520  207.5040  151.5640 C   0  0  0  0  0  0  0  0  0  0  0  0
  160.8560  209.2670  152.9300 C   0  0  0  0  0  0  0  0  0  0  0  0
  160.8310  211.9020  147.8580 C   0  0  0  0  0  3  0  0  0  0  0  0
  159.3980  212.4110  154.7070 C   0  0  0  0  0  2  0  0  0  0  0  0
  161.2980  211.4510  155.9420 C   0  0  0  0  0  3  0  0  0  0  0  0
  160.4740  204.5630  152.3950 C   0  0  0  0  0  1  0  0  0  0  0  0
  161.8350  209.8070  147.6750 F   0  0  0  0  0  0  0  0  0  0  0  0
  160.8300  214.4510  150.6180 F   0  0  0  0  0  0  0  0  0  0  0  0
  160.4180  213.1620  148.5980 C   0  0  0  0  0  2  0  0  0  0  0  0
  161.6240  205.4730  152.7750 C   0  0  2  0  0  3  0  0  0  0  0  0
  162.0850  210.9980  149.8360 C   0  0  1  0  0  3  0  0  0  0  0  0
  160.6890  211.6070  151.6070 C   0  0  0  0  0  0  0  0  0  0  0  0
  159.5720  212.2690  152.3850 C   0  0  2  0  0  3  0  0  0  0  0  0
  160.0810  212.3490  156.0260 C   0  0  0  0  0  2  0  0  0  0  0  0
  159.2630  209.5840  154.6490 O   0  0  0  0  0  0  0  0  0  0  0  0
  161.2710  213.3950  149.8450 C   0  0  2  0  0  3  0  0  0  0  0  0
  161.3990  212.0970  150.5780 C   0  0  0  0  0  0  0  0  0  0  0  0
  160.4490  209.7560  154.2600 C   0  0  0  0  0  0  0  0  0  0  0  0
  158.1570  214.3640  152.5740 C   0  0  0  0  0  1  0  0  0  0  0  0
  158.6620  213.2660  151.6540 C   0  0  0  0  0  3  0  0  0  0  0  0
  157.4590  212.5360  151.0850 C   0  0  0  0  0  1  0  0  0  0  0  0
  1  3  1  0  0  0  0
  3 11  2  0  0  0  0
  4  1  2  0  0  0  0
  4 10  1  0  0  0  0
  6 14  2  0  0  0  0
  7 11  1  0  0  0  0
  7  5  1  0  0  0  0
  8 10  1  0  0  0  0
  8 19  1  0  0  0  0
  9 13  1  0  0  0  0
 10  7  2  0  0  0  0
 11 27  1  0  0  0  0
 12  2  2  0  0  0  0
 12 18  1  0  0  0  0
 13 23  1  0  0  0  0
 14 23  1  0  0  0  0
 16  2  1  0  0  0  0
 18 25  1  0  0  0  0
 19 15  1  6  0  0  0
 19  5  1  0  0  0  0
 20  2  1  6  0  0  0
 20 26  1  0  0  0  0
 20  1  1  0  0  0  0
 21  3  1  0  0  0  0
 21 22  1  0  0  0  0
 22 29  1  6  0  0  0
 22  9  1  0  0  0  0
 25 26  1  0  0  0  0
 25 17  1  1  0  0  0
 26 21  2  0  0  0  0
 27 24  2  0  0  0  0
 27  6  1  0  0  0  0
 29 28  1  0  0  0  0
 30 29  1  0  0  0  0
M  END
>  <MODEL>
4

>  <REMARK>
 VINA RESULT:      -3.8      2.115      3.410
  Name = 
  1 active torsions:
  status: ('A' for Active; 'I' for Inactive)
    1  A    between atoms: C_11  and  C_25
                            x       y       z     vdW  Elec       q    Type
                         _______ _______ _______ _____ _____    ______ ____

>  <TORSDO>
F 1

$$$$
=
 OpenBabel11052421443D

 30 34  0  0  1  0  0  0  0  0999 V2000
  161.1180  210.6800  151.2380 C   0  0  0  0  0  0  0  0  0  0  0  0
  160.1770  212.4490  149.7250 C   0  0  0  0  0  0  0  0  0  0  0  0
  160.5870  210.3580  152.4190 C   0  0  0  0  0  0  0  0  0  0  0  0
  161.9230  209.7310  150.3880 C   0  0  0  0  0  3  0  0  0  0  0  0
  161.8250  206.4190  152.8560 S   0  0  0  0  0  0  0  0  0  0  0  0
  161.6190  209.2380  155.4840 C   0  0  0  0  0  3  0  0  0  0  0  0
  161.4400  208.0780  152.3170 C   0  0  0  0  0  0  0  0  0  0  0  0
  162.4380  207.3030  150.3660 C   0  0  0  0  0  2  0  0  0  0  0  0
  159.4550  211.4750  155.3130 N   0  0  0  0  0  2  0  0  0  0  0  0
  161.9060  208.3470  150.9680 C   0  0  0  0  0  0  0  0  0  0  0  0
  160.8370  209.0250  153.0580 C   0  0  0  0  0  0  0  0  0  0  0  0
  159.1800  213.3620  149.7240 C   0  0  0  0  0  3  0  0  0  0  0  0
  159.0990  210.5930  156.1700 C   0  0  0  0  0  2  0  0  0  0  0  0
  161.3780  209.8170  156.6790 C   0  0  0  0  0  3  0  0  0  0  0  0
  161.4290  205.0610  150.5080 C   0  0  0  0  0  1  0  0  0  0  0  0
  160.5740  211.9180  148.5390 F   0  0  0  0  0  0  0  0  0  0  0  0
  159.1650  214.4430  153.3230 F   0  0  0  0  0  0  0  0  0  0  0  0
  158.6530  214.0290  150.9830 C   0  0  0  0  0  2  0  0  0  0  0  0
  162.3960  206.0310  151.1570 C   0  0  2  0  0  3  0  0  0  0  0  0
  160.9840  212.1420  150.9750 C   0  0  1  0  0  3  0  0  0  0  0  0
  159.8780  211.5380  152.9420 C   0  0  0  0  0  0  0  0  0  0  0  0
  158.8230  211.4670  154.0250 C   0  0  2  0  0  3  0  0  0  0  0  0
  160.0340  210.2020  157.2590 C   0  0  0  0  0  2  0  0  0  0  0  0
  159.6000  208.1310  154.8650 O   0  0  0  0  0  0  0  0  0  0  0  0
  159.6670  213.9730  152.1250 C   0  0  2  0  0  3  0  0  0  0  0  0
  160.2330  212.5890  152.1850 C   0  0  0  0  0  0  0  0  0  0  0  0
  160.6100  208.7870  154.4960 C   0  0  0  0  0  0  0  0  0  0  0  0
  157.5610  213.4680  154.9360 C   0  0  0  0  0  1  0  0  0  0  0  0
  157.5810  212.3600  153.8980 C   0  0  0  0  0  3  0  0  0  0  0  0
  156.3290  211.5220  154.0780 C   0  0  0  0  0  1  0  0  0  0  0  0
  1  3  1  0  0  0  0
  3 21  1  0  0  0  0
  3 11  2  0  0  0  0
  4 10  1  0  0  0  0
  4  1  2  0  0  0  0
  6 14  2  0  0  0  0
  7  5  1  0  0  0  0
  7 11  1  0  0  0  0
  8 10  1  0  0  0  0
  8 19  1  0  0  0  0
  9 13  1  0  0  0  0
 10  7  2  0  0  0  0
 11 27  1  0  0  0  0
 12  2  2  0  0  0  0
 12 18  1  0  0  0  0
 13 23  1  0  0  0  0
 14 23  1  0  0  0  0
 16  2  1  0  0  0  0
 18 25  1  0  0  0  0
 19 15  1  6  0  0  0
 19  5  1  0  0  0  0
 20  2  1  6  0  0  0
 20  1  1  0  0  0  0
 20 26  1  0  0  0  0
 21 22  1  0  0  0  0
 22 29  1  1  0  0  0
 22  9  1  0  0  0  0
 25 26  1  0  0  0  0
 25 17  1  1  0  0  0
 26 21  2  0  0  0  0
 27 24  2  0  0  0  0
 27  6  1  0  0  0  0
 29 30  1  0  0  0  0
 29 28  1  0  0  0  0
M  END
>  <MODEL>
5

>  <REMARK>
 VINA RESULT:      -3.6      1.229      1.453
  Name = 
  1 active torsions:
  status: ('A' for Active; 'I' for Inactive)
    1  A    between atoms: C_11  and  C_25
                            x       y       z     vdW  Elec       q    Type
                         _______ _______ _______ _____ _____    ______ ____

>  <TORSDO>
F 1

$$$$
=
 OpenBabel11052421443D

 30 34  0  0  1  0  0  0  0  0999 V2000
  161.1180  208.8580  151.5480 C   0  0  0  0  0  0  0  0  0  0  0  0
  162.0960  206.8220  152.6440 C   0  0  0  0  0  0  0  0  0  0  0  0
  160.7220  209.9410  152.2180 C   0  0  0  0  0  0  0  0  0  0  0  0
  161.5870  208.8770  150.1160 C   0  0  0  0  0  3  0  0  0  0  0  0
  161.1330  212.9110  149.3460 S   0  0  0  0  0  0  0  0  0  0  0  0
  158.3500  212.3960  151.9700 C   0  0  0  0  0  3  0  0  0  0  0  0
  161.1280  211.4130  150.3190 C   0  0  0  0  0  0  0  0  0  0  0  0
  162.1960  210.5910  148.4260 C   0  0  0  0  0  2  0  0  0  0  0  0
  158.9410  211.1040  154.7440 N   0  0  0  0  0  2  0  0  0  0  0  0
  161.7020  210.2840  149.6080 C   0  0  0  0  0  0  0  0  0  0  0  0
  160.6150  211.2820  151.5560 C   0  0  0  0  0  0  0  0  0  0  0  0
  162.3570  206.3640  153.8880 C   0  0  0  0  0  3  0  0  0  0  0  0
  158.8770  212.3770  154.8650 C   0  0  0  0  0  2  0  0  0  0  0  0
  157.4350  212.7330  152.9030 C   0  0  0  0  0  3  0  0  0  0  0  0
  163.5350  212.6240  148.0580 C   0  0  0  0  0  1  0  0  0  0  0  0
  162.8940  206.4180  151.6210 F   0  0  0  0  0  0  0  0  0  0  0  0
  159.4200  207.7120  155.8040 F   0  0  0  0  0  0  0  0  0  0  0  0
  161.5370  206.7390  155.1100 C   0  0  0  0  0  2  0  0  0  0  0  0
  162.1350  212.0460  148.0750 C   0  0  2  0  0  3  0  0  0  0  0  0
  160.8410  207.6180  152.3280 C   0  0  1  0  0  3  0  0  0  0  0  0
  160.3410  209.5270  153.5780 C   0  0  0  0  0  0  0  0  0  0  0  0
  160.2350  210.4840  154.7460 C   0  0  2  0  0  3  0  0  0  0  0  0
  157.6900  213.1090  154.3470 C   0  0  0  0  0  2  0  0  0  0  0  0
  160.4140  213.3460  152.6930 O   0  0  0  0  0  0  0  0  0  0  0  0
  160.1400  207.2290  154.7290 C   0  0  2  0  0  3  0  0  0  0  0  0
  160.2710  208.1850  153.5860 C   0  0  0  0  0  0  0  0  0  0  0  0
  159.8240  212.3840  152.1340 C   0  0  0  0  0  0  0  0  0  0  0  0
  160.0210  210.7200  157.2610 C   0  0  0  0  0  1  0  0  0  0  0  0
  160.7410  210.0230  156.1200 C   0  0  0  0  0  3  0  0  0  0  0  0
  162.2240  210.3200  156.2450 C   0  0  0  0  0  1  0  0  0  0  0  0
  1  3  1  0  0  0  0
  2 12  2  0  0  0  0
  3 21  1  0  0  0  0
  4  1  2  0  0  0  0
  5  7  1  0  0  0  0
  6 27  1  0  0  0  0
  6 14  2  0  0  0  0
  7 11  1  0  0  0  0
  8 10  1  0  0  0  0
  9 22  1  0  0  0  0
  9 13  1  0  0  0  0
 10  4  1  0  0  0  0
 10  7  2  0  0  0  0
 11 27  1  0  0  0  0
 11  3  2  0  0  0  0
 12 18  1  0  0  0  0
 14 23  1  0  0  0  0
 16  2  1  0  0  0  0
 19 15  1  1  0  0  0
 19  8  1  0  0  0  0
 19  5  1  0  0  0  0
 20  1  1  6  0  0  0
 20  2  1  0  0  0  0
 20 26  1  0  0  0  0
 21 26  2  0  0  0  0
 21 22  1  0  0  0  0
 22 29  1  1  0  0  0
 23 13  1  0  0  0  0
 25 18  1  0  0  0  0
 25 17  1  1  0  0  0
 26 25  1  0  0  0  0
 27 24  2  0  0  0  0
 29 30  1  0  0  0  0
 29 28  1  0  0  0  0
M  END
>  <MODEL>
6

>  <REMARK>
 VINA RESULT:      -3.5      2.908      5.223
  Name = 
  1 active torsions:
  status: ('A' for Active; 'I' for Inactive)
    1  A    between atoms: C_11  and  C_25
                            x       y       z     vdW  Elec       q    Type
                         _______ _______ _______ _____ _____    ______ ____

>  <TORSDO>
F 1

$$$$
=
 OpenBabel11052421443D

 30 34  0  0  1  0  0  0  0  0999 V2000
  161.6140  210.0710  150.9260 C   0  0  0  0  0  0  0  0  0  0  0  0
  161.0210  211.5930  149.0200 C   0  0  0  0  0  0  0  0  0  0  0  0
  160.9630  210.0560  152.0900 C   0  0  0  0  0  0  0  0  0  0  0  0
  162.3490  208.8860  150.3540 C   0  0  0  0  0  3  0  0  0  0  0  0
  161.6470  206.1720  153.3880 S   0  0  0  0  0  0  0  0  0  0  0  0
  161.6180  209.4670  155.3970 C   0  0  0  0  0  3  0  0  0  0  0  0
  161.5200  207.7210  152.5080 C   0  0  0  0  0  0  0  0  0  0  0  0
  162.5470  206.4610  150.8460 C   0  0  0  0  0  2  0  0  0  0  0  0
  159.7800  211.8520  154.5950 N   0  0  0  0  0  2  0  0  0  0  0  0
  162.1130  207.6580  151.1830 C   0  0  0  0  0  0  0  0  0  0  0  0
  160.9920  208.8580  152.9930 C   0  0  0  0  0  0  0  0  0  0  0  0
  160.1530  212.5930  148.7480 C   0  0  0  0  0  3  0  0  0  0  0  0
  159.2520  211.2070  155.5670 C   0  0  0  0  0  2  0  0  0  0  0  0
  161.3690  210.2980  156.4310 C   0  0  0  0  0  3  0  0  0  0  0  0
  161.2500  204.4220  151.3160 C   0  0  0  0  0  1  0  0  0  0  0  0
  161.4300  210.7930  148.0000 F   0  0  0  0  0  0  0  0  0  0  0  0
  160.0190  214.3720  152.0550 F   0  0  0  0  0  0  0  0  0  0  0  0
  159.6270  213.5550  149.8000 C   0  0  0  0  0  2  0  0  0  0  0  0
  162.2850  205.3870  151.8570 C   0  0  2  0  0  3  0  0  0  0  0  0
  161.6890  211.4560  150.3760 C   0  0  1  0  0  3  0  0  0  0  0  0
  160.3760  211.3880  152.3070 C   0  0  0  0  0  0  0  0  0  0  0  0
  159.2460  211.6560  153.2780 C   0  0  2  0  0  3  0  0  0  0  0  0
  160.0470  210.9400  156.7940 C   0  0  0  0  0  2  0  0  0  0  0  0
  159.5230  208.4920  154.8100 O   0  0  0  0  0  0  0  0  0  0  0  0
  160.5410  213.6170  151.0230 C   0  0  2  0  0  3  0  0  0  0  0  0
  160.9170  212.2190  151.4010 C   0  0  0  0  0  0  0  0  0  0  0  0
  160.6340  208.9420  154.4210 C   0  0  0  0  0  0  0  0  0  0  0  0
  157.0550  212.7590  153.9170 C   0  0  0  0  0  1  0  0  0  0  0  0
  158.1410  212.6390  152.8630 C   0  0  0  0  0  3  0  0  0  0  0  0
  157.4980  212.1680  151.5720 C   0  0  0  0  0  1  0  0  0  0  0  0
  1  3  1  0  0  0  0
  3 21  1  0  0  0  0
  3 11  2  0  0  0  0
  4  1  2  0  0  0  0
  4 10  1  0  0  0  0
  6 14  2  0  0  0  0
  7 11  1  0  0  0  0
  7  5  1  0  0  0  0
  8 10  1  0  0  0  0
  8 19  1  0  0  0  0
  9 13  1  0  0  0  0
 10  7  2  0  0  0  0
 11 27  1  0  0  0  0
 12  2  2  0  0  0  0
 12 18  1  0  0  0  0
 13 23  1  0  0  0  0
 14 23  1  0  0  0  0
 16  2  1  0  0  0  0
 18 25  1  0  0  0  0
 19 15  1  6  0  0  0
 19  5  1  0  0  0  0
 20  2  1  6  0  0  0
 20  1  1  0  0  0  0
 20 26  1  0  0  0  0
 21 22  1  0  0  0  0
 22 29  1  6  0  0  0
 22  9  1  0  0  0  0
 25 26  1  0  0  0  0
 25 17  1  1  0  0  0
 26 21  2  0  0  0  0
 27 24  2  0  0  0  0
 27  6  1  0  0  0  0
 29 28  1  0  0  0  0
 30 29  1  0  0  0  0
M  END
>  <MODEL>
7

>  <REMARK>
 VINA RESULT:      -2.3      1.659      2.451
  Name = 
  1 active torsions:
  status: ('A' for Active; 'I' for Inactive)
    1  A    between atoms: C_11  and  C_25
                            x       y       z     vdW  Elec       q    Type
                         _______ _______ _______ _____ _____    ______ ____

>  <TORSDO>
F 1

$$$$
