=
 OpenBabel11062410283D

 43 48  0  0  1  0  0  0  0  0999 V2000
  161.9920  211.6310  148.6530 N   0  0  0  0  0  0  0  0  0  0  0  0
  161.1910  204.2970  148.2290 C   0  0  0  0  0  0  0  0  0  0  0  0
  161.9900  212.2400  147.2870 C   0  0  2  0  0  3  0  0  0  0  0  0
  162.0910  213.0930  148.3670 C   0  0  0  0  0  2  0  0  0  0  0  0
  161.6320  208.3290  151.2210 C   0  0  0  0  0  0  0  0  0  0  0  0
  161.8990  210.5140  149.5280 C   0  0  0  0  0  0  0  0  0  0  0  0
  161.3430  205.7770  150.1380 C   0  0  0  0  0  0  0  0  0  0  0  0
  161.3510  205.3820  147.3680 C   0  0  0  0  0  3  0  0  0  0  0  0
  161.0260  203.0630  147.7210 F   0  0  0  0  0  0  0  0  0  0  0  0
  161.4960  206.8810  149.2690 C   0  0  0  0  0  0  0  0  0  0  0  0
  161.1900  204.4930  149.6120 C   0  0  0  0  0  3  0  0  0  0  0  0
  161.5050  206.6680  147.8840 C   0  0  0  0  0  3  0  0  0  0  0  0
  161.7680  209.2600  149.0170 N   0  0  0  0  0  0  0  0  0  0  0  0
  161.6360  208.1660  149.8180 C   0  0  0  0  0  0  0  0  0  0  0  0
  161.4840  207.2000  152.0350 C   0  0  0  0  0  3  0  0  0  0  0  0
  161.7810  209.6170  151.7650 C   0  0  0  0  0  0  0  0  0  0  0  0
  161.9070  210.7130  150.9090 C   0  0  0  0  0  3  0  0  0  0  0  0
  161.3430  205.9650  151.4850 N   0  0  0  0  0  0  0  0  0  0  0  0
  161.7780  209.8510  153.2440 C   0  0  0  0  0  2  0  0  0  0  0  0
  158.8100  210.6450  155.4600 C   0  0  0  0  0  3  0  0  0  0  0  0
  157.9660  211.3100  154.5640 C   0  0  0  0  0  0  0  0  0  0  0  0
  159.6130  211.0300  152.8120 C   0  0  0  0  0  3  0  0  0  0  0  0
  160.0500  210.1650  155.0270 C   0  0  0  0  0  3  0  0  0  0  0  0
  160.4510  210.3530  153.7000 C   0  0  0  0  0  0  0  0  0  0  0  0
  158.3710  211.5070  153.2430 C   0  0  0  0  0  3  0  0  0  0  0  0
  155.7200  210.6760  155.3320 C   0  0  0  0  0  1  0  0  0  0  0  0
  156.6480  211.8260  155.0180 C   0  0  0  0  0  2  0  0  0  0  0  0
  160.2930  212.2400  146.6510 S   0  0  0  0  0  0  0  0  0  0  0  0
  160.8120  212.8700  145.0190 C   0  0  0  0  0  2  0  0  0  0  0  0
  160.4490  211.5670  142.8490 C   0  0  0  0  0  2  0  0  0  0  0  0
  159.3140  213.9310  141.7840 C   0  0  0  0  0  2  0  0  0  0  0  0
  159.8310  212.5110  143.8960 C   0  0  2  0  0  3  0  0  0  0  0  0
  159.2000  213.7300  143.2650 C   0  0  0  0  0  0  0  0  0  0  0  0
  161.0980  212.3260  141.7250 C   0  0  0  0  0  0  0  0  0  0  0  0
  160.5770  213.4200  141.2880 N   0  0  0  0  0  0  0  0  0  0  0  0
  158.3880  214.4510  143.9420 N   0  0  0  0  0  2  0  0  0  0  0  0
  162.3820  211.8280  141.1500 C   0  0  0  0  0  2  0  0  0  0  0  0
  162.1750  211.1440  139.8180 C   0  0  0  0  0  2  0  0  0  0  0  0
  161.5850  209.8280  139.9970 N   0  0  0  0  0  2  0  0  0  0  0  0
  161.2550  207.9130  137.9090 N   0  0  0  0  0  2  0  0  0  0  0  0
  159.0670  208.7060  137.3430 C   0  0  0  0  0  1  0  0  0  0  0  0
  160.3020  208.7480  138.1600 C   0  0  0  0  0  0  0  0  0  0  0  0
  160.4590  209.7730  139.1640 N   0  0  0  0  0  2  0  0  0  0  0  0
  1  6  1  0  0  0  0
  2 11  1  0  0  0  0
  3 28  1  1  0  0  0
  3  4  1  0  0  0  0
  3  1  1  0  0  0  0
  4  1  1  0  0  0  0
  5 16  1  0  0  0  0
  5 15  1  0  0  0  0
  6 17  1  0  0  0  0
  7 18  1  0  0  0  0
  8 12  1  0  0  0  0
  8  2  2  0  0  0  0
  9  2  1  0  0  0  0
 10 14  1  0  0  0  0
 10  7  1  0  0  0  0
 11  7  2  0  0  0  0
 12 10  2  0  0  0  0
 13  6  2  0  0  0  0
 13 14  1  0  0  0  0
 14  5  2  0  0  0  0
 16 19  1  0  0  0  0
 17 16  2  0  0  0  0
 18 15  2  0  0  0  0
 19 24  1  0  0  0  0
 21 27  1  0  0  0  0
 21 20  2  0  0  0  0
 22 25  2  0  0  0  0
 22 24  1  0  0  0  0
 23 20  1  0  0  0  0
 24 23  2  0  0  0  0
 25 21  1  0  0  0  0
 27 26  1  0  0  0  0
 29 28  1  0  0  0  0
 30 32  1  0  0  0  0
 31 33  1  0  0  0  0
 32 29  1  1  0  0  0
 33 32  1  0  0  0  0
 33 36  2  0  0  0  0
 34 30  1  0  0  0  0
 35 34  2  0  0  0  0
 35 31  1  0  0  0  0
 37 34  1  0  0  0  0
 38 39  1  0  0  0  0
 38 37  1  0  0  0  0
 40 42  2  0  0  0  0
 41 42  1  0  0  0  0
 42 43  1  0  0  0  0
 43 39  1  0  0  0  0
M  END
>  <MODEL>
1

>  <REMARK>
 VINA RESULT:      -8.7      0.000      0.000
  Name = 
  10 active torsions:
  status: ('A' for Active; 'I' for Inactive)
    1  A    between atoms: C_1  and  C_34
    2  A    between atoms: C_1  and  C_35
    3  A    between atoms: C_3  and  C_12
    4  A    between atoms: C_3  and  S_17
    5  A    between atoms: C_6  and  S_17
    6  A    between atoms: C_11  and  C_14
    7  A    between atoms: C_11  and  N_36
    8  A    between atoms: C_14  and  C_22
    9  A    between atoms: C_19  and  C_37
   10  A    between atoms: N_36  and  N_40
                            x       y       z     vdW  Elec       q    Type
                         _______ _______ _______ _____ _____    ______ ____

>  <TORSDO>
F 10

$$$$
=
 OpenBabel11062410283D

 43 48  0  0  1  0  0  0  0  0999 V2000
  162.1690  210.5620  149.2040 N   0  0  0  0  0  0  0  0  0  0  0  0
  161.5030  203.7910  146.3210 C   0  0  0  0  0  0  0  0  0  0  0  0
  162.4400  211.5680  148.1290 C   0  0  2  0  0  3  0  0  0  0  0  0
  162.3170  212.0320  149.4230 C   0  0  0  0  0  2  0  0  0  0  0  0
  161.3140  206.6510  150.4660 C   0  0  0  0  0  0  0  0  0  0  0  0
  161.9070  209.2360  149.6420 C   0  0  0  0  0  0  0  0  0  0  0  0
  161.2600  204.5880  148.5930 C   0  0  0  0  0  0  0  0  0  0  0  0
  161.8300  205.0800  145.8980 C   0  0  0  0  0  3  0  0  0  0  0  0
  161.4500  202.7910  145.4240 F   0  0  0  0  0  0  0  0  0  0  0  0
  161.5810  205.8970  148.1680 C   0  0  0  0  0  0  0  0  0  0  0  0
  161.2230  203.5440  147.6670 C   0  0  0  0  0  3  0  0  0  0  0  0
  161.8700  206.1280  146.8160 C   0  0  0  0  0  3  0  0  0  0  0  0
  161.8880  208.2150  148.7440 N   0  0  0  0  0  0  0  0  0  0  0  0
  161.6020  206.9360  149.1130 C   0  0  0  0  0  0  0  0  0  0  0  0
  161.0100  205.3350  150.8340 C   0  0  0  0  0  3  0  0  0  0  0  0
  161.3430  207.6940  151.4100 C   0  0  0  0  0  0  0  0  0  0  0  0
  161.6350  208.9920  150.9890 C   0  0  0  0  0  3  0  0  0  0  0  0
  160.9880  204.3450  149.9030 N   0  0  0  0  0  0  0  0  0  0  0  0
  161.0410  207.4530  152.8580 C   0  0  0  0  0  2  0  0  0  0  0  0
  159.6490  210.8980  153.5930 C   0  0  0  0  0  3  0  0  0  0  0  0
  160.1580  211.1340  154.8750 C   0  0  0  0  0  0  0  0  0  0  0  0
  161.2350  208.9670  154.8420 C   0  0  0  0  0  3  0  0  0  0  0  0
  159.9420  209.7000  152.9340 C   0  0  0  0  0  3  0  0  0  0  0  0
  160.7400  208.7350  153.5570 C   0  0  0  0  0  0  0  0  0  0  0  0
  160.9450  210.1660  155.5000 C   0  0  0  0  0  3  0  0  0  0  0  0
  159.0820  213.3340  154.6700 C   0  0  0  0  0  1  0  0  0  0  0  0
  159.8470  212.4050  155.5820 C   0  0  0  0  0  2  0  0  0  0  0  0
  160.9070  211.8680  147.2110 S   0  0  0  0  0  0  0  0  0  0  0  0
  161.3750  213.5880  146.8210 C   0  0  0  0  0  2  0  0  0  0  0  0
  159.2710  214.3830  145.6040 C   0  0  0  0  0  2  0  0  0  0  0  0
  159.9860  212.6190  143.5090 C   0  0  0  0  0  2  0  0  0  0  0  0
  160.7780  214.0880  145.4990 C   0  0  2  0  0  3  0  0  0  0  0  0
  161.1030  213.1800  144.3360 C   0  0  0  0  0  0  0  0  0  0  0  0
  158.4390  213.1800  145.2570 C   0  0  0  0  0  0  0  0  0  0  0  0
  158.8120  212.3740  144.3250 N   0  0  0  0  0  0  0  0  0  0  0  0
  162.3110  213.0810  143.9220 N   0  0  0  0  0  2  0  0  0  0  0  0
  157.2000  212.8960  146.0400 C   0  0  0  0  0  2  0  0  0  0  0  0
  156.8590  214.0260  146.9830 C   0  0  0  0  0  2  0  0  0  0  0  0
  156.9880  213.6040  148.3680 N   0  0  0  0  0  2  0  0  0  0  0  0
  158.0670  213.0500  150.9490 N   0  0  0  0  0  2  0  0  0  0  0  0
  159.9780  214.4510  150.6000 C   0  0  0  0  0  1  0  0  0  0  0  0
  158.7070  213.8370  150.1500 C   0  0  0  0  0  0  0  0  0  0  0  0
  158.1600  214.1930  148.8620 N   0  0  0  0  0  2  0  0  0  0  0  0
  1  4  1  0  0  0  0
  1  6  1  0  0  0  0
  2 11  1  0  0  0  0
  3 28  1  6  0  0  0
  3  1  1  0  0  0  0
  3  4  1  0  0  0  0
  5 15  1  0  0  0  0
  5 16  1  0  0  0  0
  6 17  1  0  0  0  0
  7 18  1  0  0  0  0
  8  2  2  0  0  0  0
  8 12  1  0  0  0  0
  9  2  1  0  0  0  0
 10  7  1  0  0  0  0
 10 14  1  0  0  0  0
 11  7  2  0  0  0  0
 12 10  2  0  0  0  0
 13 14  1  0  0  0  0
 13  6  2  0  0  0  0
 14  5  2  0  0  0  0
 16 19  1  0  0  0  0
 17 16  2  0  0  0  0
 18 15  2  0  0  0  0
 19 24  1  0  0  0  0
 20 21  1  0  0  0  0
 21 25  2  0  0  0  0
 21 27  1  0  0  0  0
 22 25  1  0  0  0  0
 23 24  1  0  0  0  0
 23 20  2  0  0  0  0
 24 22  2  0  0  0  0
 26 27  1  0  0  0  0
 29 28  1  0  0  0  0
 31 35  1  0  0  0  0
 31 33  1  0  0  0  0
 32 30  1  0  0  0  0
 32 29  1  1  0  0  0
 33 32  1  0  0  0  0
 34 30  1  0  0  0  0
 34 37  1  0  0  0  0
 35 34  2  0  0  0  0
 36 33  2  0  0  0  0
 37 38  1  0  0  0  0
 38 39  1  0  0  0  0
 39 43  1  0  0  0  0
 42 41  1  0  0  0  0
 42 40  2  0  0  0  0
 43 42  1  0  0  0  0
M  END
>  <MODEL>
2

>  <REMARK>
 VINA RESULT:      -8.6      2.877      5.225
  Name = 
  10 active torsions:
  status: ('A' for Active; 'I' for Inactive)
    1  A    between atoms: C_1  and  C_34
    2  A    between atoms: C_1  and  C_35
    3  A    between atoms: C_3  and  C_12
    4  A    between atoms: C_3  and  S_17
    5  A    between atoms: C_6  and  S_17
    6  A    between atoms: C_11  and  C_14
    7  A    between atoms: C_11  and  N_36
    8  A    between atoms: C_14  and  C_22
    9  A    between atoms: C_19  and  C_37
   10  A    between atoms: N_36  and  N_40
                            x       y       z     vdW  Elec       q    Type
                         _______ _______ _______ _____ _____    ______ ____

>  <TORSDO>
F 10

$$$$
=
 OpenBabel11062410283D

 43 48  0  0  1  0  0  0  0  0999 V2000
  162.1080  209.6470  149.6900 N   0  0  0  0  0  0  0  0  0  0  0  0
  161.2390  203.1750  146.2330 C   0  0  0  0  0  0  0  0  0  0  0  0
  162.3060  210.7510  148.6980 C   0  0  2  0  0  3  0  0  0  0  0  0
  162.2730  211.0910  150.0360 C   0  0  0  0  0  2  0  0  0  0  0  0
  161.3370  205.6300  150.6330 C   0  0  0  0  0  0  0  0  0  0  0  0
  161.8750  208.2850  150.0180 C   0  0  0  0  0  0  0  0  0  0  0  0
  161.1530  203.7520  148.5810 C   0  0  0  0  0  0  0  0  0  0  0  0
  161.5370  204.4990  145.9120 C   0  0  0  0  0  3  0  0  0  0  0  0
  161.1230  202.2630  145.2520 F   0  0  0  0  0  0  0  0  0  0  0  0
  161.4450  205.0970  148.2610 C   0  0  0  0  0  0  0  0  0  0  0  0
  161.0500  202.8010  147.5660 C   0  0  0  0  0  3  0  0  0  0  0  0
  161.6410  205.4560  146.9200 C   0  0  0  0  0  3  0  0  0  0  0  0
  161.7930  207.3520  149.0300 N   0  0  0  0  0  0  0  0  0  0  0  0
  161.5320  206.0430  149.2960 C   0  0  0  0  0  0  0  0  0  0  0  0
  161.0570  204.2840  150.8950 C   0  0  0  0  0  3  0  0  0  0  0  0
  161.4330  206.5790  151.6660 C   0  0  0  0  0  0  0  0  0  0  0  0
  161.6970  207.9140  151.3510 C   0  0  0  0  0  3  0  0  0  0  0  0
  160.9710  203.3860  149.8780 N   0  0  0  0  0  0  0  0  0  0  0  0
  161.2300  206.2020  153.1020 C   0  0  0  0  0  2  0  0  0  0  0  0
  160.6300  209.7940  154.1420 C   0  0  0  0  0  3  0  0  0  0  0  0
  160.1140  209.6270  155.4310 C   0  0  0  0  0  0  0  0  0  0  0  0
  160.3190  207.2260  155.1970 C   0  0  0  0  0  3  0  0  0  0  0  0
  160.9990  208.6780  153.3850 C   0  0  0  0  0  3  0  0  0  0  0  0
  160.8480  207.3920  153.9150 C   0  0  0  0  0  0  0  0  0  0  0  0
  159.9530  208.3420  155.9540 C   0  0  0  0  0  3  0  0  0  0  0  0
  160.3720  212.0560  155.6920 C   0  0  0  0  0  1  0  0  0  0  0  0
  159.7170  210.8100  156.2400 C   0  0  0  0  0  2  0  0  0  0  0  0
  160.7140  211.1280  147.9200 S   0  0  0  0  0  0  0  0  0  0  0  0
  161.1560  212.8800  147.6620 C   0  0  0  0  0  2  0  0  0  0  0  0
  159.0200  214.2770  147.8070 C   0  0  0  0  0  2  0  0  0  0  0  0
  157.9930  212.6680  145.7160 C   0  0  0  0  0  2  0  0  0  0  0  0
  160.0890  213.6610  146.8860 C   0  0  2  0  0  3  0  0  0  0  0  0
  159.4800  212.8540  145.7630 C   0  0  0  0  0  0  0  0  0  0  0  0
  157.8570  213.3470  148.0140 C   0  0  0  0  0  0  0  0  0  0  0  0
  157.4380  212.5980  147.0540 N   0  0  0  0  0  0  0  0  0  0  0  0
  160.1920  212.5330  144.7490 N   0  0  0  0  0  2  0  0  0  0  0  0
  157.2210  213.2590  149.3620 C   0  0  0  0  0  2  0  0  0  0  0  0
  158.1080  213.8370  150.4410 C   0  0  0  0  0  2  0  0  0  0  0  0
  158.1490  212.9640  151.6030 N   0  0  0  0  0  2  0  0  0  0  0  0
  157.1970  211.7700  154.0120 N   0  0  0  0  0  2  0  0  0  0  0  0
  156.7090  213.8840  155.0260 C   0  0  0  0  0  1  0  0  0  0  0  0
  157.2090  213.0580  153.9040 C   0  0  0  0  0  0  0  0  0  0  0  0
  157.6220  213.6950  152.6770 N   0  0  0  0  0  2  0  0  0  0  0  0
  1  6  1  0  0  0  0
  1  4  1  0  0  0  0
  2 11  1  0  0  0  0
  3 28  1  6  0  0  0
  3  1  1  0  0  0  0
  3  4  1  0  0  0  0
  5 15  1  0  0  0  0
  5 16  1  0  0  0  0
  6 17  1  0  0  0  0
  7 18  1  0  0  0  0
  8  2  2  0  0  0  0
  8 12  1  0  0  0  0
  9  2  1  0  0  0  0
 10  7  1  0  0  0  0
 10 14  1  0  0  0  0
 11  7  2  0  0  0  0
 12 10  2  0  0  0  0
 13 14  1  0  0  0  0
 13  6  2  0  0  0  0
 14  5  2  0  0  0  0
 16 19  1  0  0  0  0
 17 16  2  0  0  0  0
 18 15  2  0  0  0  0
 19 24  1  0  0  0  0
 20 21  1  0  0  0  0
 21 25  2  0  0  0  0
 21 27  1  0  0  0  0
 22 25  1  0  0  0  0
 23 24  1  0  0  0  0
 23 20  2  0  0  0  0
 24 22  2  0  0  0  0
 26 27  1  0  0  0  0
 29 28  1  0  0  0  0
 30 34  1  0  0  0  0
 31 33  1  0  0  0  0
 31 35  1  0  0  0  0
 32 29  1  1  0  0  0
 32 30  1  0  0  0  0
 33 32  1  0  0  0  0
 34 37  1  0  0  0  0
 35 34  2  0  0  0  0
 36 33  2  0  0  0  0
 37 38  1  0  0  0  0
 38 39  1  0  0  0  0
 39 43  1  0  0  0  0
 42 40  2  0  0  0  0
 42 41  1  0  0  0  0
 43 42  1  0  0  0  0
M  END
>  <MODEL>
3

>  <REMARK>
 VINA RESULT:      -8.1      3.502      6.678
  Name = 
  10 active torsions:
  status: ('A' for Active; 'I' for Inactive)
    1  A    between atoms: C_1  and  C_34
    2  A    between atoms: C_1  and  C_35
    3  A    between atoms: C_3  and  C_12
    4  A    between atoms: C_3  and  S_17
    5  A    between atoms: C_6  and  S_17
    6  A    between atoms: C_11  and  C_14
    7  A    between atoms: C_11  and  N_36
    8  A    between atoms: C_14  and  C_22
    9  A    between atoms: C_19  and  C_37
   10  A    between atoms: N_36  and  N_40
                            x       y       z     vdW  Elec       q    Type
                         _______ _______ _______ _____ _____    ______ ____

>  <TORSDO>
F 10

$$$$
=
 OpenBabel11062410283D

 43 48  0  0  1  0  0  0  0  0999 V2000
  162.2500  208.9140  148.9750 N   0  0  0  0  0  0  0  0  0  0  0  0
  158.4830  212.6990  154.0830 C   0  0  0  0  0  0  0  0  0  0  0  0
  162.2690  207.4560  149.3090 C   0  0  2  0  0  3  0  0  0  0  0  0
  162.8850  207.8520  148.1390 C   0  0  0  0  0  2  0  0  0  0  0  0
  161.0130  212.8550  149.7270 C   0  0  0  0  0  0  0  0  0  0  0  0
  161.8590  210.2550  149.2380 C   0  0  0  0  0  0  0  0  0  0  0  0
  159.5380  213.4130  152.0250 C   0  0  0  0  0  0  0  0  0  0  0  0
  158.9250  211.3950  153.8640 C   0  0  0  0  0  3  0  0  0  0  0  0
  157.7500  212.9790  155.1740 F   0  0  0  0  0  0  0  0  0  0  0  0
  159.9790  212.0900  151.7930 C   0  0  0  0  0  0  0  0  0  0  0  0
  158.7920  213.7080  153.1670 C   0  0  0  0  0  3  0  0  0  0  0  0
  159.6710  211.0910  152.7250 C   0  0  0  0  0  3  0  0  0  0  0  0
  161.1480  210.5480  150.3610 N   0  0  0  0  0  0  0  0  0  0  0  0
  160.7180  211.8110  150.6320 C   0  0  0  0  0  0  0  0  0  0  0  0
  160.5580  214.1480  150.0090 C   0  0  0  0  0  3  0  0  0  0  0  0
  161.7600  212.5710  148.5690 C   0  0  0  0  0  0  0  0  0  0  0  0
  162.1770  211.2610  148.3250 C   0  0  0  0  0  3  0  0  0  0  0  0
  159.8380  214.3970  151.1350 N   0  0  0  0  0  0  0  0  0  0  0  0
  162.0990  213.6360  147.5710 C   0  0  0  0  0  2  0  0  0  0  0  0
  161.9410  212.9770  143.8450 C   0  0  0  0  0  3  0  0  0  0  0  0
  160.6020  212.6030  143.6860 C   0  0  0  0  0  0  0  0  0  0  0  0
  160.2440  212.8950  146.0620 C   0  0  0  0  0  3  0  0  0  0  0  0
  162.4260  213.3190  145.1100 C   0  0  0  0  0  3  0  0  0  0  0  0
  161.5760  213.2830  146.2200 C   0  0  0  0  0  0  0  0  0  0  0  0
  159.7570  212.5560  144.7960 C   0  0  0  0  0  3  0  0  0  0  0  0
  161.0750  211.3560  141.6220 C   0  0  0  0  0  1  0  0  0  0  0  0
  160.0800  212.2350  142.3430 C   0  0  0  0  0  2  0  0  0  0  0  0
  160.6380  206.7540  148.9460 S   0  0  0  0  0  0  0  0  0  0  0  0
  161.3090  205.0660  148.7630 C   0  0  0  0  0  2  0  0  0  0  0  0
  160.0140  204.3890  150.8600 C   0  0  0  0  0  2  0  0  0  0  0  0
  161.2760  201.8640  150.6540 C   0  0  0  0  0  2  0  0  0  0  0  0
  160.4370  203.9970  149.4330 C   0  0  2  0  0  3  0  0  0  0  0  0
  161.0610  202.6220  149.3790 C   0  0  0  0  0  0  0  0  0  0  0  0
  160.9960  203.9030  151.8890 C   0  0  0  0  0  0  0  0  0  0  0  0
  161.5840  202.7660  151.7460 N   0  0  0  0  0  0  0  0  0  0  0  0
  161.1870  202.0230  148.2550 N   0  0  0  0  0  2  0  0  0  0  0  0
  161.3260  204.7740  153.0560 C   0  0  0  0  0  2  0  0  0  0  0  0
  161.9020  206.1020  152.6210 C   0  0  0  0  0  2  0  0  0  0  0  0
  161.0760  207.2040  153.0870 N   0  0  0  0  0  2  0  0  0  0  0  0
  161.3000  208.8570  155.4000 N   0  0  0  0  0  2  0  0  0  0  0  0
  160.0950  207.3170  156.7830 C   0  0  0  0  0  1  0  0  0  0  0  0
  160.6700  207.7320  155.4830 C   0  0  0  0  0  0  0  0  0  0  0  0
  160.5930  206.8390  154.3520 N   0  0  0  0  0  2  0  0  0  0  0  0
  1  6  1  0  0  0  0
  1  3  1  0  0  0  0
  2  9  1  0  0  0  0
  3 28  1  6  0  0  0
  4  1  1  0  0  0  0
  4  3  1  0  0  0  0
  5 15  1  0  0  0  0
  5 14  1  0  0  0  0
  6 13  1  0  0  0  0
  7 11  1  0  0  0  0
  8  2  1  0  0  0  0
 10  7  2  0  0  0  0
 10 12  1  0  0  0  0
 11  2  2  0  0  0  0
 12  8  2  0  0  0  0
 13 14  2  0  0  0  0
 14 10  1  0  0  0  0
 15 18  2  0  0  0  0
 16  5  2  0  0  0  0
 17 16  1  0  0  0  0
 17  6  2  0  0  0  0
 18  7  1  0  0  0  0
 19 16  1  0  0  0  0
 20 23  1  0  0  0  0
 21 20  2  0  0  0  0
 21 25  1  0  0  0  0
 22 24  1  0  0  0  0
 23 24  2  0  0  0  0
 24 19  1  0  0  0  0
 25 22  2  0  0  0  0
 26 27  1  0  0  0  0
 27 21  1  0  0  0  0
 29 28  1  0  0  0  0
 30 34  1  0  0  0  0
 31 35  1  0  0  0  0
 32 29  1  1  0  0  0
 32 30  1  0  0  0  0
 33 32  1  0  0  0  0
 33 31  1  0  0  0  0
 34 37  1  0  0  0  0
 35 34  2  0  0  0  0
 36 33  2  0  0  0  0
 38 37  1  0  0  0  0
 38 39  1  0  0  0  0
 39 43  1  0  0  0  0
 40 42  2  0  0  0  0
 42 41  1  0  0  0  0
 43 42  1  0  0  0  0
M  END
>  <MODEL>
4

>  <REMARK>
 VINA RESULT:      -8.0      4.270     10.758
  Name = 
  10 active torsions:
  status: ('A' for Active; 'I' for Inactive)
    1  A    between atoms: C_1  and  C_34
    2  A    between atoms: C_1  and  C_35
    3  A    between atoms: C_3  and  C_12
    4  A    between atoms: C_3  and  S_17
    5  A    between atoms: C_6  and  S_17
    6  A    between atoms: C_11  and  C_14
    7  A    between atoms: C_11  and  N_36
    8  A    between atoms: C_14  and  C_22
    9  A    between atoms: C_19  and  C_37
   10  A    between atoms: N_36  and  N_40
                            x       y       z     vdW  Elec       q    Type
                         _______ _______ _______ _____ _____    ______ ____

>  <TORSDO>
F 10

$$$$
=
 OpenBabel11062410283D

 43 48  0  0  1  0  0  0  0  0999 V2000
  161.9810  208.0750  148.8920 N   0  0  0  0  0  0  0  0  0  0  0  0
  160.0540  208.1400  156.0260 C   0  0  0  0  0  0  0  0  0  0  0  0
  162.1770  206.6710  148.4130 C   0  0  2  0  0  3  0  0  0  0  0  0
  162.3330  207.6880  147.4940 C   0  0  0  0  0  2  0  0  0  0  0  0
  160.9130  210.8450  151.8610 C   0  0  0  0  0  0  0  0  0  0  0  0
  161.6480  209.0200  149.9000 C   0  0  0  0  0  0  0  0  0  0  0  0
  160.3000  209.9370  154.4240 C   0  0  0  0  0  0  0  0  0  0  0  0
  160.4480  207.2160  155.0580 C   0  0  0  0  0  3  0  0  0  0  0  0
  159.7310  207.7140  157.2600 F   0  0  0  0  0  0  0  0  0  0  0  0
  160.6910  209.0040  153.4370 C   0  0  0  0  0  0  0  0  0  0  0  0
  159.9830  209.4990  155.7110 C   0  0  0  0  0  3  0  0  0  0  0  0
  160.7670  207.6450  153.7700 C   0  0  0  0  0  3  0  0  0  0  0  0
  161.3570  208.5960  151.1600 N   0  0  0  0  0  0  0  0  0  0  0  0
  160.9940  209.4630  152.1450 C   0  0  0  0  0  0  0  0  0  0  0  0
  160.5280  211.7260  152.8770 C   0  0  0  0  0  3  0  0  0  0  0  0
  161.2250  211.3000  150.5670 C   0  0  0  0  0  0  0  0  0  0  0  0
  161.5870  210.3780  149.5830 C   0  0  0  0  0  3  0  0  0  0  0  0
  160.2320  211.2610  154.1200 N   0  0  0  0  0  0  0  0  0  0  0  0
  161.1520  212.7520  150.2050 C   0  0  0  0  0  2  0  0  0  0  0  0
  162.6680  213.2160  146.7660 C   0  0  0  0  0  3  0  0  0  0  0  0
  161.5230  213.2720  145.9640 C   0  0  0  0  0  0  0  0  0  0  0  0
  160.1380  212.9810  147.9280 C   0  0  0  0  0  3  0  0  0  0  0  0
  162.5460  213.0520  148.1490 C   0  0  0  0  0  3  0  0  0  0  0  0
  161.2790  212.9390  148.7320 C   0  0  0  0  0  0  0  0  0  0  0  0
  160.2600  213.1480  146.5450 C   0  0  0  0  0  3  0  0  0  0  0  0
  163.0970  213.3690  144.0800 C   0  0  0  0  0  1  0  0  0  0  0  0
  161.6460  213.4430  144.4910 C   0  0  0  0  0  2  0  0  0  0  0  0
  160.5530  205.8930  148.2100 S   0  0  0  0  0  0  0  0  0  0  0  0
  160.4540  205.4360  149.9740 C   0  0  0  0  0  2  0  0  0  0  0  0
  161.6350  203.2880  149.2470 C   0  0  0  0  0  2  0  0  0  0  0  0
  160.9090  202.2050  151.7600 C   0  0  0  0  0  2  0  0  0  0  0  0
  161.4420  204.3290  150.3650 C   0  0  2  0  0  3  0  0  0  0  0  0
  161.1030  203.6900  151.6900 C   0  0  0  0  0  0  0  0  0  0  0  0
  160.6640  202.1460  149.3730 C   0  0  0  0  0  0  0  0  0  0  0  0
  160.3230  201.7020  150.5330 N   0  0  0  0  0  0  0  0  0  0  0  0
  161.2100  204.3670  152.7710 N   0  0  0  0  0  2  0  0  0  0  0  0
  160.0560  201.5640  148.1400 C   0  0  0  0  0  2  0  0  0  0  0  0
  161.1030  201.2010  147.1130 C   0  0  0  0  0  2  0  0  0  0  0  0
  160.7340  201.6950  145.7970 N   0  0  0  0  0  2  0  0  0  0  0  0
  159.7020  203.8770  144.2770 N   0  0  0  0  0  2  0  0  0  0  0  0
  161.5740  205.2850  144.7750 C   0  0  0  0  0  1  0  0  0  0  0  0
  160.8310  204.0100  144.8910 C   0  0  0  0  0  0  0  0  0  0  0  0
  161.4160  202.9070  145.6150 N   0  0  0  0  0  2  0  0  0  0  0  0
  1  6  1  0  0  0  0
  2  9  1  0  0  0  0
  3 28  1  6  0  0  0
  3  1  1  0  0  0  0
  4  3  1  0  0  0  0
  4  1  1  0  0  0  0
  5 14  1  0  0  0  0
  5 15  1  0  0  0  0
  6 13  1  0  0  0  0
  7 11  2  0  0  0  0
  8  2  2  0  0  0  0
 10 12  2  0  0  0  0
 10  7  1  0  0  0  0
 11  2  1  0  0  0  0
 12  8  1  0  0  0  0
 13 14  2  0  0  0  0
 14 10  1  0  0  0  0
 15 18  2  0  0  0  0
 16  5  2  0  0  0  0
 17  6  2  0  0  0  0
 17 16  1  0  0  0  0
 18  7  1  0  0  0  0
 19 16  1  0  0  0  0
 20 23  1  0  0  0  0
 21 25  1  0  0  0  0
 21 20  2  0  0  0  0
 22 24  1  0  0  0  0
 23 24  2  0  0  0  0
 24 19  1  0  0  0  0
 25 22  2  0  0  0  0
 26 27  1  0  0  0  0
 27 21  1  0  0  0  0
 28 29  1  0  0  0  0
 30 34  1  0  0  0  0
 30 32  1  0  0  0  0
 32 29  1  6  0  0  0
 32 33  1  0  0  0  0
 33 31  1  0  0  0  0
 33 36  2  0  0  0  0
 34 35  2  0  0  0  0
 35 31  1  0  0  0  0
 37 34  1  0  0  0  0
 38 37  1  0  0  0  0
 39 38  1  0  0  0  0
 40 42  2  0  0  0  0
 41 42  1  0  0  0  0
 42 43  1  0  0  0  0
 43 39  1  0  0  0  0
M  END
>  <MODEL>
5

>  <REMARK>
 VINA RESULT:      -7.6      4.327      8.784
  Name = 
  10 active torsions:
  status: ('A' for Active; 'I' for Inactive)
    1  A    between atoms: C_1  and  C_34
    2  A    between atoms: C_1  and  C_35
    3  A    between atoms: C_3  and  C_12
    4  A    between atoms: C_3  and  S_17
    5  A    between atoms: C_6  and  S_17
    6  A    between atoms: C_11  and  C_14
    7  A    between atoms: C_11  and  N_36
    8  A    between atoms: C_14  and  C_22
    9  A    between atoms: C_19  and  C_37
   10  A    between atoms: N_36  and  N_40
                            x       y       z     vdW  Elec       q    Type
                         _______ _______ _______ _____ _____    ______ ____

>  <TORSDO>
F 10

$$$$
=
 OpenBabel11062410283D

 43 48  0  0  1  0  0  0  0  0999 V2000
  162.2730  208.8110  148.8060 N   0  0  0  0  0  0  0  0  0  0  0  0
  158.6550  212.2310  154.2670 C   0  0  0  0  0  0  0  0  0  0  0  0
  162.3310  207.3370  149.0550 C   0  0  2  0  0  3  0  0  0  0  0  0
  162.8910  207.8100  147.8860 C   0  0  0  0  0  2  0  0  0  0  0  0
  161.0000  212.6790  149.8280 C   0  0  0  0  0  0  0  0  0  0  0  0
  161.8700  210.1270  149.1590 C   0  0  0  0  0  0  0  0  0  0  0  0
  159.6110  213.0780  152.2110 C   0  0  0  0  0  0  0  0  0  0  0  0
  159.1110  210.9500  153.9560 C   0  0  0  0  0  3  0  0  0  0  0  0
  157.9630  212.4350  155.4010 F   0  0  0  0  0  0  0  0  0  0  0  0
  160.0660  211.7800  151.8870 C   0  0  0  0  0  0  0  0  0  0  0  0
  158.9080  213.2950  153.3970 C   0  0  0  0  0  3  0  0  0  0  0  0
  159.8140  210.7240  152.7740 C   0  0  0  0  0  3  0  0  0  0  0  0
  161.2010  210.3430  150.3240 N   0  0  0  0  0  0  0  0  0  0  0  0
  160.7610  211.5810  150.6830 C   0  0  0  0  0  0  0  0  0  0  0  0
  160.5330  213.9450  150.2000 C   0  0  0  0  0  3  0  0  0  0  0  0
  161.7030  212.4750  148.6270 C   0  0  0  0  0  0  0  0  0  0  0  0
  162.1320  211.1890  148.2920 C   0  0  0  0  0  3  0  0  0  0  0  0
  159.8570  214.1160  151.3670 N   0  0  0  0  0  0  0  0  0  0  0  0
  161.9810  213.6000  147.6770 C   0  0  0  0  0  2  0  0  0  0  0  0
  162.1710  212.9890  143.9440 C   0  0  0  0  0  3  0  0  0  0  0  0
  160.8840  212.5120  143.6750 C   0  0  0  0  0  0  0  0  0  0  0  0
  160.3160  212.7380  146.0180 C   0  0  0  0  0  3  0  0  0  0  0  0
  162.5260  213.3480  145.2470 C   0  0  0  0  0  3  0  0  0  0  0  0
  161.5970  213.2270  146.2860 C   0  0  0  0  0  0  0  0  0  0  0  0
  159.9600  212.3810  144.7140 C   0  0  0  0  0  3  0  0  0  0  0  0
  161.6970  211.5670  141.5590 C   0  0  0  0  0  1  0  0  0  0  0  0
  160.5010  212.1250  142.2920 C   0  0  0  0  0  2  0  0  0  0  0  0
  160.6990  206.6240  148.7200 S   0  0  0  0  0  0  0  0  0  0  0  0
  160.4820  206.0870  150.4510 C   0  0  0  0  0  2  0  0  0  0  0  0
  161.6600  203.9120  149.8050 C   0  0  0  0  0  2  0  0  0  0  0  0
  160.9860  202.9470  152.3790 C   0  0  0  0  0  2  0  0  0  0  0  0
  161.4820  205.0050  150.8740 C   0  0  2  0  0  3  0  0  0  0  0  0
  161.1710  204.4280  152.2350 C   0  0  0  0  0  0  0  0  0  0  0  0
  160.6980  202.7740  150.0020 C   0  0  0  0  0  0  0  0  0  0  0  0
  160.3810  202.3840  151.1880 N   0  0  0  0  0  0  0  0  0  0  0  0
  161.2940  205.1560  153.2810 N   0  0  0  0  0  2  0  0  0  0  0  0
  160.0700  202.1300  148.8100 C   0  0  0  0  0  2  0  0  0  0  0  0
  161.1060  201.6120  147.8400 C   0  0  0  0  0  2  0  0  0  0  0  0
  160.8410  202.0910  146.4930 N   0  0  0  0  0  2  0  0  0  0  0  0
  160.3140  204.0730  144.5110 N   0  0  0  0  0  2  0  0  0  0  0  0
  162.1350  205.4590  145.2190 C   0  0  0  0  0  1  0  0  0  0  0  0
  161.2940  204.2460  145.3350 C   0  0  0  0  0  0  0  0  0  0  0  0
  161.6320  203.2350  146.3080 N   0  0  0  0  0  2  0  0  0  0  0  0
  1  3  1  0  0  0  0
  1  6  1  0  0  0  0
  2  9  1  0  0  0  0
  3 28  1  6  0  0  0
  4  1  1  0  0  0  0
  4  3  1  0  0  0  0
  5 15  1  0  0  0  0
  5 14  1  0  0  0  0
  6 13  1  0  0  0  0
  7 11  1  0  0  0  0
  8  2  1  0  0  0  0
 10  7  2  0  0  0  0
 10 12  1  0  0  0  0
 11  2  2  0  0  0  0
 12  8  2  0  0  0  0
 13 14  2  0  0  0  0
 14 10  1  0  0  0  0
 15 18  2  0  0  0  0
 16  5  2  0  0  0  0
 17 16  1  0  0  0  0
 17  6  2  0  0  0  0
 18  7  1  0  0  0  0
 19 16  1  0  0  0  0
 20 23  1  0  0  0  0
 21 20  2  0  0  0  0
 21 25  1  0  0  0  0
 22 24  1  0  0  0  0
 23 24  2  0  0  0  0
 24 19  1  0  0  0  0
 25 22  2  0  0  0  0
 26 27  1  0  0  0  0
 27 21  1  0  0  0  0
 28 29  1  0  0  0  0
 30 34  1  0  0  0  0
 30 32  1  0  0  0  0
 32 29  1  6  0  0  0
 32 33  1  0  0  0  0
 33 31  1  0  0  0  0
 33 36  2  0  0  0  0
 34 35  2  0  0  0  0
 35 31  1  0  0  0  0
 37 34  1  0  0  0  0
 38 37  1  0  0  0  0
 39 38  1  0  0  0  0
 40 42  2  0  0  0  0
 41 42  1  0  0  0  0
 42 43  1  0  0  0  0
 43 39  1  0  0  0  0
M  END
>  <MODEL>
6

>  <REMARK>
 VINA RESULT:      -7.4      3.900      9.489
  Name = 
  10 active torsions:
  status: ('A' for Active; 'I' for Inactive)
    1  A    between atoms: C_1  and  C_34
    2  A    between atoms: C_1  and  C_35
    3  A    between atoms: C_3  and  C_12
    4  A    between atoms: C_3  and  S_17
    5  A    between atoms: C_6  and  S_17
    6  A    between atoms: C_11  and  C_14
    7  A    between atoms: C_11  and  N_36
    8  A    between atoms: C_14  and  C_22
    9  A    between atoms: C_19  and  C_37
   10  A    between atoms: N_36  and  N_40
                            x       y       z     vdW  Elec       q    Type
                         _______ _______ _______ _____ _____    ______ ____

>  <TORSDO>
F 10

$$$$
=
 OpenBabel11062410283D

 43 48  0  0  1  0  0  0  0  0999 V2000
  162.0440  208.3760  149.0110 N   0  0  0  0  0  0  0  0  0  0  0  0
  160.0360  207.6060  156.0800 C   0  0  0  0  0  0  0  0  0  0  0  0
  162.2840  207.0380  148.3830 C   0  0  2  0  0  3  0  0  0  0  0  0
  162.4220  208.1540  147.5830 C   0  0  0  0  0  2  0  0  0  0  0  0
  160.8660  210.7740  152.2490 C   0  0  0  0  0  0  0  0  0  0  0  0
  161.6740  209.1960  150.1110 C   0  0  0  0  0  0  0  0  0  0  0  0
  160.2500  209.5740  154.6890 C   0  0  0  0  0  0  0  0  0  0  0  0
  160.4670  206.8050  155.0230 C   0  0  0  0  0  3  0  0  0  0  0  0
  159.7120  207.0390  157.2560 F   0  0  0  0  0  0  0  0  0  0  0  0
  160.6780  208.7660  153.6110 C   0  0  0  0  0  0  0  0  0  0  0  0
  159.9310  208.9900  155.9150 C   0  0  0  0  0  3  0  0  0  0  0  0
  160.7870  207.3810  153.7940 C   0  0  0  0  0  3  0  0  0  0  0  0
  161.3800  208.6290  151.3120 N   0  0  0  0  0  0  0  0  0  0  0  0
  160.9820  209.3720  152.3810 C   0  0  0  0  0  0  0  0  0  0  0  0
  160.4460  211.5280  153.3500 C   0  0  0  0  0  3  0  0  0  0  0  0
  161.1800  211.3760  151.0180 C   0  0  0  0  0  0  0  0  0  0  0  0
  161.5790  210.5770  149.9440 C   0  0  0  0  0  3  0  0  0  0  0  0
  160.1490  210.9220  154.5300 N   0  0  0  0  0  0  0  0  0  0  0  0
  161.0710  212.8570  150.8160 C   0  0  0  0  0  2  0  0  0  0  0  0
  157.4960  213.4140  149.6970 C   0  0  0  0  0  3  0  0  0  0  0  0
  157.6820  213.8360  148.3760 C   0  0  0  0  0  0  0  0  0  0  0  0
  160.0770  213.6270  148.6510 C   0  0  0  0  0  3  0  0  0  0  0  0
  158.6000  213.0890  150.4890 C   0  0  0  0  0  3  0  0  0  0  0  0
  159.8930  213.1910  149.9650 C   0  0  0  0  0  0  0  0  0  0  0  0
  158.9730  213.9480  147.8570 C   0  0  0  0  0  3  0  0  0  0  0  0
  156.7510  213.7460  146.1040 C   0  0  0  0  0  1  0  0  0  0  0  0
  156.5100  214.1860  147.5280 C   0  0  0  0  0  2  0  0  0  0  0  0
  160.6850  206.2450  148.0740 S   0  0  0  0  0  0  0  0  0  0  0  0
  160.5630  205.6250  149.7860 C   0  0  0  0  0  2  0  0  0  0  0  0
  161.5850  203.4680  148.8700 C   0  0  0  0  0  2  0  0  0  0  0  0
  160.8760  202.2540  151.3260 C   0  0  0  0  0  2  0  0  0  0  0  0
  161.4930  204.4370  150.0620 C   0  0  2  0  0  3  0  0  0  0  0  0
  161.1580  203.7260  151.3520 C   0  0  0  0  0  0  0  0  0  0  0  0
  160.5520  202.3790  148.9510 C   0  0  0  0  0  0  0  0  0  0  0  0
  160.2220  201.8740  150.0890 N   0  0  0  0  0  0  0  0  0  0  0  0
  161.3410  204.3170  152.4730 N   0  0  0  0  0  2  0  0  0  0  0  0
  159.8690  201.9220  147.7040 C   0  0  0  0  0  2  0  0  0  0  0  0
  160.8600  201.5020  146.6430 C   0  0  0  0  0  2  0  0  0  0  0  0
  160.6130  202.2050  145.3950 N   0  0  0  0  0  2  0  0  0  0  0  0
  160.0880  204.8690  144.5220 N   0  0  0  0  0  2  0  0  0  0  0  0
  162.3540  205.5690  144.8560 C   0  0  0  0  0  1  0  0  0  0  0  0
  161.2810  204.5500  144.9020 C   0  0  0  0  0  0  0  0  0  0  0  0
  161.5990  203.1960  145.2870 N   0  0  0  0  0  2  0  0  0  0  0  0
  1  6  1  0  0  0  0
  2  9  1  0  0  0  0
  3 28  1  6  0  0  0
  3  1  1  0  0  0  0
  4  3  1  0  0  0  0
  4  1  1  0  0  0  0
  5 14  1  0  0  0  0
  5 15  1  0  0  0  0
  6 13  1  0  0  0  0
  7 11  2  0  0  0  0
  8  2  2  0  0  0  0
 10 12  2  0  0  0  0
 10  7  1  0  0  0  0
 11  2  1  0  0  0  0
 12  8  1  0  0  0  0
 13 14  2  0  0  0  0
 14 10  1  0  0  0  0
 15 18  2  0  0  0  0
 16  5  2  0  0  0  0
 17  6  2  0  0  0  0
 17 16  1  0  0  0  0
 18  7  1  0  0  0  0
 19 16  1  0  0  0  0
 20 23  1  0  0  0  0
 21 20  2  0  0  0  0
 22 24  1  0  0  0  0
 24 23  2  0  0  0  0
 24 19  1  0  0  0  0
 25 21  1  0  0  0  0
 25 22  2  0  0  0  0
 26 27  1  0  0  0  0
 27 21  1  0  0  0  0
 28 29  1  0  0  0  0
 30 34  1  0  0  0  0
 30 32  1  0  0  0  0
 31 33  1  0  0  0  0
 32 29  1  6  0  0  0
 32 33  1  0  0  0  0
 33 36  2  0  0  0  0
 34 35  2  0  0  0  0
 35 31  1  0  0  0  0
 37 34  1  0  0  0  0
 38 37  1  0  0  0  0
 39 38  1  0  0  0  0
 40 42  2  0  0  0  0
 41 42  1  0  0  0  0
 42 43  1  0  0  0  0
 43 39  1  0  0  0  0
M  END
>  <MODEL>
7

>  <REMARK>
 VINA RESULT:      -7.4      4.695      8.137
  Name = 
  10 active torsions:
  status: ('A' for Active; 'I' for Inactive)
    1  A    between atoms: C_1  and  C_34
    2  A    between atoms: C_1  and  C_35
    3  A    between atoms: C_3  and  C_12
    4  A    between atoms: C_3  and  S_17
    5  A    between atoms: C_6  and  S_17
    6  A    between atoms: C_11  and  C_14
    7  A    between atoms: C_11  and  N_36
    8  A    between atoms: C_14  and  C_22
    9  A    between atoms: C_19  and  C_37
   10  A    between atoms: N_36  and  N_40
                            x       y       z     vdW  Elec       q    Type
                         _______ _______ _______ _____ _____    ______ ____

>  <TORSDO>
F 10

$$$$
=
 OpenBabel11062410283D

 43 48  0  0  1  0  0  0  0  0999 V2000
  161.7320  210.9460  149.5990 N   0  0  0  0  0  0  0  0  0  0  0  0
  157.4200  213.2430  155.1440 C   0  0  0  0  0  0  0  0  0  0  0  0
  162.7150  209.9280  150.0840 C   0  0  2  0  0  3  0  0  0  0  0  0
  162.7270  210.2390  148.7400 C   0  0  0  0  0  2  0  0  0  0  0  0
  158.4680  213.5130  150.2220 C   0  0  0  0  0  0  0  0  0  0  0  0
  160.6450  211.8380  149.8080 C   0  0  0  0  0  0  0  0  0  0  0  0
  157.4090  213.7850  152.7850 C   0  0  0  0  0  0  0  0  0  0  0  0
  158.5300  212.4200  154.9550 C   0  0  0  0  0  3  0  0  0  0  0  0
  156.8840  213.3650  156.3700 F   0  0  0  0  0  0  0  0  0  0  0  0
  158.5280  212.9450  152.5870 C   0  0  0  0  0  0  0  0  0  0  0  0
  156.8620  213.9270  154.0610 C   0  0  0  0  0  3  0  0  0  0  0  0
  159.0840  212.2720  153.6840 C   0  0  0  0  0  3  0  0  0  0  0  0
  160.1220  211.9920  151.0550 N   0  0  0  0  0  0  0  0  0  0  0  0
  159.0570  212.8050  151.2930 C   0  0  0  0  0  0  0  0  0  0  0  0
  157.3660  214.3370  150.4750 C   0  0  0  0  0  3  0  0  0  0  0  0
  159.0060  213.3750  148.9290 C   0  0  0  0  0  0  0  0  0  0  0  0
  160.0960  212.5270  148.7260 C   0  0  0  0  0  3  0  0  0  0  0  0
  156.8650  214.4530  151.7330 N   0  0  0  0  0  0  0  0  0  0  0  0
  158.4220  214.0960  147.7530 C   0  0  0  0  0  2  0  0  0  0  0  0
  160.9040  213.9330  144.8970 C   0  0  0  0  0  3  0  0  0  0  0  0
  160.3700  212.8950  144.1250 C   0  0  0  0  0  0  0  0  0  0  0  0
  158.5710  212.6370  145.7240 C   0  0  0  0  0  3  0  0  0  0  0  0
  160.2650  214.3270  146.0760 C   0  0  0  0  0  3  0  0  0  0  0  0
  159.0940  213.6820  146.4890 C   0  0  0  0  0  0  0  0  0  0  0  0
  159.2080  212.2440  144.5430 C   0  0  0  0  0  3  0  0  0  0  0  0
  162.4170  213.0960  142.7810 C   0  0  0  0  0  1  0  0  0  0  0  0
  161.0460  212.4680  142.8710 C   0  0  0  0  0  2  0  0  0  0  0  0
  161.8460  208.3600  150.3530 S   0  0  0  0  0  0  0  0  0  0  0  0
  162.2880  207.7320  148.6980 C   0  0  0  0  0  2  0  0  0  0  0  0
  160.3480  206.1430  149.1970 C   0  0  0  0  0  2  0  0  0  0  0  0
  161.5850  204.3030  147.4380 C   0  0  0  0  0  2  0  0  0  0  0  0
  161.2310  206.7860  148.1130 C   0  0  2  0  0  3  0  0  0  0  0  0
  161.8250  205.7600  147.1770 C   0  0  0  0  0  0  0  0  0  0  0  0
  160.9140  204.8370  149.6800 C   0  0  0  0  0  0  0  0  0  0  0  0
  161.5070  204.0390  148.8610 N   0  0  0  0  0  0  0  0  0  0  0  0
  162.3250  206.1300  146.0580 N   0  0  0  0  0  2  0  0  0  0  0  0
  160.8310  204.4950  151.1310 C   0  0  0  0  0  2  0  0  0  0  0  0
  161.7870  205.3220  151.9590 C   0  0  0  0  0  2  0  0  0  0  0  0
  161.2350  205.5870  153.2780 N   0  0  0  0  0  2  0  0  0  0  0  0
  160.4430  206.9050  155.6800 N   0  0  0  0  0  2  0  0  0  0  0  0
  160.7800  209.0880  154.7530 C   0  0  0  0  0  1  0  0  0  0  0  0
  160.8050  207.6100  154.6590 C   0  0  0  0  0  0  0  0  0  0  0  0
  161.1490  206.9800  153.4070 N   0  0  0  0  0  2  0  0  0  0  0  0
  1  6  1  0  0  0  0
  1  3  1  0  0  0  0
  2  9  1  0  0  0  0
  3 28  1  6  0  0  0
  4  1  1  0  0  0  0
  4  3  1  0  0  0  0
  5 15  1  0  0  0  0
  5 14  1  0  0  0  0
  6 13  1  0  0  0  0
  7 11  1  0  0  0  0
  8  2  1  0  0  0  0
 10  7  2  0  0  0  0
 10 12  1  0  0  0  0
 11  2  2  0  0  0  0
 12  8  2  0  0  0  0
 13 14  2  0  0  0  0
 14 10  1  0  0  0  0
 15 18  2  0  0  0  0
 16  5  2  0  0  0  0
 17 16  1  0  0  0  0
 17  6  2  0  0  0  0
 18  7  1  0  0  0  0
 19 16  1  0  0  0  0
 20 23  1  0  0  0  0
 21 25  1  0  0  0  0
 21 20  2  0  0  0  0
 22 24  1  0  0  0  0
 23 24  2  0  0  0  0
 24 19  1  0  0  0  0
 25 22  2  0  0  0  0
 26 27  1  0  0  0  0
 27 21  1  0  0  0  0
 29 28  1  0  0  0  0
 30 34  1  0  0  0  0
 31 35  1  0  0  0  0
 32 29  1  1  0  0  0
 32 30  1  0  0  0  0
 33 31  1  0  0  0  0
 33 32  1  0  0  0  0
 34 37  1  0  0  0  0
 35 34  2  0  0  0  0
 36 33  2  0  0  0  0
 37 38  1  0  0  0  0
 38 39  1  0  0  0  0
 39 43  1  0  0  0  0
 42 41  1  0  0  0  0
 42 40  2  0  0  0  0
 43 42  1  0  0  0  0
M  END
>  <MODEL>
8

>  <REMARK>
 VINA RESULT:      -6.1      4.125     10.217
  Name = 
  10 active torsions:
  status: ('A' for Active; 'I' for Inactive)
    1  A    between atoms: C_1  and  C_34
    2  A    between atoms: C_1  and  C_35
    3  A    between atoms: C_3  and  C_12
    4  A    between atoms: C_3  and  S_17
    5  A    between atoms: C_6  and  S_17
    6  A    between atoms: C_11  and  C_14
    7  A    between atoms: C_11  and  N_36
    8  A    between atoms: C_14  and  C_22
    9  A    between atoms: C_19  and  C_37
   10  A    between atoms: N_36  and  N_40
                            x       y       z     vdW  Elec       q    Type
                         _______ _______ _______ _____ _____    ______ ____

>  <TORSDO>
F 10

$$$$
=
 OpenBabel11062410283D

 43 48  0  0  1  0  0  0  0  0999 V2000
  162.1790  209.9030  149.2430 N   0  0  0  0  0  0  0  0  0  0  0  0
  158.7460  212.4060  155.2900 C   0  0  0  0  0  0  0  0  0  0  0  0
  162.6750  208.5080  149.4590 C   0  0  2  0  0  3  0  0  0  0  0  0
  162.8810  209.0750  148.2180 C   0  0  0  0  0  2  0  0  0  0  0  0
  160.0990  213.3180  150.5210 C   0  0  0  0  0  0  0  0  0  0  0  0
  161.5010  211.0730  149.6790 C   0  0  0  0  0  0  0  0  0  0  0  0
  159.0770  213.4090  153.1130 C   0  0  0  0  0  0  0  0  0  0  0  0
  159.4720  211.2840  154.8880 C   0  0  0  0  0  3  0  0  0  0  0  0
  158.2260  212.4530  156.5280 F   0  0  0  0  0  0  0  0  0  0  0  0
  159.8040  212.2710  152.6980 C   0  0  0  0  0  0  0  0  0  0  0  0
  158.5520  213.4690  154.4040 C   0  0  0  0  0  3  0  0  0  0  0  0
  160.0000  211.2160  153.6000 C   0  0  0  0  0  3  0  0  0  0  0  0
  161.0050  211.1400  150.9440 N   0  0  0  0  0  0  0  0  0  0  0  0
  160.3140  212.2250  151.3900 C   0  0  0  0  0  0  0  0  0  0  0  0
  159.3780  214.4240  150.9850 C   0  0  0  0  0  3  0  0  0  0  0  0
  160.6180  213.2710  149.2150 C   0  0  0  0  0  0  0  0  0  0  0  0
  161.3160  212.1370  148.7940 C   0  0  0  0  0  3  0  0  0  0  0  0
  158.8870  214.4460  152.2530 N   0  0  0  0  0  0  0  0  0  0  0  0
  160.4180  214.3970  148.2470 C   0  0  0  0  0  2  0  0  0  0  0  0
  162.6670  213.8210  145.2540 C   0  0  0  0  0  3  0  0  0  0  0  0
  161.7660  213.2800  144.3310 C   0  0  0  0  0  0  0  0  0  0  0  0
  159.9890  213.4610  145.9650 C   0  0  0  0  0  3  0  0  0  0  0  0
  162.2260  214.1900  146.5290 C   0  0  0  0  0  3  0  0  0  0  0  0
  160.8840  214.0140  146.8840 C   0  0  0  0  0  0  0  0  0  0  0  0
  160.4300  213.0950  144.6900 C   0  0  0  0  0  3  0  0  0  0  0  0
  161.2460  211.9220  142.3500 C   0  0  0  0  0  1  0  0  0  0  0  0
  162.2300  212.8830  142.9750 C   0  0  0  0  0  2  0  0  0  0  0  0
  161.2640  207.3720  149.3980 S   0  0  0  0  0  0  0  0  0  0  0  0
  160.8340  207.6750  151.1460 C   0  0  0  0  0  2  0  0  0  0  0  0
  162.4130  205.6910  151.4750 C   0  0  0  0  0  2  0  0  0  0  0  0
  160.9580  205.1030  153.8300 C   0  0  0  0  0  2  0  0  0  0  0  0
  161.7280  206.9050  152.1270 C   0  0  2  0  0  3  0  0  0  0  0  0
  161.0080  206.5390  153.4030 C   0  0  0  0  0  0  0  0  0  0  0  0
  161.5870  204.4430  151.6100 C   0  0  0  0  0  0  0  0  0  0  0  0
  160.9040  204.2230  152.6790 N   0  0  0  0  0  0  0  0  0  0  0  0
  160.6510  207.4570  154.2210 N   0  0  0  0  0  2  0  0  0  0  0  0
  161.5220  203.4810  150.4700 C   0  0  0  0  0  2  0  0  0  0  0  0
  160.6910  204.0180  149.3270 C   0  0  0  0  0  2  0  0  0  0  0  0
  161.2810  203.6660  148.0460 N   0  0  0  0  0  2  0  0  0  0  0  0
  162.2560  203.8160  145.3700 N   0  0  0  0  0  2  0  0  0  0  0  0
  160.9440  205.7530  144.8570 C   0  0  0  0  0  1  0  0  0  0  0  0
  161.3930  204.6850  145.7800 C   0  0  0  0  0  0  0  0  0  0  0  0
  160.9260  204.6810  147.1460 N   0  0  0  0  0  2  0  0  0  0  0  0
  1  3  1  0  0  0  0
  1  6  1  0  0  0  0
  2  9  1  0  0  0  0
  3 28  1  6  0  0  0
  4  1  1  0  0  0  0
  4  3  1  0  0  0  0
  5 15  1  0  0  0  0
  5 14  1  0  0  0  0
  6 13  1  0  0  0  0
  7 11  1  0  0  0  0
  8  2  1  0  0  0  0
 10  7  2  0  0  0  0
 10 12  1  0  0  0  0
 11  2  2  0  0  0  0
 12  8  2  0  0  0  0
 13 14  2  0  0  0  0
 14 10  1  0  0  0  0
 15 18  2  0  0  0  0
 16  5  2  0  0  0  0
 17 16  1  0  0  0  0
 17  6  2  0  0  0  0
 18  7  1  0  0  0  0
 19 16  1  0  0  0  0
 20 23  1  0  0  0  0
 21 25  1  0  0  0  0
 21 20  2  0  0  0  0
 22 24  1  0  0  0  0
 23 24  2  0  0  0  0
 24 19  1  0  0  0  0
 25 22  2  0  0  0  0
 26 27  1  0  0  0  0
 27 21  1  0  0  0  0
 28 29  1  0  0  0  0
 30 34  1  0  0  0  0
 30 32  1  0  0  0  0
 32 29  1  6  0  0  0
 32 33  1  0  0  0  0
 33 31  1  0  0  0  0
 33 36  2  0  0  0  0
 34 35  2  0  0  0  0
 35 31  1  0  0  0  0
 37 34  1  0  0  0  0
 38 37  1  0  0  0  0
 39 38  1  0  0  0  0
 40 42  2  0  0  0  0
 41 42  1  0  0  0  0
 42 43  1  0  0  0  0
 43 39  1  0  0  0  0
M  END
>  <MODEL>
9

>  <REMARK>
 VINA RESULT:      -5.8      4.126      9.447
  Name = 
  10 active torsions:
  status: ('A' for Active; 'I' for Inactive)
    1  A    between atoms: C_1  and  C_34
    2  A    between atoms: C_1  and  C_35
    3  A    between atoms: C_3  and  C_12
    4  A    between atoms: C_3  and  S_17
    5  A    between atoms: C_6  and  S_17
    6  A    between atoms: C_11  and  C_14
    7  A    between atoms: C_11  and  N_36
    8  A    between atoms: C_14  and  C_22
    9  A    between atoms: C_19  and  C_37
   10  A    between atoms: N_36  and  N_40
                            x       y       z     vdW  Elec       q    Type
                         _______ _______ _______ _____ _____    ______ ____

>  <TORSDO>
F 10

$$$$
