=
 OpenBabel11062409013D

 37 43  0  0  1  0  0  0  0  0999 V2000
  162.9120  207.9590  148.6510 C   0  0  0  0  0  2  0  0  0  0  0  0
  162.1960  213.7680  147.7230 C   0  0  0  0  0  2  0  0  0  0  0  0
  160.9110  211.4490  151.3480 C   0  0  0  0  0  0  0  0  0  0  0  0
  161.7810  207.5860  147.6860 C   0  0  2  0  0  3  0  0  0  0  0  0
  161.8240  208.0530  152.7740 O   0  0  0  0  0  0  0  0  0  0  0  0
  160.6150  213.0030  149.4630 C   0  0  0  0  0  0  0  0  0  0  0  0
  161.3980  210.1590  151.5270 C   0  0  0  0  0  0  0  0  0  0  0  0
  161.0330  211.7590  149.9460 C   0  0  0  0  0  0  0  0  0  0  0  0
  161.5640  209.4420  152.8590 C   0  0  1  0  0  3  0  0  0  0  0  0
  160.0680  213.8860  150.3440 N   0  0  0  0  0  2  0  0  0  0  0  0
  160.9620  206.4210  148.2300 C   0  0  0  0  0  2  0  0  0  0  0  0
  161.5870  210.6660  149.3070 C   0  0  0  0  0  0  0  0  0  0  0  0
  163.1950  211.4520  147.5960 C   0  0  0  0  0  2  0  0  0  0  0  0
  160.0970  212.1660  153.5870 O   0  0  0  0  0  0  0  0  0  0  0  0
  159.9100  213.6050  151.6730 C   0  0  0  0  0  3  0  0  0  0  0  0
  161.9480  210.6230  147.8570 C   0  0  0  0  0  2  0  0  0  0  0  0
  160.3910  206.7700  149.6020 C   0  0  0  0  0  2  0  0  0  0  0  0
  160.8620  207.4610  151.9410 C   0  0  0  0  0  2  0  0  0  0  0  0
  160.3260  212.3820  152.2230 C   0  0  0  0  0  0  0  0  0  0  0  0
  161.8000  209.6640  150.2710 C   0  0  0  0  0  0  0  0  0  0  0  0
  160.7540  213.3960  148.0290 C   0  0  0  0  0  2  0  0  0  0  0  0
  160.4910  209.7940  153.8930 C   0  0  2  0  0  3  0  0  0  0  0  0
  162.8450  212.7200  146.8280 C   0  0  0  0  0  2  0  0  0  0  0  0
  161.5070  207.0970  150.6040 C   0  0  2  0  0  0  0  0  0  0  0  0
  162.3810  208.2650  150.0620 C   0  0  1  0  0  3  0  0  0  0  0  0
  160.7650  211.2020  154.3870 C   0  0  0  0  0  2  0  0  0  0  0  0
  161.5160  208.8980  155.9900 C   0  0  0  0  0  3  0  0  0  0  0  0
  160.4730  208.8460  155.0580 C   0  0  0  0  0  0  0  0  0  0  0  0
  159.4310  207.9220  155.2350 C   0  0  0  0  0  3  0  0  0  0  0  0
  158.4300  206.1700  156.5020 F   0  0  0  0  0  0  0  0  0  0  0  0
  160.4810  207.1160  157.2610 C   0  0  0  0  0  3  0  0  0  0  0  0
  159.4360  207.0590  156.3340 C   0  0  0  0  0  0  0  0  0  0  0  0
  161.5200  208.0350  157.0890 C   0  0  0  0  0  3  0  0  0  0  0  0
  162.4040  205.8710  150.8250 C   0  0  0  0  0  2  0  0  0  0  0  0
  161.7130  204.8460  151.4790 O   0  0  0  0  0  1  0  0  0  0  0  0
  162.0920  205.8680  146.3260 C   0  0  0  0  0  1  0  0  0  0  0  0
  162.3200  207.2400  146.4460 O   0  0  0  0  0  0  0  0  0  0  0  0
  2 21  1  0  0  0  0
  3  7  2  0  0  0  0
  3 19  1  0  0  0  0
  4 37  1  6  0  0  0
  4 11  1  0  0  0  0
  4  1  1  0  0  0  0
  5  9  1  0  0  0  0
  6  8  2  0  0  0  0
  6 10  1  0  0  0  0
  8  3  1  0  0  0  0
  9  7  1  6  0  0  0
  9 22  1  0  0  0  0
 10 15  1  0  0  0  0
 11 17  1  0  0  0  0
 12  8  1  0  0  0  0
 12 20  2  0  0  0  0
 13 16  1  0  0  0  0
 14 26  1  0  0  0  0
 15 19  2  0  0  0  0
 16 12  1  0  0  0  0
 17 24  1  0  0  0  0
 18  5  1  0  0  0  0
 19 14  1  0  0  0  0
 20  7  1  0  0  0  0
 21  6  1  0  0  0  0
 22 26  1  0  0  0  0
 22 28  1  1  0  0  0
 23 13  1  0  0  0  0
 23  2  1  0  0  0  0
 24 34  1  1  0  0  0
 24 18  1  0  0  0  0
 25  1  1  6  0  0  0
 25 20  1  0  0  0  0
 25 24  1  0  0  0  0
 27 33  1  0  0  0  0
 28 29  1  0  0  0  0
 28 27  2  0  0  0  0
 29 32  2  0  0  0  0
 32 30  1  0  0  0  0
 32 31  1  0  0  0  0
 33 31  2  0  0  0  0
 34 35  1  0  0  0  0
 36 37  1  0  0  0  0
M  END
>  <MODEL>
1

>  <REMARK>
 VINA RESULT:      -3.8      0.000      0.000
  Name = 
  3 active torsions:
  status: ('A' for Active; 'I' for Inactive)
    1  A    between atoms: C_5  and  O_23
    2  A    between atoms: C_6  and  C_31
    3  A    between atoms: C_11  and  C_33
                            x       y       z     vdW  Elec       q    Type
                         _______ _______ _______ _____ _____    ______ ____

>  <TORSDO>
F 3

$$$$
=
 OpenBabel11062409013D

 37 43  0  0  1  0  0  0  0  0999 V2000
  159.5260  209.9490  154.8070 C   0  0  0  0  0  2  0  0  0  0  0  0
  160.2160  213.5600  150.1600 C   0  0  0  0  0  2  0  0  0  0  0  0
  161.2820  209.2010  150.3550 C   0  0  0  0  0  0  0  0  0  0  0  0
  160.7270  210.5460  155.5490 C   0  0  2  0  0  3  0  0  0  0  0  0
  160.3250  206.3480  152.6650 O   0  0  0  0  0  0  0  0  0  0  0  0
  161.6840  211.5870  149.9050 C   0  0  0  0  0  0  0  0  0  0  0  0
  160.8040  208.4400  151.4160 C   0  0  2  0  0  3  0  0  0  0  0  0
  161.2530  210.5800  150.7740 C   0  0  0  0  0  0  0  0  0  0  0  0
  160.5560  206.9390  151.4000 C   0  0  1  0  0  3  0  0  0  0  0  0
  162.1560  211.2230  148.6800 N   0  0  0  0  0  0  0  0  0  0  0  0
  161.5240  209.4590  156.2610 C   0  0  0  0  0  2  0  0  0  0  0  0
  160.7610  210.6310  152.0640 C   0  0  0  0  0  0  0  0  0  0  0  0
  159.2640  212.5900  152.2890 C   0  0  0  0  0  2  0  0  0  0  0  0
  161.9280  207.5600  148.6010 O   0  0  0  0  0  0  0  0  0  0  0  0
  162.2250  209.9200  148.2700 C   0  0  0  0  0  3  0  0  0  0  0  0
  160.5020  211.8920  152.8250 C   0  0  0  0  0  2  0  0  0  0  0  0
  161.9930  208.4050  155.2620 C   0  0  0  0  0  2  0  0  0  0  0  0
  161.3510  206.7320  153.5420 C   0  0  0  0  0  2  0  0  0  0  0  0
  161.7910  208.8650  149.0880 C   0  0  0  0  0  0  0  0  0  0  0  0
  160.4970  209.3130  152.4780 C   0  0  0  0  0  0  0  0  0  0  0  0
  161.6390  213.0350  150.2670 C   0  0  0  0  0  2  0  0  0  0  0  0
  161.5500  206.1540  150.5390 C   0  0  2  0  0  3  0  0  0  0  0  0
  159.6460  213.8600  151.5400 C   0  0  0  0  0  2  0  0  0  0  0  0
  160.8060  207.7520  154.5410 C   0  0  2  0  0  0  0  0  0  0  0  0
  159.9530  208.8410  153.8280 C   0  0  1  0  0  3  0  0  0  0  0  0
  161.2220  206.4270  149.0840 C   0  0  0  0  0  2  0  0  0  0  0  0
  162.2270  204.1520  151.8740 C   0  0  0  0  0  3  0  0  0  0  0  0
  161.5020  204.6760  150.7970 C   0  0  0  0  0  0  0  0  0  0  0  0
  160.7380  203.8160  149.9920 C   0  0  0  0  0  3  0  0  0  0  0  0
  159.9660  201.6190  149.4840 F   0  0  0  0  0  0  0  0  0  0  0  0
  161.4310  201.9280  151.3390 C   0  0  0  0  0  3  0  0  0  0  0  0
  160.7040  202.4450  150.2630 C   0  0  0  0  0  0  0  0  0  0  0  0
  162.1920  202.7800  152.1440 C   0  0  0  0  0  3  0  0  0  0  0  0
  159.9140  207.0070  155.5450 C   0  0  0  0  0  2  0  0  0  0  0  0
  160.6340  206.6310  156.6830 O   0  0  0  0  0  1  0  0  0  0  0  0
  158.8920  211.5040  156.3330 C   0  0  0  0  0  1  0  0  0  0  0  0
  160.2800  211.4850  156.4810 O   0  0  0  0  0  0  0  0  0  0  0  0
  1  4  1  0  0  0  0
  2 21  1  0  0  0  0
  2 23  1  0  0  0  0
  3  8  2  0  0  0  0
  4 11  1  0  0  0  0
  4 37  1  1  0  0  0
  5 18  1  0  0  0  0
  6 21  1  0  0  0  0
  6  8  1  0  0  0  0
  7  3  1  6  0  0  0
  7 20  1  0  0  0  0
  8 12  1  0  0  0  0
  9  7  1  0  0  0  0
  9  5  1  1  0  0  0
 10  6  2  0  0  0  0
 12 20  2  0  0  0  0
 12 16  1  0  0  0  0
 13 16  1  0  0  0  0
 14 26  1  0  0  0  0
 14 19  1  0  0  0  0
 15 10  1  0  0  0  0
 15 19  2  0  0  0  0
 17 11  1  0  0  0  0
 18 24  1  0  0  0  0
 19  3  1  0  0  0  0
 20 25  1  0  0  0  0
 22 28  1  6  0  0  0
 22  9  1  0  0  0  0
 23 13  1  0  0  0  0
 24 17  1  0  0  0  0
 24 34  1  1  0  0  0
 25 24  1  0  0  0  0
 25  1  1  1  0  0  0
 26 22  1  0  0  0  0
 27 33  1  0  0  0  0
 28 27  2  0  0  0  0
 29 32  2  0  0  0  0
 29 28  1  0  0  0  0
 30 32  1  0  0  0  0
 31 33  2  0  0  0  0
 32 31  1  0  0  0  0
 34 35  1  0  0  0  0
 36 37  1  0  0  0  0
M  END
>  <MODEL>
2

>  <REMARK>
 VINA RESULT:      -3.6      2.411      5.994
  Name = 
  3 active torsions:
  status: ('A' for Active; 'I' for Inactive)
    1  A    between atoms: C_5  and  O_23
    2  A    between atoms: C_6  and  C_31
    3  A    between atoms: C_11  and  C_33
                            x       y       z     vdW  Elec       q    Type
                         _______ _______ _______ _____ _____    ______ ____

>  <TORSDO>
F 3

$$$$
=
 OpenBabel11062409013D

 37 43  0  0  1  0  0  0  0  0999 V2000
  160.6020  203.9880  146.5550 C   0  0  0  0  0  2  0  0  0  0  0  0
  160.1370  202.3100  152.2190 C   0  0  0  0  0  2  0  0  0  0  0  0
  161.4770  206.3220  150.7080 C   0  0  0  0  0  0  0  0  0  0  0  0
  161.8890  203.1830  146.3410 C   0  0  2  0  0  3  0  0  0  0  0  0
  161.1700  208.1330  147.3880 O   0  0  0  0  0  0  0  0  0  0  0  0
  161.6390  204.2670  152.0520 C   0  0  0  0  0  0  0  0  0  0  0  0
  161.2660  206.6400  149.3710 C   0  0  0  0  0  0  0  0  0  0  0  0
  161.4500  204.8850  150.8110 C   0  0  0  0  0  0  0  0  0  0  0  0
  161.1090  208.0420  148.7980 C   0  0  1  0  0  3  0  0  0  0  0  0
  161.8780  205.0570  153.1360 N   0  0  0  0  0  2  0  0  0  0  0  0
  162.8740  203.9530  145.4690 C   0  0  0  0  0  2  0  0  0  0  0  0
  161.2230  204.3630  149.5520 C   0  0  0  0  0  0  0  0  0  0  0  0
  159.6870  202.4300  149.7370 C   0  0  0  0  0  2  0  0  0  0  0  0
  161.8570  208.4970  151.8540 O   0  0  0  0  0  0  0  0  0  0  0  0
  161.9410  206.4210  153.0590 C   0  0  0  0  0  3  0  0  0  0  0  0
  161.0470  202.9080  149.2550 C   0  0  0  0  0  2  0  0  0  0  0  0
  163.1970  205.3050  146.1000 C   0  0  0  0  0  2  0  0  0  0  0  0
  162.3250  207.4750  146.9380 C   0  0  0  0  0  2  0  0  0  0  0  0
  161.7420  207.1020  151.8480 C   0  0  0  0  0  0  0  0  0  0  0  0
  161.1250  205.4380  148.6510 C   0  0  0  0  0  0  0  0  0  0  0  0
  161.5810  202.7860  152.2290 C   0  0  0  0  0  2  0  0  0  0  0  0
  161.9570  209.1010  149.5090 C   0  0  2  0  0  3  0  0  0  0  0  0
  159.8370  201.5230  150.9500 C   0  0  0  0  0  2  0  0  0  0  0  0
  161.9310  206.1540  146.2790 C   0  0  2  0  0  0  0  0  0  0  0  0
  160.8900  205.3810  147.1400 C   0  0  1  0  0  3  0  0  0  0  0  0
  161.3290  209.3660  150.8650 C   0  0  0  0  0  2  0  0  0  0  0  0
  163.2930  211.0120  148.6080 C   0  0  0  0  0  3  0  0  0  0  0  0
  162.0480  210.3860  148.7370 C   0  0  0  0  0  0  0  0  0  0  0  0
  160.9180  210.9610  148.1350 C   0  0  0  0  0  3  0  0  0  0  0  0
  159.9430  212.7040  146.8340 F   0  0  0  0  0  0  0  0  0  0  0  0
  162.2810  212.7730  147.2890 C   0  0  0  0  0  3  0  0  0  0  0  0
  161.0360  212.1530  147.4130 C   0  0  0  0  0  0  0  0  0  0  0  0
  163.4100  212.2030  147.8860 C   0  0  0  0  0  3  0  0  0  0  0  0
  161.3030  206.4710  144.9140 C   0  0  0  0  0  2  0  0  0  0  0  0
  159.9300  206.2030  144.9110 O   0  0  0  0  0  1  0  0  0  0  0  0
  160.2770  202.1180  145.2610 C   0  0  0  0  0  1  0  0  0  0  0  0
  161.5810  201.9650  145.7340 O   0  0  0  0  0  0  0  0  0  0  0  0
  2 21  1  0  0  0  0
  3  8  1  0  0  0  0
  3 19  1  0  0  0  0
  4 37  1  6  0  0  0
  4  1  1  0  0  0  0
  6 21  1  0  0  0  0
  6 10  1  0  0  0  0
  7  3  2  0  0  0  0
  8  6  2  0  0  0  0
  9  5  1  6  0  0  0
  9  7  1  0  0  0  0
  9 22  1  0  0  0  0
 11 17  1  0  0  0  0
 11  4  1  0  0  0  0
 12  8  1  0  0  0  0
 13 23  1  0  0  0  0
 15 10  1  0  0  0  0
 16 12  1  0  0  0  0
 16 13  1  0  0  0  0
 17 24  1  0  0  0  0
 18  5  1  0  0  0  0
 19 14  1  0  0  0  0
 19 15  2  0  0  0  0
 20  7  1  0  0  0  0
 20 12  2  0  0  0  0
 22 28  1  6  0  0  0
 22 26  1  0  0  0  0
 23  2  1  0  0  0  0
 24 34  1  6  0  0  0
 24 18  1  0  0  0  0
 24 25  1  0  0  0  0
 25  1  1  6  0  0  0
 25 20  1  0  0  0  0
 26 14  1  0  0  0  0
 27 28  1  0  0  0  0
 29 28  2  0  0  0  0
 30 32  1  0  0  0  0
 31 32  2  0  0  0  0
 31 33  1  0  0  0  0
 32 29  1  0  0  0  0
 33 27  2  0  0  0  0
 35 34  1  0  0  0  0
 36 37  1  0  0  0  0
M  END
>  <MODEL>
3

>  <REMARK>
 VINA RESULT:      -2.0      3.508      7.458
  Name = 
  3 active torsions:
  status: ('A' for Active; 'I' for Inactive)
    1  A    between atoms: C_5  and  O_23
    2  A    between atoms: C_6  and  C_31
    3  A    between atoms: C_11  and  C_33
                            x       y       z     vdW  Elec       q    Type
                         _______ _______ _______ _____ _____    ______ ____

>  <TORSDO>
F 3

$$$$
=
 OpenBabel11062409013D

 37 43  0  0  1  0  0  0  0  0999 V2000
  160.7960  205.9140  146.0440 C   0  0  0  0  0  2  0  0  0  0  0  0
  160.2220  200.0340  146.5120 C   0  0  0  0  0  2  0  0  0  0  0  0
  161.0130  202.9300  149.8530 C   0  0  0  0  0  0  0  0  0  0  0  0
  162.2050  205.8070  145.4500 C   0  0  2  0  0  3  0  0  0  0  0  0
  160.6480  206.6870  150.2360 O   0  0  0  0  0  0  0  0  0  0  0  0
  161.4060  200.9150  148.4960 C   0  0  0  0  0  0  0  0  0  0  0  0
  160.8440  204.2890  149.6170 C   0  0  0  0  0  0  0  0  0  0  0  0
  161.2050  202.2970  148.5730 C   0  0  0  0  0  0  0  0  0  0  0  0
  160.5080  205.3450  150.6610 C   0  0  1  0  0  3  0  0  0  0  0  0
  161.4440  200.2040  149.6570 N   0  0  0  0  0  2  0  0  0  0  0  0
  163.1130  206.9000  146.0020 C   0  0  0  0  0  2  0  0  0  0  0  0
  161.1480  203.2710  147.5950 C   0  0  0  0  0  0  0  0  0  0  0  0
  159.9260  202.3830  145.6320 C   0  0  0  0  0  2  0  0  0  0  0  0
  160.9680  202.6770  152.3280 O   0  0  0  0  0  0  0  0  0  0  0  0
  161.2970  200.7840  150.8860 C   0  0  0  0  0  3  0  0  0  0  0  0
  161.2230  203.0040  146.1250 C   0  0  0  0  0  2  0  0  0  0  0  0
  163.1760  206.8180  147.5250 C   0  0  0  0  0  2  0  0  0  0  0  0
  161.9200  206.8540  149.6670 C   0  0  0  0  0  2  0  0  0  0  0  0
  161.0750  202.1620  151.0300 C   0  0  0  0  0  0  0  0  0  0  0  0
  160.9440  204.5090  148.2290 C   0  0  0  0  0  0  0  0  0  0  0  0
  161.5700  200.1980  147.1970 C   0  0  0  0  0  2  0  0  0  0  0  0
  161.1290  205.0780  152.0360 C   0  0  2  0  0  3  0  0  0  0  0  0
  160.1350  200.9180  145.2740 C   0  0  0  0  0  2  0  0  0  0  0  0
  161.7830  206.9740  148.1500 C   0  0  2  0  0  0  0  0  0  0  0  0
  160.8220  205.8900  147.5820 C   0  0  1  0  0  3  0  0  0  0  0  0
  160.3780  203.9220  152.6690 C   0  0  0  0  0  2  0  0  0  0  0  0
  160.8310  206.0790  154.3070 C   0  0  0  0  0  3  0  0  0  0  0  0
  161.0690  206.2740  152.9420 C   0  0  0  0  0  0  0  0  0  0  0  0
  161.2580  207.5750  152.4510 C   0  0  0  0  0  3  0  0  0  0  0  0
  161.3890  209.9230  152.8420 F   0  0  0  0  0  0  0  0  0  0  0  0
  160.9680  208.4670  154.6820 C   0  0  0  0  0  3  0  0  0  0  0  0
  161.2070  208.6690  153.3200 C   0  0  0  0  0  0  0  0  0  0  0  0
  160.7800  207.1730  155.1750 C   0  0  0  0  0  3  0  0  0  0  0  0
  161.2060  208.3610  147.8310 C   0  0  0  0  0  2  0  0  0  0  0  0
  161.8440  209.3600  148.5720 O   0  0  0  0  0  1  0  0  0  0  0  0
  160.8600  205.4530  143.7280 C   0  0  0  0  0  1  0  0  0  0  0  0
  162.1340  205.9160  144.0600 O   0  0  0  0  0  0  0  0  0  0  0  0
  2 21  1  0  0  0  0
  3 19  1  0  0  0  0
  4 37  1  6  0  0  0
  4 11  1  0  0  0  0
  4  1  1  0  0  0  0
  5  9  1  0  0  0  0
  6  8  2  0  0  0  0
  6 10  1  0  0  0  0
  7  3  2  0  0  0  0
  8  3  1  0  0  0  0
  9  7  1  6  0  0  0
  9 22  1  0  0  0  0
 10 15  1  0  0  0  0
 11 17  1  0  0  0  0
 12 20  2  0  0  0  0
 12  8  1  0  0  0  0
 13 16  1  0  0  0  0
 14 26  1  0  0  0  0
 15 19  2  0  0  0  0
 16 12  1  0  0  0  0
 17 24  1  0  0  0  0
 18  5  1  0  0  0  0
 19 14  1  0  0  0  0
 20  7  1  0  0  0  0
 21  6  1  0  0  0  0
 22 26  1  0  0  0  0
 22 28  1  1  0  0  0
 23 13  1  0  0  0  0
 23  2  1  0  0  0  0
 24 34  1  6  0  0  0
 24 18  1  0  0  0  0
 25  1  1  6  0  0  0
 25 24  1  0  0  0  0
 25 20  1  0  0  0  0
 27 33  1  0  0  0  0
 28 27  2  0  0  0  0
 29 28  1  0  0  0  0
 29 32  2  0  0  0  0
 30 32  1  0  0  0  0
 31 33  2  0  0  0  0
 32 31  1  0  0  0  0
 34 35  1  0  0  0  0
 36 37  1  0  0  0  0
M  END
>  <MODEL>
4

>  <REMARK>
 VINA RESULT:      -1.9      3.861      7.391
  Name = 
  3 active torsions:
  status: ('A' for Active; 'I' for Inactive)
    1  A    between atoms: C_5  and  O_23
    2  A    between atoms: C_6  and  C_31
    3  A    between atoms: C_11  and  C_33
                            x       y       z     vdW  Elec       q    Type
                         _______ _______ _______ _____ _____    ______ ____

>  <TORSDO>
F 3

$$$$
