=
 OpenBabel11062408013D

 34 38  0  0  1  0  0  0  0  0999 V2000
  160.9510  209.4850  154.3570 C   0  0  0  0  0  0  0  0  0  0  0  0
  160.8060  207.3410  154.4770 C   0  0  0  0  0  0  0  0  0  0  0  0
  161.4510  208.2700  152.3930 C   0  0  0  0  0  0  0  0  0  0  0  0
  161.8520  206.4970  150.5000 C   0  0  2  0  0  3  0  0  0  0  0  0
  160.4790  207.8990  155.7040 C   0  0  0  0  0  0  0  0  0  0  0  0
  160.0810  207.1510  156.9270 C   0  0  0  0  0  1  0  0  0  0  0  0
  161.2440  205.8260  152.6670 C   0  0  0  0  0  0  0  0  0  0  0  0
  161.0910  208.3580  153.6780 N   0  0  0  0  0  0  0  0  0  0  0  0
  161.7410  204.9490  150.5700 C   0  0  0  0  0  2  0  0  0  0  0  0
  160.5670  209.2630  155.6370 N   0  0  0  0  0  0  0  0  0  0  0  0
  161.5780  210.6290  152.3530 C   0  0  0  0  0  3  0  0  0  0  0  0
  161.1920  210.7010  153.7190 C   0  0  0  0  0  3  0  0  0  0  0  0
  160.8790  205.9500  153.9670 C   0  0  0  0  0  3  0  0  0  0  0  0
  161.3800  204.6190  151.9510 N   0  0  0  0  0  0  0  0  0  0  0  0
  161.5300  206.9500  151.8440 N   0  0  0  0  0  0  0  0  0  0  0  0
  161.7010  209.4200  151.7070 N   0  0  0  0  0  0  0  0  0  0  0  0
  160.9000  203.3140  152.3860 C   0  0  0  0  0  2  0  0  0  0  0  0
  161.3420  202.2450  151.4380 C   0  0  0  0  0  3  0  0  0  0  0  0
  160.6610  202.0050  150.3200 C   0  0  0  0  0  3  0  0  0  0  0  0
  161.1120  200.9350  149.3820 C   0  0  0  0  0  2  0  0  0  0  0  0
  161.5780  201.5140  148.1690 O   0  0  0  0  0  0  0  0  0  0  0  0
  161.1730  201.0680  146.9060 C   0  0  0  0  0  0  0  0  0  0  0  0
  161.3140  199.8530  146.6100 O   0  0  0  0  0  0  0  0  0  0  0  0
  159.8400  201.1870  144.8380 C   0  0  0  0  0  1  0  0  0  0  0  0
  160.5440  201.9900  145.9130 C   0  0  0  0  0  2  0  0  0  0  0  0
  160.8300  207.0360  149.5150 C   0  0  0  0  0  2  0  0  0  0  0  0
  161.4610  207.3370  148.2770 O   0  0  0  0  0  0  0  0  0  0  0  0
  161.1680  205.1760  144.3710 C   0  0  0  0  0  3  0  0  0  0  0  0
  160.2240  205.7710  145.0990 C   0  0  0  0  0  3  0  0  0  0  0  0
  161.4580  206.4540  147.1940 C   0  0  0  0  0  0  0  0  0  0  0  0
  160.4620  206.5860  146.3070 C   0  0  0  0  0  3  0  0  0  0  0  0
  162.9840  204.8530  146.0060 C   0  0  0  0  0  3  0  0  0  0  0  0
  162.4860  205.3840  147.1220 C   0  0  0  0  0  3  0  0  0  0  0  0
  162.6260  205.3360  144.6420 C   0  0  0  0  0  2  0  0  0  0  0  0
  1 10  2  0  0  0  0
  2  5  2  0  0  0  0
  3  8  1  0  0  0  0
  4 26  1  6  0  0  0
  4  9  1  0  0  0  0
  4 15  1  0  0  0  0
  5  6  1  0  0  0  0
  7 13  2  0  0  0  0
  8  1  1  0  0  0  0
  8  2  1  0  0  0  0
  9 14  1  0  0  0  0
 10  5  1  0  0  0  0
 11 12  2  0  0  0  0
 12  1  1  0  0  0  0
 13  2  1  0  0  0  0
 14 17  1  0  0  0  0
 14  7  1  0  0  0  0
 15  3  1  0  0  0  0
 15  7  1  0  0  0  0
 16 11  1  0  0  0  0
 16  3  2  0  0  0  0
 18 17  1  0  0  0  0
 19 18  2  0  0  0  0
 20 19  1  0  0  0  0
 21 20  1  0  0  0  0
 22 21  1  0  0  0  0
 23 22  2  0  0  0  0
 24 25  1  0  0  0  0
 25 22  1  0  0  0  0
 27 26  1  0  0  0  0
 28 34  1  0  0  0  0
 28 29  2  0  0  0  0
 29 31  1  0  0  0  0
 30 27  1  0  0  0  0
 31 30  2  0  0  0  0
 32 33  2  0  0  0  0
 33 30  1  0  0  0  0
 34 32  1  0  0  0  0
M  END
>  <MODEL>
1

>  <REMARK>
 VINA RESULT:      -8.8      0.000      0.000
  Name = 
  9 active torsions:
  status: ('A' for Active; 'I' for Inactive)
    1  A    between atoms: C_3  and  C_17
    2  A    between atoms: C_5  and  C_26
    3  A    between atoms: C_12  and  O_28
    4  A    between atoms: C_13  and  C_33
    5  A    between atoms: C_14  and  C_20
    6  A    between atoms: C_17  and  N_29
    7  A    between atoms: C_20  and  O_34
    8  A    between atoms: C_26  and  O_28
    9  A    between atoms: C_33  and  O_34
                            x       y       z     vdW  Elec       q    Type
                         _______ _______ _______ _____ _____    ______ ____

>  <TORSDO>
F 9

$$$$
=
 OpenBabel11062408013D

 34 38  0  0  1  0  0  0  0  0999 V2000
  159.9480  212.3420  152.1220 C   0  0  0  0  0  0  0  0  0  0  0  0
  160.0950  210.4200  153.0800 C   0  0  0  0  0  0  0  0  0  0  0  0
  161.1740  210.6730  150.9840 C   0  0  0  0  0  0  0  0  0  0  0  0
  162.3700  208.5020  150.1180 C   0  0  2  0  0  3  0  0  0  0  0  0
  159.3440  211.2780  153.8700 C   0  0  0  0  0  0  0  0  0  0  0  0
  158.7220  210.9430  155.1790 C   0  0  0  0  0  1  0  0  0  0  0  0
  161.2610  208.5210  152.1890 C   0  0  0  0  0  0  0  0  0  0  0  0
  160.4460  211.1210  152.0120 N   0  0  0  0  0  0  0  0  0  0  0  0
  162.4730  207.1070  150.7940 C   0  0  0  0  0  2  0  0  0  0  0  0
  159.2450  212.5030  153.2680 N   0  0  0  0  0  0  0  0  0  0  0  0
  160.9570  212.8120  150.0060 C   0  0  0  0  0  3  0  0  0  0  0  0
  160.1830  213.2680  151.1060 C   0  0  0  0  0  3  0  0  0  0  0  0
  160.5190  209.0060  153.2150 C   0  0  0  0  0  3  0  0  0  0  0  0
  161.7780  207.2140  152.0790 N   0  0  0  0  0  0  0  0  0  0  0  0
  161.6050  209.3090  151.0570 N   0  0  0  0  0  0  0  0  0  0  0  0
  161.4410  211.5250  149.9560 N   0  0  0  0  0  0  0  0  0  0  0  0
  161.3910  206.0750  152.9010 C   0  0  0  0  0  2  0  0  0  0  0  0
  161.7050  204.7890  152.2050 C   0  0  0  0  0  3  0  0  0  0  0  0
  160.8290  203.7880  152.1970 C   0  0  0  0  0  3  0  0  0  0  0  0
  161.1540  202.5100  151.5000 C   0  0  0  0  0  2  0  0  0  0  0  0
  161.0740  202.6880  150.0910 O   0  0  0  0  0  0  0  0  0  0  0  0
  160.4990  201.7430  149.2340 C   0  0  0  0  0  0  0  0  0  0  0  0
  159.2900  201.4300  149.3880 O   0  0  0  0  0  0  0  0  0  0  0  0
  160.7100  201.5750  146.7850 C   0  0  0  0  0  1  0  0  0  0  0  0
  161.2740  201.1230  148.1170 C   0  0  0  0  0  2  0  0  0  0  0  0
  161.6110  208.3780  148.8090 C   0  0  0  0  0  2  0  0  0  0  0  0
  161.0180  207.0900  148.7120 O   0  0  0  0  0  0  0  0  0  0  0  0
  161.3520  205.2380  144.6530 C   0  0  0  0  0  3  0  0  0  0  0  0
  160.3600  205.9380  145.2020 C   0  0  0  0  0  3  0  0  0  0  0  0
  161.1440  206.2830  147.5780 C   0  0  0  0  0  0  0  0  0  0  0  0
  160.4200  206.6310  146.5050 C   0  0  0  0  0  3  0  0  0  0  0  0
  162.6560  204.5240  146.6190 C   0  0  0  0  0  3  0  0  0  0  0  0
  161.9890  205.0640  147.6390 C   0  0  0  0  0  3  0  0  0  0  0  0
  162.7100  205.1390  145.2620 C   0  0  0  0  0  2  0  0  0  0  0  0
  1 10  2  0  0  0  0
  2 13  1  0  0  0  0
  2  5  2  0  0  0  0
  3 15  1  0  0  0  0
  3  8  1  0  0  0  0
  4 26  1  6  0  0  0
  4  9  1  0  0  0  0
  4 15  1  0  0  0  0
  5  6  1  0  0  0  0
  7 13  2  0  0  0  0
  8  1  1  0  0  0  0
  8  2  1  0  0  0  0
  9 14  1  0  0  0  0
 10  5  1  0  0  0  0
 11 12  2  0  0  0  0
 12  1  1  0  0  0  0
 14  7  1  0  0  0  0
 14 17  1  0  0  0  0
 15  7  1  0  0  0  0
 16 11  1  0  0  0  0
 16  3  2  0  0  0  0
 18 17  1  0  0  0  0
 19 18  2  0  0  0  0
 20 19  1  0  0  0  0
 21 20  1  0  0  0  0
 22 23  2  0  0  0  0
 22 21  1  0  0  0  0
 24 25  1  0  0  0  0
 25 22  1  0  0  0  0
 27 26  1  0  0  0  0
 28 29  2  0  0  0  0
 28 34  1  0  0  0  0
 29 31  1  0  0  0  0
 30 33  1  0  0  0  0
 30 27  1  0  0  0  0
 31 30  2  0  0  0  0
 32 33  2  0  0  0  0
 34 32  1  0  0  0  0
M  END
>  <MODEL>
2

>  <REMARK>
 VINA RESULT:      -8.5      1.735      2.669
  Name = 
  9 active torsions:
  status: ('A' for Active; 'I' for Inactive)
    1  A    between atoms: C_3  and  C_17
    2  A    between atoms: C_5  and  C_26
    3  A    between atoms: C_12  and  O_28
    4  A    between atoms: C_13  and  C_33
    5  A    between atoms: C_14  and  C_20
    6  A    between atoms: C_17  and  N_29
    7  A    between atoms: C_20  and  O_34
    8  A    between atoms: C_26  and  O_28
    9  A    between atoms: C_33  and  O_34
                            x       y       z     vdW  Elec       q    Type
                         _______ _______ _______ _____ _____    ______ ____

>  <TORSDO>
F 9

$$$$
=
 OpenBabel11062408013D

 34 38  0  0  1  0  0  0  0  0999 V2000
  161.2440  203.7940  147.1460 C   0  0  0  0  0  0  0  0  0  0  0  0
  161.1070  203.7280  149.2940 C   0  0  0  0  0  0  0  0  0  0  0  0
  161.1720  205.8680  148.2750 C   0  0  0  0  0  0  0  0  0  0  0  0
  161.1120  207.8720  149.9690 C   0  0  2  0  0  3  0  0  0  0  0  0
  161.1440  202.4370  148.7900 C   0  0  0  0  0  0  0  0  0  0  0  0
  161.1010  201.1840  149.5910 C   0  0  0  0  0  1  0  0  0  0  0  0
  161.0180  205.6510  150.7280 C   0  0  0  0  0  0  0  0  0  0  0  0
  161.1710  204.5320  148.2420 N   0  0  0  0  0  0  0  0  0  0  0  0
  161.0240  207.8390  151.5200 C   0  0  0  0  0  2  0  0  0  0  0  0
  161.2320  202.4680  147.4250 N   0  0  0  0  0  0  0  0  0  0  0  0
  161.3280  205.8420  145.9170 C   0  0  0  0  0  3  0  0  0  0  0  0
  161.3270  204.4220  145.9040 C   0  0  0  0  0  3  0  0  0  0  0  0
  161.0210  204.2970  150.6600 C   0  0  0  0  0  3  0  0  0  0  0  0
  160.9500  206.4270  151.9030 N   0  0  0  0  0  0  0  0  0  0  0  0
  161.1000  206.4730  149.5710 N   0  0  0  0  0  0  0  0  0  0  0  0
  161.2520  206.5480  147.0970 N   0  0  0  0  0  0  0  0  0  0  0  0
  161.1410  205.9320  153.2600 C   0  0  0  0  0  2  0  0  0  0  0  0
  161.2510  207.0690  154.2270 C   0  0  0  0  0  3  0  0  0  0  0  0
  160.3800  207.1990  155.2240 C   0  0  0  0  0  3  0  0  0  0  0  0
  160.5000  208.3360  156.1820 C   0  0  0  0  0  2  0  0  0  0  0  0
  161.5430  209.2120  155.7730 O   0  0  0  0  0  0  0  0  0  0  0  0
  161.3140  210.5260  155.3490 C   0  0  0  0  0  0  0  0  0  0  0  0
  161.2880  211.4500  156.2020 O   0  0  0  0  0  0  0  0  0  0  0  0
  159.6650  210.8420  153.5460 C   0  0  0  0  0  1  0  0  0  0  0  0
  161.1370  210.8640  153.9050 C   0  0  0  0  0  2  0  0  0  0  0  0
  162.4200  208.5170  149.5480 C   0  0  0  0  0  2  0  0  0  0  0  0
  162.1760  209.5060  148.5570 O   0  0  0  0  0  0  0  0  0  0  0  0
  161.6930  213.9520  148.6920 C   0  0  0  0  0  3  0  0  0  0  0  0
  162.5780  213.2010  148.0370 C   0  0  0  0  0  3  0  0  0  0  0  0
  162.0720  210.8670  148.8580 C   0  0  0  0  0  0  0  0  0  0  0  0
  162.5500  211.7270  147.9480 C   0  0  0  0  0  3  0  0  0  0  0  0
  160.8550  212.4090  150.4220 C   0  0  0  0  0  3  0  0  0  0  0  0
  161.5240  211.2830  150.1750 C   0  0  0  0  0  3  0  0  0  0  0  0
  160.4850  213.3880  149.3610 C   0  0  0  0  0  2  0  0  0  0  0  0
  1 10  2  0  0  0  0
  1  8  1  0  0  0  0
  2 13  1  0  0  0  0
  3 15  1  0  0  0  0
  4 26  1  1  0  0  0
  4  9  1  0  0  0  0
  5  2  2  0  0  0  0
  5  6  1  0  0  0  0
  7 14  1  0  0  0  0
  8  3  1  0  0  0  0
  8  2  1  0  0  0  0
  9 14  1  0  0  0  0
 10  5  1  0  0  0  0
 11 16  1  0  0  0  0
 12 11  2  0  0  0  0
 12  1  1  0  0  0  0
 13  7  2  0  0  0  0
 14 17  1  0  0  0  0
 15  4  1  0  0  0  0
 15  7  1  0  0  0  0
 16  3  2  0  0  0  0
 17 18  1  0  0  0  0
 18 19  2  0  0  0  0
 19 20  1  0  0  0  0
 21 20  1  0  0  0  0
 22 21  1  0  0  0  0
 22 23  2  0  0  0  0
 24 25  1  0  0  0  0
 25 22  1  0  0  0  0
 27 30  1  0  0  0  0
 27 26  1  0  0  0  0
 28 34  1  0  0  0  0
 29 28  2  0  0  0  0
 30 33  1  0  0  0  0
 31 29  1  0  0  0  0
 31 30  2  0  0  0  0
 33 32  2  0  0  0  0
 34 32  1  0  0  0  0
M  END
>  <MODEL>
3

>  <REMARK>
 VINA RESULT:      -8.4      3.251      7.979
  Name = 
  9 active torsions:
  status: ('A' for Active; 'I' for Inactive)
    1  A    between atoms: C_3  and  C_17
    2  A    between atoms: C_5  and  C_26
    3  A    between atoms: C_12  and  O_28
    4  A    between atoms: C_13  and  C_33
    5  A    between atoms: C_14  and  C_20
    6  A    between atoms: C_17  and  N_29
    7  A    between atoms: C_20  and  O_34
    8  A    between atoms: C_26  and  O_28
    9  A    between atoms: C_33  and  O_34
                            x       y       z     vdW  Elec       q    Type
                         _______ _______ _______ _____ _____    ______ ____

>  <TORSDO>
F 9

$$$$
=
 OpenBabel11062408013D

 34 38  0  0  1  0  0  0  0  0999 V2000
  161.0890  203.5890  149.5310 C   0  0  0  0  0  0  0  0  0  0  0  0
  161.5770  205.3930  148.4630 C   0  0  0  0  0  0  0  0  0  0  0  0
  161.4140  205.5390  150.8240 C   0  0  0  0  0  0  0  0  0  0  0  0
  161.8190  207.9480  151.7860 C   0  0  2  0  0  3  0  0  0  0  0  0
  161.4150  204.3490  147.5640 C   0  0  0  0  0  0  0  0  0  0  0  0
  161.5480  204.4400  146.0860 C   0  0  0  0  0  1  0  0  0  0  0  0
  161.9640  207.5330  149.4780 C   0  0  0  0  0  0  0  0  0  0  0  0
  161.3660  204.8750  149.6640 N   0  0  0  0  0  0  0  0  0  0  0  0
  162.1610  209.2590  151.0260 C   0  0  0  0  0  2  0  0  0  0  0  0
  161.1030  203.1970  148.2340 N   0  0  0  0  0  0  0  0  0  0  0  0
  160.8700  203.5130  151.9110 C   0  0  0  0  0  3  0  0  0  0  0  0
  160.8220  202.8260  150.6680 C   0  0  0  0  0  3  0  0  0  0  0  0
  161.9060  206.8310  148.3200 C   0  0  0  0  0  3  0  0  0  0  0  0
  162.2510  208.9070  149.6070 N   0  0  0  0  0  0  0  0  0  0  0  0
  161.7200  206.9360  150.7450 N   0  0  0  0  0  0  0  0  0  0  0  0
  161.1630  204.8560  151.9760 N   0  0  0  0  0  0  0  0  0  0  0  0
  162.2710  209.8770  148.5200 C   0  0  0  0  0  2  0  0  0  0  0  0
  161.9320  211.2440  149.0240 C   0  0  0  0  0  3  0  0  0  0  0  0
  161.7730  212.2600  148.1790 C   0  0  0  0  0  3  0  0  0  0  0  0
  161.4360  213.6190  148.6930 C   0  0  0  0  0  2  0  0  0  0  0  0
  160.0390  213.8570  148.5630 O   0  0  0  0  0  0  0  0  0  0  0  0
  159.1350  213.6930  149.6170 C   0  0  0  0  0  0  0  0  0  0  0  0
  159.5510  213.7890  150.8020 O   0  0  0  0  0  0  0  0  0  0  0  0
  157.4640  213.0330  147.9320 C   0  0  0  0  0  1  0  0  0  0  0  0
  157.6830  213.4440  149.3740 C   0  0  0  0  0  2  0  0  0  0  0  0
  160.4810  208.1000  152.4870 C   0  0  0  0  0  2  0  0  0  0  0  0
  160.5960  207.6970  153.8460 O   0  0  0  0  0  0  0  0  0  0  0  0
  162.4160  209.9510  157.2550 C   0  0  0  0  0  3  0  0  0  0  0  0
  161.8720  208.7350  157.2180 C   0  0  0  0  0  3  0  0  0  0  0  0
  160.9720  208.5780  154.8640 C   0  0  0  0  0  0  0  0  0  0  0  0
  161.4340  208.0300  155.9970 C   0  0  0  0  0  3  0  0  0  0  0  0
  161.5170  211.0030  155.2150 C   0  0  0  0  0  3  0  0  0  0  0  0
  160.7710  210.0370  154.6780 C   0  0  0  0  0  3  0  0  0  0  0  0
  162.7380  210.7350  156.0270 C   0  0  0  0  0  2  0  0  0  0  0  0
  1  8  1  0  0  0  0
  1 12  1  0  0  0  0
  2  8  1  0  0  0  0
  3 16  2  0  0  0  0
  4 26  1  6  0  0  0
  5 10  1  0  0  0  0
  5  2  2  0  0  0  0
  6  5  1  0  0  0  0
  7 14  1  0  0  0  0
  7 15  1  0  0  0  0
  8  3  1  0  0  0  0
  9  4  1  0  0  0  0
 10  1  2  0  0  0  0
 11 16  1  0  0  0  0
 12 11  2  0  0  0  0
 13  2  1  0  0  0  0
 13  7  2  0  0  0  0
 14  9  1  0  0  0  0
 15  3  1  0  0  0  0
 15  4  1  0  0  0  0
 17 18  1  0  0  0  0
 17 14  1  0  0  0  0
 19 20  1  0  0  0  0
 19 18  2  0  0  0  0
 21 20  1  0  0  0  0
 21 22  1  0  0  0  0
 22 23  2  0  0  0  0
 24 25  1  0  0  0  0
 25 22  1  0  0  0  0
 26 27  1  0  0  0  0
 27 30  1  0  0  0  0
 29 28  2  0  0  0  0
 30 31  2  0  0  0  0
 31 29  1  0  0  0  0
 32 34  1  0  0  0  0
 33 30  1  0  0  0  0
 33 32  2  0  0  0  0
 34 28  1  0  0  0  0
M  END
>  <MODEL>
4

>  <REMARK>
 VINA RESULT:      -8.2      3.281      9.170
  Name = 
  9 active torsions:
  status: ('A' for Active; 'I' for Inactive)
    1  A    between atoms: C_3  and  C_17
    2  A    between atoms: C_5  and  C_26
    3  A    between atoms: C_12  and  O_28
    4  A    between atoms: C_13  and  C_33
    5  A    between atoms: C_14  and  C_20
    6  A    between atoms: C_17  and  N_29
    7  A    between atoms: C_20  and  O_34
    8  A    between atoms: C_26  and  O_28
    9  A    between atoms: C_33  and  O_34
                            x       y       z     vdW  Elec       q    Type
                         _______ _______ _______ _____ _____    ______ ____

>  <TORSDO>
F 9

$$$$
=
 OpenBabel11062408013D

 34 38  0  0  1  0  0  0  0  0999 V2000
  161.0780  203.9230  149.8000 C   0  0  0  0  0  0  0  0  0  0  0  0
  161.5170  205.6970  148.6630 C   0  0  0  0  0  0  0  0  0  0  0  0
  161.4510  205.9090  151.0230 C   0  0  0  0  0  0  0  0  0  0  0  0
  161.8900  208.3450  151.8990 C   0  0  2  0  0  3  0  0  0  0  0  0
  161.3210  204.6280  147.8010 C   0  0  0  0  0  0  0  0  0  0  0  0
  161.3930  204.6770  146.3160 C   0  0  0  0  0  1  0  0  0  0  0  0
  161.9410  207.8650  149.6010 C   0  0  0  0  0  0  0  0  0  0  0  0
  161.3570  205.2130  149.8860 N   0  0  0  0  0  0  0  0  0  0  0  0
  162.1970  209.6350  151.0900 C   0  0  0  0  0  2  0  0  0  0  0  0
  161.0400  203.4950  148.5160 N   0  0  0  0  0  0  0  0  0  0  0  0
  160.9570  203.9140  152.1880 C   0  0  0  0  0  3  0  0  0  0  0  0
  160.8600  203.1930  150.9680 C   0  0  0  0  0  3  0  0  0  0  0  0
  161.8360  207.1310  148.4660 C   0  0  0  0  0  3  0  0  0  0  0  0
  162.2300  209.2430  149.6790 N   0  0  0  0  0  0  0  0  0  0  0  0
  161.7500  207.3040  150.8930 N   0  0  0  0  0  0  0  0  0  0  0  0
  161.2490  205.2590  152.2030 N   0  0  0  0  0  0  0  0  0  0  0  0
  162.2030  210.1820  148.5640 C   0  0  0  0  0  2  0  0  0  0  0  0
  161.8280  211.5510  149.0350 C   0  0  0  0  0  3  0  0  0  0  0  0
  161.7830  212.5730  148.1850 C   0  0  0  0  0  3  0  0  0  0  0  0
  161.4080  213.9350  148.6660 C   0  0  0  0  0  2  0  0  0  0  0  0
  160.2190  214.3720  148.0200 O   0  0  0  0  0  0  0  0  0  0  0  0
  158.9720  213.7720  148.2300 C   0  0  0  0  0  0  0  0  0  0  0  0
  158.4320  213.1330  147.2900 O   0  0  0  0  0  0  0  0  0  0  0  0
  156.8880  213.2570  149.4380 C   0  0  0  0  0  1  0  0  0  0  0  0
  158.2820  213.8390  149.5530 C   0  0  0  0  0  2  0  0  0  0  0  0
  160.5810  208.5150  152.6500 C   0  0  0  0  0  2  0  0  0  0  0  0
  160.7440  209.4590  153.7010 O   0  0  0  0  0  0  0  0  0  0  0  0
  157.4100  212.4400  153.8160 C   0  0  0  0  0  3  0  0  0  0  0  0
  158.4330  212.3230  152.9700 C   0  0  0  0  0  3  0  0  0  0  0  0
  159.8010  210.4530  153.9750 C   0  0  0  0  0  0  0  0  0  0  0  0
  159.3960  211.2040  152.9410 C   0  0  0  0  0  3  0  0  0  0  0  0
  158.1680  211.1260  155.7590 C   0  0  0  0  0  3  0  0  0  0  0  0
  159.3640  210.6800  155.3760 C   0  0  0  0  0  3  0  0  0  0  0  0
  157.0500  211.3850  154.8070 C   0  0  0  0  0  2  0  0  0  0  0  0
  1  8  1  0  0  0  0
  1 12  1  0  0  0  0
  2  8  1  0  0  0  0
  3 16  2  0  0  0  0
  4 26  1  6  0  0  0
  5 10  1  0  0  0  0
  5  2  2  0  0  0  0
  6  5  1  0  0  0  0
  7 14  1  0  0  0  0
  7 15  1  0  0  0  0
  8  3  1  0  0  0  0
  9  4  1  0  0  0  0
 10  1  2  0  0  0  0
 11 16  1  0  0  0  0
 12 11  2  0  0  0  0
 13  2  1  0  0  0  0
 13  7  2  0  0  0  0
 14  9  1  0  0  0  0
 15  3  1  0  0  0  0
 15  4  1  0  0  0  0
 17 18  1  0  0  0  0
 17 14  1  0  0  0  0
 19 20  1  0  0  0  0
 19 18  2  0  0  0  0
 21 22  1  0  0  0  0
 21 20  1  0  0  0  0
 22 25  1  0  0  0  0
 23 22  2  0  0  0  0
 24 25  1  0  0  0  0
 26 27  1  0  0  0  0
 27 30  1  0  0  0  0
 28 34  1  0  0  0  0
 29 28  2  0  0  0  0
 30 33  1  0  0  0  0
 31 29  1  0  0  0  0
 31 30  2  0  0  0  0
 33 32  2  0  0  0  0
 34 32  1  0  0  0  0
M  END
>  <MODEL>
5

>  <REMARK>
 VINA RESULT:      -8.1      3.598      9.080
  Name = 
  9 active torsions:
  status: ('A' for Active; 'I' for Inactive)
    1  A    between atoms: C_3  and  C_17
    2  A    between atoms: C_5  and  C_26
    3  A    between atoms: C_12  and  O_28
    4  A    between atoms: C_13  and  C_33
    5  A    between atoms: C_14  and  C_20
    6  A    between atoms: C_17  and  N_29
    7  A    between atoms: C_20  and  O_34
    8  A    between atoms: C_26  and  O_28
    9  A    between atoms: C_33  and  O_34
                            x       y       z     vdW  Elec       q    Type
                         _______ _______ _______ _____ _____    ______ ____

>  <TORSDO>
F 9

$$$$
=
 OpenBabel11062408013D

 34 38  0  0  1  0  0  0  0  0999 V2000
  161.1980  207.2140  153.8450 C   0  0  0  0  0  0  0  0  0  0  0  0
  161.4990  209.1090  152.8690 C   0  0  0  0  0  0  0  0  0  0  0  0
  161.3230  207.1920  151.4860 C   0  0  0  0  0  0  0  0  0  0  0  0
  161.5750  207.6870  148.9200 C   0  0  2  0  0  3  0  0  0  0  0  0
  161.4540  209.2940  154.2430 C   0  0  0  0  0  0  0  0  0  0  0  0
  161.5950  210.5930  154.9550 C   0  0  0  0  0  1  0  0  0  0  0  0
  161.6720  209.4250  150.4970 C   0  0  0  0  0  0  0  0  0  0  0  0
  161.3360  207.8090  152.6720 N   0  0  0  0  0  0  0  0  0  0  0  0
  161.8030  209.0470  148.2040 C   0  0  0  0  0  2  0  0  0  0  0  0
  161.2630  208.0940  154.8730 N   0  0  0  0  0  0  0  0  0  0  0  0
  160.9980  205.1570  152.6420 C   0  0  0  0  0  3  0  0  0  0  0  0
  161.0170  205.8320  153.8920 C   0  0  0  0  0  3  0  0  0  0  0  0
  161.6830  210.0200  151.7150 C   0  0  0  0  0  3  0  0  0  0  0  0
  161.8300  210.0700  149.2520 N   0  0  0  0  0  0  0  0  0  0  0  0
  161.5050  208.0230  150.3340 N   0  0  0  0  0  0  0  0  0  0  0  0
  161.1520  205.8410  151.4570 N   0  0  0  0  0  0  0  0  0  0  0  0
  162.3000  211.4350  149.0560 C   0  0  0  0  0  2  0  0  0  0  0  0
  161.6160  212.0670  147.8860 C   0  0  0  0  0  3  0  0  0  0  0  0
  162.2350  212.9910  147.1550 C   0  0  0  0  0  3  0  0  0  0  0  0
  161.5430  213.6140  145.9890 C   0  0  0  0  0  2  0  0  0  0  0  0
  161.5410  212.7170  144.8850 O   0  0  0  0  0  0  0  0  0  0  0  0
  162.2810  212.9420  143.7190 C   0  0  0  0  0  0  0  0  0  0  0  0
  163.4470  213.4080  143.8120 O   0  0  0  0  0  0  0  0  0  0  0  0
  160.4850  211.7680  142.5100 C   0  0  0  0  0  1  0  0  0  0  0  0
  161.7380  212.6080  142.3680 C   0  0  0  0  0  2  0  0  0  0  0  0
  162.7600  206.7730  148.6660 C   0  0  0  0  0  2  0  0  0  0  0  0
  162.5930  206.0940  147.4280 O   0  0  0  0  0  0  0  0  0  0  0  0
  160.8280  202.0910  146.4940 C   0  0  0  0  0  3  0  0  0  0  0  0
  161.0730  203.1320  145.6990 C   0  0  0  0  0  3  0  0  0  0  0  0
  161.8520  204.9150  147.3070 C   0  0  0  0  0  0  0  0  0  0  0  0
  161.8000  204.3560  146.0910 C   0  0  0  0  0  3  0  0  0  0  0  0
  160.8450  203.1140  148.7370 C   0  0  0  0  0  3  0  0  0  0  0  0
  161.1100  204.3960  148.4840 C   0  0  0  0  0  3  0  0  0  0  0  0
  161.3470  201.9940  147.8900 C   0  0  0  0  0  2  0  0  0  0  0  0
  1 12  1  0  0  0  0
  1 10  2  0  0  0  0
  2  5  2  0  0  0  0
  3  8  1  0  0  0  0
  4 26  1  1  0  0  0
  4 15  1  0  0  0  0
  5 10  1  0  0  0  0
  5  6  1  0  0  0  0
  7 13  2  0  0  0  0
  8  2  1  0  0  0  0
  8  1  1  0  0  0  0
  9  4  1  0  0  0  0
  9 14  1  0  0  0  0
 11 12  2  0  0  0  0
 13  2  1  0  0  0  0
 14  7  1  0  0  0  0
 15  7  1  0  0  0  0
 15  3  1  0  0  0  0
 16  3  2  0  0  0  0
 16 11  1  0  0  0  0
 17 14  1  0  0  0  0
 18 17  1  0  0  0  0
 19 18  2  0  0  0  0
 20 19  1  0  0  0  0
 21 20  1  0  0  0  0
 22 23  2  0  0  0  0
 22 21  1  0  0  0  0
 25 24  1  0  0  0  0
 25 22  1  0  0  0  0
 27 26  1  0  0  0  0
 28 34  1  0  0  0  0
 29 31  1  0  0  0  0
 29 28  2  0  0  0  0
 30 27  1  0  0  0  0
 30 33  1  0  0  0  0
 31 30  2  0  0  0  0
 33 32  2  0  0  0  0
 34 32  1  0  0  0  0
M  END
>  <MODEL>
6

>  <REMARK>
 VINA RESULT:      -7.8      3.510      6.688
  Name = 
  9 active torsions:
  status: ('A' for Active; 'I' for Inactive)
    1  A    between atoms: C_3  and  C_17
    2  A    between atoms: C_5  and  C_26
    3  A    between atoms: C_12  and  O_28
    4  A    between atoms: C_13  and  C_33
    5  A    between atoms: C_14  and  C_20
    6  A    between atoms: C_17  and  N_29
    7  A    between atoms: C_20  and  O_34
    8  A    between atoms: C_26  and  O_28
    9  A    between atoms: C_33  and  O_34
                            x       y       z     vdW  Elec       q    Type
                         _______ _______ _______ _____ _____    ______ ____

>  <TORSDO>
F 9

$$$$
=
 OpenBabel11062408013D

 34 38  0  0  1  0  0  0  0  0999 V2000
  161.2080  207.1590  153.8450 C   0  0  0  0  0  0  0  0  0  0  0  0
  161.5100  209.0590  152.8780 C   0  0  0  0  0  0  0  0  0  0  0  0
  161.3510  207.1450  151.4870 C   0  0  0  0  0  0  0  0  0  0  0  0
  161.6210  207.6490  148.9250 C   0  0  2  0  0  3  0  0  0  0  0  0
  161.4540  209.2400  154.2510 C   0  0  0  0  0  0  0  0  0  0  0  0
  161.5840  210.5360  154.9690 C   0  0  0  0  0  1  0  0  0  0  0  0
  161.6990  209.3830  150.5070 C   0  0  0  0  0  0  0  0  0  0  0  0
  161.3530  207.7590  152.6750 N   0  0  0  0  0  0  0  0  0  0  0  0
  161.8500  209.0130  148.2150 C   0  0  0  0  0  2  0  0  0  0  0  0
  161.2630  208.0370  154.8760 N   0  0  0  0  0  0  0  0  0  0  0  0
  161.0250  205.1060  152.6340 C   0  0  0  0  0  3  0  0  0  0  0  0
  161.0330  205.7770  153.8860 C   0  0  0  0  0  3  0  0  0  0  0  0
  161.6990  209.9750  151.7270 C   0  0  0  0  0  3  0  0  0  0  0  0
  161.8650  210.0320  149.2660 N   0  0  0  0  0  0  0  0  0  0  0  0
  161.5380  207.9810  150.3390 N   0  0  0  0  0  0  0  0  0  0  0  0
  161.1850  205.7940  151.4530 N   0  0  0  0  0  0  0  0  0  0  0  0
  162.3310  211.4000  149.0780 C   0  0  0  0  0  2  0  0  0  0  0  0
  161.6530  212.0330  147.9050 C   0  0  0  0  0  3  0  0  0  0  0  0
  162.3080  212.8860  147.1210 C   0  0  0  0  0  3  0  0  0  0  0  0
  161.6210  213.5120  145.9530 C   0  0  0  0  0  2  0  0  0  0  0  0
  160.2170  213.5590  146.1800 O   0  0  0  0  0  0  0  0  0  0  0  0
  159.2940  212.8690  145.3880 C   0  0  0  0  0  0  0  0  0  0  0  0
  159.7130  212.1270  144.4620 O   0  0  0  0  0  0  0  0  0  0  0  0
  157.5170  212.5780  147.0690 C   0  0  0  0  0  1  0  0  0  0  0  0
  157.8230  212.9620  145.6360 C   0  0  0  0  0  2  0  0  0  0  0  0
  162.8120  206.7410  148.6770 C   0  0  0  0  0  2  0  0  0  0  0  0
  162.6600  206.0710  147.4320 O   0  0  0  0  0  0  0  0  0  0  0  0
  160.8930  202.0780  146.4610 C   0  0  0  0  0  3  0  0  0  0  0  0
  161.1800  203.1090  145.6670 C   0  0  0  0  0  3  0  0  0  0  0  0
  161.9130  204.8990  147.2910 C   0  0  0  0  0  0  0  0  0  0  0  0
  161.9030  204.3290  146.0780 C   0  0  0  0  0  3  0  0  0  0  0  0
  160.8310  203.1200  148.6940 C   0  0  0  0  0  3  0  0  0  0  0  0
  161.1190  204.3970  148.4410 C   0  0  0  0  0  3  0  0  0  0  0  0
  161.3550  201.9880  147.8770 C   0  0  0  0  0  2  0  0  0  0  0  0
  1 12  1  0  0  0  0
  1 10  2  0  0  0  0
  2  5  2  0  0  0  0
  3  8  1  0  0  0  0
  4 26  1  1  0  0  0
  4 15  1  0  0  0  0
  5 10  1  0  0  0  0
  5  6  1  0  0  0  0
  7 13  2  0  0  0  0
  8  2  1  0  0  0  0
  8  1  1  0  0  0  0
  9  4  1  0  0  0  0
  9 14  1  0  0  0  0
 11 12  2  0  0  0  0
 13  2  1  0  0  0  0
 14  7  1  0  0  0  0
 15  7  1  0  0  0  0
 15  3  1  0  0  0  0
 16  3  2  0  0  0  0
 16 11  1  0  0  0  0
 17 14  1  0  0  0  0
 18 17  1  0  0  0  0
 19 18  2  0  0  0  0
 20 21  1  0  0  0  0
 20 19  1  0  0  0  0
 22 25  1  0  0  0  0
 22 21  1  0  0  0  0
 23 22  2  0  0  0  0
 25 24  1  0  0  0  0
 27 26  1  0  0  0  0
 28 34  1  0  0  0  0
 29 31  1  0  0  0  0
 29 28  2  0  0  0  0
 30 27  1  0  0  0  0
 30 33  1  0  0  0  0
 31 30  2  0  0  0  0
 33 32  2  0  0  0  0
 34 32  1  0  0  0  0
M  END
>  <MODEL>
7

>  <REMARK>
 VINA RESULT:      -7.7      3.396      6.659
  Name = 
  9 active torsions:
  status: ('A' for Active; 'I' for Inactive)
    1  A    between atoms: C_3  and  C_17
    2  A    between atoms: C_5  and  C_26
    3  A    between atoms: C_12  and  O_28
    4  A    between atoms: C_13  and  C_33
    5  A    between atoms: C_14  and  C_20
    6  A    between atoms: C_17  and  N_29
    7  A    between atoms: C_20  and  O_34
    8  A    between atoms: C_26  and  O_28
    9  A    between atoms: C_33  and  O_34
                            x       y       z     vdW  Elec       q    Type
                         _______ _______ _______ _____ _____    ______ ____

>  <TORSDO>
F 9

$$$$
=
 OpenBabel11062408013D

 34 38  0  0  1  0  0  0  0  0999 V2000
  160.4670  212.9420  150.5370 C   0  0  0  0  0  0  0  0  0  0  0  0
  160.1050  211.4270  152.0230 C   0  0  0  0  0  0  0  0  0  0  0  0
  161.4940  210.8430  150.1920 C   0  0  0  0  0  0  0  0  0  0  0  0
  162.3560  208.3640  150.2410 C   0  0  2  0  0  3  0  0  0  0  0  0
  159.4320  212.5890  152.3690 C   0  0  0  0  0  0  0  0  0  0  0  0
  158.5810  212.7810  153.5740 C   0  0  0  0  0  1  0  0  0  0  0  0
  160.9950  209.1990  151.9640 C   0  0  0  0  0  0  0  0  0  0  0  0
  160.7300  211.6930  150.8850 N   0  0  0  0  0  0  0  0  0  0  0  0
  162.0930  207.2580  151.3010 C   0  0  0  0  0  2  0  0  0  0  0  0
  159.6560  213.5590  151.4290 N   0  0  0  0  0  0  0  0  0  0  0  0
  161.8320  212.5650  148.6110 C   0  0  0  0  0  3  0  0  0  0  0  0
  161.0150  213.4530  149.3610 C   0  0  0  0  0  3  0  0  0  0  0  0
  160.2250  210.0850  152.6410 C   0  0  0  0  0  3  0  0  0  0  0  0
  161.2600  207.8660  152.3400 N   0  0  0  0  0  0  0  0  0  0  0  0
  161.6390  209.5270  150.7400 N   0  0  0  0  0  0  0  0  0  0  0  0
  162.0610  211.2740  149.0310 N   0  0  0  0  0  0  0  0  0  0  0  0
  160.5490  207.1160  153.3670 C   0  0  0  0  0  2  0  0  0  0  0  0
  161.2210  207.2690  154.6950 C   0  0  0  0  0  3  0  0  0  0  0  0
  160.5900  207.8480  155.7130 C   0  0  0  0  0  3  0  0  0  0  0  0
  161.2710  207.9960  157.0330 C   0  0  0  0  0  2  0  0  0  0  0  0
  162.4390  208.7950  156.8930 O   0  0  0  0  0  0  0  0  0  0  0  0
  162.3960  210.1780  156.6830 C   0  0  0  0  0  0  0  0  0  0  0  0
  163.2780  210.7160  155.9640 O   0  0  0  0  0  0  0  0  0  0  0  0
  160.8300  212.0230  156.2240 C   0  0  0  0  0  1  0  0  0  0  0  0
  161.3100  211.0260  157.2590 C   0  0  0  0  0  2  0  0  0  0  0  0
  161.7780  207.9350  148.9040 C   0  0  0  0  0  2  0  0  0  0  0  0
  162.2390  206.6320  148.5720 O   0  0  0  0  0  0  0  0  0  0  0  0
  160.7380  204.7510  144.8000 C   0  0  0  0  0  3  0  0  0  0  0  0
  160.4980  205.9560  145.3180 C   0  0  0  0  0  3  0  0  0  0  0  0
  161.6630  205.8640  147.5560 C   0  0  0  0  0  0  0  0  0  0  0  0
  161.1700  206.5280  146.5010 C   0  0  0  0  0  3  0  0  0  0  0  0
  161.5760  203.4900  146.7450 C   0  0  0  0  0  3  0  0  0  0  0  0
  161.5540  204.3930  147.7260 C   0  0  0  0  0  3  0  0  0  0  0  0
  161.8040  203.8430  145.3150 C   0  0  0  0  0  2  0  0  0  0  0  0
  1  8  1  0  0  0  0
  1 10  2  0  0  0  0
  2  5  2  0  0  0  0
  2 13  1  0  0  0  0
  3 15  1  0  0  0  0
  3  8  1  0  0  0  0
  4 26  1  6  0  0  0
  4 15  1  0  0  0  0
  4  9  1  0  0  0  0
  5  6  1  0  0  0  0
  7 14  1  0  0  0  0
  7 13  2  0  0  0  0
  8  2  1  0  0  0  0
  9 14  1  0  0  0  0
 10  5  1  0  0  0  0
 11 16  1  0  0  0  0
 11 12  2  0  0  0  0
 12  1  1  0  0  0  0
 14 17  1  0  0  0  0
 15  7  1  0  0  0  0
 16  3  2  0  0  0  0
 17 18  1  0  0  0  0
 18 19  2  0  0  0  0
 19 20  1  0  0  0  0
 21 20  1  0  0  0  0
 22 21  1  0  0  0  0
 22 25  1  0  0  0  0
 23 22  2  0  0  0  0
 24 25  1  0  0  0  0
 27 26  1  0  0  0  0
 28 34  1  0  0  0  0
 28 29  2  0  0  0  0
 29 31  1  0  0  0  0
 30 33  1  0  0  0  0
 30 27  1  0  0  0  0
 31 30  2  0  0  0  0
 32 33  2  0  0  0  0
 34 32  1  0  0  0  0
M  END
>  <MODEL>
8

>  <REMARK>
 VINA RESULT:      -7.3      3.058      6.704
  Name = 
  9 active torsions:
  status: ('A' for Active; 'I' for Inactive)
    1  A    between atoms: C_3  and  C_17
    2  A    between atoms: C_5  and  C_26
    3  A    between atoms: C_12  and  O_28
    4  A    between atoms: C_13  and  C_33
    5  A    between atoms: C_14  and  C_20
    6  A    between atoms: C_17  and  N_29
    7  A    between atoms: C_20  and  O_34
    8  A    between atoms: C_26  and  O_28
    9  A    between atoms: C_33  and  O_34
                            x       y       z     vdW  Elec       q    Type
                         _______ _______ _______ _____ _____    ______ ____

>  <TORSDO>
F 9

$$$$
=
 OpenBabel11062408013D

 34 38  0  0  1  0  0  0  0  0999 V2000
  160.8770  206.3910  154.1930 C   0  0  0  0  0  0  0  0  0  0  0  0
  161.3170  206.4020  152.0860 C   0  0  0  0  0  0  0  0  0  0  0  0
  161.2130  208.5010  153.1840 C   0  0  0  0  0  0  0  0  0  0  0  0
  161.6160  210.5620  151.6090 C   0  0  2  0  0  3  0  0  0  0  0  0
  161.1430  205.0960  152.5190 C   0  0  0  0  0  0  0  0  0  0  0  0
  161.2380  203.8750  151.6740 C   0  0  0  0  0  1  0  0  0  0  0  0
  161.7060  208.3700  150.7690 C   0  0  0  0  0  0  0  0  0  0  0  0
  161.1430  207.1660  153.1540 N   0  0  0  0  0  0  0  0  0  0  0  0
  161.9230  210.5840  150.0860 C   0  0  0  0  0  2  0  0  0  0  0  0
  160.8620  205.0790  153.8580 N   0  0  0  0  0  0  0  0  0  0  0  0
  160.7200  208.3930  155.4920 C   0  0  0  0  0  3  0  0  0  0  0  0
  160.6480  206.9750  155.4390 C   0  0  0  0  0  3  0  0  0  0  0  0
  161.6260  207.0170  150.7730 C   0  0  0  0  0  3  0  0  0  0  0  0
  161.9810  209.1860  149.6520 N   0  0  0  0  0  0  0  0  0  0  0  0
  161.5010  209.1500  151.9400 N   0  0  0  0  0  0  0  0  0  0  0  0
  161.0000  209.1380  154.3680 N   0  0  0  0  0  0  0  0  0  0  0  0
  161.9620  208.7560  148.2600 C   0  0  0  0  0  2  0  0  0  0  0  0
  162.4510  207.3480  148.1350 C   0  0  0  0  0  3  0  0  0  0  0  0
  161.8920  206.5090  147.2670 C   0  0  0  0  0  3  0  0  0  0  0  0
  162.3880  205.1070  147.1510 C   0  0  0  0  0  2  0  0  0  0  0  0
  161.6440  204.2520  148.0120 O   0  0  0  0  0  0  0  0  0  0  0  0
  161.2090  202.9780  147.6320 C   0  0  0  0  0  0  0  0  0  0  0  0
  161.2150  202.6670  146.4120 O   0  0  0  0  0  0  0  0  0  0  0  0
  161.2210  200.5840  148.2090 C   0  0  0  0  0  1  0  0  0  0  0  0
  160.7720  201.9660  148.6390 C   0  0  0  0  0  2  0  0  0  0  0  0
  160.2940  211.2620  151.8710 C   0  0  0  0  0  2  0  0  0  0  0  0
  160.4400  212.1870  152.9410 O   0  0  0  0  0  0  0  0  0  0  0  0
  157.1300  211.8140  155.9280 C   0  0  0  0  0  3  0  0  0  0  0  0
  157.1050  212.2240  154.6600 C   0  0  0  0  0  3  0  0  0  0  0  0
  159.5460  212.2480  154.0140 C   0  0  0  0  0  0  0  0  0  0  0  0
  158.2410  212.1650  153.7190 C   0  0  0  0  0  3  0  0  0  0  0  0
  159.5150  212.0310  156.5150 C   0  0  0  0  0  3  0  0  0  0  0  0
  160.0660  212.4770  155.3860 C   0  0  0  0  0  3  0  0  0  0  0  0
  158.3150  211.1470  156.5430 C   0  0  0  0  0  2  0  0  0  0  0  0
  1 12  1  0  0  0  0
  2  5  2  0  0  0  0
  2  8  1  0  0  0  0
  3 16  2  0  0  0  0
  4 26  1  6  0  0  0
  4 15  1  0  0  0  0
  5 10  1  0  0  0  0
  6  5  1  0  0  0  0
  7 13  2  0  0  0  0
  7 15  1  0  0  0  0
  8  3  1  0  0  0  0
  8  1  1  0  0  0  0
  9  4  1  0  0  0  0
 10  1  2  0  0  0  0
 12 11  2  0  0  0  0
 13  2  1  0  0  0  0
 14  9  1  0  0  0  0
 14  7  1  0  0  0  0
 15  3  1  0  0  0  0
 16 11  1  0  0  0  0
 17 14  1  0  0  0  0
 18 17  1  0  0  0  0
 19 18  2  0  0  0  0
 20 19  1  0  0  0  0
 20 21  1  0  0  0  0
 22 21  1  0  0  0  0
 22 25  1  0  0  0  0
 23 22  2  0  0  0  0
 24 25  1  0  0  0  0
 26 27  1  0  0  0  0
 27 30  1  0  0  0  0
 28 34  1  0  0  0  0
 29 28  2  0  0  0  0
 30 33  1  0  0  0  0
 31 30  2  0  0  0  0
 31 29  1  0  0  0  0
 32 34  1  0  0  0  0
 33 32  2  0  0  0  0
M  END
>  <MODEL>
9

>  <REMARK>
 VINA RESULT:      -7.2      2.390      6.636
  Name = 
  9 active torsions:
  status: ('A' for Active; 'I' for Inactive)
    1  A    between atoms: C_3  and  C_17
    2  A    between atoms: C_5  and  C_26
    3  A    between atoms: C_12  and  O_28
    4  A    between atoms: C_13  and  C_33
    5  A    between atoms: C_14  and  C_20
    6  A    between atoms: C_17  and  N_29
    7  A    between atoms: C_20  and  O_34
    8  A    between atoms: C_26  and  O_28
    9  A    between atoms: C_33  and  O_34
                            x       y       z     vdW  Elec       q    Type
                         _______ _______ _______ _____ _____    ______ ____

>  <TORSDO>
F 9

$$$$
