=
 OpenBabel11062407483D

 34 39  0  0  1  0  0  0  0  0999 V2000
  160.9510  204.0940  151.5940 C   0  0  0  0  0  0  0  0  0  0  0  0
  161.1050  206.3390  152.6590 N   0  0  0  0  0  0  0  0  0  0  0  0
  161.7050  206.0460  150.2510 C   0  0  0  0  0  0  0  0  0  0  0  0
  161.8550  207.1810  147.5200 N   0  0  2  0  0  0  0  0  0  0  0  0
  160.1990  202.0200  150.2740 C   0  0  0  0  0  1  0  0  0  0  0  0
  161.1000  205.9380  154.0570 C   0  0  0  0  0  1  0  0  0  0  0  0
  161.2070  208.2360  151.1980 C   0  0  0  0  0  3  0  0  0  0  0  0
  161.6540  205.4290  151.6380 C   0  0  2  0  0  3  0  0  0  0  0  0
  161.9900  207.9980  148.7410 C   0  0  2  0  0  3  0  0  0  0  0  0
  160.5010  203.5700  152.6500 O   0  0  0  0  0  0  0  0  0  0  0  0
  162.0560  205.1310  149.1090 C   0  0  2  0  0  3  0  0  0  0  0  0
  160.8750  203.3470  150.3230 C   0  0  0  0  0  0  0  0  0  0  0  0
  160.9730  207.7390  152.4050 C   0  0  0  0  0  3  0  0  0  0  0  0
  160.5590  206.4600  147.5090 C   0  0  0  0  0  2  0  0  0  0  0  0
  161.8060  205.7100  147.7020 C   0  0  1  0  0  0  0  0  0  0  0  0
  161.5880  207.3680  150.0660 C   0  0  0  0  0  0  0  0  0  0  0  0
  161.3500  203.8490  149.2220 N   0  0  0  0  0  0  0  0  0  0  0  0
  161.2080  205.8070  144.3730 C   0  0  1  0  0  3  0  0  0  0  0  0
  160.1950  204.8950  144.7700 O   0  0  0  0  0  0  0  0  0  0  0  0
  162.3330  204.9140  146.4900 C   0  0  2  0  0  3  0  0  0  0  0  0
  160.7690  203.6260  144.9630 C   0  0  0  0  0  2  0  0  0  0  0  0
  162.5120  205.7170  145.1910 C   0  0  0  0  0  2  0  0  0  0  0  0
  161.5610  203.6040  146.2700 C   0  0  0  0  0  2  0  0  0  0  0  0
  161.4950  205.6990  142.8860 C   0  0  0  0  0  1  0  0  0  0  0  0
  161.3930  209.3820  148.4970 C   0  0  0  0  0  2  0  0  0  0  0  0
  162.4660  210.4450  148.6300 C   0  0  0  0  0  2  0  0  0  0  0  0
  161.9080  211.6560  149.3630 C   0  0  0  0  0  2  0  0  0  0  0  0
  159.4250  213.3450  148.8640 F   0  0  0  0  0  0  0  0  0  0  0  0
  161.7260  212.8490  148.4280 C   0  0  2  0  0  3  0  0  0  0  0  0
  160.2950  212.9340  147.8700 C   0  0  2  0  0  3  0  0  0  0  0  0
  161.1370  213.4060  145.5820 C   0  0  0  0  0  2  0  0  0  0  0  0
  162.5370  213.1620  146.0790 C   0  0  0  0  0  3  0  0  0  0  0  0
  162.7980  212.8670  147.3610 C   0  0  0  0  0  3  0  0  0  0  0  0
  160.2330  213.9120  146.7010 C   0  0  0  0  0  2  0  0  0  0  0  0
  1  8  1  0  0  0  0
  1 10  2  0  0  0  0
  2  6  1  0  0  0  0
  4 14  1  1  0  0  0
  4 15  1  0  0  0  0
  4  9  1  0  0  0  0
  5 12  1  0  0  0  0
  7 13  2  0  0  0  0
  8  3  1  6  0  0  0
  8  2  1  0  0  0  0
  9 25  1  6  0  0  0
  9 16  1  0  0  0  0
 11 17  1  1  0  0  0
 11  3  1  0  0  0  0
 12  1  1  0  0  0  0
 13  2  1  0  0  0  0
 15 14  1  6  0  0  0
 15 11  1  0  0  0  0
 16  3  2  0  0  0  0
 16  7  1  0  0  0  0
 17 12  2  0  0  0  0
 18 24  1  6  0  0  0
 18 19  1  0  0  0  0
 18 22  1  0  0  0  0
 19 21  1  0  0  0  0
 20 22  1  6  0  0  0
 20 15  1  0  0  0  0
 21 23  1  0  0  0  0
 23 20  1  0  0  0  0
 25 26  1  0  0  0  0
 26 27  1  0  0  0  0
 29 27  1  6  0  0  0
 30 29  1  0  0  0  0
 30 28  1  1  0  0  0
 31 32  1  0  0  0  0
 31 34  1  0  0  0  0
 32 33  2  0  0  0  0
 33 29  1  0  0  0  0
 34 30  1  0  0  0  0
M  END
>  <MODEL>
1

>  <REMARK>
 VINA RESULT:      -8.4      0.000      0.000
  Name = 
  5 active torsions:
  status: ('A' for Active; 'I' for Inactive)
    1  A    between atoms: C_3  and  C_13
    2  A    between atoms: C_3  and  C_17
    3  A    between atoms: C_12  and  C_28
    4  A    between atoms: C_17  and  C_29
    5  A    between atoms: C_18  and  C_29
                            x       y       z     vdW  Elec       q    Type
                         _______ _______ _______ _____ _____    ______ ____

>  <TORSDO>
F 5

$$$$
=
 OpenBabel11062407483D

 34 39  0  0  1  0  0  0  0  0999 V2000
  161.1080  204.0120  149.7010 C   0  0  0  0  0  0  0  0  0  0  0  0
  161.5830  204.9230  147.4330 N   0  0  0  0  0  0  0  0  0  0  0  0
  161.0910  206.4710  149.3310 C   0  0  0  0  0  0  0  0  0  0  0  0
  161.4900  209.1060  150.6230 N   0  0  2  0  0  0  0  0  0  0  0  0
  161.2690  203.2240  152.1420 C   0  0  0  0  0  1  0  0  0  0  0  0
  161.3660  203.7200  146.6450 C   0  0  0  0  0  1  0  0  0  0  0  0
  162.1760  207.2410  147.2890 C   0  0  0  0  0  3  0  0  0  0  0  0
  160.8510  205.1120  148.6980 C   0  0  2  0  0  3  0  0  0  0  0  0
  161.5300  208.9100  149.1610 C   0  0  2  0  0  3  0  0  0  0  0  0
  161.2980  202.8260  149.3170 O   0  0  0  0  0  0  0  0  0  0  0  0
  160.5540  206.6810  150.7220 C   0  0  2  0  0  3  0  0  0  0  0  0
  161.0360  204.3070  151.1450 C   0  0  0  0  0  0  0  0  0  0  0  0
  162.1590  206.0330  146.7420 C   0  0  0  0  0  3  0  0  0  0  0  0
  162.4960  208.2500  151.2970 C   0  0  0  0  0  2  0  0  0  0  0  0
  161.0680  207.9440  151.4410 C   0  0  1  0  0  0  0  0  0  0  0  0
  161.6240  207.4850  148.6370 C   0  0  0  0  0  0  0  0  0  0  0  0
  160.8170  205.5140  151.5730 N   0  0  0  0  0  0  0  0  0  0  0  0
  160.8260  210.8180  153.2100 C   0  0  1  0  0  3  0  0  0  0  0  0
  162.0420  210.3140  153.7420 O   0  0  0  0  0  0  0  0  0  0  0  0
  160.4050  208.3310  152.7800 C   0  0  2  0  0  3  0  0  0  0  0  0
  161.7500  209.3180  154.6920 C   0  0  0  0  0  2  0  0  0  0  0  0
  159.7900  209.7400  152.8370 C   0  0  0  0  0  2  0  0  0  0  0  0
  161.3090  208.0350  153.9870 C   0  0  0  0  0  2  0  0  0  0  0  0
  160.2130  211.8610  154.1290 C   0  0  0  0  0  1  0  0  0  0  0  0
  162.5420  209.8740  148.5450 C   0  0  0  0  0  2  0  0  0  0  0  0
  162.2530  211.2920  148.9940 C   0  0  0  0  0  2  0  0  0  0  0  0
  162.6130  212.2710  147.8860 C   0  0  0  0  0  2  0  0  0  0  0  0
  161.1090  214.2950  149.5910 F   0  0  0  0  0  0  0  0  0  0  0  0
  161.4310  213.1590  147.5090 C   0  0  2  0  0  3  0  0  0  0  0  0
  160.5000  213.4240  148.7050 C   0  0  2  0  0  3  0  0  0  0  0  0
  158.4810  213.0170  147.3180 C   0  0  0  0  0  2  0  0  0  0  0  0
  159.3800  212.5940  146.1870 C   0  0  0  0  0  3  0  0  0  0  0  0
  160.7170  212.6180  146.2900 C   0  0  0  0  0  3  0  0  0  0  0  0
  159.1780  214.0190  148.2330 C   0  0  0  0  0  2  0  0  0  0  0  0
  1 12  1  0  0  0  0
  2  8  1  0  0  0  0
  4 14  1  1  0  0  0
  4 15  1  0  0  0  0
  6  2  1  0  0  0  0
  7 16  1  0  0  0  0
  8  3  1  1  0  0  0
  8  1  1  0  0  0  0
  9 25  1  1  0  0  0
  9  4  1  0  0  0  0
 10  1  2  0  0  0  0
 11  3  1  6  0  0  0
 11 15  1  0  0  0  0
 11 17  1  0  0  0  0
 12 17  2  0  0  0  0
 12  5  1  0  0  0  0
 13  7  2  0  0  0  0
 13  2  1  0  0  0  0
 15 14  1  1  0  0  0
 15 20  1  0  0  0  0
 16  9  1  0  0  0  0
 16  3  2  0  0  0  0
 18 19  1  0  0  0  0
 18 24  1  1  0  0  0
 19 21  1  0  0  0  0
 20 22  1  6  0  0  0
 20 23  1  0  0  0  0
 22 18  1  0  0  0  0
 23 21  1  0  0  0  0
 25 26  1  0  0  0  0
 27 26  1  0  0  0  0
 29 27  1  1  0  0  0
 29 30  1  0  0  0  0
 30 28  1  1  0  0  0
 31 34  1  0  0  0  0
 32 33  2  0  0  0  0
 32 31  1  0  0  0  0
 33 29  1  0  0  0  0
 34 30  1  0  0  0  0
M  END
>  <MODEL>
2

>  <REMARK>
 VINA RESULT:      -8.3      2.168      5.475
  Name = 
  5 active torsions:
  status: ('A' for Active; 'I' for Inactive)
    1  A    between atoms: C_3  and  C_13
    2  A    between atoms: C_3  and  C_17
    3  A    between atoms: C_12  and  C_28
    4  A    between atoms: C_17  and  C_29
    5  A    between atoms: C_18  and  C_29
                            x       y       z     vdW  Elec       q    Type
                         _______ _______ _______ _____ _____    ______ ____

>  <TORSDO>
F 5

$$$$
=
 OpenBabel11062407483D

 34 39  0  0  1  0  0  0  0  0999 V2000
  160.7800  212.0660  150.7990 C   0  0  0  0  0  0  0  0  0  0  0  0
  161.9310  210.7230  149.0470 N   0  0  0  0  0  0  0  0  0  0  0  0
  161.8070  209.8820  151.3960 C   0  0  0  0  0  0  0  0  0  0  0  0
  161.6780  207.5880  153.2650 N   0  0  2  0  0  0  0  0  0  0  0  0
  159.0830  213.0290  152.4730 C   0  0  0  0  0  1  0  0  0  0  0  0
  162.1220  211.7580  148.0440 C   0  0  0  0  0  1  0  0  0  0  0  0
  162.3160  208.4060  149.5250 C   0  0  0  0  0  3  0  0  0  0  0  0
  161.8820  211.0860  150.4740 C   0  0  2  0  0  3  0  0  0  0  0  0
  162.3660  207.5290  151.9610 C   0  0  2  0  0  3  0  0  0  0  0  0
  160.4450  212.9530  149.9670 O   0  0  0  0  0  0  0  0  0  0  0  0
  161.5470  210.1530  152.8540 C   0  0  2  0  0  3  0  0  0  0  0  0
  160.1580  212.0520  152.1370 C   0  0  0  0  0  0  0  0  0  0  0  0
  162.2220  209.3850  148.6360 C   0  0  0  0  0  3  0  0  0  0  0  0
  160.2520  207.9550  153.0910 C   0  0  0  0  0  2  0  0  0  0  0  0
  161.1810  208.9160  153.6980 C   0  0  1  0  0  0  0  0  0  0  0  0
  162.1020  208.6480  150.9660 C   0  0  0  0  0  0  0  0  0  0  0  0
  160.4990  211.1660  153.0250 N   0  0  0  0  0  0  0  0  0  0  0  0
  159.3530  210.8680  155.7710 C   0  0  1  0  0  3  0  0  0  0  0  0
  160.4560  211.7320  155.5430 O   0  0  0  0  0  0  0  0  0  0  0  0
  161.1050  209.0840  155.2300 C   0  0  2  0  0  3  0  0  0  0  0  0
  161.5350  211.3220  156.3450 C   0  0  0  0  0  2  0  0  0  0  0  0
  159.7060  209.3680  155.8020 C   0  0  0  0  0  2  0  0  0  0  0  0
  162.1670  210.0570  155.7650 C   0  0  0  0  0  2  0  0  0  0  0  0
  158.5890  211.2690  157.0210 C   0  0  0  0  0  1  0  0  0  0  0  0
  162.2310  206.1240  151.3760 C   0  0  0  0  0  2  0  0  0  0  0  0
  161.3830  205.2590  152.2870 C   0  0  0  0  0  2  0  0  0  0  0  0
  160.4460  204.3940  151.4560 C   0  0  0  0  0  2  0  0  0  0  0  0
  161.3760  205.1930  148.6690 F   0  0  0  0  0  0  0  0  0  0  0  0
  161.2060  203.5700  150.4200 C   0  0  2  0  0  3  0  0  0  0  0  0
  160.8310  203.9590  148.9800 C   0  0  2  0  0  3  0  0  0  0  0  0
  160.6720  201.5770  148.2990 C   0  0  0  0  0  2  0  0  0  0  0  0
  160.8730  201.1820  149.7380 C   0  0  0  0  0  3  0  0  0  0  0  0
  161.0720  202.0900  150.7050 C   0  0  0  0  0  3  0  0  0  0  0  0
  161.3390  202.9140  147.9930 C   0  0  0  0  0  2  0  0  0  0  0  0
  1 12  1  0  0  0  0
  2  8  1  0  0  0  0
  4 14  1  6  0  0  0
  4 15  1  0  0  0  0
  6  2  1  0  0  0  0
  7 16  1  0  0  0  0
  8  1  1  6  0  0  0
  8  3  1  0  0  0  0
  9 25  1  6  0  0  0
  9  4  1  0  0  0  0
 10  1  2  0  0  0  0
 11  3  1  6  0  0  0
 11 17  1  0  0  0  0
 11 15  1  0  0  0  0
 12  5  1  0  0  0  0
 12 17  2  0  0  0  0
 13  2  1  0  0  0  0
 13  7  2  0  0  0  0
 15 14  1  6  0  0  0
 15 20  1  0  0  0  0
 16  3  2  0  0  0  0
 16  9  1  0  0  0  0
 18 22  1  0  0  0  0
 18 24  1  1  0  0  0
 19 18  1  0  0  0  0
 19 21  1  0  0  0  0
 20 23  1  6  0  0  0
 20 22  1  0  0  0  0
 23 21  1  0  0  0  0
 25 26  1  0  0  0  0
 27 26  1  0  0  0  0
 29 33  1  0  0  0  0
 29 27  1  1  0  0  0
 30 28  1  6  0  0  0
 30 29  1  0  0  0  0
 31 32  1  0  0  0  0
 32 33  2  0  0  0  0
 34 31  1  0  0  0  0
 34 30  1  0  0  0  0
M  END
>  <MODEL>
3

>  <REMARK>
 VINA RESULT:      -8.3      3.771      9.097
  Name = 
  5 active torsions:
  status: ('A' for Active; 'I' for Inactive)
    1  A    between atoms: C_3  and  C_13
    2  A    between atoms: C_3  and  C_17
    3  A    between atoms: C_12  and  C_28
    4  A    between atoms: C_17  and  C_29
    5  A    between atoms: C_18  and  C_29
                            x       y       z     vdW  Elec       q    Type
                         _______ _______ _______ _____ _____    ______ ____

>  <TORSDO>
F 5

$$$$
=
 OpenBabel11062407483D

 34 39  0  0  1  0  0  0  0  0999 V2000
  159.1960  213.7010  150.1320 C   0  0  0  0  0  0  0  0  0  0  0  0
  160.8290  212.8300  148.4670 N   0  0  0  0  0  0  0  0  0  0  0  0
  160.8720  212.0000  150.8230 C   0  0  0  0  0  0  0  0  0  0  0  0
  161.4320  209.8020  152.7270 N   0  0  2  0  0  0  0  0  0  0  0  0
  157.1840  214.0270  151.6990 C   0  0  0  0  0  1  0  0  0  0  0  0
  160.7100  213.8670  147.4550 C   0  0  0  0  0  1  0  0  0  0  0  0
  161.9550  210.7850  149.0090 C   0  0  0  0  0  3  0  0  0  0  0  0
  160.5820  213.1560  149.8820 C   0  0  2  0  0  3  0  0  0  0  0  0
  162.1690  209.9800  151.4610 C   0  0  2  0  0  3  0  0  0  0  0  0
  158.6230  214.4190  149.2670 O   0  0  0  0  0  0  0  0  0  0  0  0
  160.4560  212.1670  152.2600 C   0  0  2  0  0  3  0  0  0  0  0  0
  158.5440  213.4770  151.4370 C   0  0  0  0  0  0  0  0  0  0  0  0
  161.5810  211.6730  148.0970 C   0  0  0  0  0  3  0  0  0  0  0  0
  159.9780  209.6590  152.4740 C   0  0  0  0  0  2  0  0  0  0  0  0
  160.4890  210.8800  153.1080 C   0  0  1  0  0  0  0  0  0  0  0  0
  161.5930  210.9410  150.4320 C   0  0  0  0  0  0  0  0  0  0  0  0
  159.1180  212.7610  152.3580 N   0  0  0  0  0  0  0  0  0  0  0  0
  162.0990  209.6770  155.8300 C   0  0  1  0  0  3  0  0  0  0  0  0
  161.1850  208.6150  155.6060 O   0  0  0  0  0  0  0  0  0  0  0  0
  160.2770  211.0140  154.6310 C   0  0  2  0  0  3  0  0  0  0  0  0
  159.9230  208.9810  156.1070 C   0  0  0  0  0  2  0  0  0  0  0  0
  161.5580  211.0780  155.4800 C   0  0  0  0  0  2  0  0  0  0  0  0
  159.2630  209.9940  155.1710 C   0  0  0  0  0  2  0  0  0  0  0  0
  162.6420  209.6480  157.2480 C   0  0  0  0  0  1  0  0  0  0  0  0
  162.5540  208.6140  150.8980 C   0  0  0  0  0  2  0  0  0  0  0  0
  161.7950  207.5180  151.6210 C   0  0  0  0  0  2  0  0  0  0  0  0
  160.9050  206.7690  150.6400 C   0  0  0  0  0  2  0  0  0  0  0  0
  161.3460  205.4250  147.9440 F   0  0  0  0  0  0  0  0  0  0  0  0
  161.4470  205.3750  150.3350 C   0  0  2  0  0  3  0  0  0  0  0  0
  160.8320  204.7810  149.0560 C   0  0  2  0  0  3  0  0  0  0  0  0
  160.4900  202.5800  150.1540 C   0  0  0  0  0  2  0  0  0  0  0  0
  160.9330  203.1940  151.4550 C   0  0  0  0  0  3  0  0  0  0  0  0
  161.3260  204.4730  151.5440 C   0  0  0  0  0  3  0  0  0  0  0  0
  161.1280  203.2880  148.9620 C   0  0  0  0  0  2  0  0  0  0  0  0
  1 12  1  0  0  0  0
  2  8  1  0  0  0  0
  4 14  1  6  0  0  0
  4 15  1  0  0  0  0
  6  2  1  0  0  0  0
  7 16  1  0  0  0  0
  8  1  1  6  0  0  0
  8  3  1  0  0  0  0
  9 25  1  6  0  0  0
  9  4  1  0  0  0  0
 10  1  2  0  0  0  0
 11  3  1  6  0  0  0
 11 17  1  0  0  0  0
 11 15  1  0  0  0  0
 12  5  1  0  0  0  0
 12 17  2  0  0  0  0
 13  2  1  0  0  0  0
 13  7  2  0  0  0  0
 15 14  1  6  0  0  0
 15 20  1  0  0  0  0
 16  3  2  0  0  0  0
 16  9  1  0  0  0  0
 18 24  1  1  0  0  0
 19 18  1  0  0  0  0
 19 21  1  0  0  0  0
 20 23  1  1  0  0  0
 20 22  1  0  0  0  0
 22 18  1  0  0  0  0
 23 21  1  0  0  0  0
 25 26  1  0  0  0  0
 27 26  1  0  0  0  0
 29 27  1  1  0  0  0
 29 33  1  0  0  0  0
 30 28  1  6  0  0  0
 30 29  1  0  0  0  0
 31 32  1  0  0  0  0
 32 33  2  0  0  0  0
 34 30  1  0  0  0  0
 34 31  1  0  0  0  0
M  END
>  <MODEL>
4

>  <REMARK>
 VINA RESULT:      -7.7      3.900      9.180
  Name = 
  5 active torsions:
  status: ('A' for Active; 'I' for Inactive)
    1  A    between atoms: C_3  and  C_13
    2  A    between atoms: C_3  and  C_17
    3  A    between atoms: C_12  and  C_28
    4  A    between atoms: C_17  and  C_29
    5  A    between atoms: C_18  and  C_29
                            x       y       z     vdW  Elec       q    Type
                         _______ _______ _______ _____ _____    ______ ____

>  <TORSDO>
F 5

$$$$
=
 OpenBabel11062407483D

 34 39  0  0  1  0  0  0  0  0999 V2000
  161.1450  205.7840  151.4820 C   0  0  0  0  0  0  0  0  0  0  0  0
  161.4830  205.9800  149.0230 N   0  0  0  0  0  0  0  0  0  0  0  0
  161.2220  208.0320  150.4240 C   0  0  0  0  0  0  0  0  0  0  0  0
  161.8540  210.8900  150.8780 N   0  0  2  0  0  0  0  0  0  0  0  0
  161.4600  205.7080  154.0330 C   0  0  0  0  0  1  0  0  0  0  0  0
  161.1450  204.6220  148.6290 C   0  0  0  0  0  1  0  0  0  0  0  0
  162.1790  208.1150  148.1840 C   0  0  0  0  0  3  0  0  0  0  0  0
  160.8650  206.5700  150.2240 C   0  0  2  0  0  3  0  0  0  0  0  0
  161.7680  210.2860  149.5340 C   0  0  2  0  0  3  0  0  0  0  0  0
  161.2450  204.5270  151.4450 O   0  0  0  0  0  0  0  0  0  0  0  0
  160.8080  208.6640  151.7260 C   0  0  2  0  0  3  0  0  0  0  0  0
  161.2030  206.4790  152.7830 C   0  0  0  0  0  0  0  0  0  0  0  0
  162.0580  206.8060  148.0080 C   0  0  0  0  0  3  0  0  0  0  0  0
  162.8660  210.1910  151.7050 C   0  0  0  0  0  2  0  0  0  0  0  0
  161.4400  210.0390  152.0200 C   0  0  1  0  0  0  0  0  0  0  0  0
  161.7490  208.7680  149.4370 C   0  0  0  0  0  0  0  0  0  0  0  0
  161.0800  207.7700  152.8580 N   0  0  0  0  0  0  0  0  0  0  0  0
  161.6360  209.6500  155.3760 C   0  0  1  0  0  3  0  0  0  0  0  0
  160.4630  208.8940  155.1170 O   0  0  0  0  0  0  0  0  0  0  0  0
  160.9070  210.8360  153.2290 C   0  0  2  0  0  3  0  0  0  0  0  0
  159.3770  209.7730  154.9510 C   0  0  0  0  0  2  0  0  0  0  0  0
  161.8270  210.8760  154.4610 C   0  0  0  0  0  2  0  0  0  0  0  0
  159.4620  210.4570  153.5870 C   0  0  0  0  0  2  0  0  0  0  0  0
  161.7230  210.0490  156.8390 C   0  0  0  0  0  1  0  0  0  0  0  0
  162.7750  210.9620  148.6060 C   0  0  0  0  0  2  0  0  0  0  0  0
  162.2530  212.3160  148.1660 C   0  0  0  0  0  2  0  0  0  0  0  0
  160.9590  212.1440  147.3840 C   0  0  0  0  0  2  0  0  0  0  0  0
  158.8530  212.2790  145.1900 F   0  0  0  0  0  0  0  0  0  0  0  0
  160.9810  212.9270  146.0740 C   0  0  2  0  0  3  0  0  0  0  0  0
  160.2150  212.2040  144.9540 C   0  0  2  0  0  3  0  0  0  0  0  0
  162.0230  212.6680  143.3160 C   0  0  0  0  0  2  0  0  0  0  0  0
  162.8540  213.2300  144.4390 C   0  0  0  0  0  3  0  0  0  0  0  0
  162.3960  213.3070  145.6970 C   0  0  0  0  0  3  0  0  0  0  0  0
  160.5320  212.8270  143.5990 C   0  0  0  0  0  2  0  0  0  0  0  0
  1 12  1  0  0  0  0
  2  8  1  0  0  0  0
  4 14  1  1  0  0  0
  4 15  1  0  0  0  0
  6  2  1  0  0  0  0
  7 16  1  0  0  0  0
  8  3  1  1  0  0  0
  8  1  1  0  0  0  0
  9 25  1  6  0  0  0
  9  4  1  0  0  0  0
 10  1  2  0  0  0  0
 11  3  1  6  0  0  0
 11 15  1  0  0  0  0
 11 17  1  0  0  0  0
 12 17  2  0  0  0  0
 12  5  1  0  0  0  0
 13  7  2  0  0  0  0
 13  2  1  0  0  0  0
 15 14  1  1  0  0  0
 15 20  1  0  0  0  0
 16  9  1  0  0  0  0
 16  3  2  0  0  0  0
 18 24  1  1  0  0  0
 19 18  1  0  0  0  0
 20 23  1  1  0  0  0
 20 22  1  0  0  0  0
 21 19  1  0  0  0  0
 22 18  1  0  0  0  0
 23 21  1  0  0  0  0
 26 25  1  0  0  0  0
 27 26  1  0  0  0  0
 29 27  1  1  0  0  0
 30 28  1  1  0  0  0
 30 29  1  0  0  0  0
 31 34  1  0  0  0  0
 31 32  1  0  0  0  0
 32 33  2  0  0  0  0
 33 29  1  0  0  0  0
 34 30  1  0  0  0  0
M  END
>  <MODEL>
5

>  <REMARK>
 VINA RESULT:      -7.5      2.488      6.116
  Name = 
  5 active torsions:
  status: ('A' for Active; 'I' for Inactive)
    1  A    between atoms: C_3  and  C_13
    2  A    between atoms: C_3  and  C_17
    3  A    between atoms: C_12  and  C_28
    4  A    between atoms: C_17  and  C_29
    5  A    between atoms: C_18  and  C_29
                            x       y       z     vdW  Elec       q    Type
                         _______ _______ _______ _____ _____    ______ ____

>  <TORSDO>
F 5

$$$$
=
 OpenBabel11062407483D

 34 39  0  0  1  0  0  0  0  0999 V2000
  159.2010  213.7340  149.5250 C   0  0  0  0  0  0  0  0  0  0  0  0
  161.0740  212.6320  148.3110 N   0  0  0  0  0  0  0  0  0  0  0  0
  160.7230  212.1920  150.7450 C   0  0  0  0  0  0  0  0  0  0  0  0
  160.9400  210.3380  153.0440 N   0  0  2  0  0  0  0  0  0  0  0  0
  156.9650  214.2770  150.6710 C   0  0  0  0  0  1  0  0  0  0  0  0
  161.1340  213.4910  147.1390 C   0  0  0  0  0  1  0  0  0  0  0  0
  162.0740  210.7180  149.3510 C   0  0  0  0  0  3  0  0  0  0  0  0
  160.6030  213.1780  149.5960 C   0  0  2  0  0  3  0  0  0  0  0  0
  161.8760  210.3210  151.9030 C   0  0  2  0  0  3  0  0  0  0  0  0
  158.7860  214.2950  148.4750 O   0  0  0  0  0  0  0  0  0  0  0  0
  160.0810  212.5820  152.0490 C   0  0  2  0  0  3  0  0  0  0  0  0
  158.3430  213.7130  150.7260 C   0  0  0  0  0  0  0  0  0  0  0  0
  161.8640  211.4420  148.2600 C   0  0  0  0  0  3  0  0  0  0  0  0
  159.5460  210.1340  152.5830 C   0  0  0  0  0  2  0  0  0  0  0  0
  159.9600  211.4490  153.0870 C   0  0  1  0  0  0  0  0  0  0  0  0
  161.4860  211.0950  150.6530 C   0  0  0  0  0  0  0  0  0  0  0  0
  158.7510  213.1640  151.8310 N   0  0  0  0  0  0  0  0  0  0  0  0
  156.9690  211.5190  154.6670 C   0  0  1  0  0  3  0  0  0  0  0  0
  156.9820  212.8310  154.1260 O   0  0  0  0  0  0  0  0  0  0  0  0
  159.5040  211.8220  154.5140 C   0  0  2  0  0  3  0  0  0  0  0  0
  157.7960  213.6510  154.9280 C   0  0  0  0  0  2  0  0  0  0  0  0
  158.3510  210.9810  155.0870 C   0  0  0  0  0  2  0  0  0  0  0  0
  159.2690  213.3310  154.6760 C   0  0  0  0  0  2  0  0  0  0  0  0
  155.9750  211.4040  155.8100 C   0  0  0  0  0  1  0  0  0  0  0  0
  162.3320  208.8880  151.6370 C   0  0  0  0  0  2  0  0  0  0  0  0
  161.1570  207.9360  151.7530 C   0  0  0  0  0  2  0  0  0  0  0  0
  161.6580  206.5020  151.8460 C   0  0  0  0  0  2  0  0  0  0  0  0
  160.8230  203.6260  152.3880 F   0  0  0  0  0  0  0  0  0  0  0  0
  160.8360  205.5570  150.9750 C   0  0  2  0  0  3  0  0  0  0  0  0
  161.2540  204.0880  151.1570 C   0  0  2  0  0  3  0  0  0  0  0  0
  161.2060  203.6930  148.7060 C   0  0  0  0  0  2  0  0  0  0  0  0
  160.9610  205.1650  148.5040 C   0  0  0  0  0  3  0  0  0  0  0  0
  160.8350  206.0160  149.5330 C   0  0  0  0  0  3  0  0  0  0  0  0
  160.6620  203.2210  150.0510 C   0  0  0  0  0  2  0  0  0  0  0  0
  1 12  1  0  0  0  0
  2  8  1  0  0  0  0
  4 14  1  6  0  0  0
  4 15  1  0  0  0  0
  5 12  1  0  0  0  0
  6  2  1  0  0  0  0
  7 16  1  0  0  0  0
  8  1  1  6  0  0  0
  8  3  1  0  0  0  0
  9 25  1  6  0  0  0
  9  4  1  0  0  0  0
 10  1  2  0  0  0  0
 11  3  1  6  0  0  0
 11 15  1  0  0  0  0
 12 17  2  0  0  0  0
 13  2  1  0  0  0  0
 13  7  2  0  0  0  0
 15 14  1  6  0  0  0
 15 20  1  0  0  0  0
 16  3  2  0  0  0  0
 16  9  1  0  0  0  0
 17 11  1  0  0  0  0
 18 22  1  0  0  0  0
 18 24  1  1  0  0  0
 19 18  1  0  0  0  0
 19 21  1  0  0  0  0
 20 23  1  6  0  0  0
 20 22  1  0  0  0  0
 23 21  1  0  0  0  0
 25 26  1  0  0  0  0
 26 27  1  0  0  0  0
 29 30  1  0  0  0  0
 29 27  1  1  0  0  0
 30 28  1  1  0  0  0
 31 34  1  0  0  0  0
 32 31  1  0  0  0  0
 32 33  2  0  0  0  0
 33 29  1  0  0  0  0
 34 30  1  0  0  0  0
M  END
>  <MODEL>
6

>  <REMARK>
 VINA RESULT:      -7.5      4.652      9.445
  Name = 
  5 active torsions:
  status: ('A' for Active; 'I' for Inactive)
    1  A    between atoms: C_3  and  C_13
    2  A    between atoms: C_3  and  C_17
    3  A    between atoms: C_12  and  C_28
    4  A    between atoms: C_17  and  C_29
    5  A    between atoms: C_18  and  C_29
                            x       y       z     vdW  Elec       q    Type
                         _______ _______ _______ _____ _____    ______ ____

>  <TORSDO>
F 5

$$$$
=
 OpenBabel11062407483D

 34 39  0  0  1  0  0  0  0  0999 V2000
  161.8590  206.3990  147.6820 C   0  0  0  0  0  0  0  0  0  0  0  0
  161.7200  208.2970  149.2870 N   0  0  0  0  0  0  0  0  0  0  0  0
  161.1220  205.9840  150.0190 C   0  0  0  0  0  0  0  0  0  0  0  0
  160.9860  203.9650  152.1820 N   0  0  2  0  0  0  0  0  0  0  0  0
  162.5960  204.3390  146.3320 C   0  0  0  0  0  1  0  0  0  0  0  0
  161.7200  209.4040  148.3440 C   0  0  0  0  0  1  0  0  0  0  0  0
  161.6360  207.7500  151.6190 C   0  0  0  0  0  3  0  0  0  0  0  0
  161.1660  206.9930  148.8850 C   0  0  2  0  0  3  0  0  0  0  0  0
  160.8550  205.4150  152.4230 C   0  0  2  0  0  3  0  0  0  0  0  0
  162.3030  207.1440  146.7650 O   0  0  0  0  0  0  0  0  0  0  0  0
  160.7660  204.5660  149.6610 C   0  0  2  0  0  3  0  0  0  0  0  0
  161.9310  204.9330  147.5260 C   0  0  0  0  0  0  0  0  0  0  0  0
  161.8630  208.6440  150.6660 C   0  0  0  0  0  3  0  0  0  0  0  0
  162.2760  203.6560  151.5200 C   0  0  0  0  0  2  0  0  0  0  0  0
  161.0230  203.5240  150.7670 C   0  0  1  0  0  0  0  0  0  0  0  0
  161.2500  206.3610  151.2990 C   0  0  0  0  0  0  0  0  0  0  0  0
  161.4610  204.1390  148.4410 N   0  0  0  0  0  0  0  0  0  0  0  0
  161.4510  201.1920  148.3520 C   0  0  1  0  0  3  0  0  0  0  0  0
  160.3380  201.8890  147.8140 O   0  0  0  0  0  0  0  0  0  0  0  0
  160.4920  202.0920  150.5460 C   0  0  2  0  0  3  0  0  0  0  0  0
  159.1690  201.4680  148.4730 C   0  0  0  0  0  2  0  0  0  0  0  0
  161.4760  201.1080  149.8920 C   0  0  0  0  0  2  0  0  0  0  0  0
  159.1110  202.0780  149.8740 C   0  0  0  0  0  2  0  0  0  0  0  0
  161.5880  199.8120  147.7340 C   0  0  0  0  0  1  0  0  0  0  0  0
  161.4630  205.7640  153.7790 C   0  0  0  0  0  2  0  0  0  0  0  0
  160.5090  206.6370  154.5710 C   0  0  0  0  0  2  0  0  0  0  0  0
  161.2610  207.8150  155.1720 C   0  0  0  0  0  2  0  0  0  0  0  0
  162.1970  210.2140  153.5490 F   0  0  0  0  0  0  0  0  0  0  0  0
  160.5470  209.1370  154.9080 C   0  0  2  0  0  3  0  0  0  0  0  0
  161.5330  210.3090  154.7590 C   0  0  2  0  0  3  0  0  0  0  0  0
  160.1320  211.7670  156.2000 C   0  0  0  0  0  2  0  0  0  0  0  0
  159.2490  210.5830  156.4890 C   0  0  0  0  0  3  0  0  0  0  0  0
  159.4640  209.3800  155.9360 C   0  0  0  0  0  3  0  0  0  0  0  0
  160.7960  211.6420  154.8320 C   0  0  0  0  0  2  0  0  0  0  0  0
  2 13  1  0  0  0  0
  3 16  2  0  0  0  0
  4 14  1  6  0  0  0
  4  9  1  0  0  0  0
  5 12  1  0  0  0  0
  6  2  1  0  0  0  0
  8  1  1  6  0  0  0
  8  2  1  0  0  0  0
  8  3  1  0  0  0  0
  9 25  1  1  0  0  0
 10  1  2  0  0  0  0
 11 17  1  6  0  0  0
 11  3  1  0  0  0  0
 11 15  1  0  0  0  0
 12  1  1  0  0  0  0
 12 17  2  0  0  0  0
 13  7  2  0  0  0  0
 15 14  1  6  0  0  0
 15  4  1  0  0  0  0
 16  7  1  0  0  0  0
 16  9  1  0  0  0  0
 18 24  1  6  0  0  0
 18 22  1  0  0  0  0
 19 18  1  0  0  0  0
 19 21  1  0  0  0  0
 20 23  1  6  0  0  0
 20 15  1  0  0  0  0
 21 23  1  0  0  0  0
 22 20  1  0  0  0  0
 25 26  1  0  0  0  0
 26 27  1  0  0  0  0
 29 27  1  1  0  0  0
 29 33  1  0  0  0  0
 30 28  1  6  0  0  0
 30 34  1  0  0  0  0
 30 29  1  0  0  0  0
 31 32  1  0  0  0  0
 33 32  2  0  0  0  0
 34 31  1  0  0  0  0
M  END
>  <MODEL>
7

>  <REMARK>
 VINA RESULT:      -7.5      2.736      5.995
  Name = 
  5 active torsions:
  status: ('A' for Active; 'I' for Inactive)
    1  A    between atoms: C_3  and  C_13
    2  A    between atoms: C_3  and  C_17
    3  A    between atoms: C_12  and  C_28
    4  A    between atoms: C_17  and  C_29
    5  A    between atoms: C_18  and  C_29
                            x       y       z     vdW  Elec       q    Type
                         _______ _______ _______ _____ _____    ______ ____

>  <TORSDO>
F 5

$$$$
=
 OpenBabel11062407483D

 34 39  0  0  1  0  0  0  0  0999 V2000
  160.2760  208.7850  155.0410 C   0  0  0  0  0  0  0  0  0  0  0  0
  160.7980  210.8340  153.7270 N   0  0  0  0  0  0  0  0  0  0  0  0
  161.4150  208.5820  152.8400 C   0  0  0  0  0  0  0  0  0  0  0  0
  161.8600  206.8090  150.5100 N   0  0  2  0  0  0  0  0  0  0  0  0
  159.2080  206.6430  155.9780 C   0  0  0  0  0  1  0  0  0  0  0  0
  160.6730  211.8280  154.7810 C   0  0  0  0  0  1  0  0  0  0  0  0
  161.2890  210.5430  151.3990 C   0  0  0  0  0  3  0  0  0  0  0  0
  161.2070  209.4600  154.0620 C   0  0  2  0  0  3  0  0  0  0  0  0
  162.0990  208.2640  150.4740 C   0  0  2  0  0  3  0  0  0  0  0  0
  159.7040  209.4520  155.9460 O   0  0  0  0  0  0  0  0  0  0  0  0
  161.6330  207.1120  153.0840 C   0  0  2  0  0  3  0  0  0  0  0  0
  160.1100  207.3190  155.0040 C   0  0  0  0  0  0  0  0  0  0  0  0
  160.9290  211.3400  152.3970 C   0  0  0  0  0  3  0  0  0  0  0  0
  160.4560  206.5160  150.8880 C   0  0  0  0  0  2  0  0  0  0  0  0
  161.5400  206.2180  151.8320 C   0  0  1  0  0  0  0  0  0  0  0  0
  161.5450  209.1050  151.6140 C   0  0  0  0  0  0  0  0  0  0  0  0
  160.7050  206.6000  154.0980 N   0  0  0  0  0  0  0  0  0  0  0  0
  160.7230  203.3740  150.1900 C   0  0  1  0  0  3  0  0  0  0  0  0
  159.7060  203.3760  151.1800 O   0  0  0  0  0  0  0  0  0  0  0  0
  161.9550  204.7380  151.9700 C   0  0  2  0  0  3  0  0  0  0  0  0
  160.2460  202.9110  152.3930 C   0  0  0  0  0  2  0  0  0  0  0  0
  162.0750  203.9530  150.6520 C   0  0  0  0  0  2  0  0  0  0  0  0
  161.1230  203.9930  153.0240 C   0  0  0  0  0  2  0  0  0  0  0  0
  160.9050  201.9910  149.5900 C   0  0  0  0  0  1  0  0  0  0  0  0
  161.7700  208.8010  149.0820 C   0  0  0  0  0  2  0  0  0  0  0  0
  162.3120  207.8640  148.0200 C   0  0  0  0  0  2  0  0  0  0  0  0
  161.1760  207.0480  147.4200 C   0  0  0  0  0  2  0  0  0  0  0  0
  160.3660  206.6310  144.5150 F   0  0  0  0  0  0  0  0  0  0  0  0
  161.6860  206.0190  146.4150 C   0  0  2  0  0  3  0  0  0  0  0  0
  160.6000  205.6020  145.4090 C   0  0  2  0  0  3  0  0  0  0  0  0
  161.2070  203.2050  145.6360 C   0  0  0  0  0  2  0  0  0  0  0  0
  162.1570  203.5800  146.7420 C   0  0  0  0  0  3  0  0  0  0  0  0
  162.3410  204.8530  147.1230 C   0  0  0  0  0  3  0  0  0  0  0  0
  161.0270  204.3520  144.6470 C   0  0  0  0  0  2  0  0  0  0  0  0
  1 10  2  0  0  0  0
  2  8  1  0  0  0  0
  2  6  1  0  0  0  0
  4 14  1  6  0  0  0
  4 15  1  0  0  0  0
  7 16  1  0  0  0  0
  7 13  2  0  0  0  0
  8  3  1  6  0  0  0
  8  1  1  0  0  0  0
  9 25  1  6  0  0  0
  9  4  1  0  0  0  0
  9 16  1  0  0  0  0
 11  3  1  6  0  0  0
 11 17  1  0  0  0  0
 12  1  1  0  0  0  0
 12  5  1  0  0  0  0
 13  2  1  0  0  0  0
 15 14  1  6  0  0  0
 15 20  1  0  0  0  0
 15 11  1  0  0  0  0
 16  3  2  0  0  0  0
 17 12  2  0  0  0  0
 18 24  1  1  0  0  0
 18 22  1  0  0  0  0
 18 19  1  0  0  0  0
 19 21  1  0  0  0  0
 20 22  1  6  0  0  0
 20 23  1  0  0  0  0
 21 23  1  0  0  0  0
 26 25  1  0  0  0  0
 27 26  1  0  0  0  0
 29 33  1  0  0  0  0
 29 27  1  1  0  0  0
 30 28  1  6  0  0  0
 30 29  1  0  0  0  0
 31 32  1  0  0  0  0
 32 33  2  0  0  0  0
 34 30  1  0  0  0  0
 34 31  1  0  0  0  0
M  END
>  <MODEL>
8

>  <REMARK>
 VINA RESULT:      -7.2      3.080      6.079
  Name = 
  5 active torsions:
  status: ('A' for Active; 'I' for Inactive)
    1  A    between atoms: C_3  and  C_13
    2  A    between atoms: C_3  and  C_17
    3  A    between atoms: C_12  and  C_28
    4  A    between atoms: C_17  and  C_29
    5  A    between atoms: C_18  and  C_29
                            x       y       z     vdW  Elec       q    Type
                         _______ _______ _______ _____ _____    ______ ____

>  <TORSDO>
F 5

$$$$
=
 OpenBabel11062407483D

 34 39  0  0  1  0  0  0  0  0999 V2000
  159.8650  212.9560  150.8930 C   0  0  0  0  0  0  0  0  0  0  0  0
  161.1920  212.2560  148.9070 N   0  0  0  0  0  0  0  0  0  0  0  0
  161.4100  211.0160  151.0650 C   0  0  0  0  0  0  0  0  0  0  0  0
  161.9360  208.4710  152.4850 N   0  0  2  0  0  0  0  0  0  0  0  0
  158.0920  213.1730  152.7430 C   0  0  0  0  0  1  0  0  0  0  0  0
  161.0750  213.4650  148.1070 C   0  0  0  0  0  1  0  0  0  0  0  0
  162.1400  210.0550  148.9470 C   0  0  0  0  0  3  0  0  0  0  0  0
  161.1450  212.3440  150.3770 C   0  0  2  0  0  3  0  0  0  0  0  0
  162.5400  208.8070  151.1810 C   0  0  2  0  0  3  0  0  0  0  0  0
  159.2810  213.8660  150.2430 O   0  0  0  0  0  0  0  0  0  0  0  0
  161.1810  210.9590  152.5510 C   0  0  2  0  0  3  0  0  0  0  0  0
  159.3440  212.5600  152.2170 C   0  0  0  0  0  0  0  0  0  0  0  0
  161.7650  211.1210  148.2540 C   0  0  0  0  0  3  0  0  0  0  0  0
  160.4560  208.5060  152.4040 C   0  0  0  0  0  2  0  0  0  0  0  0
  161.1670  209.5430  153.1610 C   0  0  1  0  0  0  0  0  0  0  0  0
  161.9600  209.9840  150.4110 C   0  0  0  0  0  0  0  0  0  0  0  0
  159.9360  211.6430  152.9220 N   0  0  0  0  0  0  0  0  0  0  0  0
  159.3210  210.9590  155.6180 C   0  0  1  0  0  3  0  0  0  0  0  0
  160.3640  211.9180  155.5220 O   0  0  0  0  0  0  0  0  0  0  0  0
  161.1450  209.4190  154.6990 C   0  0  2  0  0  3  0  0  0  0  0  0
  161.4970  211.4330  156.2000 C   0  0  0  0  0  2  0  0  0  0  0  0
  159.7580  209.5040  155.3560 C   0  0  0  0  0  2  0  0  0  0  0  0
  162.1730  210.3400  155.3740 C   0  0  0  0  0  2  0  0  0  0  0  0
  158.5880  211.0730  156.9430 C   0  0  0  0  0  1  0  0  0  0  0  0
  162.7040  207.5350  150.3510 C   0  0  0  0  0  2  0  0  0  0  0  0
  161.5460  206.5910  150.6080 C   0  0  0  0  0  2  0  0  0  0  0  0
  160.4550  206.8150  149.5720 C   0  0  0  0  0  2  0  0  0  0  0  0
  160.4440  203.7770  149.7600 F   0  0  0  0  0  0  0  0  0  0  0  0
  160.5160  205.7800  148.4520 C   0  0  2  0  0  3  0  0  0  0  0  0
  161.2420  204.4960  148.8880 C   0  0  2  0  0  3  0  0  0  0  0  0
  162.5210  204.4100  146.7610 C   0  0  0  0  0  2  0  0  0  0  0  0
  161.9440  205.7510  146.3940 C   0  0  0  0  0  3  0  0  0  0  0  0
  161.0670  206.3910  147.1820 C   0  0  0  0  0  3  0  0  0  0  0  0
  161.5790  203.6340  147.6760 C   0  0  0  0  0  2  0  0  0  0  0  0
  1 12  1  0  0  0  0
  2  8  1  0  0  0  0
  4 14  1  6  0  0  0
  4 15  1  0  0  0  0
  6  2  1  0  0  0  0
  7 16  1  0  0  0  0
  8  1  1  6  0  0  0
  8  3  1  0  0  0  0
  9 25  1  6  0  0  0
  9  4  1  0  0  0  0
 10  1  2  0  0  0  0
 11  3  1  6  0  0  0
 11 17  1  0  0  0  0
 11 15  1  0  0  0  0
 12  5  1  0  0  0  0
 12 17  2  0  0  0  0
 13  2  1  0  0  0  0
 13  7  2  0  0  0  0
 15 14  1  6  0  0  0
 15 20  1  0  0  0  0
 16  3  2  0  0  0  0
 16  9  1  0  0  0  0
 18 24  1  1  0  0  0
 19 18  1  0  0  0  0
 19 21  1  0  0  0  0
 20 22  1  1  0  0  0
 20 23  1  0  0  0  0
 22 18  1  0  0  0  0
 23 21  1  0  0  0  0
 25 26  1  0  0  0  0
 27 26  1  0  0  0  0
 29 30  1  0  0  0  0
 29 27  1  1  0  0  0
 30 28  1  1  0  0  0
 31 34  1  0  0  0  0
 32 31  1  0  0  0  0
 32 33  2  0  0  0  0
 33 29  1  0  0  0  0
 34 30  1  0  0  0  0
M  END
>  <MODEL>
9

>  <REMARK>
 VINA RESULT:      -7.1      4.068      8.681
  Name = 
  5 active torsions:
  status: ('A' for Active; 'I' for Inactive)
    1  A    between atoms: C_3  and  C_13
    2  A    between atoms: C_3  and  C_17
    3  A    between atoms: C_12  and  C_28
    4  A    between atoms: C_17  and  C_29
    5  A    between atoms: C_18  and  C_29
                            x       y       z     vdW  Elec       q    Type
                         _______ _______ _______ _____ _____    ______ ____

>  <TORSDO>
F 5

$$$$
