=
 OpenBabel11062409213D

 37 40  0  0  1  0  0  0  0  0999 V2000
  162.2300  208.7030  147.9700 C   0  0  0  0  0  3  0  0  0  0  0  0
  163.0940  206.6600  148.4370 O   0  0  0  0  0  1  0  0  0  0  0  0
  161.7380  208.1720  150.4880 C   0  0  2  0  0  3  0  0  0  0  0  0
  159.3010  205.6910  149.5700 O   0  0  0  0  0  1  0  0  0  0  0  0
  160.7890  208.9050  151.4230 C   0  0  0  0  0  2  0  0  0  0  0  0
  162.0370  207.2650  147.7210 C   0  0  1  0  0  0  0  0  0  0  0  0
  160.6090  205.9850  149.1890 C   0  0  1  0  0  0  0  0  0  0  0  0
  161.5400  204.9940  146.8570 C   0  0  2  0  0  3  0  0  0  0  0  0
  162.2150  210.5490  149.5370 C   0  0  0  0  0  3  0  0  0  0  0  0
  160.5860  207.0770  148.2160 C   0  0  0  0  0  2  0  0  0  0  0  0
  161.9760  206.4680  146.4440 C   0  0  0  0  0  2  0  0  0  0  0  0
  162.1050  209.1050  149.2690 C   0  0  0  0  0  0  0  0  0  0  0  0
  161.4210  206.5930  150.4050 C   0  0  2  0  0  3  0  0  0  0  0  0
  161.4500  210.2030  151.8860 C   0  0  1  0  0  3  0  0  0  0  0  0
  161.2250  204.7560  148.4100 C   0  0  0  0  0  2  0  0  0  0  0  0
  161.8940  211.0630  150.7280 C   0  0  0  0  0  3  0  0  0  0  0  0
  159.2870  211.4270  152.4580 C   0  0  0  0  0  3  0  0  0  0  0  0
  160.5430  210.9580  152.7990 C   0  0  0  0  0  0  0  0  0  0  0  0
  160.8210  211.3360  154.0980 C   0  0  0  0  0  3  0  0  0  0  0  0
  159.7590  212.0210  154.5510 N   0  0  0  0  0  0  0  0  0  0  0  0
  158.8240  212.0840  153.5850 C   0  0  0  0  0  3  0  0  0  0  0  0
  159.0530  211.5310  156.8280 C   0  0  0  0  0  1  0  0  0  0  0  0
  159.6240  212.5750  155.8880 C   0  0  0  0  0  2  0  0  0  0  0  0
  163.6400  204.6320  145.7820 O   0  0  0  0  0  1  0  0  0  0  0  0
  162.5640  203.9790  146.3830 C   0  0  0  0  0  2  0  0  0  0  0  0
  161.6710  205.7070  151.6630 C   0  0  1  0  0  0  0  0  0  0  0  0
  164.0980  205.7750  151.6630 O   0  0  0  0  0  1  0  0  0  0  0  0
  162.9600  206.1170  152.3980 C   0  0  0  0  0  2  0  0  0  0  0  0
  160.4730  205.7870  152.6310 C   0  0  0  0  0  2  0  0  0  0  0  0
  160.8030  206.2650  154.0110 C   0  0  0  0  0  0  0  0  0  0  0  0
  160.9350  208.1610  155.6630 C   0  0  0  0  0  1  0  0  0  0  0  0
  161.2230  205.4480  154.8740 O   0  0  0  0  0  0  0  0  0  0  0  0
  160.6230  207.6420  154.3420 N   0  0  0  0  0  2  0  0  0  0  0  0
  161.8220  204.2490  151.1930 C   0  0  0  0  0  2  0  0  0  0  0  0
  160.6410  203.3490  151.5450 C   0  0  1  0  0  3  0  0  0  0  0  0
  160.5270  202.2260  150.5350 C   0  0  0  0  0  1  0  0  0  0  0  0
  160.8400  202.8050  152.8130 O   0  0  0  0  0  1  0  0  0  0  0  0
  1 12  2  0  0  0  0
  3  5  1  6  0  0  0
  5 14  1  0  0  0  0
  6  1  1  0  0  0  0
  6 10  1  0  0  0  0
  6  2  1  1  0  0  0
  7  4  1  1  0  0  0
  7 13  1  0  0  0  0
  8 25  1  1  0  0  0
  8 15  1  0  0  0  0
  9 16  2  0  0  0  0
 10  7  1  0  0  0  0
 11  8  1  0  0  0  0
 11  6  1  0  0  0  0
 12  9  1  0  0  0  0
 12  3  1  0  0  0  0
 13  3  1  0  0  0  0
 13 26  1  1  0  0  0
 14 18  1  6  0  0  0
 15  7  1  0  0  0  0
 16 14  1  0  0  0  0
 17 18  1  0  0  0  0
 17 21  2  0  0  0  0
 18 19  2  0  0  0  0
 19 20  1  0  0  0  0
 20 23  1  0  0  0  0
 21 20  1  0  0  0  0
 23 22  1  0  0  0  0
 24 25  1  0  0  0  0
 26 34  1  6  0  0  0
 26 28  1  0  0  0  0
 26 29  1  0  0  0  0
 27 28  1  0  0  0  0
 29 30  1  0  0  0  0
 30 33  1  0  0  0  0
 30 32  2  0  0  0  0
 33 31  1  0  0  0  0
 34 35  1  0  0  0  0
 35 36  1  6  0  0  0
 35 37  1  0  0  0  0
M  END
>  <MODEL>
1

>  <REMARK>
 VINA RESULT:      -3.1      0.000      0.000
  Name = 
  9 active torsions:
  status: ('A' for Active; 'I' for Inactive)
    1  A    between atoms: C_1  and  C_5
    2  A    between atoms: C_1  and  C_36
    3  A    between atoms: C_6  and  C_31
    4  A    between atoms: C_11  and  C_33
    5  A    between atoms: N_18  and  C_19
    6  A    between atoms: C_21  and  C_30
    7  A    between atoms: C_27  and  C_36
    8  A    between atoms: C_29  and  C_36
    9  A    between atoms: C_33  and  C_36
                            x       y       z     vdW  Elec       q    Type
                         _______ _______ _______ _____ _____    ______ ____

>  <TORSDO>
F 9

$$$$
=
 OpenBabel11062409213D

 37 40  0  0  1  0  0  0  0  0999 V2000
  160.4650  208.7670  155.8260 C   0  0  0  0  0  3  0  0  0  0  0  0
  161.2990  210.7820  155.2100 O   0  0  0  0  0  1  0  0  0  0  0  0
  161.0620  208.6520  153.2760 C   0  0  2  0  0  3  0  0  0  0  0  0
  158.2990  210.8010  152.4520 O   0  0  0  0  0  1  0  0  0  0  0  0
  160.6590  207.5790  152.2760 C   0  0  0  0  0  2  0  0  0  0  0  0
  160.0830  210.1670  155.5820 C   0  0  1  0  0  0  0  0  0  0  0  0
  159.3340  210.8300  153.3840 C   0  0  1  0  0  0  0  0  0  0  0  0
  159.1050  212.4460  155.5350 C   0  0  2  0  0  3  0  0  0  0  0  0
  161.2520  206.6550  154.9380 C   0  0  0  0  0  3  0  0  0  0  0  0
  158.9740  209.9850  154.5210 C   0  0  0  0  0  2  0  0  0  0  0  0
  159.4250  211.1950  156.4650 C   0  0  0  0  0  2  0  0  0  0  0  0
  160.9370  208.0800  154.7430 C   0  0  0  0  0  0  0  0  0  0  0  0
  160.6300  210.1300  152.8010 C   0  0  2  0  0  3  0  0  0  0  0  0
  161.5440  206.3500  152.4800 C   0  0  1  0  0  3  0  0  0  0  0  0
  159.4690  212.2870  153.9820 C   0  0  0  0  0  2  0  0  0  0  0  0
  161.5100  205.8500  153.9030 C   0  0  0  0  0  3  0  0  0  0  0  0
  160.6080  205.4780  150.2750 C   0  0  0  0  0  3  0  0  0  0  0  0
  161.1720  205.2700  151.5210 C   0  0  0  0  0  0  0  0  0  0  0  0
  161.2920  203.9110  151.7330 C   0  0  0  0  0  3  0  0  0  0  0  0
  160.8160  203.2920  150.6410 N   0  0  0  0  0  0  0  0  0  0  0  0
  160.4050  204.2130  149.7510 C   0  0  0  0  0  3  0  0  0  0  0  0
  160.7620  201.5390  148.9530 C   0  0  0  0  0  1  0  0  0  0  0  0
  160.7850  201.8530  150.4370 C   0  0  0  0  0  2  0  0  0  0  0  0
  160.5090  213.3950  157.2160 O   0  0  0  0  0  1  0  0  0  0  0  0
  159.7540  213.7040  156.0840 C   0  0  0  0  0  2  0  0  0  0  0  0
  161.3310  210.7570  151.5580 C   0  0  1  0  0  0  0  0  0  0  0  0
  163.3340  210.5110  152.9070 O   0  0  0  0  0  1  0  0  0  0  0  0
  162.8540  210.5370  151.5950 C   0  0  0  0  0  2  0  0  0  0  0  0
  160.7540  210.1690  150.2540 C   0  0  0  0  0  2  0  0  0  0  0  0
  161.7690  209.6150  149.3040 C   0  0  0  0  0  0  0  0  0  0  0  0
  162.8810  207.6080  148.2640 C   0  0  0  0  0  1  0  0  0  0  0  0
  162.4840  210.3980  148.6220 O   0  0  0  0  0  0  0  0  0  0  0  0
  161.9070  208.2010  149.1660 N   0  0  0  0  0  2  0  0  0  0  0  0
  161.0580  212.2720  151.5730 C   0  0  0  0  0  2  0  0  0  0  0  0
  160.3080  212.7880  150.3480 C   0  0  1  0  0  3  0  0  0  0  0  0
  159.2750  213.8140  150.7680 C   0  0  0  0  0  1  0  0  0  0  0  0
  161.2140  213.3840  149.4720 O   0  0  0  0  0  1  0  0  0  0  0  0
  3  5  1  6  0  0  0
  3 12  1  0  0  0  0
  5 14  1  0  0  0  0
  6  2  1  6  0  0  0
  6  1  1  0  0  0  0
  6 11  1  0  0  0  0
  7  4  1  6  0  0  0
  7 15  1  0  0  0  0
  7 10  1  0  0  0  0
  8 25  1  1  0  0  0
  8 11  1  0  0  0  0
 10  6  1  0  0  0  0
 12  9  1  0  0  0  0
 12  1  2  0  0  0  0
 13 26  1  6  0  0  0
 13  3  1  0  0  0  0
 13  7  1  0  0  0  0
 14 18  1  6  0  0  0
 14 16  1  0  0  0  0
 15  8  1  0  0  0  0
 16  9  2  0  0  0  0
 17 18  1  0  0  0  0
 18 19  2  0  0  0  0
 20 19  1  0  0  0  0
 21 17  2  0  0  0  0
 21 20  1  0  0  0  0
 22 23  1  0  0  0  0
 23 20  1  0  0  0  0
 25 24  1  0  0  0  0
 26 29  1  6  0  0  0
 26 34  1  0  0  0  0
 26 28  1  0  0  0  0
 28 27  1  0  0  0  0
 30 29  1  0  0  0  0
 31 33  1  0  0  0  0
 32 30  2  0  0  0  0
 33 30  1  0  0  0  0
 35 36  1  1  0  0  0
 35 34  1  0  0  0  0
 37 35  1  0  0  0  0
M  END
>  <MODEL>
2

>  <REMARK>
 VINA RESULT:      -3.1      3.093      8.353
  Name = 
  9 active torsions:
  status: ('A' for Active; 'I' for Inactive)
    1  A    between atoms: C_1  and  C_5
    2  A    between atoms: C_1  and  C_36
    3  A    between atoms: C_6  and  C_31
    4  A    between atoms: C_11  and  C_33
    5  A    between atoms: N_18  and  C_19
    6  A    between atoms: C_21  and  C_30
    7  A    between atoms: C_27  and  C_36
    8  A    between atoms: C_29  and  C_36
    9  A    between atoms: C_33  and  C_36
                            x       y       z     vdW  Elec       q    Type
                         _______ _______ _______ _____ _____    ______ ____

>  <TORSDO>
F 9

$$$$
=
 OpenBabel11062409213D

 37 40  0  0  1  0  0  0  0  0999 V2000
  159.7420  210.1620  156.0480 C   0  0  0  0  0  3  0  0  0  0  0  0
  159.3770  212.3840  155.7980 O   0  0  0  0  0  1  0  0  0  0  0  0
  160.0210  210.7490  153.5090 C   0  0  2  0  0  3  0  0  0  0  0  0
  156.4800  211.2670  153.1590 O   0  0  0  0  0  1  0  0  0  0  0  0
  160.0990  209.7830  152.3360 C   0  0  0  0  0  2  0  0  0  0  0  0
  158.6850  211.1860  156.0760 C   0  0  1  0  0  0  0  0  0  0  0  0
  157.4590  211.6860  154.0560 C   0  0  1  0  0  0  0  0  0  0  0  0
  156.6980  212.6160  156.4740 C   0  0  2  0  0  3  0  0  0  0  0  0
  161.3750  208.9140  154.7670 C   0  0  0  0  0  3  0  0  0  0  0  0
  157.7040  210.6190  155.0250 C   0  0  0  0  0  2  0  0  0  0  0  0
  157.7050  211.5860  157.1500 C   0  0  0  0  0  2  0  0  0  0  0  0
  160.3670  209.9840  154.8470 C   0  0  0  0  0  0  0  0  0  0  0  0
  158.8550  211.8470  153.3250 C   0  0  2  0  0  3  0  0  0  0  0  0
  161.4980  209.1690  152.2890 C   0  0  1  0  0  3  0  0  0  0  0  0
  156.9130  212.8980  154.9120 C   0  0  0  0  0  2  0  0  0  0  0  0
  161.8810  208.5180  153.5950 C   0  0  0  0  0  3  0  0  0  0  0  0
  162.0400  208.5320  149.8810 C   0  0  0  0  0  3  0  0  0  0  0  0
  161.6110  208.2060  151.1550 C   0  0  0  0  0  0  0  0  0  0  0  0
  161.2750  206.8680  151.1820 C   0  0  0  0  0  3  0  0  0  0  0  0
  161.4940  206.3750  149.9530 N   0  0  0  0  0  0  0  0  0  0  0  0
  161.9590  207.3550  149.1570 C   0  0  0  0  0  3  0  0  0  0  0  0
  160.8580  204.1640  150.7490 C   0  0  0  0  0  1  0  0  0  0  0  0
  161.2970  204.9910  149.5550 C   0  0  0  0  0  2  0  0  0  0  0  0
  155.3930  214.4530  157.2600 O   0  0  0  0  0  1  0  0  0  0  0  0
  156.6860  213.9310  157.2330 C   0  0  0  0  0  2  0  0  0  0  0  0
  159.0000  212.9200  152.2050 C   0  0  1  0  0  0  0  0  0  0  0  0
  158.9190  214.3310  154.1790 O   0  0  0  0  0  1  0  0  0  0  0  0
  159.0420  214.3450  152.7870 C   0  0  0  0  0  2  0  0  0  0  0  0
  160.2700  212.6640  151.3680 C   0  0  0  0  0  2  0  0  0  0  0  0
  160.2310  213.2060  149.9730 C   0  0  0  0  0  0  0  0  0  0  0  0
  160.1810  212.7760  147.4920 C   0  0  0  0  0  1  0  0  0  0  0  0
  160.2020  214.4530  149.7840 O   0  0  0  0  0  0  0  0  0  0  0  0
  160.2110  212.3050  148.8660 N   0  0  0  0  0  2  0  0  0  0  0  0
  157.7750  212.8090  151.2800 C   0  0  0  0  0  2  0  0  0  0  0  0
  157.0250  214.1210  151.0690 C   0  0  1  0  0  3  0  0  0  0  0  0
  156.5210  214.2060  149.6430 C   0  0  0  0  0  1  0  0  0  0  0  0
  155.9390  214.1760  151.9420 O   0  0  0  0  0  1  0  0  0  0  0  0
  1  6  1  0  0  0  0
  3  5  1  6  0  0  0
  3 12  1  0  0  0  0
  6  2  1  6  0  0  0
  6 11  1  0  0  0  0
  7  4  1  6  0  0  0
  7 15  1  0  0  0  0
  7 10  1  0  0  0  0
  8 11  1  0  0  0  0
  8 25  1  1  0  0  0
  9 12  1  0  0  0  0
 10  6  1  0  0  0  0
 12  1  2  0  0  0  0
 13 26  1  6  0  0  0
 13  3  1  0  0  0  0
 13  7  1  0  0  0  0
 14 18  1  6  0  0  0
 14  5  1  0  0  0  0
 14 16  1  0  0  0  0
 15  8  1  0  0  0  0
 16  9  2  0  0  0  0
 17 18  1  0  0  0  0
 18 19  2  0  0  0  0
 20 19  1  0  0  0  0
 21 17  2  0  0  0  0
 21 20  1  0  0  0  0
 23 20  1  0  0  0  0
 23 22  1  0  0  0  0
 25 24  1  0  0  0  0
 26 34  1  6  0  0  0
 26 28  1  0  0  0  0
 28 27  1  0  0  0  0
 29 26  1  0  0  0  0
 30 29  1  0  0  0  0
 31 33  1  0  0  0  0
 32 30  2  0  0  0  0
 33 30  1  0  0  0  0
 35 36  1  6  0  0  0
 35 34  1  0  0  0  0
 35 37  1  0  0  0  0
M  END
>  <MODEL>
3

>  <REMARK>
 VINA RESULT:      -2.7      4.214      9.182
  Name = 
  9 active torsions:
  status: ('A' for Active; 'I' for Inactive)
    1  A    between atoms: C_1  and  C_5
    2  A    between atoms: C_1  and  C_36
    3  A    between atoms: C_6  and  C_31
    4  A    between atoms: C_11  and  C_33
    5  A    between atoms: N_18  and  C_19
    6  A    between atoms: C_21  and  C_30
    7  A    between atoms: C_27  and  C_36
    8  A    between atoms: C_29  and  C_36
    9  A    between atoms: C_33  and  C_36
                            x       y       z     vdW  Elec       q    Type
                         _______ _______ _______ _____ _____    ______ ____

>  <TORSDO>
F 9

$$$$
=
 OpenBabel11062409213D

 37 40  0  0  1  0  0  0  0  0999 V2000
  160.8810  207.4340  155.2120 C   0  0  0  0  0  3  0  0  0  0  0  0
  161.5410  209.6000  155.3060 O   0  0  0  0  0  1  0  0  0  0  0  0
  161.2560  208.2730  152.7580 C   0  0  2  0  0  3  0  0  0  0  0  0
  158.3130  210.3340  152.9300 O   0  0  0  0  0  1  0  0  0  0  0  0
  160.8280  207.5910  151.4680 C   0  0  0  0  0  2  0  0  0  0  0  0
  160.4000  208.7930  155.5090 C   0  0  1  0  0  0  0  0  0  0  0  0
  159.4240  210.1210  153.7440 C   0  0  1  0  0  0  0  0  0  0  0  0
  159.2940  210.8520  156.3400 C   0  0  2  0  0  3  0  0  0  0  0  0
  161.7050  205.8440  153.5820 C   0  0  0  0  0  3  0  0  0  0  0  0
  159.2140  208.9030  154.5250 C   0  0  0  0  0  2  0  0  0  0  0  0
  159.7650  209.3860  156.7410 C   0  0  0  0  0  2  0  0  0  0  0  0
  161.2930  207.2140  153.9290 C   0  0  0  0  0  0  0  0  0  0  0  0
  160.7010  209.7830  152.8700 C   0  0  2  0  0  3  0  0  0  0  0  0
  161.7960  206.4480  151.1640 C   0  0  1  0  0  3  0  0  0  0  0  0
  159.5280  211.2800  154.8130 C   0  0  0  0  0  2  0  0  0  0  0  0
  161.9160  205.4790  152.3140 C   0  0  0  0  0  3  0  0  0  0  0  0
  160.9410  204.4440  149.8400 C   0  0  0  0  0  3  0  0  0  0  0  0
  161.4020  205.7470  149.9080 C   0  0  0  0  0  0  0  0  0  0  0  0
  161.4690  206.2620  148.6290 C   0  0  0  0  0  3  0  0  0  0  0  0
  161.0550  205.3010  147.7880 N   0  0  0  0  0  0  0  0  0  0  0  0
  160.7290  204.2030  148.4930 C   0  0  0  0  0  3  0  0  0  0  0  0
  162.3210  205.5040  145.7190 C   0  0  0  0  0  1  0  0  0  0  0  0
  160.9410  205.4380  146.3460 C   0  0  0  0  0  2  0  0  0  0  0  0
  159.7120  213.1660  156.7460 O   0  0  0  0  0  1  0  0  0  0  0  0
  159.9160  211.8860  157.2610 C   0  0  0  0  0  2  0  0  0  0  0  0
  161.2520  210.8630  151.8920 C   0  0  1  0  0  0  0  0  0  0  0  0
  163.2990  210.4990  153.1460 O   0  0  0  0  0  1  0  0  0  0  0  0
  162.7910  210.9130  151.9120 C   0  0  0  0  0  2  0  0  0  0  0  0
  160.7600  210.5980  150.4540 C   0  0  0  0  0  2  0  0  0  0  0  0
  161.8190  210.6680  149.3980 C   0  0  0  0  0  0  0  0  0  0  0  0
  163.2700  212.0670  147.8880 C   0  0  0  0  0  1  0  0  0  0  0  0
  162.3300  209.6060  148.9490 O   0  0  0  0  0  0  0  0  0  0  0  0
  162.2530  211.9400  148.9170 N   0  0  0  0  0  2  0  0  0  0  0  0
  160.7160  212.2320  152.3460 C   0  0  0  0  0  2  0  0  0  0  0  0
  159.8620  212.9510  151.3050 C   0  0  1  0  0  3  0  0  0  0  0  0
  158.5400  213.3670  151.9160 C   0  0  0  0  0  1  0  0  0  0  0  0
  160.5370  214.0860  150.8600 O   0  0  0  0  0  1  0  0  0  0  0  0
  1  6  1  0  0  0  0
  3  5  1  6  0  0  0
  3 13  1  0  0  0  0
  3 12  1  0  0  0  0
  6  2  1  6  0  0  0
  6 11  1  0  0  0  0
  7  4  1  6  0  0  0
  7 10  1  0  0  0  0
  7 15  1  0  0  0  0
  8 11  1  0  0  0  0
  8 25  1  1  0  0  0
  9 12  1  0  0  0  0
 10  6  1  0  0  0  0
 12  1  2  0  0  0  0
 13 26  1  6  0  0  0
 13  7  1  0  0  0  0
 14 18  1  6  0  0  0
 14  5  1  0  0  0  0
 14 16  1  0  0  0  0
 15  8  1  0  0  0  0
 16  9  2  0  0  0  0
 17 18  1  0  0  0  0
 19 18  2  0  0  0  0
 20 21  1  0  0  0  0
 20 19  1  0  0  0  0
 21 17  2  0  0  0  0
 22 23  1  0  0  0  0
 23 20  1  0  0  0  0
 24 25  1  0  0  0  0
 26 29  1  6  0  0  0
 26 28  1  0  0  0  0
 26 34  1  0  0  0  0
 28 27  1  0  0  0  0
 30 29  1  0  0  0  0
 31 33  1  0  0  0  0
 32 30  2  0  0  0  0
 33 30  1  0  0  0  0
 35 36  1  1  0  0  0
 35 34  1  0  0  0  0
 37 35  1  0  0  0  0
M  END
>  <MODEL>
4

>  <REMARK>
 VINA RESULT:      -2.5      3.119      8.328
  Name = 
  9 active torsions:
  status: ('A' for Active; 'I' for Inactive)
    1  A    between atoms: C_1  and  C_5
    2  A    between atoms: C_1  and  C_36
    3  A    between atoms: C_6  and  C_31
    4  A    between atoms: C_11  and  C_33
    5  A    between atoms: N_18  and  C_19
    6  A    between atoms: C_21  and  C_30
    7  A    between atoms: C_27  and  C_36
    8  A    between atoms: C_29  and  C_36
    9  A    between atoms: C_33  and  C_36
                            x       y       z     vdW  Elec       q    Type
                         _______ _______ _______ _____ _____    ______ ____

>  <TORSDO>
F 9

$$$$
=
 OpenBabel11062409213D

 37 40  0  0  1  0  0  0  0  0999 V2000
  162.2850  208.6410  148.3720 C   0  0  0  0  0  3  0  0  0  0  0  0
  163.0620  206.5290  148.6380 O   0  0  0  0  0  1  0  0  0  0  0  0
  161.7530  207.8830  150.8240 C   0  0  2  0  0  3  0  0  0  0  0  0
  159.2260  205.6060  149.6560 O   0  0  0  0  0  1  0  0  0  0  0  0
  160.8260  208.5590  151.8240 C   0  0  0  0  0  2  0  0  0  0  0  0
  162.0360  207.2430  147.9820 C   0  0  1  0  0  0  0  0  0  0  0  0
  160.5470  205.8840  149.3100 C   0  0  1  0  0  0  0  0  0  0  0  0
  161.4550  205.0910  146.8950 C   0  0  2  0  0  3  0  0  0  0  0  0
  162.3310  210.3220  150.1150 C   0  0  0  0  0  3  0  0  0  0  0  0
  160.5750  207.0670  148.4510 C   0  0  0  0  0  2  0  0  0  0  0  0
  161.9530  206.5790  146.6310 C   0  0  0  0  0  2  0  0  0  0  0  0
  162.1660  208.9170  149.7040 C   0  0  0  0  0  0  0  0  0  0  0  0
  161.3740  206.3350  150.5840 C   0  0  2  0  0  3  0  0  0  0  0  0
  161.5360  209.7770  152.4150 C   0  0  1  0  0  3  0  0  0  0  0  0
  161.1190  204.7140  148.4150 C   0  0  0  0  0  2  0  0  0  0  0  0
  162.0220  210.7280  151.3500 C   0  0  0  0  0  3  0  0  0  0  0  0
  159.3210  210.7800  153.1820 C   0  0  0  0  0  3  0  0  0  0  0  0
  160.6530  210.4730  153.3960 C   0  0  0  0  0  0  0  0  0  0  0  0
  161.0250  210.9490  154.6370 C   0  0  0  0  0  3  0  0  0  0  0  0
  159.9470  211.5350  155.1810 N   0  0  0  0  0  0  0  0  0  0  0  0
  158.9110  211.4410  154.3280 C   0  0  0  0  0  3  0  0  0  0  0  0
  161.1770  211.8460  157.2580 C   0  0  0  0  0  1  0  0  0  0  0  0
  159.8960  212.1410  156.5010 C   0  0  0  0  0  2  0  0  0  0  0  0
  163.6780  204.6990  146.1170 O   0  0  0  0  0  1  0  0  0  0  0  0
  162.4420  204.0870  146.3260 C   0  0  0  0  0  2  0  0  0  0  0  0
  161.5790  205.3190  151.7480 C   0  0  1  0  0  0  0  0  0  0  0  0
  160.4470  203.6850  153.1420 O   0  0  0  0  0  1  0  0  0  0  0  0
  160.2460  204.6880  152.1900 C   0  0  0  0  0  2  0  0  0  0  0  0
  162.5660  204.2100  151.3350 C   0  0  0  0  0  2  0  0  0  0  0  0
  161.9650  202.8470  151.1880 C   0  0  0  0  0  0  0  0  0  0  0  0
  160.4510  201.2820  149.9220 C   0  0  0  0  0  1  0  0  0  0  0  0
  162.2630  201.9370  152.0080 O   0  0  0  0  0  0  0  0  0  0  0  0
  161.0690  202.5830  150.1080 N   0  0  0  0  0  2  0  0  0  0  0  0
  162.1750  206.0830  152.9440 C   0  0  0  0  0  2  0  0  0  0  0  0
  161.2320  206.2200  154.1360 C   0  0  1  0  0  3  0  0  0  0  0  0
  161.8980  207.0230  155.2340 C   0  0  0  0  0  1  0  0  0  0  0  0
  160.0700  206.8740  153.7310 O   0  0  0  0  0  1  0  0  0  0  0  0
  1 12  2  0  0  0  0
  3  5  1  6  0  0  0
  5 14  1  0  0  0  0
  6  1  1  0  0  0  0
  6 10  1  0  0  0  0
  6  2  1  1  0  0  0
  7  4  1  1  0  0  0
  7 13  1  0  0  0  0
  8 25  1  1  0  0  0
  8 15  1  0  0  0  0
  9 16  2  0  0  0  0
 10  7  1  0  0  0  0
 11  8  1  0  0  0  0
 11  6  1  0  0  0  0
 12  9  1  0  0  0  0
 12  3  1  0  0  0  0
 13  3  1  0  0  0  0
 13 26  1  1  0  0  0
 14 18  1  1  0  0  0
 15  7  1  0  0  0  0
 16 14  1  0  0  0  0
 17 18  1  0  0  0  0
 17 21  2  0  0  0  0
 18 19  2  0  0  0  0
 19 20  1  0  0  0  0
 20 23  1  0  0  0  0
 21 20  1  0  0  0  0
 23 22  1  0  0  0  0
 24 25  1  0  0  0  0
 26 29  1  6  0  0  0
 26 28  1  0  0  0  0
 26 34  1  0  0  0  0
 28 27  1  0  0  0  0
 30 29  1  0  0  0  0
 30 32  2  0  0  0  0
 31 33  1  0  0  0  0
 33 30  1  0  0  0  0
 34 35  1  0  0  0  0
 35 36  1  1  0  0  0
 37 35  1  0  0  0  0
M  END
>  <MODEL>
5

>  <REMARK>
 VINA RESULT:      -1.1      1.412      2.865
  Name = 
  9 active torsions:
  status: ('A' for Active; 'I' for Inactive)
    1  A    between atoms: C_1  and  C_5
    2  A    between atoms: C_1  and  C_36
    3  A    between atoms: C_6  and  C_31
    4  A    between atoms: C_11  and  C_33
    5  A    between atoms: N_18  and  C_19
    6  A    between atoms: C_21  and  C_30
    7  A    between atoms: C_27  and  C_36
    8  A    between atoms: C_29  and  C_36
    9  A    between atoms: C_33  and  C_36
                            x       y       z     vdW  Elec       q    Type
                         _______ _______ _______ _____ _____    ______ ____

>  <TORSDO>
F 9

$$$$
