=
 OpenBabel11052421513D

 30 36  0  0  1  0  0  0  0  0999 V2000
  161.6270  206.9960  150.3220 C   0  0  2  0  0  3  0  0  0  0  0  0
  161.4800  204.6460  149.3340 C   0  0  1  0  0  3  0  0  0  0  0  0
  161.4430  205.8940  154.2410 C   0  0  0  0  0  2  0  0  0  0  0  0
  161.3920  207.8850  151.5320 C   0  0  1  0  0  3  0  0  0  0  0  0
  161.3500  207.7700  149.0690 C   0  0  0  0  0  3  0  0  0  0  0  0
  162.1360  211.4570  149.9670 S   0  0  0  0  0  0  0  0  0  0  0  0
  161.1600  210.4800  153.5250 C   0  0  1  0  0  3  0  0  0  0  0  0
  162.4760  209.6730  150.1820 C   0  0  2  0  0  3  0  0  0  0  0  0
  161.4940  209.8760  147.9270 N   0  0  0  0  0  2  0  0  0  0  0  0
  160.1000  209.4870  154.0010 C   0  0  2  0  0  3  0  0  0  0  0  0
  161.2140  207.2610  154.7660 C   0  0  0  0  0  0  0  0  0  0  0  0
  161.7950  209.0250  149.0140 C   0  0  0  0  0  0  0  0  0  0  0  0
  161.9500  209.1320  151.5150 C   0  0  2  0  0  3  0  0  0  0  0  0
  161.0220  203.2100  149.5750 C   0  0  0  0  0  2  0  0  0  0  0  0
  159.7590  209.8320  155.4420 C   0  0  0  0  0  2  0  0  0  0  0  0
  161.6100  211.2190  154.7730 C   0  0  0  0  0  2  0  0  0  0  0  0
  160.8230  212.1910  147.6730 C   0  0  0  0  0  1  0  0  0  0  0  0
  160.9890  205.0430  147.9530 C   0  0  0  0  0  1  0  0  0  0  0  0
  160.6320  205.9110  152.9400 C   0  0  1  0  0  3  0  0  0  0  0  0
  161.4440  202.7340  150.9530 C   0  0  0  0  0  2  0  0  0  0  0  0
  161.8990  211.2470  148.1660 C   0  0  1  0  0  3  0  0  0  0  0  0
  160.9520  205.6110  150.4240 C   0  0  1  0  0  3  0  0  0  0  0  0
  160.4030  207.3930  152.5860 C   0  0  1  0  0  3  0  0  0  0  0  0
  161.6220  207.6540  155.8900 O   0  0  0  0  0  0  0  0  0  0  0  0
  160.5260  208.0950  153.8440 N   0  0  0  0  0  0  0  0  0  0  0  0
  160.4360  211.1550  155.7250 C   0  0  0  0  0  2  0  0  0  0  0  0
  163.3920  210.7140  152.6310 O   0  0  0  0  0  1  0  0  0  0  0  0
  160.7910  203.6160  152.0020 C   0  0  0  0  0  2  0  0  0  0  0  0
  161.2650  205.0560  151.8370 C   0  0  2  0  0  3  0  0  0  0  0  0
  162.3410  209.8110  152.8170 C   0  0  1  0  0  3  0  0  0  0  0  0
  1  5  1  6  0  0  0
  1 22  1  0  0  0  0
  1  4  1  0  0  0  0
  2 18  1  6  0  0  0
  2 14  1  0  0  0  0
  2 22  1  0  0  0  0
  3 11  1  0  0  0  0
  4 23  1  0  0  0  0
  6  8  1  0  0  0  0
  7 10  1  0  0  0  0
  7 16  1  0  0  0  0
  8 13  1  0  0  0  0
  9 21  1  0  0  0  0
  9 12  1  0  0  0  0
 10 15  1  0  0  0  0
 11 24  2  0  0  0  0
 12  5  2  0  0  0  0
 12  8  1  0  0  0  0
 13  4  1  0  0  0  0
 13 30  1  0  0  0  0
 14 20  1  0  0  0  0
 15 26  1  0  0  0  0
 16 26  1  0  0  0  0
 17 21  1  0  0  0  0
 19  3  1  0  0  0  0
 20 28  1  0  0  0  0
 21  6  1  0  0  0  0
 22 29  1  0  0  0  0
 23 19  1  0  0  0  0
 23 25  1  0  0  0  0
 25 10  1  0  0  0  0
 25 11  1  0  0  0  0
 27 30  1  0  0  0  0
 29 28  1  0  0  0  0
 29 19  1  0  0  0  0
 30  7  1  0  0  0  0
M  END
>  <MODEL>
1

>  <REMARK>
 VINA RESULT:      -6.8      0.000      0.000
  Name = 
  0 active torsions:
  status: ('A' for Active; 'I' for Inactive)
                            x       y       z     vdW  Elec       q    Type
                         _______ _______ _______ _____ _____    ______ ____

>  <TORSDO>
F 0

$$$$
=
 OpenBabel11052421513D

 30 36  0  0  1  0  0  0  0  0999 V2000
  160.3400  209.5450  152.8570 C   0  0  2  0  0  3  0  0  0  0  0  0
  160.8330  207.1860  153.7010 C   0  0  1  0  0  3  0  0  0  0  0  0
  161.5810  208.9650  149.0190 C   0  0  0  0  0  2  0  0  0  0  0  0
  160.6010  210.5960  151.7920 C   0  0  1  0  0  3  0  0  0  0  0  0
  160.1620  210.2120  154.1870 C   0  0  0  0  0  3  0  0  0  0  0  0
  158.7280  213.7190  153.3730 S   0  0  0  0  0  0  0  0  0  0  0  0
  160.6170  213.3910  150.0730 C   0  0  1  0  0  3  0  0  0  0  0  0
  158.8710  211.9400  152.9730 C   0  0  2  0  0  3  0  0  0  0  0  0
  159.2930  212.0920  155.4000 N   0  0  0  0  0  2  0  0  0  0  0  0
  161.9560  212.7120  149.7860 C   0  0  2  0  0  3  0  0  0  0  0  0
  161.5820  210.4000  148.6490 C   0  0  0  0  0  0  0  0  0  0  0  0
  159.4320  211.3260  154.2200 C   0  0  0  0  0  0  0  0  0  0  0  0
  159.7730  211.6830  151.7620 C   0  0  2  0  0  3  0  0  0  0  0  0
  161.6570  205.9210  153.4780 C   0  0  0  0  0  2  0  0  0  0  0  0
  162.4940  213.2850  148.4840 C   0  0  0  0  0  2  0  0  0  0  0  0
  160.2710  214.1510  148.8060 C   0  0  0  0  0  2  0  0  0  0  0  0
  159.3300  214.4530  155.9470 C   0  0  0  0  0  1  0  0  0  0  0  0
  160.9220  207.5200  155.1790 C   0  0  0  0  0  1  0  0  0  0  0  0
  162.0790  209.0080  150.4680 C   0  0  1  0  0  3  0  0  0  0  0  0
  161.6520  205.5250  152.0120 C   0  0  0  0  0  2  0  0  0  0  0  0
  158.6330  213.3610  155.1640 C   0  0  1  0  0  3  0  0  0  0  0  0
  161.3300  208.3610  152.8230 C   0  0  1  0  0  3  0  0  0  0  0  0
  161.8730  210.4550  150.9590 C   0  0  1  0  0  3  0  0  0  0  0  0
  161.3330  210.8200  147.4880 O   0  0  0  0  0  0  0  0  0  0  0  0
  161.8490  211.2520  149.7530 N   0  0  0  0  0  0  0  0  0  0  0  0
  161.5960  214.4530  148.1410 C   0  0  0  0  0  2  0  0  0  0  0  0
  158.2580  213.0310  150.4510 O   0  0  0  0  0  1  0  0  0  0  0  0
  162.2790  206.6420  151.1980 C   0  0  0  0  0  2  0  0  0  0  0  0
  161.4550  207.9160  151.3430 C   0  0  2  0  0  3  0  0  0  0  0  0
  159.5080  212.4050  150.4510 C   0  0  1  0  0  3  0  0  0  0  0  0
  1  5  1  1  0  0  0
  2 18  1  1  0  0  0
  3 19  1  0  0  0  0
  4  1  1  0  0  0  0
  5 12  2  0  0  0  0
  6 21  1  0  0  0  0
  7 30  1  0  0  0  0
  8  6  1  0  0  0  0
  8 12  1  0  0  0  0
 10  7  1  0  0  0  0
 11  3  1  0  0  0  0
 11 25  1  0  0  0  0
 12  9  1  0  0  0  0
 13  4  1  0  0  0  0
 13  8  1  0  0  0  0
 14  2  1  0  0  0  0
 15 10  1  0  0  0  0
 16  7  1  0  0  0  0
 19 23  1  0  0  0  0
 19 29  1  0  0  0  0
 20 14  1  0  0  0  0
 21  9  1  0  0  0  0
 21 17  1  0  0  0  0
 22  1  1  0  0  0  0
 22  2  1  0  0  0  0
 23  4  1  0  0  0  0
 24 11  2  0  0  0  0
 25 10  1  0  0  0  0
 25 23  1  0  0  0  0
 26 15  1  0  0  0  0
 26 16  1  0  0  0  0
 28 29  1  0  0  0  0
 28 20  1  0  0  0  0
 29 22  1  0  0  0  0
 30 27  1  0  0  0  0
 30 13  1  0  0  0  0
M  END
>  <MODEL>
2

>  <REMARK>
 VINA RESULT:      -5.1      2.789      5.869
  Name = 
  0 active torsions:
  status: ('A' for Active; 'I' for Inactive)
                            x       y       z     vdW  Elec       q    Type
                         _______ _______ _______ _____ _____    ______ ____

>  <TORSDO>
F 0

$$$$
=
 OpenBabel11052421513D

 30 36  0  0  1  0  0  0  0  0999 V2000
  161.1150  209.1370  152.9930 C   0  0  2  0  0  3  0  0  0  0  0  0
  161.1690  207.8210  155.1810 C   0  0  1  0  0  3  0  0  0  0  0  0
  159.6020  212.5930  154.5360 C   0  0  0  0  0  2  0  0  0  0  0  0
  160.5470  210.3280  152.2380 C   0  0  1  0  0  3  0  0  0  0  0  0
  161.3040  207.9880  152.0500 C   0  0  0  0  0  3  0  0  0  0  0  0
  161.9560  209.6170  148.5950 S   0  0  0  0  0  0  0  0  0  0  0  0
  159.8210  212.5030  149.8910 C   0  0  1  0  0  3  0  0  0  0  0  0
  162.1090  209.6650  150.4170 C   0  0  2  0  0  3  0  0  0  0  0  0
  161.9280  207.2710  149.8470 N   0  0  0  0  0  2  0  0  0  0  0  0
  158.6110  212.4700  150.8240 C   0  0  2  0  0  3  0  0  0  0  0  0
  159.2910  213.2130  153.2260 C   0  0  0  0  0  0  0  0  0  0  0  0
  161.8110  208.2600  150.8480 C   0  0  0  0  0  0  0  0  0  0  0  0
  161.1480  210.6700  151.0590 C   0  0  2  0  0  3  0  0  0  0  0  0
  160.5780  207.6930  156.5820 C   0  0  0  0  0  2  0  0  0  0  0  0
  157.8390  213.7640  150.6240 C   0  0  0  0  0  2  0  0  0  0  0  0
  159.8800  213.9220  149.3570 C   0  0  0  0  0  2  0  0  0  0  0  0
  161.5050  207.1590  147.4630 C   0  0  0  0  0  1  0  0  0  0  0  0
  161.1770  206.4300  154.5730 C   0  0  0  0  0  1  0  0  0  0  0  0
  159.2620  211.1200  154.2820 C   0  0  1  0  0  3  0  0  0  0  0  0
  160.5010  209.0490  157.2610 C   0  0  0  0  0  2  0  0  0  0  0  0
  162.3080  207.8220  148.5610 C   0  0  1  0  0  3  0  0  0  0  0  0
  160.3680  208.8180  154.3060 C   0  0  1  0  0  3  0  0  0  0  0  0
  159.2430  210.9320  152.7520 C   0  0  1  0  0  3  0  0  0  0  0  0
  159.3310  214.4530  153.0140 O   0  0  0  0  0  0  0  0  0  0  0  0
  158.9870  212.2540  152.2230 N   0  0  0  0  0  0  0  0  0  0  0  0
  158.4580  214.4360  149.4180 C   0  0  0  0  0  2  0  0  0  0  0  0
  162.2320  212.4030  149.7740 O   0  0  0  0  0  1  0  0  0  0  0  0
  159.5920  209.9550  156.4510 C   0  0  0  0  0  2  0  0  0  0  0  0
  160.1720  210.1600  155.0560 C   0  0  2  0  0  3  0  0  0  0  0  0
  161.1300  212.1130  150.5840 C   0  0  1  0  0  3  0  0  0  0  0  0
  1  5  1  6  0  0  0
  1 22  1  0  0  0  0
  2 18  1  6  0  0  0
  2 14  1  0  0  0  0
  4 23  1  0  0  0  0
  4  1  1  0  0  0  0
  6  8  1  0  0  0  0
  7 30  1  0  0  0  0
  7 10  1  0  0  0  0
  8 12  1  0  0  0  0
  8 13  1  0  0  0  0
  9 12  1  0  0  0  0
 10 25  1  0  0  0  0
 11  3  1  0  0  0  0
 12  5  2  0  0  0  0
 13  4  1  0  0  0  0
 14 20  1  0  0  0  0
 15 10  1  0  0  0  0
 16 26  1  0  0  0  0
 16  7  1  0  0  0  0
 17 21  1  0  0  0  0
 19  3  1  0  0  0  0
 19 29  1  0  0  0  0
 21  6  1  0  0  0  0
 21  9  1  0  0  0  0
 22 29  1  0  0  0  0
 22  2  1  0  0  0  0
 23 19  1  0  0  0  0
 24 11  2  0  0  0  0
 25 23  1  0  0  0  0
 25 11  1  0  0  0  0
 26 15  1  0  0  0  0
 27 30  1  0  0  0  0
 28 20  1  0  0  0  0
 29 28  1  0  0  0  0
 30 13  1  0  0  0  0
M  END
>  <MODEL>
3

>  <REMARK>
 VINA RESULT:      -4.3      2.801      5.390
  Name = 
  0 active torsions:
  status: ('A' for Active; 'I' for Inactive)
                            x       y       z     vdW  Elec       q    Type
                         _______ _______ _______ _____ _____    ______ ____

>  <TORSDO>
F 0

$$$$
