=
 OpenBabel11062408023D

 34 38  0  0  1  0  0  0  0  0999 V2000
  161.2330  205.7470  147.0960 C   0  0  2  0  0  3  0  0  0  0  0  0
  161.2850  202.6220  148.7350 C   0  0  0  0  0  2  0  0  0  0  0  0
  161.4830  204.6450  150.0990 N   0  0  1  0  0  0  0  0  0  0  0  0
  161.6550  205.5050  152.4440 C   0  0  2  0  0  3  0  0  0  0  0  0
  160.8920  203.7830  145.8490 O   0  0  0  0  0  0  0  0  0  0  0  0
  161.2530  202.4860  146.2320 C   0  0  0  0  0  2  0  0  0  0  0  0
  161.1430  203.1160  151.9990 C   0  0  0  0  0  1  0  0  0  0  0  0
  160.5740  203.8560  149.2630 C   0  0  0  0  0  2  0  0  0  0  0  0
  161.8990  204.6030  146.3610 C   0  0  1  0  0  3  0  0  0  0  0  0
  161.4390  206.0360  149.5840 C   0  0  1  0  0  3  0  0  0  0  0  0
  161.8600  205.9830  145.7380 C   0  0  0  0  0  2  0  0  0  0  0  0
  160.5490  202.0730  147.5220 C   0  0  0  0  0  2  0  0  0  0  0  0
  161.5540  206.9260  151.9360 C   0  0  0  0  0  2  0  0  0  0  0  0
  162.1220  207.0330  150.5380 C   0  0  2  0  0  3  0  0  0  0  0  0
  160.9550  204.5410  151.4760 C   0  0  2  0  0  3  0  0  0  0  0  0
  162.1580  206.1400  148.2290 C   0  0  0  0  0  2  0  0  0  0  0  0
  161.4840  210.7910  150.5080 C   0  0  0  0  0  0  0  0  0  0  0  0
  161.7650  211.0980  149.1730 C   0  0  0  0  0  3  0  0  0  0  0  0
  161.9720  208.4520  150.0710 C   0  0  0  0  0  0  0  0  0  0  0  0
  162.1500  210.0870  148.2890 C   0  0  0  0  0  3  0  0  0  0  0  0
  161.5880  209.4720  150.9570 C   0  0  0  0  0  3  0  0  0  0  0  0
  162.2550  208.7670  148.7370 C   0  0  0  0  0  3  0  0  0  0  0  0
  161.1150  211.7700  151.3670 F   0  0  0  0  0  0  0  0  0  0  0  0
  161.0600  205.4360  153.8550 C   0  0  0  0  0  2  0  0  0  0  0  0
  161.2320  206.6990  154.5590 N   0  0  0  0  0  2  0  0  0  0  0  0
  160.0220  206.9250  155.3340 C   0  0  0  0  0  2  0  0  0  0  0  0
  160.1200  208.2520  156.0680 C   0  0  0  0  0  2  0  0  0  0  0  0
  162.7380  209.6960  156.8500 O   0  0  0  0  0  0  0  0  0  0  0  0
  160.9790  209.2410  155.2880 C   0  0  2  0  0  3  0  0  0  0  0  0
  161.7410  210.1420  156.2240 C   0  0  0  0  0  0  0  0  0  0  0  0
  160.3510  212.1520  155.5830 C   0  0  0  0  0  2  0  0  0  0  0  0
  159.3500  211.1530  155.0220 C   0  0  0  0  0  2  0  0  0  0  0  0
  160.1090  210.0380  154.3120 C   0  0  0  0  0  2  0  0  0  0  0  0
  161.3040  211.4850  156.4630 N   0  0  0  0  0  2  0  0  0  0  0  0
  1 11  1  6  0  0  0
  1 16  1  0  0  0  0
  2  8  1  0  0  0  0
  3  8  1  6  0  0  0
  3 15  1  0  0  0  0
  4 24  1  1  0  0  0
  5  6  1  0  0  0  0
  5  9  1  0  0  0  0
  6 12  1  0  0  0  0
  9 11  1  6  0  0  0
  9  1  1  0  0  0  0
 10 16  1  6  0  0  0
 10  3  1  0  0  0  0
 10 14  1  0  0  0  0
 12  2  1  0  0  0  0
 13  4  1  0  0  0  0
 14 19  1  6  0  0  0
 14 13  1  0  0  0  0
 15  7  1  1  0  0  0
 15  4  1  0  0  0  0
 17 21  1  0  0  0  0
 17 23  1  0  0  0  0
 18 17  2  0  0  0  0
 19 21  2  0  0  0  0
 20 22  2  0  0  0  0
 20 18  1  0  0  0  0
 22 19  1  0  0  0  0
 24 25  1  0  0  0  0
 25 26  1  0  0  0  0
 26 27  1  0  0  0  0
 29 27  1  1  0  0  0
 29 30  1  0  0  0  0
 30 34  1  0  0  0  0
 30 28  2  0  0  0  0
 31 34  1  0  0  0  0
 32 31  1  0  0  0  0
 33 32  1  0  0  0  0
 33 29  1  0  0  0  0
M  END
>  <MODEL>
1

>  <REMARK>
 VINA RESULT:      -8.0      0.000      0.000
  Name = 
  6 active torsions:
  status: ('A' for Active; 'I' for Inactive)
    1  A    between atoms: C_3  and  C_13
    2  A    between atoms: C_3  and  C_17
    3  A    between atoms: C_5  and  C_18
    4  A    between atoms: C_12  and  C_28
    5  A    between atoms: C_17  and  N_29
    6  A    between atoms: C_18  and  N_29
                            x       y       z     vdW  Elec       q    Type
                         _______ _______ _______ _____ _____    ______ ____

>  <TORSDO>
F 6

$$$$
=
 OpenBabel11062408023D

 34 38  0  0  1  0  0  0  0  0999 V2000
  160.0870  207.5780  154.8890 C   0  0  2  0  0  3  0  0  0  0  0  0
  161.1140  210.8810  154.1870 C   0  0  0  0  0  2  0  0  0  0  0  0
  161.4700  209.1720  152.4720 N   0  0  1  0  0  0  0  0  0  0  0  0
  162.2890  208.7740  150.1400 C   0  0  2  0  0  3  0  0  0  0  0  0
  159.6280  209.2850  156.4400 O   0  0  0  0  0  0  0  0  0  0  0  0
  160.2730  210.5250  156.5220 C   0  0  0  0  0  2  0  0  0  0  0  0
  161.9950  211.0820  151.0100 C   0  0  0  0  0  1  0  0  0  0  0  0
  160.4540  209.9550  153.1800 C   0  0  0  0  0  2  0  0  0  0  0  0
  160.6230  208.3870  156.0520 C   0  0  1  0  0  3  0  0  0  0  0  0
  161.0650  207.7480  152.5810 C   0  0  1  0  0  3  0  0  0  0  0  0
  160.1890  206.9520  156.2640 C   0  0  0  0  0  2  0  0  0  0  0  0
  160.1010  211.3240  155.2320 C   0  0  0  0  0  2  0  0  0  0  0  0
  161.8280  207.3350  150.2170 C   0  0  0  0  0  2  0  0  0  0  0  0
  161.8790  206.8360  151.6440 C   0  0  2  0  0  3  0  0  0  0  0  0
  161.4490  209.6550  151.0750 C   0  0  2  0  0  3  0  0  0  0  0  0
  161.2710  207.2290  154.0130 C   0  0  0  0  0  2  0  0  0  0  0  0
  160.6690  203.3990  150.5300 C   0  0  0  0  0  0  0  0  0  0  0  0
  160.5310  202.7520  151.7610 C   0  0  0  0  0  3  0  0  0  0  0  0
  161.3870  205.4190  151.6710 C   0  0  0  0  0  0  0  0  0  0  0  0
  160.8220  203.4340  152.9460 C   0  0  0  0  0  3  0  0  0  0  0  0
  161.0960  204.7280  150.4840 C   0  0  0  0  0  3  0  0  0  0  0  0
  161.2510  204.7640  152.9010 C   0  0  0  0  0  3  0  0  0  0  0  0
  160.3920  202.7370  149.3810 F   0  0  0  0  0  0  0  0  0  0  0  0
  162.2110  209.2440  148.6830 C   0  0  0  0  0  2  0  0  0  0  0  0
  161.3440  208.3770  147.8970 N   0  0  0  0  0  2  0  0  0  0  0  0
  162.1560  207.2590  147.4420 C   0  0  0  0  0  2  0  0  0  0  0  0
  161.2600  206.1580  146.8990 C   0  0  0  0  0  2  0  0  0  0  0  0
  161.2070  205.8650  143.8230 O   0  0  0  0  0  0  0  0  0  0  0  0
  162.0420  205.2300  145.9770 C   0  0  2  0  0  3  0  0  0  0  0  0
  161.2770  204.9700  144.7050 C   0  0  0  0  0  0  0  0  0  0  0  0
  160.8310  202.5670  145.3440 C   0  0  0  0  0  2  0  0  0  0  0  0
  161.1940  202.9840  146.7620 C   0  0  0  0  0  2  0  0  0  0  0  0
  162.3880  203.9300  146.7090 C   0  0  0  0  0  2  0  0  0  0  0  0
  160.5710  203.7390  144.5160 N   0  0  0  0  0  2  0  0  0  0  0  0
  1 16  1  6  0  0  0
  1  9  1  0  0  0  0
  1 11  1  0  0  0  0
  2 12  1  0  0  0  0
  3 10  1  0  0  0  0
  3  8  1  1  0  0  0
  4 24  1  6  0  0  0
  4 13  1  0  0  0  0
  4 15  1  0  0  0  0
  5  6  1  0  0  0  0
  8  2  1  0  0  0  0
  9 11  1  1  0  0  0
  9  5  1  0  0  0  0
 10 16  1  1  0  0  0
 12  6  1  0  0  0  0
 13 14  1  0  0  0  0
 14 19  1  6  0  0  0
 14 10  1  0  0  0  0
 15  7  1  1  0  0  0
 15  3  1  0  0  0  0
 17 18  1  0  0  0  0
 18 20  2  0  0  0  0
 19 22  2  0  0  0  0
 21 17  2  0  0  0  0
 21 19  1  0  0  0  0
 22 20  1  0  0  0  0
 23 17  1  0  0  0  0
 25 24  1  0  0  0  0
 26 25  1  0  0  0  0
 27 26  1  0  0  0  0
 28 30  2  0  0  0  0
 29 33  1  0  0  0  0
 29 27  1  1  0  0  0
 30 29  1  0  0  0  0
 31 32  1  0  0  0  0
 33 32  1  0  0  0  0
 34 30  1  0  0  0  0
 34 31  1  0  0  0  0
M  END
>  <MODEL>
2

>  <REMARK>
 VINA RESULT:      -7.9      2.391      9.041
  Name = 
  6 active torsions:
  status: ('A' for Active; 'I' for Inactive)
    1  A    between atoms: C_3  and  C_13
    2  A    between atoms: C_3  and  C_17
    3  A    between atoms: C_5  and  C_18
    4  A    between atoms: C_12  and  C_28
    5  A    between atoms: C_17  and  N_29
    6  A    between atoms: C_18  and  N_29
                            x       y       z     vdW  Elec       q    Type
                         _______ _______ _______ _____ _____    ______ ____

>  <TORSDO>
F 6

$$$$
=
 OpenBabel11062408023D

 34 38  0  0  1  0  0  0  0  0999 V2000
  160.8570  204.8960  150.7330 C   0  0  2  0  0  3  0  0  0  0  0  0
  161.5670  207.3940  153.1230 C   0  0  0  0  0  2  0  0  0  0  0  0
  161.7670  207.9720  150.7530 N   0  0  1  0  0  0  0  0  0  0  0  0
  162.2540  209.8330  149.1510 C   0  0  2  0  0  3  0  0  0  0  0  0
  160.5310  204.4360  153.0160 O   0  0  0  0  0  0  0  0  0  0  0  0
  161.1040  205.1280  154.0900 C   0  0  0  0  0  2  0  0  0  0  0  0
  161.9530  210.2860  151.5740 C   0  0  0  0  0  1  0  0  0  0  0  0
  160.8220  207.6370  151.8210 C   0  0  0  0  0  2  0  0  0  0  0  0
  161.5100  204.4410  152.0210 C   0  0  1  0  0  3  0  0  0  0  0  0
  161.4700  207.0630  149.6180 C   0  0  1  0  0  3  0  0  0  0  0  0
  161.2000  203.4340  150.9340 C   0  0  0  0  0  2  0  0  0  0  0  0
  160.6950  206.5990  154.0830 C   0  0  0  0  0  2  0  0  0  0  0  0
  161.8990  208.9330  147.9880 C   0  0  0  0  0  2  0  0  0  0  0  0
  162.1910  207.4880  148.3260 C   0  0  2  0  0  3  0  0  0  0  0  0
  161.5100  209.3890  150.4180 C   0  0  2  0  0  3  0  0  0  0  0  0
  161.9180  205.6270  149.9370 C   0  0  0  0  0  2  0  0  0  0  0  0
  162.2600  204.8500  145.5750 C   0  0  0  0  0  0  0  0  0  0  0  0
  160.9950  205.0230  145.0080 C   0  0  0  0  0  3  0  0  0  0  0  0
  161.7950  206.6360  147.1550 C   0  0  0  0  0  0  0  0  0  0  0  0
  160.1300  205.9980  145.5120 C   0  0  0  0  0  3  0  0  0  0  0  0
  162.6600  205.6530  146.6470 C   0  0  0  0  0  3  0  0  0  0  0  0
  160.5280  206.8010  146.5840 C   0  0  0  0  0  3  0  0  0  0  0  0
  163.0980  203.9020  145.0920 F   0  0  0  0  0  0  0  0  0  0  0  0
  161.9330  211.2840  148.7740 C   0  0  0  0  0  2  0  0  0  0  0  0
  163.0270  211.8860  148.0240 N   0  0  0  0  0  2  0  0  0  0  0  0
  162.4780  213.0270  147.3090 C   0  0  0  0  0  2  0  0  0  0  0  0
  161.2230  212.6110  146.5600 C   0  0  0  0  0  2  0  0  0  0  0  0
  159.0740  212.4850  144.3430 O   0  0  0  0  0  0  0  0  0  0  0  0
  160.9960  213.5040  145.3450 C   0  0  2  0  0  3  0  0  0  0  0  0
  160.3010  212.7450  144.2450 C   0  0  0  0  0  0  0  0  0  0  0  0
  162.3710  212.7480  142.7960 C   0  0  0  0  0  2  0  0  0  0  0  0
  163.1350  213.0910  144.0670 C   0  0  0  0  0  2  0  0  0  0  0  0
  162.3260  214.0990  144.8740 C   0  0  0  0  0  2  0  0  0  0  0  0
  161.0360  212.2550  143.1180 N   0  0  0  0  0  2  0  0  0  0  0  0
  1 16  1  6  0  0  0
  1 11  1  0  0  0  0
  1  9  1  0  0  0  0
  2 12  1  0  0  0  0
  3  8  1  1  0  0  0
  4 24  1  6  0  0  0
  4 15  1  0  0  0  0
  5  6  1  0  0  0  0
  8  2  1  0  0  0  0
  9 11  1  6  0  0  0
  9  5  1  0  0  0  0
 10 16  1  1  0  0  0
 10  3  1  0  0  0  0
 12  6  1  0  0  0  0
 13 14  1  0  0  0  0
 13  4  1  0  0  0  0
 14 19  1  6  0  0  0
 14 10  1  0  0  0  0
 15  3  1  0  0  0  0
 15  7  1  1  0  0  0
 17 21  1  0  0  0  0
 18 20  1  0  0  0  0
 18 17  2  0  0  0  0
 20 22  2  0  0  0  0
 21 19  2  0  0  0  0
 22 19  1  0  0  0  0
 23 17  1  0  0  0  0
 25 24  1  0  0  0  0
 26 25  1  0  0  0  0
 27 26  1  0  0  0  0
 29 27  1  1  0  0  0
 30 28  2  0  0  0  0
 30 29  1  0  0  0  0
 31 34  1  0  0  0  0
 31 32  1  0  0  0  0
 32 33  1  0  0  0  0
 33 29  1  0  0  0  0
 34 30  1  0  0  0  0
M  END
>  <MODEL>
3

>  <REMARK>
 VINA RESULT:      -7.9      4.178      8.000
  Name = 
  6 active torsions:
  status: ('A' for Active; 'I' for Inactive)
    1  A    between atoms: C_3  and  C_13
    2  A    between atoms: C_3  and  C_17
    3  A    between atoms: C_5  and  C_18
    4  A    between atoms: C_12  and  C_28
    5  A    between atoms: C_17  and  N_29
    6  A    between atoms: C_18  and  N_29
                            x       y       z     vdW  Elec       q    Type
                         _______ _______ _______ _____ _____    ______ ____

>  <TORSDO>
F 6

$$$$
=
 OpenBabel11062408023D

 34 38  0  0  1  0  0  0  0  0999 V2000
  161.2380  206.8840  148.1380 C   0  0  2  0  0  3  0  0  0  0  0  0
  161.4250  204.3270  150.5630 C   0  0  0  0  0  2  0  0  0  0  0  0
  161.4720  206.6510  151.3300 N   0  0  1  0  0  0  0  0  0  0  0  0
  161.5330  208.1210  153.3550 C   0  0  2  0  0  3  0  0  0  0  0  0
  161.0430  204.6390  147.4670 O   0  0  0  0  0  0  0  0  0  0  0  0
  161.4670  203.5190  148.1910 C   0  0  0  0  0  2  0  0  0  0  0  0
  161.1690  205.6730  153.5690 C   0  0  0  0  0  1  0  0  0  0  0  0
  160.6320  205.6110  150.7290 C   0  0  0  0  0  2  0  0  0  0  0  0
  161.9870  205.6270  147.7470 C   0  0  1  0  0  3  0  0  0  0  0  0
  161.3620  207.8460  150.4560 C   0  0  1  0  0  3  0  0  0  0  0  0
  161.8870  206.7820  146.7730 C   0  0  0  0  0  2  0  0  0  0  0  0
  160.7540  203.4260  149.5380 C   0  0  0  0  0  2  0  0  0  0  0  0
  161.3640  209.3430  152.4800 C   0  0  0  0  0  2  0  0  0  0  0  0
  161.9620  209.1040  151.1110 C   0  0  2  0  0  3  0  0  0  0  0  0
  160.9150  206.8900  152.6780 C   0  0  2  0  0  3  0  0  0  0  0  0
  162.1090  207.6240  149.1310 C   0  0  0  0  0  2  0  0  0  0  0  0
  160.8560  212.5740  149.9870 C   0  0  0  0  0  0  0  0  0  0  0  0
  161.4130  212.6290  148.7060 C   0  0  0  0  0  3  0  0  0  0  0  0
  161.7440  210.3320  150.2750 C   0  0  0  0  0  0  0  0  0  0  0  0
  162.1340  211.5410  148.2090 C   0  0  0  0  0  3  0  0  0  0  0  0
  161.0220  211.4290  150.7710 C   0  0  0  0  0  3  0  0  0  0  0  0
  162.3010  210.3950  148.9930 C   0  0  0  0  0  3  0  0  0  0  0  0
  160.1610  213.6300  150.4720 F   0  0  0  0  0  0  0  0  0  0  0  0
  160.9060  208.3990  154.7260 C   0  0  0  0  0  2  0  0  0  0  0  0
  161.6990  209.3590  155.4810 N   0  0  0  0  0  2  0  0  0  0  0  0
  160.7980  210.0200  156.4120 C   0  0  0  0  0  2  0  0  0  0  0  0
  159.3880  210.0290  155.8460 C   0  0  0  0  0  2  0  0  0  0  0  0
  156.4360  210.9440  155.7870 O   0  0  0  0  0  0  0  0  0  0  0  0
  158.7790  211.4240  155.9330 C   0  0  2  0  0  3  0  0  0  0  0  0
  157.4410  211.4690  155.2410 C   0  0  0  0  0  0  0  0  0  0  0  0
  158.3430  212.9060  153.3690 C   0  0  0  0  0  2  0  0  0  0  0  0
  159.7230  212.4680  153.8360 C   0  0  0  0  0  2  0  0  0  0  0  0
  159.7510  212.4590  155.3600 C   0  0  0  0  0  2  0  0  0  0  0  0
  157.3130  212.0430  153.9350 N   0  0  0  0  0  2  0  0  0  0  0  0
  1 11  1  6  0  0  0
  1 16  1  0  0  0  0
  2  8  1  0  0  0  0
  3  8  1  6  0  0  0
  3 15  1  0  0  0  0
  4 24  1  1  0  0  0
  5  9  1  0  0  0  0
  5  6  1  0  0  0  0
  6 12  1  0  0  0  0
  9 11  1  6  0  0  0
  9  1  1  0  0  0  0
 10 16  1  6  0  0  0
 10 14  1  0  0  0  0
 10  3  1  0  0  0  0
 12  2  1  0  0  0  0
 13  4  1  0  0  0  0
 14 19  1  6  0  0  0
 14 13  1  0  0  0  0
 15  4  1  0  0  0  0
 15  7  1  1  0  0  0
 17 23  1  0  0  0  0
 17 21  1  0  0  0  0
 18 17  2  0  0  0  0
 19 21  2  0  0  0  0
 20 18  1  0  0  0  0
 20 22  2  0  0  0  0
 22 19  1  0  0  0  0
 24 25  1  0  0  0  0
 25 26  1  0  0  0  0
 27 26  1  0  0  0  0
 29 27  1  6  0  0  0
 30 28  2  0  0  0  0
 30 29  1  0  0  0  0
 31 32  1  0  0  0  0
 31 34  1  0  0  0  0
 32 33  1  0  0  0  0
 33 29  1  0  0  0  0
 34 30  1  0  0  0  0
M  END
>  <MODEL>
4

>  <REMARK>
 VINA RESULT:      -7.9      1.963      2.729
  Name = 
  6 active torsions:
  status: ('A' for Active; 'I' for Inactive)
    1  A    between atoms: C_3  and  C_13
    2  A    between atoms: C_3  and  C_17
    3  A    between atoms: C_5  and  C_18
    4  A    between atoms: C_12  and  C_28
    5  A    between atoms: C_17  and  N_29
    6  A    between atoms: C_18  and  N_29
                            x       y       z     vdW  Elec       q    Type
                         _______ _______ _______ _____ _____    ______ ____

>  <TORSDO>
F 6

$$$$
=
 OpenBabel11062408023D

 34 38  0  0  1  0  0  0  0  0999 V2000
  161.1500  207.3490  148.5440 C   0  0  2  0  0  3  0  0  0  0  0  0
  161.4150  205.0700  151.2260 C   0  0  0  0  0  2  0  0  0  0  0  0
  161.5070  207.4620  151.7310 N   0  0  1  0  0  0  0  0  0  0  0  0
  161.6570  209.1440  153.5800 C   0  0  2  0  0  3  0  0  0  0  0  0
  160.9130  205.0470  148.1300 O   0  0  0  0  0  0  0  0  0  0  0  0
  161.3580  204.0070  148.9560 C   0  0  0  0  0  2  0  0  0  0  0  0
  161.2860  206.7380  154.0740 C   0  0  0  0  0  1  0  0  0  0  0  0
  160.6370  206.3730  151.2810 C   0  0  0  0  0  2  0  0  0  0  0  0
  161.8740  206.0490  148.2650 C   0  0  1  0  0  3  0  0  0  0  0  0
  161.3710  208.5570  150.7370 C   0  0  1  0  0  3  0  0  0  0  0  0
  161.7430  207.0920  147.1750 C   0  0  0  0  0  2  0  0  0  0  0  0
  160.6980  204.0700  150.3310 C   0  0  0  0  0  2  0  0  0  0  0  0
  161.4620  210.2650  152.5840 C   0  0  0  0  0  2  0  0  0  0  0  0
  162.0040  209.8720  151.2270 C   0  0  2  0  0  3  0  0  0  0  0  0
  161.0050  207.8530  153.0660 C   0  0  2  0  0  3  0  0  0  0  0  0
  162.0640  208.1840  149.4160 C   0  0  0  0  0  2  0  0  0  0  0  0
  162.2230  212.1540  148.1820 C   0  0  0  0  0  0  0  0  0  0  0  0
  161.2360  213.0960  148.4830 C   0  0  0  0  0  3  0  0  0  0  0  0
  161.7620  211.0030  150.2710 C   0  0  0  0  0  0  0  0  0  0  0  0
  160.5110  212.9930  149.6740 C   0  0  0  0  0  3  0  0  0  0  0  0
  162.4860  211.1090  149.0720 C   0  0  0  0  0  3  0  0  0  0  0  0
  160.7720  211.9480  150.5650 C   0  0  0  0  0  3  0  0  0  0  0  0
  162.9240  212.2490  147.0270 F   0  0  0  0  0  0  0  0  0  0  0  0
  161.0860  209.5770  154.9350 C   0  0  0  0  0  2  0  0  0  0  0  0
  161.3180  210.9940  155.1740 N   0  0  0  0  0  2  0  0  0  0  0  0
  160.1190  211.5230  155.8040 C   0  0  0  0  0  2  0  0  0  0  0  0
  159.6610  212.7740  155.0710 C   0  0  0  0  0  2  0  0  0  0  0  0
  158.9270  214.3740  152.5310 O   0  0  0  0  0  0  0  0  0  0  0  0
  158.7560  212.4140  153.8990 C   0  0  2  0  0  3  0  0  0  0  0  0
  158.1920  213.6550  153.2570 C   0  0  0  0  0  0  0  0  0  0  0  0
  155.8640  213.1580  154.1040 C   0  0  0  0  0  2  0  0  0  0  0  0
  156.5340  212.2050  155.0820 C   0  0  0  0  0  2  0  0  0  0  0  0
  157.6510  211.4590  154.3600 C   0  0  0  0  0  2  0  0  0  0  0  0
  156.8450  214.0650  153.5190 N   0  0  0  0  0  2  0  0  0  0  0  0
  1 11  1  6  0  0  0
  1 16  1  0  0  0  0
  2  8  1  0  0  0  0
  3  8  1  6  0  0  0
  3 15  1  0  0  0  0
  4 24  1  1  0  0  0
  5  9  1  0  0  0  0
  5  6  1  0  0  0  0
  6 12  1  0  0  0  0
  9 11  1  6  0  0  0
  9  1  1  0  0  0  0
 10 16  1  6  0  0  0
 10 14  1  0  0  0  0
 10  3  1  0  0  0  0
 12  2  1  0  0  0  0
 13  4  1  0  0  0  0
 14 19  1  6  0  0  0
 14 13  1  0  0  0  0
 15  4  1  0  0  0  0
 15  7  1  1  0  0  0
 17 18  2  0  0  0  0
 17 21  1  0  0  0  0
 18 20  1  0  0  0  0
 19 22  1  0  0  0  0
 20 22  2  0  0  0  0
 21 19  2  0  0  0  0
 23 17  1  0  0  0  0
 24 25  1  0  0  0  0
 25 26  1  0  0  0  0
 27 26  1  0  0  0  0
 28 30  2  0  0  0  0
 29 33  1  0  0  0  0
 29 27  1  1  0  0  0
 30 34  1  0  0  0  0
 30 29  1  0  0  0  0
 31 32  1  0  0  0  0
 33 32  1  0  0  0  0
 34 31  1  0  0  0  0
M  END
>  <MODEL>
5

>  <REMARK>
 VINA RESULT:      -7.6      2.495      3.808
  Name = 
  6 active torsions:
  status: ('A' for Active; 'I' for Inactive)
    1  A    between atoms: C_3  and  C_13
    2  A    between atoms: C_3  and  C_17
    3  A    between atoms: C_5  and  C_18
    4  A    between atoms: C_12  and  C_28
    5  A    between atoms: C_17  and  N_29
    6  A    between atoms: C_18  and  N_29
                            x       y       z     vdW  Elec       q    Type
                         _______ _______ _______ _____ _____    ______ ____

>  <TORSDO>
F 6

$$$$
=
 OpenBabel11062408023D

 34 38  0  0  1  0  0  0  0  0999 V2000
  160.8090  204.7090  150.5460 C   0  0  2  0  0  3  0  0  0  0  0  0
  161.5740  207.0820  153.0440 C   0  0  0  0  0  2  0  0  0  0  0  0
  161.7970  207.7580  150.7030 N   0  0  1  0  0  0  0  0  0  0  0  0
  162.3360  209.6750  149.1840 C   0  0  2  0  0  3  0  0  0  0  0  0
  160.4640  204.1590  152.8060 O   0  0  0  0  0  0  0  0  0  0  0  0
  161.0510  204.7880  153.9100 C   0  0  0  0  0  2  0  0  0  0  0  0
  162.0390  210.0290  151.6250 C   0  0  0  0  0  1  0  0  0  0  0  0
  160.8400  207.4010  151.7540 C   0  0  0  0  0  2  0  0  0  0  0  0
  161.4460  204.1820  151.8140 C   0  0  1  0  0  3  0  0  0  0  0  0
  161.4800  206.9070  149.5290 C   0  0  1  0  0  3  0  0  0  0  0  0
  161.1140  203.2330  150.6830 C   0  0  0  0  0  2  0  0  0  0  0  0
  160.6790  206.2680  153.9670 C   0  0  0  0  0  2  0  0  0  0  0  0
  161.9610  208.8350  147.9830 C   0  0  0  0  0  2  0  0  0  0  0  0
  162.2150  207.3700  148.2580 C   0  0  2  0  0  3  0  0  0  0  0  0
  161.5760  209.1940  150.4290 C   0  0  2  0  0  3  0  0  0  0  0  0
  161.8900  205.4480  149.7850 C   0  0  0  0  0  2  0  0  0  0  0  0
  162.2210  204.8470  145.4010 C   0  0  0  0  0  0  0  0  0  0  0  0
  160.9670  205.0850  144.8320 C   0  0  0  0  0  3  0  0  0  0  0  0
  161.8020  206.5800  147.0500 C   0  0  0  0  0  0  0  0  0  0  0  0
  160.1300  206.0660  145.3700 C   0  0  0  0  0  3  0  0  0  0  0  0
  162.6380  205.5910  146.5070 C   0  0  0  0  0  3  0  0  0  0  0  0
  160.5460  206.8110  146.4770 C   0  0  0  0  0  3  0  0  0  0  0  0
  163.0320  203.8920  144.8840 F   0  0  0  0  0  0  0  0  0  0  0  0
  162.0520  211.1480  148.8710 C   0  0  0  0  0  2  0  0  0  0  0  0
  161.2190  211.2820  147.6840 N   0  0  0  0  0  2  0  0  0  0  0  0
  161.5460  212.5600  147.0740 C   0  0  0  0  0  2  0  0  0  0  0  0
  160.3100  213.4440  147.0330 C   0  0  0  0  0  2  0  0  0  0  0  0
  159.4710  212.5700  144.1900 O   0  0  0  0  0  0  0  0  0  0  0  0
  159.0960  212.6560  146.5550 C   0  0  2  0  0  3  0  0  0  0  0  0
  158.7570  213.0080  145.1290 C   0  0  0  0  0  0  0  0  0  0  0  0
  156.6420  214.2050  145.8210 C   0  0  0  0  0  2  0  0  0  0  0  0
  157.2360  214.2300  147.2220 C   0  0  0  0  0  2  0  0  0  0  0  0
  157.9120  212.8910  147.4970 C   0  0  0  0  0  2  0  0  0  0  0  0
  157.6690  213.8910  144.8340 N   0  0  0  0  0  2  0  0  0  0  0  0
  1 16  1  6  0  0  0
  1 11  1  0  0  0  0
  1  9  1  0  0  0  0
  2 12  1  0  0  0  0
  3  8  1  1  0  0  0
  4 24  1  6  0  0  0
  4 15  1  0  0  0  0
  5  6  1  0  0  0  0
  6 12  1  0  0  0  0
  8  2  1  0  0  0  0
  9 11  1  6  0  0  0
  9  5  1  0  0  0  0
 10 16  1  1  0  0  0
 10  3  1  0  0  0  0
 13 14  1  0  0  0  0
 13  4  1  0  0  0  0
 14 19  1  6  0  0  0
 14 10  1  0  0  0  0
 15  3  1  0  0  0  0
 15  7  1  1  0  0  0
 17 21  1  0  0  0  0
 18 20  1  0  0  0  0
 18 17  2  0  0  0  0
 20 22  2  0  0  0  0
 21 19  2  0  0  0  0
 22 19  1  0  0  0  0
 23 17  1  0  0  0  0
 25 24  1  0  0  0  0
 26 25  1  0  0  0  0
 27 26  1  0  0  0  0
 28 30  2  0  0  0  0
 29 27  1  1  0  0  0
 29 33  1  0  0  0  0
 30 29  1  0  0  0  0
 31 32  1  0  0  0  0
 32 33  1  0  0  0  0
 34 30  1  0  0  0  0
 34 31  1  0  0  0  0
M  END
>  <MODEL>
6

>  <REMARK>
 VINA RESULT:      -7.4      4.257      7.494
  Name = 
  6 active torsions:
  status: ('A' for Active; 'I' for Inactive)
    1  A    between atoms: C_3  and  C_13
    2  A    between atoms: C_3  and  C_17
    3  A    between atoms: C_5  and  C_18
    4  A    between atoms: C_12  and  C_28
    5  A    between atoms: C_17  and  N_29
    6  A    between atoms: C_18  and  N_29
                            x       y       z     vdW  Elec       q    Type
                         _______ _______ _______ _____ _____    ______ ____

>  <TORSDO>
F 6

$$$$
=
 OpenBabel11062408023D

 34 38  0  0  1  0  0  0  0  0999 V2000
  160.8990  206.0940  152.3690 C   0  0  2  0  0  3  0  0  0  0  0  0
  161.3930  209.3740  153.5740 C   0  0  0  0  0  2  0  0  0  0  0  0
  161.7350  208.9580  151.1870 N   0  0  1  0  0  0  0  0  0  0  0  0
  162.2840  210.0360  148.9950 C   0  0  2  0  0  3  0  0  0  0  0  0
  160.4350  206.5790  154.6220 O   0  0  0  0  0  0  0  0  0  0  0  0
  160.9200  207.6710  155.3510 C   0  0  0  0  0  2  0  0  0  0  0  0
  161.8150  211.4120  151.0080 C   0  0  0  0  0  1  0  0  0  0  0  0
  160.7300  209.0370  152.2500 C   0  0  0  0  0  2  0  0  0  0  0  0
  161.4760  206.2280  153.7620 C   0  0  1  0  0  3  0  0  0  0  0  0
  161.5340  207.6550  150.5040 C   0  0  1  0  0  3  0  0  0  0  0  0
  161.2620  204.8560  153.1610 C   0  0  0  0  0  2  0  0  0  0  0  0
  160.4790  208.9930  154.7290 C   0  0  0  0  0  2  0  0  0  0  0  0
  162.0260  208.7280  148.2800 C   0  0  0  0  0  2  0  0  0  0  0  0
  162.3280  207.5570  149.1890 C   0  0  2  0  0  3  0  0  0  0  0  0
  161.4690  210.1050  150.2940 C   0  0  2  0  0  3  0  0  0  0  0  0
  161.9930  206.4930  151.4000 C   0  0  0  0  0  2  0  0  0  0  0  0
  161.1260  204.0340  148.3680 C   0  0  0  0  0  0  0  0  0  0  0  0
  161.4320  203.9580  147.0070 C   0  0  0  0  0  3  0  0  0  0  0  0
  162.0300  206.2870  148.4450 C   0  0  0  0  0  0  0  0  0  0  0  0
  162.0350  205.0430  146.3630 C   0  0  0  0  0  3  0  0  0  0  0  0
  161.4220  205.1960  149.0860 C   0  0  0  0  0  3  0  0  0  0  0  0
  162.3310  206.2060  147.0810 C   0  0  0  0  0  3  0  0  0  0  0  0
  160.5370  202.9860  148.9920 F   0  0  0  0  0  0  0  0  0  0  0  0
  161.9550  211.1950  148.0470 C   0  0  0  0  0  2  0  0  0  0  0  0
  163.0530  212.1490  147.9830 N   0  0  0  0  0  2  0  0  0  0  0  0
  162.5220  213.3730  147.4050 C   0  0  0  0  0  2  0  0  0  0  0  0
  161.3900  213.0430  146.4470 C   0  0  0  0  0  2  0  0  0  0  0  0
  159.6200  213.6890  148.8960 O   0  0  0  0  0  0  0  0  0  0  0  0
  160.2390  214.0300  146.6080 C   0  0  2  0  0  3  0  0  0  0  0  0
  159.2910  213.5770  147.6870 C   0  0  0  0  0  0  0  0  0  0  0  0
  157.4770  213.0450  146.0110 C   0  0  0  0  0  2  0  0  0  0  0  0
  158.5790  213.0720  144.9630 C   0  0  0  0  0  2  0  0  0  0  0  0
  159.5250  214.2280  145.2680 C   0  0  0  0  0  2  0  0  0  0  0  0
  158.0460  212.9550  147.3510 N   0  0  0  0  0  2  0  0  0  0  0  0
  1 16  1  6  0  0  0
  1 11  1  0  0  0  0
  1  9  1  0  0  0  0
  2 12  1  0  0  0  0
  3  8  1  1  0  0  0
  4 24  1  6  0  0  0
  4 15  1  0  0  0  0
  5  6  1  0  0  0  0
  8  2  1  0  0  0  0
  9 11  1  1  0  0  0
  9  5  1  0  0  0  0
 10  3  1  0  0  0  0
 10 16  1  1  0  0  0
 12  6  1  0  0  0  0
 13  4  1  0  0  0  0
 13 14  1  0  0  0  0
 14 19  1  6  0  0  0
 14 10  1  0  0  0  0
 15  7  1  1  0  0  0
 15  3  1  0  0  0  0
 17 23  1  0  0  0  0
 17 21  1  0  0  0  0
 18 17  2  0  0  0  0
 19 21  2  0  0  0  0
 20 18  1  0  0  0  0
 20 22  2  0  0  0  0
 22 19  1  0  0  0  0
 25 24  1  0  0  0  0
 26 25  1  0  0  0  0
 27 26  1  0  0  0  0
 29 27  1  6  0  0  0
 29 30  1  0  0  0  0
 30 28  2  0  0  0  0
 31 34  1  0  0  0  0
 32 33  1  0  0  0  0
 32 31  1  0  0  0  0
 33 29  1  0  0  0  0
 34 30  1  0  0  0  0
M  END
>  <MODEL>
7

>  <REMARK>
 VINA RESULT:      -7.4      3.940      7.744
  Name = 
  6 active torsions:
  status: ('A' for Active; 'I' for Inactive)
    1  A    between atoms: C_3  and  C_13
    2  A    between atoms: C_3  and  C_17
    3  A    between atoms: C_5  and  C_18
    4  A    between atoms: C_12  and  C_28
    5  A    between atoms: C_17  and  N_29
    6  A    between atoms: C_18  and  N_29
                            x       y       z     vdW  Elec       q    Type
                         _______ _______ _______ _____ _____    ______ ____

>  <TORSDO>
F 6

$$$$
=
 OpenBabel11062408023D

 34 38  0  0  1  0  0  0  0  0999 V2000
  161.2160  204.1400  151.6260 C   0  0  2  0  0  3  0  0  0  0  0  0
  161.1630  204.3900  148.1060 C   0  0  0  0  0  2  0  0  0  0  0  0
  161.3090  206.4570  149.4080 N   0  0  1  0  0  0  0  0  0  0  0  0
  161.5320  208.9450  149.2500 C   0  0  2  0  0  3  0  0  0  0  0  0
  161.2320  202.1790  150.3290 O   0  0  0  0  0  0  0  0  0  0  0  0
  160.8330  202.0680  148.9920 C   0  0  0  0  0  2  0  0  0  0  0  0
  161.7990  207.5130  147.2380 C   0  0  0  0  0  1  0  0  0  0  0  0
  162.0310  205.2440  149.0140 C   0  0  0  0  0  2  0  0  0  0  0  0
  160.3710  203.1270  150.8840 C   0  0  1  0  0  3  0  0  0  0  0  0
  161.3830  206.5370  150.8880 C   0  0  1  0  0  3  0  0  0  0  0  0
  160.4230  203.1060  152.3960 C   0  0  0  0  0  2  0  0  0  0  0  0
  161.6790  202.9580  148.0850 C   0  0  0  0  0  2  0  0  0  0  0  0
  161.6660  209.0350  150.7540 C   0  0  0  0  0  2  0  0  0  0  0  0
  160.9170  207.9030  151.4220 C   0  0  2  0  0  3  0  0  0  0  0  0
  162.0160  207.5770  148.7510 C   0  0  2  0  0  3  0  0  0  0  0  0
  160.4900  205.4670  151.5380 C   0  0  0  0  0  2  0  0  0  0  0  0
  161.5080  209.3530  154.8980 C   0  0  0  0  0  0  0  0  0  0  0  0
  161.3840  208.2070  155.6890 C   0  0  0  0  0  3  0  0  0  0  0  0
  161.1040  208.0210  152.9070 C   0  0  0  0  0  0  0  0  0  0  0  0
  161.1190  206.9710  155.0930 C   0  0  0  0  0  3  0  0  0  0  0  0
  161.3670  209.2610  153.5100 C   0  0  0  0  0  3  0  0  0  0  0  0
  160.9770  206.8780  153.7060 C   0  0  0  0  0  3  0  0  0  0  0  0
  161.7600  210.5520  155.4730 F   0  0  0  0  0  0  0  0  0  0  0  0
  162.3130  210.0990  148.6110 C   0  0  0  0  0  2  0  0  0  0  0  0
  162.0640  211.3520  149.3090 N   0  0  0  0  0  2  0  0  0  0  0  0
  162.0420  212.4050  148.3060 C   0  0  0  0  0  2  0  0  0  0  0  0
  160.9330  212.1380  147.3030 C   0  0  0  0  0  2  0  0  0  0  0  0
  159.0280  213.4970  149.3210 O   0  0  0  0  0  0  0  0  0  0  0  0
  160.0340  213.3600  147.1510 C   0  0  2  0  0  3  0  0  0  0  0  0
  158.8600  213.2810  148.0930 C   0  0  0  0  0  0  0  0  0  0  0  0
  157.2340  212.9080  146.1960 C   0  0  0  0  0  2  0  0  0  0  0  0
  158.4510  212.5460  145.3590 C   0  0  0  0  0  2  0  0  0  0  0  0
  159.5870  213.5070  145.6940 C   0  0  0  0  0  2  0  0  0  0  0  0
  157.5660  212.8960  147.6160 N   0  0  0  0  0  2  0  0  0  0  0  0
  1 16  1  1  0  0  0
  1 11  1  0  0  0  0
  2  8  1  0  0  0  0
  3  8  1  6  0  0  0
  3 10  1  0  0  0  0
  4 24  1  6  0  0  0
  4 13  1  0  0  0  0
  5  9  1  0  0  0  0
  6  5  1  0  0  0  0
  9  1  1  0  0  0  0
  9 11  1  1  0  0  0
 10 14  1  0  0  0  0
 10 16  1  1  0  0  0
 12  2  1  0  0  0  0
 12  6  1  0  0  0  0
 13 14  1  0  0  0  0
 14 19  1  1  0  0  0
 15  7  1  6  0  0  0
 15  4  1  0  0  0  0
 15  3  1  0  0  0  0
 17 23  1  0  0  0  0
 17 18  1  0  0  0  0
 19 21  1  0  0  0  0
 19 22  2  0  0  0  0
 20 18  2  0  0  0  0
 21 17  2  0  0  0  0
 22 20  1  0  0  0  0
 24 25  1  0  0  0  0
 26 25  1  0  0  0  0
 27 26  1  0  0  0  0
 29 27  1  6  0  0  0
 29 30  1  0  0  0  0
 30 28  2  0  0  0  0
 31 34  1  0  0  0  0
 32 33  1  0  0  0  0
 32 31  1  0  0  0  0
 33 29  1  0  0  0  0
 34 30  1  0  0  0  0
M  END
>  <MODEL>
8

>  <REMARK>
 VINA RESULT:      -7.2      3.473      6.310
  Name = 
  6 active torsions:
  status: ('A' for Active; 'I' for Inactive)
    1  A    between atoms: C_3  and  C_13
    2  A    between atoms: C_3  and  C_17
    3  A    between atoms: C_5  and  C_18
    4  A    between atoms: C_12  and  C_28
    5  A    between atoms: C_17  and  N_29
    6  A    between atoms: C_18  and  N_29
                            x       y       z     vdW  Elec       q    Type
                         _______ _______ _______ _____ _____    ______ ____

>  <TORSDO>
F 6

$$$$
=
 OpenBabel11062408023D

 34 38  0  0  1  0  0  0  0  0999 V2000
  161.1630  203.8730  151.4050 C   0  0  2  0  0  3  0  0  0  0  0  0
  161.2010  204.2270  147.8940 C   0  0  0  0  0  2  0  0  0  0  0  0
  161.3110  206.2540  149.2600 N   0  0  1  0  0  0  0  0  0  0  0  0
  161.5350  208.7470  149.1810 C   0  0  2  0  0  3  0  0  0  0  0  0
  161.2140  201.9510  150.0520 O   0  0  0  0  0  0  0  0  0  0  0  0
  160.8500  201.8800  148.7020 C   0  0  0  0  0  2  0  0  0  0  0  0
  161.8550  207.3750  147.1360 C   0  0  0  0  0  1  0  0  0  0  0  0
  162.0430  205.0540  148.8490 C   0  0  0  0  0  2  0  0  0  0  0  0
  160.3380  202.8820  150.6120 C   0  0  1  0  0  3  0  0  0  0  0  0
  161.3460  206.2900  150.7430 C   0  0  1  0  0  3  0  0  0  0  0  0
  160.3520  202.8160  152.1240 C   0  0  0  0  0  2  0  0  0  0  0  0
  161.7180  202.7970  147.8440 C   0  0  0  0  0  2  0  0  0  0  0  0
  161.6300  208.7920  150.6900 C   0  0  0  0  0  2  0  0  0  0  0  0
  160.8650  207.6410  151.3060 C   0  0  2  0  0  3  0  0  0  0  0  0
  162.0330  207.3940  148.6540 C   0  0  2  0  0  3  0  0  0  0  0  0
  160.4390  205.2020  151.3380 C   0  0  0  0  0  2  0  0  0  0  0  0
  161.0400  208.9820  154.8690 C   0  0  0  0  0  0  0  0  0  0  0  0
  161.2350  207.8000  155.5890 C   0  0  0  0  0  3  0  0  0  0  0  0
  161.0140  207.7140  152.7970 C   0  0  0  0  0  0  0  0  0  0  0  0
  161.3180  206.5770  154.9180 C   0  0  0  0  0  3  0  0  0  0  0  0
  160.9290  208.9400  153.4770 C   0  0  0  0  0  3  0  0  0  0  0  0
  161.2060  206.5340  153.5250 C   0  0  0  0  0  3  0  0  0  0  0  0
  160.9540  210.1670  155.5180 F   0  0  0  0  0  0  0  0  0  0  0  0
  162.3310  209.9200  148.5970 C   0  0  0  0  0  2  0  0  0  0  0  0
  162.1220  211.1340  149.3720 N   0  0  0  0  0  2  0  0  0  0  0  0
  162.0020  212.2310  148.4250 C   0  0  0  0  0  2  0  0  0  0  0  0
  161.0860  211.8280  147.2810 C   0  0  0  0  0  2  0  0  0  0  0  0
  158.7540  212.2170  145.2910 O   0  0  0  0  0  0  0  0  0  0  0  0
  160.6710  213.0460  146.4640 C   0  0  2  0  0  3  0  0  0  0  0  0
  159.9410  212.6300  145.2140 C   0  0  0  0  0  0  0  0  0  0  0  0
  161.8570  213.3510  143.7330 C   0  0  0  0  0  2  0  0  0  0  0  0
  162.7060  213.3280  144.9950 C   0  0  0  0  0  2  0  0  0  0  0  0
  161.8960  213.9100  146.1480 C   0  0  0  0  0  2  0  0  0  0  0  0
  160.6040  212.6330  143.9450 N   0  0  0  0  0  2  0  0  0  0  0  0
  1 16  1  1  0  0  0
  1 11  1  0  0  0  0
  2  8  1  0  0  0  0
  3  8  1  6  0  0  0
  3 10  1  0  0  0  0
  4 24  1  6  0  0  0
  4 13  1  0  0  0  0
  5  9  1  0  0  0  0
  6  5  1  0  0  0  0
  9  1  1  0  0  0  0
  9 11  1  1  0  0  0
 10 14  1  0  0  0  0
 10 16  1  1  0  0  0
 12  2  1  0  0  0  0
 12  6  1  0  0  0  0
 13 14  1  0  0  0  0
 14 19  1  1  0  0  0
 15  7  1  6  0  0  0
 15  4  1  0  0  0  0
 15  3  1  0  0  0  0
 17 23  1  0  0  0  0
 17 18  1  0  0  0  0
 19 21  1  0  0  0  0
 19 22  2  0  0  0  0
 20 18  2  0  0  0  0
 21 17  2  0  0  0  0
 22 20  1  0  0  0  0
 24 25  1  0  0  0  0
 26 25  1  0  0  0  0
 27 26  1  0  0  0  0
 29 27  1  6  0  0  0
 30 28  2  0  0  0  0
 30 29  1  0  0  0  0
 31 34  1  0  0  0  0
 31 32  1  0  0  0  0
 32 33  1  0  0  0  0
 33 29  1  0  0  0  0
 34 30  1  0  0  0  0
M  END
>  <MODEL>
9

>  <REMARK>
 VINA RESULT:      -7.2      3.447      6.836
  Name = 
  6 active torsions:
  status: ('A' for Active; 'I' for Inactive)
    1  A    between atoms: C_3  and  C_13
    2  A    between atoms: C_3  and  C_17
    3  A    between atoms: C_5  and  C_18
    4  A    between atoms: C_12  and  C_28
    5  A    between atoms: C_17  and  N_29
    6  A    between atoms: C_18  and  N_29
                            x       y       z     vdW  Elec       q    Type
                         _______ _______ _______ _____ _____    ______ ____

>  <TORSDO>
F 6

$$$$
