=
 OpenBabel11052423133D

 27 30  0  0  1  0  0  0  0  0999 V2000
  162.9310  206.2960  151.8200 C   0  0  0  0  0  2  0  0  0  0  0  0
  161.9970  208.6420  151.5380 C   0  0  0  0  0  0  0  0  0  0  0  0
  161.5430  207.2440  153.5670 C   0  0  0  0  0  2  0  0  0  0  0  0
  159.6240  211.5090  152.9770 N   0  0  0  0  0  0  0  0  0  0  0  0
  157.6320  211.2940  154.4610 C   0  0  0  0  0  1  0  0  0  0  0  0
  162.1200  209.8580  150.9800 C   0  0  0  0  0  3  0  0  0  0  0  0
  159.5970  209.6410  154.4090 C   0  0  2  0  0  3  0  0  0  0  0  0
  159.9490  209.6360  155.8850 C   0  0  0  0  0  1  0  0  0  0  0  0
  160.8800  209.6420  153.5750 C   0  0  2  0  0  3  0  0  0  0  0  0
  162.6570  207.4720  150.8670 C   0  0  2  0  0  3  0  0  0  0  0  0
  158.9700  210.9050  154.0490 N   0  0  0  0  0  0  0  0  0  0  0  0
  160.6820  210.8340  152.7080 C   0  0  0  0  0  0  0  0  0  0  0  0
  161.8650  206.0370  152.7980 N   0  0  0  0  0  0  0  0  0  0  0  0
  161.0380  208.3970  152.6950 C   0  0  1  0  0  3  0  0  0  0  0  0
  161.4150  210.9930  151.4980 N   0  0  0  0  0  2  0  0  0  0  0  0
  160.7960  206.1890  147.1970 C   0  0  0  0  0  3  0  0  0  0  0  0
  161.9820  207.0350  149.5940 C   0  0  0  0  0  0  0  0  0  0  0  0
  160.6140  206.7160  149.5530 C   0  0  0  0  0  3  0  0  0  0  0  0
  160.0240  206.2970  148.3580 C   0  0  0  0  0  3  0  0  0  0  0  0
  162.1590  206.5000  147.2330 C   0  0  0  0  0  3  0  0  0  0  0  0
  162.7490  206.9200  148.4290 C   0  0  0  0  0  3  0  0  0  0  0  0
  160.6770  205.4930  152.1460 C   0  0  0  0  0  2  0  0  0  0  0  0
  160.7150  203.9720  152.1440 C   0  0  0  0  0  2  0  0  0  0  0  0
  161.4720  203.4350  150.9380 C   0  0  0  0  0  2  0  0  0  0  0  0
  160.5490  202.6880  149.9900 C   0  0  1  0  0  3  0  0  0  0  0  0
  161.0700  202.8260  148.5750 C   0  0  0  0  0  1  0  0  0  0  0  0
  160.5130  201.3370  150.3340 O   0  0  0  0  0  1  0  0  0  0  0  0
  1 13  1  0  0  0  0
  2 14  1  0  0  0  0
  4 11  1  0  0  0  0
  6 15  1  0  0  0  0
  6  2  2  0  0  0  0
  7  8  1  1  0  0  0
  9 12  1  6  0  0  0
  9  7  1  0  0  0  0
 10 17  1  6  0  0  0
 10  2  1  0  0  0  0
 10  1  1  0  0  0  0
 11  7  1  0  0  0  0
 11  5  1  0  0  0  0
 12  4  2  0  0  0  0
 13  3  1  0  0  0  0
 14  3  1  1  0  0  0
 14  9  1  0  0  0  0
 15 12  1  0  0  0  0
 16 20  2  0  0  0  0
 16 19  1  0  0  0  0
 18 17  1  0  0  0  0
 19 18  2  0  0  0  0
 20 21  1  0  0  0  0
 21 17  2  0  0  0  0
 22 13  1  0  0  0  0
 23 22  1  0  0  0  0
 24 23  1  0  0  0  0
 25 26  1  6  0  0  0
 25 27  1  0  0  0  0
 25 24  1  0  0  0  0
M  END
>  <MODEL>
1

>  <REMARK>
 VINA RESULT:      -7.2      0.000      0.000
  Name = 
  5 active torsions:
  status: ('A' for Active; 'I' for Inactive)
    1  A    between atoms: C_9  and  C_15
    2  A    between atoms: C_10  and  C_13
    3  A    between atoms: C_10  and  C_20
    4  A    between atoms: N_18  and  C_26
    5  A    between atoms: C_20  and  C_26
                            x       y       z     vdW  Elec       q    Type
                         _______ _______ _______ _____ _____    ______ ____

>  <TORSDO>
F 5

$$$$
=
 OpenBabel11052423133D

 27 30  0  0  1  0  0  0  0  0999 V2000
  160.0330  212.4500  154.5220 C   0  0  0  0  0  2  0  0  0  0  0  0
  160.1740  209.9440  154.9190 C   0  0  0  0  0  0  0  0  0  0  0  0
  160.8060  211.0020  152.7380 C   0  0  0  0  0  2  0  0  0  0  0  0
  160.8770  206.3320  153.3750 N   0  0  0  0  0  0  0  0  0  0  0  0
  160.6620  205.5720  151.0110 C   0  0  0  0  0  1  0  0  0  0  0  0
  160.3160  208.9350  155.7960 C   0  0  0  0  0  3  0  0  0  0  0  0
  161.1620  207.9870  151.7260 C   0  0  2  0  0  3  0  0  0  0  0  0
  162.4130  208.2300  150.9040 C   0  0  0  0  0  1  0  0  0  0  0  0
  161.3340  208.6010  153.1180 C   0  0  2  0  0  3  0  0  0  0  0  0
  159.6440  211.2590  155.4150 C   0  0  2  0  0  3  0  0  0  0  0  0
  161.0160  206.5660  152.0090 N   0  0  0  0  0  0  0  0  0  0  0  0
  161.0570  207.4380  154.0020 C   0  0  0  0  0  0  0  0  0  0  0  0
  159.9920  212.1740  153.0800 N   0  0  0  0  0  0  0  0  0  0  0  0
  160.3290  209.7180  153.4210 C   0  0  1  0  0  3  0  0  0  0  0  0
  160.6970  207.6220  155.3670 N   0  0  0  0  0  2  0  0  0  0  0  0
  155.4470  211.2830  156.3980 C   0  0  0  0  0  3  0  0  0  0  0  0
  158.1750  211.2420  155.7440 C   0  0  0  0  0  0  0  0  0  0  0  0
  157.2330  210.6300  154.9000 C   0  0  0  0  0  3  0  0  0  0  0  0
  155.8750  210.6480  155.2280 C   0  0  0  0  0  3  0  0  0  0  0  0
  156.3790  211.8990  157.2390 C   0  0  0  0  0  3  0  0  0  0  0  0
  157.7380  211.8790  156.9120 C   0  0  0  0  0  3  0  0  0  0  0  0
  158.6170  212.0160  152.6140 C   0  0  0  0  0  2  0  0  0  0  0  0
  158.2560  213.1150  151.6260 C   0  0  0  0  0  2  0  0  0  0  0  0
  157.5300  214.2640  152.3120 C   0  0  0  0  0  2  0  0  0  0  0  0
  156.4590  213.7580  153.2620 C   0  0  1  0  0  3  0  0  0  0  0  0
  156.6110  214.4520  154.5990 C   0  0  0  0  0  1  0  0  0  0  0  0
  155.1960  214.0390  152.7430 O   0  0  0  0  0  1  0  0  0  0  0  0
  1 10  1  0  0  0  0
  2 10  1  0  0  0  0
  2  6  2  0  0  0  0
  3 13  1  0  0  0  0
  4 12  2  0  0  0  0
  5 11  1  0  0  0  0
  7  8  1  6  0  0  0
  7 11  1  0  0  0  0
  7  9  1  0  0  0  0
  9 14  1  0  0  0  0
  9 12  1  1  0  0  0
 10 17  1  6  0  0  0
 11  4  1  0  0  0  0
 12 15  1  0  0  0  0
 13  1  1  0  0  0  0
 14  3  1  6  0  0  0
 14  2  1  0  0  0  0
 15  6  1  0  0  0  0
 16 20  1  0  0  0  0
 17 21  1  0  0  0  0
 18 19  1  0  0  0  0
 18 17  2  0  0  0  0
 19 16  2  0  0  0  0
 21 20  2  0  0  0  0
 22 13  1  0  0  0  0
 23 24  1  0  0  0  0
 23 22  1  0  0  0  0
 24 25  1  0  0  0  0
 25 26  1  1  0  0  0
 27 25  1  0  0  0  0
M  END
>  <MODEL>
2

>  <REMARK>
 VINA RESULT:      -5.7      3.370      8.250
  Name = 
  5 active torsions:
  status: ('A' for Active; 'I' for Inactive)
    1  A    between atoms: C_9  and  C_15
    2  A    between atoms: C_10  and  C_13
    3  A    between atoms: C_10  and  C_20
    4  A    between atoms: N_18  and  C_26
    5  A    between atoms: C_20  and  C_26
                            x       y       z     vdW  Elec       q    Type
                         _______ _______ _______ _____ _____    ______ ____

>  <TORSDO>
F 5

$$$$
=
 OpenBabel11052423133D

 27 30  0  0  1  0  0  0  0  0999 V2000
  159.6490  212.7910  154.6390 C   0  0  0  0  0  2  0  0  0  0  0  0
  159.9460  210.2980  155.0310 C   0  0  0  0  0  0  0  0  0  0  0  0
  160.5310  211.4010  152.8600 C   0  0  0  0  0  2  0  0  0  0  0  0
  160.8960  206.7430  153.4870 N   0  0  0  0  0  0  0  0  0  0  0  0
  160.7540  205.9770  151.1190 C   0  0  0  0  0  1  0  0  0  0  0  0
  160.1440  209.2970  155.9070 C   0  0  0  0  0  3  0  0  0  0  0  0
  161.0900  208.4170  151.8450 C   0  0  2  0  0  3  0  0  0  0  0  0
  162.3320  208.7430  151.0360 C   0  0  0  0  0  1  0  0  0  0  0  0
  161.2080  209.0370  153.2390 C   0  0  2  0  0  3  0  0  0  0  0  0
  159.3280  211.5740  155.5250 C   0  0  2  0  0  3  0  0  0  0  0  0
  161.0340  206.9890  152.1230 N   0  0  0  0  0  0  0  0  0  0  0  0
  160.9980  207.8560  154.1180 C   0  0  0  0  0  0  0  0  0  0  0  0
  159.6400  212.5170  153.1950 N   0  0  0  0  0  0  0  0  0  0  0  0
  160.1310  210.0860  153.5350 C   0  0  1  0  0  3  0  0  0  0  0  0
  160.6130  208.0130  155.4800 N   0  0  0  0  0  2  0  0  0  0  0  0
  155.1270  211.3290  156.4590 C   0  0  0  0  0  3  0  0  0  0  0  0
  157.8590  211.4620  155.8390 C   0  0  0  0  0  0  0  0  0  0  0  0
  156.9850  210.7100  155.0370 C   0  0  0  0  0  3  0  0  0  0  0  0
  155.6250  210.6420  155.3470 C   0  0  0  0  0  3  0  0  0  0  0  0
  155.9910  212.0840  157.2580 C   0  0  0  0  0  3  0  0  0  0  0  0
  157.3530  212.1510  156.9470 C   0  0  0  0  0  3  0  0  0  0  0  0
  158.2830  212.2720  152.7150 C   0  0  0  0  0  2  0  0  0  0  0  0
  157.4470  213.5400  152.8020 C   0  0  0  0  0  2  0  0  0  0  0  0
  157.5520  214.3650  151.5270 C   0  0  0  0  0  2  0  0  0  0  0  0
  157.6180  213.4790  150.2950 C   0  0  1  0  0  3  0  0  0  0  0  0
  156.3670  213.6830  149.4670 C   0  0  0  0  0  1  0  0  0  0  0  0
  158.7330  213.8180  149.5290 O   0  0  0  0  0  1  0  0  0  0  0  0
  1 10  1  0  0  0  0
  2 10  1  0  0  0  0
  2  6  2  0  0  0  0
  3 13  1  0  0  0  0
  4 12  2  0  0  0  0
  5 11  1  0  0  0  0
  7  8  1  6  0  0  0
  7 11  1  0  0  0  0
  7  9  1  0  0  0  0
  9 14  1  0  0  0  0
  9 12  1  1  0  0  0
 10 17  1  6  0  0  0
 11  4  1  0  0  0  0
 12 15  1  0  0  0  0
 13  1  1  0  0  0  0
 14  3  1  6  0  0  0
 14  2  1  0  0  0  0
 15  6  1  0  0  0  0
 16 20  1  0  0  0  0
 17 21  1  0  0  0  0
 18 19  1  0  0  0  0
 18 17  2  0  0  0  0
 19 16  2  0  0  0  0
 21 20  2  0  0  0  0
 22 23  1  0  0  0  0
 22 13  1  0  0  0  0
 24 23  1  0  0  0  0
 25 26  1  6  0  0  0
 25 24  1  0  0  0  0
 27 25  1  0  0  0  0
M  END
>  <MODEL>
3

>  <REMARK>
 VINA RESULT:      -5.5      3.417      8.127
  Name = 
  5 active torsions:
  status: ('A' for Active; 'I' for Inactive)
    1  A    between atoms: C_9  and  C_15
    2  A    between atoms: C_10  and  C_13
    3  A    between atoms: C_10  and  C_20
    4  A    between atoms: N_18  and  C_26
    5  A    between atoms: C_20  and  C_26
                            x       y       z     vdW  Elec       q    Type
                         _______ _______ _______ _____ _____    ______ ____

>  <TORSDO>
F 5

$$$$
=
 OpenBabel11052423133D

 27 30  0  0  1  0  0  0  0  0999 V2000
  160.4660  212.0780  154.6120 C   0  0  0  0  0  2  0  0  0  0  0  0
  160.2870  209.5570  154.8770 C   0  0  0  0  0  0  0  0  0  0  0  0
  161.1770  210.6350  152.7980 C   0  0  0  0  0  2  0  0  0  0  0  0
  160.6600  205.9640  153.1800 N   0  0  0  0  0  0  0  0  0  0  0  0
  160.5090  205.3490  150.7690 C   0  0  0  0  0  1  0  0  0  0  0  0
  160.2540  208.4970  155.7030 C   0  0  0  0  0  3  0  0  0  0  0  0
  161.2420  207.6500  151.6440 C   0  0  2  0  0  3  0  0  0  0  0  0
  162.5630  207.7800  150.9110 C   0  0  0  0  0  1  0  0  0  0  0  0
  161.3950  208.1720  153.0750 C   0  0  2  0  0  3  0  0  0  0  0  0
  159.8840  210.9000  155.4130 C   0  0  2  0  0  3  0  0  0  0  0  0
  160.9130  206.2450  151.8390 N   0  0  0  0  0  0  0  0  0  0  0  0
  160.9280  207.0100  153.8760 C   0  0  0  0  0  0  0  0  0  0  0  0
  160.4850  211.8780  153.1560 N   0  0  0  0  0  0  0  0  0  0  0  0
  160.5110  209.3860  153.3810 C   0  0  1  0  0  3  0  0  0  0  0  0
  160.5050  207.1700  155.2260 N   0  0  0  0  0  2  0  0  0  0  0  0
  155.6650  211.3830  156.1500 C   0  0  0  0  0  3  0  0  0  0  0  0
  158.4050  211.0450  155.6560 C   0  0  0  0  0  0  0  0  0  0  0  0
  157.4530  210.5720  154.7360 C   0  0  0  0  0  3  0  0  0  0  0  0
  156.0890  210.7390  154.9840 C   0  0  0  0  0  3  0  0  0  0  0  0
  156.6060  211.8600  157.0670 C   0  0  0  0  0  3  0  0  0  0  0  0
  157.9720  211.6920  156.8190 C   0  0  0  0  0  3  0  0  0  0  0  0
  159.1340  211.9090  152.6040 C   0  0  0  0  0  2  0  0  0  0  0  0
  158.8430  213.2620  151.9730 C   0  0  0  0  0  2  0  0  0  0  0  0
  157.4790  213.2820  151.2990 C   0  0  0  0  0  2  0  0  0  0  0  0
  157.5560  213.8790  149.9050 C   0  0  1  0  0  3  0  0  0  0  0  0
  158.9940  214.2380  149.5960 C   0  0  0  0  0  1  0  0  0  0  0  0
  157.1060  212.9490  148.9680 O   0  0  0  0  0  1  0  0  0  0  0  0
  1 10  1  0  0  0  0
  2 10  1  0  0  0  0
  2  6  2  0  0  0  0
  3 13  1  0  0  0  0
  4 12  2  0  0  0  0
  5 11  1  0  0  0  0
  7  8  1  6  0  0  0
  7 11  1  0  0  0  0
  7  9  1  0  0  0  0
  9 14  1  0  0  0  0
  9 12  1  1  0  0  0
 10 17  1  6  0  0  0
 11  4  1  0  0  0  0
 12 15  1  0  0  0  0
 13  1  1  0  0  0  0
 14  3  1  1  0  0  0
 14  2  1  0  0  0  0
 15  6  1  0  0  0  0
 16 20  1  0  0  0  0
 17 21  1  0  0  0  0
 18 19  1  0  0  0  0
 18 17  2  0  0  0  0
 19 16  2  0  0  0  0
 21 20  2  0  0  0  0
 22 13  1  0  0  0  0
 23 22  1  0  0  0  0
 24 23  1  0  0  0  0
 25 26  1  6  0  0  0
 25 24  1  0  0  0  0
 27 25  1  0  0  0  0
M  END
>  <MODEL>
4

>  <REMARK>
 VINA RESULT:      -4.9      3.224      7.850
  Name = 
  5 active torsions:
  status: ('A' for Active; 'I' for Inactive)
    1  A    between atoms: C_9  and  C_15
    2  A    between atoms: C_10  and  C_13
    3  A    between atoms: C_10  and  C_20
    4  A    between atoms: N_18  and  C_26
    5  A    between atoms: C_20  and  C_26
                            x       y       z     vdW  Elec       q    Type
                         _______ _______ _______ _____ _____    ______ ____

>  <TORSDO>
F 5

$$$$
=
 OpenBabel11052423133D

 27 30  0  0  1  0  0  0  0  0999 V2000
  162.8790  205.8430  150.4290 C   0  0  0  0  0  2  0  0  0  0  0  0
  162.2660  208.2810  150.0640 C   0  0  0  0  0  0  0  0  0  0  0  0
  161.6430  207.0320  152.1430 C   0  0  0  0  0  2  0  0  0  0  0  0
  160.3110  211.4930  151.4020 N   0  0  0  0  0  0  0  0  0  0  0  0
  158.3200  211.6010  152.8980 C   0  0  0  0  0  1  0  0  0  0  0  0
  162.5480  209.4490  149.4600 C   0  0  0  0  0  3  0  0  0  0  0  0
  160.0440  209.6980  152.9020 C   0  0  2  0  0  3  0  0  0  0  0  0
  160.4040  209.6980  154.3760 C   0  0  0  0  0  1  0  0  0  0  0  0
  161.3100  209.4950  152.0650 C   0  0  2  0  0  3  0  0  0  0  0  0
  162.7570  207.0100  149.4340 C   0  0  2  0  0  3  0  0  0  0  0  0
  159.5900  211.0210  152.4970 N   0  0  0  0  0  0  0  0  0  0  0  0
  161.2670  210.6710  151.1550 C   0  0  0  0  0  0  0  0  0  0  0  0
  161.7940  205.7650  151.4180 N   0  0  0  0  0  0  0  0  0  0  0  0
  161.2920  208.2100  151.2310 C   0  0  1  0  0  3  0  0  0  0  0  0
  162.0060  210.6870  149.9380 N   0  0  0  0  0  2  0  0  0  0  0  0
  160.6940  205.8330  145.8380 C   0  0  0  0  0  3  0  0  0  0  0  0
  162.0200  206.6220  148.1800 C   0  0  0  0  0  0  0  0  0  0  0  0
  160.6790  206.9830  147.9670 C   0  0  0  0  0  3  0  0  0  0  0  0
  160.0200  206.5910  146.7990 C   0  0  0  0  0  3  0  0  0  0  0  0
  162.0270  205.4660  146.0460 C   0  0  0  0  0  3  0  0  0  0  0  0
  162.6870  205.8590  147.2140 C   0  0  0  0  0  3  0  0  0  0  0  0
  160.5390  205.3630  150.7900 C   0  0  0  0  0  2  0  0  0  0  0  0
  160.7800  204.2630  149.7670 C   0  0  0  0  0  2  0  0  0  0  0  0
  160.3770  202.8990  150.3100 C   0  0  0  0  0  2  0  0  0  0  0  0
  160.3980  201.8390  149.2220 C   0  0  1  0  0  3  0  0  0  0  0  0
  160.8470  202.4710  147.9210 C   0  0  0  0  0  1  0  0  0  0  0  0
  161.2900  200.8240  149.5680 O   0  0  0  0  0  1  0  0  0  0  0  0
  1 13  1  0  0  0  0
  2 14  1  0  0  0  0
  4 11  1  0  0  0  0
  6 15  1  0  0  0  0
  6  2  2  0  0  0  0
  7  8  1  1  0  0  0
  9 12  1  6  0  0  0
  9  7  1  0  0  0  0
 10 17  1  6  0  0  0
 10  2  1  0  0  0  0
 10  1  1  0  0  0  0
 11  5  1  0  0  0  0
 11  7  1  0  0  0  0
 12  4  2  0  0  0  0
 13  3  1  0  0  0  0
 14  9  1  0  0  0  0
 14  3  1  1  0  0  0
 15 12  1  0  0  0  0
 16 20  2  0  0  0  0
 16 19  1  0  0  0  0
 18 17  1  0  0  0  0
 19 18  2  0  0  0  0
 20 21  1  0  0  0  0
 21 17  2  0  0  0  0
 22 13  1  0  0  0  0
 23 24  1  0  0  0  0
 23 22  1  0  0  0  0
 25 26  1  6  0  0  0
 25 27  1  0  0  0  0
 25 24  1  0  0  0  0
M  END
>  <MODEL>
5

>  <REMARK>
 VINA RESULT:      -4.6      1.238      1.550
  Name = 
  5 active torsions:
  status: ('A' for Active; 'I' for Inactive)
    1  A    between atoms: C_9  and  C_15
    2  A    between atoms: C_10  and  C_13
    3  A    between atoms: C_10  and  C_20
    4  A    between atoms: N_18  and  C_26
    5  A    between atoms: C_20  and  C_26
                            x       y       z     vdW  Elec       q    Type
                         _______ _______ _______ _____ _____    ______ ____

>  <TORSDO>
F 5

$$$$
=
 OpenBabel11052423133D

 27 30  0  0  1  0  0  0  0  0999 V2000
  162.5420  209.8820  152.7060 C   0  0  0  0  0  2  0  0  0  0  0  0
  161.4690  211.1720  150.7980 C   0  0  0  0  0  0  0  0  0  0  0  0
  160.7760  211.4720  153.1870 C   0  0  0  0  0  2  0  0  0  0  0  0
  158.6230  213.7230  149.6480 N   0  0  0  0  0  0  0  0  0  0  0  0
  156.4200  214.1940  150.7150 C   0  0  0  0  0  1  0  0  0  0  0  0
  161.5830  211.6780  149.5580 C   0  0  0  0  0  3  0  0  0  0  0  0
  158.5010  213.3670  151.9720 C   0  0  2  0  0  3  0  0  0  0  0  0
  158.5750  214.4330  153.0490 C   0  0  0  0  0  1  0  0  0  0  0  0
  159.9110  213.0480  151.4680 C   0  0  2  0  0  3  0  0  0  0  0  0
  162.3430  210.0140  151.1860 C   0  0  2  0  0  3  0  0  0  0  0  0
  157.8400  213.8970  150.7870 N   0  0  0  0  0  0  0  0  0  0  0  0
  159.7690  213.2660  150.0030 C   0  0  0  0  0  0  0  0  0  0  0  0
  161.3410  210.1560  153.5080 N   0  0  0  0  0  0  0  0  0  0  0  0
  160.3390  211.5990  151.7250 C   0  0  1  0  0  3  0  0  0  0  0  0
  160.6950  212.6980  149.0830 N   0  0  0  0  0  2  0  0  0  0  0  0
  161.2800  206.3020  149.2710 C   0  0  0  0  0  3  0  0  0  0  0  0
  161.9560  208.7100  150.5400 C   0  0  0  0  0  0  0  0  0  0  0  0
  161.6730  207.5630  151.3000 C   0  0  0  0  0  3  0  0  0  0  0  0
  161.3340  206.3640  150.6670 C   0  0  0  0  0  3  0  0  0  0  0  0
  161.5660  207.4400  148.5100 C   0  0  0  0  0  3  0  0  0  0  0  0
  161.9040  208.6390  149.1430 C   0  0  0  0  0  3  0  0  0  0  0  0
  160.3470  209.0990  153.3430 C   0  0  0  0  0  2  0  0  0  0  0  0
  160.3150  208.1980  154.5680 C   0  0  0  0  0  2  0  0  0  0  0  0
  160.0170  208.9880  155.8340 C   0  0  0  0  0  2  0  0  0  0  0  0
  160.7510  208.4150  157.0340 C   0  0  1  0  0  3  0  0  0  0  0  0
  160.3870  206.9530  157.1880 C   0  0  0  0  0  1  0  0  0  0  0  0
  162.1280  208.5240  156.8410 O   0  0  0  0  0  1  0  0  0  0  0  0
  1 13  1  0  0  0  0
  2 10  1  0  0  0  0
  2 14  1  0  0  0  0
  3 13  1  0  0  0  0
  4 12  2  0  0  0  0
  4 11  1  0  0  0  0
  5 11  1  0  0  0  0
  6  2  2  0  0  0  0
  7  8  1  1  0  0  0
  9 12  1  6  0  0  0
  9 14  1  0  0  0  0
  9  7  1  0  0  0  0
 10 17  1  1  0  0  0
 10  1  1  0  0  0  0
 11  7  1  0  0  0  0
 14  3  1  1  0  0  0
 15  6  1  0  0  0  0
 15 12  1  0  0  0  0
 16 19  1  0  0  0  0
 17 18  1  0  0  0  0
 19 18  2  0  0  0  0
 20 21  1  0  0  0  0
 20 16  2  0  0  0  0
 21 17  2  0  0  0  0
 22 13  1  0  0  0  0
 22 23  1  0  0  0  0
 23 24  1  0  0  0  0
 24 25  1  0  0  0  0
 25 26  1  6  0  0  0
 27 25  1  0  0  0  0
M  END
>  <MODEL>
6

>  <REMARK>
 VINA RESULT:      -4.6      3.036      4.833
  Name = 
  5 active torsions:
  status: ('A' for Active; 'I' for Inactive)
    1  A    between atoms: C_9  and  C_15
    2  A    between atoms: C_10  and  C_13
    3  A    between atoms: C_10  and  C_20
    4  A    between atoms: N_18  and  C_26
    5  A    between atoms: C_20  and  C_26
                            x       y       z     vdW  Elec       q    Type
                         _______ _______ _______ _____ _____    ______ ____

>  <TORSDO>
F 5

$$$$
=
 OpenBabel11052423133D

 27 30  0  0  1  0  0  0  0  0999 V2000
  162.7200  212.1480  148.3850 C   0  0  0  0  0  2  0  0  0  0  0  0
  160.7990  213.2370  149.6410 C   0  0  0  0  0  0  0  0  0  0  0  0
  161.9850  211.2020  150.4930 C   0  0  0  0  0  2  0  0  0  0  0  0
  158.2870  213.0760  152.7390 N   0  0  0  0  0  0  0  0  0  0  0  0
  157.5050  211.0840  154.0160 C   0  0  0  0  0  1  0  0  0  0  0  0
  160.0890  214.3500  149.8960 C   0  0  0  0  0  3  0  0  0  0  0  0
  159.7560  211.2370  152.7900 C   0  0  2  0  0  3  0  0  0  0  0  0
  160.6820  210.8580  153.9300 C   0  0  0  0  0  1  0  0  0  0  0  0
  160.3770  212.3800  151.9820 C   0  0  2  0  0  3  0  0  0  0  0  0
  161.5480  213.1430  148.3430 C   0  0  2  0  0  3  0  0  0  0  0  0
  158.5330  211.8300  153.3130 N   0  0  0  0  0  0  0  0  0  0  0  0
  159.2950  213.3990  152.0110 C   0  0  0  0  0  0  0  0  0  0  0  0
  162.4480  210.9110  149.1320 N   0  0  0  0  0  0  0  0  0  0  0  0
  160.6820  212.0050  150.5280 C   0  0  1  0  0  3  0  0  0  0  0  0
  159.2530  214.4530  151.0550 N   0  0  0  0  0  2  0  0  0  0  0  0
  159.0860  212.5320  144.8590 C   0  0  0  0  0  3  0  0  0  0  0  0
  160.6660  212.9430  147.1390 C   0  0  0  0  0  0  0  0  0  0  0  0
  159.2720  212.8080  147.2560 C   0  0  0  0  0  3  0  0  0  0  0  0
  158.4860  212.6060  146.1200 C   0  0  0  0  0  3  0  0  0  0  0  0
  160.4730  212.6610  144.7370 C   0  0  0  0  0  3  0  0  0  0  0  0
  161.2600  212.8640  145.8740 C   0  0  0  0  0  3  0  0  0  0  0  0
  161.4940  210.0670  148.4180 C   0  0  0  0  0  2  0  0  0  0  0  0
  162.0060  208.6370  148.3280 C   0  0  0  0  0  2  0  0  0  0  0  0
  161.2080  207.7020  149.2250 C   0  0  0  0  0  2  0  0  0  0  0  0
  160.8350  206.4200  148.5000 C   0  0  1  0  0  3  0  0  0  0  0  0
  161.8290  206.1720  147.3850 C   0  0  0  0  0  1  0  0  0  0  0  0
  160.8700  205.3470  149.3900 O   0  0  0  0  0  1  0  0  0  0  0  0
  1 13  1  0  0  0  0
  2  6  2  0  0  0  0
  2 14  1  0  0  0  0
  4 11  1  0  0  0  0
  6 15  1  0  0  0  0
  7 11  1  0  0  0  0
  7  8  1  1  0  0  0
  9 12  1  6  0  0  0
  9  7  1  0  0  0  0
 10 17  1  6  0  0  0
 10  1  1  0  0  0  0
 10  2  1  0  0  0  0
 11  5  1  0  0  0  0
 12  4  2  0  0  0  0
 13  3  1  0  0  0  0
 14  3  1  1  0  0  0
 14  9  1  0  0  0  0
 15 12  1  0  0  0  0
 16 19  1  0  0  0  0
 17 18  1  0  0  0  0
 19 18  2  0  0  0  0
 20 16  2  0  0  0  0
 20 21  1  0  0  0  0
 21 17  2  0  0  0  0
 22 13  1  0  0  0  0
 23 22  1  0  0  0  0
 23 24  1  0  0  0  0
 25 26  1  6  0  0  0
 25 24  1  0  0  0  0
 25 27  1  0  0  0  0
M  END
>  <MODEL>
7

>  <REMARK>
 VINA RESULT:      -4.2      3.734      5.042
  Name = 
  5 active torsions:
  status: ('A' for Active; 'I' for Inactive)
    1  A    between atoms: C_9  and  C_15
    2  A    between atoms: C_10  and  C_13
    3  A    between atoms: C_10  and  C_20
    4  A    between atoms: N_18  and  C_26
    5  A    between atoms: C_20  and  C_26
                            x       y       z     vdW  Elec       q    Type
                         _______ _______ _______ _____ _____    ______ ____

>  <TORSDO>
F 5

$$$$
