=
 OpenBabel11062408413D

 55 62  0  0  1  0  0  0  0  0999 V2000
  158.6120  212.5200  151.4230 C   0  0  0  0  0  2  0  0  0  0  0  0
  161.0430  210.0210  151.4460 C   0  0  0  0  0  2  0  0  0  0  0  0
  163.0920  210.0190  152.7170 C   0  0  0  0  0  2  0  0  0  0  0  0
  161.7030  208.2550  155.5080 C   0  0  0  0  0  3  0  0  0  0  0  0
  160.7550  207.2870  155.8940 C   0  0  0  0  0  3  0  0  0  0  0  0
  160.0060  209.9870  155.6510 C   0  0  0  0  0  0  0  0  0  0  0  0
  159.0750  209.0150  156.0620 C   0  0  0  0  0  3  0  0  0  0  0  0
  163.5020  210.3280  154.1640 C   0  0  0  0  0  2  0  0  0  0  0  0
  159.4560  207.6850  156.1930 C   0  0  0  0  0  3  0  0  0  0  0  0
  157.9720  213.8350  149.4200 C   0  0  0  0  0  2  0  0  0  0  0  0
  161.3570  209.6180  155.3970 C   0  0  0  0  0  0  0  0  0  0  0  0
  160.2230  212.2000  148.4820 C   0  0  1  0  0  3  0  0  0  0  0  0
  158.2380  211.2810  152.2300 C   0  0  0  0  0  2  0  0  0  0  0  0
  158.9880  211.5140  149.0810 C   0  0  0  0  0  2  0  0  0  0  0  0
  159.5180  211.9230  154.2730 O   0  0  0  0  0  0  0  0  0  0  0  0
  162.9180  210.4690  150.0120 O   0  0  0  0  0  0  0  0  0  0  0  0
  159.5580  211.4190  155.5970 C   0  0  0  0  0  2  0  0  0  0  0  0
  161.8470  211.0630  150.6920 C   0  0  2  0  0  3  0  0  0  0  0  0
  161.9700  210.9360  152.2240 C   0  0  1  0  0  3  0  0  0  0  0  0
  158.4790  213.9840  148.0020 C   0  0  0  0  0  2  0  0  0  0  0  0
  162.4910  210.0600  148.7380 C   0  0  1  0  0  3  0  0  0  0  0  0
  158.1280  212.4130  149.9900 C   0  0  1  0  0  3  0  0  0  0  0  0
  162.3620  210.6970  155.1360 C   0  0  0  0  0  2  0  0  0  0  0  0
  158.3010  211.5230  153.7410 C   0  0  1  0  0  3  0  0  0  0  0  0
  162.2030  211.2780  147.8220 C   0  0  0  0  0  2  0  0  0  0  0  0
  160.8490  211.3710  147.5020 O   0  0  0  0  0  0  0  0  0  0  0  0
  159.9570  213.6010  147.8890 C   0  0  0  0  0  2  0  0  0  0  0  0
  156.1070  211.4340  154.9290 C   0  0  0  0  0  2  0  0  0  0  0  0
  155.0930  213.4810  155.7860 C   0  0  2  0  0  3  0  0  0  0  0  0
  157.1590  213.6890  154.4110 C   0  0  0  0  0  3  0  0  0  0  0  0
  156.1700  214.3490  155.0760 C   0  0  0  0  0  3  0  0  0  0  0  0
  154.7980  212.2010  155.0170 C   0  0  0  0  0  2  0  0  0  0  0  0
  157.1160  212.3360  154.3210 N   0  0  0  0  0  0  0  0  0  0  0  0
  153.7780  214.2430  156.0670 C   0  0  0  0  0  0  0  0  0  0  0  0
  153.4670  214.4530  157.2550 O   0  0  0  0  0  1  0  0  0  0  0  0
  152.8860  214.4390  155.0660 O   0  0  0  0  0  0  0  0  0  0  0  0
  163.3570  209.1300  148.1430 O   0  0  0  0  0  0  0  0  0  0  0  0
  163.1560  207.9790  148.9250 C   0  0  0  0  0  2  0  0  0  0  0  0
  161.6180  207.6080  146.9920 C   0  0  0  0  0  1  0  0  0  0  0  0
  162.1440  206.9600  148.3240 C   0  0  2  0  0  0  0  0  0  0  0  0
  159.7140  206.4850  148.4680 O   0  0  0  0  0  1  0  0  0  0  0  0
  160.8480  206.9110  149.1920 C   0  0  2  0  0  0  0  0  0  0  0  0
  160.1830  207.3550  150.2970 O   0  0  0  0  0  0  0  0  0  0  0  0
  161.0120  206.2650  150.6080 C   0  0  2  0  0  3  0  0  0  0  0  0
  162.0990  205.1070  150.2470 C   0  0  0  0  0  2  0  0  0  0  0  0
  161.7980  203.7740  150.4650 O   0  0  0  0  0  0  0  0  0  0  0  0
  160.7280  203.8390  151.2780 O   0  0  0  0  0  1  0  0  0  0  0  0
  162.8810  205.7780  147.6780 C   0  0  0  0  0  2  0  0  0  0  0  0
  160.0260  204.0520  144.9220 C   0  0  0  0  0  2  0  0  0  0  0  0
  162.5060  204.9000  146.4540 C   0  0  2  0  0  3  0  0  0  0  0  0
  161.6110  202.4650  146.7610 C   0  0  0  0  0  2  0  0  0  0  0  0
  161.2730  203.1880  145.4370 C   0  0  2  0  0  3  0  0  0  0  0  0
  161.7720  205.8320  145.3800 C   0  0  0  0  0  2  0  0  0  0  0  0
  161.4540  203.9470  146.7920 C   0  0  2  0  0  3  0  0  0  0  0  0
  160.6150  205.3160  144.4390 C   0  0  0  0  0  2  0  0  0  0  0  0
  1 13  1  0  0  0  0
  3  8  1  0  0  0  0
  4  5  1  0  0  0  0
  5  9  2  0  0  0  0
  6  7  2  0  0  0  0
  7  9  1  0  0  0  0
  8 23  1  0  0  0  0
 10 22  1  0  0  0  0
 11  4  2  0  0  0  0
 11  6  1  0  0  0  0
 12 27  1  6  0  0  0
 12 14  1  0  0  0  0
 15 17  1  0  0  0  0
 16 18  1  0  0  0  0
 17  6  1  0  0  0  0
 18  2  1  6  0  0  0
 18 19  1  0  0  0  0
 19  2  1  6  0  0  0
 19  3  1  0  0  0  0
 20 10  1  0  0  0  0
 21 37  1  6  0  0  0
 21 16  1  0  0  0  0
 22 14  1  6  0  0  0
 22  1  1  0  0  0  0
 23 11  1  0  0  0  0
 24 13  1  6  0  0  0
 24 15  1  0  0  0  0
 24 33  1  0  0  0  0
 25 21  1  0  0  0  0
 26 25  1  0  0  0  0
 26 12  1  0  0  0  0
 27 20  1  0  0  0  0
 28 32  1  0  0  0  0
 29 34  1  6  0  0  0
 30 31  2  0  0  0  0
 31 29  1  0  0  0  0
 32 29  1  0  0  0  0
 33 30  1  0  0  0  0
 33 28  1  0  0  0  0
 34 35  1  0  0  0  0
 36 34  2  0  0  0  0
 37 38  1  0  0  0  0
 40 39  1  6  0  0  0
 40 38  1  0  0  0  0
 40 42  1  0  0  0  0
 42 41  1  6  0  0  0
 42 43  1  0  0  0  0
 42 44  1  0  0  0  0
 43 44  1  0  0  0  0
 44 45  1  1  0  0  0
 45 46  1  0  0  0  0
 46 47  1  0  0  0  0
 48 40  1  0  0  0  0
 50 54  1  0  0  0  0
 50 48  1  1  0  0  0
 52 49  1  1  0  0  0
 52 51  1  0  0  0  0
 52 54  1  0  0  0  0
 53 50  1  0  0  0  0
 54 51  1  1  0  0  0
 55 49  1  0  0  0  0
 55 53  1  0  0  0  0
M  END
>  <MODEL>
1

>  <REMARK>
 VINA RESULT:       6.3      0.000      0.000
  Name = 
  10 active torsions:
  status: ('A' for Active; 'I' for Inactive)
    1  A    between atoms: O_1  and  C_53
    2  A    between atoms: C_6  and  C_20
    3  A    between atoms: O_8  and  C_22
    4  A    between atoms: O_8  and  C_43
    5  A    between atoms: C_10  and  C_32
    6  A    between atoms: C_12  and  C_42
    7  A    between atoms: C_20  and  C_22
    8  A    between atoms: C_20  and  C_42
    9  A    between atoms: C_46  and  C_53
   10  A    between atoms: C_49  and  N_52
                            x       y       z     vdW  Elec       q    Type
                         _______ _______ _______ _____ _____    ______ ____

>  <TORSDO>
F 10

$$$$
=
 OpenBabel11062408413D

 55 62  0  0  1  0  0  0  0  0999 V2000
  160.8320  208.9940  152.4280 C   0  0  0  0  0  2  0  0  0  0  0  0
  162.2910  208.9880  149.2620 C   0  0  0  0  0  2  0  0  0  0  0  0
  161.2050  209.5220  147.1760 C   0  0  0  0  0  2  0  0  0  0  0  0
  162.1220  212.9840  147.2460 C   0  0  0  0  0  3  0  0  0  0  0  0
  163.1110  213.8980  147.6610 C   0  0  0  0  0  3  0  0  0  0  0  0
  161.0560  213.1360  149.4220 C   0  0  0  0  0  0  0  0  0  0  0  0
  162.0330  214.0690  149.8160 C   0  0  0  0  0  3  0  0  0  0  0  0
  160.2700  210.6250  146.6610 C   0  0  0  0  0  2  0  0  0  0  0  0
  163.0370  214.4510  148.9350 C   0  0  0  0  0  3  0  0  0  0  0  0
  160.6190  206.9930  153.8770 C   0  0  0  0  0  2  0  0  0  0  0  0
  161.0710  212.6000  148.1050 C   0  0  0  0  0  0  0  0  0  0  0  0
  161.7330  205.9220  151.3810 C   0  0  1  0  0  3  0  0  0  0  0  0
  161.7280  210.1940  152.1430 C   0  0  0  0  0  2  0  0  0  0  0  0
  162.4800  207.0370  152.1250 C   0  0  0  0  0  2  0  0  0  0  0  0
  160.0170  211.4800  150.8600 O   0  0  0  0  0  0  0  0  0  0  0  0
  161.8750  206.9870  147.9980 O   0  0  0  0  0  0  0  0  0  0  0  0
  159.9530  212.8160  150.3900 C   0  0  0  0  0  2  0  0  0  0  0  0
  161.4180  207.7620  149.0720 C   0  0  2  0  0  3  0  0  0  0  0  0
  160.9200  209.1530  148.6330 C   0  0  1  0  0  3  0  0  0  0  0  0
  160.8680  205.5070  153.7340 C   0  0  0  0  0  2  0  0  0  0  0  0
  162.8390  206.0750  148.4580 C   0  0  1  0  0  3  0  0  0  0  0  0
  161.6070  207.8680  153.0850 C   0  0  1  0  0  3  0  0  0  0  0  0
  159.9220  211.7510  147.6580 C   0  0  0  0  0  2  0  0  0  0  0  0
  160.9320  211.4800  151.9040 C   0  0  1  0  0  3  0  0  0  0  0  0
  162.1980  204.9830  149.3540 C   0  0  0  0  0  2  0  0  0  0  0  0
  162.6420  205.0770  150.6730 O   0  0  0  0  0  0  0  0  0  0  0  0
  160.8050  205.0650  152.2690 C   0  0  0  0  0  2  0  0  0  0  0  0
  159.1910  212.9960  152.8550 C   0  0  0  0  0  2  0  0  0  0  0  0
  158.8610  213.1220  155.2700 C   0  0  2  0  0  3  0  0  0  0  0  0
  160.7720  211.7670  154.4210 C   0  0  0  0  0  3  0  0  0  0  0  0
  160.1220  212.2470  155.5190 C   0  0  0  0  0  3  0  0  0  0  0  0
  158.9950  213.9650  154.0100 C   0  0  0  0  0  2  0  0  0  0  0  0
  160.3540  212.1360  153.1840 N   0  0  0  0  0  0  0  0  0  0  0  0
  158.4910  214.0210  156.4710 C   0  0  0  0  0  0  0  0  0  0  0  0
  159.4170  214.4530  157.1840 O   0  0  0  0  0  1  0  0  0  0  0  0
  157.2000  214.1130  156.8700 O   0  0  0  0  0  0  0  0  0  0  0  0
  163.6190  205.5360  147.4240 O   0  0  0  0  0  0  0  0  0  0  0  0
  162.8710  205.8550  146.2770 C   0  0  0  0  0  2  0  0  0  0  0  0
  162.4850  204.1860  144.4590 C   0  0  0  0  0  1  0  0  0  0  0  0
  161.8970  204.7340  145.8100 C   0  0  2  0  0  0  0  0  0  0  0  0
  160.7010  206.3230  144.3290 O   0  0  0  0  0  1  0  0  0  0  0  0
  160.5440  205.3550  145.3430 C   0  0  2  0  0  0  0  0  0  0  0  0
  159.2400  205.6290  145.6350 O   0  0  0  0  0  0  0  0  0  0  0  0
  159.3810  204.3330  145.1100 C   0  0  2  0  0  3  0  0  0  0  0  0
  160.2410  203.0830  144.5200 C   0  0  0  0  0  2  0  0  0  0  0  0
  159.6020  201.9190  144.1270 O   0  0  0  0  0  0  0  0  0  0  0  0
  159.9870  201.0360  145.0660 O   0  0  0  0  0  1  0  0  0  0  0  0
  162.1040  203.4560  146.6350 C   0  0  0  0  0  2  0  0  0  0  0  0
  160.6330  201.3170  150.0980 C   0  0  0  0  0  2  0  0  0  0  0  0
  161.0770  202.5400  147.3550 C   0  0  2  0  0  3  0  0  0  0  0  0
  161.5380  199.9900  147.6820 C   0  0  0  0  0  2  0  0  0  0  0  0
  160.5280  200.6600  148.6400 C   0  0  2  0  0  3  0  0  0  0  0  0
  160.4710  203.3510  148.5940 C   0  0  0  0  0  2  0  0  0  0  0  0
  161.7430  201.4260  148.0230 C   0  0  2  0  0  3  0  0  0  0  0  0
  160.0490  202.6640  149.9510 C   0  0  0  0  0  2  0  0  0  0  0  0
  1 22  1  0  0  0  0
  4  5  2  0  0  0  0
  4 11  1  0  0  0  0
  5  9  1  0  0  0  0
  6  7  1  0  0  0  0
  6 17  1  0  0  0  0
  8  3  1  0  0  0  0
  8 23  1  0  0  0  0
  9  7  2  0  0  0  0
 11  6  2  0  0  0  0
 12 14  1  1  0  0  0
 12 27  1  0  0  0  0
 13  1  1  0  0  0  0
 15 24  1  0  0  0  0
 16 21  1  0  0  0  0
 16 18  1  0  0  0  0
 17 15  1  0  0  0  0
 18  2  1  1  0  0  0
 19  3  1  6  0  0  0
 19 18  1  0  0  0  0
 19  2  1  0  0  0  0
 20 10  1  0  0  0  0
 21 37  1  6  0  0  0
 21 25  1  0  0  0  0
 22 14  1  6  0  0  0
 22 10  1  0  0  0  0
 23 11  1  0  0  0  0
 24 13  1  1  0  0  0
 24 33  1  0  0  0  0
 25 26  1  0  0  0  0
 26 12  1  0  0  0  0
 27 20  1  0  0  0  0
 28 33  1  0  0  0  0
 28 32  1  0  0  0  0
 29 31  1  0  0  0  0
 29 34  1  1  0  0  0
 30 31  2  0  0  0  0
 32 29  1  0  0  0  0
 33 30  1  0  0  0  0
 34 36  2  0  0  0  0
 34 35  1  0  0  0  0
 38 37  1  0  0  0  0
 40 39  1  6  0  0  0
 40 38  1  0  0  0  0
 40 48  1  0  0  0  0
 42 41  1  6  0  0  0
 42 43  1  0  0  0  0
 42 40  1  0  0  0  0
 44 45  1  1  0  0  0
 44 42  1  0  0  0  0
 44 43  1  0  0  0  0
 46 45  1  0  0  0  0
 46 47  1  0  0  0  0
 50 48  1  1  0  0  0
 50 54  1  0  0  0  0
 50 53  1  0  0  0  0
 52 51  1  1  0  0  0
 52 49  1  0  0  0  0
 53 55  1  0  0  0  0
 54 51  1  6  0  0  0
 54 52  1  0  0  0  0
 55 49  1  0  0  0  0
M  END
>  <MODEL>
2

>  <REMARK>
 VINA RESULT:       7.9      2.490      5.935
  Name = 
  10 active torsions:
  status: ('A' for Active; 'I' for Inactive)
    1  A    between atoms: O_1  and  C_53
    2  A    between atoms: C_6  and  C_20
    3  A    between atoms: O_8  and  C_22
    4  A    between atoms: O_8  and  C_43
    5  A    between atoms: C_10  and  C_32
    6  A    between atoms: C_12  and  C_42
    7  A    between atoms: C_20  and  C_22
    8  A    between atoms: C_20  and  C_42
    9  A    between atoms: C_46  and  C_53
   10  A    between atoms: C_49  and  N_52
                            x       y       z     vdW  Elec       q    Type
                         _______ _______ _______ _____ _____    ______ ____

>  <TORSDO>
F 10

$$$$
=
 OpenBabel11062408413D

 55 62  0  0  1  0  0  0  0  0999 V2000
  161.2840  206.7920  150.8300 C   0  0  0  0  0  2  0  0  0  0  0  0
  160.6700  210.1140  151.6890 C   0  0  0  0  0  2  0  0  0  0  0  0
  162.1750  211.9770  151.3990 C   0  0  0  0  0  2  0  0  0  0  0  0
  160.8830  212.8980  148.1870 C   0  0  0  0  0  3  0  0  0  0  0  0
  159.7250  212.9290  147.3850 C   0  0  0  0  0  3  0  0  0  0  0  0
  161.3490  210.6340  147.4440 C   0  0  0  0  0  0  0  0  0  0  0  0
  160.2050  210.6870  146.6250 C   0  0  0  0  0  3  0  0  0  0  0  0
  163.0780  212.5110  150.2780 C   0  0  0  0  0  2  0  0  0  0  0  0
  159.4160  211.8300  146.5910 C   0  0  0  0  0  3  0  0  0  0  0  0
  161.3540  204.9150  152.4510 C   0  0  0  0  0  2  0  0  0  0  0  0
  161.7230  211.7660  148.2190 C   0  0  0  0  0  0  0  0  0  0  0  0
  161.0260  207.2840  154.1530 C   0  0  1  0  0  3  0  0  0  0  0  0
  160.3570  207.5310  149.8720 C   0  0  0  0  0  2  0  0  0  0  0  0
  159.9960  206.9950  153.0520 C   0  0  0  0  0  2  0  0  0  0  0  0
  162.1770  208.6660  148.5960 O   0  0  0  0  0  0  0  0  0  0  0  0
  161.6120  210.7680  153.8010 O   0  0  0  0  0  0  0  0  0  0  0  0
  162.2050  209.4010  147.3850 C   0  0  0  0  0  2  0  0  0  0  0  0
  161.6960  209.8240  152.7690 C   0  0  2  0  0  3  0  0  0  0  0  0
  162.1270  210.4480  151.4260 C   0  0  1  0  0  3  0  0  0  0  0  0
  161.3190  204.7680  153.9560 C   0  0  0  0  0  2  0  0  0  0  0  0
  160.6730  210.3350  154.7520 C   0  0  1  0  0  3  0  0  0  0  0  0
  160.5020  206.0830  151.9200 C   0  0  1  0  0  3  0  0  0  0  0  0
  163.0360  211.7440  148.9390 C   0  0  0  0  0  2  0  0  0  0  0  0
  161.0370  207.8760  148.5440 C   0  0  1  0  0  3  0  0  0  0  0  0
  161.1900  209.0960  155.5300 C   0  0  0  0  0  2  0  0  0  0  0  0
  160.4240  207.9630  155.2560 O   0  0  0  0  0  0  0  0  0  0  0  0
  161.7940  206.0440  154.6570 C   0  0  0  0  0  2  0  0  0  0  0  0
  162.1110  205.6600  148.1340 C   0  0  0  0  0  2  0  0  0  0  0  0
  161.3820  204.2700  146.2650 C   0  0  2  0  0  3  0  0  0  0  0  0
  160.4250  206.5620  146.4600 C   0  0  0  0  0  3  0  0  0  0  0  0
  160.4860  205.4180  145.7210 C   0  0  0  0  0  3  0  0  0  0  0  0
  162.6130  204.8030  146.9830 C   0  0  0  0  0  2  0  0  0  0  0  0
  161.1990  206.6840  147.5670 N   0  0  0  0  0  0  0  0  0  0  0  0
  161.8010  203.2520  145.1810 C   0  0  0  0  0  0  0  0  0  0  0  0
  161.2980  202.1130  145.2230 O   0  0  0  0  0  1  0  0  0  0  0  0
  162.8630  203.5190  144.3830 O   0  0  0  0  0  0  0  0  0  0  0  0
  160.2420  211.3650  155.6020 O   0  0  0  0  0  0  0  0  0  0  0  0
  158.8440  211.3220  155.4520 C   0  0  0  0  0  2  0  0  0  0  0  0
  159.3770  213.6910  154.8680 C   0  0  0  0  0  1  0  0  0  0  0  0
  158.2150  212.6330  154.8970 C   0  0  2  0  0  0  0  0  0  0  0  0
  156.6450  214.4530  155.5080 O   0  0  0  0  0  1  0  0  0  0  0  0
  157.2420  213.2520  155.9480 C   0  0  2  0  0  0  0  0  0  0  0  0
  156.8670  213.3490  157.2560 O   0  0  0  0  0  0  0  0  0  0  0  0
  156.2660  212.2410  156.6370 C   0  0  2  0  0  3  0  0  0  0  0  0
  155.9860  211.2430  155.3810 C   0  0  0  0  0  2  0  0  0  0  0  0
  154.7160  210.7400  155.1580 O   0  0  0  0  0  0  0  0  0  0  0  0
  154.8080  209.4810  155.6240 O   0  0  0  0  0  1  0  0  0  0  0  0
  158.0120  212.5370  153.3780 C   0  0  0  0  0  2  0  0  0  0  0  0
  156.1510  213.8790  149.7080 C   0  0  0  0  0  2  0  0  0  0  0  0
  157.6540  213.6300  152.3340 C   0  0  2  0  0  3  0  0  0  0  0  0
  159.0220  213.8890  150.1250 C   0  0  0  0  0  2  0  0  0  0  0  0
  157.5830  214.4520  150.1430 C   0  0  2  0  0  3  0  0  0  0  0  0
  156.0590  213.7180  152.2370 C   0  0  0  0  0  2  0  0  0  0  0  0
  158.0130  213.2070  150.9850 C   0  0  2  0  0  3  0  0  0  0  0  0
  155.2950  214.0560  150.8970 C   0  0  0  0  0  2  0  0  0  0  0  0
  4 11  1  0  0  0  0
  5  4  2  0  0  0  0
  6 11  2  0  0  0  0
  7  6  1  0  0  0  0
  8  3  1  0  0  0  0
  9  7  2  0  0  0  0
  9  5  1  0  0  0  0
 10 20  1  0  0  0  0
 11 23  1  0  0  0  0
 12 14  1  6  0  0  0
 12 27  1  0  0  0  0
 12 26  1  0  0  0  0
 13  1  1  0  0  0  0
 16 21  1  0  0  0  0
 17  6  1  0  0  0  0
 17 15  1  0  0  0  0
 18  2  1  6  0  0  0
 18 16  1  0  0  0  0
 19  3  1  1  0  0  0
 19  2  1  0  0  0  0
 19 18  1  0  0  0  0
 20 27  1  0  0  0  0
 21 25  1  0  0  0  0
 21 37  1  1  0  0  0
 22  1  1  6  0  0  0
 22 10  1  0  0  0  0
 22 14  1  0  0  0  0
 23  8  1  0  0  0  0
 24 33  1  1  0  0  0
 24 15  1  0  0  0  0
 24 13  1  0  0  0  0
 26 25  1  0  0  0  0
 29 34  1  6  0  0  0
 29 32  1  0  0  0  0
 30 33  1  0  0  0  0
 31 29  1  0  0  0  0
 31 30  2  0  0  0  0
 32 28  1  0  0  0  0
 33 28  1  0  0  0  0
 34 35  1  0  0  0  0
 36 34  2  0  0  0  0
 38 37  1  0  0  0  0
 40 39  1  1  0  0  0
 40 38  1  0  0  0  0
 40 42  1  0  0  0  0
 42 41  1  6  0  0  0
 42 44  1  0  0  0  0
 42 43  1  0  0  0  0
 44 45  1  1  0  0  0
 44 43  1  0  0  0  0
 46 45  1  0  0  0  0
 46 47  1  0  0  0  0
 48 40  1  0  0  0  0
 49 55  1  0  0  0  0
 50 48  1  1  0  0  0
 51 52  1  0  0  0  0
 52 49  1  6  0  0  0
 52 54  1  0  0  0  0
 53 50  1  0  0  0  0
 54 51  1  1  0  0  0
 54 50  1  0  0  0  0
 55 53  1  0  0  0  0
M  END
>  <MODEL>
3

>  <REMARK>
 VINA RESULT:       8.3      2.595     10.043
  Name = 
  10 active torsions:
  status: ('A' for Active; 'I' for Inactive)
    1  A    between atoms: O_1  and  C_53
    2  A    between atoms: C_6  and  C_20
    3  A    between atoms: O_8  and  C_22
    4  A    between atoms: O_8  and  C_43
    5  A    between atoms: C_10  and  C_32
    6  A    between atoms: C_12  and  C_42
    7  A    between atoms: C_20  and  C_22
    8  A    between atoms: C_20  and  C_42
    9  A    between atoms: C_46  and  C_53
   10  A    between atoms: C_49  and  N_52
                            x       y       z     vdW  Elec       q    Type
                         _______ _______ _______ _____ _____    ______ ____

>  <TORSDO>
F 10

$$$$
