=
 OpenBabel11062408263D

 32 36  0  0  0  0  0  0  0  0999 V2000
  161.2870  205.2770  150.3560 C   0  0  0  0  0  0  0  0  0  0  0  0
  161.5870  208.0070  149.8440 C   0  0  0  0  0  0  0  0  0  0  0  0
  161.0850  203.9080  150.5760 C   0  0  0  0  0  3  0  0  0  0  0  0
  161.3440  206.1770  151.4620 C   0  0  0  0  0  0  0  0  0  0  0  0
  161.5700  208.5330  152.2100 C   0  0  0  0  0  3  0  0  0  0  0  0
  161.9610  211.1940  147.9500 C   0  0  0  0  0  3  0  0  0  0  0  0
  161.5030  207.5670  151.1900 C   0  0  0  0  0  0  0  0  0  0  0  0
  161.9410  211.6800  150.3220 C   0  0  0  0  0  3  0  0  0  0  0  0
  161.7960  210.3180  150.6040 C   0  0  0  0  0  0  0  0  0  0  0  0
  161.2270  205.6360  152.7820 C   0  0  0  0  0  0  0  0  0  0  0  0
  161.7160  209.8890  151.9250 C   0  0  0  0  0  3  0  0  0  0  0  0
  161.0380  204.2550  152.9510 C   0  0  0  0  0  3  0  0  0  0  0  0
  161.5310  207.1030  148.8320 N   0  0  0  0  0  0  0  0  0  0  0  0
  161.4020  205.7710  149.0390 C   0  0  0  0  0  0  0  0  0  0  0  0
  161.7330  209.3770  149.5500 C   0  0  0  0  0  0  0  0  0  0  0  0
  160.9640  203.3980  151.8620 C   0  0  0  0  0  3  0  0  0  0  0  0
  162.0240  212.1170  148.9980 C   0  0  0  0  0  3  0  0  0  0  0  0
  161.8160  209.8310  148.2240 C   0  0  0  0  0  3  0  0  0  0  0  0
  161.2700  204.5460  145.4470 C   0  0  0  0  0  0  0  0  0  0  0  0
  161.2450  205.0550  144.1550 O   0  0  0  0  0  1  0  0  0  0  0  0
  161.3610  204.8900  147.8520 C   0  0  0  0  0  0  0  0  0  0  0  0
  161.2290  203.1640  145.6470 C   0  0  0  0  0  3  0  0  0  0  0  0
  161.3010  203.5030  148.0390 C   0  0  0  0  0  3  0  0  0  0  0  0
  161.3280  205.4130  146.5450 C   0  0  0  0  0  0  0  0  0  0  0  0
  161.3180  206.7550  146.3370 F   0  0  0  0  0  0  0  0  0  0  0  0
  161.2410  202.6350  146.9460 C   0  0  0  0  0  0  0  0  0  0  0  0
  161.2560  200.6950  148.4810 C   0  0  0  0  0  1  0  0  0  0  0  0
  161.1930  201.2580  147.1770 O   0  0  0  0  0  0  0  0  0  0  0  0
  160.3490  206.5740  154.8240 C   0  0  0  0  0  3  0  0  0  0  0  0
  161.2960  206.4790  153.9450 N   0  0  0  0  0  0  0  0  0  0  0  0
  160.5110  207.4730  155.9950 C   0  0  0  0  0  2  0  0  0  0  0  0
  160.0820  208.8740  155.6170 C   0  0  0  0  0  1  0  0  0  0  0  0
  1  3  2  0  0  0  0
  1  4  1  0  0  0  0
  2  7  1  0  0  0  0
  3 16  1  0  0  0  0
  4 10  2  0  0  0  0
  6 18  2  0  0  0  0
  6 17  1  0  0  0  0
  7  4  1  0  0  0  0
  7  5  2  0  0  0  0
  8  9  1  0  0  0  0
  9 11  2  0  0  0  0
 10 12  1  0  0  0  0
 10 30  1  0  0  0  0
 11  5  1  0  0  0  0
 13 14  2  0  0  0  0
 13  2  1  0  0  0  0
 14  1  1  0  0  0  0
 15  2  2  0  0  0  0
 15  9  1  0  0  0  0
 16 12  2  0  0  0  0
 17  8  2  0  0  0  0
 18 15  1  0  0  0  0
 19 22  2  0  0  0  0
 19 24  1  0  0  0  0
 20 19  1  0  0  0  0
 21 23  1  0  0  0  0
 21 14  1  0  0  0  0
 22 26  1  0  0  0  0
 24 21  2  0  0  0  0
 25 24  1  0  0  0  0
 26 28  1  0  0  0  0
 26 23  2  0  0  0  0
 28 27  1  0  0  0  0
 29 31  1  0  0  0  0
 30 29  2  0  0  0  0
 32 31  1  0  0  0  0
M  END
>  <MODEL>
1

>  <REMARK>
 VINA RESULT:      -9.9      0.000      0.000
  Name = 
  4 active torsions:
  status: ('A' for Active; 'I' for Inactive)
    1  A    between atoms: C_13  and  C_18
    2  A    between atoms: C_14  and  N_29
    3  A    between atoms: O_15  and  C_26
    4  A    between atoms: C_16  and  C_27
                            x       y       z     vdW  Elec       q    Type
                         _______ _______ _______ _____ _____    ______ ____

>  <TORSDO>
F 4

$$$$
=
 OpenBabel11062408263D

 32 36  0  0  0  0  0  0  0  0999 V2000
  161.5130  208.5040  150.0130 C   0  0  0  0  0  0  0  0  0  0  0  0
  161.1130  208.5400  152.7770 C   0  0  0  0  0  0  0  0  0  0  0  0
  161.6600  208.5190  148.6190 C   0  0  0  0  0  3  0  0  0  0  0  0
  161.4580  207.2600  150.7110 C   0  0  0  0  0  0  0  0  0  0  0  0
  161.1890  206.1200  152.8990 C   0  0  0  0  0  3  0  0  0  0  0  0
  160.5500  209.8570  156.2170 C   0  0  0  0  0  3  0  0  0  0  0  0
  161.2580  207.2900  152.1220 C   0  0  0  0  0  0  0  0  0  0  0  0
  160.6340  207.4380  156.2990 C   0  0  0  0  0  3  0  0  0  0  0  0
  160.8400  207.3940  154.9170 C   0  0  0  0  0  0  0  0  0  0  0  0
  161.5930  206.0530  149.9550 C   0  0  0  0  0  0  0  0  0  0  0  0
  160.9840  206.1680  154.2770 C   0  0  0  0  0  3  0  0  0  0  0  0
  161.7510  206.1210  148.5610 C   0  0  0  0  0  3  0  0  0  0  0  0
  161.1790  209.6910  152.0610 N   0  0  0  0  0  0  0  0  0  0  0  0
  161.3870  209.7160  150.7230 C   0  0  0  0  0  0  0  0  0  0  0  0
  160.9040  208.5940  154.1700 C   0  0  0  0  0  0  0  0  0  0  0  0
  161.7810  207.3400  147.8980 C   0  0  0  0  0  3  0  0  0  0  0  0
  160.4900  208.6670  156.9480 C   0  0  0  0  0  3  0  0  0  0  0  0
  160.7560  209.8210  154.8350 C   0  0  0  0  0  3  0  0  0  0  0  0
  160.7690  213.3650  149.8650 C   0  0  0  0  0  0  0  0  0  0  0  0
  160.0430  214.4530  150.3300 O   0  0  0  0  0  1  0  0  0  0  0  0
  161.4460  211.0380  150.0600 C   0  0  0  0  0  0  0  0  0  0  0  0
  161.5640  213.4990  148.7240 C   0  0  0  0  0  3  0  0  0  0  0  0
  162.2250  211.1810  148.9040 C   0  0  0  0  0  3  0  0  0  0  0  0
  160.7010  212.1350  150.5320 C   0  0  0  0  0  0  0  0  0  0  0  0
  159.8870  212.0050  151.6110 F   0  0  0  0  0  0  0  0  0  0  0  0
  162.2940  212.4050  148.2350 C   0  0  0  0  0  0  0  0  0  0  0  0
  162.6950  213.2480  145.9440 C   0  0  0  0  0  1  0  0  0  0  0  0
  163.0900  212.5080  147.0920 O   0  0  0  0  0  0  0  0  0  0  0  0
  160.8890  203.7530  150.1490 C   0  0  0  0  0  3  0  0  0  0  0  0
  161.5670  204.7640  150.5920 N   0  0  0  0  0  0  0  0  0  0  0  0
  160.9240  202.4590  150.8760 C   0  0  0  0  0  2  0  0  0  0  0  0
  160.8650  201.3200  149.8820 C   0  0  0  0  0  1  0  0  0  0  0  0
  1  4  2  0  0  0  0
  1 14  1  0  0  0  0
  2 15  1  0  0  0  0
  3  1  1  0  0  0  0
  4  7  1  0  0  0  0
  5 11  2  0  0  0  0
  6 17  1  0  0  0  0
  7  2  2  0  0  0  0
  7  5  1  0  0  0  0
  8 17  2  0  0  0  0
  9  8  1  0  0  0  0
 10 30  1  0  0  0  0
 10  4  1  0  0  0  0
 11  9  1  0  0  0  0
 12 10  2  0  0  0  0
 13  2  1  0  0  0  0
 14 13  2  0  0  0  0
 15 18  1  0  0  0  0
 15  9  2  0  0  0  0
 16 12  1  0  0  0  0
 16  3  2  0  0  0  0
 18  6  2  0  0  0  0
 19 20  1  0  0  0  0
 19 24  1  0  0  0  0
 21 24  2  0  0  0  0
 21 14  1  0  0  0  0
 22 19  2  0  0  0  0
 23 21  1  0  0  0  0
 24 25  1  0  0  0  0
 26 22  1  0  0  0  0
 26 23  2  0  0  0  0
 27 28  1  0  0  0  0
 28 26  1  0  0  0  0
 29 30  2  0  0  0  0
 29 31  1  0  0  0  0
 32 31  1  0  0  0  0
M  END
>  <MODEL>
2

>  <REMARK>
 VINA RESULT:      -8.7      3.317      7.112
  Name = 
  4 active torsions:
  status: ('A' for Active; 'I' for Inactive)
    1  A    between atoms: C_13  and  C_18
    2  A    between atoms: C_14  and  N_29
    3  A    between atoms: O_15  and  C_26
    4  A    between atoms: C_16  and  C_27
                            x       y       z     vdW  Elec       q    Type
                         _______ _______ _______ _____ _____    ______ ____

>  <TORSDO>
F 4

$$$$
=
 OpenBabel11062408263D

 32 36  0  0  0  0  0  0  0  0999 V2000
  161.5230  207.1070  149.8180 C   0  0  0  0  0  0  0  0  0  0  0  0
  161.0100  207.7060  152.4980 C   0  0  0  0  0  0  0  0  0  0  0  0
  161.8260  206.7670  148.4930 C   0  0  0  0  0  3  0  0  0  0  0  0
  161.5800  208.4700  150.2360 C   0  0  0  0  0  0  0  0  0  0  0  0
  161.3430  210.0760  152.1140 C   0  0  0  0  0  3  0  0  0  0  0  0
  160.2000  207.2180  156.1020 C   0  0  0  0  0  3  0  0  0  0  0  0
  161.3120  208.7660  151.6040 C   0  0  0  0  0  0  0  0  0  0  0  0
  160.5380  209.5780  155.6790 C   0  0  0  0  0  3  0  0  0  0  0  0
  160.7930  209.3040  154.3320 C   0  0  0  0  0  0  0  0  0  0  0  0
  161.9150  209.4640  149.2620 C   0  0  0  0  0  0  0  0  0  0  0  0
  161.0870  210.3450  153.4570 C   0  0  0  0  0  3  0  0  0  0  0  0
  162.1990  209.0740  147.9430 C   0  0  0  0  0  3  0  0  0  0  0  0
  160.9650  206.4280  152.0420 N   0  0  0  0  0  0  0  0  0  0  0  0
  161.1930  206.0980  150.7480 C   0  0  0  0  0  0  0  0  0  0  0  0
  160.7520  207.9720  153.8580 C   0  0  0  0  0  0  0  0  0  0  0  0
  162.1580  207.7400  147.5610 C   0  0  0  0  0  3  0  0  0  0  0  0
  160.2410  208.5370  156.5620 C   0  0  0  0  0  3  0  0  0  0  0  0
  160.4530  206.9370  154.7570 C   0  0  0  0  0  3  0  0  0  0  0  0
  160.9940  202.3110  150.9580 C   0  0  0  0  0  0  0  0  0  0  0  0
  160.9340  201.3060  151.9130 O   0  0  0  0  0  1  0  0  0  0  0  0
  161.1070  204.6690  150.3760 C   0  0  0  0  0  0  0  0  0  0  0  0
  160.9990  201.9780  149.6010 C   0  0  0  0  0  3  0  0  0  0  0  0
  161.1300  204.3210  149.0190 C   0  0  0  0  0  3  0  0  0  0  0  0
  161.0540  203.6540  151.3500 C   0  0  0  0  0  0  0  0  0  0  0  0
  161.0980  203.9620  152.6720 F   0  0  0  0  0  0  0  0  0  0  0  0
  161.0710  202.9820  148.6240 C   0  0  0  0  0  0  0  0  0  0  0  0
  161.5000  203.6100  146.2700 C   0  0  0  0  0  1  0  0  0  0  0  0
  161.0860  202.6770  147.2600 O   0  0  0  0  0  0  0  0  0  0  0  0
  161.5930  211.8120  148.8150 C   0  0  0  0  0  3  0  0  0  0  0  0
  161.9720  210.8590  149.6050 N   0  0  0  0  0  0  0  0  0  0  0  0
  161.6900  213.2260  149.2580 C   0  0  0  0  0  2  0  0  0  0  0  0
  162.3220  214.0560  148.1610 C   0  0  0  0  0  1  0  0  0  0  0  0
  1  4  2  0  0  0  0
  1 14  1  0  0  0  0
  2 15  1  0  0  0  0
  3  1  1  0  0  0  0
  4  7  1  0  0  0  0
  5 11  2  0  0  0  0
  6 17  1  0  0  0  0
  7  5  1  0  0  0  0
  7  2  2  0  0  0  0
  8 17  2  0  0  0  0
  9  8  1  0  0  0  0
 10 30  1  0  0  0  0
 10  4  1  0  0  0  0
 11  9  1  0  0  0  0
 12 10  2  0  0  0  0
 13  2  1  0  0  0  0
 14 13  2  0  0  0  0
 15  9  2  0  0  0  0
 15 18  1  0  0  0  0
 16 12  1  0  0  0  0
 16  3  2  0  0  0  0
 18  6  2  0  0  0  0
 19 24  1  0  0  0  0
 19 20  1  0  0  0  0
 21 14  1  0  0  0  0
 21 24  2  0  0  0  0
 22 19  2  0  0  0  0
 23 21  1  0  0  0  0
 24 25  1  0  0  0  0
 26 23  2  0  0  0  0
 26 22  1  0  0  0  0
 27 28  1  0  0  0  0
 28 26  1  0  0  0  0
 29 31  1  0  0  0  0
 29 30  2  0  0  0  0
 32 31  1  0  0  0  0
M  END
>  <MODEL>
3

>  <REMARK>
 VINA RESULT:      -8.5      1.995      5.451
  Name = 
  4 active torsions:
  status: ('A' for Active; 'I' for Inactive)
    1  A    between atoms: C_13  and  C_18
    2  A    between atoms: C_14  and  N_29
    3  A    between atoms: O_15  and  C_26
    4  A    between atoms: C_16  and  C_27
                            x       y       z     vdW  Elec       q    Type
                         _______ _______ _______ _____ _____    ______ ____

>  <TORSDO>
F 4

$$$$
=
 OpenBabel11062408263D

 32 36  0  0  0  0  0  0  0  0999 V2000
  161.0280  208.2040  153.0980 C   0  0  0  0  0  0  0  0  0  0  0  0
  161.4280  209.8520  150.8780 C   0  0  0  0  0  0  0  0  0  0  0  0
  160.8730  207.4080  154.2410 C   0  0  0  0  0  3  0  0  0  0  0  0
  161.2940  207.5950  151.8350 C   0  0  0  0  0  0  0  0  0  0  0  0
  161.7610  207.9430  149.4220 C   0  0  0  0  0  3  0  0  0  0  0  0
  161.7760  212.9460  148.8310 C   0  0  0  0  0  3  0  0  0  0  0  0
  161.4920  208.4450  150.7080 C   0  0  0  0  0  0  0  0  0  0  0  0
  162.1020  211.0140  147.4080 C   0  0  0  0  0  3  0  0  0  0  0  0
  161.8990  210.1690  148.5030 C   0  0  0  0  0  0  0  0  0  0  0  0
  161.3610  206.1680  151.7720 C   0  0  0  0  0  0  0  0  0  0  0  0
  161.9610  208.7900  148.3330 C   0  0  0  0  0  3  0  0  0  0  0  0
  161.1880  205.4130  152.9440 C   0  0  0  0  0  3  0  0  0  0  0  0
  161.1650  210.3740  152.1030 N   0  0  0  0  0  0  0  0  0  0  0  0
  160.9500  209.6090  153.2000 C   0  0  0  0  0  0  0  0  0  0  0  0
  161.6310  210.7130  149.7800 C   0  0  0  0  0  0  0  0  0  0  0  0
  160.9490  206.0240  154.1670 C   0  0  0  0  0  3  0  0  0  0  0  0
  162.0400  212.4000  147.5720 C   0  0  0  0  0  3  0  0  0  0  0  0
  161.5730  212.1070  149.9300 C   0  0  0  0  0  3  0  0  0  0  0  0
  161.3880  211.4740  156.4800 C   0  0  0  0  0  0  0  0  0  0  0  0
  162.3990  212.0200  157.2610 O   0  0  0  0  0  1  0  0  0  0  0  0
  160.6660  210.3000  154.4770 C   0  0  0  0  0  0  0  0  0  0  0  0
  160.0620  211.5500  156.9130 C   0  0  0  0  0  3  0  0  0  0  0  0
  159.3430  210.3670  154.9310 C   0  0  0  0  0  3  0  0  0  0  0  0
  161.6970  210.8450  155.2670 C   0  0  0  0  0  0  0  0  0  0  0  0
  162.9940  210.7360  154.8830 F   0  0  0  0  0  0  0  0  0  0  0  0
  159.0320  210.9930  156.1410 C   0  0  0  0  0  0  0  0  0  0  0  0
  156.6340  211.3820  155.6700 C   0  0  0  0  0  1  0  0  0  0  0  0
  157.6970  211.0460  156.5520 O   0  0  0  0  0  0  0  0  0  0  0  0
  160.9510  204.4370  150.1420 C   0  0  0  0  0  3  0  0  0  0  0  0
  161.6070  205.4840  150.5310 N   0  0  0  0  0  0  0  0  0  0  0  0
  161.2760  203.7980  148.8420 C   0  0  0  0  0  2  0  0  0  0  0  0
  161.3710  204.8600  147.7680 C   0  0  0  0  0  1  0  0  0  0  0  0
  1 14  1  0  0  0  0
  1  3  2  0  0  0  0
  2 13  1  0  0  0  0
  4  1  1  0  0  0  0
  5  7  2  0  0  0  0
  6 18  2  0  0  0  0
  7  2  1  0  0  0  0
  7  4  1  0  0  0  0
  8 17  2  0  0  0  0
  8  9  1  0  0  0  0
  9 15  1  0  0  0  0
 10  4  2  0  0  0  0
 10 12  1  0  0  0  0
 11  9  2  0  0  0  0
 11  5  1  0  0  0  0
 12 16  2  0  0  0  0
 13 14  2  0  0  0  0
 14 21  1  0  0  0  0
 15 18  1  0  0  0  0
 15  2  2  0  0  0  0
 16  3  1  0  0  0  0
 17  6  1  0  0  0  0
 19 22  1  0  0  0  0
 19 20  1  0  0  0  0
 21 23  2  0  0  0  0
 21 24  1  0  0  0  0
 23 26  1  0  0  0  0
 24 19  2  0  0  0  0
 25 24  1  0  0  0  0
 26 28  1  0  0  0  0
 26 22  2  0  0  0  0
 27 28  1  0  0  0  0
 29 30  2  0  0  0  0
 30 10  1  0  0  0  0
 31 29  1  0  0  0  0
 32 31  1  0  0  0  0
M  END
>  <MODEL>
4

>  <REMARK>
 VINA RESULT:      -7.8      4.334      7.616
  Name = 
  4 active torsions:
  status: ('A' for Active; 'I' for Inactive)
    1  A    between atoms: C_13  and  C_18
    2  A    between atoms: C_14  and  N_29
    3  A    between atoms: O_15  and  C_26
    4  A    between atoms: C_16  and  C_27
                            x       y       z     vdW  Elec       q    Type
                         _______ _______ _______ _____ _____    ______ ____

>  <TORSDO>
F 4

$$$$
=
 OpenBabel11062408263D

 32 36  0  0  0  0  0  0  0  0999 V2000
  161.5270  208.5280  149.8240 C   0  0  0  0  0  0  0  0  0  0  0  0
  161.3170  208.7520  152.6000 C   0  0  0  0  0  0  0  0  0  0  0  0
  161.5810  208.4520  148.4250 C   0  0  0  0  0  3  0  0  0  0  0  0
  161.4610  207.3340  150.6010 C   0  0  0  0  0  0  0  0  0  0  0  0
  161.2860  206.3430  152.8710 C   0  0  0  0  0  3  0  0  0  0  0  0
  161.0520  210.3020  155.9780 C   0  0  0  0  0  3  0  0  0  0  0  0
  161.3590  207.4590  152.0180 C   0  0  0  0  0  0  0  0  0  0  0  0
  161.0250  207.8910  156.2080 C   0  0  0  0  0  3  0  0  0  0  0  0
  161.1360  207.7540  154.8210 C   0  0  0  0  0  0  0  0  0  0  0  0
  161.4870  206.0770  149.9170 C   0  0  0  0  0  0  0  0  0  0  0  0
  161.1780  206.4850  154.2530 C   0  0  0  0  0  3  0  0  0  0  0  0
  161.5540  206.0530  148.5140 C   0  0  0  0  0  3  0  0  0  0  0  0
  161.3900  209.8530  151.8090 N   0  0  0  0  0  0  0  0  0  0  0  0
  161.5080  209.7860  150.4610 C   0  0  0  0  0  0  0  0  0  0  0  0
  161.2060  208.9010  153.9970 C   0  0  0  0  0  0  0  0  0  0  0  0
  161.5970  207.2260  147.7740 C   0  0  0  0  0  3  0  0  0  0  0  0
  160.9840  209.1630  156.7860 C   0  0  0  0  0  3  0  0  0  0  0  0
  161.1620  210.1720  154.5910 C   0  0  0  0  0  3  0  0  0  0  0  0
  162.5340  212.4600  147.9660 C   0  0  0  0  0  0  0  0  0  0  0  0
  163.4040  212.6330  146.8980 O   0  0  0  0  0  1  0  0  0  0  0  0
  161.5850  211.0600  149.7130 C   0  0  0  0  0  0  0  0  0  0  0  0
  161.7190  213.5190  148.3730 C   0  0  0  0  0  3  0  0  0  0  0  0
  160.7870  212.1350  150.1230 C   0  0  0  0  0  3  0  0  0  0  0  0
  162.4760  211.2310  148.6360 C   0  0  0  0  0  0  0  0  0  0  0  0
  163.3080  210.2270  148.2610 F   0  0  0  0  0  0  0  0  0  0  0  0
  160.8420  213.3630  149.4580 C   0  0  0  0  0  0  0  0  0  0  0  0
  159.2340  214.3240  151.0730 C   0  0  0  0  0  1  0  0  0  0  0  0
  160.0220  214.4070  149.8930 O   0  0  0  0  0  0  0  0  0  0  0  0
  160.8310  203.7740  150.2080 C   0  0  0  0  0  3  0  0  0  0  0  0
  161.4430  204.8330  150.6360 N   0  0  0  0  0  0  0  0  0  0  0  0
  160.8400  202.5320  151.0220 C   0  0  0  0  0  2  0  0  0  0  0  0
  160.8310  201.3280  150.1050 C   0  0  0  0  0  1  0  0  0  0  0  0
  1 14  2  0  0  0  0
  1  4  1  0  0  0  0
  2 15  1  0  0  0  0
  3  1  1  0  0  0  0
  4  7  2  0  0  0  0
  5 11  2  0  0  0  0
  6 17  1  0  0  0  0
  7  2  1  0  0  0  0
  7  5  1  0  0  0  0
  8 17  2  0  0  0  0
  9  8  1  0  0  0  0
 10  4  1  0  0  0  0
 10 30  1  0  0  0  0
 11  9  1  0  0  0  0
 12 10  2  0  0  0  0
 13  2  2  0  0  0  0
 14 13  1  0  0  0  0
 15 18  1  0  0  0  0
 15  9  2  0  0  0  0
 16  3  2  0  0  0  0
 16 12  1  0  0  0  0
 18  6  2  0  0  0  0
 19 22  2  0  0  0  0
 19 24  1  0  0  0  0
 20 19  1  0  0  0  0
 21 23  1  0  0  0  0
 21 14  1  0  0  0  0
 22 26  1  0  0  0  0
 24 21  2  0  0  0  0
 25 24  1  0  0  0  0
 26 28  1  0  0  0  0
 26 23  2  0  0  0  0
 28 27  1  0  0  0  0
 29 30  2  0  0  0  0
 29 31  1  0  0  0  0
 32 31  1  0  0  0  0
M  END
>  <MODEL>
5

>  <REMARK>
 VINA RESULT:      -7.8      3.176      6.972
  Name = 
  4 active torsions:
  status: ('A' for Active; 'I' for Inactive)
    1  A    between atoms: C_13  and  C_18
    2  A    between atoms: C_14  and  N_29
    3  A    between atoms: O_15  and  C_26
    4  A    between atoms: C_16  and  C_27
                            x       y       z     vdW  Elec       q    Type
                         _______ _______ _______ _____ _____    ______ ____

>  <TORSDO>
F 4

$$$$
=
 OpenBabel11062408263D

 32 36  0  0  0  0  0  0  0  0999 V2000
  161.0870  208.3060  153.0280 C   0  0  0  0  0  0  0  0  0  0  0  0
  161.4470  210.0200  150.8510 C   0  0  0  0  0  0  0  0  0  0  0  0
  160.9520  207.4770  154.1500 C   0  0  0  0  0  3  0  0  0  0  0  0
  161.3480  207.7360  151.7460 C   0  0  0  0  0  0  0  0  0  0  0  0
  161.7880  208.1560  149.3390 C   0  0  0  0  0  3  0  0  0  0  0  0
  161.7400  213.1730  148.8880 C   0  0  0  0  0  3  0  0  0  0  0  0
  161.5260  208.6180  150.6410 C   0  0  0  0  0  0  0  0  0  0  0  0
  162.0740  211.2850  147.4090 C   0  0  0  0  0  3  0  0  0  0  0  0
  161.8920  210.4080  148.4810 C   0  0  0  0  0  0  0  0  0  0  0  0
  161.4310  206.3110  151.6420 C   0  0  0  0  0  0  0  0  0  0  0  0
  161.9680  209.0340  148.2730 C   0  0  0  0  0  3  0  0  0  0  0  0
  161.2770  205.5220  152.7940 C   0  0  0  0  0  3  0  0  0  0  0  0
  161.1900  210.5040  152.0930 N   0  0  0  0  0  0  0  0  0  0  0  0
  160.9940  209.7060  153.1700 C   0  0  0  0  0  0  0  0  0  0  0  0
  161.6290  210.9120  149.7760 C   0  0  0  0  0  0  0  0  0  0  0  0
  161.0440  206.0960  154.0360 C   0  0  0  0  0  3  0  0  0  0  0  0
  161.9970  212.6660  147.6120 C   0  0  0  0  0  3  0  0  0  0  0  0
  161.5570  212.3010  149.9650 C   0  0  0  0  0  3  0  0  0  0  0  0
  159.1750  211.2560  156.1220 C   0  0  0  0  0  0  0  0  0  0  0  0
  157.8800  211.5090  156.5540 O   0  0  0  0  0  1  0  0  0  0  0  0
  160.7140  210.3580  154.4680 C   0  0  0  0  0  0  0  0  0  0  0  0
  160.2570  211.6460  156.9150 C   0  0  0  0  0  3  0  0  0  0  0  0
  161.7910  210.7710  155.2640 C   0  0  0  0  0  3  0  0  0  0  0  0
  159.3980  210.6190  154.8950 C   0  0  0  0  0  0  0  0  0  0  0  0
  158.3390  210.2890  154.1130 F   0  0  0  0  0  0  0  0  0  0  0  0
  161.5720  211.4080  156.4880 C   0  0  0  0  0  0  0  0  0  0  0  0
  163.8980  211.0730  157.2600 C   0  0  0  0  0  1  0  0  0  0  0  0
  162.6740  211.7950  157.2560 O   0  0  0  0  0  0  0  0  0  0  0  0
  161.1430  204.5340  150.0370 C   0  0  0  0  0  3  0  0  0  0  0  0
  161.6720  205.6650  150.3810 N   0  0  0  0  0  0  0  0  0  0  0  0
  161.4530  203.9430  148.7100 C   0  0  0  0  0  2  0  0  0  0  0  0
  161.4030  205.0250  147.6520 C   0  0  0  0  0  1  0  0  0  0  0  0
  1 14  1  0  0  0  0
  1  3  2  0  0  0  0
  2 13  1  0  0  0  0
  4  1  1  0  0  0  0
  5  7  2  0  0  0  0
  6 18  2  0  0  0  0
  7  2  1  0  0  0  0
  7  4  1  0  0  0  0
  8 17  2  0  0  0  0
  8  9  1  0  0  0  0
  9 15  1  0  0  0  0
 10  4  2  0  0  0  0
 10 12  1  0  0  0  0
 11  9  2  0  0  0  0
 11  5  1  0  0  0  0
 12 16  2  0  0  0  0
 13 14  2  0  0  0  0
 14 21  1  0  0  0  0
 15 18  1  0  0  0  0
 15  2  2  0  0  0  0
 16  3  1  0  0  0  0
 17  6  1  0  0  0  0
 19 20  1  0  0  0  0
 19 22  1  0  0  0  0
 21 24  1  0  0  0  0
 21 23  2  0  0  0  0
 23 26  1  0  0  0  0
 24 19  2  0  0  0  0
 25 24  1  0  0  0  0
 26 22  2  0  0  0  0
 26 28  1  0  0  0  0
 28 27  1  0  0  0  0
 29 30  2  0  0  0  0
 30 10  1  0  0  0  0
 31 29  1  0  0  0  0
 32 31  1  0  0  0  0
M  END
>  <MODEL>
6

>  <REMARK>
 VINA RESULT:      -7.7      4.341      7.644
  Name = 
  4 active torsions:
  status: ('A' for Active; 'I' for Inactive)
    1  A    between atoms: C_13  and  C_18
    2  A    between atoms: C_14  and  N_29
    3  A    between atoms: O_15  and  C_26
    4  A    between atoms: C_16  and  C_27
                            x       y       z     vdW  Elec       q    Type
                         _______ _______ _______ _____ _____    ______ ____

>  <TORSDO>
F 4

$$$$
=
 OpenBabel11062408263D

 32 36  0  0  0  0  0  0  0  0999 V2000
  161.2370  205.3010  150.7670 C   0  0  0  0  0  0  0  0  0  0  0  0
  161.5510  207.9840  150.0580 C   0  0  0  0  0  0  0  0  0  0  0  0
  161.0290  203.9510  151.0850 C   0  0  0  0  0  3  0  0  0  0  0  0
  161.2720  206.2810  151.8040 C   0  0  0  0  0  0  0  0  0  0  0  0
  161.4840  208.6870  152.3770 C   0  0  0  0  0  3  0  0  0  0  0  0
  161.9680  211.0210  147.9390 C   0  0  0  0  0  3  0  0  0  0  0  0
  161.4370  207.6470  151.4320 C   0  0  0  0  0  0  0  0  0  0  0  0
  161.8980  211.6830  150.2670 C   0  0  0  0  0  3  0  0  0  0  0  0
  161.7460  210.3460  150.6470 C   0  0  0  0  0  0  0  0  0  0  0  0
  161.1260  205.8410  153.1570 C   0  0  0  0  0  0  0  0  0  0  0  0
  161.6370  210.0180  151.9940 C   0  0  0  0  0  3  0  0  0  0  0  0
  160.9320  204.4760  153.4260 C   0  0  0  0  0  3  0  0  0  0  0  0
  161.5160  207.0080  149.1160 N   0  0  0  0  0  0  0  0  0  0  0  0
  161.3810  205.6940  149.4200 C   0  0  0  0  0  0  0  0  0  0  0  0
  161.7040  209.3290  149.6650 C   0  0  0  0  0  0  0  0  0  0  0  0
  160.8810  203.5400  152.4020 C   0  0  0  0  0  3  0  0  0  0  0  0
  162.0100  212.0190  148.9150 C   0  0  0  0  0  3  0  0  0  0  0  0
  161.8160  209.6820  148.3110 C   0  0  0  0  0  3  0  0  0  0  0  0
  161.1290  202.4690  147.4300 C   0  0  0  0  0  0  0  0  0  0  0  0
  160.8760  201.1180  147.6300 O   0  0  0  0  0  1  0  0  0  0  0  0
  161.3640  204.7270  148.3010 C   0  0  0  0  0  0  0  0  0  0  0  0
  161.4020  202.9390  146.1430 C   0  0  0  0  0  3  0  0  0  0  0  0
  161.6550  205.1810  147.0090 C   0  0  0  0  0  3  0  0  0  0  0  0
  161.1160  203.3570  148.5130 C   0  0  0  0  0  0  0  0  0  0  0  0
  160.8970  202.8790  149.7650 F   0  0  0  0  0  0  0  0  0  0  0  0
  161.6700  204.2980  145.9260 C   0  0  0  0  0  0  0  0  0  0  0  0
  161.2040  205.8410  144.0490 C   0  0  0  0  0  1  0  0  0  0  0  0
  161.9550  204.7950  144.6510 O   0  0  0  0  0  0  0  0  0  0  0  0
  160.2550  206.8510  155.1670 C   0  0  0  0  0  3  0  0  0  0  0  0
  161.1710  206.7690  154.2550 N   0  0  0  0  0  0  0  0  0  0  0  0
  160.3880  207.8430  156.2640 C   0  0  0  0  0  2  0  0  0  0  0  0
  161.6940  208.5940  156.1100 C   0  0  0  0  0  1  0  0  0  0  0  0
  1  3  2  0  0  0  0
  1  4  1  0  0  0  0
  2  7  1  0  0  0  0
  3 16  1  0  0  0  0
  4 10  2  0  0  0  0
  6 18  2  0  0  0  0
  6 17  1  0  0  0  0
  7  4  1  0  0  0  0
  7  5  2  0  0  0  0
  8  9  1  0  0  0  0
  9 11  2  0  0  0  0
 10 12  1  0  0  0  0
 10 30  1  0  0  0  0
 11  5  1  0  0  0  0
 13 14  2  0  0  0  0
 13  2  1  0  0  0  0
 14  1  1  0  0  0  0
 15  2  2  0  0  0  0
 15  9  1  0  0  0  0
 16 12  2  0  0  0  0
 17  8  2  0  0  0  0
 18 15  1  0  0  0  0
 19 20  1  0  0  0  0
 19 24  1  0  0  0  0
 21 24  2  0  0  0  0
 21 14  1  0  0  0  0
 22 19  2  0  0  0  0
 23 21  1  0  0  0  0
 24 25  1  0  0  0  0
 26 22  1  0  0  0  0
 26 23  2  0  0  0  0
 27 28  1  0  0  0  0
 28 26  1  0  0  0  0
 29 31  1  0  0  0  0
 30 29  2  0  0  0  0
 32 31  1  0  0  0  0
M  END
>  <MODEL>
7

>  <REMARK>
 VINA RESULT:      -7.3      1.102      2.170
  Name = 
  4 active torsions:
  status: ('A' for Active; 'I' for Inactive)
    1  A    between atoms: C_13  and  C_18
    2  A    between atoms: C_14  and  N_29
    3  A    between atoms: O_15  and  C_26
    4  A    between atoms: C_16  and  C_27
                            x       y       z     vdW  Elec       q    Type
                         _______ _______ _______ _____ _____    ______ ____

>  <TORSDO>
F 4

$$$$
=
 OpenBabel11062408263D

 32 36  0  0  0  0  0  0  0  0999 V2000
  161.3160  210.0980  150.4930 C   0  0  0  0  0  0  0  0  0  0  0  0
  161.4740  207.6420  149.1710 C   0  0  0  0  0  0  0  0  0  0  0  0
  161.2930  211.3450  151.1320 C   0  0  0  0  0  3  0  0  0  0  0  0
  161.1820  208.9010  151.2580 C   0  0  0  0  0  0  0  0  0  0  0  0
  161.1400  206.4190  151.2370 C   0  0  0  0  0  3  0  0  0  0  0  0
  161.8660  205.1700  146.4100 C   0  0  0  0  0  3  0  0  0  0  0  0
  161.2590  207.6530  150.5730 C   0  0  0  0  0  0  0  0  0  0  0  0
  161.5280  203.9840  148.4940 C   0  0  0  0  0  3  0  0  0  0  0  0
  161.4400  205.2000  149.1770 C   0  0  0  0  0  0  0  0  0  0  0  0
  160.9900  209.0180  152.6710 C   0  0  0  0  0  0  0  0  0  0  0  0
  161.2270  205.2080  150.5520 C   0  0  0  0  0  3  0  0  0  0  0  0
  160.9620  210.2910  153.2640 C   0  0  0  0  0  3  0  0  0  0  0  0
  161.5890  208.8130  148.4950 N   0  0  0  0  0  0  0  0  0  0  0  0
  161.5030  210.0240  149.0960 C   0  0  0  0  0  0  0  0  0  0  0  0
  161.5650  206.4210  148.4730 C   0  0  0  0  0  0  0  0  0  0  0  0
  161.1150  211.4430  152.5050 C   0  0  0  0  0  3  0  0  0  0  0  0
  161.7400  203.9690  147.1130 C   0  0  0  0  0  3  0  0  0  0  0  0
  161.7790  206.3900  147.0870 C   0  0  0  0  0  3  0  0  0  0  0  0
  162.8200  213.2370  147.5560 C   0  0  0  0  0  0  0  0  0  0  0  0
  163.9060  214.0950  147.6640 O   0  0  0  0  0  1  0  0  0  0  0  0
  161.6380  211.2270  148.2460 C   0  0  0  0  0  0  0  0  0  0  0  0
  161.8030  213.5190  146.6400 C   0  0  0  0  0  3  0  0  0  0  0  0
  160.6170  211.5310  147.3370 C   0  0  0  0  0  3  0  0  0  0  0  0
  162.7390  212.0970  148.3660 C   0  0  0  0  0  0  0  0  0  0  0  0
  163.7090  211.8610  149.2860 F   0  0  0  0  0  0  0  0  0  0  0  0
  160.6940  212.6680  146.5280 C   0  0  0  0  0  0  0  0  0  0  0  0
  159.5850  212.3210  144.3440 C   0  0  0  0  0  1  0  0  0  0  0  0
  159.6580  212.9290  145.6270 O   0  0  0  0  0  0  0  0  0  0  0  0
  160.6210  207.9080  154.7810 C   0  0  0  0  0  3  0  0  0  0  0  0
  160.8280  207.8570  153.5030 N   0  0  0  0  0  0  0  0  0  0  0  0
  160.4650  206.6520  155.5580 C   0  0  0  0  0  2  0  0  0  0  0  0
  160.1240  206.9880  156.9950 C   0  0  0  0  0  1  0  0  0  0  0  0
  1  3  2  0  0  0  0
  1  4  1  0  0  0  0
  2  7  1  0  0  0  0
  3 16  1  0  0  0  0
  4 10  2  0  0  0  0
  6 18  2  0  0  0  0
  6 17  1  0  0  0  0
  7  5  2  0  0  0  0
  7  4  1  0  0  0  0
  8  9  1  0  0  0  0
  9 11  2  0  0  0  0
 10 12  1  0  0  0  0
 10 30  1  0  0  0  0
 11  5  1  0  0  0  0
 13 14  2  0  0  0  0
 13  2  1  0  0  0  0
 14  1  1  0  0  0  0
 15  2  2  0  0  0  0
 15  9  1  0  0  0  0
 16 12  2  0  0  0  0
 17  8  2  0  0  0  0
 18 15  1  0  0  0  0
 19 20  1  0  0  0  0
 19 24  1  0  0  0  0
 21 24  2  0  0  0  0
 21 14  1  0  0  0  0
 22 19  2  0  0  0  0
 23 21  1  0  0  0  0
 24 25  1  0  0  0  0
 26 22  1  0  0  0  0
 26 23  2  0  0  0  0
 27 28  1  0  0  0  0
 28 26  1  0  0  0  0
 29 31  1  0  0  0  0
 30 29  2  0  0  0  0
 31 32  1  0  0  0  0
M  END
>  <MODEL>
8

>  <REMARK>
 VINA RESULT:      -7.2      3.069      6.544
  Name = 
  4 active torsions:
  status: ('A' for Active; 'I' for Inactive)
    1  A    between atoms: C_13  and  C_18
    2  A    between atoms: C_14  and  N_29
    3  A    between atoms: O_15  and  C_26
    4  A    between atoms: C_16  and  C_27
                            x       y       z     vdW  Elec       q    Type
                         _______ _______ _______ _____ _____    ______ ____

>  <TORSDO>
F 4

$$$$
