=
 OpenBabel11062408573D

 55 59  0  0  1  0  0  0  0  0999 V2000
  160.8560  204.1850  146.6760 O   0  0  0  0  0  0  0  0  0  0  0  0
  161.8660  205.6630  145.1100 C   0  0  1  0  0  3  0  0  0  0  0  0
  161.2520  203.4170  145.5730 C   0  0  0  0  0  2  0  0  0  0  0  0
  160.8450  205.5130  146.2170 C   0  0  2  0  0  3  0  0  0  0  0  0
  162.1840  204.2480  144.7220 C   0  0  0  0  0  2  0  0  0  0  0  0
  161.2440  206.4040  143.9410 C   0  0  0  0  0  2  0  0  0  0  0  0
  161.7740  205.8420  142.6350 C   0  0  0  0  0  2  0  0  0  0  0  0
  161.7000  206.8910  141.5440 C   0  0  0  0  0  2  0  0  0  0  0  0
  162.5310  206.2980  140.0390 S   0  0  0  0  0  0  0  0  0  0  0  0
  162.2540  207.7770  139.2060 O   0  0  0  0  0  0  0  0  0  0  0  0
  161.0280  208.2370  139.6930 C   0  0  0  0  0  2  0  0  0  0  0  0
  159.9260  208.1000  137.5940 O   0  0  0  0  0  1  0  0  0  0  0  0
  160.2770  208.9950  138.6040 C   0  0  0  0  0  0  0  0  0  0  0  0
  159.1120  209.5530  139.1300 O   0  0  0  0  0  1  0  0  0  0  0  0
  161.1560  210.0850  137.9780 C   0  0  0  0  0  2  0  0  0  0  0  0
  161.0820  211.5120  138.5620 C   0  0  2  0  0  3  0  0  0  0  0  0
  160.6620  212.4590  137.6270 O   0  0  0  0  0  1  0  0  0  0  0  0
  162.2480  212.0200  139.4640 C   0  0  2  0  0  0  0  0  0  0  0  0
  160.3600  213.9750  140.4030 O   0  0  0  0  0  1  0  0  0  0  0  0
  162.2200  213.1640  141.7850 C   0  0  1  0  0  3  0  0  0  0  0  0
  159.7040  212.6080  142.3770 C   0  0  0  0  0  1  0  0  0  0  0  0
  160.7570  213.0530  141.3720 C   0  0  1  0  0  0  0  0  0  0  0  0
  162.4740  212.6950  143.2070 C   0  0  0  0  0  1  0  0  0  0  0  0
  161.7480  211.9760  140.9360 C   0  0  1  0  0  3  0  0  0  0  0  0
  163.3300  213.7190  137.8620 C   0  0  0  0  0  2  0  0  0  0  0  0
  164.0430  213.8610  139.1900 C   0  0  0  0  0  2  0  0  0  0  0  0
  162.5610  213.5170  139.1570 C   0  0  0  0  0  3  0  0  0  0  0  0
  163.3900  211.1790  139.3180 O   0  0  0  0  0  0  0  0  0  0  0  0
  163.5300  210.4630  140.4210 O   0  0  0  0  0  1  0  0  0  0  0  0
  161.1060  206.5040  147.3540 C   0  0  2  0  0  3  0  0  0  0  0  0
  162.5910  206.6480  147.6790 C   0  0  0  0  0  2  0  0  0  0  0  0
  163.2290  207.8290  149.6410 O   0  0  0  0  0  1  0  0  0  0  0  0
  162.8930  208.0030  148.2980 C   0  0  2  0  0  3  0  0  0  0  0  0
  161.6750  208.9060  148.1870 C   0  0  0  0  0  2  0  0  0  0  0  0
  161.9860  210.2800  148.7470 C   0  0  0  0  0  1  0  0  0  0  0  0
  160.3420  206.0690  148.5920 C   0  0  0  0  0  2  0  0  0  0  0  0
  160.0190  201.6410  148.9470 C   0  0  0  0  0  1  0  0  0  0  0  0
  160.4600  202.8520  151.2110 C   0  0  2  0  0  3  0  0  0  0  0  0
  160.2320  202.9560  149.6760 C   0  0  1  0  0  3  0  0  0  0  0  0
  160.7550  205.3860  150.9770 C   0  0  2  0  0  3  0  0  0  0  0  0
  161.0900  204.1280  151.7900 C   0  0  0  0  0  2  0  0  0  0  0  0
  161.3090  203.8010  149.0110 C   0  0  0  0  0  2  0  0  0  0  0  0
  161.2410  205.2520  149.5120 C   0  0  1  0  0  3  0  0  0  0  0  0
  161.3410  206.4900  153.1690 C   0  0  0  0  0  2  0  0  0  0  0  0
  160.5740  207.8840  151.3780 C   0  0  0  0  0  2  0  0  0  0  0  0
  160.6110  208.7010  152.5800 N   0  0  0  0  0  2  0  0  0  0  0  0
  160.6880  207.7540  153.6840 C   0  0  2  0  0  3  0  0  0  0  0  0
  161.3650  206.6210  151.6600 C   0  0  2  0  0  3  0  0  0  0  0  0
  161.5160  208.3380  154.8170 C   0  0  0  0  0  2  0  0  0  0  0  0
  160.9380  209.5920  155.2740 N   0  0  0  0  0  0  0  0  0  0  0  0
  162.0060  210.5740  155.2490 C   0  0  0  0  0  1  0  0  0  0  0  0
  160.5770  209.4110  156.6690 C   0  0  0  0  0  1  0  0  0  0  0  0
  161.2480  200.6730  150.6380 C   0  0  0  0  0  1  0  0  0  0  0  0
  161.2430  201.6950  151.6720 N   0  0  0  0  0  0  0  0  0  0  0  0
  162.5280  202.0630  151.9080 O   0  0  0  0  0  1  0  0  0  0  0  0
  2  6  1  6  0  0  0
  2  4  1  0  0  0  0
  3  1  1  0  0  0  0
  4  1  1  0  0  0  0
  4 30  1  1  0  0  0
  5  2  1  0  0  0  0
  5  3  1  0  0  0  0
  7  6  1  0  0  0  0
  8  7  1  0  0  0  0
  9  8  1  0  0  0  0
 10 11  1  0  0  0  0
 10  9  1  0  0  0  0
 12 13  1  0  0  0  0
 13 14  1  0  0  0  0
 13 11  1  0  0  0  0
 15 16  1  0  0  0  0
 15 13  1  0  0  0  0
 16 17  1  6  0  0  0
 16 18  1  0  0  0  0
 18 28  1  6  0  0  0
 19 22  1  0  0  0  0
 20 23  1  1  0  0  0
 22 20  1  0  0  0  0
 22 21  1  1  0  0  0
 24 18  1  6  0  0  0
 24 22  1  0  0  0  0
 24 20  1  0  0  0  0
 25 27  1  0  0  0  0
 25 26  1  0  0  0  0
 27 26  1  0  0  0  0
 27 18  1  0  0  0  0
 28 29  1  0  0  0  0
 30 31  1  1  0  0  0
 30 36  1  0  0  0  0
 31 33  1  0  0  0  0
 33 32  1  1  0  0  0
 34 33  1  0  0  0  0
 34 35  1  0  0  0  0
 38 54  1  6  0  0  0
 38 41  1  0  0  0  0
 39 37  1  6  0  0  0
 39 38  1  0  0  0  0
 40 48  1  0  0  0  0
 40 41  1  1  0  0  0
 42 43  1  0  0  0  0
 42 39  1  0  0  0  0
 43 36  1  6  0  0  0
 43 40  1  0  0  0  0
 44 47  1  0  0  0  0
 45 46  1  0  0  0  0
 46 47  1  0  0  0  0
 47 49  1  1  0  0  0
 48 45  1  1  0  0  0
 48 44  1  0  0  0  0
 49 50  1  0  0  0  0
 50 52  1  0  0  0  0
 51 50  1  0  0  0  0
 53 54  1  0  0  0  0
 54 55  1  0  0  0  0
M  END
>  <MODEL>
1

>  <REMARK>
 VINA RESULT:      -4.8      0.000      0.000
  Name = 
  23 active torsions:
  status: ('A' for Active; 'I' for Inactive)
    1  A    between atoms: C_1  and  C_21
    2  A    between atoms: C_1  and  O_29
    3  A    between atoms: C_1  and  C_38
    4  A    between atoms: C_1  and  C_53
    5  A    between atoms: C_2  and  C_19
    6  A    between atoms: C_2  and  C_28
    7  A    between atoms: C_2  and  C_44
    8  A    between atoms: C_4  and  C_40
    9  A    between atoms: C_8  and  C_20
   10  A    between atoms: C_8  and  O_43
   11  A    between atoms: N_10  and  C_32
   12  A    between atoms: C_16  and  N_17
   13  A    between atoms: C_19  and  C_40
   14  A    between atoms: C_20  and  C_42
   15  A    between atoms: C_21  and  C_42
   16  A    between atoms: C_27  and  C_31
   17  A    between atoms: C_28  and  C_49
   18  A    between atoms: C_31  and  C_54
   19  A    between atoms: C_32  and  C_48
   20  A    between atoms: C_33  and  C_52
   21  A    between atoms: S_35  and  O_43
   22  A    between atoms: S_35  and  C_51
   23  A    between atoms: C_51  and  C_54
                            x       y       z     vdW  Elec       q    Type
                         _______ _______ _______ _____ _____    ______ ____

>  <TORSDO>
F 23

$$$$
=
 OpenBabel11062408573D

 55 59  0  0  1  0  0  0  0  0999 V2000
  161.3370  208.3640  149.0680 O   0  0  0  0  0  0  0  0  0  0  0  0
  162.0020  209.9670  150.6940 C   0  0  1  0  0  3  0  0  0  0  0  0
  161.8830  209.4560  148.3790 C   0  0  0  0  0  2  0  0  0  0  0  0
  161.0410  208.8480  150.3530 C   0  0  2  0  0  3  0  0  0  0  0  0
  162.6120  210.3300  149.3710 C   0  0  0  0  0  2  0  0  0  0  0  0
  161.2310  211.1450  151.2610 C   0  0  0  0  0  2  0  0  0  0  0  0
  160.4460  211.8250  150.1560 C   0  0  0  0  0  2  0  0  0  0  0  0
  160.5400  213.3320  150.2970 C   0  0  0  0  0  2  0  0  0  0  0  0
  161.0950  214.0800  148.7350 S   0  0  0  0  0  0  0  0  0  0  0  0
  159.6460  213.6480  147.9190 O   0  0  0  0  0  0  0  0  0  0  0  0
  159.7450  214.2600  146.6660 C   0  0  0  0  0  2  0  0  0  0  0  0
  160.3480  212.0960  145.8930 O   0  0  0  0  0  1  0  0  0  0  0  0
  159.5970  213.2230  145.5580 C   0  0  0  0  0  0  0  0  0  0  0  0
  158.2600  212.8460  145.4340 O   0  0  0  0  0  1  0  0  0  0  0  0
  160.1280  213.7570  144.2210 C   0  0  0  0  0  2  0  0  0  0  0  0
  159.8310  212.9510  142.9400 C   0  0  2  0  0  3  0  0  0  0  0  0
  160.2030  211.6090  143.0450 O   0  0  0  0  0  1  0  0  0  0  0  0
  160.1830  213.5750  141.5550 C   0  0  2  0  0  0  0  0  0  0  0  0
  160.0320  214.0570  138.7240 O   0  0  0  0  0  1  0  0  0  0  0  0
  159.1090  212.0370  139.7730 C   0  0  1  0  0  3  0  0  0  0  0  0
  161.1960  211.9320  138.1530 C   0  0  0  0  0  1  0  0  0  0  0  0
  160.2710  212.7250  139.0660 C   0  0  1  0  0  0  0  0  0  0  0  0
  159.0750  210.5360  139.5400 C   0  0  0  0  0  1  0  0  0  0  0  0
  160.3790  212.4010  140.5540 C   0  0  1  0  0  3  0  0  0  0  0  0
  162.7170  213.4890  141.1120 C   0  0  0  0  0  2  0  0  0  0  0  0
  162.5440  213.7060  142.6010 C   0  0  0  0  0  2  0  0  0  0  0  0
  161.5510  214.3190  141.6250 C   0  0  0  0  0  3  0  0  0  0  0  0
  159.1220  214.4170  141.1080 O   0  0  0  0  0  0  0  0  0  0  0  0
  158.0200  214.0900  141.7620 O   0  0  0  0  0  1  0  0  0  0  0  0
  161.0890  207.7330  151.4000 C   0  0  2  0  0  3  0  0  0  0  0  0
  161.6490  208.2090  152.7400 C   0  0  0  0  0  2  0  0  0  0  0  0
  160.0320  209.5370  153.8670 O   0  0  0  0  0  1  0  0  0  0  0  0
  160.5680  208.2500  153.8080 C   0  0  2  0  0  3  0  0  0  0  0  0
  161.1600  207.8790  155.1580 C   0  0  0  0  0  2  0  0  0  0  0  0
  160.7440  208.8890  156.2090 C   0  0  0  0  0  1  0  0  0  0  0  0
  161.9170  206.5750  150.8720 C   0  0  0  0  0  2  0  0  0  0  0  0
  160.8070  202.8550  153.0560 C   0  0  0  0  0  1  0  0  0  0  0  0
  161.2890  202.4880  150.5220 C   0  0  2  0  0  3  0  0  0  0  0  0
  161.2070  203.4700  151.7260 C   0  0  1  0  0  3  0  0  0  0  0  0
  161.8180  204.6520  149.2560 C   0  0  2  0  0  3  0  0  0  0  0  0
  161.2620  203.2220  149.1740 C   0  0  0  0  0  2  0  0  0  0  0  0
  160.3590  204.6890  151.3910 C   0  0  0  0  0  2  0  0  0  0  0  0
  161.0140  205.5080  150.2670 C   0  0  1  0  0  3  0  0  0  0  0  0
  160.6890  204.7490  147.0020 C   0  0  0  0  0  2  0  0  0  0  0  0
  163.0730  204.9600  147.0740 C   0  0  0  0  0  2  0  0  0  0  0  0
  162.6920  204.8040  145.6800 N   0  0  0  0  0  2  0  0  0  0  0  0
  161.3300  204.2900  145.7100 C   0  0  2  0  0  3  0  0  0  0  0  0
  161.8170  205.2880  147.8570 C   0  0  2  0  0  3  0  0  0  0  0  0
  160.5420  204.8240  144.5250 C   0  0  0  0  0  2  0  0  0  0  0  0
  159.7160  203.7730  143.9510 N   0  0  0  0  0  0  0  0  0  0  0  0
  158.3420  204.0970  144.2860 C   0  0  0  0  0  1  0  0  0  0  0  0
  160.0350  202.5460  144.6580 C   0  0  0  0  0  1  0  0  0  0  0  0
  159.3960  201.6210  149.3560 C   0  0  0  0  0  1  0  0  0  0  0  0
  160.2820  201.4160  150.4910 N   0  0  0  0  0  0  0  0  0  0  0  0
  160.8870  200.2110  150.3410 O   0  0  0  0  0  1  0  0  0  0  0  0
  1  4  1  0  0  0  0
  2  6  1  6  0  0  0
  3  1  1  0  0  0  0
  3  5  1  0  0  0  0
  4  2  1  0  0  0  0
  4 30  1  1  0  0  0
  5  2  1  0  0  0  0
  7  8  1  0  0  0  0
  7  6  1  0  0  0  0
  9  8  1  0  0  0  0
 10  9  1  0  0  0  0
 11 10  1  0  0  0  0
 13 12  1  0  0  0  0
 13 11  1  0  0  0  0
 14 13  1  0  0  0  0
 15 13  1  0  0  0  0
 16 17  1  1  0  0  0
 16 15  1  0  0  0  0
 18 28  1  6  0  0  0
 18 27  1  0  0  0  0
 18 16  1  0  0  0  0
 19 22  1  0  0  0  0
 20 23  1  6  0  0  0
 20 24  1  0  0  0  0
 22 21  1  6  0  0  0
 22 20  1  0  0  0  0
 22 24  1  0  0  0  0
 24 18  1  1  0  0  0
 25 27  1  0  0  0  0
 25 26  1  0  0  0  0
 27 26  1  0  0  0  0
 28 29  1  0  0  0  0
 30 36  1  6  0  0  0
 30 31  1  0  0  0  0
 31 33  1  0  0  0  0
 33 32  1  1  0  0  0
 33 34  1  0  0  0  0
 34 35  1  0  0  0  0
 38 54  1  6  0  0  0
 38 39  1  0  0  0  0
 39 37  1  1  0  0  0
 40 41  1  6  0  0  0
 40 43  1  0  0  0  0
 41 38  1  0  0  0  0
 42 39  1  0  0  0  0
 43 36  1  1  0  0  0
 43 42  1  0  0  0  0
 45 48  1  0  0  0  0
 46 47  1  0  0  0  0
 46 45  1  0  0  0  0
 47 49  1  6  0  0  0
 47 44  1  0  0  0  0
 48 44  1  6  0  0  0
 48 40  1  0  0  0  0
 50 51  1  0  0  0  0
 50 49  1  0  0  0  0
 50 52  1  0  0  0  0
 53 54  1  0  0  0  0
 55 54  1  0  0  0  0
M  END
>  <MODEL>
2

>  <REMARK>
 VINA RESULT:      -3.7      3.209      6.770
  Name = 
  23 active torsions:
  status: ('A' for Active; 'I' for Inactive)
    1  A    between atoms: C_1  and  C_21
    2  A    between atoms: C_1  and  O_29
    3  A    between atoms: C_1  and  C_38
    4  A    between atoms: C_1  and  C_53
    5  A    between atoms: C_2  and  C_19
    6  A    between atoms: C_2  and  C_28
    7  A    between atoms: C_2  and  C_44
    8  A    between atoms: C_4  and  C_40
    9  A    between atoms: C_8  and  C_20
   10  A    between atoms: C_8  and  O_43
   11  A    between atoms: N_10  and  C_32
   12  A    between atoms: C_16  and  N_17
   13  A    between atoms: C_19  and  C_40
   14  A    between atoms: C_20  and  C_42
   15  A    between atoms: C_21  and  C_42
   16  A    between atoms: C_27  and  C_31
   17  A    between atoms: C_28  and  C_49
   18  A    between atoms: C_31  and  C_54
   19  A    between atoms: C_32  and  C_48
   20  A    between atoms: C_33  and  C_52
   21  A    between atoms: S_35  and  O_43
   22  A    between atoms: S_35  and  C_51
   23  A    between atoms: C_51  and  C_54
                            x       y       z     vdW  Elec       q    Type
                         _______ _______ _______ _____ _____    ______ ____

>  <TORSDO>
F 23

$$$$
=
 OpenBabel11062408573D

 55 59  0  0  1  0  0  0  0  0999 V2000
  162.6460  213.5860  149.2600 O   0  0  0  0  0  0  0  0  0  0  0  0
  160.9180  213.1020  147.6990 C   0  0  1  0  0  3  0  0  0  0  0  0
  162.8170  214.4470  148.1670 C   0  0  0  0  0  2  0  0  0  0  0  0
  161.8120  212.5570  148.7920 C   0  0  2  0  0  3  0  0  0  0  0  0
  161.5640  214.4040  147.3250 C   0  0  0  0  0  2  0  0  0  0  0  0
  160.9240  212.1510  146.5160 C   0  0  0  0  0  2  0  0  0  0  0  0
  159.7380  212.4430  145.6160 C   0  0  0  0  0  2  0  0  0  0  0  0
  159.8070  213.8680  145.1050 C   0  0  0  0  0  2  0  0  0  0  0  0
  161.4650  214.2260  144.4490 S   0  0  0  0  0  0  0  0  0  0  0  0
  161.5530  212.7200  143.6250 O   0  0  0  0  0  0  0  0  0  0  0  0
  161.6370  213.0580  142.2720 C   0  0  0  0  0  2  0  0  0  0  0  0
  161.7610  210.9750  141.1380 O   0  0  0  0  0  1  0  0  0  0  0  0
  160.8960  212.0320  141.4220 C   0  0  0  0  0  0  0  0  0  0  0  0
  159.8010  211.5320  142.1270 O   0  0  0  0  0  1  0  0  0  0  0  0
  160.4420  212.6370  140.0880 C   0  0  0  0  0  2  0  0  0  0  0  0
  160.0410  211.6780  138.9470 C   0  0  2  0  0  3  0  0  0  0  0  0
  161.1090  211.3610  138.1050 O   0  0  0  0  0  1  0  0  0  0  0  0
  158.7110  211.9350  138.1750 C   0  0  2  0  0  0  0  0  0  0  0  0
  156.4540  213.5470  137.4150 O   0  0  0  0  0  1  0  0  0  0  0  0
  157.5900  213.7980  139.5780 C   0  0  1  0  0  3  0  0  0  0  0  0
  155.1190  212.8740  139.4050 C   0  0  0  0  0  1  0  0  0  0  0  0
  156.4640  213.1750  138.7600 C   0  0  1  0  0  0  0  0  0  0  0  0
  157.2380  213.9600  141.0470 C   0  0  0  0  0  1  0  0  0  0  0  0
  157.6280  212.3040  139.2280 C   0  0  1  0  0  3  0  0  0  0  0  0
  157.0370  209.9800  138.1900 C   0  0  0  0  0  2  0  0  0  0  0  0
  158.4170  209.3710  138.3220 C   0  0  0  0  0  2  0  0  0  0  0  0
  158.2190  210.6260  137.4860 C   0  0  0  0  0  3  0  0  0  0  0  0
  158.8740  213.0120  137.2550 O   0  0  0  0  0  0  0  0  0  0  0  0
  160.1650  213.1680  137.0110 O   0  0  0  0  0  1  0  0  0  0  0  0
  160.9910  211.9370  149.9260 C   0  0  2  0  0  3  0  0  0  0  0  0
  160.4190  212.9860  150.8780 C   0  0  0  0  0  2  0  0  0  0  0  0
  158.7640  213.6390  149.3020 O   0  0  0  0  0  1  0  0  0  0  0  0
  158.9390  213.2170  150.6200 C   0  0  2  0  0  3  0  0  0  0  0  0
  158.4060  214.2760  151.5730 C   0  0  0  0  0  2  0  0  0  0  0  0
  158.7000  213.8860  153.0080 C   0  0  0  0  0  1  0  0  0  0  0  0
  161.8530  210.9510  150.6960 C   0  0  0  0  0  2  0  0  0  0  0  0
  160.0680  211.6040  154.7240 C   0  0  0  0  0  1  0  0  0  0  0  0
  160.9500  209.1830  154.3400 C   0  0  2  0  0  3  0  0  0  0  0  0
  160.7440  210.6210  153.7840 C   0  0  1  0  0  3  0  0  0  0  0  0
  161.8730  208.7910  151.9820 C   0  0  2  0  0  3  0  0  0  0  0  0
  161.2210  208.1640  153.2230 C   0  0  0  0  0  2  0  0  0  0  0  0
  160.0740  210.5970  152.4180 C   0  0  0  0  0  2  0  0  0  0  0  0
  160.9820  209.9080  151.3850 C   0  0  1  0  0  3  0  0  0  0  0  0
  160.9800  207.4540  150.0380 C   0  0  0  0  0  2  0  0  0  0  0  0
  162.4320  206.3490  151.5890 C   0  0  0  0  0  2  0  0  0  0  0  0
  161.8690  205.3300  150.7190 N   0  0  0  0  0  2  0  0  0  0  0  0
  160.7240  205.9630  150.0790 C   0  0  2  0  0  3  0  0  0  0  0  0
  162.1690  207.6960  150.9450 C   0  0  2  0  0  3  0  0  0  0  0  0
  160.5530  205.4300  148.6660 C   0  0  0  0  0  2  0  0  0  0  0  0
  161.6130  205.9300  147.8040 N   0  0  0  0  0  0  0  0  0  0  0  0
  160.9650  206.6600  146.7310 C   0  0  0  0  0  1  0  0  0  0  0  0
  162.2460  204.7740  147.1920 C   0  0  0  0  0  1  0  0  0  0  0  0
  160.3550  207.4850  155.9080 C   0  0  0  0  0  1  0  0  0  0  0  0
  159.8770  208.6600  155.1990 N   0  0  0  0  0  0  0  0  0  0  0  0
  159.5200  209.5910  156.1190 O   0  0  0  0  0  1  0  0  0  0  0  0
  2  6  1  6  0  0  0
  2  4  1  0  0  0  0
  3  1  1  0  0  0  0
  4  1  1  0  0  0  0
  4 30  1  1  0  0  0
  5  2  1  0  0  0  0
  5  3  1  0  0  0  0
  7  6  1  0  0  0  0
  8  7  1  0  0  0  0
  9  8  1  0  0  0  0
 10  9  1  0  0  0  0
 11 10  1  0  0  0  0
 12 13  1  0  0  0  0
 13 14  1  0  0  0  0
 13 11  1  0  0  0  0
 15 13  1  0  0  0  0
 16 17  1  6  0  0  0
 16 15  1  0  0  0  0
 18 28  1  6  0  0  0
 18 16  1  0  0  0  0
 19 22  1  0  0  0  0
 20 23  1  1  0  0  0
 22 24  1  0  0  0  0
 22 21  1  1  0  0  0
 22 20  1  0  0  0  0
 24 18  1  6  0  0  0
 24 20  1  0  0  0  0
 25 26  1  0  0  0  0
 27 18  1  0  0  0  0
 27 25  1  0  0  0  0
 27 26  1  0  0  0  0
 29 28  1  0  0  0  0
 30 36  1  1  0  0  0
 30 31  1  0  0  0  0
 33 32  1  6  0  0  0
 33 31  1  0  0  0  0
 33 34  1  0  0  0  0
 34 35  1  0  0  0  0
 38 54  1  6  0  0  0
 39 38  1  0  0  0  0
 39 37  1  1  0  0  0
 40 41  1  1  0  0  0
 41 38  1  0  0  0  0
 42 39  1  0  0  0  0
 43 36  1  1  0  0  0
 43 40  1  0  0  0  0
 43 42  1  0  0  0  0
 44 47  1  0  0  0  0
 46 45  1  0  0  0  0
 47 49  1  6  0  0  0
 47 46  1  0  0  0  0
 48 44  1  6  0  0  0
 48 45  1  0  0  0  0
 48 40  1  0  0  0  0
 50 49  1  0  0  0  0
 51 50  1  0  0  0  0
 52 50  1  0  0  0  0
 54 53  1  0  0  0  0
 54 55  1  0  0  0  0
M  END
>  <MODEL>
3

>  <REMARK>
 VINA RESULT:      -3.5      3.531      6.745
  Name = 
  23 active torsions:
  status: ('A' for Active; 'I' for Inactive)
    1  A    between atoms: C_1  and  C_21
    2  A    between atoms: C_1  and  O_29
    3  A    between atoms: C_1  and  C_38
    4  A    between atoms: C_1  and  C_53
    5  A    between atoms: C_2  and  C_19
    6  A    between atoms: C_2  and  C_28
    7  A    between atoms: C_2  and  C_44
    8  A    between atoms: C_4  and  C_40
    9  A    between atoms: C_8  and  C_20
   10  A    between atoms: C_8  and  O_43
   11  A    between atoms: N_10  and  C_32
   12  A    between atoms: C_16  and  N_17
   13  A    between atoms: C_19  and  C_40
   14  A    between atoms: C_20  and  C_42
   15  A    between atoms: C_21  and  C_42
   16  A    between atoms: C_27  and  C_31
   17  A    between atoms: C_28  and  C_49
   18  A    between atoms: C_31  and  C_54
   19  A    between atoms: C_32  and  C_48
   20  A    between atoms: C_33  and  C_52
   21  A    between atoms: S_35  and  O_43
   22  A    between atoms: S_35  and  C_51
   23  A    between atoms: C_51  and  C_54
                            x       y       z     vdW  Elec       q    Type
                         _______ _______ _______ _____ _____    ______ ____

>  <TORSDO>
F 23

$$$$
=
 OpenBabel11062408573D

 55 59  0  0  1  0  0  0  0  0999 V2000
  162.6150  210.4230  152.6030 O   0  0  0  0  0  0  0  0  0  0  0  0
  160.6650  209.1440  152.1370 C   0  0  1  0  0  3  0  0  0  0  0  0
  162.8310  209.7610  151.3870 C   0  0  0  0  0  2  0  0  0  0  0  0
  161.5480  209.7400  153.2110 C   0  0  2  0  0  3  0  0  0  0  0  0
  161.5090  209.2170  150.8980 C   0  0  0  0  0  2  0  0  0  0  0  0
  160.3530  207.6980  152.4790 C   0  0  0  0  0  2  0  0  0  0  0  0
  161.6220  206.9870  152.9100 C   0  0  0  0  0  2  0  0  0  0  0  0
  162.0390  205.9770  151.8610 C   0  0  0  0  0  2  0  0  0  0  0  0
  161.2670  204.3640  152.1920 S   0  0  0  0  0  0  0  0  0  0  0  0
  160.9400  204.0870  150.5280 O   0  0  0  0  0  0  0  0  0  0  0  0
  161.4470  202.8100  150.2720 C   0  0  0  0  0  2  0  0  0  0  0  0
  160.9370  200.6960  149.3180 O   0  0  0  0  0  1  0  0  0  0  0  0
  160.4300  201.9830  149.4930 C   0  0  0  0  0  0  0  0  0  0  0  0
  159.2370  201.8970  150.2100 O   0  0  0  0  0  1  0  0  0  0  0  0
  160.1750  202.5790  148.1030 C   0  0  0  0  0  2  0  0  0  0  0  0
  161.3680  202.7070  147.1310 C   0  0  2  0  0  3  0  0  0  0  0  0
  162.4980  202.0130  147.5660 O   0  0  0  0  0  1  0  0  0  0  0  0
  161.7040  204.1040  146.5270 C   0  0  2  0  0  0  0  0  0  0  0  0
  159.7640  206.2220  146.6660 O   0  0  0  0  0  1  0  0  0  0  0  0
  162.1210  206.5450  147.2770 C   0  0  1  0  0  3  0  0  0  0  0  0
  160.1910  206.6510  149.0810 C   0  0  0  0  0  1  0  0  0  0  0  0
  160.6930  206.2280  147.7080 C   0  0  1  0  0  0  0  0  0  0  0  0
  162.9430  207.1970  148.3750 C   0  0  0  0  0  1  0  0  0  0  0  0
  161.7440  205.1200  147.7040 C   0  0  1  0  0  3  0  0  0  0  0  0
  160.3520  203.6710  144.3800 C   0  0  0  0  0  2  0  0  0  0  0  0
  161.0300  205.0130  144.2020 C   0  0  0  0  0  2  0  0  0  0  0  0
  160.5590  204.5790  145.5820 C   0  0  0  0  0  3  0  0  0  0  0  0
  162.9730  204.0700  145.8780 O   0  0  0  0  0  0  0  0  0  0  0  0
  163.3470  205.3100  145.6150 O   0  0  0  0  0  1  0  0  0  0  0  0
  160.7520  210.6560  154.1440 C   0  0  2  0  0  3  0  0  0  0  0  0
  160.3480  209.9620  155.4440 C   0  0  0  0  0  2  0  0  0  0  0  0
  160.9320  208.1690  156.8910 O   0  0  0  0  0  1  0  0  0  0  0  0
  161.4600  209.0630  155.9590 C   0  0  2  0  0  3  0  0  0  0  0  0
  162.5450  209.9040  156.6130 C   0  0  0  0  0  2  0  0  0  0  0  0
  162.1670  211.3720  156.5750 C   0  0  0  0  0  1  0  0  0  0  0  0
  159.5170  211.1660  153.4220 C   0  0  0  0  0  2  0  0  0  0  0  0
  156.9940  211.6270  157.0640 C   0  0  0  0  0  1  0  0  0  0  0  0
  156.4180  213.3110  155.1620 C   0  0  2  0  0  3  0  0  0  0  0  0
  157.2920  212.1240  155.6600 C   0  0  1  0  0  3  0  0  0  0  0  0
  157.9490  213.1090  153.1170 C   0  0  2  0  0  3  0  0  0  0  0  0
  157.0480  214.0250  153.9570 C   0  0  0  0  0  2  0  0  0  0  0  0
  158.7750  212.4050  155.4650 C   0  0  0  0  0  2  0  0  0  0  0  0
  159.1060  212.5280  153.9680 C   0  0  1  0  0  3  0  0  0  0  0  0
  158.2160  213.1360  150.6080 C   0  0  0  0  0  2  0  0  0  0  0  0
  159.9900  214.0440  151.9370 C   0  0  0  0  0  2  0  0  0  0  0  0
  160.4740  213.9520  150.5700 N   0  0  0  0  0  2  0  0  0  0  0  0
  159.5490  213.0530  149.8950 C   0  0  2  0  0  3  0  0  0  0  0  0
  158.4830  213.8810  151.9000 C   0  0  2  0  0  3  0  0  0  0  0  0
  159.3820  213.4650  148.4420 C   0  0  0  0  0  2  0  0  0  0  0  0
  160.5250  213.0250  147.6560 N   0  0  0  0  0  0  0  0  0  0  0  0
  161.1170  214.2200  147.0830 C   0  0  0  0  0  1  0  0  0  0  0  0
  160.0050  212.2490  146.5440 C   0  0  0  0  0  1  0  0  0  0  0  0
  154.6860  214.1180  156.5910 C   0  0  0  0  0  1  0  0  0  0  0  0
  156.0620  214.3210  156.1700 N   0  0  0  0  0  0  0  0  0  0  0  0
  156.8600  214.1940  157.2600 O   0  0  0  0  0  1  0  0  0  0  0  0
  1  4  1  0  0  0  0
  2  6  1  1  0  0  0
  2  4  1  0  0  0  0
  3  1  1  0  0  0  0
  4 30  1  6  0  0  0
  5  3  1  0  0  0  0
  5  2  1  0  0  0  0
  6  7  1  0  0  0  0
  8  9  1  0  0  0  0
  8  7  1  0  0  0  0
 10  9  1  0  0  0  0
 11 10  1  0  0  0  0
 12 13  1  0  0  0  0
 13 14  1  0  0  0  0
 13 11  1  0  0  0  0
 15 13  1  0  0  0  0
 16 17  1  1  0  0  0
 16 15  1  0  0  0  0
 18 28  1  6  0  0  0
 18 16  1  0  0  0  0
 19 22  1  0  0  0  0
 20 24  1  0  0  0  0
 20 22  1  0  0  0  0
 20 23  1  1  0  0  0
 22 21  1  1  0  0  0
 24 18  1  6  0  0  0
 24 22  1  0  0  0  0
 25 27  1  0  0  0  0
 26 25  1  0  0  0  0
 26 27  1  0  0  0  0
 27 18  1  0  0  0  0
 29 28  1  0  0  0  0
 30 36  1  6  0  0  0
 30 31  1  0  0  0  0
 31 33  1  0  0  0  0
 33 34  1  0  0  0  0
 33 32  1  1  0  0  0
 35 34  1  0  0  0  0
 38 39  1  0  0  0  0
 38 54  1  1  0  0  0
 39 37  1  1  0  0  0
 40 41  1  1  0  0  0
 40 43  1  0  0  0  0
 41 38  1  0  0  0  0
 42 39  1  0  0  0  0
 43 36  1  6  0  0  0
 43 42  1  0  0  0  0
 46 45  1  0  0  0  0
 47 49  1  6  0  0  0
 47 46  1  0  0  0  0
 47 44  1  0  0  0  0
 48 44  1  6  0  0  0
 48 45  1  0  0  0  0
 48 40  1  0  0  0  0
 50 49  1  0  0  0  0
 51 50  1  0  0  0  0
 52 50  1  0  0  0  0
 54 53  1  0  0  0  0
 54 55  1  0  0  0  0
M  END
>  <MODEL>
4

>  <REMARK>
 VINA RESULT:      -3.5      5.440     10.272
  Name = 
  23 active torsions:
  status: ('A' for Active; 'I' for Inactive)
    1  A    between atoms: C_1  and  C_21
    2  A    between atoms: C_1  and  O_29
    3  A    between atoms: C_1  and  C_38
    4  A    between atoms: C_1  and  C_53
    5  A    between atoms: C_2  and  C_19
    6  A    between atoms: C_2  and  C_28
    7  A    between atoms: C_2  and  C_44
    8  A    between atoms: C_4  and  C_40
    9  A    between atoms: C_8  and  C_20
   10  A    between atoms: C_8  and  O_43
   11  A    between atoms: N_10  and  C_32
   12  A    between atoms: C_16  and  N_17
   13  A    between atoms: C_19  and  C_40
   14  A    between atoms: C_20  and  C_42
   15  A    between atoms: C_21  and  C_42
   16  A    between atoms: C_27  and  C_31
   17  A    between atoms: C_28  and  C_49
   18  A    between atoms: C_31  and  C_54
   19  A    between atoms: C_32  and  C_48
   20  A    between atoms: C_33  and  C_52
   21  A    between atoms: S_35  and  O_43
   22  A    between atoms: S_35  and  C_51
   23  A    between atoms: C_51  and  C_54
                            x       y       z     vdW  Elec       q    Type
                         _______ _______ _______ _____ _____    ______ ____

>  <TORSDO>
F 23

$$$$
=
 OpenBabel11062408573D

 55 59  0  0  1  0  0  0  0  0999 V2000
  162.3420  213.6230  149.7260 O   0  0  0  0  0  0  0  0  0  0  0  0
  160.8430  213.0150  147.9830 C   0  0  1  0  0  3  0  0  0  0  0  0
  162.6190  214.4520  148.6300 C   0  0  0  0  0  2  0  0  0  0  0  0
  161.6100  212.5460  149.1990 C   0  0  2  0  0  3  0  0  0  0  0  0
  161.4850  214.3290  147.6400 C   0  0  0  0  0  2  0  0  0  0  0  0
  161.0310  212.0240  146.8480 C   0  0  0  0  0  2  0  0  0  0  0  0
  159.6860  211.6780  146.2400 C   0  0  0  0  0  2  0  0  0  0  0  0
  158.9480  212.9410  145.8450 C   0  0  0  0  0  2  0  0  0  0  0  0
  160.0640  214.0780  144.9680 S   0  0  0  0  0  0  0  0  0  0  0  0
  160.6630  212.8310  143.9470 O   0  0  0  0  0  0  0  0  0  0  0  0
  159.5420  212.3670  143.2540 C   0  0  0  0  0  2  0  0  0  0  0  0
  158.5290  214.3220  142.3620 O   0  0  0  0  0  1  0  0  0  0  0  0
  159.3010  213.2140  142.0090 C   0  0  0  0  0  0  0  0  0  0  0  0
  160.5170  213.6640  141.4970 O   0  0  0  0  0  1  0  0  0  0  0  0
  158.5300  212.4280  140.9420 C   0  0  0  0  0  2  0  0  0  0  0  0
  158.4480  213.0130  139.5160 C   0  0  2  0  0  3  0  0  0  0  0  0
  157.2650  213.7180  139.2870 O   0  0  0  0  0  1  0  0  0  0  0  0
  158.8740  212.1240  138.3080 C   0  0  2  0  0  0  0  0  0  0  0  0
  159.7020  209.5710  137.2770 O   0  0  0  0  0  1  0  0  0  0  0  0
  160.3260  210.3580  139.5190 C   0  0  1  0  0  3  0  0  0  0  0  0
  162.1210  210.0630  137.6010 C   0  0  0  0  0  1  0  0  0  0  0  0
  160.6730  210.2220  138.0400 C   0  0  1  0  0  0  0  0  0  0  0  0
  161.5510  210.4180  140.4140 C   0  0  0  0  0  1  0  0  0  0  0  0
  160.3040  211.5910  138.6060 C   0  0  1  0  0  3  0  0  0  0  0  0
  160.0930  214.0310  137.0820 C   0  0  0  0  0  2  0  0  0  0  0  0
  158.6440  214.4530  137.2080 C   0  0  0  0  0  2  0  0  0  0  0  0
  158.9920  212.9850  137.0130 C   0  0  0  0  0  3  0  0  0  0  0  0
  157.9730  211.0290  138.1590 O   0  0  0  0  0  0  0  0  0  0  0  0
  157.0740  211.3440  137.2420 O   0  0  0  0  0  1  0  0  0  0  0  0
  160.6760  211.9330  150.2460 C   0  0  2  0  0  3  0  0  0  0  0  0
  159.9990  212.9890  151.1190 C   0  0  0  0  0  2  0  0  0  0  0  0
  158.1610  212.4960  149.6950 O   0  0  0  0  0  1  0  0  0  0  0  0
  158.4870  212.9360  150.9790 C   0  0  2  0  0  3  0  0  0  0  0  0
  157.8950  214.3170  151.2130 C   0  0  0  0  0  2  0  0  0  0  0  0
  156.5130  214.1990  151.8250 C   0  0  0  0  0  1  0  0  0  0  0  0
  161.4540  210.9620  151.1150 C   0  0  0  0  0  2  0  0  0  0  0  0
  161.2730  211.3720  155.5470 C   0  0  0  0  0  1  0  0  0  0  0  0
  161.0670  208.9150  154.7050 C   0  0  2  0  0  3  0  0  0  0  0  0
  161.2450  210.4220  154.3620 C   0  0  1  0  0  3  0  0  0  0  0  0
  161.0610  208.7040  152.1520 C   0  0  2  0  0  3  0  0  0  0  0  0
  160.6140  208.0940  153.4880 C   0  0  0  0  0  2  0  0  0  0  0  0
  160.2470  210.8710  153.3040 C   0  0  0  0  0  2  0  0  0  0  0  0
  160.5040  210.1390  151.9770 C   0  0  1  0  0  3  0  0  0  0  0  0
  160.7470  206.3270  151.3680 C   0  0  0  0  0  2  0  0  0  0  0  0
  161.5160  207.9420  149.7760 C   0  0  0  0  0  2  0  0  0  0  0  0
  161.6460  206.6310  149.1630 N   0  0  0  0  0  2  0  0  0  0  0  0
  161.5570  205.6820  150.2640 C   0  0  2  0  0  3  0  0  0  0  0  0
  160.6260  207.7900  150.9950 C   0  0  2  0  0  3  0  0  0  0  0  0
  160.8740  204.4050  149.8020 C   0  0  0  0  0  2  0  0  0  0  0  0
  160.8500  203.4250  150.8770 N   0  0  0  0  0  0  0  0  0  0  0  0
  162.1080  203.5590  151.5870 C   0  0  0  0  0  1  0  0  0  0  0  0
  160.8630  202.1120  150.2580 C   0  0  0  0  0  1  0  0  0  0  0  0
  159.7090  207.2360  155.7210 C   0  0  0  0  0  1  0  0  0  0  0  0
  160.1750  208.6080  155.8330 N   0  0  0  0  0  0  0  0  0  0  0  0
  160.8460  208.7310  157.0060 O   0  0  0  0  0  1  0  0  0  0  0  0
  2  6  1  6  0  0  0
  2  4  1  0  0  0  0
  3  1  1  0  0  0  0
  4  1  1  0  0  0  0
  4 30  1  1  0  0  0
  5  2  1  0  0  0  0
  5  3  1  0  0  0  0
  7  6  1  0  0  0  0
  8  7  1  0  0  0  0
  9  8  1  0  0  0  0
 10  9  1  0  0  0  0
 11 10  1  0  0  0  0
 13 12  1  0  0  0  0
 13 11  1  0  0  0  0
 14 13  1  0  0  0  0
 15 13  1  0  0  0  0
 16 17  1  6  0  0  0
 16 15  1  0  0  0  0
 18 28  1  6  0  0  0
 18 16  1  0  0  0  0
 19 22  1  0  0  0  0
 20 23  1  1  0  0  0
 22 21  1  6  0  0  0
 22 24  1  0  0  0  0
 22 20  1  0  0  0  0
 24 18  1  6  0  0  0
 24 20  1  0  0  0  0
 25 26  1  0  0  0  0
 27 25  1  0  0  0  0
 27 26  1  0  0  0  0
 27 18  1  0  0  0  0
 29 28  1  0  0  0  0
 30 36  1  1  0  0  0
 30 31  1  0  0  0  0
 33 32  1  6  0  0  0
 33 31  1  0  0  0  0
 33 34  1  0  0  0  0
 34 35  1  0  0  0  0
 38 54  1  1  0  0  0
 39 38  1  0  0  0  0
 39 37  1  1  0  0  0
 40 41  1  1  0  0  0
 41 38  1  0  0  0  0
 42 39  1  0  0  0  0
 43 36  1  6  0  0  0
 43 40  1  0  0  0  0
 43 42  1  0  0  0  0
 46 45  1  0  0  0  0
 46 47  1  0  0  0  0
 47 49  1  6  0  0  0
 47 44  1  0  0  0  0
 48 45  1  6  0  0  0
 48 44  1  0  0  0  0
 48 40  1  0  0  0  0
 49 50  1  0  0  0  0
 50 51  1  0  0  0  0
 52 50  1  0  0  0  0
 53 54  1  0  0  0  0
 54 55  1  0  0  0  0
M  END
>  <MODEL>
5

>  <REMARK>
 VINA RESULT:      -3.0      3.441      6.719
  Name = 
  23 active torsions:
  status: ('A' for Active; 'I' for Inactive)
    1  A    between atoms: C_1  and  C_21
    2  A    between atoms: C_1  and  O_29
    3  A    between atoms: C_1  and  C_38
    4  A    between atoms: C_1  and  C_53
    5  A    between atoms: C_2  and  C_19
    6  A    between atoms: C_2  and  C_28
    7  A    between atoms: C_2  and  C_44
    8  A    between atoms: C_4  and  C_40
    9  A    between atoms: C_8  and  C_20
   10  A    between atoms: C_8  and  O_43
   11  A    between atoms: N_10  and  C_32
   12  A    between atoms: C_16  and  N_17
   13  A    between atoms: C_19  and  C_40
   14  A    between atoms: C_20  and  C_42
   15  A    between atoms: C_21  and  C_42
   16  A    between atoms: C_27  and  C_31
   17  A    between atoms: C_28  and  C_49
   18  A    between atoms: C_31  and  C_54
   19  A    between atoms: C_32  and  C_48
   20  A    between atoms: C_33  and  C_52
   21  A    between atoms: S_35  and  O_43
   22  A    between atoms: S_35  and  C_51
   23  A    between atoms: C_51  and  C_54
                            x       y       z     vdW  Elec       q    Type
                         _______ _______ _______ _____ _____    ______ ____

>  <TORSDO>
F 23

$$$$
=
 OpenBabel11062408573D

 55 59  0  0  1  0  0  0  0  0999 V2000
  162.8450  205.2310  147.4630 O   0  0  0  0  0  0  0  0  0  0  0  0
  161.8290  206.1370  145.5130 C   0  0  1  0  0  3  0  0  0  0  0  0
  163.4970  204.6730  146.3550 C   0  0  0  0  0  2  0  0  0  0  0  0
  161.6370  205.7430  146.9610 C   0  0  2  0  0  3  0  0  0  0  0  0
  163.1150  205.4650  145.1270 C   0  0  0  0  0  2  0  0  0  0  0  0
  160.6800  205.5960  144.6810 C   0  0  0  0  0  2  0  0  0  0  0  0
  161.1680  205.2690  143.2820 C   0  0  0  0  0  2  0  0  0  0  0  0
  161.5110  206.5440  142.5360 C   0  0  0  0  0  2  0  0  0  0  0  0
  162.3210  206.1530  140.9550 S   0  0  0  0  0  0  0  0  0  0  0  0
  161.4690  207.3900  140.1200 O   0  0  0  0  0  0  0  0  0  0  0  0
  162.3730  208.4530  140.0390 C   0  0  0  0  0  2  0  0  0  0  0  0
  162.2680  209.8150  138.0960 O   0  0  0  0  0  1  0  0  0  0  0  0
  161.7170  209.6550  139.3680 C   0  0  0  0  0  0  0  0  0  0  0  0
  160.3460  209.4360  139.2340 O   0  0  0  0  0  1  0  0  0  0  0  0
  161.9780  210.9440  140.1560 C   0  0  0  0  0  2  0  0  0  0  0  0
  161.2170  212.2220  139.7450 C   0  0  2  0  0  3  0  0  0  0  0  0
  161.9830  213.0770  138.9490 O   0  0  0  0  0  1  0  0  0  0  0  0
  160.3730  212.9780  140.8160 C   0  0  2  0  0  0  0  0  0  0  0  0
  157.9950  211.5610  140.0400 O   0  0  0  0  0  1  0  0  0  0  0  0
  159.0440  213.2640  138.6150 C   0  0  1  0  0  3  0  0  0  0  0  0
  156.6770  213.6490  139.7270 C   0  0  0  0  0  1  0  0  0  0  0  0
  158.0050  212.9070  139.6710 C   0  0  1  0  0  0  0  0  0  0  0  0
  158.6400  214.4530  137.7600 C   0  0  0  0  0  1  0  0  0  0  0  0
  159.2320  213.7240  140.0670 C   0  0  1  0  0  3  0  0  0  0  0  0
  162.6050  214.2600  140.8780 C   0  0  0  0  0  2  0  0  0  0  0  0
  162.4730  213.5540  142.2110 C   0  0  0  0  0  2  0  0  0  0  0  0
  161.2320  214.0820  141.5060 C   0  0  0  0  0  3  0  0  0  0  0  0
  159.8150  212.0550  141.7480 O   0  0  0  0  0  0  0  0  0  0  0  0
  160.0820  212.4760  142.9720 O   0  0  0  0  0  1  0  0  0  0  0  0
  161.1340  206.9220  147.7980 C   0  0  2  0  0  3  0  0  0  0  0  0
  162.2580  207.8710  148.2110 C   0  0  0  0  0  2  0  0  0  0  0  0
  160.7890  209.6240  147.5630 O   0  0  0  0  0  1  0  0  0  0  0  0
  161.7210  209.2560  148.5340 C   0  0  2  0  0  3  0  0  0  0  0  0
  162.8620  210.2610  148.5560 C   0  0  0  0  0  2  0  0  0  0  0  0
  162.3330  211.6490  148.8570 C   0  0  0  0  0  1  0  0  0  0  0  0
  160.4150  206.4010  149.0290 C   0  0  0  0  0  2  0  0  0  0  0  0
  159.8180  201.9880  148.9270 C   0  0  0  0  0  1  0  0  0  0  0  0
  160.4650  202.9110  151.2750 C   0  0  2  0  0  3  0  0  0  0  0  0
  160.1590  203.1990  149.7770 C   0  0  1  0  0  3  0  0  0  0  0  0
  160.9130  205.4340  151.2960 C   0  0  2  0  0  3  0  0  0  0  0  0
  161.2090  204.0750  151.9470 C   0  0  0  0  0  2  0  0  0  0  0  0
  161.2510  204.0460  149.1400 C   0  0  0  0  0  2  0  0  0  0  0  0
  161.3080  205.4350  149.7980 C   0  0  1  0  0  3  0  0  0  0  0  0
  161.3520  206.4730  153.5530 C   0  0  0  0  0  2  0  0  0  0  0  0
  161.1740  207.9300  151.6600 C   0  0  0  0  0  2  0  0  0  0  0  0
  161.1820  208.7630  152.8510 N   0  0  0  0  0  2  0  0  0  0  0  0
  160.8920  207.8580  153.9540 C   0  0  2  0  0  3  0  0  0  0  0  0
  161.6420  206.5460  152.0680 C   0  0  2  0  0  3  0  0  0  0  0  0
  161.6290  208.3040  155.2060 C   0  0  0  0  0  2  0  0  0  0  0  0
  160.9030  209.3790  155.8660 N   0  0  0  0  0  0  0  0  0  0  0  0
  161.7300  209.8160  156.9750 C   0  0  0  0  0  1  0  0  0  0  0  0
  159.7080  208.7920  156.4480 C   0  0  0  0  0  1  0  0  0  0  0  0
  161.2110  200.8340  150.3670 C   0  0  0  0  0  1  0  0  0  0  0  0
  161.1930  201.6650  151.5590 N   0  0  0  0  0  0  0  0  0  0  0  0
  162.4770  201.9420  151.9000 O   0  0  0  0  0  1  0  0  0  0  0  0
  2  6  1  6  0  0  0
  2  4  1  0  0  0  0
  3  1  1  0  0  0  0
  4  1  1  0  0  0  0
  4 30  1  1  0  0  0
  5  2  1  0  0  0  0
  5  3  1  0  0  0  0
  7  6  1  0  0  0  0
  8  7  1  0  0  0  0
  9  8  1  0  0  0  0
 10  9  1  0  0  0  0
 11 10  1  0  0  0  0
 12 13  1  0  0  0  0
 13 11  1  0  0  0  0
 13 15  1  0  0  0  0
 14 13  1  0  0  0  0
 16 17  1  1  0  0  0
 16 15  1  0  0  0  0
 16 18  1  0  0  0  0
 18 27  1  0  0  0  0
 18 28  1  1  0  0  0
 20 23  1  6  0  0  0
 20 22  1  0  0  0  0
 20 24  1  0  0  0  0
 22 21  1  6  0  0  0
 22 19  1  0  0  0  0
 22 24  1  0  0  0  0
 24 18  1  1  0  0  0
 25 27  1  0  0  0  0
 25 26  1  0  0  0  0
 27 26  1  0  0  0  0
 28 29  1  0  0  0  0
 30 31  1  1  0  0  0
 30 36  1  0  0  0  0
 31 33  1  0  0  0  0
 33 32  1  6  0  0  0
 33 34  1  0  0  0  0
 34 35  1  0  0  0  0
 38 54  1  6  0  0  0
 38 41  1  0  0  0  0
 39 37  1  6  0  0  0
 39 38  1  0  0  0  0
 40 41  1  1  0  0  0
 40 48  1  0  0  0  0
 42 39  1  0  0  0  0
 42 43  1  0  0  0  0
 43 36  1  6  0  0  0
 43 40  1  0  0  0  0
 44 47  1  0  0  0  0
 45 46  1  0  0  0  0
 46 47  1  0  0  0  0
 47 49  1  1  0  0  0
 48 45  1  6  0  0  0
 48 44  1  0  0  0  0
 49 50  1  0  0  0  0
 50 52  1  0  0  0  0
 50 51  1  0  0  0  0
 53 54  1  0  0  0  0
 54 55  1  0  0  0  0
M  END
>  <MODEL>
6

>  <REMARK>
 VINA RESULT:      -2.7      1.590      2.244
  Name = 
  23 active torsions:
  status: ('A' for Active; 'I' for Inactive)
    1  A    between atoms: C_1  and  C_21
    2  A    between atoms: C_1  and  O_29
    3  A    between atoms: C_1  and  C_38
    4  A    between atoms: C_1  and  C_53
    5  A    between atoms: C_2  and  C_19
    6  A    between atoms: C_2  and  C_28
    7  A    between atoms: C_2  and  C_44
    8  A    between atoms: C_4  and  C_40
    9  A    between atoms: C_8  and  C_20
   10  A    between atoms: C_8  and  O_43
   11  A    between atoms: N_10  and  C_32
   12  A    between atoms: C_16  and  N_17
   13  A    between atoms: C_19  and  C_40
   14  A    between atoms: C_20  and  C_42
   15  A    between atoms: C_21  and  C_42
   16  A    between atoms: C_27  and  C_31
   17  A    between atoms: C_28  and  C_49
   18  A    between atoms: C_31  and  C_54
   19  A    between atoms: C_32  and  C_48
   20  A    between atoms: C_33  and  C_52
   21  A    between atoms: S_35  and  O_43
   22  A    between atoms: S_35  and  C_51
   23  A    between atoms: C_51  and  C_54
                            x       y       z     vdW  Elec       q    Type
                         _______ _______ _______ _____ _____    ______ ____

>  <TORSDO>
F 23

$$$$
=
 OpenBabel11062408573D

 55 59  0  0  1  0  0  0  0  0999 V2000
  162.4800  212.9850  150.0120 O   0  0  0  0  0  0  0  0  0  0  0  0
  160.7890  212.5350  148.4020 C   0  0  1  0  0  3  0  0  0  0  0  0
  162.5440  213.9980  149.0450 C   0  0  0  0  0  2  0  0  0  0  0  0
  161.7500  211.9460  149.4110 C   0  0  2  0  0  3  0  0  0  0  0  0
  161.2910  213.9370  148.2050 C   0  0  0  0  0  2  0  0  0  0  0  0
  160.8760  211.7570  147.1010 C   0  0  0  0  0  2  0  0  0  0  0  0
  159.6070  211.9610  146.2950 C   0  0  0  0  0  2  0  0  0  0  0  0
  159.4280  213.4290  145.9620 C   0  0  0  0  0  2  0  0  0  0  0  0
  160.7340  213.9840  144.8240 S   0  0  0  0  0  0  0  0  0  0  0  0
  160.8410  212.4450  144.0670 O   0  0  0  0  0  0  0  0  0  0  0  0
  159.8480  212.4620  143.0830 C   0  0  0  0  0  2  0  0  0  0  0  0
  159.9200  214.3820  141.6870 O   0  0  0  0  0  1  0  0  0  0  0  0
  160.3900  213.0720  141.7950 C   0  0  0  0  0  0  0  0  0  0  0  0
  161.7830  213.1010  141.8310 O   0  0  0  0  0  1  0  0  0  0  0  0
  159.9020  212.2980  140.5640 C   0  0  0  0  0  2  0  0  0  0  0  0
  160.8530  211.2650  139.9240 C   0  0  2  0  0  3  0  0  0  0  0  0
  162.1450  211.7600  139.7380 O   0  0  0  0  0  1  0  0  0  0  0  0
  160.3460  210.4150  138.7190 C   0  0  2  0  0  0  0  0  0  0  0  0
  158.6600  208.6450  137.2050 O   0  0  0  0  0  1  0  0  0  0  0  0
  158.4870  211.0890  137.0510 C   0  0  1  0  0  3  0  0  0  0  0  0
  156.5630  209.6260  138.1190 C   0  0  0  0  0  1  0  0  0  0  0  0
  158.0110  209.7850  137.6810 C   0  0  1  0  0  0  0  0  0  0  0  0
  157.4150  212.1650  137.0270 C   0  0  0  0  0  1  0  0  0  0  0  0
  158.8450  210.7610  138.5070 C   0  0  1  0  0  3  0  0  0  0  0  0
  160.9000  208.6120  140.4720 C   0  0  0  0  0  2  0  0  0  0  0  0
  161.8000  208.3520  139.2830 C   0  0  0  0  0  2  0  0  0  0  0  0
  160.3960  208.8950  139.0660 C   0  0  0  0  0  3  0  0  0  0  0  0
  161.0860  210.7340  137.5430 O   0  0  0  0  0  0  0  0  0  0  0  0
  162.1980  210.0190  137.5360 O   0  0  0  0  0  1  0  0  0  0  0  0
  161.0160  211.0970  150.4510 C   0  0  2  0  0  3  0  0  0  0  0  0
  160.6000  211.9040  151.6800 C   0  0  0  0  0  2  0  0  0  0  0  0
  159.1680  213.6510  150.9400 O   0  0  0  0  0  1  0  0  0  0  0  0
  159.1680  212.4000  151.5580 C   0  0  2  0  0  3  0  0  0  0  0  0
  158.5380  212.5090  152.9370 C   0  0  0  0  0  2  0  0  0  0  0  0
  158.5200  213.9540  153.3940 C   0  0  0  0  0  1  0  0  0  0  0  0
  161.8950  209.9320  150.8680 C   0  0  0  0  0  2  0  0  0  0  0  0
  160.1380  210.6900  154.8900 C   0  0  0  0  0  1  0  0  0  0  0  0
  161.1110  208.2910  154.5990 C   0  0  2  0  0  3  0  0  0  0  0  0
  160.8400  209.6940  153.9840 C   0  0  1  0  0  3  0  0  0  0  0  0
  162.0180  207.8320  152.2470 C   0  0  2  0  0  3  0  0  0  0  0  0
  161.4070  207.2350  153.5240 C   0  0  0  0  0  2  0  0  0  0  0  0
  160.1540  209.5830  152.6300 C   0  0  0  0  0  2  0  0  0  0  0  0
  161.0750  208.8870  151.6150 C   0  0  1  0  0  3  0  0  0  0  0  0
  161.6140  206.8940  149.9400 C   0  0  0  0  0  2  0  0  0  0  0  0
  161.8810  205.3490  151.7510 C   0  0  0  0  0  2  0  0  0  0  0  0
  161.4260  204.5920  150.5960 N   0  0  0  0  0  2  0  0  0  0  0  0
  160.9050  205.5860  149.6680 C   0  0  2  0  0  3  0  0  0  0  0  0
  162.3440  206.7050  151.2540 C   0  0  2  0  0  3  0  0  0  0  0  0
  161.1600  205.1490  148.2350 C   0  0  0  0  0  2  0  0  0  0  0  0
  161.8280  206.2080  147.4930 N   0  0  0  0  0  0  0  0  0  0  0  0
  160.9460  206.5660  146.3980 C   0  0  0  0  0  1  0  0  0  0  0  0
  163.0160  205.6250  146.8930 C   0  0  0  0  0  1  0  0  0  0  0  0
  159.6450  206.4570  155.0260 C   0  0  0  0  0  1  0  0  0  0  0  0
  160.0700  207.7650  155.4950 N   0  0  0  0  0  0  0  0  0  0  0  0
  160.5630  207.6230  156.7520 O   0  0  0  0  0  1  0  0  0  0  0  0
  2  6  1  6  0  0  0
  2  4  1  0  0  0  0
  3  1  1  0  0  0  0
  4  1  1  0  0  0  0
  4 30  1  1  0  0  0
  5  2  1  0  0  0  0
  5  3  1  0  0  0  0
  7  6  1  0  0  0  0
  8  7  1  0  0  0  0
  9  8  1  0  0  0  0
 10  9  1  0  0  0  0
 11 10  1  0  0  0  0
 12 13  1  0  0  0  0
 13 14  1  0  0  0  0
 13 11  1  0  0  0  0
 15 13  1  0  0  0  0
 16 17  1  6  0  0  0
 16 15  1  0  0  0  0
 18 28  1  6  0  0  0
 18 27  1  0  0  0  0
 18 16  1  0  0  0  0
 19 22  1  0  0  0  0
 20 23  1  1  0  0  0
 20 22  1  0  0  0  0
 20 24  1  0  0  0  0
 22 21  1  1  0  0  0
 22 24  1  0  0  0  0
 24 18  1  6  0  0  0
 26 25  1  0  0  0  0
 27 26  1  0  0  0  0
 27 25  1  0  0  0  0
 29 28  1  0  0  0  0
 30 36  1  1  0  0  0
 30 31  1  0  0  0  0
 33 32  1  1  0  0  0
 33 31  1  0  0  0  0
 33 34  1  0  0  0  0
 34 35  1  0  0  0  0
 38 54  1  6  0  0  0
 39 38  1  0  0  0  0
 39 37  1  1  0  0  0
 40 41  1  1  0  0  0
 41 38  1  0  0  0  0
 42 39  1  0  0  0  0
 43 36  1  1  0  0  0
 43 40  1  0  0  0  0
 43 42  1  0  0  0  0
 46 45  1  0  0  0  0
 47 49  1  6  0  0  0
 47 44  1  0  0  0  0
 47 46  1  0  0  0  0
 48 44  1  6  0  0  0
 48 45  1  0  0  0  0
 48 40  1  0  0  0  0
 50 49  1  0  0  0  0
 51 50  1  0  0  0  0
 52 50  1  0  0  0  0
 53 54  1  0  0  0  0
 54 55  1  0  0  0  0
M  END
>  <MODEL>
7

>  <REMARK>
 VINA RESULT:      -2.2      3.188      6.627
  Name = 
  23 active torsions:
  status: ('A' for Active; 'I' for Inactive)
    1  A    between atoms: C_1  and  C_21
    2  A    between atoms: C_1  and  O_29
    3  A    between atoms: C_1  and  C_38
    4  A    between atoms: C_1  and  C_53
    5  A    between atoms: C_2  and  C_19
    6  A    between atoms: C_2  and  C_28
    7  A    between atoms: C_2  and  C_44
    8  A    between atoms: C_4  and  C_40
    9  A    between atoms: C_8  and  C_20
   10  A    between atoms: C_8  and  O_43
   11  A    between atoms: N_10  and  C_32
   12  A    between atoms: C_16  and  N_17
   13  A    between atoms: C_19  and  C_40
   14  A    between atoms: C_20  and  C_42
   15  A    between atoms: C_21  and  C_42
   16  A    between atoms: C_27  and  C_31
   17  A    between atoms: C_28  and  C_49
   18  A    between atoms: C_31  and  C_54
   19  A    between atoms: C_32  and  C_48
   20  A    between atoms: C_33  and  C_52
   21  A    between atoms: S_35  and  O_43
   22  A    between atoms: S_35  and  C_51
   23  A    between atoms: C_51  and  C_54
                            x       y       z     vdW  Elec       q    Type
                         _______ _______ _______ _____ _____    ______ ____

>  <TORSDO>
F 23

$$$$
