=
 OpenBabel11052422113D

 25 28  0  0  1  0  0  0  0  0999 V2000
  161.3980  205.1890  149.0760 C   0  0  0  0  0  0  0  0  0  0  0  0
  161.4790  206.1310  150.1170 C   0  0  0  0  0  0  0  0  0  0  0  0
  161.7780  206.9460  147.4460 C   0  0  0  0  0  3  0  0  0  0  0  0
  161.1770  203.8000  149.1570 C   0  0  0  0  0  0  0  0  0  0  0  0
  160.7630  201.0470  148.9160 C   0  0  0  0  0  3  0  0  0  0  0  0
  161.8550  207.8520  148.4600 N   0  0  0  0  0  0  0  0  0  0  0  0
  161.1610  203.1850  147.9070 C   0  0  0  0  0  0  0  0  0  0  0  0
  160.9560  201.8160  147.7590 C   0  0  0  0  0  3  0  0  0  0  0  0
  161.8040  208.4600  150.7890 C   0  0  0  0  0  0  0  0  0  0  0  0
  162.0540  209.8950  150.4710 C   0  0  0  0  0  1  0  0  0  0  0  0
  161.3370  205.7760  151.4650 C   0  0  0  0  0  3  0  0  0  0  0  0
  160.7770  201.6530  150.1850 C   0  0  0  0  0  3  0  0  0  0  0  0
  161.5490  205.6130  147.7590 C   0  0  0  0  0  0  0  0  0  0  0  0
  161.4150  204.3180  146.6870 S   0  0  0  0  0  0  0  0  0  0  0  0
  161.6600  208.0810  152.1270 C   0  0  0  0  0  3  0  0  0  0  0  0
  160.9840  203.0360  150.3120 C   0  0  0  0  0  3  0  0  0  0  0  0
  161.4220  206.7470  152.4660 C   0  0  0  0  0  0  0  0  0  0  0  0
  161.7150  207.4920  149.7730 C   0  0  0  0  0  0  0  0  0  0  0  0
  161.2900  206.3540  153.8950 C   0  0  0  0  0  2  0  0  0  0  0  0
  160.3740  207.3240  154.6190 C   0  0  0  0  0  2  0  0  0  0  0  0
  161.1740  208.4960  155.1630 C   0  0  1  0  0  3  0  0  0  0  0  0
  160.4690  209.6860  154.9780 O   0  0  0  0  0  1  0  0  0  0  0  0
  161.4550  208.2930  156.6150 C   0  0  0  0  0  0  0  0  0  0  0  0
  162.3910  209.0970  157.2520 O   0  0  0  0  0  0  0  0  0  0  0  0
  160.8650  207.3870  157.2610 O   0  0  0  0  0  1  0  0  0  0  0  0
  1  4  1  0  0  0  0
  1  2  2  0  0  0  0
  2 11  1  0  0  0  0
  3 13  2  0  0  0  0
  3  6  1  0  0  0  0
  4 16  1  0  0  0  0
  5 12  1  0  0  0  0
  6 18  2  0  0  0  0
  7  4  2  0  0  0  0
  8  7  1  0  0  0  0
  8  5  2  0  0  0  0
  9 15  2  0  0  0  0
 10  9  1  0  0  0  0
 11 17  2  0  0  0  0
 12 16  2  0  0  0  0
 13  1  1  0  0  0  0
 14 13  1  0  0  0  0
 14  7  1  0  0  0  0
 15 17  1  0  0  0  0
 17 19  1  0  0  0  0
 18  2  1  0  0  0  0
 18  9  1  0  0  0  0
 19 20  1  0  0  0  0
 20 21  1  0  0  0  0
 21 22  1  1  0  0  0
 21 23  1  0  0  0  0
 23 24  2  0  0  0  0
 23 25  1  0  0  0  0
M  END
>  <MODEL>
1

>  <REMARK>
 VINA RESULT:      -9.6      0.000      0.000
  Name = 
  4 active torsions:
  status: ('A' for Active; 'I' for Inactive)
    1  A    between atoms: C_2  and  C_21
    2  A    between atoms: C_6  and  C_15
    3  A    between atoms: C_6  and  C_23
    4  A    between atoms: C_15  and  C_21
                            x       y       z     vdW  Elec       q    Type
                         _______ _______ _______ _____ _____    ______ ____

>  <TORSDO>
F 4

$$$$
=
 OpenBabel11052422113D

 25 28  0  0  1  0  0  0  0  0999 V2000
  161.3820  207.8550  151.3830 C   0  0  0  0  0  0  0  0  0  0  0  0
  161.3030  206.7560  150.5070 C   0  0  0  0  0  0  0  0  0  0  0  0
  161.9860  209.2990  149.5290 C   0  0  0  0  0  3  0  0  0  0  0  0
  161.1560  207.8950  152.7720 C   0  0  0  0  0  0  0  0  0  0  0  0
  160.7930  208.3650  155.5030 C   0  0  0  0  0  3  0  0  0  0  0  0
  161.9080  208.2300  148.6880 N   0  0  0  0  0  0  0  0  0  0  0  0
  161.3260  209.1690  153.3090 C   0  0  0  0  0  0  0  0  0  0  0  0
  161.1530  209.4310  154.6650 C   0  0  0  0  0  3  0  0  0  0  0  0
  161.5060  205.9020  148.2250 C   0  0  0  0  0  0  0  0  0  0  0  0
  161.7820  206.0920  146.7730 C   0  0  0  0  0  1  0  0  0  0  0  0
  160.9670  205.4690  150.9450 C   0  0  0  0  0  3  0  0  0  0  0  0
  160.6170  207.0730  154.9770 C   0  0  0  0  0  3  0  0  0  0  0  0
  161.7210  209.1070  150.8780 C   0  0  0  0  0  0  0  0  0  0  0  0
  161.7530  210.2650  152.1030 S   0  0  0  0  0  0  0  0  0  0  0  0
  161.1670  204.6270  148.6860 C   0  0  0  0  0  3  0  0  0  0  0  0
  160.7980  206.8310  153.6060 C   0  0  0  0  0  3  0  0  0  0  0  0
  160.9040  204.4070  150.0400 C   0  0  0  0  0  0  0  0  0  0  0  0
  161.5780  206.9780  149.1280 C   0  0  0  0  0  0  0  0  0  0  0  0
  160.5250  203.0480  150.5140 C   0  0  0  0  0  2  0  0  0  0  0  0
  161.4110  202.0030  149.8600 C   0  0  0  0  0  2  0  0  0  0  0  0
  160.5640  201.0040  149.0890 C   0  0  1  0  0  3  0  0  0  0  0  0
  159.2310  201.4170  149.0720 O   0  0  0  0  0  1  0  0  0  0  0  0
  161.0730  200.8730  147.6930 C   0  0  0  0  0  0  0  0  0  0  0  0
  160.9110  201.9260  146.8010 O   0  0  0  0  0  0  0  0  0  0  0  0
  161.6290  199.8100  147.3110 O   0  0  0  0  0  1  0  0  0  0  0  0
  1  4  1  0  0  0  0
  2 11  1  0  0  0  0
  2  1  1  0  0  0  0
  3 13  1  0  0  0  0
  4  7  2  0  0  0  0
  4 16  1  0  0  0  0
  6 18  1  0  0  0  0
  6  3  2  0  0  0  0
  7  8  1  0  0  0  0
  8  5  2  0  0  0  0
  9 15  2  0  0  0  0
  9 18  1  0  0  0  0
 10  9  1  0  0  0  0
 12  5  1  0  0  0  0
 13  1  2  0  0  0  0
 13 14  1  0  0  0  0
 14  7  1  0  0  0  0
 15 17  1  0  0  0  0
 16 12  2  0  0  0  0
 17 19  1  0  0  0  0
 17 11  2  0  0  0  0
 18  2  2  0  0  0  0
 20 19  1  0  0  0  0
 21 22  1  6  0  0  0
 21 20  1  0  0  0  0
 23 21  1  0  0  0  0
 24 23  2  0  0  0  0
 25 23  1  0  0  0  0
M  END
>  <MODEL>
2

>  <REMARK>
 VINA RESULT:      -9.5      4.331      7.186
  Name = 
  4 active torsions:
  status: ('A' for Active; 'I' for Inactive)
    1  A    between atoms: C_2  and  C_21
    2  A    between atoms: C_6  and  C_15
    3  A    between atoms: C_6  and  C_23
    4  A    between atoms: C_15  and  C_21
                            x       y       z     vdW  Elec       q    Type
                         _______ _______ _______ _____ _____    ______ ____

>  <TORSDO>
F 4

$$$$
=
 OpenBabel11052422113D

 25 28  0  0  1  0  0  0  0  0999 V2000
  161.1220  204.4180  149.6470 C   0  0  0  0  0  0  0  0  0  0  0  0
  161.2930  205.7530  150.0570 C   0  0  0  0  0  0  0  0  0  0  0  0
  160.7690  203.7470  151.9520 C   0  0  0  0  0  3  0  0  0  0  0  0
  161.1710  203.8810  148.3460 C   0  0  0  0  0  0  0  0  0  0  0  0
  161.1940  202.4600  145.9400 C   0  0  0  0  0  3  0  0  0  0  0  0
  160.9360  205.0420  152.3410 N   0  0  0  0  0  0  0  0  0  0  0  0
  160.9510  202.5050  148.3240 C   0  0  0  0  0  0  0  0  0  0  0  0
  160.9570  201.7740  147.1400 C   0  0  0  0  0  3  0  0  0  0  0  0
  161.3570  207.3700  151.8910 C   0  0  0  0  0  0  0  0  0  0  0  0
  161.2550  207.7180  153.3360 C   0  0  0  0  0  1  0  0  0  0  0  0
  161.5570  206.7890  149.1520 C   0  0  0  0  0  3  0  0  0  0  0  0
  161.4180  203.8490  145.9450 C   0  0  0  0  0  3  0  0  0  0  0  0
  160.8620  203.4390  150.6020 C   0  0  0  0  0  0  0  0  0  0  0  0
  160.6930  201.9230  149.8840 S   0  0  0  0  0  0  0  0  0  0  0  0
  161.6180  208.3870  150.9690 C   0  0  0  0  0  3  0  0  0  0  0  0
  161.4070  204.5670  147.1510 C   0  0  0  0  0  3  0  0  0  0  0  0
  161.7230  208.1000  149.6050 C   0  0  0  0  0  0  0  0  0  0  0  0
  161.1930  206.0450  151.4470 C   0  0  0  0  0  0  0  0  0  0  0  0
  161.9820  209.1950  148.6320 C   0  0  0  0  0  2  0  0  0  0  0  0
  162.1870  210.5080  149.3670 C   0  0  0  0  0  2  0  0  0  0  0  0
  161.5590  211.6510  148.5860 C   0  0  1  0  0  3  0  0  0  0  0  0
  161.0100  212.5880  149.4630 O   0  0  0  0  0  1  0  0  0  0  0  0
  162.5860  212.3040  147.7230 C   0  0  0  0  0  0  0  0  0  0  0  0
  162.1960  212.9330  146.5480 O   0  0  0  0  0  0  0  0  0  0  0  0
  163.8040  212.2740  148.0420 O   0  0  0  0  0  1  0  0  0  0  0  0
  1  2  2  0  0  0  0
  1 13  1  0  0  0  0
  2 18  1  0  0  0  0
  3  6  1  0  0  0  0
  4  1  1  0  0  0  0
  5 12  2  0  0  0  0
  5  8  1  0  0  0  0
  7  4  1  0  0  0  0
  7 14  1  0  0  0  0
  8  7  2  0  0  0  0
  9 10  1  0  0  0  0
 11 17  2  0  0  0  0
 11  2  1  0  0  0  0
 12 16  1  0  0  0  0
 13  3  2  0  0  0  0
 14 13  1  0  0  0  0
 15  9  2  0  0  0  0
 16  4  2  0  0  0  0
 17 15  1  0  0  0  0
 18  9  1  0  0  0  0
 18  6  2  0  0  0  0
 19 20  1  0  0  0  0
 19 17  1  0  0  0  0
 21 20  1  0  0  0  0
 21 22  1  1  0  0  0
 23 25  1  0  0  0  0
 23 21  1  0  0  0  0
 24 23  2  0  0  0  0
M  END
>  <MODEL>
3

>  <REMARK>
 VINA RESULT:      -9.4      3.340      5.243
  Name = 
  4 active torsions:
  status: ('A' for Active; 'I' for Inactive)
    1  A    between atoms: C_2  and  C_21
    2  A    between atoms: C_6  and  C_15
    3  A    between atoms: C_6  and  C_23
    4  A    between atoms: C_15  and  C_21
                            x       y       z     vdW  Elec       q    Type
                         _______ _______ _______ _____ _____    ______ ____

>  <TORSDO>
F 4

$$$$
=
 OpenBabel11052422113D

 25 28  0  0  1  0  0  0  0  0999 V2000
  161.3490  205.4300  150.8950 C   0  0  0  0  0  0  0  0  0  0  0  0
  161.2650  204.3500  149.9980 C   0  0  0  0  0  0  0  0  0  0  0  0
  160.8930  203.9340  152.7510 C   0  0  0  0  0  3  0  0  0  0  0  0
  161.6100  206.7870  150.6220 C   0  0  0  0  0  0  0  0  0  0  0  0
  162.0930  209.5350  150.4750 C   0  0  0  0  0  3  0  0  0  0  0  0
  160.8140  202.8940  151.8750 N   0  0  0  0  0  0  0  0  0  0  0  0
  161.6180  207.5750  151.7710 C   0  0  0  0  0  0  0  0  0  0  0  0
  161.8550  208.9460  151.7260 C   0  0  0  0  0  3  0  0  0  0  0  0
  160.9010  201.9560  149.6600 C   0  0  0  0  0  0  0  0  0  0  0  0
  160.6180  200.5860  150.1760 C   0  0  0  0  0  1  0  0  0  0  0  0
  161.4420  204.5040  148.6170 C   0  0  0  0  0  3  0  0  0  0  0  0
  162.0890  208.7540  149.3060 C   0  0  0  0  0  3  0  0  0  0  0  0
  161.1620  205.2030  152.2560 C   0  0  0  0  0  0  0  0  0  0  0  0
  161.3090  206.6350  153.1340 S   0  0  0  0  0  0  0  0  0  0  0  0
  161.0830  202.1340  148.2860 C   0  0  0  0  0  3  0  0  0  0  0  0
  161.8460  207.3730  149.3740 C   0  0  0  0  0  3  0  0  0  0  0  0
  161.3470  203.4030  147.7630 C   0  0  0  0  0  0  0  0  0  0  0  0
  160.9890  203.0580  150.5280 C   0  0  0  0  0  0  0  0  0  0  0  0
  161.5570  203.5760  146.3000 C   0  0  0  0  0  2  0  0  0  0  0  0
  162.4670  204.7630  146.0420 C   0  0  0  0  0  2  0  0  0  0  0  0
  161.8070  205.7310  145.0730 C   0  0  1  0  0  3  0  0  0  0  0  0
  161.5660  205.0990  143.8520 O   0  0  0  0  0  1  0  0  0  0  0  0
  160.5240  206.2320  145.6470 C   0  0  0  0  0  0  0  0  0  0  0  0
  159.3180  205.8400  145.0800 O   0  0  0  0  0  0  0  0  0  0  0  0
  160.5260  207.0220  146.6280 O   0  0  0  0  0  1  0  0  0  0  0  0
  1 13  2  0  0  0  0
  2 18  1  0  0  0  0
  2  1  1  0  0  0  0
  4  1  1  0  0  0  0
  4  7  1  0  0  0  0
  5  8  1  0  0  0  0
  6  3  2  0  0  0  0
  7 14  1  0  0  0  0
  8  7  2  0  0  0  0
  9 10  1  0  0  0  0
  9 18  2  0  0  0  0
 11  2  2  0  0  0  0
 12 16  1  0  0  0  0
 12  5  2  0  0  0  0
 13  3  1  0  0  0  0
 13 14  1  0  0  0  0
 15  9  1  0  0  0  0
 16  4  2  0  0  0  0
 17 15  2  0  0  0  0
 17 11  1  0  0  0  0
 18  6  1  0  0  0  0
 19 17  1  0  0  0  0
 20 19  1  0  0  0  0
 21 22  1  6  0  0  0
 21 23  1  0  0  0  0
 21 20  1  0  0  0  0
 23 25  1  0  0  0  0
 24 23  2  0  0  0  0
M  END
>  <MODEL>
4

>  <REMARK>
 VINA RESULT:      -9.3      4.286      7.674
  Name = 
  4 active torsions:
  status: ('A' for Active; 'I' for Inactive)
    1  A    between atoms: C_2  and  C_21
    2  A    between atoms: C_6  and  C_15
    3  A    between atoms: C_6  and  C_23
    4  A    between atoms: C_15  and  C_21
                            x       y       z     vdW  Elec       q    Type
                         _______ _______ _______ _____ _____    ______ ____

>  <TORSDO>
F 4

$$$$
=
 OpenBabel11052422113D

 25 28  0  0  1  0  0  0  0  0999 V2000
  161.1150  206.5120  151.9880 C   0  0  0  0  0  0  0  0  0  0  0  0
  161.1200  205.8160  150.7660 C   0  0  0  0  0  0  0  0  0  0  0  0
  160.9250  204.4140  153.1920 C   0  0  0  0  0  3  0  0  0  0  0  0
  161.2010  207.9000  152.2140 C   0  0  0  0  0  0  0  0  0  0  0  0
  161.3470  210.5610  153.0530 C   0  0  0  0  0  3  0  0  0  0  0  0
  160.9300  203.7470  152.0040 N   0  0  0  0  0  0  0  0  0  0  0  0
  161.1670  208.2270  153.5680 C   0  0  0  0  0  0  0  0  0  0  0  0
  161.2380  209.5450  154.0130 C   0  0  0  0  0  3  0  0  0  0  0  0
  161.0270  203.6680  149.6000 C   0  0  0  0  0  0  0  0  0  0  0  0
  160.9320  202.1810  149.5960 C   0  0  0  0  0  1  0  0  0  0  0  0
  161.2140  206.4680  149.5300 C   0  0  0  0  0  3  0  0  0  0  0  0
  161.3830  210.2470  151.6820 C   0  0  0  0  0  3  0  0  0  0  0  0
  161.0190  205.7990  153.1800 C   0  0  0  0  0  0  0  0  0  0  0  0
  161.0340  206.8360  154.5090 S   0  0  0  0  0  0  0  0  0  0  0  0
  161.1240  204.3410  148.3790 C   0  0  0  0  0  3  0  0  0  0  0  0
  161.3090  208.9120  151.2550 C   0  0  0  0  0  3  0  0  0  0  0  0
  161.2110  205.7350  148.3410 C   0  0  0  0  0  0  0  0  0  0  0  0
  161.0230  204.3960  150.8030 C   0  0  0  0  0  0  0  0  0  0  0  0
  161.3330  206.4370  147.0340 C   0  0  0  0  0  2  0  0  0  0  0  0
  161.9220  205.5020  145.9930 C   0  0  0  0  0  2  0  0  0  0  0  0
  160.9090  205.2410  144.8890 C   0  0  1  0  0  3  0  0  0  0  0  0
  161.4190  205.6640  143.6610 O   0  0  0  0  0  1  0  0  0  0  0  0
  160.5820  203.7870  144.8300 C   0  0  0  0  0  0  0  0  0  0  0  0
  159.4470  203.3660  144.1490 O   0  0  0  0  0  0  0  0  0  0  0  0
  161.3140  202.9410  145.4080 O   0  0  0  0  0  1  0  0  0  0  0  0
  1  4  1  0  0  0  0
  1 13  2  0  0  0  0
  2 18  1  0  0  0  0
  2  1  1  0  0  0  0
  4  7  1  0  0  0  0
  5  8  1  0  0  0  0
  6  3  2  0  0  0  0
  7  8  2  0  0  0  0
  7 14  1  0  0  0  0
  9 18  2  0  0  0  0
 10  9  1  0  0  0  0
 11  2  2  0  0  0  0
 12  5  2  0  0  0  0
 13  3  1  0  0  0  0
 13 14  1  0  0  0  0
 15  9  1  0  0  0  0
 16 12  1  0  0  0  0
 16  4  2  0  0  0  0
 17 15  2  0  0  0  0
 17 11  1  0  0  0  0
 18  6  1  0  0  0  0
 19 17  1  0  0  0  0
 20 19  1  0  0  0  0
 21 22  1  6  0  0  0
 21 20  1  0  0  0  0
 23 21  1  0  0  0  0
 23 25  1  0  0  0  0
 24 23  2  0  0  0  0
M  END
>  <MODEL>
5

>  <REMARK>
 VINA RESULT:      -9.2      4.924      8.128
  Name = 
  4 active torsions:
  status: ('A' for Active; 'I' for Inactive)
    1  A    between atoms: C_2  and  C_21
    2  A    between atoms: C_6  and  C_15
    3  A    between atoms: C_6  and  C_23
    4  A    between atoms: C_15  and  C_21
                            x       y       z     vdW  Elec       q    Type
                         _______ _______ _______ _____ _____    ______ ____

>  <TORSDO>
F 4

$$$$
=
 OpenBabel11052422113D

 25 28  0  0  1  0  0  0  0  0999 V2000
  161.3860  205.2050  149.3690 C   0  0  0  0  0  0  0  0  0  0  0  0
  161.4760  206.3160  150.2270 C   0  0  0  0  0  0  0  0  0  0  0  0
  160.7800  203.7950  151.2490 C   0  0  0  0  0  3  0  0  0  0  0  0
  161.6010  205.1420  147.9790 C   0  0  0  0  0  0  0  0  0  0  0  0
  161.9410  204.6260  145.2540 C   0  0  0  0  0  3  0  0  0  0  0  0
  160.8690  204.8760  152.0720 N   0  0  0  0  0  0  0  0  0  0  0  0
  161.4180  203.8600  147.4640 C   0  0  0  0  0  0  0  0  0  0  0  0
  161.5810  203.5760  146.1110 C   0  0  0  0  0  3  0  0  0  0  0  0
  161.2850  207.2100  152.4940 C   0  0  0  0  0  0  0  0  0  0  0  0
  161.0050  207.0470  153.9500 C   0  0  0  0  0  1  0  0  0  0  0  0
  161.8200  207.5940  149.7660 C   0  0  0  0  0  3  0  0  0  0  0  0
  162.1300  205.9250  145.7580 C   0  0  0  0  0  3  0  0  0  0  0  0
  161.0390  203.9640  149.8960 C   0  0  0  0  0  0  0  0  0  0  0  0
  160.9910  202.7860  148.6900 S   0  0  0  0  0  0  0  0  0  0  0  0
  161.6280  208.4750  152.0120 C   0  0  0  0  0  3  0  0  0  0  0  0
  161.9610  206.1900  147.1260 C   0  0  0  0  0  3  0  0  0  0  0  0
  161.9010  208.6680  150.6550 C   0  0  0  0  0  0  0  0  0  0  0  0
  161.2060  206.1190  151.6100 C   0  0  0  0  0  0  0  0  0  0  0  0
  162.2460  210.0250  150.1510 C   0  0  0  0  0  2  0  0  0  0  0  0
  162.0160  210.0990  148.6520 C   0  0  0  0  0  2  0  0  0  0  0  0
  161.5490  211.4910  148.2600 C   0  0  1  0  0  3  0  0  0  0  0  0
  161.1990  212.2190  149.3990 O   0  0  0  0  0  1  0  0  0  0  0  0
  162.6300  212.2020  147.5160 C   0  0  0  0  0  0  0  0  0  0  0  0
  162.3110  212.9560  146.3950 O   0  0  0  0  0  0  0  0  0  0  0  0
  163.8300  212.1080  147.8850 O   0  0  0  0  0  1  0  0  0  0  0  0
  1 13  1  0  0  0  0
  1  2  2  0  0  0  0
  2 18  1  0  0  0  0
  3  6  1  0  0  0  0
  4  1  1  0  0  0  0
  5 12  2  0  0  0  0
  5  8  1  0  0  0  0
  7  4  1  0  0  0  0
  7 14  1  0  0  0  0
  8  7  2  0  0  0  0
  9 10  1  0  0  0  0
 11  2  1  0  0  0  0
 11 17  2  0  0  0  0
 12 16  1  0  0  0  0
 13  3  2  0  0  0  0
 14 13  1  0  0  0  0
 15  9  2  0  0  0  0
 16  4  2  0  0  0  0
 17 15  1  0  0  0  0
 18  6  2  0  0  0  0
 18  9  1  0  0  0  0
 19 17  1  0  0  0  0
 20 19  1  0  0  0  0
 21 20  1  0  0  0  0
 21 22  1  1  0  0  0
 23 25  1  0  0  0  0
 23 21  1  0  0  0  0
 24 23  2  0  0  0  0
M  END
>  <MODEL>
6

>  <REMARK>
 VINA RESULT:      -9.1      3.277      5.392
  Name = 
  4 active torsions:
  status: ('A' for Active; 'I' for Inactive)
    1  A    between atoms: C_2  and  C_21
    2  A    between atoms: C_6  and  C_15
    3  A    between atoms: C_6  and  C_23
    4  A    between atoms: C_15  and  C_21
                            x       y       z     vdW  Elec       q    Type
                         _______ _______ _______ _____ _____    ______ ____

>  <TORSDO>
F 4

$$$$
=
 OpenBabel11052422113D

 25 28  0  0  1  0  0  0  0  0999 V2000
  161.2080  204.5010  149.2900 C   0  0  0  0  0  0  0  0  0  0  0  0
  161.2610  205.4710  150.3070 C   0  0  0  0  0  0  0  0  0  0  0  0
  160.8360  202.7700  150.9490 C   0  0  0  0  0  3  0  0  0  0  0  0
  161.3400  204.6720  147.8980 C   0  0  0  0  0  0  0  0  0  0  0  0
  161.5510  204.6150  145.1120 C   0  0  0  0  0  3  0  0  0  0  0  0
  160.8880  203.7150  151.9280 N   0  0  0  0  0  0  0  0  0  0  0  0
  161.2290  203.4740  147.1960 C   0  0  0  0  0  0  0  0  0  0  0  0
  161.3310  203.4170  145.8080 C   0  0  0  0  0  3  0  0  0  0  0  0
  161.1400  205.9840  152.6950 C   0  0  0  0  0  0  0  0  0  0  0  0
  160.9650  205.5740  154.1180 C   0  0  0  0  0  1  0  0  0  0  0  0
  161.4720  206.8290  150.0400 C   0  0  0  0  0  3  0  0  0  0  0  0
  161.6650  205.8330  145.8070 C   0  0  0  0  0  3  0  0  0  0  0  0
  160.9950  203.1670  149.6290 C   0  0  0  0  0  0  0  0  0  0  0  0
  160.9680  202.1900  148.2550 S   0  0  0  0  0  0  0  0  0  0  0  0
  161.3500  207.3340  152.4030 C   0  0  0  0  0  3  0  0  0  0  0  0
  161.5600  205.8670  147.2060 C   0  0  0  0  0  3  0  0  0  0  0  0
  161.5210  207.7570  151.0830 C   0  0  0  0  0  0  0  0  0  0  0  0
  161.0950  205.0400  151.6540 C   0  0  0  0  0  0  0  0  0  0  0  0
  161.7240  209.2010  150.7840 C   0  0  0  0  0  2  0  0  0  0  0  0
  162.3160  209.9040  151.9920 C   0  0  0  0  0  2  0  0  0  0  0  0
  161.2720  210.7920  152.6480 C   0  0  1  0  0  3  0  0  0  0  0  0
  160.0070  210.5120  152.1270 O   0  0  0  0  0  1  0  0  0  0  0  0
  161.2720  210.5750  154.1250 C   0  0  0  0  0  0  0  0  0  0  0  0
  160.0840  210.2610  154.7730 O   0  0  0  0  0  0  0  0  0  0  0  0
  162.3350  210.6940  154.7890 O   0  0  0  0  0  1  0  0  0  0  0  0
  1 13  1  0  0  0  0
  1  2  2  0  0  0  0
  2 18  1  0  0  0  0
  3  6  1  0  0  0  0
  4  1  1  0  0  0  0
  5 12  1  0  0  0  0
  5  8  2  0  0  0  0
  7  4  2  0  0  0  0
  7 14  1  0  0  0  0
  8  7  1  0  0  0  0
  9 10  1  0  0  0  0
 11  2  1  0  0  0  0
 11 17  2  0  0  0  0
 12 16  2  0  0  0  0
 13  3  2  0  0  0  0
 14 13  1  0  0  0  0
 15  9  2  0  0  0  0
 16  4  1  0  0  0  0
 17 15  1  0  0  0  0
 18  6  2  0  0  0  0
 18  9  1  0  0  0  0
 19 17  1  0  0  0  0
 19 20  1  0  0  0  0
 20 21  1  0  0  0  0
 21 22  1  6  0  0  0
 21 23  1  0  0  0  0
 23 24  2  0  0  0  0
 23 25  1  0  0  0  0
M  END
>  <MODEL>
7

>  <REMARK>
 VINA RESULT:      -8.9      2.006      3.638
  Name = 
  4 active torsions:
  status: ('A' for Active; 'I' for Inactive)
    1  A    between atoms: C_2  and  C_21
    2  A    between atoms: C_6  and  C_15
    3  A    between atoms: C_6  and  C_23
    4  A    between atoms: C_15  and  C_21
                            x       y       z     vdW  Elec       q    Type
                         _______ _______ _______ _____ _____    ______ ____

>  <TORSDO>
F 4

$$$$
=
 OpenBabel11052422113D

 25 28  0  0  1  0  0  0  0  0999 V2000
  161.3200  206.0500  151.0310 C   0  0  0  0  0  0  0  0  0  0  0  0
  161.5270  207.4410  151.0430 C   0  0  0  0  0  0  0  0  0  0  0  0
  161.1020  206.0520  153.4480 C   0  0  0  0  0  3  0  0  0  0  0  0
  161.2850  205.1720  149.9300 C   0  0  0  0  0  0  0  0  0  0  0  0
  161.1500  203.1410  148.0150 C   0  0  0  0  0  3  0  0  0  0  0  0
  161.3030  207.3990  153.4510 N   0  0  0  0  0  0  0  0  0  0  0  0
  161.0530  203.8500  150.3030 C   0  0  0  0  0  0  0  0  0  0  0  0
  160.9810  202.8190  149.3700 C   0  0  0  0  0  3  0  0  0  0  0  0
  161.7160  209.5000  152.3490 C   0  0  0  0  0  0  0  0  0  0  0  0
  161.7040  210.2380  153.6440 C   0  0  0  0  0  1  0  0  0  0  0  0
  161.7440  208.1790  149.8730 C   0  0  0  0  0  3  0  0  0  0  0  0
  161.3860  204.4700  147.6220 C   0  0  0  0  0  3  0  0  0  0  0  0
  161.1100  205.3800  152.2330 C   0  0  0  0  0  0  0  0  0  0  0  0
  160.8850  203.7290  151.9750 S   0  0  0  0  0  0  0  0  0  0  0  0
  161.9280  210.2150  151.1680 C   0  0  0  0  0  3  0  0  0  0  0  0
  161.4550  205.4940  148.5790 C   0  0  0  0  0  3  0  0  0  0  0  0
  161.9490  209.5590  149.9340 C   0  0  0  0  0  0  0  0  0  0  0  0
  161.5140  208.1090  152.3000 C   0  0  0  0  0  0  0  0  0  0  0  0
  162.1570  210.3360  148.6820 C   0  0  0  0  0  2  0  0  0  0  0  0
  161.6710  211.7620  148.8660 C   0  0  0  0  0  2  0  0  0  0  0  0
  162.5590  212.7240  148.0950 C   0  0  1  0  0  3  0  0  0  0  0  0
  163.7540  212.0960  147.7410 O   0  0  0  0  0  1  0  0  0  0  0  0
  161.8540  213.2010  146.8700 C   0  0  0  0  0  0  0  0  0  0  0  0
  162.4860  213.1170  145.6360 O   0  0  0  0  0  0  0  0  0  0  0  0
  160.6990  213.6970  146.9480 O   0  0  0  0  0  1  0  0  0  0  0  0
  1  2  2  0  0  0  0
  1 13  1  0  0  0  0
  2 18  1  0  0  0  0
  3  6  1  0  0  0  0
  4  7  1  0  0  0  0
  4  1  1  0  0  0  0
  5  8  1  0  0  0  0
  7 14  1  0  0  0  0
  8  7  2  0  0  0  0
  9 10  1  0  0  0  0
 11 17  2  0  0  0  0
 11  2  1  0  0  0  0
 12  5  2  0  0  0  0
 12 16  1  0  0  0  0
 13  3  2  0  0  0  0
 14 13  1  0  0  0  0
 15  9  2  0  0  0  0
 16  4  2  0  0  0  0
 17 15  1  0  0  0  0
 18  9  1  0  0  0  0
 18  6  2  0  0  0  0
 19 20  1  0  0  0  0
 19 17  1  0  0  0  0
 21 22  1  6  0  0  0
 21 20  1  0  0  0  0
 23 25  1  0  0  0  0
 23 21  1  0  0  0  0
 24 23  2  0  0  0  0
M  END
>  <MODEL>
8

>  <REMARK>
 VINA RESULT:      -8.7      3.928      5.876
  Name = 
  4 active torsions:
  status: ('A' for Active; 'I' for Inactive)
    1  A    between atoms: C_2  and  C_21
    2  A    between atoms: C_6  and  C_15
    3  A    between atoms: C_6  and  C_23
    4  A    between atoms: C_15  and  C_21
                            x       y       z     vdW  Elec       q    Type
                         _______ _______ _______ _____ _____    ______ ____

>  <TORSDO>
F 4

$$$$
=
 OpenBabel11052422113D

 25 28  0  0  1  0  0  0  0  0999 V2000
  161.3910  206.0640  149.7170 C   0  0  0  0  0  0  0  0  0  0  0  0
  161.4940  207.3250  150.3340 C   0  0  0  0  0  0  0  0  0  0  0  0
  161.7520  207.0880  147.5470 C   0  0  0  0  0  3  0  0  0  0  0  0
  161.1640  204.8070  150.3100 C   0  0  0  0  0  0  0  0  0  0  0  0
  160.7320  202.1660  151.1140 C   0  0  0  0  0  3  0  0  0  0  0  0
  161.8520  208.3040  148.1520 N   0  0  0  0  0  0  0  0  0  0  0  0
  161.1240  203.7720  149.3780 C   0  0  0  0  0  0  0  0  0  0  0  0
  160.9100  202.4480  149.7510 C   0  0  0  0  0  3  0  0  0  0  0  0
  161.8430  209.7320  150.0900 C   0  0  0  0  0  0  0  0  0  0  0  0
  162.0950  210.9440  149.2580 C   0  0  0  0  0  1  0  0  0  0  0  0
  161.3730  207.4960  151.7190 C   0  0  0  0  0  3  0  0  0  0  0  0
  160.7700  203.1990  152.0670 C   0  0  0  0  0  3  0  0  0  0  0  0
  161.5220  205.9680  148.3350 C   0  0  0  0  0  0  0  0  0  0  0  0
  161.3640  204.3700  147.8220 S   0  0  0  0  0  0  0  0  0  0  0  0
  161.7190  209.8780  151.4740 C   0  0  0  0  0  3  0  0  0  0  0  0
  160.9870  204.5270  151.6690 C   0  0  0  0  0  3  0  0  0  0  0  0
  161.4800  208.7670  152.2870 C   0  0  0  0  0  0  0  0  0  0  0  0
  161.7310  208.4580  149.5060 C   0  0  0  0  0  0  0  0  0  0  0  0
  161.3700  208.9340  153.7610 C   0  0  0  0  0  2  0  0  0  0  0  0
  160.7880  207.6790  154.3860 C   0  0  0  0  0  2  0  0  0  0  0  0
  160.0640  208.0220  155.6770 C   0  0  1  0  0  3  0  0  0  0  0  0
  159.7210  206.8540  156.3610 O   0  0  0  0  0  1  0  0  0  0  0  0
  160.9310  208.8780  156.5380 C   0  0  0  0  0  0  0  0  0  0  0  0
  162.1550  208.3930  156.9780 O   0  0  0  0  0  1  0  0  0  0  0  0
  160.5530  210.0290  156.8840 O   0  0  0  0  0  0  0  0  0  0  0  0
  1  4  1  0  0  0  0
  1  2  1  0  0  0  0
  2 11  1  0  0  0  0
  3  6  2  0  0  0  0
  3 13  1  0  0  0  0
  4 16  1  0  0  0  0
  5 12  1  0  0  0  0
  6 18  1  0  0  0  0
  7  8  1  0  0  0  0
  7  4  2  0  0  0  0
  8  5  2  0  0  0  0
  9 15  2  0  0  0  0
 10  9  1  0  0  0  0
 11 17  2  0  0  0  0
 13  1  2  0  0  0  0
 14 13  1  0  0  0  0
 14  7  1  0  0  0  0
 15 17  1  0  0  0  0
 16 12  2  0  0  0  0
 17 19  1  0  0  0  0
 18  9  1  0  0  0  0
 18  2  2  0  0  0  0
 19 20  1  0  0  0  0
 20 21  1  0  0  0  0
 21 22  1  1  0  0  0
 21 23  1  0  0  0  0
 23 25  2  0  0  0  0
 23 24  1  0  0  0  0
M  END
>  <MODEL>
9

>  <REMARK>
 VINA RESULT:      -8.7      1.123      1.723
  Name = 
  4 active torsions:
  status: ('A' for Active; 'I' for Inactive)
    1  A    between atoms: C_2  and  C_21
    2  A    between atoms: C_6  and  C_15
    3  A    between atoms: C_6  and  C_23
    4  A    between atoms: C_15  and  C_21
                            x       y       z     vdW  Elec       q    Type
                         _______ _______ _______ _____ _____    ______ ____

>  <TORSDO>
F 4

$$$$
