=
 OpenBabel11062408303D

 32 37  0  0  1  0  0  0  0  0999 V2000
  160.9690  204.1480  149.9910 C   0  0  2  0  0  3  0  0  0  0  0  0
  161.2440  206.3940  151.0870 C   0  0  0  0  0  0  0  0  0  0  0  0
  160.9110  202.6840  150.1900 C   0  0  0  0  0  3  0  0  0  0  0  0
  160.6420  205.0230  151.1810 C   0  0  2  0  0  3  0  0  0  0  0  0
  161.4330  207.1460  152.1910 C   0  0  0  0  0  0  0  0  0  0  0  0
  161.9490  210.3450  148.1720 C   0  0  0  0  0  3  0  0  0  0  0  0
  161.4600  206.9380  149.7350 C   0  0  0  0  0  0  0  0  0  0  0  0
  162.1210  210.5470  150.5790 C   0  0  0  0  0  3  0  0  0  0  0  0
  161.8980  209.1730  150.7180 C   0  0  0  0  0  0  0  0  0  0  0  0
  160.9320  204.3670  152.5020 C   0  0  0  0  0  0  0  0  0  0  0  0
  161.9530  208.5660  152.0950 C   0  0  0  0  0  3  0  0  0  0  0  0
  161.0900  205.1780  153.6250 O   0  0  0  0  0  0  0  0  0  0  0  0
  160.9940  203.0370  152.6140 C   0  0  0  0  0  3  0  0  0  0  0  0
  161.4370  206.1430  148.7040 N   0  0  0  0  0  0  0  0  0  0  0  0
  161.2480  204.7160  148.7930 C   0  0  0  0  0  0  0  0  0  0  0  0
  161.7080  208.3790  149.5740 C   0  0  0  0  0  0  0  0  0  0  0  0
  161.2390  206.5470  153.4920 N   0  0  0  0  0  0  0  0  0  0  0  0
  160.9080  202.1680  151.4230 C   0  0  0  0  0  3  0  0  0  0  0  0
  162.1410  211.1330  149.3100 C   0  0  0  0  0  3  0  0  0  0  0  0
  161.7330  208.9700  148.3030 C   0  0  0  0  0  3  0  0  0  0  0  0
  160.8250  204.9570  145.3120 C   0  0  1  0  0  3  0  0  0  0  0  0
  160.0350  201.8600  144.0790 O   0  0  0  0  0  0  0  0  0  0  0  0
  161.4010  205.2480  143.9370 C   0  0  0  0  0  1  0  0  0  0  0  0
  160.9800  201.8430  146.2370 C   0  0  0  0  0  2  0  0  0  0  0  0
  161.4370  203.9190  147.5540 C   0  0  0  0  0  0  0  0  0  0  0  0
  159.7060  203.9080  145.1930 C   0  0  0  0  0  2  0  0  0  0  0  0
  160.9660  202.6650  147.4980 C   0  0  0  0  0  3  0  0  0  0  0  0
  161.9490  204.5640  146.2840 C   0  0  2  0  0  3  0  0  0  0  0  0
  162.8180  205.6980  146.5650 N   0  0  0  0  0  1  0  0  0  0  0  0
  160.2190  202.4920  145.1040 C   0  0  0  0  0  0  0  0  0  0  0  0
  161.3670  207.3430  154.7040 C   0  0  0  0  0  2  0  0  0  0  0  0
  160.1440  207.3730  155.3750 O   0  0  0  0  0  1  0  0  0  0  0  0
  1  3  1  6  0  0  0
  1  4  1  0  0  0  0
  2  5  1  0  0  0  0
  3 18  2  0  0  0  0
  4  2  1  6  0  0  0
  4 10  1  0  0  0  0
  5 17  1  0  0  0  0
  6 20  2  0  0  0  0
  6 19  1  0  0  0  0
  7  2  2  0  0  0  0
  8  9  1  0  0  0  0
  9 11  1  0  0  0  0
 10 13  2  0  0  0  0
 10 12  1  0  0  0  0
 11  5  2  0  0  0  0
 14 15  2  0  0  0  0
 14  7  1  0  0  0  0
 15  1  1  0  0  0  0
 16  7  1  0  0  0  0
 16  9  2  0  0  0  0
 17 12  1  0  0  0  0
 17 31  1  0  0  0  0
 18 13  1  0  0  0  0
 19  8  2  0  0  0  0
 20 16  1  0  0  0  0
 21 23  1  6  0  0  0
 21 28  1  0  0  0  0
 22 30  2  0  0  0  0
 24 27  1  0  0  0  0
 25 15  1  0  0  0  0
 26 21  1  0  0  0  0
 27 25  2  0  0  0  0
 28 29  1  1  0  0  0
 28 25  1  0  0  0  0
 30 26  1  0  0  0  0
 30 24  1  0  0  0  0
 31 32  1  0  0  0  0
M  END
>  <MODEL>
1

>  <REMARK>
 VINA RESULT:      -9.3      0.000      0.000
  Name = 
  2 active torsions:
  status: ('A' for Active; 'I' for Inactive)
    1  A    between atoms: C_13  and  N_29
    2  A    between atoms: C_16  and  C_27
                            x       y       z     vdW  Elec       q    Type
                         _______ _______ _______ _____ _____    ______ ____

>  <TORSDO>
F 2

$$$$
=
 OpenBabel11062408303D

 32 37  0  0  1  0  0  0  0  0999 V2000
  161.4250  208.5340  151.0200 C   0  0  0  0  0  0  0  0  0  0  0  0
  161.2680  206.4590  149.6080 C   0  0  0  0  0  0  0  0  0  0  0  0
  161.7710  209.9710  151.0550 C   0  0  0  0  0  3  0  0  0  0  0  0
  161.0560  207.9420  149.6770 C   0  0  2  0  0  3  0  0  0  0  0  0
  161.4130  205.8330  148.4220 C   0  0  0  0  0  0  0  0  0  0  0  0
  160.5220  202.1250  151.9030 C   0  0  0  0  0  3  0  0  0  0  0  0
  161.1450  205.7070  150.8690 C   0  0  0  0  0  0  0  0  0  0  0  0
  160.9740  202.1950  149.5250 C   0  0  0  0  0  3  0  0  0  0  0  0
  161.1310  203.5830  149.5880 C   0  0  0  0  0  0  0  0  0  0  0  0
  161.6870  208.6580  148.5150 C   0  0  0  0  0  0  0  0  0  0  0  0
  161.5340  204.3240  148.3400 C   0  0  0  0  0  3  0  0  0  0  0  0
  161.7900  207.9870  147.2980 O   0  0  0  0  0  0  0  0  0  0  0  0
  162.1030  209.9240  148.6270 C   0  0  0  0  0  3  0  0  0  0  0  0
  161.1810  206.3380  152.0080 N   0  0  0  0  0  2  0  0  0  0  0  0
  161.3770  207.7620  152.1320 C   0  0  0  0  0  0  0  0  0  0  0  0
  160.9910  204.2450  150.8200 C   0  0  0  0  0  0  0  0  0  0  0  0
  161.5640  206.6230  147.2230 N   0  0  0  0  0  0  0  0  0  0  0  0
  162.0740  210.6220  149.9280 C   0  0  0  0  0  3  0  0  0  0  0  0
  160.6640  201.4680  150.6780 C   0  0  0  0  0  3  0  0  0  0  0  0
  160.6850  203.5110  151.9750 C   0  0  0  0  0  3  0  0  0  0  0  0
  159.9700  207.6600  155.3510 C   0  0  1  0  0  3  0  0  0  0  0  0
  160.4820  210.6850  156.8760 O   0  0  0  0  0  0  0  0  0  0  0  0
  159.9370  207.0720  156.7510 C   0  0  0  0  0  1  0  0  0  0  0  0
  161.8580  210.2850  155.0060 C   0  0  0  0  0  2  0  0  0  0  0  0
  161.5870  208.3100  153.4960 C   0  0  0  0  0  0  0  0  0  0  0  0
  159.5150  209.1290  155.3960 C   0  0  0  0  0  2  0  0  0  0  0  0
  161.7880  209.6260  153.6550 C   0  0  0  0  0  3  0  0  0  0  0  0
  161.3580  207.4550  154.7230 C   0  0  2  0  0  3  0  0  0  0  0  0
  161.6070  206.0450  154.4540 N   0  0  0  0  0  1  0  0  0  0  0  0
  160.6050  210.0810  155.8250 C   0  0  0  0  0  0  0  0  0  0  0  0
  161.6530  205.9860  145.9180 C   0  0  0  0  0  2  0  0  0  0  0  0
  160.4770  206.2140  145.2030 O   0  0  0  0  0  1  0  0  0  0  0  0
  1  3  1  0  0  0  0
  1 15  2  0  0  0  0
  2  4  1  0  0  0  0
  2  7  1  0  0  0  0
  4 10  1  6  0  0  0
  4  1  1  0  0  0  0
  5  2  2  0  0  0  0
  6 20  2  0  0  0  0
  7 14  1  0  0  0  0
  8  9  1  0  0  0  0
  8 19  2  0  0  0  0
  9 16  1  0  0  0  0
 10 13  2  0  0  0  0
 11  5  1  0  0  0  0
 11  9  2  0  0  0  0
 12 10  1  0  0  0  0
 13 18  1  0  0  0  0
 14 15  1  0  0  0  0
 15 25  1  0  0  0  0
 16  7  2  0  0  0  0
 16 20  1  0  0  0  0
 17 12  1  0  0  0  0
 17  5  1  0  0  0  0
 18  3  2  0  0  0  0
 19  6  1  0  0  0  0
 21 26  1  0  0  0  0
 21 23  1  1  0  0  0
 24 30  1  0  0  0  0
 25 27  2  0  0  0  0
 25 28  1  0  0  0  0
 26 30  1  0  0  0  0
 27 24  1  0  0  0  0
 28 29  1  6  0  0  0
 28 21  1  0  0  0  0
 30 22  2  0  0  0  0
 31 17  1  0  0  0  0
 32 31  1  0  0  0  0
M  END
>  <MODEL>
2

>  <REMARK>
 VINA RESULT:      -9.3      2.095      8.340
  Name = 
  2 active torsions:
  status: ('A' for Active; 'I' for Inactive)
    1  A    between atoms: C_13  and  N_29
    2  A    between atoms: C_16  and  C_27
                            x       y       z     vdW  Elec       q    Type
                         _______ _______ _______ _____ _____    ______ ____

>  <TORSDO>
F 2

$$$$
=
 OpenBabel11062408303D

 32 37  0  0  1  0  0  0  0  0999 V2000
  161.5050  208.7300  149.5190 C   0  0  0  0  0  0  0  0  0  0  0  0
  161.1340  207.5230  151.6920 C   0  0  0  0  0  0  0  0  0  0  0  0
  161.8670  208.6040  148.0910 C   0  0  0  0  0  3  0  0  0  0  0  0
  160.9480  207.5020  150.2040 C   0  0  2  0  0  3  0  0  0  0  0  0
  161.1070  206.3810  152.4110 C   0  0  0  0  0  0  0  0  0  0  0  0
  160.6690  210.2340  155.8200 C   0  0  0  0  0  3  0  0  0  0  0  0
  161.1790  208.8440  152.3420 C   0  0  0  0  0  0  0  0  0  0  0  0
  160.7890  207.8190  155.9430 C   0  0  0  0  0  3  0  0  0  0  0  0
  160.9670  207.7490  154.5580 C   0  0  0  0  0  0  0  0  0  0  0  0
  161.4200  206.2120  149.5930 C   0  0  0  0  0  0  0  0  0  0  0  0
  161.2000  206.4030  153.9240 C   0  0  0  0  0  3  0  0  0  0  0  0
  161.3460  205.0490  150.3580 O   0  0  0  0  0  0  0  0  0  0  0  0
  161.8590  206.1650  148.3320 C   0  0  0  0  0  3  0  0  0  0  0  0
  161.3790  209.9140  151.6250 N   0  0  0  0  0  2  0  0  0  0  0  0
  161.6040  209.8960  150.2010 C   0  0  0  0  0  0  0  0  0  0  0  0
  161.0050  208.9330  153.7990 C   0  0  0  0  0  0  0  0  0  0  0  0
  161.0980  205.1140  151.7180 N   0  0  0  0  0  0  0  0  0  0  0  0
  162.0170  207.3980  147.5350 C   0  0  0  0  0  3  0  0  0  0  0  0
  160.6340  209.0580  156.5720 C   0  0  0  0  0  3  0  0  0  0  0  0
  160.8550  210.1730  154.4360 C   0  0  0  0  0  3  0  0  0  0  0  0
  160.2190  212.6210  148.4660 C   0  0  1  0  0  3  0  0  0  0  0  0
  162.5090  213.7590  146.1860 O   0  0  0  0  0  0  0  0  0  0  0  0
  159.6680  214.0360  148.4700 C   0  0  0  0  0  1  0  0  0  0  0  0
  163.4080  212.3880  147.8790 C   0  0  0  0  0  2  0  0  0  0  0  0
  162.0060  211.1710  149.5540 C   0  0  0  0  0  0  0  0  0  0  0  0
  160.8820  212.3280  147.1100 C   0  0  0  0  0  2  0  0  0  0  0  0
  163.0330  211.1780  148.6910 C   0  0  0  0  0  3  0  0  0  0  0  0
  161.1460  212.4110  149.6740 C   0  0  2  0  0  3  0  0  0  0  0  0
  160.3930  212.4280  150.9200 N   0  0  0  0  0  1  0  0  0  0  0  0
  162.2830  212.8770  146.9970 C   0  0  0  0  0  0  0  0  0  0  0  0
  161.0010  203.8630  152.4570 C   0  0  0  0  0  2  0  0  0  0  0  0
  161.4990  202.8190  151.6770 O   0  0  0  0  0  1  0  0  0  0  0  0
  1 15  2  0  0  0  0
  2  7  2  0  0  0  0
  2  5  1  0  0  0  0
  3  1  1  0  0  0  0
  4  1  1  6  0  0  0
  4  2  1  0  0  0  0
  5 11  2  0  0  0  0
  6 19  1  0  0  0  0
  7 16  1  0  0  0  0
  8 19  2  0  0  0  0
  9  8  1  0  0  0  0
 10  4  1  0  0  0  0
 10 12  1  0  0  0  0
 11  9  1  0  0  0  0
 12 17  1  0  0  0  0
 13 10  2  0  0  0  0
 14  7  1  0  0  0  0
 15 14  1  0  0  0  0
 16 20  1  0  0  0  0
 16  9  2  0  0  0  0
 17  5  1  0  0  0  0
 17 31  1  0  0  0  0
 18  3  2  0  0  0  0
 18 13  1  0  0  0  0
 20  6  2  0  0  0  0
 21 23  1  6  0  0  0
 21 28  1  0  0  0  0
 22 30  2  0  0  0  0
 24 27  1  0  0  0  0
 25 28  1  0  0  0  0
 25 15  1  0  0  0  0
 26 21  1  0  0  0  0
 27 25  2  0  0  0  0
 28 29  1  1  0  0  0
 30 26  1  0  0  0  0
 30 24  1  0  0  0  0
 32 31  1  0  0  0  0
M  END
>  <MODEL>
3

>  <REMARK>
 VINA RESULT:      -8.4      3.071      6.714
  Name = 
  2 active torsions:
  status: ('A' for Active; 'I' for Inactive)
    1  A    between atoms: C_13  and  N_29
    2  A    between atoms: C_16  and  C_27
                            x       y       z     vdW  Elec       q    Type
                         _______ _______ _______ _____ _____    ______ ____

>  <TORSDO>
F 2

$$$$
=
 OpenBabel11062408303D

 32 37  0  0  1  0  0  0  0  0999 V2000
  162.0030  209.6170  150.9790 C   0  0  2  0  0  3  0  0  0  0  0  0
  161.6280  207.1970  150.4090 C   0  0  0  0  0  0  0  0  0  0  0  0
  161.8990  210.6630  152.0190 C   0  0  0  0  0  3  0  0  0  0  0  0
  162.0830  208.1800  151.4470 C   0  0  2  0  0  3  0  0  0  0  0  0
  161.2230  205.9580  150.7580 C   0  0  0  0  0  0  0  0  0  0  0  0
  161.9830  205.8360  145.6520 C   0  0  0  0  0  3  0  0  0  0  0  0
  161.8040  207.5850  148.9990 C   0  0  0  0  0  0  0  0  0  0  0  0
  161.2220  204.2620  147.3280 C   0  0  0  0  0  3  0  0  0  0  0  0
  161.3000  205.2560  148.3080 C   0  0  0  0  0  0  0  0  0  0  0  0
  161.4190  207.9470  152.7760 C   0  0  0  0  0  0  0  0  0  0  0  0
  160.8520  204.9290  149.7080 C   0  0  0  0  0  3  0  0  0  0  0  0
  161.0430  206.6470  153.1110 O   0  0  0  0  0  0  0  0  0  0  0  0
  161.2310  208.9500  153.6390 C   0  0  0  0  0  3  0  0  0  0  0  0
  162.0270  208.8300  148.6910 N   0  0  0  0  0  0  0  0  0  0  0  0
  162.0800  209.9000  149.6570 C   0  0  0  0  0  0  0  0  0  0  0  0
  161.7130  206.5530  147.9550 C   0  0  0  0  0  0  0  0  0  0  0  0
  161.0350  205.6460  152.1560 N   0  0  0  0  0  0  0  0  0  0  0  0
  161.5520  210.3430  153.2690 C   0  0  0  0  0  3  0  0  0  0  0  0
  161.5690  204.5490  146.0040 C   0  0  0  0  0  3  0  0  0  0  0  0
  162.0550  206.8370  146.6250 C   0  0  0  0  0  3  0  0  0  0  0  0
  160.1050  212.2940  148.0060 C   0  0  1  0  0  3  0  0  0  0  0  0
  162.1300  214.2180  146.0230 O   0  0  0  0  0  0  0  0  0  0  0  0
  159.1830  213.4980  148.0630 C   0  0  0  0  0  1  0  0  0  0  0  0
  163.2640  212.9940  147.6850 C   0  0  0  0  0  2  0  0  0  0  0  0
  162.1520  211.2900  149.1390 C   0  0  0  0  0  0  0  0  0  0  0  0
  160.9100  212.3190  146.6960 C   0  0  0  0  0  2  0  0  0  0  0  0
  163.1890  211.6570  148.3730 C   0  0  0  0  0  3  0  0  0  0  0  0
  160.9750  212.2320  149.2720 C   0  0  2  0  0  3  0  0  0  0  0  0
  160.1680  211.9280  150.4460 N   0  0  0  0  0  1  0  0  0  0  0  0
  162.1070  213.2370  146.7450 C   0  0  0  0  0  0  0  0  0  0  0  0
  160.6650  204.3030  152.5750 C   0  0  0  0  0  2  0  0  0  0  0  0
  161.6020  203.3870  152.0960 O   0  0  0  0  0  1  0  0  0  0  0  0
  1  4  1  0  0  0  0
  1  3  1  1  0  0  0
  2  5  1  0  0  0  0
  3 18  2  0  0  0  0
  4  2  1  6  0  0  0
  4 10  1  0  0  0  0
  5 17  1  0  0  0  0
  6 19  2  0  0  0  0
  6 20  1  0  0  0  0
  7  2  2  0  0  0  0
  8  9  2  0  0  0  0
  9 11  1  0  0  0  0
 10 12  1  0  0  0  0
 10 13  2  0  0  0  0
 11  5  2  0  0  0  0
 14  7  1  0  0  0  0
 14 15  2  0  0  0  0
 15  1  1  0  0  0  0
 16  9  1  0  0  0  0
 16  7  1  0  0  0  0
 17 31  1  0  0  0  0
 17 12  1  0  0  0  0
 18 13  1  0  0  0  0
 19  8  1  0  0  0  0
 20 16  2  0  0  0  0
 21 23  1  1  0  0  0
 21 28  1  0  0  0  0
 22 30  2  0  0  0  0
 24 27  1  0  0  0  0
 25 28  1  0  0  0  0
 25 15  1  0  0  0  0
 26 30  1  0  0  0  0
 26 21  1  0  0  0  0
 27 25  2  0  0  0  0
 28 29  1  1  0  0  0
 30 24  1  0  0  0  0
 32 31  1  0  0  0  0
M  END
>  <MODEL>
4

>  <REMARK>
 VINA RESULT:      -8.1      2.932      6.668
  Name = 
  2 active torsions:
  status: ('A' for Active; 'I' for Inactive)
    1  A    between atoms: C_13  and  N_29
    2  A    between atoms: C_16  and  C_27
                            x       y       z     vdW  Elec       q    Type
                         _______ _______ _______ _____ _____    ______ ____

>  <TORSDO>
F 2

$$$$
=
 OpenBabel11062408303D

 32 37  0  0  1  0  0  0  0  0999 V2000
  160.4670  208.4230  154.3190 C   0  0  2  0  0  3  0  0  0  0  0  0
  159.7010  210.8170  154.3750 C   0  0  0  0  0  0  0  0  0  0  0  0
  160.9090  207.2570  155.1130 C   0  0  0  0  0  3  0  0  0  0  0  0
  159.6310  209.4670  155.0260 C   0  0  2  0  0  3  0  0  0  0  0  0
  159.3970  211.9370  155.0650 C   0  0  0  0  0  0  0  0  0  0  0  0
  159.4480  213.2900  150.0830 C   0  0  0  0  0  3  0  0  0  0  0  0
  159.9490  210.8470  152.9240 C   0  0  0  0  0  0  0  0  0  0  0  0
  159.0890  214.4370  152.1850 C   0  0  0  0  0  3  0  0  0  0  0  0
  159.3580  213.2560  152.8840 C   0  0  0  0  0  0  0  0  0  0  0  0
  159.8910  209.5390  156.5050 C   0  0  0  0  0  0  0  0  0  0  0  0
  159.3750  213.2930  154.3890 C   0  0  0  0  0  3  0  0  0  0  0  0
  159.5340  210.7010  157.1860 O   0  0  0  0  0  0  0  0  0  0  0  0
  160.4100  208.5000  157.1660 C   0  0  0  0  0  3  0  0  0  0  0  0
  160.4080  209.7880  152.3210 N   0  0  0  0  0  0  0  0  0  0  0  0
  160.7360  208.5570  152.9980 C   0  0  0  0  0  0  0  0  0  0  0  0
  159.6830  212.0860  152.1760 C   0  0  0  0  0  0  0  0  0  0  0  0
  159.1980  211.8510  156.4930 N   0  0  0  0  0  0  0  0  0  0  0  0
  160.8650  207.2920  156.4480 C   0  0  0  0  0  3  0  0  0  0  0  0
  159.1280  214.4530  150.7880 C   0  0  0  0  0  3  0  0  0  0  0  0
  159.7260  212.1080  150.7750 C   0  0  0  0  0  3  0  0  0  0  0  0
  161.3430  207.6050  149.6690 C   0  0  1  0  0  3  0  0  0  0  0  0
  161.5200  204.1870  149.5130 O   0  0  0  0  0  0  0  0  0  0  0  0
  162.2440  207.6080  148.4470 C   0  0  0  0  0  1  0  0  0  0  0  0
  161.7600  205.0830  151.6790 C   0  0  0  0  0  2  0  0  0  0  0  0
  161.4260  207.5030  152.2110 C   0  0  0  0  0  0  0  0  0  0  0  0
  160.5150  206.3090  149.6990 C   0  0  0  0  0  2  0  0  0  0  0  0
  161.2240  206.2130  152.5150 C   0  0  0  0  0  3  0  0  0  0  0  0
  162.1740  207.8440  150.9400 C   0  0  2  0  0  3  0  0  0  0  0  0
  162.7030  209.2000  150.9710 N   0  0  0  0  0  1  0  0  0  0  0  0
  161.2730  205.1260  150.2500 C   0  0  0  0  0  0  0  0  0  0  0  0
  158.8030  213.0220  157.2610 C   0  0  0  0  0  2  0  0  0  0  0  0
  157.4160  213.1670  157.2130 O   0  0  0  0  0  1  0  0  0  0  0  0
  1  4  1  0  0  0  0
  1  3  1  6  0  0  0
  2  5  1  0  0  0  0
  3 18  2  0  0  0  0
  4  2  1  6  0  0  0
  4 10  1  0  0  0  0
  5 17  1  0  0  0  0
  6 20  2  0  0  0  0
  6 19  1  0  0  0  0
  7  2  2  0  0  0  0
  8  9  1  0  0  0  0
  9 11  1  0  0  0  0
 10 13  2  0  0  0  0
 10 12  1  0  0  0  0
 11  5  2  0  0  0  0
 14  7  1  0  0  0  0
 14 15  2  0  0  0  0
 15  1  1  0  0  0  0
 16  9  2  0  0  0  0
 16  7  1  0  0  0  0
 17 12  1  0  0  0  0
 17 31  1  0  0  0  0
 18 13  1  0  0  0  0
 19  8  2  0  0  0  0
 20 16  1  0  0  0  0
 21 23  1  6  0  0  0
 21 26  1  0  0  0  0
 21 28  1  0  0  0  0
 22 30  2  0  0  0  0
 24 27  1  0  0  0  0
 25 27  2  0  0  0  0
 25 15  1  0  0  0  0
 26 30  1  0  0  0  0
 28 29  1  1  0  0  0
 28 25  1  0  0  0  0
 30 24  1  0  0  0  0
 32 31  1  0  0  0  0
M  END
>  <MODEL>
5

>  <REMARK>
 VINA RESULT:      -7.7      3.608      5.863
  Name = 
  2 active torsions:
  status: ('A' for Active; 'I' for Inactive)
    1  A    between atoms: C_13  and  N_29
    2  A    between atoms: C_16  and  C_27
                            x       y       z     vdW  Elec       q    Type
                         _______ _______ _______ _____ _____    ______ ____

>  <TORSDO>
F 2

$$$$
=
 OpenBabel11062408303D

 32 37  0  0  1  0  0  0  0  0999 V2000
  161.0890  209.3000  153.2840 C   0  0  2  0  0  3  0  0  0  0  0  0
  161.6560  209.6000  150.8530 C   0  0  0  0  0  0  0  0  0  0  0  0
  160.8300  208.3350  154.3740 C   0  0  0  0  0  3  0  0  0  0  0  0
  161.9040  208.8130  152.1060 C   0  0  2  0  0  3  0  0  0  0  0  0
  161.9350  209.0790  149.6400 C   0  0  0  0  0  0  0  0  0  0  0  0
  161.2610  214.1450  148.9070 C   0  0  0  0  0  3  0  0  0  0  0  0
  161.2580  211.0090  151.0170 C   0  0  0  0  0  0  0  0  0  0  0  0
  161.7390  212.2390  147.4910 C   0  0  0  0  0  3  0  0  0  0  0  0
  161.6420  211.3860  148.5950 C   0  0  0  0  0  0  0  0  0  0  0  0
  161.7930  207.3320  151.8740 C   0  0  0  0  0  0  0  0  0  0  0  0
  161.7760  209.9020  148.3770 C   0  0  0  0  0  3  0  0  0  0  0  0
  162.1200  206.8300  150.6160 O   0  0  0  0  0  0  0  0  0  0  0  0
  161.4320  206.5040  152.8600 C   0  0  0  0  0  3  0  0  0  0  0  0
  160.8300  211.4330  152.1710 N   0  0  0  0  0  0  0  0  0  0  0  0
  160.6750  210.5890  153.3310 C   0  0  0  0  0  0  0  0  0  0  0  0
  161.3430  211.9160  149.8630 C   0  0  0  0  0  0  0  0  0  0  0  0
  162.2870  207.6820  149.5380 N   0  0  0  0  0  0  0  0  0  0  0  0
  161.0070  207.0250  154.1750 C   0  0  0  0  0  3  0  0  0  0  0  0
  161.5550  213.6160  147.6470 C   0  0  0  0  0  3  0  0  0  0  0  0
  161.1540  213.2980  150.0130 C   0  0  0  0  0  3  0  0  0  0  0  0
  158.3240  213.0580  154.1840 C   0  0  1  0  0  3  0  0  0  0  0  0
  159.1280  214.3330  157.2610 O   0  0  0  0  0  0  0  0  0  0  0  0
  156.8930  213.4520  154.5050 C   0  0  0  0  0  1  0  0  0  0  0  0
  160.1430  212.2670  156.7600 C   0  0  0  0  0  2  0  0  0  0  0  0
  159.9980  211.1700  154.5180 C   0  0  0  0  0  0  0  0  0  0  0  0
  159.2960  213.9810  154.9380 C   0  0  0  0  0  2  0  0  0  0  0  0
  160.7270  211.5350  155.5820 C   0  0  0  0  0  3  0  0  0  0  0  0
  158.5370  211.5620  154.4660 C   0  0  2  0  0  3  0  0  0  0  0  0
  157.7890  210.7410  153.5240 N   0  0  0  0  0  1  0  0  0  0  0  0
  159.5060  213.5820  156.3780 C   0  0  0  0  0  0  0  0  0  0  0  0
  162.6610  207.1010  148.2580 C   0  0  0  0  0  2  0  0  0  0  0  0
  161.6730  206.2070  147.8430 O   0  0  0  0  0  1  0  0  0  0  0  0
  1 15  1  0  0  0  0
  1  3  1  1  0  0  0
  2  7  1  0  0  0  0
  4  2  1  6  0  0  0
  4  1  1  0  0  0  0
  5  2  2  0  0  0  0
  6 20  2  0  0  0  0
  7 14  1  0  0  0  0
  8 19  2  0  0  0  0
  8  9  1  0  0  0  0
  9 16  1  0  0  0  0
 10  4  1  0  0  0  0
 10 13  2  0  0  0  0
 11  9  2  0  0  0  0
 11  5  1  0  0  0  0
 12 10  1  0  0  0  0
 13 18  1  0  0  0  0
 14 15  2  0  0  0  0
 15 25  1  0  0  0  0
 16 20  1  0  0  0  0
 16  7  2  0  0  0  0
 17  5  1  0  0  0  0
 17 12  1  0  0  0  0
 18  3  2  0  0  0  0
 19  6  1  0  0  0  0
 21 28  1  0  0  0  0
 21 23  1  1  0  0  0
 21 26  1  0  0  0  0
 25 27  2  0  0  0  0
 26 30  1  0  0  0  0
 27 24  1  0  0  0  0
 28 29  1  6  0  0  0
 28 25  1  0  0  0  0
 30 24  1  0  0  0  0
 30 22  2  0  0  0  0
 31 17  1  0  0  0  0
 32 31  1  0  0  0  0
M  END
>  <MODEL>
6

>  <REMARK>
 VINA RESULT:      -7.3      3.835      8.561
  Name = 
  2 active torsions:
  status: ('A' for Active; 'I' for Inactive)
    1  A    between atoms: C_13  and  N_29
    2  A    between atoms: C_16  and  C_27
                            x       y       z     vdW  Elec       q    Type
                         _______ _______ _______ _____ _____    ______ ____

>  <TORSDO>
F 2

$$$$
=
 OpenBabel11062408303D

 32 37  0  0  1  0  0  0  0  0999 V2000
  160.0990  212.2520  153.6980 C   0  0  2  0  0  3  0  0  0  0  0  0
  160.6270  209.8230  154.0720 C   0  0  0  0  0  0  0  0  0  0  0  0
  159.6100  213.5100  154.3040 C   0  0  0  0  0  3  0  0  0  0  0  0
  160.6830  211.2140  154.6310 C   0  0  2  0  0  3  0  0  0  0  0  0
  160.6890  208.7460  154.8830 C   0  0  0  0  0  0  0  0  0  0  0  0
  161.5190  206.9890  150.0990 C   0  0  0  0  0  3  0  0  0  0  0  0
  160.6730  209.6900  152.6050 C   0  0  0  0  0  0  0  0  0  0  0  0
  161.3500  205.9990  152.3030 C   0  0  0  0  0  3  0  0  0  0  0  0
  161.0500  207.2500  152.8500 C   0  0  0  0  0  0  0  0  0  0  0  0
  160.1270  211.2850  156.0260 C   0  0  0  0  0  0  0  0  0  0  0  0
  160.7280  207.3400  154.3190 C   0  0  0  0  0  3  0  0  0  0  0  0
  160.2380  210.1610  156.8420 O   0  0  0  0  0  0  0  0  0  0  0  0
  159.5780  212.4100  156.4940 C   0  0  0  0  0  3  0  0  0  0  0  0
  160.4380  210.7250  151.8510 N   0  0  0  0  0  0  0  0  0  0  0  0
  160.0890  212.0280  152.3620 C   0  0  0  0  0  0  0  0  0  0  0  0
  160.9750  208.3780  152.0140 C   0  0  0  0  0  0  0  0  0  0  0  0
  160.6050  208.9370  156.3120 N   0  0  0  0  0  0  0  0  0  0  0  0
  159.3820  213.5830  155.6190 C   0  0  0  0  0  3  0  0  0  0  0  0
  161.5890  205.8690  150.9320 C   0  0  0  0  0  3  0  0  0  0  0  0
  161.2110  208.2410  150.6380 C   0  0  0  0  0  3  0  0  0  0  0  0
  157.4930  212.7200  150.0950 C   0  0  1  0  0  3  0  0  0  0  0  0
  158.7830  214.4530  147.4350 O   0  0  0  0  0  0  0  0  0  0  0  0
  156.1770  213.4080  149.7770 C   0  0  0  0  0  1  0  0  0  0  0  0
  160.1550  214.4340  149.3500 C   0  0  0  0  0  2  0  0  0  0  0  0
  159.6640  213.0590  151.3810 C   0  0  0  0  0  0  0  0  0  0  0  0
  158.3350  212.5970  148.8130 C   0  0  0  0  0  2  0  0  0  0  0  0
  160.5410  213.5070  150.4710 C   0  0  0  0  0  3  0  0  0  0  0  0
  158.2080  213.4500  151.2430 C   0  0  2  0  0  3  0  0  0  0  0  0
  157.4840  213.2890  152.4960 N   0  0  0  0  0  1  0  0  0  0  0  0
  159.0770  213.8620  148.4590 C   0  0  0  0  0  0  0  0  0  0  0  0
  160.7360  207.8080  157.2220 C   0  0  0  0  0  2  0  0  0  0  0  0
  159.6730  206.9260  157.0290 O   0  0  0  0  0  1  0  0  0  0  0  0
  1  3  1  6  0  0  0
  1  4  1  0  0  0  0
  2  5  1  0  0  0  0
  3 18  2  0  0  0  0
  4  2  1  6  0  0  0
  4 10  1  0  0  0  0
  5 17  1  0  0  0  0
  6 20  2  0  0  0  0
  6 19  1  0  0  0  0
  7  2  2  0  0  0  0
  8  9  1  0  0  0  0
  9 11  1  0  0  0  0
 10 13  2  0  0  0  0
 10 12  1  0  0  0  0
 11  5  2  0  0  0  0
 14 15  2  0  0  0  0
 14  7  1  0  0  0  0
 15  1  1  0  0  0  0
 16  7  1  0  0  0  0
 16  9  2  0  0  0  0
 17 12  1  0  0  0  0
 17 31  1  0  0  0  0
 18 13  1  0  0  0  0
 19  8  2  0  0  0  0
 20 16  1  0  0  0  0
 21 23  1  6  0  0  0
 21 28  1  0  0  0  0
 22 30  2  0  0  0  0
 24 27  1  0  0  0  0
 25 15  1  0  0  0  0
 26 21  1  0  0  0  0
 27 25  2  0  0  0  0
 28 25  1  0  0  0  0
 28 29  1  1  0  0  0
 30 26  1  0  0  0  0
 30 24  1  0  0  0  0
 32 31  1  0  0  0  0
M  END
>  <MODEL>
7

>  <REMARK>
 VINA RESULT:      -6.4      4.448      8.199
  Name = 
  2 active torsions:
  status: ('A' for Active; 'I' for Inactive)
    1  A    between atoms: C_13  and  N_29
    2  A    between atoms: C_16  and  C_27
                            x       y       z     vdW  Elec       q    Type
                         _______ _______ _______ _____ _____    ______ ____

>  <TORSDO>
F 2

$$$$
