=
 OpenBabel11062409403D

 34 38  0  0  1  0  0  0  0  0999 V2000
  160.9970  206.2320  150.3270 C   0  0  0  0  0  0  0  0  0  0  0  0
  161.6420  203.5840  147.8030 C   0  0  0  0  0  2  0  0  0  0  0  0
  161.1640  203.4130  150.0580 C   0  0  0  0  0  3  0  0  0  0  0  0
  160.8220  205.6930  152.7240 N   0  0  0  0  0  0  0  0  0  0  0  0
  160.7980  204.4780  153.3330 C   0  0  0  0  0  3  0  0  0  0  0  0
  161.0020  204.0290  151.2880 C   0  0  0  0  0  0  0  0  0  0  0  0
  160.9550  205.3740  151.4250 C   0  0  0  0  0  0  0  0  0  0  0  0
  160.9060  203.4810  152.4690 O   0  0  0  0  0  0  0  0  0  0  0  0
  162.1250  204.2260  146.5450 C   0  0  0  0  0  2  0  0  0  0  0  0
  161.1010  205.0950  145.9100 C   0  0  0  0  0  0  0  0  0  0  0  0
  160.6020  206.1450  146.5600 C   0  0  0  0  0  3  0  0  0  0  0  0
  161.2580  204.2240  148.9110 C   0  0  0  0  0  0  0  0  0  0  0  0
  160.8010  206.4680  147.9840 C   0  0  0  0  0  2  0  0  0  0  0  0
  161.0750  205.6520  149.0240 C   0  0  0  0  0  0  0  0  0  0  0  0
  160.7750  204.8910  144.4890 C   0  0  0  0  0  0  0  0  0  0  0  0
  161.3790  205.6770  143.5160 O   0  0  0  0  0  0  0  0  0  0  0  0
  159.9460  204.0060  144.1400 O   0  0  0  0  0  1  0  0  0  0  0  0
  160.9170  207.7170  150.5530 C   0  0  0  0  0  2  0  0  0  0  0  0
  162.2550  208.2470  150.9400 C   0  0  0  0  0  0  0  0  0  0  0  0
  163.2920  207.6770  150.5090 O   0  0  0  0  0  0  0  0  0  0  0  0
  162.3260  209.3790  151.7620 O   0  0  0  0  0  0  0  0  0  0  0  0
  160.2620  209.5920  154.8190 C   0  0  0  0  0  3  0  0  0  0  0  0
  160.3990  210.8050  152.3070 C   0  0  0  0  0  3  0  0  0  0  0  0
  157.1380  211.7390  154.8740 C   0  0  2  0  0  3  0  0  0  0  0  0
  158.3190  211.0030  155.5020 C   0  0  0  0  0  2  0  0  0  0  0  0
  159.3290  210.5720  154.4750 C   0  0  0  0  0  0  0  0  0  0  0  0
  158.3910  212.2120  152.7690 C   0  0  0  0  0  2  0  0  0  0  0  0
  159.4120  211.2020  153.2130 C   0  0  0  0  0  0  0  0  0  0  0  0
  157.6460  212.8370  153.9460 C   0  0  0  0  0  2  0  0  0  0  0  0
  161.3310  209.8130  152.6500 C   0  0  0  0  0  0  0  0  0  0  0  0
  161.2520  209.2110  153.9100 C   0  0  0  0  0  3  0  0  0  0  0  0
  156.2660  212.3170  155.9350 C   0  0  0  0  0  0  0  0  0  0  0  0
  155.5920  213.3520  155.6930 O   0  0  0  0  0  0  0  0  0  0  0  0
  156.1950  211.7240  157.1910 O   0  0  0  0  0  1  0  0  0  0  0  0
  1 18  1  0  0  0  0
  1  7  1  0  0  0  0
  2 12  1  0  0  0  0
  3  6  1  0  0  0  0
  4  5  2  0  0  0  0
  6  7  2  0  0  0  0
  6  8  1  0  0  0  0
  7  4  1  0  0  0  0
  8  5  1  0  0  0  0
  9  2  1  0  0  0  0
 10  9  1  0  0  0  0
 10 11  2  0  0  0  0
 11 13  1  0  0  0  0
 12 14  1  0  0  0  0
 12  3  2  0  0  0  0
 13 14  1  0  0  0  0
 14  1  2  0  0  0  0
 15 10  1  0  0  0  0
 16 15  2  0  0  0  0
 17 15  1  0  0  0  0
 18 19  1  0  0  0  0
 19 21  1  0  0  0  0
 20 19  2  0  0  0  0
 21 30  1  0  0  0  0
 23 30  2  0  0  0  0
 23 28  1  0  0  0  0
 24 25  1  0  0  0  0
 24 32  1  1  0  0  0
 26 22  1  0  0  0  0
 26 25  1  0  0  0  0
 27 28  1  0  0  0  0
 27 29  1  0  0  0  0
 28 26  2  0  0  0  0
 29 24  1  0  0  0  0
 30 31  1  0  0  0  0
 31 22  2  0  0  0  0
 32 34  1  0  0  0  0
 33 32  2  0  0  0  0
M  END
>  <MODEL>
1

>  <REMARK>
 VINA RESULT:      -8.9      0.000      0.000
  Name = 
  6 active torsions:
  status: ('A' for Active; 'I' for Inactive)
    1  A    between atoms: C_1  and  C_9
    2  A    between atoms: C_3  and  C_25
    3  A    between atoms: C_7  and  C_11
    4  A    between atoms: C_8  and  C_9
    5  A    between atoms: C_8  and  O_18
    6  A    between atoms: O_18  and  C_30
                            x       y       z     vdW  Elec       q    Type
                         _______ _______ _______ _____ _____    ______ ____

>  <TORSDO>
F 6

$$$$
=
 OpenBabel11062409403D

 34 38  0  0  1  0  0  0  0  0999 V2000
  159.5260  211.7030  152.4000 C   0  0  0  0  0  0  0  0  0  0  0  0
  157.8840  214.4050  154.3500 C   0  0  0  0  0  2  0  0  0  0  0  0
  158.8430  214.4520  152.2480 C   0  0  0  0  0  3  0  0  0  0  0  0
  160.7170  212.1900  150.3000 N   0  0  0  0  0  0  0  0  0  0  0  0
  160.7880  213.3540  149.6000 C   0  0  0  0  0  3  0  0  0  0  0  0
  159.6040  213.8250  151.2750 C   0  0  0  0  0  0  0  0  0  0  0  0
  159.9600  212.5230  151.3590 C   0  0  0  0  0  0  0  0  0  0  0  0
  160.1190  214.3330  150.1880 O   0  0  0  0  0  0  0  0  0  0  0  0
  157.6400  213.9160  155.7390 C   0  0  0  0  0  2  0  0  0  0  0  0
  156.6750  212.7870  155.7920 C   0  0  0  0  0  0  0  0  0  0  0  0
  156.9280  211.6450  155.1570 C   0  0  0  0  0  3  0  0  0  0  0  0
  158.4080  213.6920  153.3490 C   0  0  0  0  0  0  0  0  0  0  0  0
  158.0150  211.4030  154.1910 C   0  0  0  0  0  2  0  0  0  0  0  0
  158.6650  212.2710  153.3880 C   0  0  0  0  0  0  0  0  0  0  0  0
  155.5200  212.8800  156.7020 C   0  0  0  0  0  0  0  0  0  0  0  0
  154.9790  211.7280  157.2580 O   0  0  0  0  0  1  0  0  0  0  0  0
  155.0110  214.0000  156.9830 O   0  0  0  0  0  0  0  0  0  0  0  0
  159.9420  210.2580  152.4180 C   0  0  0  0  0  2  0  0  0  0  0  0
  161.4030  210.1520  152.6900 C   0  0  0  0  0  0  0  0  0  0  0  0
  161.8740  210.6630  153.7410 O   0  0  0  0  0  0  0  0  0  0  0  0
  162.2170  209.4680  151.7780 O   0  0  0  0  0  0  0  0  0  0  0  0
  161.4710  206.8870  149.2420 C   0  0  0  0  0  3  0  0  0  0  0  0
  161.8320  207.0510  152.0060 C   0  0  0  0  0  3  0  0  0  0  0  0
  160.5680  203.3620  150.3070 C   0  0  2  0  0  3  0  0  0  0  0  0
  161.0930  204.4210  149.3410 C   0  0  0  0  0  2  0  0  0  0  0  0
  161.3450  205.7360  150.0240 C   0  0  0  0  0  0  0  0  0  0  0  0
  161.3580  204.6210  152.3110 C   0  0  0  0  0  2  0  0  0  0  0  0
  161.5500  205.8150  151.4190 C   0  0  0  0  0  0  0  0  0  0  0  0
  161.4570  203.3040  151.5440 C   0  0  0  0  0  2  0  0  0  0  0  0
  161.9500  208.2090  151.2220 C   0  0  0  0  0  0  0  0  0  0  0  0
  161.7640  208.1160  149.8390 C   0  0  0  0  0  3  0  0  0  0  0  0
  160.5190  202.0310  149.6380 C   0  0  0  0  0  0  0  0  0  0  0  0
  160.9630  201.0160  150.2370 O   0  0  0  0  0  1  0  0  0  0  0  0
  159.9930  201.9030  148.3580 O   0  0  0  0  0  0  0  0  0  0  0  0
  1 18  1  0  0  0  0
  1 14  1  0  0  0  0
  2  9  1  0  0  0  0
  3 12  1  0  0  0  0
  4  7  1  0  0  0  0
  5  8  1  0  0  0  0
  5  4  2  0  0  0  0
  6  7  1  0  0  0  0
  6  3  2  0  0  0  0
  7  1  2  0  0  0  0
  8  6  1  0  0  0  0
  9 10  1  0  0  0  0
 10 15  1  0  0  0  0
 11 10  2  0  0  0  0
 12 14  2  0  0  0  0
 12  2  1  0  0  0  0
 13 11  1  0  0  0  0
 14 13  1  0  0  0  0
 15 17  2  0  0  0  0
 15 16  1  0  0  0  0
 18 19  1  0  0  0  0
 19 20  2  0  0  0  0
 21 19  1  0  0  0  0
 22 31  2  0  0  0  0
 22 26  1  0  0  0  0
 24 32  1  6  0  0  0
 24 29  1  0  0  0  0
 25 26  1  0  0  0  0
 25 24  1  0  0  0  0
 26 28  2  0  0  0  0
 28 23  1  0  0  0  0
 28 27  1  0  0  0  0
 29 27  1  0  0  0  0
 30 21  1  0  0  0  0
 30 23  2  0  0  0  0
 31 30  1  0  0  0  0
 32 33  1  0  0  0  0
 34 32  2  0  0  0  0
M  END
>  <MODEL>
2

>  <REMARK>
 VINA RESULT:      -8.4      2.507     10.056
  Name = 
  6 active torsions:
  status: ('A' for Active; 'I' for Inactive)
    1  A    between atoms: C_1  and  C_9
    2  A    between atoms: C_3  and  C_25
    3  A    between atoms: C_7  and  C_11
    4  A    between atoms: C_8  and  C_9
    5  A    between atoms: C_8  and  O_18
    6  A    between atoms: O_18  and  C_30
                            x       y       z     vdW  Elec       q    Type
                         _______ _______ _______ _____ _____    ______ ____

>  <TORSDO>
F 6

$$$$
=
 OpenBabel11062409403D

 34 38  0  0  1  0  0  0  0  0999 V2000
  161.0910  208.8610  153.8850 C   0  0  0  0  0  0  0  0  0  0  0  0
  158.7830  211.7700  153.7900 C   0  0  0  0  0  2  0  0  0  0  0  0
  159.4760  210.4720  155.5720 C   0  0  0  0  0  3  0  0  0  0  0  0
  161.3640  207.5170  155.9310 N   0  0  0  0  0  0  0  0  0  0  0  0
  160.8680  207.7380  157.1780 C   0  0  0  0  0  3  0  0  0  0  0  0
  160.1290  209.3420  156.0350 C   0  0  0  0  0  0  0  0  0  0  0  0
  160.8740  208.5520  155.2270 C   0  0  0  0  0  0  0  0  0  0  0  0
  160.1280  208.8330  157.2370 O   0  0  0  0  0  0  0  0  0  0  0  0
  158.4920  212.1060  152.3650 C   0  0  0  0  0  2  0  0  0  0  0  0
  159.6930  212.5670  151.6220 C   0  0  0  0  0  0  0  0  0  0  0  0
  160.7550  211.7750  151.4880 C   0  0  0  0  0  3  0  0  0  0  0  0
  159.6170  210.8170  154.2150 C   0  0  0  0  0  0  0  0  0  0  0  0
  160.9870  210.4970  152.1840 C   0  0  0  0  0  2  0  0  0  0  0  0
  160.5140  210.0620  153.3710 C   0  0  0  0  0  0  0  0  0  0  0  0
  159.6290  213.8390  150.8830 C   0  0  0  0  0  0  0  0  0  0  0  0
  160.7970  214.4460  150.4410 O   0  0  0  0  0  0  0  0  0  0  0  0
  158.5190  214.3910  150.6460 O   0  0  0  0  0  1  0  0  0  0  0  0
  161.9490  207.9490  153.0520 C   0  0  0  0  0  2  0  0  0  0  0  0
  161.1170  206.8610  152.4660 C   0  0  0  0  0  0  0  0  0  0  0  0
  160.7600  205.8960  153.1940 O   0  0  0  0  0  0  0  0  0  0  0  0
  160.7350  206.9460  151.1210 O   0  0  0  0  0  0  0  0  0  0  0  0
  161.2110  205.3050  147.8440 C   0  0  0  0  0  3  0  0  0  0  0  0
  160.7200  204.5690  150.4930 C   0  0  0  0  0  3  0  0  0  0  0  0
  160.6530  201.5740  147.4730 C   0  0  2  0  0  3  0  0  0  0  0  0
  161.2480  202.9260  147.0880 C   0  0  0  0  0  2  0  0  0  0  0  0
  161.0610  203.9550  148.1680 C   0  0  0  0  0  0  0  0  0  0  0  0
  160.5990  202.1480  149.9000 C   0  0  0  0  0  2  0  0  0  0  0  0
  160.8360  203.5810  149.5120 C   0  0  0  0  0  0  0  0  0  0  0  0
  161.1410  201.1710  148.8600 C   0  0  0  0  0  2  0  0  0  0  0  0
  160.8610  205.9260  150.1650 C   0  0  0  0  0  0  0  0  0  0  0  0
  161.1040  206.2840  148.8360 C   0  0  0  0  0  3  0  0  0  0  0  0
  161.0300  200.5400  146.4680 C   0  0  0  0  0  0  0  0  0  0  0  0
  161.7650  199.5760  146.8100 O   0  0  0  0  0  1  0  0  0  0  0  0
  160.5790  200.6330  145.1560 O   0  0  0  0  0  0  0  0  0  0  0  0
  1  7  1  0  0  0  0
  2 12  1  0  0  0  0
  3  6  1  0  0  0  0
  4  5  2  0  0  0  0
  5  8  1  0  0  0  0
  6  8  1  0  0  0  0
  7  4  1  0  0  0  0
  7  6  2  0  0  0  0
  9  2  1  0  0  0  0
 10  9  1  0  0  0  0
 11 10  2  0  0  0  0
 11 13  1  0  0  0  0
 12  3  2  0  0  0  0
 13 14  1  0  0  0  0
 14  1  2  0  0  0  0
 14 12  1  0  0  0  0
 15 10  1  0  0  0  0
 16 15  2  0  0  0  0
 17 15  1  0  0  0  0
 18  1  1  0  0  0  0
 19 18  1  0  0  0  0
 19 20  2  0  0  0  0
 21 19  1  0  0  0  0
 22 26  2  0  0  0  0
 22 31  1  0  0  0  0
 24 32  1  6  0  0  0
 24 29  1  0  0  0  0
 25 24  1  0  0  0  0
 25 26  1  0  0  0  0
 26 28  1  0  0  0  0
 28 27  1  0  0  0  0
 28 23  2  0  0  0  0
 29 27  1  0  0  0  0
 30 23  1  0  0  0  0
 30 21  1  0  0  0  0
 31 30  2  0  0  0  0
 32 33  1  0  0  0  0
 34 32  2  0  0  0  0
M  END
>  <MODEL>
3

>  <REMARK>
 VINA RESULT:      -8.3      2.574      9.388
  Name = 
  6 active torsions:
  status: ('A' for Active; 'I' for Inactive)
    1  A    between atoms: C_1  and  C_9
    2  A    between atoms: C_3  and  C_25
    3  A    between atoms: C_7  and  C_11
    4  A    between atoms: C_8  and  C_9
    5  A    between atoms: C_8  and  O_18
    6  A    between atoms: O_18  and  C_30
                            x       y       z     vdW  Elec       q    Type
                         _______ _______ _______ _____ _____    ______ ____

>  <TORSDO>
F 6

$$$$
=
 OpenBabel11062409403D

 34 38  0  0  1  0  0  0  0  0999 V2000
  160.0470  210.6170  154.7390 C   0  0  0  0  0  0  0  0  0  0  0  0
  157.8530  212.8090  156.7830 C   0  0  0  0  0  2  0  0  0  0  0  0
  160.0950  212.3040  157.0190 C   0  0  0  0  0  3  0  0  0  0  0  0
  162.3340  210.0650  155.4690 N   0  0  0  0  0  0  0  0  0  0  0  0
  163.0440  210.5570  156.5200 C   0  0  0  0  0  3  0  0  0  0  0  0
  161.1860  211.5350  156.6460 C   0  0  0  0  0  0  0  0  0  0  0  0
  161.1570  210.7040  155.5790 C   0  0  0  0  0  0  0  0  0  0  0  0
  162.3530  211.4380  157.2240 O   0  0  0  0  0  0  0  0  0  0  0  0
  156.4390  212.6160  156.3460 C   0  0  0  0  0  2  0  0  0  0  0  0
  156.2000  213.0590  154.9480 C   0  0  0  0  0  0  0  0  0  0  0  0
  156.8610  212.5020  153.9350 C   0  0  0  0  0  3  0  0  0  0  0  0
  158.9270  212.2290  156.2390 C   0  0  0  0  0  0  0  0  0  0  0  0
  158.0070  211.5820  154.0400 C   0  0  0  0  0  2  0  0  0  0  0  0
  158.9230  211.4520  155.0220 C   0  0  0  0  0  0  0  0  0  0  0  0
  155.0960  213.9950  154.6760 C   0  0  0  0  0  0  0  0  0  0  0  0
  154.3000  214.4530  155.7190 O   0  0  0  0  0  1  0  0  0  0  0  0
  154.8590  214.3870  153.5010 O   0  0  0  0  0  0  0  0  0  0  0  0
  160.0940  209.6880  153.5560 C   0  0  0  0  0  2  0  0  0  0  0  0
  160.9500  210.2690  152.4850 C   0  0  0  0  0  0  0  0  0  0  0  0
  160.7650  211.4630  152.1270 O   0  0  0  0  0  0  0  0  0  0  0  0
  161.9540  209.4780  151.9120 O   0  0  0  0  0  0  0  0  0  0  0  0
  161.4760  207.0360  149.1810 C   0  0  0  0  0  3  0  0  0  0  0  0
  161.6080  207.0450  151.9700 C   0  0  0  0  0  3  0  0  0  0  0  0
  160.5730  203.4390  149.9660 C   0  0  2  0  0  3  0  0  0  0  0  0
  161.1490  204.5620  149.1080 C   0  0  0  0  0  2  0  0  0  0  0  0
  161.3140  205.8390  149.8830 C   0  0  0  0  0  0  0  0  0  0  0  0
  161.1680  204.5920  152.0960 C   0  0  0  0  0  2  0  0  0  0  0  0
  161.4040  205.8400  151.2930 C   0  0  0  0  0  0  0  0  0  0  0  0
  161.3590  203.3250  151.2670 C   0  0  0  0  0  2  0  0  0  0  0  0
  161.7620  208.2480  151.2650 C   0  0  0  0  0  0  0  0  0  0  0  0
  161.6920  208.2330  149.8690 C   0  0  0  0  0  3  0  0  0  0  0  0
  160.6090  202.1490  149.2200 C   0  0  0  0  0  0  0  0  0  0  0  0
  160.8230  202.1520  147.9790 O   0  0  0  0  0  0  0  0  0  0  0  0
  160.4060  200.9440  149.8830 O   0  0  0  0  0  1  0  0  0  0  0  0
  1 14  2  0  0  0  0
  1  7  1  0  0  0  0
  4  7  1  0  0  0  0
  4  5  2  0  0  0  0
  5  8  1  0  0  0  0
  6  3  1  0  0  0  0
  6  8  1  0  0  0  0
  7  6  2  0  0  0  0
  9  2  1  0  0  0  0
 10  9  1  0  0  0  0
 11 13  1  0  0  0  0
 11 10  2  0  0  0  0
 12  2  1  0  0  0  0
 12  3  2  0  0  0  0
 13 14  1  0  0  0  0
 14 12  1  0  0  0  0
 15 10  1  0  0  0  0
 15 16  1  0  0  0  0
 17 15  2  0  0  0  0
 18  1  1  0  0  0  0
 19 18  1  0  0  0  0
 20 19  2  0  0  0  0
 21 19  1  0  0  0  0
 22 31  2  0  0  0  0
 22 26  1  0  0  0  0
 24 32  1  6  0  0  0
 24 29  1  0  0  0  0
 25 26  1  0  0  0  0
 25 24  1  0  0  0  0
 26 28  2  0  0  0  0
 28 23  1  0  0  0  0
 28 27  1  0  0  0  0
 29 27  1  0  0  0  0
 30 21  1  0  0  0  0
 30 23  2  0  0  0  0
 31 30  1  0  0  0  0
 32 34  1  0  0  0  0
 33 32  2  0  0  0  0
M  END
>  <MODEL>
4

>  <REMARK>
 VINA RESULT:      -8.3      2.359      9.786
  Name = 
  6 active torsions:
  status: ('A' for Active; 'I' for Inactive)
    1  A    between atoms: C_1  and  C_9
    2  A    between atoms: C_3  and  C_25
    3  A    between atoms: C_7  and  C_11
    4  A    between atoms: C_8  and  C_9
    5  A    between atoms: C_8  and  O_18
    6  A    between atoms: O_18  and  C_30
                            x       y       z     vdW  Elec       q    Type
                         _______ _______ _______ _____ _____    ______ ____

>  <TORSDO>
F 6

$$$$
=
 OpenBabel11062409403D

 34 38  0  0  1  0  0  0  0  0999 V2000
  160.8450  207.5120  152.0110 C   0  0  0  0  0  0  0  0  0  0  0  0
  160.2690  208.2770  155.6010 C   0  0  0  0  0  2  0  0  0  0  0  0
  160.8650  206.2940  154.5730 C   0  0  0  0  0  3  0  0  0  0  0  0
  161.1710  205.1970  151.2380 N   0  0  0  0  0  0  0  0  0  0  0  0
  161.3100  204.0570  151.9670 C   0  0  0  0  0  3  0  0  0  0  0  0
  161.0410  205.5660  153.4080 C   0  0  0  0  0  0  0  0  0  0  0  0
  161.0000  206.1370  152.1830 C   0  0  0  0  0  0  0  0  0  0  0  0
  161.2310  204.2820  153.2690 O   0  0  0  0  0  0  0  0  0  0  0  0
  159.6840  209.6450  155.7130 C   0  0  0  0  0  2  0  0  0  0  0  0
  160.6120  210.7110  155.2560 C   0  0  0  0  0  0  0  0  0  0  0  0
  161.0660  210.7260  154.0040 C   0  0  0  0  0  3  0  0  0  0  0  0
  160.6600  207.6830  154.4700 C   0  0  0  0  0  0  0  0  0  0  0  0
  160.9120  209.6550  153.0040 C   0  0  0  0  0  2  0  0  0  0  0  0
  160.7460  208.3270  153.1800 C   0  0  0  0  0  0  0  0  0  0  0  0
  160.8840  211.8500  156.1480 C   0  0  0  0  0  0  0  0  0  0  0  0
  160.1370  213.0160  156.0350 O   0  0  0  0  0  0  0  0  0  0  0  0
  161.7940  211.7820  157.0200 O   0  0  0  0  0  1  0  0  0  0  0  0
  160.8310  208.0810  150.6190 C   0  0  0  0  0  2  0  0  0  0  0  0
  162.1260  207.7990  149.9390 C   0  0  0  0  0  0  0  0  0  0  0  0
  163.1750  207.6940  150.6290 O   0  0  0  0  0  0  0  0  0  0  0  0
  162.1430  207.6390  148.5480 O   0  0  0  0  0  0  0  0  0  0  0  0
  161.7300  205.2910  145.7250 C   0  0  0  0  0  3  0  0  0  0  0  0
  161.5910  205.2440  148.5130 C   0  0  0  0  0  3  0  0  0  0  0  0
  160.4570  201.7730  146.3320 C   0  0  2  0  0  3  0  0  0  0  0  0
  161.2060  202.8560  145.5600 C   0  0  0  0  0  2  0  0  0  0  0  0
  161.4010  204.1020  146.3790 C   0  0  0  0  0  0  0  0  0  0  0  0
  160.9360  202.8360  148.5370 C   0  0  0  0  0  2  0  0  0  0  0  0
  161.3530  204.0720  147.7900 C   0  0  0  0  0  0  0  0  0  0  0  0
  161.1010  201.5710  147.6990 C   0  0  0  0  0  2  0  0  0  0  0  0
  161.9130  206.4410  147.8550 C   0  0  0  0  0  0  0  0  0  0  0  0
  161.9770  206.4540  146.4590 C   0  0  0  0  0  3  0  0  0  0  0  0
  160.4580  200.4960  145.5630 C   0  0  0  0  0  0  0  0  0  0  0  0
  159.7720  200.4020  144.5110 O   0  0  0  0  0  0  0  0  0  0  0  0
  161.2060  199.4090  145.9990 O   0  0  0  0  0  1  0  0  0  0  0  0
  1  7  2  0  0  0  0
  1 14  1  0  0  0  0
  2  9  1  0  0  0  0
  4  5  2  0  0  0  0
  4  7  1  0  0  0  0
  5  8  1  0  0  0  0
  6  3  2  0  0  0  0
  7  6  1  0  0  0  0
  8  6  1  0  0  0  0
 10  9  1  0  0  0  0
 10 15  1  0  0  0  0
 11 10  2  0  0  0  0
 12  3  1  0  0  0  0
 12  2  1  0  0  0  0
 13 14  1  0  0  0  0
 13 11  1  0  0  0  0
 14 12  2  0  0  0  0
 15 17  1  0  0  0  0
 16 15  2  0  0  0  0
 18  1  1  0  0  0  0
 19 18  1  0  0  0  0
 19 20  2  0  0  0  0
 21 19  1  0  0  0  0
 22 26  2  0  0  0  0
 22 31  1  0  0  0  0
 24 32  1  6  0  0  0
 24 29  1  0  0  0  0
 25 24  1  0  0  0  0
 25 26  1  0  0  0  0
 26 28  1  0  0  0  0
 28 23  2  0  0  0  0
 28 27  1  0  0  0  0
 29 27  1  0  0  0  0
 30 23  1  0  0  0  0
 30 21  1  0  0  0  0
 31 30  2  0  0  0  0
 32 34  1  0  0  0  0
 33 32  2  0  0  0  0
M  END
>  <MODEL>
5

>  <REMARK>
 VINA RESULT:      -8.2      2.310      9.640
  Name = 
  6 active torsions:
  status: ('A' for Active; 'I' for Inactive)
    1  A    between atoms: C_1  and  C_9
    2  A    between atoms: C_3  and  C_25
    3  A    between atoms: C_7  and  C_11
    4  A    between atoms: C_8  and  C_9
    5  A    between atoms: C_8  and  O_18
    6  A    between atoms: O_18  and  C_30
                            x       y       z     vdW  Elec       q    Type
                         _______ _______ _______ _____ _____    ______ ____

>  <TORSDO>
F 6

$$$$
=
 OpenBabel11062409403D

 34 38  0  0  1  0  0  0  0  0999 V2000
  160.7750  210.0040  154.0210 C   0  0  0  0  0  0  0  0  0  0  0  0
  158.5240  212.9530  153.8320 C   0  0  0  0  0  2  0  0  0  0  0  0
  159.8330  211.9670  152.2020 C   0  0  0  0  0  3  0  0  0  0  0  0
  162.2640  209.4140  152.1490 N   0  0  0  0  0  0  0  0  0  0  0  0
  162.3310  209.9510  150.9010 C   0  0  0  0  0  3  0  0  0  0  0  0
  160.8210  211.0580  151.8610 C   0  0  0  0  0  0  0  0  0  0  0  0
  161.2970  210.1410  152.7350 C   0  0  0  0  0  0  0  0  0  0  0  0
  161.4640  210.9360  150.7310 O   0  0  0  0  0  0  0  0  0  0  0  0
  158.0890  213.3150  155.2120 C   0  0  0  0  0  2  0  0  0  0  0  0
  157.2600  212.2620  155.8530 C   0  0  0  0  0  0  0  0  0  0  0  0
  157.7470  211.0380  156.0490 C   0  0  0  0  0  3  0  0  0  0  0  0
  159.2930  211.9120  153.5010 C   0  0  0  0  0  0  0  0  0  0  0  0
  159.0100  210.5020  155.5090 C   0  0  0  0  0  2  0  0  0  0  0  0
  159.6940  210.8560  154.4010 C   0  0  0  0  0  0  0  0  0  0  0  0
  155.9580  212.6330  156.4310 C   0  0  0  0  0  0  0  0  0  0  0  0
  155.1590  211.6650  157.0260 O   0  0  0  0  0  1  0  0  0  0  0  0
  155.5530  213.8280  156.3900 O   0  0  0  0  0  0  0  0  0  0  0  0
  161.3380  208.9480  154.9320 C   0  0  0  0  0  2  0  0  0  0  0  0
  160.8640  207.6010  154.5060 C   0  0  0  0  0  0  0  0  0  0  0  0
  159.6440  207.3090  154.6290 O   0  0  0  0  0  0  0  0  0  0  0  0
  161.7850  206.6970  153.9600 O   0  0  0  0  0  0  0  0  0  0  0  0
  161.0000  203.6810  151.9760 C   0  0  0  0  0  3  0  0  0  0  0  0
  161.7330  206.3380  151.5290 C   0  0  0  0  0  3  0  0  0  0  0  0
  161.5060  203.6750  148.2200 C   0  0  2  0  0  3  0  0  0  0  0  0
  160.8830  203.1990  149.5300 C   0  0  0  0  0  2  0  0  0  0  0  0
  161.1730  204.1370  150.6680 C   0  0  0  0  0  0  0  0  0  0  0  0
  161.7880  206.0080  149.0560 C   0  0  0  0  0  2  0  0  0  0  0  0
  161.5220  205.4870  150.4410 C   0  0  0  0  0  0  0  0  0  0  0  0
  161.1480  205.1370  147.9780 C   0  0  0  0  0  2  0  0  0  0  0  0
  161.5670  205.8760  152.8440 C   0  0  0  0  0  0  0  0  0  0  0  0
  161.2030  204.5430  153.0570 C   0  0  0  0  0  3  0  0  0  0  0  0
  161.0330  202.8300  147.0870 C   0  0  0  0  0  0  0  0  0  0  0  0
  160.4710  201.7280  147.3240 O   0  0  0  0  0  1  0  0  0  0  0  0
  161.2130  203.2450  145.7720 O   0  0  0  0  0  0  0  0  0  0  0  0
  1 14  1  0  0  0  0
  1 18  1  0  0  0  0
  2  9  1  0  0  0  0
  3 12  1  0  0  0  0
  4  7  1  0  0  0  0
  5  4  2  0  0  0  0
  6  3  2  0  0  0  0
  6  7  1  0  0  0  0
  7  1  2  0  0  0  0
  8  5  1  0  0  0  0
  8  6  1  0  0  0  0
  9 10  1  0  0  0  0
 10 11  2  0  0  0  0
 10 15  1  0  0  0  0
 12  2  1  0  0  0  0
 12 14  2  0  0  0  0
 13 11  1  0  0  0  0
 14 13  1  0  0  0  0
 15 16  1  0  0  0  0
 17 15  2  0  0  0  0
 19 20  2  0  0  0  0
 19 18  1  0  0  0  0
 21 19  1  0  0  0  0
 22 31  1  0  0  0  0
 23 30  1  0  0  0  0
 24 32  1  6  0  0  0
 24 25  1  0  0  0  0
 25 26  1  0  0  0  0
 26 22  2  0  0  0  0
 27 28  1  0  0  0  0
 28 26  1  0  0  0  0
 28 23  2  0  0  0  0
 29 24  1  0  0  0  0
 29 27  1  0  0  0  0
 30 31  2  0  0  0  0
 30 21  1  0  0  0  0
 32 33  1  0  0  0  0
 34 32  2  0  0  0  0
M  END
>  <MODEL>
6

>  <REMARK>
 VINA RESULT:      -8.2      1.788      9.692
  Name = 
  6 active torsions:
  status: ('A' for Active; 'I' for Inactive)
    1  A    between atoms: C_1  and  C_9
    2  A    between atoms: C_3  and  C_25
    3  A    between atoms: C_7  and  C_11
    4  A    between atoms: C_8  and  C_9
    5  A    between atoms: C_8  and  O_18
    6  A    between atoms: O_18  and  C_30
                            x       y       z     vdW  Elec       q    Type
                         _______ _______ _______ _____ _____    ______ ____

>  <TORSDO>
F 6

$$$$
=
 OpenBabel11062409403D

 34 38  0  0  1  0  0  0  0  0999 V2000
  159.7160  211.5910  152.5380 C   0  0  0  0  0  0  0  0  0  0  0  0
  159.4330  214.4100  150.1350 C   0  0  0  0  0  2  0  0  0  0  0  0
  158.9580  214.3210  152.3950 C   0  0  0  0  0  3  0  0  0  0  0  0
  158.8240  211.7720  154.8260 N   0  0  0  0  0  0  0  0  0  0  0  0
  158.3060  212.8560  155.4650 C   0  0  0  0  0  3  0  0  0  0  0  0
  158.7900  213.5670  153.5450 C   0  0  0  0  0  0  0  0  0  0  0  0
  159.1190  212.2560  153.6080 C   0  0  0  0  0  0  0  0  0  0  0  0
  158.2870  213.9310  154.6940 O   0  0  0  0  0  0  0  0  0  0  0  0
  159.6440  213.8870  148.7530 C   0  0  0  0  0  2  0  0  0  0  0  0
  161.0160  213.3580  148.5380 C   0  0  0  0  0  0  0  0  0  0  0  0
  161.4780  212.3460  149.2700 C   0  0  0  0  0  3  0  0  0  0  0  0
  159.5150  213.6980  151.2630 C   0  0  0  0  0  0  0  0  0  0  0  0
  160.8400  211.7700  150.4680 C   0  0  0  0  0  2  0  0  0  0  0  0
  159.9950  212.3390  151.3540 C   0  0  0  0  0  0  0  0  0  0  0  0
  161.7960  213.8460  147.3880 C   0  0  0  0  0  0  0  0  0  0  0  0
  161.3270  213.6460  146.0960 O   0  0  0  0  0  0  0  0  0  0  0  0
  162.8920  214.4450  147.5610 O   0  0  0  0  0  1  0  0  0  0  0  0
  160.0760  210.1380  152.6860 C   0  0  0  0  0  2  0  0  0  0  0  0
  161.5350  209.9980  152.9490 C   0  0  0  0  0  0  0  0  0  0  0  0
  162.0090  210.4120  154.0410 O   0  0  0  0  0  0  0  0  0  0  0  0
  162.3450  209.3920  151.9790 O   0  0  0  0  0  0  0  0  0  0  0  0
  161.6800  207.0540  149.1970 C   0  0  0  0  0  3  0  0  0  0  0  0
  161.8330  206.9880  151.9840 C   0  0  0  0  0  3  0  0  0  0  0  0
  160.5360  203.5100  149.9070 C   0  0  2  0  0  3  0  0  0  0  0  0
  161.1830  204.6110  149.0700 C   0  0  0  0  0  2  0  0  0  0  0  0
  161.4410  205.8550  149.8730 C   0  0  0  0  0  0  0  0  0  0  0  0
  161.2250  204.5690  152.0580 C   0  0  0  0  0  2  0  0  0  0  0  0
  161.5410  205.8160  151.2810 C   0  0  0  0  0  0  0  0  0  0  0  0
  161.3220  203.3120  151.1980 C   0  0  0  0  0  2  0  0  0  0  0  0
  162.0640  208.1940  151.3060 C   0  0  0  0  0  0  0  0  0  0  0  0
  161.9830  208.2170  149.9100 C   0  0  0  0  0  3  0  0  0  0  0  0
  160.4780  202.2390  149.1320 C   0  0  0  0  0  0  0  0  0  0  0  0
  160.8270  202.2300  147.9210 O   0  0  0  0  0  0  0  0  0  0  0  0
  160.0390  201.0640  149.7320 O   0  0  0  0  0  1  0  0  0  0  0  0
  1 18  1  0  0  0  0
  1  7  1  0  0  0  0
  2 12  1  0  0  0  0
  3  6  1  0  0  0  0
  4  5  2  0  0  0  0
  6  7  2  0  0  0  0
  6  8  1  0  0  0  0
  7  4  1  0  0  0  0
  8  5  1  0  0  0  0
  9  2  1  0  0  0  0
 10  9  1  0  0  0  0
 10 11  2  0  0  0  0
 11 13  1  0  0  0  0
 12 14  1  0  0  0  0
 12  3  2  0  0  0  0
 13 14  1  0  0  0  0
 14  1  2  0  0  0  0
 15 17  1  0  0  0  0
 15 10  1  0  0  0  0
 16 15  2  0  0  0  0
 18 19  1  0  0  0  0
 19 20  2  0  0  0  0
 21 19  1  0  0  0  0
 22 26  2  0  0  0  0
 22 31  1  0  0  0  0
 24 32  1  6  0  0  0
 24 29  1  0  0  0  0
 25 26  1  0  0  0  0
 25 24  1  0  0  0  0
 26 28  1  0  0  0  0
 28 23  2  0  0  0  0
 28 27  1  0  0  0  0
 29 27  1  0  0  0  0
 30 21  1  0  0  0  0
 30 23  1  0  0  0  0
 31 30  2  0  0  0  0
 32 34  1  0  0  0  0
 33 32  2  0  0  0  0
M  END
>  <MODEL>
7

>  <REMARK>
 VINA RESULT:      -8.2      3.110      8.633
  Name = 
  6 active torsions:
  status: ('A' for Active; 'I' for Inactive)
    1  A    between atoms: C_1  and  C_9
    2  A    between atoms: C_3  and  C_25
    3  A    between atoms: C_7  and  C_11
    4  A    between atoms: C_8  and  C_9
    5  A    between atoms: C_8  and  O_18
    6  A    between atoms: O_18  and  C_30
                            x       y       z     vdW  Elec       q    Type
                         _______ _______ _______ _____ _____    ______ ____

>  <TORSDO>
F 6

$$$$
=
 OpenBabel11062409403D

 34 38  0  0  1  0  0  0  0  0999 V2000
  160.2030  213.3040  148.2640 C   0  0  0  0  0  0  0  0  0  0  0  0
  156.7380  213.6780  149.5520 C   0  0  0  0  0  2  0  0  0  0  0  0
  157.4980  212.8780  147.5210 C   0  0  0  0  0  3  0  0  0  0  0  0
  160.6310  212.6970  145.9150 N   0  0  0  0  0  0  0  0  0  0  0  0
  159.7500  212.3240  144.9480 C   0  0  0  0  0  3  0  0  0  0  0  0
  158.5450  212.6940  146.6330 C   0  0  0  0  0  0  0  0  0  0  0  0
  159.8340  212.9270  146.9730 C   0  0  0  0  0  0  0  0  0  0  0  0
  158.5000  212.3230  145.3820 O   0  0  0  0  0  0  0  0  0  0  0  0
  156.7800  214.4530  150.8260 C   0  0  0  0  0  2  0  0  0  0  0  0
  157.5000  213.7410  151.9130 C   0  0  0  0  0  0  0  0  0  0  0  0
  158.7810  213.4040  151.7740 C   0  0  0  0  0  3  0  0  0  0  0  0
  157.7970  213.3000  148.8300 C   0  0  0  0  0  0  0  0  0  0  0  0
  159.5760  213.4790  150.5350 C   0  0  0  0  0  2  0  0  0  0  0  0
  159.1740  213.4250  149.2470 C   0  0  0  0  0  0  0  0  0  0  0  0
  156.8350  213.5700  153.2150 C   0  0  0  0  0  0  0  0  0  0  0  0
  157.3570  212.6880  154.1530 O   0  0  0  0  0  1  0  0  0  0  0  0
  155.7880  214.2170  153.4930 O   0  0  0  0  0  0  0  0  0  0  0  0
  161.6570  213.5250  148.5760 C   0  0  0  0  0  2  0  0  0  0  0  0
  162.3550  212.2150  148.7080 C   0  0  0  0  0  0  0  0  0  0  0  0
  163.1590  211.8500  147.8090 O   0  0  0  0  0  0  0  0  0  0  0  0
  162.1140  211.4280  149.8410 O   0  0  0  0  0  0  0  0  0  0  0  0
  161.5600  207.9960  148.5890 C   0  0  0  0  0  3  0  0  0  0  0  0
  161.8530  209.2990  151.0410 C   0  0  0  0  0  3  0  0  0  0  0  0
  160.8230  205.1720  151.0070 C   0  0  2  0  0  3  0  0  0  0  0  0
  161.3110  205.7700  149.6900 C   0  0  0  0  0  2  0  0  0  0  0  0
  161.4780  207.2620  149.7740 C   0  0  0  0  0  0  0  0  0  0  0  0
  161.5010  207.1830  152.3170 C   0  0  0  0  0  2  0  0  0  0  0  0
  161.6490  207.9160  151.0140 C   0  0  0  0  0  0  0  0  0  0  0  0
  161.6860  205.6770  152.1570 C   0  0  0  0  0  2  0  0  0  0  0  0
  161.9260  210.0380  149.8510 C   0  0  0  0  0  0  0  0  0  0  0  0
  161.7750  209.3760  148.6280 C   0  0  0  0  0  3  0  0  0  0  0  0
  160.8590  203.6830  150.9430 C   0  0  0  0  0  0  0  0  0  0  0  0
  160.8510  203.0130  152.0090 O   0  0  0  0  0  1  0  0  0  0  0  0
  160.9060  203.0300  149.7170 O   0  0  0  0  0  0  0  0  0  0  0  0
  1 18  1  0  0  0  0
  1 14  1  0  0  0  0
  2  9  1  0  0  0  0
  3 12  1  0  0  0  0
  4  7  1  0  0  0  0
  5  8  1  0  0  0  0
  5  4  2  0  0  0  0
  6  7  1  0  0  0  0
  6  3  2  0  0  0  0
  7  1  2  0  0  0  0
  8  6  1  0  0  0  0
  9 10  1  0  0  0  0
 10 15  1  0  0  0  0
 11 10  2  0  0  0  0
 12 14  2  0  0  0  0
 12  2  1  0  0  0  0
 13 11  1  0  0  0  0
 14 13  1  0  0  0  0
 15 17  2  0  0  0  0
 15 16  1  0  0  0  0
 18 19  1  0  0  0  0
 19 21  1  0  0  0  0
 20 19  2  0  0  0  0
 21 30  1  0  0  0  0
 22 31  2  0  0  0  0
 22 26  1  0  0  0  0
 24 32  1  6  0  0  0
 24 29  1  0  0  0  0
 25 26  1  0  0  0  0
 25 24  1  0  0  0  0
 26 28  2  0  0  0  0
 28 23  1  0  0  0  0
 28 27  1  0  0  0  0
 29 27  1  0  0  0  0
 30 23  2  0  0  0  0
 31 30  1  0  0  0  0
 32 33  1  0  0  0  0
 34 32  2  0  0  0  0
M  END
>  <MODEL>
8

>  <REMARK>
 VINA RESULT:      -8.2      3.854      9.189
  Name = 
  6 active torsions:
  status: ('A' for Active; 'I' for Inactive)
    1  A    between atoms: C_1  and  C_9
    2  A    between atoms: C_3  and  C_25
    3  A    between atoms: C_7  and  C_11
    4  A    between atoms: C_8  and  C_9
    5  A    between atoms: C_8  and  O_18
    6  A    between atoms: O_18  and  C_30
                            x       y       z     vdW  Elec       q    Type
                         _______ _______ _______ _____ _____    ______ ____

>  <TORSDO>
F 6

$$$$
=
 OpenBabel11062409403D

 34 38  0  0  1  0  0  0  0  0999 V2000
  160.9560  209.4470  153.7560 C   0  0  0  0  0  0  0  0  0  0  0  0
  161.2020  205.7810  153.2100 C   0  0  0  0  0  2  0  0  0  0  0  0
  160.4940  206.9710  155.0600 C   0  0  0  0  0  3  0  0  0  0  0  0
  160.4450  210.3730  155.9800 N   0  0  0  0  0  0  0  0  0  0  0  0
  160.0870  209.7250  157.1210 C   0  0  0  0  0  3  0  0  0  0  0  0
  160.3670  208.1850  155.7150 C   0  0  0  0  0  0  0  0  0  0  0  0
  160.6180  209.3670  155.1060 C   0  0  0  0  0  0  0  0  0  0  0  0
  160.0410  208.4120  156.9590 O   0  0  0  0  0  0  0  0  0  0  0  0
  161.9310  205.5330  151.9320 C   0  0  0  0  0  2  0  0  0  0  0  0
  161.1970  206.0330  150.7410 C   0  0  0  0  0  0  0  0  0  0  0  0
  160.8960  207.3240  150.6190 C   0  0  0  0  0  3  0  0  0  0  0  0
  160.8760  206.9780  153.7060 C   0  0  0  0  0  0  0  0  0  0  0  0
  161.0340  208.3560  151.6620 C   0  0  0  0  0  2  0  0  0  0  0  0
  161.0170  208.2330  153.0060 C   0  0  0  0  0  0  0  0  0  0  0  0
  160.9630  205.1160  149.6120 C   0  0  0  0  0  0  0  0  0  0  0  0
  160.7630  205.6230  148.3340 O   0  0  0  0  0  0  0  0  0  0  0  0
  160.9400  203.8680  149.7910 O   0  0  0  0  0  1  0  0  0  0  0  0
  161.2000  210.7980  153.1400 C   0  0  0  0  0  2  0  0  0  0  0  0
  159.9050  211.4150  152.7360 C   0  0  0  0  0  0  0  0  0  0  0  0
  158.8310  210.7900  152.9450 O   0  0  0  0  0  0  0  0  0  0  0  0
  159.9130  212.6870  152.1500 O   0  0  0  0  0  0  0  0  0  0  0  0
  159.1580  213.9380  148.7560 C   0  0  0  0  0  3  0  0  0  0  0  0
  161.1880  212.5280  150.0550 C   0  0  0  0  0  3  0  0  0  0  0  0
  161.3770  212.9940  145.8310 C   0  0  2  0  0  3  0  0  0  0  0  0
  160.3720  213.8690  146.5750 C   0  0  0  0  0  2  0  0  0  0  0  0
  160.2670  213.4990  148.0290 C   0  0  0  0  0  0  0  0  0  0  0  0
  162.4840  212.2530  147.9400 C   0  0  0  0  0  2  0  0  0  0  0  0
  161.3050  212.8060  148.6900 C   0  0  0  0  0  0  0  0  0  0  0  0
  162.6930  212.9500  146.5980 C   0  0  0  0  0  2  0  0  0  0  0  0
  160.0700  212.9610  150.7830 C   0  0  0  0  0  0  0  0  0  0  0  0
  159.0580  213.6640  150.1220 C   0  0  0  0  0  3  0  0  0  0  0  0
  161.5940  213.5160  144.4520 C   0  0  0  0  0  0  0  0  0  0  0  0
  160.8170  214.3910  143.9870 O   0  0  0  0  0  1  0  0  0  0  0  0
  162.6450  213.0420  143.6740 O   0  0  0  0  0  0  0  0  0  0  0  0
  1  7  1  0  0  0  0
  2 12  1  0  0  0  0
  3  6  1  0  0  0  0
  4  5  2  0  0  0  0
  6  8  1  0  0  0  0
  7  6  2  0  0  0  0
  7  4  1  0  0  0  0
  8  5  1  0  0  0  0
  9  2  1  0  0  0  0
 10  9  1  0  0  0  0
 11 10  2  0  0  0  0
 11 13  1  0  0  0  0
 12  3  2  0  0  0  0
 13 14  1  0  0  0  0
 14 12  1  0  0  0  0
 14  1  2  0  0  0  0
 15 17  1  0  0  0  0
 15 10  1  0  0  0  0
 16 15  2  0  0  0  0
 18  1  1  0  0  0  0
 19 20  2  0  0  0  0
 19 18  1  0  0  0  0
 21 19  1  0  0  0  0
 22 31  1  0  0  0  0
 23 30  1  0  0  0  0
 24 32  1  6  0  0  0
 24 25  1  0  0  0  0
 24 29  1  0  0  0  0
 25 26  1  0  0  0  0
 26 28  1  0  0  0  0
 26 22  2  0  0  0  0
 27 28  1  0  0  0  0
 28 23  2  0  0  0  0
 29 27  1  0  0  0  0
 30 21  1  0  0  0  0
 31 30  2  0  0  0  0
 33 32  1  0  0  0  0
 34 32  2  0  0  0  0
M  END
>  <MODEL>
9

>  <REMARK>
 VINA RESULT:      -8.1      4.132      6.984
  Name = 
  6 active torsions:
  status: ('A' for Active; 'I' for Inactive)
    1  A    between atoms: C_1  and  C_9
    2  A    between atoms: C_3  and  C_25
    3  A    between atoms: C_7  and  C_11
    4  A    between atoms: C_8  and  C_9
    5  A    between atoms: C_8  and  O_18
    6  A    between atoms: O_18  and  C_30
                            x       y       z     vdW  Elec       q    Type
                         _______ _______ _______ _____ _____    ______ ____

>  <TORSDO>
F 6

$$$$
