=
 OpenBabel11052423123D

 27 31  0  0  1  0  0  0  0  0999 V2000
  161.8130  208.7220  152.0450 C   0  0  0  0  0  3  0  0  0  0  0  0
  161.1530  206.2870  152.1170 C   0  0  0  0  0  0  0  0  0  0  0  0
  161.0230  207.0120  149.6780 C   0  0  0  0  0  3  0  0  0  0  0  0
  161.0750  202.1070  150.5760 S   0  0  0  0  0  0  0  0  0  0  0  0
  160.8910  201.8680  147.7810 C   0  0  0  0  0  1  0  0  0  0  0  0
  161.2140  205.2300  153.0540 C   0  0  0  0  0  3  0  0  0  0  0  0
  160.9630  204.0990  149.0380 C   0  0  0  0  0  0  0  0  0  0  0  0
  161.9700  210.1330  148.1710 C   0  0  0  0  0  3  0  0  0  0  0  0
  160.8840  204.8710  147.8840 O   0  0  0  0  0  1  0  0  0  0  0  0
  162.5800  210.8080  149.2230 C   0  0  0  0  0  0  0  0  0  0  0  0
  161.0460  204.6270  150.3450 C   0  0  0  0  0  0  0  0  0  0  0  0
  161.0770  207.6320  152.6110 N   0  0  0  0  0  0  0  0  0  0  0  0
  160.9670  202.7070  149.0060 C   0  0  0  0  0  0  0  0  0  0  0  0
  161.1150  203.6210  151.3030 C   0  0  0  0  0  0  0  0  0  0  0  0
  161.9520  209.0200  150.7540 C   0  0  0  0  0  0  0  0  0  0  0  0
  161.0780  205.9880  150.7340 C   0  0  0  0  0  0  0  0  0  0  0  0
  161.3980  208.8810  148.3930 C   0  0  0  0  0  3  0  0  0  0  0  0
  161.2040  203.8920  152.6570 C   0  0  0  0  0  3  0  0  0  0  0  0
  163.1580  212.0150  149.0130 F   0  0  0  0  0  0  0  0  0  0  0  0
  162.5560  210.2590  150.5040 C   0  0  0  0  0  3  0  0  0  0  0  0
  161.4110  208.2880  149.6620 C   0  0  0  0  0  0  0  0  0  0  0  0
  159.9230  208.6270  156.5680 C   0  0  0  0  0  2  0  0  0  0  0  0
  160.4630  207.8560  153.9230 C   0  0  2  0  0  3  0  0  0  0  0  0
  160.0570  209.3330  154.1090 C   0  0  0  0  0  2  0  0  0  0  0  0
  159.9710  209.7930  155.5780 C   0  0  0  0  0  2  0  0  0  0  0  0
  161.0700  207.6980  156.2990 C   0  0  0  0  0  3  0  0  0  0  0  0
  161.3350  207.3380  155.0390 C   0  0  0  0  0  3  0  0  0  0  0  0
  1 12  1  0  0  0  0
  2 12  1  0  0  0  0
  2  6  1  0  0  0  0
  3 16  1  0  0  0  0
  4 14  1  0  0  0  0
  5 13  1  0  0  0  0
  7 11  1  0  0  0  0
  8 17  2  0  0  0  0
  8 10  1  0  0  0  0
  9  7  1  0  0  0  0
 10 20  2  0  0  0  0
 11 16  1  0  0  0  0
 11 14  2  0  0  0  0
 13  7  2  0  0  0  0
 13  4  1  0  0  0  0
 14 18  1  0  0  0  0
 15  1  2  0  0  0  0
 16  2  2  0  0  0  0
 17 21  1  0  0  0  0
 18  6  2  0  0  0  0
 19 10  1  0  0  0  0
 20 15  1  0  0  0  0
 21  3  2  0  0  0  0
 21 15  1  0  0  0  0
 23 12  1  6  0  0  0
 23 24  1  0  0  0  0
 23 27  1  0  0  0  0
 24 25  1  0  0  0  0
 25 22  1  0  0  0  0
 26 22  1  0  0  0  0
 27 26  2  0  0  0  0
M  END
>  <MODEL>
1

>  <REMARK>
 VINA RESULT:      -8.2      0.000      0.000
  Name = 
  1 active torsions:
  status: ('A' for Active; 'I' for Inactive)
    1  A    between atoms: C_9  and  N_15
                            x       y       z     vdW  Elec       q    Type
                         _______ _______ _______ _____ _____    ______ ____

>  <TORSDO>
F 1

$$$$
=
 OpenBabel11052423123D

 27 31  0  0  1  0  0  0  0  0999 V2000
  160.7150  209.1490  152.2650 C   0  0  0  0  0  3  0  0  0  0  0  0
  161.1720  207.4800  150.4280 C   0  0  0  0  0  0  0  0  0  0  0  0
  161.3250  206.2080  152.6300 C   0  0  0  0  0  3  0  0  0  0  0  0
  160.8800  203.4850  148.4770 S   0  0  0  0  0  0  0  0  0  0  0  0
  161.0010  201.2890  150.2270 C   0  0  0  0  0  1  0  0  0  0  0  0
  161.0370  207.4340  149.0210 C   0  0  0  0  0  3  0  0  0  0  0  0
  161.1340  203.7380  150.9690 C   0  0  0  0  0  0  0  0  0  0  0  0
  160.6170  207.3330  155.9680 C   0  0  0  0  0  3  0  0  0  0  0  0
  161.2590  203.4300  152.3210 O   0  0  0  0  0  1  0  0  0  0  0  0
  160.0810  208.5990  155.7580 C   0  0  0  0  0  0  0  0  0  0  0  0
  161.1140  205.0500  150.4510 C   0  0  0  0  0  0  0  0  0  0  0  0
  161.3670  208.7570  151.0520 N   0  0  0  0  0  0  0  0  0  0  0  0
  161.0130  202.7570  149.9890 C   0  0  0  0  0  0  0  0  0  0  0  0
  160.9760  205.0550  149.0670 C   0  0  0  0  0  0  0  0  0  0  0  0
  160.5810  208.4310  153.3790 C   0  0  0  0  0  0  0  0  0  0  0  0
  161.2010  206.2700  151.1650 C   0  0  0  0  0  0  0  0  0  0  0  0
  161.0860  206.5920  154.8840 C   0  0  0  0  0  3  0  0  0  0  0  0
  160.9300  206.2260  148.3300 C   0  0  0  0  0  3  0  0  0  0  0  0
  159.6020  209.3160  156.8010 F   0  0  0  0  0  0  0  0  0  0  0  0
  160.0790  209.1440  154.4750 C   0  0  0  0  0  3  0  0  0  0  0  0
  161.0440  207.1020  153.5800 C   0  0  0  0  0  0  0  0  0  0  0  0
  162.6000  211.8930  148.4770 C   0  0  0  0  0  2  0  0  0  0  0  0
  162.0160  209.8180  150.2760 C   0  0  2  0  0  3  0  0  0  0  0  0
  161.5060  211.2130  150.6920 C   0  0  0  0  0  2  0  0  0  0  0  0
  161.6450  212.2960  149.6030 C   0  0  0  0  0  2  0  0  0  0  0  0
  162.1950  210.5520  147.9380 C   0  0  0  0  0  3  0  0  0  0  0  0
  161.9070  209.5660  148.7920 C   0  0  0  0  0  3  0  0  0  0  0  0
  1 15  2  0  0  0  0
  2 12  1  0  0  0  0
  2 16  1  0  0  0  0
  3 21  2  0  0  0  0
  4 14  1  0  0  0  0
  4 13  1  0  0  0  0
  6  2  2  0  0  0  0
  7  9  1  0  0  0  0
 10  8  1  0  0  0  0
 10 19  1  0  0  0  0
 11  7  1  0  0  0  0
 11 16  2  0  0  0  0
 12  1  1  0  0  0  0
 13  5  1  0  0  0  0
 13  7  2  0  0  0  0
 14 11  1  0  0  0  0
 15 21  1  0  0  0  0
 15 20  1  0  0  0  0
 16  3  1  0  0  0  0
 17  8  2  0  0  0  0
 18  6  1  0  0  0  0
 18 14  2  0  0  0  0
 20 10  2  0  0  0  0
 21 17  1  0  0  0  0
 22 25  1  0  0  0  0
 23 27  1  6  0  0  0
 23 24  1  0  0  0  0
 23 12  1  0  0  0  0
 25 24  1  0  0  0  0
 26 22  1  0  0  0  0
 26 27  2  0  0  0  0
M  END
>  <MODEL>
2

>  <REMARK>
 VINA RESULT:      -7.7      2.251      5.097
  Name = 
  1 active torsions:
  status: ('A' for Active; 'I' for Inactive)
    1  A    between atoms: C_9  and  N_15
                            x       y       z     vdW  Elec       q    Type
                         _______ _______ _______ _____ _____    ______ ____

>  <TORSDO>
F 1

$$$$
=
 OpenBabel11052423123D

 27 31  0  0  1  0  0  0  0  0999 V2000
  160.3610  209.2730  153.2790 C   0  0  0  0  0  3  0  0  0  0  0  0
  160.4560  211.4860  152.0700 C   0  0  0  0  0  0  0  0  0  0  0  0
  161.9700  209.8850  150.7910 C   0  0  0  0  0  3  0  0  0  0  0  0
  160.6130  214.0700  148.4440 S   0  0  0  0  0  0  0  0  0  0  0  0
  162.1930  213.0810  146.3390 C   0  0  0  0  0  1  0  0  0  0  0  0
  159.7310  212.7000  152.0850 C   0  0  0  0  0  3  0  0  0  0  0  0
  161.8560  211.8840  148.5790 C   0  0  0  0  0  0  0  0  0  0  0  0
  162.5060  206.3670  151.2840 C   0  0  0  0  0  3  0  0  0  0  0  0
  162.6600  210.8000  148.2400 O   0  0  0  0  0  1  0  0  0  0  0  0
  161.5610  206.0460  152.2530 C   0  0  0  0  0  0  0  0  0  0  0  0
  161.1910  212.0250  149.8170 C   0  0  0  0  0  0  0  0  0  0  0  0
  160.4910  210.6990  153.2690 N   0  0  0  0  0  0  0  0  0  0  0  0
  161.6300  212.9470  147.7090 C   0  0  0  0  0  0  0  0  0  0  0  0
  160.4570  213.2050  149.8750 C   0  0  0  0  0  0  0  0  0  0  0  0
  160.9740  208.4000  152.4810 C   0  0  0  0  0  0  0  0  0  0  0  0
  161.1940  211.1300  150.9140 C   0  0  0  0  0  0  0  0  0  0  0  0
  162.6520  207.6910  150.8730 C   0  0  0  0  0  3  0  0  0  0  0  0
  159.7180  213.5640  150.9890 C   0  0  0  0  0  3  0  0  0  0  0  0
  161.3970  204.7590  152.6430 F   0  0  0  0  0  0  0  0  0  0  0  0
  160.8140  207.0590  152.8540 C   0  0  0  0  0  3  0  0  0  0  0  0
  161.8730  208.7160  151.4270 C   0  0  0  0  0  0  0  0  0  0  0  0
  159.9490  212.0240  157.2610 C   0  0  0  0  0  2  0  0  0  0  0  0
  160.3520  211.3860  154.5560 C   0  0  2  0  0  3  0  0  0  0  0  0
  161.5410  211.0780  155.4900 C   0  0  0  0  0  2  0  0  0  0  0  0
  161.2310  211.2320  156.9920 C   0  0  0  0  0  2  0  0  0  0  0  0
  158.8200  211.4210  156.4770 C   0  0  0  0  0  3  0  0  0  0  0  0
  159.0130  211.1070  155.1930 C   0  0  0  0  0  3  0  0  0  0  0  0
  2  6  1  0  0  0  0
  2 12  1  0  0  0  0
  3 16  1  0  0  0  0
  3 21  2  0  0  0  0
  4 14  1  0  0  0  0
  5 13  1  0  0  0  0
  7 11  1  0  0  0  0
  8 10  1  0  0  0  0
  9  7  1  0  0  0  0
 10 19  1  0  0  0  0
 10 20  2  0  0  0  0
 11 14  2  0  0  0  0
 11 16  1  0  0  0  0
 12  1  1  0  0  0  0
 13  4  1  0  0  0  0
 13  7  2  0  0  0  0
 14 18  1  0  0  0  0
 15 20  1  0  0  0  0
 15  1  2  0  0  0  0
 16  2  2  0  0  0  0
 17  8  2  0  0  0  0
 17 21  1  0  0  0  0
 18  6  2  0  0  0  0
 21 15  1  0  0  0  0
 23 12  1  6  0  0  0
 23 27  1  0  0  0  0
 23 24  1  0  0  0  0
 24 25  1  0  0  0  0
 25 22  1  0  0  0  0
 26 22  1  0  0  0  0
 27 26  2  0  0  0  0
M  END
>  <MODEL>
3

>  <REMARK>
 VINA RESULT:      -7.3      3.893      6.405
  Name = 
  1 active torsions:
  status: ('A' for Active; 'I' for Inactive)
    1  A    between atoms: C_9  and  N_15
                            x       y       z     vdW  Elec       q    Type
                         _______ _______ _______ _____ _____    ______ ____

>  <TORSDO>
F 1

$$$$
=
 OpenBabel11052423123D

 27 31  0  0  1  0  0  0  0  0999 V2000
  161.7840  204.1860  148.1420 C   0  0  0  0  0  3  0  0  0  0  0  0
  161.7870  206.6380  148.7390 C   0  0  0  0  0  0  0  0  0  0  0  0
  160.6760  205.4120  150.6760 C   0  0  0  0  0  3  0  0  0  0  0  0
  162.1940  210.0830  151.5340 S   0  0  0  0  0  0  0  0  0  0  0  0
  161.1430  209.6640  154.1080 C   0  0  0  0  0  1  0  0  0  0  0  0
  162.4100  207.8140  148.2610 C   0  0  0  0  0  3  0  0  0  0  0  0
  161.1000  207.9240  152.2280 C   0  0  0  0  0  0  0  0  0  0  0  0
  160.2890  201.8810  151.2210 C   0  0  0  0  0  3  0  0  0  0  0  0
  160.4560  206.9580  152.9960 O   0  0  0  0  0  1  0  0  0  0  0  0
  161.0380  201.3280  150.1870 C   0  0  0  0  0  0  0  0  0  0  0  0
  161.4890  207.7420  150.8840 C   0  0  0  0  0  0  0  0  0  0  0  0
  161.5640  205.5620  147.8160 N   0  0  0  0  0  0  0  0  0  0  0  0
  161.4250  209.1800  152.7300 C   0  0  0  0  0  0  0  0  0  0  0  0
  162.1140  208.8740  150.3710 C   0  0  0  0  0  0  0  0  0  0  0  0
  161.4070  203.5460  149.2480 C   0  0  0  0  0  0  0  0  0  0  0  0
  161.3250  206.5890  150.0770 C   0  0  0  0  0  0  0  0  0  0  0  0
  160.1410  203.2650  151.3020 C   0  0  0  0  0  3  0  0  0  0  0  0
  162.5860  208.9360  149.0710 C   0  0  0  0  0  3  0  0  0  0  0  0
  161.2060  199.9870  150.1120 F   0  0  0  0  0  0  0  0  0  0  0  0
  161.5780  202.1560  149.2040 C   0  0  0  0  0  3  0  0  0  0  0  0
  160.7200  204.1180  150.3530 C   0  0  0  0  0  0  0  0  0  0  0  0
  161.2060  205.7980  143.5970 C   0  0  0  0  0  2  0  0  0  0  0  0
  161.3920  205.8880  146.3970 C   0  0  2  0  0  3  0  0  0  0  0  0
  160.0720  205.3130  145.8430 C   0  0  0  0  0  2  0  0  0  0  0  0
  160.0690  205.0730  144.3200 C   0  0  0  0  0  2  0  0  0  0  0  0
  162.5110  205.4530  144.2530 C   0  0  0  0  0  3  0  0  0  0  0  0
  162.5990  205.4860  145.5860 C   0  0  0  0  0  3  0  0  0  0  0  0
  1 15  2  0  0  0  0
  2 16  1  0  0  0  0
  4 13  1  0  0  0  0
  6  2  2  0  0  0  0
  6 18  1  0  0  0  0
  7 13  2  0  0  0  0
  7  9  1  0  0  0  0
  8 17  2  0  0  0  0
 10  8  1  0  0  0  0
 11  7  1  0  0  0  0
 12  1  1  0  0  0  0
 12  2  1  0  0  0  0
 13  5  1  0  0  0  0
 14 11  1  0  0  0  0
 14  4  1  0  0  0  0
 15 21  1  0  0  0  0
 16  3  1  0  0  0  0
 16 11  2  0  0  0  0
 18 14  2  0  0  0  0
 19 10  1  0  0  0  0
 20 15  1  0  0  0  0
 20 10  2  0  0  0  0
 21  3  2  0  0  0  0
 21 17  1  0  0  0  0
 22 26  1  0  0  0  0
 22 25  1  0  0  0  0
 23 27  1  6  0  0  0
 23 12  1  0  0  0  0
 24 23  1  0  0  0  0
 25 24  1  0  0  0  0
 26 27  2  0  0  0  0
M  END
>  <MODEL>
4

>  <REMARK>
 VINA RESULT:      -7.1      3.938      7.870
  Name = 
  1 active torsions:
  status: ('A' for Active; 'I' for Inactive)
    1  A    between atoms: C_9  and  N_15
                            x       y       z     vdW  Elec       q    Type
                         _______ _______ _______ _____ _____    ______ ____

>  <TORSDO>
F 1

$$$$
=
 OpenBabel11052423123D

 27 31  0  0  1  0  0  0  0  0999 V2000
  162.3310  208.8160  149.6350 C   0  0  0  0  0  3  0  0  0  0  0  0
  161.9140  209.6660  151.9730 C   0  0  0  0  0  0  0  0  0  0  0  0
  160.7800  207.3910  151.8070 C   0  0  0  0  0  3  0  0  0  0  0  0
  161.5040  209.2230  156.3870 S   0  0  0  0  0  0  0  0  0  0  0  0
  160.2420  206.8580  157.2390 C   0  0  0  0  0  1  0  0  0  0  0  0
  162.4110  210.7030  152.7970 C   0  0  0  0  0  3  0  0  0  0  0  0
  160.6610  207.4710  154.7860 C   0  0  0  0  0  0  0  0  0  0  0  0
  160.8470  204.9990  149.1260 C   0  0  0  0  0  3  0  0  0  0  0  0
  160.0810  206.3080  154.2880 O   0  0  0  0  0  1  0  0  0  0  0  0
  161.7800  205.5460  148.2510 C   0  0  0  0  0  0  0  0  0  0  0  0
  161.2210  208.4870  153.9830 C   0  0  0  0  0  0  0  0  0  0  0  0
  161.9520  209.8480  150.5510 N   0  0  0  0  0  0  0  0  0  0  0  0
  160.7430  207.7380  156.1500 C   0  0  0  0  0  0  0  0  0  0  0  0
  161.7300  209.5290  154.7520 C   0  0  0  0  0  0  0  0  0  0  0  0
  161.9280  207.5450  149.6360 C   0  0  0  0  0  0  0  0  0  0  0  0
  161.3160  208.5290  152.5710 C   0  0  0  0  0  0  0  0  0  0  0  0
  160.4930  205.6940  150.2820 C   0  0  0  0  0  3  0  0  0  0  0  0
  162.3310  210.6410  154.1880 C   0  0  0  0  0  3  0  0  0  0  0  0
  162.1470  204.8680  147.1380 F   0  0  0  0  0  0  0  0  0  0  0  0
  162.3010  206.8150  148.5000 C   0  0  0  0  0  3  0  0  0  0  0  0
  161.0470  206.9470  150.5770 C   0  0  0  0  0  0  0  0  0  0  0  0
  161.2190  213.5610  148.6370 C   0  0  0  0  0  2  0  0  0  0  0  0
  161.8960  211.2140  150.0230 C   0  0  2  0  0  3  0  0  0  0  0  0
  160.6840  211.9860  150.5860 C   0  0  0  0  0  2  0  0  0  0  0  0
  160.1960  213.1470  149.6970 C   0  0  0  0  0  2  0  0  0  0  0  0
  161.6450  212.3500  147.8580 C   0  0  0  0  0  3  0  0  0  0  0  0
  161.9580  211.2300  148.5160 C   0  0  0  0  0  3  0  0  0  0  0  0
  1 15  2  0  0  0  0
  1 12  1  0  0  0  0
  2 16  2  0  0  0  0
  2  6  1  0  0  0  0
  3 16  1  0  0  0  0
  6 18  2  0  0  0  0
  7 13  2  0  0  0  0
  8 17  2  0  0  0  0
  9  7  1  0  0  0  0
 10 20  2  0  0  0  0
 10  8  1  0  0  0  0
 11 14  2  0  0  0  0
 11  7  1  0  0  0  0
 12  2  1  0  0  0  0
 13  4  1  0  0  0  0
 13  5  1  0  0  0  0
 14  4  1  0  0  0  0
 15 21  1  0  0  0  0
 16 11  1  0  0  0  0
 17 21  1  0  0  0  0
 18 14  1  0  0  0  0
 19 10  1  0  0  0  0
 20 15  1  0  0  0  0
 21  3  2  0  0  0  0
 22 25  1  0  0  0  0
 23 27  1  6  0  0  0
 23 12  1  0  0  0  0
 23 24  1  0  0  0  0
 25 24  1  0  0  0  0
 26 27  2  0  0  0  0
 26 22  1  0  0  0  0
M  END
>  <MODEL>
5

>  <REMARK>
 VINA RESULT:      -7.1      3.112      6.228
  Name = 
  1 active torsions:
  status: ('A' for Active; 'I' for Inactive)
    1  A    between atoms: C_9  and  N_15
                            x       y       z     vdW  Elec       q    Type
                         _______ _______ _______ _____ _____    ______ ____

>  <TORSDO>
F 1

$$$$
=
 OpenBabel11052423123D

 27 31  0  0  1  0  0  0  0  0999 V2000
  160.7050  208.1580  152.6400 C   0  0  0  0  0  3  0  0  0  0  0  0
  160.5980  210.6670  152.3920 C   0  0  0  0  0  0  0  0  0  0  0  0
  161.7550  209.7730  150.3070 C   0  0  0  0  0  3  0  0  0  0  0  0
  160.0390  214.4500  150.1070 S   0  0  0  0  0  0  0  0  0  0  0  0
  161.1000  214.4410  147.5030 C   0  0  0  0  0  1  0  0  0  0  0  0
  159.9260  211.7370  153.0280 C   0  0  0  0  0  3  0  0  0  0  0  0
  161.2210  212.4580  149.1210 C   0  0  0  0  0  0  0  0  0  0  0  0
  162.2900  206.3740  149.2730 C   0  0  0  0  0  3  0  0  0  0  0  0
  161.9040  211.6370  148.2270 O   0  0  0  0  0  1  0  0  0  0  0  0
  161.5670  205.6500  150.2160 C   0  0  0  0  0  0  0  0  0  0  0  0
  160.8430  212.0730  150.4250 C   0  0  0  0  0  0  0  0  0  0  0  0
  160.8690  209.4830  153.1560 N   0  0  0  0  0  0  0  0  0  0  0  0
  160.8420  213.7580  148.7990 C   0  0  0  0  0  0  0  0  0  0  0  0
  160.1720  213.0940  151.0890 C   0  0  0  0  0  0  0  0  0  0  0  0
  161.1070  207.6960  151.4560 C   0  0  0  0  0  0  0  0  0  0  0  0
  161.0580  210.8270  151.0620 C   0  0  0  0  0  0  0  0  0  0  0  0
  162.3790  207.7610  149.3870 C   0  0  0  0  0  3  0  0  0  0  0  0
  159.7010  212.9530  152.3830 C   0  0  0  0  0  3  0  0  0  0  0  0
  161.4560  204.3050  150.1020 F   0  0  0  0  0  0  0  0  0  0  0  0
  160.9950  206.3080  151.3040 C   0  0  0  0  0  3  0  0  0  0  0  0
  161.7660  208.4460  150.4440 C   0  0  0  0  0  0  0  0  0  0  0  0
  161.9390  209.4640  157.2590 C   0  0  0  0  0  2  0  0  0  0  0  0
  161.0300  209.6140  154.6070 C   0  0  2  0  0  3  0  0  0  0  0  0
  162.1870  210.5700  154.9620 C   0  0  0  0  0  2  0  0  0  0  0  0
  162.8140  210.3290  156.3490 C   0  0  0  0  0  2  0  0  0  0  0  0
  161.5750  208.1980  156.5410 C   0  0  0  0  0  3  0  0  0  0  0  0
  161.1510  208.2660  155.2750 C   0  0  0  0  0  3  0  0  0  0  0  0
  1 12  1  0  0  0  0
  2  6  1  0  0  0  0
  2 12  1  0  0  0  0
  3 21  2  0  0  0  0
  3 16  1  0  0  0  0
  4 14  1  0  0  0  0
  5 13  1  0  0  0  0
  7 11  1  0  0  0  0
  8 17  2  0  0  0  0
  8 10  1  0  0  0  0
  9  7  1  0  0  0  0
 10 20  2  0  0  0  0
 11 16  1  0  0  0  0
 11 14  2  0  0  0  0
 13  7  2  0  0  0  0
 13  4  1  0  0  0  0
 14 18  1  0  0  0  0
 15  1  2  0  0  0  0
 16  2  2  0  0  0  0
 17 21  1  0  0  0  0
 18  6  2  0  0  0  0
 19 10  1  0  0  0  0
 20 15  1  0  0  0  0
 21 15  1  0  0  0  0
 23 12  1  6  0  0  0
 23 24  1  0  0  0  0
 23 27  1  0  0  0  0
 24 25  1  0  0  0  0
 25 22  1  0  0  0  0
 26 22  1  0  0  0  0
 27 26  2  0  0  0  0
M  END
>  <MODEL>
6

>  <REMARK>
 VINA RESULT:      -6.9      3.780      6.214
  Name = 
  1 active torsions:
  status: ('A' for Active; 'I' for Inactive)
    1  A    between atoms: C_9  and  N_15
                            x       y       z     vdW  Elec       q    Type
                         _______ _______ _______ _____ _____    ______ ____

>  <TORSDO>
F 1

$$$$
=
 OpenBabel11052423123D

 27 31  0  0  1  0  0  0  0  0999 V2000
  161.2950  206.0890  152.6690 C   0  0  0  0  0  3  0  0  0  0  0  0
  161.4490  207.3120  150.4660 C   0  0  0  0  0  0  0  0  0  0  0  0
  160.7080  209.0210  152.2040 C   0  0  0  0  0  3  0  0  0  0  0  0
  162.4330  210.8020  147.8780 S   0  0  0  0  0  0  0  0  0  0  0  0
  161.8860  213.3180  149.0070 C   0  0  0  0  0  1  0  0  0  0  0  0
  161.9880  207.0590  149.1830 C   0  0  0  0  0  3  0  0  0  0  0  0
  161.4590  211.0830  150.1830 C   0  0  0  0  0  0  0  0  0  0  0  0
  160.3780  208.6600  155.7640 C   0  0  0  0  0  3  0  0  0  0  0  0
  160.9580  211.6690  151.3420 O   0  0  0  0  0  1  0  0  0  0  0  0
  160.9080  207.3940  155.9930 C   0  0  0  0  0  0  0  0  0  0  0  0
  161.5820  209.6900  149.9860 C   0  0  0  0  0  0  0  0  0  0  0  0
  161.0380  206.1920  151.2640 N   0  0  0  0  0  0  0  0  0  0  0  0
  161.8920  211.8340  149.0950 C   0  0  0  0  0  0  0  0  0  0  0  0
  162.1150  209.3930  148.7360 C   0  0  0  0  0  0  0  0  0  0  0  0
  161.1250  207.0330  153.5940 C   0  0  0  0  0  0  0  0  0  0  0  0
  161.2490  208.6500  150.8870 C   0  0  0  0  0  0  0  0  0  0  0  0
  160.2700  209.1360  154.4580 C   0  0  0  0  0  3  0  0  0  0  0  0
  162.3320  208.0930  148.3120 C   0  0  0  0  0  3  0  0  0  0  0  0
  161.0390  206.9310  157.2590 F   0  0  0  0  0  0  0  0  0  0  0  0
  161.2630  206.5860  154.9140 C   0  0  0  0  0  3  0  0  0  0  0  0
  160.6710  208.3600  153.3630 C   0  0  0  0  0  0  0  0  0  0  0  0
  160.4950  202.5040  149.2440 C   0  0  0  0  0  2  0  0  0  0  0  0
  160.6040  204.9720  150.5790 C   0  0  2  0  0  3  0  0  0  0  0  0
  160.7780  203.7290  151.4760 C   0  0  0  0  0  2  0  0  0  0  0  0
  160.9290  202.4010  150.7090 C   0  0  0  0  0  2  0  0  0  0  0  0
  161.2080  203.6530  148.5940 C   0  0  0  0  0  3  0  0  0  0  0  0
  161.2690  204.8260  149.2320 C   0  0  0  0  0  3  0  0  0  0  0  0
  1 15  2  0  0  0  0
  2 16  1  0  0  0  0
  2 12  1  0  0  0  0
  3 21  2  0  0  0  0
  4 14  1  0  0  0  0
  4 13  1  0  0  0  0
  5 13  1  0  0  0  0
  6  2  2  0  0  0  0
  7  9  1  0  0  0  0
  8 10  1  0  0  0  0
 10 19  1  0  0  0  0
 11  7  1  0  0  0  0
 11 16  2  0  0  0  0
 12  1  1  0  0  0  0
 13  7  2  0  0  0  0
 14 11  1  0  0  0  0
 15 20  1  0  0  0  0
 16  3  1  0  0  0  0
 17  8  2  0  0  0  0
 18 14  2  0  0  0  0
 18  6  1  0  0  0  0
 20 10  2  0  0  0  0
 21 15  1  0  0  0  0
 21 17  1  0  0  0  0
 22 25  1  0  0  0  0
 23 27  1  6  0  0  0
 23 12  1  0  0  0  0
 23 24  1  0  0  0  0
 25 24  1  0  0  0  0
 26 27  2  0  0  0  0
 26 22  1  0  0  0  0
M  END
>  <MODEL>
7

>  <REMARK>
 VINA RESULT:      -6.9      3.168      6.758
  Name = 
  1 active torsions:
  status: ('A' for Active; 'I' for Inactive)
    1  A    between atoms: C_9  and  N_15
                            x       y       z     vdW  Elec       q    Type
                         _______ _______ _______ _____ _____    ______ ____

>  <TORSDO>
F 1

$$$$
=
 OpenBabel11052423123D

 27 31  0  0  1  0  0  0  0  0999 V2000
  161.7820  210.3710  151.7900 C   0  0  0  0  0  3  0  0  0  0  0  0
  161.1670  208.0050  152.4140 C   0  0  0  0  0  0  0  0  0  0  0  0
  161.1770  208.1140  149.8690 C   0  0  0  0  0  3  0  0  0  0  0  0
  161.2700  203.5770  151.9350 S   0  0  0  0  0  0  0  0  0  0  0  0
  161.2670  202.6620  149.2760 C   0  0  0  0  0  1  0  0  0  0  0  0
  161.1900  207.2080  153.5820 C   0  0  0  0  0  3  0  0  0  0  0  0
  161.2150  205.1320  149.9550 C   0  0  0  0  0  0  0  0  0  0  0  0
  162.1560  210.8090  147.7040 C   0  0  0  0  0  3  0  0  0  0  0  0
  161.1940  205.6000  148.6440 O   0  0  0  0  0  1  0  0  0  0  0  0
  162.6850  211.7390  148.5930 C   0  0  0  0  0  0  0  0  0  0  0  0
  161.2050  205.9630  151.0960 C   0  0  0  0  0  0  0  0  0  0  0  0
  161.0330  209.4260  152.5610 N   0  0  0  0  0  0  0  0  0  0  0  0
  161.2490  203.7750  150.2620 C   0  0  0  0  0  0  0  0  0  0  0  0
  161.2340  205.2210  152.2720 C   0  0  0  0  0  0  0  0  0  0  0  0
  161.9970  210.3530  150.4750 C   0  0  0  0  0  0  0  0  0  0  0  0
  161.1850  207.3780  151.1430 C   0  0  0  0  0  0  0  0  0  0  0  0
  161.5960  209.6290  148.1910 C   0  0  0  0  0  3  0  0  0  0  0  0
  161.2320  205.8150  153.5230 C   0  0  0  0  0  3  0  0  0  0  0  0
  163.2510  212.8780  148.1280 F   0  0  0  0  0  0  0  0  0  0  0  0
  162.5910  211.5150  149.9660 C   0  0  0  0  0  3  0  0  0  0  0  0
  161.5400  209.3610  149.5650 C   0  0  0  0  0  0  0  0  0  0  0  0
  159.4160  211.5090  155.8810 C   0  0  0  0  0  2  0  0  0  0  0  0
  160.3340  209.9390  153.7420 C   0  0  2  0  0  3  0  0  0  0  0  0
  159.3260  211.0440  153.3630 C   0  0  0  0  0  2  0  0  0  0  0  0
  158.9960  212.0280  154.5040 C   0  0  0  0  0  2  0  0  0  0  0  0
  160.8600  211.1050  155.8410 C   0  0  0  0  0  3  0  0  0  0  0  0
  161.3010  210.3660  154.8180 C   0  0  0  0  0  3  0  0  0  0  0  0
  1 12  1  0  0  0  0
  2 12  1  0  0  0  0
  2  6  1  0  0  0  0
  3 16  1  0  0  0  0
  4 14  1  0  0  0  0
  5 13  1  0  0  0  0
  7 13  2  0  0  0  0
  7 11  1  0  0  0  0
  8 17  2  0  0  0  0
  8 10  1  0  0  0  0
  9  7  1  0  0  0  0
 10 20  2  0  0  0  0
 11 16  1  0  0  0  0
 11 14  2  0  0  0  0
 13  4  1  0  0  0  0
 14 18  1  0  0  0  0
 15  1  2  0  0  0  0
 16  2  2  0  0  0  0
 17 21  1  0  0  0  0
 18  6  2  0  0  0  0
 19 10  1  0  0  0  0
 20 15  1  0  0  0  0
 21  3  2  0  0  0  0
 21 15  1  0  0  0  0
 23 12  1  6  0  0  0
 23 27  1  0  0  0  0
 24 23  1  0  0  0  0
 24 25  1  0  0  0  0
 25 22  1  0  0  0  0
 26 22  1  0  0  0  0
 27 26  2  0  0  0  0
M  END
>  <MODEL>
8

>  <REMARK>
 VINA RESULT:      -6.4      1.338      1.873
  Name = 
  1 active torsions:
  status: ('A' for Active; 'I' for Inactive)
    1  A    between atoms: C_9  and  N_15
                            x       y       z     vdW  Elec       q    Type
                         _______ _______ _______ _____ _____    ______ ____

>  <TORSDO>
F 1

$$$$
=
 OpenBabel11052423123D

 27 31  0  0  1  0  0  0  0  0999 V2000
  160.8920  207.0940  151.7650 C   0  0  0  0  0  3  0  0  0  0  0  0
  160.8230  209.5880  152.1430 C   0  0  0  0  0  0  0  0  0  0  0  0
  161.8340  209.2230  149.8330 C   0  0  0  0  0  3  0  0  0  0  0  0
  160.2080  213.8180  150.8860 S   0  0  0  0  0  0  0  0  0  0  0  0
  161.1110  214.4380  148.2970 C   0  0  0  0  0  1  0  0  0  0  0  0
  160.2140  210.4740  153.0610 C   0  0  0  0  0  3  0  0  0  0  0  0
  161.2870  212.1190  149.3720 C   0  0  0  0  0  0  0  0  0  0  0  0
  162.2340  206.1750  147.9730 C   0  0  0  0  0  3  0  0  0  0  0  0
  161.8970  211.5370  148.2650 O   0  0  0  0  0  1  0  0  0  0  0  0
  161.5540  205.2480  148.7550 C   0  0  0  0  0  0  0  0  0  0  0  0
  160.9800  211.4300  150.5650 C   0  0  0  0  0  0  0  0  0  0  0  0
  161.1140  208.2520  152.5770 N   0  0  0  0  0  0  0  0  0  0  0  0
  160.9170  213.4600  149.4010 C   0  0  0  0  0  0  0  0  0  0  0  0
  160.3720  212.2620  151.4980 C   0  0  0  0  0  0  0  0  0  0  0  0
  161.2130  206.9320  150.4820 C   0  0  0  0  0  0  0  0  0  0  0  0
  161.2060  210.0640  150.8650 C   0  0  0  0  0  0  0  0  0  0  0  0
  162.3590  207.4920  148.4140 C   0  0  0  0  0  3  0  0  0  0  0  0
  159.9760  211.8130  152.7460 C   0  0  0  0  0  3  0  0  0  0  0  0
  161.4070  203.9720  148.3240 F   0  0  0  0  0  0  0  0  0  0  0  0
  161.0620  205.6240  150.0040 C   0  0  0  0  0  3  0  0  0  0  0  0
  161.8250  207.9020  149.6430 C   0  0  0  0  0  0  0  0  0  0  0  0
  161.2770  208.0440  156.8100 C   0  0  0  0  0  2  0  0  0  0  0  0
  161.3640  208.0230  154.0030 C   0  0  2  0  0  3  0  0  0  0  0  0
  160.2650  207.1440  154.6340 C   0  0  0  0  0  2  0  0  0  0  0  0
  160.0920  207.3290  156.1550 C   0  0  0  0  0  2  0  0  0  0  0  0
  161.5490  209.3260  156.0790 C   0  0  0  0  0  3  0  0  0  0  0  0
  161.5810  209.3200  154.7430 C   0  0  0  0  0  3  0  0  0  0  0  0
  1 12  1  0  0  0  0
  2 12  1  0  0  0  0
  2  6  1  0  0  0  0
  3 16  1  0  0  0  0
  4 14  1  0  0  0  0
  5 13  1  0  0  0  0
  7 13  2  0  0  0  0
  7 11  1  0  0  0  0
  8 17  2  0  0  0  0
  8 10  1  0  0  0  0
  9  7  1  0  0  0  0
 10 20  2  0  0  0  0
 11 16  1  0  0  0  0
 11 14  2  0  0  0  0
 13  4  1  0  0  0  0
 14 18  1  0  0  0  0
 15  1  2  0  0  0  0
 16  2  2  0  0  0  0
 17 21  1  0  0  0  0
 18  6  2  0  0  0  0
 19 10  1  0  0  0  0
 20 15  1  0  0  0  0
 21  3  2  0  0  0  0
 21 15  1  0  0  0  0
 23 12  1  6  0  0  0
 23 24  1  0  0  0  0
 23 27  1  0  0  0  0
 24 25  1  0  0  0  0
 25 22  1  0  0  0  0
 26 22  1  0  0  0  0
 27 26  2  0  0  0  0
M  END
>  <MODEL>
9

>  <REMARK>
 VINA RESULT:      -6.3      3.503      5.912
  Name = 
  1 active torsions:
  status: ('A' for Active; 'I' for Inactive)
    1  A    between atoms: C_9  and  N_15
                            x       y       z     vdW  Elec       q    Type
                         _______ _______ _______ _____ _____    ______ ____

>  <TORSDO>
F 1

$$$$
