=
 OpenBabel11062408353D

 32 33  0  0  1  0  0  0  0  0999 V2000
  161.9450  206.9120  151.9910 C   0  0  0  0  0  0  0  0  0  0  0  0
  162.8060  206.0440  152.0450 O   0  0  0  0  0  0  0  0  0  0  0  0
  160.3690  207.5800  155.4040 C   0  0  0  0  0  0  0  0  0  0  0  0
  159.8250  207.0130  156.3370 O   0  0  0  0  0  0  0  0  0  0  0  0
  160.6550  208.8550  152.8470 C   0  0  0  0  0  2  0  0  0  0  0  0
  160.5450  209.0700  155.4390 C   0  0  0  0  0  2  0  0  0  0  0  0
  161.5640  207.6820  153.2140 C   0  0  1  0  0  3  0  0  0  0  0  0
  160.8890  206.7780  154.2450 C   0  0  0  0  0  2  0  0  0  0  0  0
  160.2660  209.7080  154.0680 C   0  0  1  0  0  3  0  0  0  0  0  0
  160.8350  211.1230  153.9800 C   0  0  0  0  0  2  0  0  0  0  0  0
  159.9370  212.0830  153.2010 C   0  0  0  0  0  2  0  0  0  0  0  0
  159.0920  212.9410  154.1280 C   0  0  0  0  0  2  0  0  0  0  0  0
  157.6880  212.6070  153.9700 N   0  0  0  0  0  2  0  0  0  0  0  0
  156.0040  211.1530  154.9130 C   0  0  0  0  0  2  0  0  0  0  0  0
  155.9450  212.4750  155.6430 C   0  0  0  0  0  2  0  0  0  0  0  0
  157.2790  211.9250  155.1840 C   0  0  0  0  0  3  0  0  0  0  0  0
  161.9230  208.2030  150.0080 O   0  0  0  0  0  1  0  0  0  0  0  0
  161.2400  207.2020  150.7020 C   0  0  1  0  0  3  0  0  0  0  0  0
  161.1140  205.9460  149.8340 C   0  0  2  0  0  3  0  0  0  0  0  0
  160.6490  206.2910  148.4200 C   0  0  0  0  0  2  0  0  0  0  0  0
  162.0570  206.6260  147.3110 S   0  0  0  0  0  0  0  0  0  0  0  0
  162.1960  204.8770  146.8430 C   0  0  2  0  0  3  0  0  0  0  0  0
  163.5520  204.6090  146.2050 C   0  0  0  0  0  1  0  0  0  0  0  0
  161.0240  204.4600  145.9530 C   0  0  1  0  0  3  0  0  0  0  0  0
  161.3770  205.3390  143.7490 O   0  0  0  0  0  1  0  0  0  0  0  0
  160.6630  205.5370  144.9310 C   0  0  0  0  0  2  0  0  0  0  0  0
  161.3230  203.1310  145.2740 C   0  0  0  0  0  2  0  0  0  0  0  0
  159.9350  201.1100  144.9400 C   0  0  0  0  0  1  0  0  0  0  0  0
  160.5950  202.0000  145.9730 C   0  0  0  0  0  2  0  0  0  0  0  0
  160.2310  205.0280  150.4130 O   0  0  0  0  0  0  0  0  0  0  0  0
  160.7950  203.7760  150.1600 C   0  0  0  0  0  2  0  0  0  0  0  0
  161.1860  203.1250  151.4710 C   0  0  0  0  0  1  0  0  0  0  0  0
  1  2  2  0  0  0  0
  3  6  1  0  0  0  0
  3  4  2  0  0  0  0
  5  7  1  0  0  0  0
  5  9  1  0  0  0  0
  7  1  1  6  0  0  0
  7  8  1  0  0  0  0
  8  3  1  0  0  0  0
  9 10  1  1  0  0  0
  9  6  1  0  0  0  0
 11 10  1  0  0  0  0
 11 12  1  0  0  0  0
 13 12  1  0  0  0  0
 13 16  1  0  0  0  0
 14 16  1  0  0  0  0
 14 15  1  0  0  0  0
 16 15  1  0  0  0  0
 18 17  1  6  0  0  0
 18  1  1  0  0  0  0
 19 20  1  6  0  0  0
 19 30  1  0  0  0  0
 19 18  1  0  0  0  0
 21 20  1  0  0  0  0
 22 23  1  6  0  0  0
 22 21  1  0  0  0  0
 24 26  1  6  0  0  0
 24 22  1  0  0  0  0
 25 26  1  0  0  0  0
 27 24  1  0  0  0  0
 27 29  1  0  0  0  0
 28 29  1  0  0  0  0
 31 30  1  0  0  0  0
 31 32  1  0  0  0  0
M  END
>  <MODEL>
1

>  <REMARK>
 VINA RESULT:      -6.6      0.000      0.000
  Name = 
  17 active torsions:
  status: ('A' for Active; 'I' for Inactive)
    1  A    between atoms: C_1  and  C_2
    2  A    between atoms: C_1  and  S_30
    3  A    between atoms: C_2  and  O_5
    4  A    between atoms: C_2  and  C_27
    5  A    between atoms: C_4  and  C_29
    6  A    between atoms: C_4  and  S_30
    7  A    between atoms: O_5  and  C_14
    8  A    between atoms: C_7  and  C_26
    9  A    between atoms: C_7  and  C_31
   10  A    between atoms: C_9  and  C_31
   11  A    between atoms: C_9  and  N_32
   12  A    between atoms: C_16  and  C_20
   13  A    between atoms: C_16  and  C_27
   14  A    between atoms: C_17  and  C_29
   15  A    between atoms: C_18  and  C_25
   16  A    between atoms: C_18  and  C_29
   17  A    between atoms: C_28  and  N_32
                            x       y       z     vdW  Elec       q    Type
                         _______ _______ _______ _____ _____    ______ ____

>  <TORSDO>
F 17

$$$$
=
 OpenBabel11062408353D

 32 33  0  0  1  0  0  0  0  0999 V2000
  161.2920  207.2150  152.4220 C   0  0  0  0  0  0  0  0  0  0  0  0
  160.5950  206.2520  152.1360 O   0  0  0  0  0  0  0  0  0  0  0  0
  160.3000  207.6380  156.0850 C   0  0  0  0  0  0  0  0  0  0  0  0
  159.8620  207.0160  157.0390 O   0  0  0  0  0  0  0  0  0  0  0  0
  160.2930  209.1390  153.6370 C   0  0  0  0  0  2  0  0  0  0  0  0
  160.5890  209.1050  156.2230 C   0  0  0  0  0  2  0  0  0  0  0  0
  161.1570  207.8830  153.7530 C   0  0  1  0  0  3  0  0  0  0  0  0
  160.5800  206.9250  154.7940 C   0  0  0  0  0  2  0  0  0  0  0  0
  160.1560  209.8900  154.9740 C   0  0  1  0  0  3  0  0  0  0  0  0
  160.8090  211.2710  154.9220 C   0  0  0  0  0  2  0  0  0  0  0  0
  160.4780  212.1360  156.1380 C   0  0  0  0  0  2  0  0  0  0  0  0
  159.2060  212.9400  155.9250 C   0  0  0  0  0  2  0  0  0  0  0  0
  158.0910  212.2920  156.5930 N   0  0  0  0  0  2  0  0  0  0  0  0
  156.3500  211.1480  155.3680 C   0  0  0  0  0  2  0  0  0  0  0  0
  157.1900  211.9220  154.3780 C   0  0  0  0  0  2  0  0  0  0  0  0
  156.9240  212.4960  155.7540 C   0  0  0  0  0  3  0  0  0  0  0  0
  163.0990  206.7290  150.9730 O   0  0  0  0  0  1  0  0  0  0  0  0
  162.2780  207.7600  151.4350 C   0  0  1  0  0  3  0  0  0  0  0  0
  161.5760  208.4460  150.2580 C   0  0  2  0  0  3  0  0  0  0  0  0
  161.8050  207.6850  148.9540 C   0  0  0  0  0  2  0  0  0  0  0  0
  160.4760  206.4780  148.6370 S   0  0  0  0  0  0  0  0  0  0  0  0
  161.6050  205.3560  147.7620 C   0  0  2  0  0  3  0  0  0  0  0  0
  161.2240  205.2660  146.2910 C   0  0  0  0  0  1  0  0  0  0  0  0
  161.6530  203.9910  148.4520 C   0  0  1  0  0  3  0  0  0  0  0  0
  161.3680  203.5610  150.7950 O   0  0  0  0  0  1  0  0  0  0  0  0
  160.6830  203.9040  149.6290 C   0  0  0  0  0  2  0  0  0  0  0  0
  161.3990  202.8800  147.4420 C   0  0  0  0  0  2  0  0  0  0  0  0
  161.4330  200.4330  147.8020 C   0  0  0  0  0  1  0  0  0  0  0  0
  160.6860  201.7150  148.1000 C   0  0  0  0  0  2  0  0  0  0  0  0
  162.0150  209.7680  150.1200 O   0  0  0  0  0  0  0  0  0  0  0  0
  162.0730  209.9870  148.7420 C   0  0  0  0  0  2  0  0  0  0  0  0
  162.2180  211.4710  148.4740 C   0  0  0  0  0  1  0  0  0  0  0  0
  2  1  2  0  0  0  0
  3  6  1  0  0  0  0
  3  4  2  0  0  0  0
  5  7  1  0  0  0  0
  5  9  1  0  0  0  0
  7  1  1  6  0  0  0
  7  8  1  0  0  0  0
  8  3  1  0  0  0  0
  9 10  1  6  0  0  0
  9  6  1  0  0  0  0
 10 11  1  0  0  0  0
 12 11  1  0  0  0  0
 12 13  1  0  0  0  0
 14 16  1  0  0  0  0
 15 14  1  0  0  0  0
 15 16  1  0  0  0  0
 16 13  1  0  0  0  0
 18 17  1  6  0  0  0
 18  1  1  0  0  0  0
 19 20  1  6  0  0  0
 19 18  1  0  0  0  0
 21 20  1  0  0  0  0
 22 23  1  6  0  0  0
 22 24  1  0  0  0  0
 22 21  1  0  0  0  0
 24 27  1  6  0  0  0
 24 26  1  0  0  0  0
 26 25  1  0  0  0  0
 27 29  1  0  0  0  0
 28 29  1  0  0  0  0
 30 19  1  0  0  0  0
 31 30  1  0  0  0  0
 32 31  1  0  0  0  0
M  END
>  <MODEL>
2

>  <REMARK>
 VINA RESULT:      -6.3      2.012      3.138
  Name = 
  17 active torsions:
  status: ('A' for Active; 'I' for Inactive)
    1  A    between atoms: C_1  and  C_2
    2  A    between atoms: C_1  and  S_30
    3  A    between atoms: C_2  and  O_5
    4  A    between atoms: C_2  and  C_27
    5  A    between atoms: C_4  and  C_29
    6  A    between atoms: C_4  and  S_30
    7  A    between atoms: O_5  and  C_14
    8  A    between atoms: C_7  and  C_26
    9  A    between atoms: C_7  and  C_31
   10  A    between atoms: C_9  and  C_31
   11  A    between atoms: C_9  and  N_32
   12  A    between atoms: C_16  and  C_20
   13  A    between atoms: C_16  and  C_27
   14  A    between atoms: C_17  and  C_29
   15  A    between atoms: C_18  and  C_25
   16  A    between atoms: C_18  and  C_29
   17  A    between atoms: C_28  and  N_32
                            x       y       z     vdW  Elec       q    Type
                         _______ _______ _______ _____ _____    ______ ____

>  <TORSDO>
F 17

$$$$
=
 OpenBabel11062408353D

 32 33  0  0  1  0  0  0  0  0999 V2000
  162.0430  209.0290  150.1110 C   0  0  0  0  0  0  0  0  0  0  0  0
  161.9450  209.9980  149.3720 O   0  0  0  0  0  0  0  0  0  0  0  0
  162.1180  206.2650  147.4780 C   0  0  0  0  0  0  0  0  0  0  0  0
  162.3610  206.0700  146.2990 O   0  0  0  0  0  0  0  0  0  0  0  0
  160.6270  207.0080  149.8160 C   0  0  0  0  0  2  0  0  0  0  0  0
  161.6560  205.1270  148.3410 C   0  0  0  0  0  2  0  0  0  0  0  0
  161.9940  207.6410  149.5570 C   0  0  1  0  0  3  0  0  0  0  0  0
  162.3190  207.6330  148.0640 C   0  0  0  0  0  2  0  0  0  0  0  0
  160.5360  205.5610  149.3010 C   0  0  1  0  0  3  0  0  0  0  0  0
  160.3550  204.5600  150.4420 C   0  0  0  0  0  2  0  0  0  0  0  0
  161.3730  203.4210  150.4080 C   0  0  0  0  0  2  0  0  0  0  0  0
  160.7020  202.0630  150.5310 C   0  0  0  0  0  2  0  0  0  0  0  0
  160.1920  201.6430  149.2370 N   0  0  0  0  0  2  0  0  0  0  0  0
  160.8210  201.5350  146.9060 C   0  0  0  0  0  2  0  0  0  0  0  0
  161.3240  200.2820  147.5870 C   0  0  0  0  0  2  0  0  0  0  0  0
  161.3270  201.6000  148.3330 C   0  0  0  0  0  3  0  0  0  0  0  0
  163.1080  210.2340  151.8480 O   0  0  0  0  0  1  0  0  0  0  0  0
  162.1900  209.2130  151.5900 C   0  0  1  0  0  3  0  0  0  0  0  0
  160.8450  209.5310  152.2540 C   0  0  2  0  0  3  0  0  0  0  0  0
  160.9890  210.6320  153.3030 C   0  0  0  0  0  2  0  0  0  0  0  0
  159.5780  211.7860  153.2650 S   0  0  0  0  0  0  0  0  0  0  0  0
  159.7800  212.2040  155.0210 C   0  0  2  0  0  3  0  0  0  0  0  0
  161.0010  211.4980  155.5940 C   0  0  0  0  0  1  0  0  0  0  0  0
  158.4960  211.9030  155.7990 C   0  0  1  0  0  3  0  0  0  0  0  0
  158.0820  214.2580  155.5950 O   0  0  0  0  0  1  0  0  0  0  0  0
  157.8980  213.1580  156.4330 C   0  0  0  0  0  2  0  0  0  0  0  0
  157.4870  211.2030  154.9000 C   0  0  0  0  0  2  0  0  0  0  0  0
  155.2640  210.1510  155.1710 C   0  0  0  0  0  1  0  0  0  0  0  0
  156.0780  211.4020  155.4240 C   0  0  0  0  0  2  0  0  0  0  0  0
  160.2980  208.3840  152.8410 O   0  0  0  0  0  0  0  0  0  0  0  0
  161.1480  208.0830  153.9070 C   0  0  0  0  0  2  0  0  0  0  0  0
  160.5510  206.9560  154.7240 C   0  0  0  0  0  1  0  0  0  0  0  0
  1 18  1  0  0  0  0
  2  1  2  0  0  0  0
  3  8  1  0  0  0  0
  3  6  1  0  0  0  0
  4  3  2  0  0  0  0
  6  9  1  0  0  0  0
  7  5  1  0  0  0  0
  7  1  1  6  0  0  0
  8  7  1  0  0  0  0
  9  5  1  0  0  0  0
  9 10  1  1  0  0  0
 11 10  1  0  0  0  0
 11 12  1  0  0  0  0
 13 12  1  0  0  0  0
 14 15  1  0  0  0  0
 14 16  1  0  0  0  0
 15 16  1  0  0  0  0
 16 13  1  0  0  0  0
 18 17  1  6  0  0  0
 18 19  1  0  0  0  0
 19 30  1  0  0  0  0
 19 20  1  1  0  0  0
 21 20  1  0  0  0  0
 21 22  1  0  0  0  0
 22 23  1  1  0  0  0
 22 24  1  0  0  0  0
 24 27  1  6  0  0  0
 24 26  1  0  0  0  0
 25 26  1  0  0  0  0
 27 29  1  0  0  0  0
 28 29  1  0  0  0  0
 30 31  1  0  0  0  0
 31 32  1  0  0  0  0
M  END
>  <MODEL>
3

>  <REMARK>
 VINA RESULT:      -6.3      3.348      9.766
  Name = 
  17 active torsions:
  status: ('A' for Active; 'I' for Inactive)
    1  A    between atoms: C_1  and  C_2
    2  A    between atoms: C_1  and  S_30
    3  A    between atoms: C_2  and  O_5
    4  A    between atoms: C_2  and  C_27
    5  A    between atoms: C_4  and  C_29
    6  A    between atoms: C_4  and  S_30
    7  A    between atoms: O_5  and  C_14
    8  A    between atoms: C_7  and  C_26
    9  A    between atoms: C_7  and  C_31
   10  A    between atoms: C_9  and  C_31
   11  A    between atoms: C_9  and  N_32
   12  A    between atoms: C_16  and  C_20
   13  A    between atoms: C_16  and  C_27
   14  A    between atoms: C_17  and  C_29
   15  A    between atoms: C_18  and  C_25
   16  A    between atoms: C_18  and  C_29
   17  A    between atoms: C_28  and  N_32
                            x       y       z     vdW  Elec       q    Type
                         _______ _______ _______ _____ _____    ______ ____

>  <TORSDO>
F 17

$$$$
=
 OpenBabel11062408353D

 32 33  0  0  1  0  0  0  0  0999 V2000
  161.9180  207.1850  151.7390 C   0  0  0  0  0  0  0  0  0  0  0  0
  162.9690  206.5590  151.7140 O   0  0  0  0  0  0  0  0  0  0  0  0
  160.4000  207.7740  155.1930 C   0  0  0  0  0  0  0  0  0  0  0  0
  159.9370  207.1790  156.1510 O   0  0  0  0  0  0  0  0  0  0  0  0
  160.4940  209.0260  152.6100 C   0  0  0  0  0  2  0  0  0  0  0  0
  160.4490  209.2740  155.2010 C   0  0  0  0  0  2  0  0  0  0  0  0
  161.5110  207.9400  152.9630 C   0  0  1  0  0  3  0  0  0  0  0  0
  160.9500  207.0000  154.0290 C   0  0  0  0  0  2  0  0  0  0  0  0
  160.0720  209.8630  153.8310 C   0  0  1  0  0  3  0  0  0  0  0  0
  160.5150  211.3200  153.7050 C   0  0  0  0  0  2  0  0  0  0  0  0
  159.3450  212.2910  153.5590 C   0  0  0  0  0  2  0  0  0  0  0  0
  159.3920  213.0330  152.2330 C   0  0  0  0  0  2  0  0  0  0  0  0
  158.0560  213.1290  151.6700 N   0  0  0  0  0  2  0  0  0  0  0  0
  157.3350  213.4970  149.3930 C   0  0  0  0  0  2  0  0  0  0  0  0
  158.8420  213.3760  149.3960 C   0  0  0  0  0  2  0  0  0  0  0  0
  158.1380  214.0520  150.5540 C   0  0  0  0  0  3  0  0  0  0  0  0
  161.3900  208.1960  149.6650 O   0  0  0  0  0  1  0  0  0  0  0  0
  161.0060  207.1860  150.5510 C   0  0  1  0  0  3  0  0  0  0  0  0
  161.0080  205.8290  149.8390 C   0  0  2  0  0  3  0  0  0  0  0  0
  160.6440  205.9740  148.3630 C   0  0  0  0  0  2  0  0  0  0  0  0
  162.0980  206.4030  147.3510 S   0  0  0  0  0  0  0  0  0  0  0  0
  162.3870  204.6670  146.9010 C   0  0  2  0  0  3  0  0  0  0  0  0
  163.6150  204.5510  146.0080 C   0  0  0  0  0  1  0  0  0  0  0  0
  161.1320  204.0550  146.2740 C   0  0  1  0  0  3  0  0  0  0  0  0
  160.2010  205.6620  144.7550 O   0  0  0  0  0  1  0  0  0  0  0  0
  160.9450  204.4840  144.8190 C   0  0  0  0  0  2  0  0  0  0  0  0
  161.1640  202.5390  146.4040 C   0  0  0  0  0  2  0  0  0  0  0  0
  161.3600  200.8080  148.1610 C   0  0  0  0  0  1  0  0  0  0  0  0
  160.6930  202.1130  147.7810 C   0  0  0  0  0  2  0  0  0  0  0  0
  160.1220  204.9410  150.4610 O   0  0  0  0  0  0  0  0  0  0  0  0
  160.9040  203.8380  150.8130 C   0  0  0  0  0  2  0  0  0  0  0  0
  160.8930  203.6730  152.3180 C   0  0  0  0  0  1  0  0  0  0  0  0
  2  1  2  0  0  0  0
  3  6  1  0  0  0  0
  3  4  2  0  0  0  0
  5  7  1  0  0  0  0
  5  9  1  0  0  0  0
  7  1  1  6  0  0  0
  7  8  1  0  0  0  0
  8  3  1  0  0  0  0
  9 10  1  6  0  0  0
  9  6  1  0  0  0  0
 11 10  1  0  0  0  0
 12 11  1  0  0  0  0
 13 12  1  0  0  0  0
 14 15  1  0  0  0  0
 14 16  1  0  0  0  0
 15 16  1  0  0  0  0
 16 13  1  0  0  0  0
 18 17  1  6  0  0  0
 18  1  1  0  0  0  0
 19 20  1  6  0  0  0
 19 30  1  0  0  0  0
 19 18  1  0  0  0  0
 21 20  1  0  0  0  0
 22 23  1  6  0  0  0
 22 21  1  0  0  0  0
 24 26  1  6  0  0  0
 24 27  1  0  0  0  0
 24 22  1  0  0  0  0
 25 26  1  0  0  0  0
 27 29  1  0  0  0  0
 29 28  1  0  0  0  0
 30 31  1  0  0  0  0
 31 32  1  0  0  0  0
M  END
>  <MODEL>
4

>  <REMARK>
 VINA RESULT:      -6.3      1.599      2.149
  Name = 
  17 active torsions:
  status: ('A' for Active; 'I' for Inactive)
    1  A    between atoms: C_1  and  C_2
    2  A    between atoms: C_1  and  S_30
    3  A    between atoms: C_2  and  O_5
    4  A    between atoms: C_2  and  C_27
    5  A    between atoms: C_4  and  C_29
    6  A    between atoms: C_4  and  S_30
    7  A    between atoms: O_5  and  C_14
    8  A    between atoms: C_7  and  C_26
    9  A    between atoms: C_7  and  C_31
   10  A    between atoms: C_9  and  C_31
   11  A    between atoms: C_9  and  N_32
   12  A    between atoms: C_16  and  C_20
   13  A    between atoms: C_16  and  C_27
   14  A    between atoms: C_17  and  C_29
   15  A    between atoms: C_18  and  C_25
   16  A    between atoms: C_18  and  C_29
   17  A    between atoms: C_28  and  N_32
                            x       y       z     vdW  Elec       q    Type
                         _______ _______ _______ _____ _____    ______ ____

>  <TORSDO>
F 17

$$$$
=
 OpenBabel11062408353D

 32 33  0  0  1  0  0  0  0  0999 V2000
  161.8190  203.7110  147.2250 C   0  0  0  0  0  0  0  0  0  0  0  0
  161.3240  203.1390  146.2630 O   0  0  0  0  0  0  0  0  0  0  0  0
  160.4950  201.4360  149.9910 C   0  0  0  0  0  0  0  0  0  0  0  0
  159.8450  200.4190  150.1680 O   0  0  0  0  0  0  0  0  0  0  0  0
  161.0420  204.2170  149.5300 C   0  0  0  0  0  2  0  0  0  0  0  0
  161.0220  202.1970  151.1720 C   0  0  0  0  0  2  0  0  0  0  0  0
  161.6490  203.1620  148.6050 C   0  0  1  0  0  3  0  0  0  0  0  0
  160.7920  201.8970  148.5930 C   0  0  0  0  0  2  0  0  0  0  0  0
  160.8840  203.7160  150.9780 C   0  0  1  0  0  3  0  0  0  0  0  0
  161.7740  204.4910  151.9490 C   0  0  0  0  0  2  0  0  0  0  0  0
  161.0170  205.0090  153.1710 C   0  0  0  0  0  2  0  0  0  0  0  0
  161.5060  206.3860  153.5910 C   0  0  0  0  0  2  0  0  0  0  0  0
  160.4970  207.0440  154.4030 N   0  0  0  0  0  2  0  0  0  0  0  0
  159.9780  207.3040  156.7490 C   0  0  0  0  0  2  0  0  0  0  0  0
  160.6210  208.5830  156.2650 C   0  0  0  0  0  2  0  0  0  0  0  0
  161.0840  207.2500  155.7140 C   0  0  0  0  0  3  0  0  0  0  0  0
  163.5440  204.8170  146.0410 O   0  0  0  0  0  1  0  0  0  0  0  0
  162.5830  204.9860  147.0410 C   0  0  1  0  0  3  0  0  0  0  0  0
  161.6540  206.1530  146.6910 C   0  0  2  0  0  3  0  0  0  0  0  0
  161.3200  206.9880  147.9250 C   0  0  0  0  0  2  0  0  0  0  0  0
  162.7190  208.0490  148.4180 S   0  0  0  0  0  0  0  0  0  0  0  0
  162.1460  208.1260  150.1410 C   0  0  2  0  0  3  0  0  0  0  0  0
  160.7930  207.4410  150.2780 C   0  0  0  0  0  1  0  0  0  0  0  0
  162.1370  209.5720  150.6430 C   0  0  1  0  0  3  0  0  0  0  0  0
  161.5860  211.8220  150.0200 O   0  0  0  0  0  1  0  0  0  0  0  0
  161.9540  210.5770  149.5080 C   0  0  0  0  0  2  0  0  0  0  0  0
  161.0730  209.7500  151.7170 C   0  0  0  0  0  2  0  0  0  0  0  0
  160.8040  211.2770  153.6450 C   0  0  0  0  0  1  0  0  0  0  0  0
  161.6980  210.2320  153.0120 C   0  0  0  0  0  2  0  0  0  0  0  0
  160.4740  205.6890  146.0980 O   0  0  0  0  0  0  0  0  0  0  0  0
  160.4100  206.3390  144.8640 C   0  0  0  0  0  2  0  0  0  0  0  0
  161.1820  205.5400  143.8340 C   0  0  0  0  0  1  0  0  0  0  0  0
  2  1  2  0  0  0  0
  3  4  2  0  0  0  0
  3  6  1  0  0  0  0
  5  9  1  0  0  0  0
  7  1  1  6  0  0  0
  7  5  1  0  0  0  0
  8  7  1  0  0  0  0
  8  3  1  0  0  0  0
  9  6  1  0  0  0  0
  9 10  1  1  0  0  0
 10 11  1  0  0  0  0
 11 12  1  0  0  0  0
 12 13  1  0  0  0  0
 13 16  1  0  0  0  0
 15 14  1  0  0  0  0
 16 15  1  0  0  0  0
 16 14  1  0  0  0  0
 18 17  1  6  0  0  0
 18  1  1  0  0  0  0
 19 18  1  0  0  0  0
 19 20  1  1  0  0  0
 20 21  1  0  0  0  0
 21 22  1  0  0  0  0
 22 23  1  6  0  0  0
 22 24  1  0  0  0  0
 24 26  1  6  0  0  0
 24 27  1  0  0  0  0
 26 25  1  0  0  0  0
 27 29  1  0  0  0  0
 29 28  1  0  0  0  0
 30 19  1  0  0  0  0
 31 30  1  0  0  0  0
 32 31  1  0  0  0  0
M  END
>  <MODEL>
5

>  <REMARK>
 VINA RESULT:      -6.2      3.118      6.989
  Name = 
  17 active torsions:
  status: ('A' for Active; 'I' for Inactive)
    1  A    between atoms: C_1  and  C_2
    2  A    between atoms: C_1  and  S_30
    3  A    between atoms: C_2  and  O_5
    4  A    between atoms: C_2  and  C_27
    5  A    between atoms: C_4  and  C_29
    6  A    between atoms: C_4  and  S_30
    7  A    between atoms: O_5  and  C_14
    8  A    between atoms: C_7  and  C_26
    9  A    between atoms: C_7  and  C_31
   10  A    between atoms: C_9  and  C_31
   11  A    between atoms: C_9  and  N_32
   12  A    between atoms: C_16  and  C_20
   13  A    between atoms: C_16  and  C_27
   14  A    between atoms: C_17  and  C_29
   15  A    between atoms: C_18  and  C_25
   16  A    between atoms: C_18  and  C_29
   17  A    between atoms: C_28  and  N_32
                            x       y       z     vdW  Elec       q    Type
                         _______ _______ _______ _____ _____    ______ ____

>  <TORSDO>
F 17

$$$$
=
 OpenBabel11062408353D

 32 33  0  0  1  0  0  0  0  0999 V2000
  161.4420  206.4530  153.4480 C   0  0  0  0  0  0  0  0  0  0  0  0
  162.5590  206.2570  153.9070 O   0  0  0  0  0  0  0  0  0  0  0  0
  160.8700  203.4480  151.1630 C   0  0  0  0  0  0  0  0  0  0  0  0
  160.9740  202.2330  151.1320 O   0  0  0  0  0  0  0  0  0  0  0  0
  161.6480  206.2060  150.9840 C   0  0  0  0  0  2  0  0  0  0  0  0
  160.3740  204.1840  149.9520 C   0  0  0  0  0  2  0  0  0  0  0  0
  160.9660  205.6920  152.2520 C   0  0  1  0  0  3  0  0  0  0  0  0
  161.2040  204.1930  152.4240 C   0  0  0  0  0  2  0  0  0  0  0  0
  161.1620  205.4830  149.7150 C   0  0  1  0  0  3  0  0  0  0  0  0
  160.4190  206.4270  148.7710 C   0  0  0  0  0  2  0  0  0  0  0  0
  161.3460  207.1580  147.8010 C   0  0  0  0  0  2  0  0  0  0  0  0
  162.3410  206.2090  147.1530 C   0  0  0  0  0  2  0  0  0  0  0  0
  161.9110  205.8850  145.8040 N   0  0  0  0  0  2  0  0  0  0  0  0
  161.0990  203.7210  145.0940 C   0  0  0  0  0  2  0  0  0  0  0  0
  161.5800  203.5980  146.5220 C   0  0  0  0  0  2  0  0  0  0  0  0
  162.3080  204.5110  145.5570 C   0  0  0  0  0  3  0  0  0  0  0  0
  160.2480  207.1190  155.3800 O   0  0  0  0  0  1  0  0  0  0  0  0
  160.5380  207.4780  154.0610 C   0  0  1  0  0  3  0  0  0  0  0  0
  161.1620  208.8770  154.0180 C   0  0  2  0  0  3  0  0  0  0  0  0
  160.7430  209.7100  155.2280 C   0  0  0  0  0  2  0  0  0  0  0  0
  159.0530  210.3680  155.0390 S   0  0  0  0  0  0  0  0  0  0  0  0
  159.6590  212.0690  154.8440 C   0  0  2  0  0  3  0  0  0  0  0  0
  160.1830  212.5980  156.1730 C   0  0  0  0  0  1  0  0  0  0  0  0
  158.5780  212.9610  154.2300 C   0  0  1  0  0  3  0  0  0  0  0  0
  159.7710  212.6590  152.1700 O   0  0  0  0  0  1  0  0  0  0  0  0
  159.0230  213.5790  152.9050 C   0  0  0  0  0  2  0  0  0  0  0  0
  157.2800  212.1810  154.0680 C   0  0  0  0  0  2  0  0  0  0  0  0
  155.4570  213.8490  153.9540 C   0  0  0  0  0  1  0  0  0  0  0  0
  156.1600  212.8460  154.8430 C   0  0  0  0  0  2  0  0  0  0  0  0
  160.8100  209.5420  152.8380 O   0  0  0  0  0  0  0  0  0  0  0  0
  162.0190  209.9840  152.2980 C   0  0  0  0  0  2  0  0  0  0  0  0
  161.9910  209.8110  150.7930 C   0  0  0  0  0  1  0  0  0  0  0  0
  1  2  2  0  0  0  0
  1 18  1  0  0  0  0
  3  8  1  0  0  0  0
  4  3  2  0  0  0  0
  5  7  1  0  0  0  0
  6  3  1  0  0  0  0
  7  8  1  0  0  0  0
  7  1  1  1  0  0  0
  9 10  1  1  0  0  0
  9  6  1  0  0  0  0
  9  5  1  0  0  0  0
 11 10  1  0  0  0  0
 12 11  1  0  0  0  0
 13 12  1  0  0  0  0
 14 16  1  0  0  0  0
 14 15  1  0  0  0  0
 16 13  1  0  0  0  0
 16 15  1  0  0  0  0
 18 17  1  1  0  0  0
 19 18  1  0  0  0  0
 19 20  1  1  0  0  0
 21 20  1  0  0  0  0
 22 21  1  0  0  0  0
 22 23  1  1  0  0  0
 24 26  1  6  0  0  0
 24 22  1  0  0  0  0
 25 26  1  0  0  0  0
 27 24  1  0  0  0  0
 27 29  1  0  0  0  0
 28 29  1  0  0  0  0
 30 19  1  0  0  0  0
 31 30  1  0  0  0  0
 32 31  1  0  0  0  0
M  END
>  <MODEL>
6

>  <REMARK>
 VINA RESULT:      -6.2      3.284      9.320
  Name = 
  17 active torsions:
  status: ('A' for Active; 'I' for Inactive)
    1  A    between atoms: C_1  and  C_2
    2  A    between atoms: C_1  and  S_30
    3  A    between atoms: C_2  and  O_5
    4  A    between atoms: C_2  and  C_27
    5  A    between atoms: C_4  and  C_29
    6  A    between atoms: C_4  and  S_30
    7  A    between atoms: O_5  and  C_14
    8  A    between atoms: C_7  and  C_26
    9  A    between atoms: C_7  and  C_31
   10  A    between atoms: C_9  and  C_31
   11  A    between atoms: C_9  and  N_32
   12  A    between atoms: C_16  and  C_20
   13  A    between atoms: C_16  and  C_27
   14  A    between atoms: C_17  and  C_29
   15  A    between atoms: C_18  and  C_25
   16  A    between atoms: C_18  and  C_29
   17  A    between atoms: C_28  and  N_32
                            x       y       z     vdW  Elec       q    Type
                         _______ _______ _______ _____ _____    ______ ____

>  <TORSDO>
F 17

$$$$
=
 OpenBabel11062408353D

 32 33  0  0  1  0  0  0  0  0999 V2000
  160.7680  207.7180  154.5490 C   0  0  0  0  0  0  0  0  0  0  0  0
  160.0600  206.8680  155.0710 O   0  0  0  0  0  0  0  0  0  0  0  0
  161.8920  210.9170  156.3030 C   0  0  0  0  0  0  0  0  0  0  0  0
  162.8470  211.4110  156.8790 O   0  0  0  0  0  0  0  0  0  0  0  0
  159.5080  209.3630  155.9210 C   0  0  0  0  0  2  0  0  0  0  0  0
  160.6210  211.7030  156.1620 C   0  0  0  0  0  2  0  0  0  0  0  0
  160.7130  209.1400  155.0060 C   0  0  1  0  0  3  0  0  0  0  0  0
  162.0080  209.5420  155.7100 C   0  0  0  0  0  2  0  0  0  0  0  0
  159.3800  210.8240  156.3880 C   0  0  1  0  0  3  0  0  0  0  0  0
  158.1140  211.4870  155.8460 C   0  0  0  0  0  2  0  0  0  0  0  0
  158.2740  212.9900  155.6220 C   0  0  0  0  0  2  0  0  0  0  0  0
  157.4020  213.4830  154.4800 C   0  0  0  0  0  2  0  0  0  0  0  0
  157.7920  212.8320  153.2410 N   0  0  0  0  0  2  0  0  0  0  0  0
  159.4190  213.0490  151.4660 C   0  0  0  0  0  2  0  0  0  0  0  0
  159.9740  212.0960  152.5000 C   0  0  0  0  0  2  0  0  0  0  0  0
  159.1380  213.2810  152.9380 C   0  0  0  0  0  3  0  0  0  0  0  0
  162.0880  206.0230  153.5560 O   0  0  0  0  0  1  0  0  0  0  0  0
  161.6870  207.3540  153.4230 C   0  0  1  0  0  3  0  0  0  0  0  0
  161.0220  207.5730  152.0600 C   0  0  2  0  0  3  0  0  0  0  0  0
  161.6900  206.7330  150.9740 C   0  0  0  0  0  2  0  0  0  0  0  0
  160.5670  205.4470  150.3320 S   0  0  0  0  0  0  0  0  0  0  0  0
  161.3130  205.5200  148.6770 C   0  0  2  0  0  3  0  0  0  0  0  0
  160.6820  206.6420  147.8630 C   0  0  0  0  0  1  0  0  0  0  0  0
  161.2270  204.1580  147.9850 C   0  0  1  0  0  3  0  0  0  0  0  0
  161.6140  203.7150  145.6600 O   0  0  0  0  0  1  0  0  0  0  0  0
  162.2530  204.0150  146.8620 C   0  0  0  0  0  2  0  0  0  0  0  0
  161.3650  203.0380  149.0070 C   0  0  0  0  0  2  0  0  0  0  0  0
  161.2680  200.6840  148.2540 C   0  0  0  0  0  1  0  0  0  0  0  0
  160.4430  201.8850  148.6620 C   0  0  0  0  0  2  0  0  0  0  0  0
  161.0570  208.9260  151.7020 O   0  0  0  0  0  0  0  0  0  0  0  0
  162.1560  209.0460  150.8490 C   0  0  0  0  0  2  0  0  0  0  0  0
  162.0360  210.3270  150.0510 C   0  0  0  0  0  1  0  0  0  0  0  0
  1  2  2  0  0  0  0
  3  4  2  0  0  0  0
  5  9  1  0  0  0  0
  6  3  1  0  0  0  0
  6  9  1  0  0  0  0
  7  1  1  1  0  0  0
  7  8  1  0  0  0  0
  7  5  1  0  0  0  0
  8  3  1  0  0  0  0
  9 10  1  6  0  0  0
 11 10  1  0  0  0  0
 12 11  1  0  0  0  0
 13 12  1  0  0  0  0
 14 15  1  0  0  0  0
 14 16  1  0  0  0  0
 15 16  1  0  0  0  0
 16 13  1  0  0  0  0
 18 17  1  1  0  0  0
 18  1  1  0  0  0  0
 19 20  1  6  0  0  0
 19 18  1  0  0  0  0
 21 20  1  0  0  0  0
 22 23  1  6  0  0  0
 22 21  1  0  0  0  0
 24 26  1  6  0  0  0
 24 22  1  0  0  0  0
 24 27  1  0  0  0  0
 25 26  1  0  0  0  0
 28 29  1  0  0  0  0
 29 27  1  0  0  0  0
 30 19  1  0  0  0  0
 31 30  1  0  0  0  0
 32 31  1  0  0  0  0
M  END
>  <MODEL>
7

>  <REMARK>
 VINA RESULT:      -5.9      2.007      3.659
  Name = 
  17 active torsions:
  status: ('A' for Active; 'I' for Inactive)
    1  A    between atoms: C_1  and  C_2
    2  A    between atoms: C_1  and  S_30
    3  A    between atoms: C_2  and  O_5
    4  A    between atoms: C_2  and  C_27
    5  A    between atoms: C_4  and  C_29
    6  A    between atoms: C_4  and  S_30
    7  A    between atoms: O_5  and  C_14
    8  A    between atoms: C_7  and  C_26
    9  A    between atoms: C_7  and  C_31
   10  A    between atoms: C_9  and  C_31
   11  A    between atoms: C_9  and  N_32
   12  A    between atoms: C_16  and  C_20
   13  A    between atoms: C_16  and  C_27
   14  A    between atoms: C_17  and  C_29
   15  A    between atoms: C_18  and  C_25
   16  A    between atoms: C_18  and  C_29
   17  A    between atoms: C_28  and  N_32
                            x       y       z     vdW  Elec       q    Type
                         _______ _______ _______ _____ _____    ______ ____

>  <TORSDO>
F 17

$$$$
=
 OpenBabel11062408353D

 32 33  0  0  1  0  0  0  0  0999 V2000
  161.0780  209.4790  153.4140 C   0  0  0  0  0  0  0  0  0  0  0  0
  159.9710  209.9990  153.3970 O   0  0  0  0  0  0  0  0  0  0  0  0
  161.9730  208.9780  149.7360 C   0  0  0  0  0  0  0  0  0  0  0  0
  162.0300  209.5730  148.6720 O   0  0  0  0  0  0  0  0  0  0  0  0
  160.8300  207.5070  151.9210 C   0  0  0  0  0  2  0  0  0  0  0  0
  162.3280  207.5210  149.7930 C   0  0  0  0  0  2  0  0  0  0  0  0
  161.6130  208.7910  152.1990 C   0  0  1  0  0  3  0  0  0  0  0  0
  161.5820  209.7160  150.9840 C   0  0  0  0  0  2  0  0  0  0  0  0
  161.3680  206.7360  150.7020 C   0  0  1  0  0  3  0  0  0  0  0  0
  161.9510  205.3800  151.0970 C   0  0  0  0  0  2  0  0  0  0  0  0
  161.3380  204.8150  152.3780 C   0  0  0  0  0  2  0  0  0  0  0  0
  160.7250  203.4430  152.1500 C   0  0  0  0  0  2  0  0  0  0  0  0
  161.4470  202.7450  151.1000 N   0  0  0  0  0  2  0  0  0  0  0  0
  161.0780  201.1520  149.3200 C   0  0  0  0  0  2  0  0  0  0  0  0
  160.8820  202.5410  148.7560 C   0  0  0  0  0  2  0  0  0  0  0  0
  160.4510  202.2350  150.1760 C   0  0  0  0  0  3  0  0  0  0  0  0
  162.5690  210.7270  154.7630 O   0  0  0  0  0  1  0  0  0  0  0  0
  161.9090  209.5000  154.6590 C   0  0  1  0  0  3  0  0  0  0  0  0
  161.0580  209.2490  155.9090 C   0  0  2  0  0  3  0  0  0  0  0  0
  160.8670  210.5300  156.7180 C   0  0  0  0  0  2  0  0  0  0  0  0
  159.1220  211.0570  156.7420 S   0  0  0  0  0  0  0  0  0  0  0  0
  159.4830  212.5450  155.7630 C   0  0  2  0  0  3  0  0  0  0  0  0
  160.0750  213.6300  156.6520 C   0  0  0  0  0  1  0  0  0  0  0  0
  158.2380  213.0080  155.0040 C   0  0  1  0  0  3  0  0  0  0  0  0
  158.4410  213.0760  152.6140 O   0  0  0  0  0  1  0  0  0  0  0  0
  158.5890  213.8400  153.7720 C   0  0  0  0  0  2  0  0  0  0  0  0
  157.3710  211.8120  154.6350 C   0  0  0  0  0  2  0  0  0  0  0  0
  155.7610  212.9720  156.1120 C   0  0  0  0  0  1  0  0  0  0  0  0
  155.9060  212.1250  154.8660 C   0  0  0  0  0  2  0  0  0  0  0  0
  161.6360  208.2600  156.7130 O   0  0  0  0  0  0  0  0  0  0  0  0
  160.5570  207.5480  157.2410 C   0  0  0  0  0  2  0  0  0  0  0  0
  159.6860  207.0430  156.1100 C   0  0  0  0  0  1  0  0  0  0  0  0
  1 18  1  0  0  0  0
  2  1  2  0  0  0  0
  3  6  1  0  0  0  0
  3  8  1  0  0  0  0
  4  3  2  0  0  0  0
  5  7  1  0  0  0  0
  6  9  1  0  0  0  0
  7  1  1  1  0  0  0
  8  7  1  0  0  0  0
  9 10  1  1  0  0  0
  9  5  1  0  0  0  0
 10 11  1  0  0  0  0
 12 11  1  0  0  0  0
 13 12  1  0  0  0  0
 14 16  1  0  0  0  0
 15 14  1  0  0  0  0
 15 16  1  0  0  0  0
 16 13  1  0  0  0  0
 18 17  1  1  0  0  0
 18 19  1  0  0  0  0
 19 30  1  0  0  0  0
 19 20  1  1  0  0  0
 20 21  1  0  0  0  0
 22 23  1  1  0  0  0
 22 21  1  0  0  0  0
 24 26  1  6  0  0  0
 24 22  1  0  0  0  0
 25 26  1  0  0  0  0
 27 29  1  0  0  0  0
 27 24  1  0  0  0  0
 29 28  1  0  0  0  0
 30 31  1  0  0  0  0
 32 31  1  0  0  0  0
M  END
>  <MODEL>
8

>  <REMARK>
 VINA RESULT:      -5.9      3.859      9.568
  Name = 
  17 active torsions:
  status: ('A' for Active; 'I' for Inactive)
    1  A    between atoms: C_1  and  C_2
    2  A    between atoms: C_1  and  S_30
    3  A    between atoms: C_2  and  O_5
    4  A    between atoms: C_2  and  C_27
    5  A    between atoms: C_4  and  C_29
    6  A    between atoms: C_4  and  S_30
    7  A    between atoms: O_5  and  C_14
    8  A    between atoms: C_7  and  C_26
    9  A    between atoms: C_7  and  C_31
   10  A    between atoms: C_9  and  C_31
   11  A    between atoms: C_9  and  N_32
   12  A    between atoms: C_16  and  C_20
   13  A    between atoms: C_16  and  C_27
   14  A    between atoms: C_17  and  C_29
   15  A    between atoms: C_18  and  C_25
   16  A    between atoms: C_18  and  C_29
   17  A    between atoms: C_28  and  N_32
                            x       y       z     vdW  Elec       q    Type
                         _______ _______ _______ _____ _____    ______ ____

>  <TORSDO>
F 17

$$$$
=
 OpenBabel11062408353D

 32 33  0  0  1  0  0  0  0  0999 V2000
  161.4770  210.4140  153.1810 C   0  0  0  0  0  0  0  0  0  0  0  0
  162.4020  210.3510  153.9790 O   0  0  0  0  0  0  0  0  0  0  0  0
  158.0710  211.6890  154.3440 C   0  0  0  0  0  0  0  0  0  0  0  0
  157.1100  211.3740  155.0270 O   0  0  0  0  0  0  0  0  0  0  0  0
  159.7870  211.8410  152.0470 C   0  0  0  0  0  2  0  0  0  0  0  0
  158.0690  213.0040  153.6190 C   0  0  0  0  0  2  0  0  0  0  0  0
  160.3570  211.3830  153.3890 C   0  0  1  0  0  3  0  0  0  0  0  0
  159.2600  210.7760  154.2630 C   0  0  0  0  0  2  0  0  0  0  0  0
  158.6560  212.8730  152.2040 C   0  0  1  0  0  3  0  0  0  0  0  0
  159.0430  214.2350  151.6280 C   0  0  0  0  0  2  0  0  0  0  0  0
  159.3520  214.1870  150.1330 C   0  0  0  0  0  2  0  0  0  0  0  0
  158.1660  213.6790  149.3300 C   0  0  0  0  0  2  0  0  0  0  0  0
  158.4960  213.6600  147.9150 N   0  0  0  0  0  2  0  0  0  0  0  0
  157.9040  212.5770  145.8370 C   0  0  0  0  0  2  0  0  0  0  0  0
  156.9020  213.6790  146.0960 C   0  0  0  0  0  2  0  0  0  0  0  0
  157.4640  212.8820  147.2550 C   0  0  0  0  0  3  0  0  0  0  0  0
  162.4070  209.8980  151.0670 O   0  0  0  0  0  1  0  0  0  0  0  0
  161.4360  209.5060  151.9910 C   0  0  1  0  0  3  0  0  0  0  0  0
  161.6490  208.0420  152.3930 C   0  0  2  0  0  3  0  0  0  0  0  0
  162.1770  207.2150  151.2220 C   0  0  0  0  0  2  0  0  0  0  0  0
  160.8290  206.3570  150.3430 S   0  0  0  0  0  0  0  0  0  0  0  0
  161.6590  206.5480  148.7380 C   0  0  2  0  0  3  0  0  0  0  0  0
  161.5820  207.9950  148.2730 C   0  0  0  0  0  1  0  0  0  0  0  0
  161.0920  205.5600  147.7160 C   0  0  1  0  0  3  0  0  0  0  0  0
  161.8640  205.7850  145.4560 O   0  0  0  0  0  1  0  0  0  0  0  0
  160.8760  206.2040  146.3470 C   0  0  0  0  0  2  0  0  0  0  0  0
  161.9870  204.3330  147.6150 C   0  0  0  0  0  2  0  0  0  0  0  0
  160.8370  202.8080  149.1880 C   0  0  0  0  0  1  0  0  0  0  0  0
  161.1660  203.0630  147.7330 C   0  0  0  0  0  2  0  0  0  0  0  0
  160.4600  207.4810  152.8730 O   0  0  0  0  0  0  0  0  0  0  0  0
  160.8530  206.6380  153.9150 C   0  0  0  0  0  2  0  0  0  0  0  0
  160.8630  207.4150  155.2150 C   0  0  0  0  0  1  0  0  0  0  0  0
  1  2  2  0  0  0  0
  3  4  2  0  0  0  0
  5  9  1  0  0  0  0
  5  7  1  0  0  0  0
  6  3  1  0  0  0  0
  7  1  1  6  0  0  0
  7  8  1  0  0  0  0
  8  3  1  0  0  0  0
  9 10  1  1  0  0  0
  9  6  1  0  0  0  0
 11 10  1  0  0  0  0
 12 11  1  0  0  0  0
 13 12  1  0  0  0  0
 14 15  1  0  0  0  0
 14 16  1  0  0  0  0
 15 16  1  0  0  0  0
 16 13  1  0  0  0  0
 18 17  1  6  0  0  0
 18 19  1  0  0  0  0
 18  1  1  0  0  0  0
 19 20  1  6  0  0  0
 19 30  1  0  0  0  0
 21 20  1  0  0  0  0
 22 23  1  6  0  0  0
 22 21  1  0  0  0  0
 24 26  1  6  0  0  0
 24 22  1  0  0  0  0
 25 26  1  0  0  0  0
 27 24  1  0  0  0  0
 27 29  1  0  0  0  0
 29 28  1  0  0  0  0
 30 31  1  0  0  0  0
 31 32  1  0  0  0  0
M  END
>  <MODEL>
9

>  <REMARK>
 VINA RESULT:      -5.8      3.289      4.660
  Name = 
  17 active torsions:
  status: ('A' for Active; 'I' for Inactive)
    1  A    between atoms: C_1  and  C_2
    2  A    between atoms: C_1  and  S_30
    3  A    between atoms: C_2  and  O_5
    4  A    between atoms: C_2  and  C_27
    5  A    between atoms: C_4  and  C_29
    6  A    between atoms: C_4  and  S_30
    7  A    between atoms: O_5  and  C_14
    8  A    between atoms: C_7  and  C_26
    9  A    between atoms: C_7  and  C_31
   10  A    between atoms: C_9  and  C_31
   11  A    between atoms: C_9  and  N_32
   12  A    between atoms: C_16  and  C_20
   13  A    between atoms: C_16  and  C_27
   14  A    between atoms: C_17  and  C_29
   15  A    between atoms: C_18  and  C_25
   16  A    between atoms: C_18  and  C_29
   17  A    between atoms: C_28  and  N_32
                            x       y       z     vdW  Elec       q    Type
                         _______ _______ _______ _____ _____    ______ ____

>  <TORSDO>
F 17

$$$$
