=
 OpenBabel11052423053D

 27 31  0  0  1  0  0  0  0  0999 V2000
  162.3880  209.1240  149.5860 C   0  0  0  0  0  2  0  0  0  0  0  0
  161.2850  207.8030  151.3870 C   0  0  0  0  0  0  0  0  0  0  0  0
  160.5720  210.1720  151.9800 N   0  0  0  0  0  0  0  0  0  0  0  0
  161.0140  207.0630  155.4350 N   0  0  0  0  0  0  0  0  0  0  0  0
  160.3660  208.5600  157.2610 C   0  0  0  0  0  1  0  0  0  0  0  0
  161.6100  206.5030  151.8590 C   0  0  0  0  0  3  0  0  0  0  0  0
  160.4990  209.1140  154.8250 C   0  0  0  0  0  0  0  0  0  0  0  0
  161.1610  212.6140  149.6950 C   0  0  0  0  0  0  0  0  0  0  0  0
  160.0830  210.5430  154.9390 C   0  0  0  0  0  1  0  0  0  0  0  0
  161.0430  213.9300  149.1640 N   0  0  0  0  0  1  0  0  0  0  0  0
  160.8320  208.4310  153.6720 C   0  0  0  0  0  0  0  0  0  0  0  0
  161.3260  208.0910  149.9050 C   0  0  2  0  0  3  0  0  0  0  0  0
  160.6190  208.2550  155.8630 N   0  0  0  0  0  0  0  0  0  0  0  0
  161.1460  207.1660  154.0990 C   0  0  0  0  0  0  0  0  0  0  0  0
  161.8190  210.4680  149.8550 C   0  0  0  0  0  0  0  0  0  0  0  0
  160.9060  208.8130  152.3260 C   0  0  0  0  0  0  0  0  0  0  0  0
  160.5550  212.2360  150.7740 N   0  0  0  0  0  0  0  0  0  0  0  0
  161.5460  206.1720  153.2190 C   0  0  0  0  0  3  0  0  0  0  0  0
  162.6960  211.6210  147.8870 N   0  0  0  0  0  1  0  0  0  0  0  0
  161.9560  211.5440  149.1020 C   0  0  0  0  0  0  0  0  0  0  0  0
  160.9310  210.8710  150.9430 C   0  0  0  0  0  0  0  0  0  0  0  0
  161.6360  204.6740  147.3030 C   0  0  0  0  0  3  0  0  0  0  0  0
  161.4340  206.8830  149.0160 C   0  0  0  0  0  0  0  0  0  0  0  0
  160.7310  205.7010  149.3010 C   0  0  0  0  0  3  0  0  0  0  0  0
  160.8350  204.5990  148.4460 C   0  0  0  0  0  3  0  0  0  0  0  0
  162.3330  205.8520  147.0130 C   0  0  0  0  0  3  0  0  0  0  0  0
  162.2290  206.9540  147.8670 C   0  0  0  0  0  3  0  0  0  0  0  0
  1 15  1  0  0  0  0
  1 12  1  0  0  0  0
  2  6  1  0  0  0  0
  2 16  2  0  0  0  0
  3 16  1  0  0  0  0
  4 13  1  0  0  0  0
  6 18  2  0  0  0  0
  7  9  1  0  0  0  0
  7 13  1  0  0  0  0
  8 17  2  0  0  0  0
 10  8  1  0  0  0  0
 11 14  1  0  0  0  0
 11  7  2  0  0  0  0
 12 23  1  6  0  0  0
 12  2  1  0  0  0  0
 13  5  1  0  0  0  0
 14  4  2  0  0  0  0
 15 21  1  0  0  0  0
 16 11  1  0  0  0  0
 17 21  1  0  0  0  0
 18 14  1  0  0  0  0
 19 20  1  0  0  0  0
 20  8  1  0  0  0  0
 20 15  2  0  0  0  0
 21  3  2  0  0  0  0
 22 25  1  0  0  0  0
 23 24  1  0  0  0  0
 25 24  2  0  0  0  0
 26 22  2  0  0  0  0
 26 27  1  0  0  0  0
 27 23  2  0  0  0  0
M  END
>  <MODEL>
1

>  <REMARK>
 VINA RESULT:      -8.2      0.000      0.000
  Name = 
  1 active torsions:
  status: ('A' for Active; 'I' for Inactive)
    1  A    between atoms: C_9  and  C_15
                            x       y       z     vdW  Elec       q    Type
                         _______ _______ _______ _____ _____    ______ ____

>  <TORSDO>
F 1

$$$$
=
 OpenBabel11052423053D

 27 31  0  0  1  0  0  0  0  0999 V2000
  162.4460  209.8940  151.8640 C   0  0  0  0  0  2  0  0  0  0  0  0
  161.6120  208.5870  149.9150 C   0  0  0  0  0  0  0  0  0  0  0  0
  160.7410  207.2070  151.8660 N   0  0  0  0  0  0  0  0  0  0  0  0
  161.7320  205.0080  147.8690 N   0  0  0  0  0  0  0  0  0  0  0  0
  161.1010  202.7600  148.6070 C   0  0  0  0  0  1  0  0  0  0  0  0
  162.0880  208.5900  148.5760 C   0  0  0  0  0  3  0  0  0  0  0  0
  160.9890  204.8770  149.9370 C   0  0  0  0  0  0  0  0  0  0  0  0
  160.9260  208.5740  154.9700 C   0  0  0  0  0  0  0  0  0  0  0  0
  160.4590  204.2740  151.1960 C   0  0  0  0  0  1  0  0  0  0  0  0
  160.6510  208.6310  156.3650 N   0  0  0  0  0  1  0  0  0  0  0  0
  161.2890  206.2050  149.7080 C   0  0  0  0  0  0  0  0  0  0  0  0
  161.5090  209.8890  150.6730 C   0  0  2  0  0  3  0  0  0  0  0  0
  161.2680  204.1900  148.8050 N   0  0  0  0  0  0  0  0  0  0  0  0
  161.7470  206.2380  148.4160 C   0  0  0  0  0  0  0  0  0  0  0  0
  161.7830  209.1680  152.9760 C   0  0  0  0  0  0  0  0  0  0  0  0
  161.2210  207.3490  150.5140 C   0  0  0  0  0  0  0  0  0  0  0  0
  160.4450  207.6560  154.1960 N   0  0  0  0  0  0  0  0  0  0  0  0
  162.1630  207.4160  147.8140 C   0  0  0  0  0  3  0  0  0  0  0  0
  162.3950  210.6780  154.7970 N   0  0  0  0  0  1  0  0  0  0  0  0
  161.7640  209.5250  154.2460 C   0  0  0  0  0  0  0  0  0  0  0  0
  160.9520  207.9680  152.9000 C   0  0  0  0  0  0  0  0  0  0  0  0
  161.8490  213.4580  148.2880 C   0  0  0  0  0  3  0  0  0  0  0  0
  161.6520  211.1330  149.8410 C   0  0  0  0  0  0  0  0  0  0  0  0
  162.6330  211.2340  148.8400 C   0  0  0  0  0  3  0  0  0  0  0  0
  162.7310  212.3960  148.0680 C   0  0  0  0  0  3  0  0  0  0  0  0
  160.8680  213.3580  149.2790 C   0  0  0  0  0  3  0  0  0  0  0  0
  160.7690  212.1970  150.0520 C   0  0  0  0  0  3  0  0  0  0  0  0
  1 15  1  0  0  0  0
  2 16  2  0  0  0  0
  2 12  1  0  0  0  0
  3 21  2  0  0  0  0
  4 14  2  0  0  0  0
  4 13  1  0  0  0  0
  5 13  1  0  0  0  0
  6  2  1  0  0  0  0
  7  9  1  0  0  0  0
  8 10  1  0  0  0  0
 11  7  2  0  0  0  0
 11 16  1  0  0  0  0
 12 23  1  6  0  0  0
 12  1  1  0  0  0  0
 13  7  1  0  0  0  0
 14 11  1  0  0  0  0
 15 20  2  0  0  0  0
 16  3  1  0  0  0  0
 17  8  2  0  0  0  0
 18 14  1  0  0  0  0
 18  6  2  0  0  0  0
 20 19  1  0  0  0  0
 20  8  1  0  0  0  0
 21 15  1  0  0  0  0
 21 17  1  0  0  0  0
 22 26  1  0  0  0  0
 23 27  1  0  0  0  0
 24 23  2  0  0  0  0
 25 22  2  0  0  0  0
 25 24  1  0  0  0  0
 26 27  2  0  0  0  0
M  END
>  <MODEL>
2

>  <REMARK>
 VINA RESULT:      -7.7      2.380      6.132
  Name = 
  1 active torsions:
  status: ('A' for Active; 'I' for Inactive)
    1  A    between atoms: C_9  and  C_15
                            x       y       z     vdW  Elec       q    Type
                         _______ _______ _______ _____ _____    ______ ____

>  <TORSDO>
F 1

$$$$
=
 OpenBabel11052423053D

 27 31  0  0  1  0  0  0  0  0999 V2000
  160.5250  211.2930  151.8210 C   0  0  0  0  0  2  0  0  0  0  0  0
  161.3460  208.9580  152.0950 C   0  0  0  0  0  0  0  0  0  0  0  0
  161.9660  209.4380  149.6750 N   0  0  0  0  0  0  0  0  0  0  0  0
  161.0110  205.0300  150.8830 N   0  0  0  0  0  0  0  0  0  0  0  0
  161.3830  204.0350  148.6770 C   0  0  0  0  0  1  0  0  0  0  0  0
  160.9530  207.9860  153.0550 C   0  0  0  0  0  3  0  0  0  0  0  0
  161.6140  206.4450  149.3080 C   0  0  0  0  0  0  0  0  0  0  0  0
  161.7260  212.6480  148.5940 C   0  0  0  0  0  0  0  0  0  0  0  0
  162.0100  206.9500  147.9600 C   0  0  0  0  0  1  0  0  0  0  0  0
  161.9230  213.7060  147.6620 N   0  0  0  0  0  1  0  0  0  0  0  0
  161.4550  207.1840  150.4640 C   0  0  0  0  0  0  0  0  0  0  0  0
  161.5260  210.3960  152.5200 C   0  0  2  0  0  3  0  0  0  0  0  0
  161.3400  205.1540  149.6030 N   0  0  0  0  0  0  0  0  0  0  0  0
  161.0800  206.2660  151.4110 C   0  0  0  0  0  0  0  0  0  0  0  0
  161.0490  211.6030  150.4680 C   0  0  0  0  0  0  0  0  0  0  0  0
  161.5820  208.5500  150.7450 C   0  0  0  0  0  0  0  0  0  0  0  0
  162.1640  211.4470  148.3950 N   0  0  0  0  0  0  0  0  0  0  0  0
  160.8130  206.6320  152.7210 C   0  0  0  0  0  3  0  0  0  0  0  0
  160.4750  213.9780  150.4050 N   0  0  0  0  0  1  0  0  0  0  0  0
  161.0270  212.7790  149.8670 C   0  0  0  0  0  0  0  0  0  0  0  0
  161.7660  210.7180  149.5540 C   0  0  0  0  0  0  0  0  0  0  0  0
  161.5520  211.1260  156.7640 C   0  0  0  0  0  3  0  0  0  0  0  0
  161.5500  210.6310  154.0050 C   0  0  0  0  0  0  0  0  0  0  0  0
  162.7160  210.4240  154.7600 C   0  0  0  0  0  3  0  0  0  0  0  0
  162.7150  210.6690  156.1360 C   0  0  0  0  0  3  0  0  0  0  0  0
  160.3910  211.3390  156.0150 C   0  0  0  0  0  3  0  0  0  0  0  0
  160.3910  211.0940  154.6380 C   0  0  0  0  0  3  0  0  0  0  0  0
  1 12  1  0  0  0  0
  2 12  1  0  0  0  0
  2  6  1  0  0  0  0
  3 16  1  0  0  0  0
  4 14  2  0  0  0  0
  5 13  1  0  0  0  0
  7 13  1  0  0  0  0
  7 11  2  0  0  0  0
  8 20  1  0  0  0  0
  9  7  1  0  0  0  0
 10  8  1  0  0  0  0
 11 16  1  0  0  0  0
 11 14  1  0  0  0  0
 12 23  1  1  0  0  0
 13  4  1  0  0  0  0
 14 18  1  0  0  0  0
 15  1  1  0  0  0  0
 16  2  2  0  0  0  0
 17  8  2  0  0  0  0
 17 21  1  0  0  0  0
 18  6  2  0  0  0  0
 20 19  1  0  0  0  0
 20 15  2  0  0  0  0
 21  3  2  0  0  0  0
 21 15  1  0  0  0  0
 23 27  2  0  0  0  0
 23 24  1  0  0  0  0
 24 25  2  0  0  0  0
 25 22  1  0  0  0  0
 26 22  2  0  0  0  0
 27 26  1  0  0  0  0
M  END
>  <MODEL>
3

>  <REMARK>
 VINA RESULT:      -7.6      2.000      5.715
  Name = 
  1 active torsions:
  status: ('A' for Active; 'I' for Inactive)
    1  A    between atoms: C_9  and  C_15
                            x       y       z     vdW  Elec       q    Type
                         _______ _______ _______ _____ _____    ______ ____

>  <TORSDO>
F 1

$$$$
=
 OpenBabel11052423053D

 27 31  0  0  1  0  0  0  0  0999 V2000
  160.4560  209.0840  152.3740 C   0  0  0  0  0  2  0  0  0  0  0  0
  161.1450  206.6950  152.2460 C   0  0  0  0  0  0  0  0  0  0  0  0
  161.9640  207.5840  150.0080 N   0  0  0  0  0  0  0  0  0  0  0  0
  160.7180  203.0930  150.2830 N   0  0  0  0  0  0  0  0  0  0  0  0
  161.2060  202.5110  147.9550 C   0  0  0  0  0  1  0  0  0  0  0  0
  160.6360  205.5850  152.9740 C   0  0  0  0  0  3  0  0  0  0  0  0
  161.5020  204.7400  149.0510 C   0  0  0  0  0  0  0  0  0  0  0  0
  161.9560  210.9490  149.5510 C   0  0  0  0  0  0  0  0  0  0  0  0
  162.0200  205.4660  147.8530 C   0  0  0  0  0  1  0  0  0  0  0  0
  162.2710  212.1500  148.8550 N   0  0  0  0  0  1  0  0  0  0  0  0
  161.2920  205.2570  150.3150 C   0  0  0  0  0  0  0  0  0  0  0  0
  161.3590  208.0130  152.9500 C   0  0  2  0  0  3  0  0  0  0  0  0
  161.1460  203.4360  149.0740 N   0  0  0  0  0  0  0  0  0  0  0  0
  160.8050  204.2010  151.0420 C   0  0  0  0  0  0  0  0  0  0  0  0
  161.0940  209.6120  151.1420 C   0  0  0  0  0  0  0  0  0  0  0  0
  161.4620  206.5350  150.8610 C   0  0  0  0  0  0  0  0  0  0  0  0
  162.3520  209.7830  149.1530 N   0  0  0  0  0  0  0  0  0  0  0  0
  160.4580  204.3280  152.3780 C   0  0  0  0  0  3  0  0  0  0  0  0
  160.6380  211.9860  151.5000 N   0  0  0  0  0  1  0  0  0  0  0  0
  161.1710  210.8790  150.7780 C   0  0  0  0  0  0  0  0  0  0  0  0
  161.8350  208.8730  150.1230 C   0  0  0  0  0  0  0  0  0  0  0  0
  161.0730  207.8520  157.2440 C   0  0  0  0  0  3  0  0  0  0  0  0
  161.2840  207.9630  154.4510 C   0  0  0  0  0  0  0  0  0  0  0  0
  162.0010  208.8680  155.2510 C   0  0  0  0  0  3  0  0  0  0  0  0
  161.8960  208.8090  156.6440 C   0  0  0  0  0  3  0  0  0  0  0  0
  160.3530  206.9530  156.4510 C   0  0  0  0  0  3  0  0  0  0  0  0
  160.4570  207.0110  155.0570 C   0  0  0  0  0  3  0  0  0  0  0  0
  1 12  1  0  0  0  0
  2 12  1  0  0  0  0
  2  6  1  0  0  0  0
  3 21  2  0  0  0  0
  3 16  1  0  0  0  0
  4 14  2  0  0  0  0
  5 13  1  0  0  0  0
  7 13  1  0  0  0  0
  7 11  2  0  0  0  0
  8 20  1  0  0  0  0
  9  7  1  0  0  0  0
 10  8  1  0  0  0  0
 11 16  1  0  0  0  0
 11 14  1  0  0  0  0
 12 23  1  1  0  0  0
 13  4  1  0  0  0  0
 14 18  1  0  0  0  0
 15  1  1  0  0  0  0
 16  2  2  0  0  0  0
 17  8  2  0  0  0  0
 17 21  1  0  0  0  0
 18  6  2  0  0  0  0
 20 15  2  0  0  0  0
 20 19  1  0  0  0  0
 21 15  1  0  0  0  0
 23 27  2  0  0  0  0
 23 24  1  0  0  0  0
 24 25  2  0  0  0  0
 25 22  1  0  0  0  0
 26 22  2  0  0  0  0
 27 26  1  0  0  0  0
M  END
>  <MODEL>
4

>  <REMARK>
 VINA RESULT:      -7.3      2.378      5.875
  Name = 
  1 active torsions:
  status: ('A' for Active; 'I' for Inactive)
    1  A    between atoms: C_9  and  C_15
                            x       y       z     vdW  Elec       q    Type
                         _______ _______ _______ _____ _____    ______ ____

>  <TORSDO>
F 1

$$$$
=
 OpenBabel11052423053D

 27 31  0  0  1  0  0  0  0  0999 V2000
  162.4070  207.4170  150.5520 C   0  0  0  0  0  2  0  0  0  0  0  0
  161.0690  207.3930  152.6520 C   0  0  0  0  0  0  0  0  0  0  0  0
  160.8250  209.8160  151.9180 N   0  0  0  0  0  0  0  0  0  0  0  0
  160.6580  208.8600  156.4840 N   0  0  0  0  0  0  0  0  0  0  0  0
  160.3080  211.1590  157.2520 C   0  0  0  0  0  1  0  0  0  0  0  0
  161.1380  206.4770  153.7370 C   0  0  0  0  0  3  0  0  0  0  0  0
  160.5470  210.3730  154.8890 C   0  0  0  0  0  0  0  0  0  0  0  0
  161.8740  210.6290  148.7920 C   0  0  0  0  0  0  0  0  0  0  0  0
  160.4140  211.7090  154.2370 C   0  0  0  0  0  1  0  0  0  0  0  0
  162.0130  211.4920  147.6690 N   0  0  0  0  0  1  0  0  0  0  0  0
  160.7440  209.1550  154.2670 C   0  0  0  0  0  0  0  0  0  0  0  0
  161.1670  206.8790  151.2350 C   0  0  2  0  0  3  0  0  0  0  0  0
  160.4990  210.1510  156.2230 N   0  0  0  0  0  0  0  0  0  0  0  0
  160.8080  208.2490  155.2940 C   0  0  0  0  0  0  0  0  0  0  0  0
  162.1070  208.7840  150.0600 C   0  0  0  0  0  0  0  0  0  0  0  0
  160.8910  208.7850  152.9240 C   0  0  0  0  0  0  0  0  0  0  0  0
  161.2060  210.9550  149.8510 N   0  0  0  0  0  0  0  0  0  0  0  0
  161.0110  206.8970  155.0680 C   0  0  0  0  0  3  0  0  0  0  0  0
  163.1920  208.6190  147.8770 N   0  0  0  0  0  1  0  0  0  0  0  0
  162.4490  209.2910  148.8900 C   0  0  0  0  0  0  0  0  0  0  0  0
  161.3120  209.8230  150.7110 C   0  0  0  0  0  0  0  0  0  0  0  0
  160.7530  202.6210  150.7430 C   0  0  0  0  0  3  0  0  0  0  0  0
  161.0410  205.3890  151.0800 C   0  0  0  0  0  0  0  0  0  0  0  0
  161.1950  204.5230  152.1760 C   0  0  0  0  0  3  0  0  0  0  0  0
  161.0540  203.1430  152.0050 C   0  0  0  0  0  3  0  0  0  0  0  0
  160.5930  203.4800  149.6510 C   0  0  0  0  0  3  0  0  0  0  0  0
  160.7340  204.8610  149.8210 C   0  0  0  0  0  3  0  0  0  0  0  0
  1 12  1  0  0  0  0
  2 16  2  0  0  0  0
  2  6  1  0  0  0  0
  3 16  1  0  0  0  0
  6 18  2  0  0  0  0
  7 13  1  0  0  0  0
  8 20  1  0  0  0  0
  8 17  2  0  0  0  0
  9  7  1  0  0  0  0
 10  8  1  0  0  0  0
 11  7  2  0  0  0  0
 11 14  1  0  0  0  0
 12 23  1  1  0  0  0
 12  2  1  0  0  0  0
 13  4  1  0  0  0  0
 13  5  1  0  0  0  0
 14  4  2  0  0  0  0
 15  1  1  0  0  0  0
 15 21  1  0  0  0  0
 16 11  1  0  0  0  0
 17 21  1  0  0  0  0
 18 14  1  0  0  0  0
 19 20  1  0  0  0  0
 20 15  2  0  0  0  0
 21  3  2  0  0  0  0
 22 25  1  0  0  0  0
 23 24  1  0  0  0  0
 25 24  2  0  0  0  0
 26 27  1  0  0  0  0
 26 22  2  0  0  0  0
 27 23  2  0  0  0  0
M  END
>  <MODEL>
5

>  <REMARK>
 VINA RESULT:      -7.0      1.592      2.357
  Name = 
  1 active torsions:
  status: ('A' for Active; 'I' for Inactive)
    1  A    between atoms: C_9  and  C_15
                            x       y       z     vdW  Elec       q    Type
                         _______ _______ _______ _____ _____    ______ ____

>  <TORSDO>
F 1

$$$$
=
 OpenBabel11052423053D

 27 31  0  0  1  0  0  0  0  0999 V2000
  159.4420  212.1680  152.3360 C   0  0  0  0  0  2  0  0  0  0  0  0
  160.5220  210.2230  153.4540 C   0  0  0  0  0  0  0  0  0  0  0  0
  161.6210  210.1690  151.1610 N   0  0  0  0  0  0  0  0  0  0  0  0
  161.0920  206.1390  153.4580 N   0  0  0  0  0  0  0  0  0  0  0  0
  162.1290  204.7010  151.7680 C   0  0  0  0  0  1  0  0  0  0  0  0
  160.0650  209.4790  154.5750 C   0  0  0  0  0  3  0  0  0  0  0  0
  161.8300  207.1830  151.6650 C   0  0  0  0  0  0  0  0  0  0  0  0
  161.1570  212.8490  149.1270 C   0  0  0  0  0  0  0  0  0  0  0  0
  162.4540  207.3870  150.3250 C   0  0  0  0  0  1  0  0  0  0  0  0
  161.4060  213.6400  147.9700 N   0  0  0  0  0  1  0  0  0  0  0  0
  161.2880  208.1480  152.4910 C   0  0  0  0  0  0  0  0  0  0  0  0
  160.3730  211.7260  153.4460 C   0  0  2  0  0  3  0  0  0  0  0  0
  161.6940  205.9880  152.2850 N   0  0  0  0  0  0  0  0  0  0  0  0
  160.8430  207.4550  153.5870 C   0  0  0  0  0  0  0  0  0  0  0  0
  160.2210  212.2160  151.0730 C   0  0  0  0  0  0  0  0  0  0  0  0
  161.1340  209.5340  152.3600 C   0  0  0  0  0  0  0  0  0  0  0  0
  161.8090  211.7620  149.3880 N   0  0  0  0  0  0  0  0  0  0  0  0
  160.2180  208.0870  154.6510 C   0  0  0  0  0  3  0  0  0  0  0  0
  159.3210  214.3070  150.1840 N   0  0  0  0  0  1  0  0  0  0  0  0
  160.1620  213.1570  150.1490 C   0  0  0  0  0  0  0  0  0  0  0  0
  161.2620  211.2970  150.6210 C   0  0  0  0  0  0  0  0  0  0  0  0
  159.3370  213.4370  157.2600 C   0  0  0  0  0  3  0  0  0  0  0  0
  160.0050  212.3450  154.7660 C   0  0  0  0  0  0  0  0  0  0  0  0
  158.8980  213.2010  154.8900 C   0  0  0  0  0  3  0  0  0  0  0  0
  158.5680  213.7470  156.1340 C   0  0  0  0  0  3  0  0  0  0  0  0
  160.4360  212.5800  157.1420 C   0  0  0  0  0  3  0  0  0  0  0  0
  160.7670  212.0340  155.8970 C   0  0  0  0  0  3  0  0  0  0  0  0
  1 12  1  0  0  0  0
  2  6  1  0  0  0  0
  3 16  1  0  0  0  0
  4 14  2  0  0  0  0
  5 13  1  0  0  0  0
  6 18  2  0  0  0  0
  7 13  1  0  0  0  0
  7 11  2  0  0  0  0
  8 17  2  0  0  0  0
  8 20  1  0  0  0  0
  9  7  1  0  0  0  0
 10  8  1  0  0  0  0
 11 14  1  0  0  0  0
 12  2  1  0  0  0  0
 12 23  1  1  0  0  0
 13  4  1  0  0  0  0
 14 18  1  0  0  0  0
 15  1  1  0  0  0  0
 16 11  1  0  0  0  0
 16  2  2  0  0  0  0
 17 21  1  0  0  0  0
 20 19  1  0  0  0  0
 20 15  2  0  0  0  0
 21 15  1  0  0  0  0
 21  3  2  0  0  0  0
 23 24  2  0  0  0  0
 23 27  1  0  0  0  0
 24 25  1  0  0  0  0
 25 22  2  0  0  0  0
 26 22  1  0  0  0  0
 27 26  2  0  0  0  0
M  END
>  <MODEL>
6

>  <REMARK>
 VINA RESULT:      -5.9      2.012      6.057
  Name = 
  1 active torsions:
  status: ('A' for Active; 'I' for Inactive)
    1  A    between atoms: C_9  and  C_15
                            x       y       z     vdW  Elec       q    Type
                         _______ _______ _______ _____ _____    ______ ____

>  <TORSDO>
F 1

$$$$
=
 OpenBabel11052423053D

 27 31  0  0  1  0  0  0  0  0999 V2000
  158.5380  210.6010  153.9930 C   0  0  0  0  0  2  0  0  0  0  0  0
  160.6300  210.9200  152.6800 C   0  0  0  0  0  0  0  0  0  0  0  0
  159.2720  212.9540  151.9810 N   0  0  0  0  0  0  0  0  0  0  0  0
  162.3310  211.1820  148.9330 N   0  0  0  0  0  0  0  0  0  0  0  0
  161.9270  212.7990  147.1390 C   0  0  0  0  0  1  0  0  0  0  0  0
  161.6010  209.9510  152.3100 C   0  0  0  0  0  3  0  0  0  0  0  0
  160.8330  212.7290  149.3870 C   0  0  0  0  0  0  0  0  0  0  0  0
  156.4530  213.6490  153.7430 C   0  0  0  0  0  0  0  0  0  0  0  0
  159.9480  213.9160  149.1970 C   0  0  0  0  0  1  0  0  0  0  0  0
  155.3410  214.4530  154.1200 N   0  0  0  0  0  1  0  0  0  0  0  0
  160.9210  211.9230  150.5050 C   0  0  0  0  0  0  0  0  0  0  0  0
  160.0250  210.8800  154.0640 C   0  0  2  0  0  3  0  0  0  0  0  0
  161.6990  212.2500  148.4650 N   0  0  0  0  0  0  0  0  0  0  0  0
  161.8600  210.9790  150.1770 C   0  0  0  0  0  0  0  0  0  0  0  0
  157.8420  211.8790  153.7010 C   0  0  0  0  0  0  0  0  0  0  0  0
  160.2560  211.9290  151.7380 C   0  0  0  0  0  0  0  0  0  0  0  0
  157.3460  214.0390  152.8920 N   0  0  0  0  0  0  0  0  0  0  0  0
  162.2230  209.9690  151.0540 C   0  0  0  0  0  3  0  0  0  0  0  0
  155.9690  211.6210  155.2500 N   0  0  0  0  0  1  0  0  0  0  0  0
  156.7280  212.3130  154.2610 C   0  0  0  0  0  0  0  0  0  0  0  0
  158.2690  212.9550  152.8110 C   0  0  0  0  0  0  0  0  0  0  0  0
  161.9540  208.2610  156.8860 C   0  0  0  0  0  3  0  0  0  0  0  0
  160.7200  209.9770  155.0450 C   0  0  0  0  0  0  0  0  0  0  0  0
  161.7160  210.4630  155.9080 C   0  0  0  0  0  3  0  0  0  0  0  0
  162.3320  209.6050  156.8240 C   0  0  0  0  0  3  0  0  0  0  0  0
  160.9580  207.7740  156.0330 C   0  0  0  0  0  3  0  0  0  0  0  0
  160.3420  208.6320  155.1160 C   0  0  0  0  0  3  0  0  0  0  0  0
  1 12  1  0  0  0  0
  2 12  1  0  0  0  0
  3 21  2  0  0  0  0
  4 14  2  0  0  0  0
  5 13  1  0  0  0  0
  6  2  1  0  0  0  0
  7 11  2  0  0  0  0
  8 10  1  0  0  0  0
  8 20  1  0  0  0  0
  9  7  1  0  0  0  0
 11 16  1  0  0  0  0
 12 23  1  1  0  0  0
 13  4  1  0  0  0  0
 13  7  1  0  0  0  0
 14 11  1  0  0  0  0
 14 18  1  0  0  0  0
 15  1  1  0  0  0  0
 15 20  2  0  0  0  0
 16  3  1  0  0  0  0
 16  2  2  0  0  0  0
 17  8  2  0  0  0  0
 18  6  2  0  0  0  0
 20 19  1  0  0  0  0
 21 17  1  0  0  0  0
 21 15  1  0  0  0  0
 23 27  2  0  0  0  0
 23 24  1  0  0  0  0
 24 25  2  0  0  0  0
 25 22  1  0  0  0  0
 26 22  2  0  0  0  0
 27 26  1  0  0  0  0
M  END
>  <MODEL>
7

>  <REMARK>
 VINA RESULT:      -5.8      3.443      6.940
  Name = 
  1 active torsions:
  status: ('A' for Active; 'I' for Inactive)
    1  A    between atoms: C_9  and  C_15
                            x       y       z     vdW  Elec       q    Type
                         _______ _______ _______ _____ _____    ______ ____

>  <TORSDO>
F 1

$$$$
=
 OpenBabel11052423053D

 27 31  0  0  1  0  0  0  0  0999 V2000
  161.8530  205.6350  152.8110 C   0  0  0  0  0  2  0  0  0  0  0  0
  161.3550  208.0110  152.2570 C   0  0  0  0  0  0  0  0  0  0  0  0
  160.9650  206.8710  150.0170 N   0  0  0  0  0  0  0  0  0  0  0  0
  162.4020  211.3120  150.0180 N   0  0  0  0  0  0  0  0  0  0  0  0
  162.4450  211.6070  147.5870 C   0  0  0  0  0  1  0  0  0  0  0  0
  161.7690  209.1860  152.9400 C   0  0  0  0  0  3  0  0  0  0  0  0
  161.7910  209.5490  148.8510 C   0  0  0  0  0  0  0  0  0  0  0  0
  160.8590  203.4760  149.9740 C   0  0  0  0  0  0  0  0  0  0  0  0
  161.4890  208.6940  147.6650 C   0  0  0  0  0  1  0  0  0  0  0  0
  160.6220  202.2080  149.3740 N   0  0  0  0  0  1  0  0  0  0  0  0
  161.7020  209.1930  150.1820 C   0  0  0  0  0  0  0  0  0  0  0  0
  160.9180  206.8030  153.0500 C   0  0  2  0  0  3  0  0  0  0  0  0
  162.2140  210.8320  148.7950 N   0  0  0  0  0  0  0  0  0  0  0  0
  162.0910  210.3150  150.8660 C   0  0  0  0  0  0  0  0  0  0  0  0
  161.4530  204.9760  151.5430 C   0  0  0  0  0  0  0  0  0  0  0  0
  161.3430  208.0020  150.8270 C   0  0  0  0  0  0  0  0  0  0  0  0
  160.6280  204.5950  149.3660 N   0  0  0  0  0  0  0  0  0  0  0  0
  162.1440  210.3490  152.2510 C   0  0  0  0  0  3  0  0  0  0  0  0
  161.6770  202.6530  152.2680 N   0  0  0  0  0  1  0  0  0  0  0  0
  161.3750  203.6760  151.3240 C   0  0  0  0  0  0  0  0  0  0  0  0
  160.9880  205.6030  150.3090 C   0  0  0  0  0  0  0  0  0  0  0  0
  160.3130  207.4760  157.2600 C   0  0  0  0  0  3  0  0  0  0  0  0
  160.6830  207.0440  154.5150 C   0  0  0  0  0  0  0  0  0  0  0  0
  159.4800  206.6660  155.1360 C   0  0  0  0  0  3  0  0  0  0  0  0
  159.2970  206.8850  156.5040 C   0  0  0  0  0  3  0  0  0  0  0  0
  161.5150  207.8480  156.6470 C   0  0  0  0  0  3  0  0  0  0  0  0
  161.6990  207.6300  155.2780 C   0  0  0  0  0  3  0  0  0  0  0  0
  1 12  1  0  0  0  0
  2  6  1  0  0  0  0
  2 12  1  0  0  0  0
  3 21  2  0  0  0  0
  3 16  1  0  0  0  0
  4 14  2  0  0  0  0
  5 13  1  0  0  0  0
  7 11  2  0  0  0  0
  8 20  1  0  0  0  0
  9  7  1  0  0  0  0
 10  8  1  0  0  0  0
 11 16  1  0  0  0  0
 11 14  1  0  0  0  0
 12 23  1  1  0  0  0
 13  7  1  0  0  0  0
 13  4  1  0  0  0  0
 14 18  1  0  0  0  0
 15  1  1  0  0  0  0
 16  2  2  0  0  0  0
 17  8  2  0  0  0  0
 17 21  1  0  0  0  0
 18  6  2  0  0  0  0
 20 15  2  0  0  0  0
 20 19  1  0  0  0  0
 21 15  1  0  0  0  0
 23 24  2  0  0  0  0
 23 27  1  0  0  0  0
 24 25  1  0  0  0  0
 25 22  2  0  0  0  0
 26 22  1  0  0  0  0
 27 26  2  0  0  0  0
M  END
>  <MODEL>
8

>  <REMARK>
 VINA RESULT:      -5.8      2.693      7.043
  Name = 
  1 active torsions:
  status: ('A' for Active; 'I' for Inactive)
    1  A    between atoms: C_9  and  C_15
                            x       y       z     vdW  Elec       q    Type
                         _______ _______ _______ _____ _____    ______ ____

>  <TORSDO>
F 1

$$$$
=
 OpenBabel11052423053D

 27 31  0  0  1  0  0  0  0  0999 V2000
  160.8570  208.5360  148.3090 C   0  0  0  0  0  2  0  0  0  0  0  0
  161.5260  209.3320  150.5720 C   0  0  0  0  0  0  0  0  0  0  0  0
  161.7690  206.8120  150.8240 N   0  0  0  0  0  0  0  0  0  0  0  0
  160.6840  209.3190  154.6090 N   0  0  0  0  0  0  0  0  0  0  0  0
  160.6030  207.4480  156.1870 C   0  0  0  0  0  1  0  0  0  0  0  0
  161.2220  210.5690  151.2020 C   0  0  0  0  0  3  0  0  0  0  0  0
  161.1260  207.3450  153.7420 C   0  0  0  0  0  0  0  0  0  0  0  0
  161.6070  204.9240  148.0050 C   0  0  0  0  0  0  0  0  0  0  0  0
  161.3300  205.8690  153.6610 C   0  0  0  0  0  1  0  0  0  0  0  0
  161.7280  203.7170  147.2610 N   0  0  0  0  0  1  0  0  0  0  0  0
  161.2200  208.2600  152.7120 C   0  0  0  0  0  0  0  0  0  0  0  0
  161.8870  209.3110  149.1060 C   0  0  2  0  0  3  0  0  0  0  0  0
  160.8030  208.0230  154.8670 N   0  0  0  0  0  0  0  0  0  0  0  0
  160.9380  209.4680  153.2960 C   0  0  0  0  0  0  0  0  0  0  0  0
  161.1720  207.0910  148.4310 C   0  0  0  0  0  0  0  0  0  0  0  0
  161.5010  208.1290  151.3460 C   0  0  0  0  0  0  0  0  0  0  0  0
  161.9090  205.0090  149.2600 N   0  0  0  0  0  0  0  0  0  0  0  0
  160.9230  210.6490  152.5700 C   0  0  0  0  0  3  0  0  0  0  0  0
  160.7840  206.4490  146.1050 N   0  0  0  0  0  1  0  0  0  0  0  0
  161.1420  206.1960  147.4610 C   0  0  0  0  0  0  0  0  0  0  0  0
  161.6540  206.3690  149.6060 C   0  0  0  0  0  0  0  0  0  0  0  0
  162.6740  213.1390  147.2980 C   0  0  0  0  0  3  0  0  0  0  0  0
  162.1760  210.6530  148.4940 C   0  0  0  0  0  0  0  0  0  0  0  0
  163.4580  211.2250  148.5570 C   0  0  0  0  0  3  0  0  0  0  0  0
  163.7040  212.4660  147.9620 C   0  0  0  0  0  3  0  0  0  0  0  0
  161.3980  212.5700  147.2280 C   0  0  0  0  0  3  0  0  0  0  0  0
  161.1520  211.3290  147.8230 C   0  0  0  0  0  3  0  0  0  0  0  0
  1 15  1  0  0  0  0
  1 12  1  0  0  0  0
  2  6  1  0  0  0  0
  2 16  2  0  0  0  0
  3 16  1  0  0  0  0
  4 13  1  0  0  0  0
  6 18  2  0  0  0  0
  7 13  1  0  0  0  0
  8 17  2  0  0  0  0
  9  7  1  0  0  0  0
 10  8  1  0  0  0  0
 11 14  1  0  0  0  0
 11  7  2  0  0  0  0
 12 23  1  6  0  0  0
 12  2  1  0  0  0  0
 13  5  1  0  0  0  0
 14  4  2  0  0  0  0
 15 21  1  0  0  0  0
 16 11  1  0  0  0  0
 17 21  1  0  0  0  0
 18 14  1  0  0  0  0
 19 20  1  0  0  0  0
 20  8  1  0  0  0  0
 20 15  2  0  0  0  0
 21  3  2  0  0  0  0
 22 25  1  0  0  0  0
 23 24  1  0  0  0  0
 25 24  2  0  0  0  0
 26 22  2  0  0  0  0
 26 27  1  0  0  0  0
 27 23  2  0  0  0  0
M  END
>  <MODEL>
9

>  <REMARK>
 VINA RESULT:      -5.7      2.654      5.098
  Name = 
  1 active torsions:
  status: ('A' for Active; 'I' for Inactive)
    1  A    between atoms: C_9  and  C_15
                            x       y       z     vdW  Elec       q    Type
                         _______ _______ _______ _____ _____    ______ ____

>  <TORSDO>
F 1

$$$$
