=
 OpenBabel11062410533D

 32 36  0  0  1  0  0  0  0  0999 V2000
  160.7730  208.7700  151.6430 O   0  0  0  0  0  0  0  0  0  0  0  0
  161.9040  210.0140  149.8920 C   0  0  0  0  0  0  0  0  0  0  0  0
  161.9710  211.3820  149.3230 C   0  0  1  0  0  3  0  0  0  0  0  0
  160.5880  213.2130  148.9120 C   0  0  2  0  0  3  0  0  0  0  0  0
  161.2760  208.5530  152.9360 C   0  0  1  0  0  3  0  0  0  0  0  0
  160.7180  209.6170  153.9150 C   0  0  2  0  0  3  0  0  0  0  0  0
  161.2070  211.1720  151.9910 C   0  0  2  0  0  3  0  0  0  0  0  0
  161.0980  212.8000  147.6560 O   0  0  0  0  0  0  0  0  0  0  0  0
  161.7100  211.5350  147.8490 C   0  0  0  0  0  2  0  0  0  0  0  0
  160.3110  210.9330  153.2100 C   0  0  1  0  0  3  0  0  0  0  0  0
  160.8390  212.3380  151.2370 O   0  0  0  0  0  0  0  0  0  0  0  0
  162.2900  208.9950  149.2590 O   0  0  0  0  0  0  0  0  0  0  0  0
  161.3460  214.4460  149.3860 C   0  0  0  0  0  1  0  0  0  0  0  0
  161.3600  209.9200  151.2110 N   0  0  0  0  0  0  0  0  0  0  0  0
  160.7520  212.0460  149.8550 C   0  0  2  0  0  3  0  0  0  0  0  0
  160.7700  210.3790  156.2730 S   0  0  0  0  0  1  0  0  0  0  0  0
  161.6750  209.8910  154.8950 O   0  0  0  0  0  0  0  0  0  0  0  0
  157.9700  211.4840  153.8840 C   0  0  0  0  0  1  0  0  0  0  0  0
  158.8440  210.8810  152.8020 C   0  0  0  0  0  2  0  0  0  0  0  0
  160.9060  207.1500  153.3920 C   0  0  0  0  0  2  0  0  0  0  0  0
  162.7470  206.4550  152.0580 O   0  0  0  0  0  0  0  0  0  0  0  0
  161.6850  206.1200  152.6480 C   0  0  0  0  0  0  0  0  0  0  0  0
  161.2380  204.7990  152.6220 O   0  0  0  0  0  0  0  0  0  0  0  0
  161.5530  203.9230  151.5500 C   0  0  0  0  0  2  0  0  0  0  0  0
  160.7310  204.6330  149.3080 C   0  0  1  0  0  3  0  0  0  0  0  0
  160.7800  203.1190  149.3200 C   0  0  2  0  0  3  0  0  0  0  0  0
  160.3890  203.8740  150.5750 C   0  0  1  0  0  3  0  0  0  0  0  0
  161.8110  203.9050  148.5330 C   0  0  1  0  0  3  0  0  0  0  0  0
  161.4500  203.8830  147.0610 C   0  0  0  0  0  2  0  0  0  0  0  0
  162.2170  204.9330  146.3360 C   0  0  0  0  0  0  0  0  0  0  0  0
  163.3840  204.6940  145.9280 O   0  0  0  0  0  0  0  0  0  0  0  0
  161.6600  206.1900  146.1420 O   0  0  0  0  0  1  0  0  0  0  0  0
  1  5  1  0  0  0  0
  2 14  1  0  0  0  0
  3  9  1  6  0  0  0
  3 15  1  0  0  0  0
  3  2  1  0  0  0  0
  4 13  1  1  0  0  0
  4 15  1  0  0  0  0
  5 20  1  1  0  0  0
  5  6  1  0  0  0  0
  6 17  1  1  0  0  0
  7 11  1  6  0  0  0
  7 10  1  0  0  0  0
  8  9  1  0  0  0  0
  8  4  1  0  0  0  0
 10 19  1  6  0  0  0
 10  6  1  0  0  0  0
 12  2  2  0  0  0  0
 14  1  1  0  0  0  0
 14  7  1  0  0  0  0
 15 11  1  1  0  0  0
 17 16  1  0  0  0  0
 19 18  1  0  0  0  0
 21 22  2  0  0  0  0
 22 20  1  0  0  0  0
 23 22  1  0  0  0  0
 24 23  1  0  0  0  0
 25 26  1  0  0  0  0
 25 27  1  0  0  0  0
 26 27  1  0  0  0  0
 27 24  1  0  0  0  0
 28 25  1  0  0  0  0
 28 26  1  0  0  0  0
 29 28  1  0  0  0  0
 30 29  1  0  0  0  0
 31 30  2  0  0  0  0
 32 30  1  0  0  0  0
M  END
>  <MODEL>
1

>  <REMARK>
 VINA RESULT:      -6.8      0.000      0.000
  Name = 
  9 active torsions:
  status: ('A' for Active; 'I' for Inactive)
    1  A    between atoms: C_1  and  C_10
    2  A    between atoms: C_8  and  C_23
    3  A    between atoms: C_8  and  O_28
    4  A    between atoms: C_9  and  C_14
    5  A    between atoms: C_9  and  C_21
    6  A    between atoms: C_10  and  C_24
    7  A    between atoms: O_13  and  C_15
    8  A    between atoms: C_21  and  O_28
    9  A    between atoms: C_25  and  C_26
                            x       y       z     vdW  Elec       q    Type
                         _______ _______ _______ _____ _____    ______ ____

>  <TORSDO>
F 9

$$$$
=
 OpenBabel11062410533D

 32 36  0  0  1  0  0  0  0  0999 V2000
  159.9960  210.4260  152.9420 O   0  0  0  0  0  0  0  0  0  0  0  0
  158.7520  212.5010  152.7490 C   0  0  0  0  0  0  0  0  0  0  0  0
  157.9290  213.4220  153.5710 C   0  0  1  0  0  3  0  0  0  0  0  0
  156.3990  213.3590  155.3290 C   0  0  2  0  0  3  0  0  0  0  0  0
  161.3710  210.3290  153.2120 C   0  0  1  0  0  3  0  0  0  0  0  0
  161.6080  210.1200  154.7290 C   0  0  2  0  0  3  0  0  0  0  0  0
  159.8200  211.8880  154.9200 C   0  0  2  0  0  3  0  0  0  0  0  0
  155.7270  213.9430  154.2270 O   0  0  0  0  0  0  0  0  0  0  0  0
  156.5420  213.7370  153.0830 C   0  0  0  0  0  2  0  0  0  0  0  0
  160.4560  210.6730  155.6020 C   0  0  1  0  0  3  0  0  0  0  0  0
  158.6890  212.4110  155.6350 O   0  0  0  0  0  0  0  0  0  0  0  0
  158.7040  212.4880  151.4890 O   0  0  0  0  0  0  0  0  0  0  0  0
  156.8140  214.4520  156.3050 C   0  0  0  0  0  1  0  0  0  0  0  0
  159.6020  211.6130  153.4790 N   0  0  0  0  0  0  0  0  0  0  0  0
  157.5870  212.6130  154.7700 C   0  0  2  0  0  3  0  0  0  0  0  0
  162.9270  210.4840  156.7950 S   0  0  0  0  0  1  0  0  0  0  0  0
  162.8080  210.7320  155.0980 O   0  0  0  0  0  0  0  0  0  0  0  0
  160.0760  208.2230  155.9000 C   0  0  0  0  0  1  0  0  0  0  0  0
  159.4170  209.5880  155.8550 C   0  0  0  0  0  2  0  0  0  0  0  0
  161.9610  209.1800  152.4080 C   0  0  0  0  0  2  0  0  0  0  0  0
  162.0770  210.5100  150.4400 O   0  0  0  0  0  0  0  0  0  0  0  0
  161.7740  209.3950  150.9450 C   0  0  0  0  0  0  0  0  0  0  0  0
  161.2780  208.3620  150.1510 O   0  0  0  0  0  0  0  0  0  0  0  0
  162.0920  207.6940  149.1970 C   0  0  0  0  0  2  0  0  0  0  0  0
  161.6300  205.4680  148.1790 C   0  0  1  0  0  3  0  0  0  0  0  0
  160.4020  205.8760  148.9670 C   0  0  2  0  0  3  0  0  0  0  0  0
  161.2110  206.9240  148.2290 C   0  0  1  0  0  3  0  0  0  0  0  0
  161.3130  204.7840  149.4940 C   0  0  1  0  0  3  0  0  0  0  0  0
  160.6910  203.4280  149.2220 C   0  0  0  0  0  2  0  0  0  0  0  0
  160.9060  202.5290  150.3880 C   0  0  0  0  0  0  0  0  0  0  0  0
  160.9270  201.2810  150.2280 O   0  0  0  0  0  0  0  0  0  0  0  0
  161.0440  203.0650  151.6620 O   0  0  0  0  0  1  0  0  0  0  0  0
  1  5  1  0  0  0  0
  1 14  1  0  0  0  0
  2 14  1  0  0  0  0
  2  3  1  0  0  0  0
  3  9  1  6  0  0  0
  3 15  1  0  0  0  0
  4 13  1  1  0  0  0
  5 20  1  6  0  0  0
  5  6  1  0  0  0  0
  6 17  1  1  0  0  0
  6 10  1  0  0  0  0
  7 10  1  0  0  0  0
  7 11  1  1  0  0  0
  8  4  1  0  0  0  0
  9  8  1  0  0  0  0
 10 19  1  6  0  0  0
 12  2  2  0  0  0  0
 14  7  1  0  0  0  0
 15  4  1  0  0  0  0
 15 11  1  1  0  0  0
 17 16  1  0  0  0  0
 19 18  1  0  0  0  0
 21 22  2  0  0  0  0
 22 20  1  0  0  0  0
 23 22  1  0  0  0  0
 24 23  1  0  0  0  0
 25 27  1  0  0  0  0
 25 26  1  0  0  0  0
 25 28  1  0  0  0  0
 26 28  1  0  0  0  0
 27 26  1  0  0  0  0
 27 24  1  0  0  0  0
 29 28  1  0  0  0  0
 29 30  1  0  0  0  0
 30 32  1  0  0  0  0
 31 30  2  0  0  0  0
M  END
>  <MODEL>
2

>  <REMARK>
 VINA RESULT:      -6.7      2.660      4.672
  Name = 
  9 active torsions:
  status: ('A' for Active; 'I' for Inactive)
    1  A    between atoms: C_1  and  C_10
    2  A    between atoms: C_8  and  C_23
    3  A    between atoms: C_8  and  O_28
    4  A    between atoms: C_9  and  C_14
    5  A    between atoms: C_9  and  C_21
    6  A    between atoms: C_10  and  C_24
    7  A    between atoms: O_13  and  C_15
    8  A    between atoms: C_21  and  O_28
    9  A    between atoms: C_25  and  C_26
                            x       y       z     vdW  Elec       q    Type
                         _______ _______ _______ _____ _____    ______ ____

>  <TORSDO>
F 9

$$$$
=
 OpenBabel11062410533D

 32 36  0  0  1  0  0  0  0  0999 V2000
  161.8150  206.5840  153.0990 O   0  0  0  0  0  0  0  0  0  0  0  0
  160.5880  207.7090  154.8650 C   0  0  0  0  0  0  0  0  0  0  0  0
  160.0730  209.0530  155.2220 C   0  0  1  0  0  3  0  0  0  0  0  0
  160.6520  211.3010  155.0060 C   0  0  2  0  0  3  0  0  0  0  0  0
  161.2340  205.9070  152.0140 C   0  0  1  0  0  3  0  0  0  0  0  0
  161.1470  206.8420  150.7810 C   0  0  2  0  0  3  0  0  0  0  0  0
  160.4020  208.5180  152.5110 C   0  0  2  0  0  3  0  0  0  0  0  0
  160.5670  211.0360  156.3950 O   0  0  0  0  0  0  0  0  0  0  0  0
  160.4910  209.6270  156.5480 C   0  0  0  0  0  2  0  0  0  0  0  0
  161.1030  208.3410  151.1610 C   0  0  1  0  0  3  0  0  0  0  0  0
  160.3920  209.8790  152.9700 O   0  0  0  0  0  0  0  0  0  0  0  0
  160.7540  206.7960  155.7190 O   0  0  0  0  0  0  0  0  0  0  0  0
  159.3950  212.0320  154.5520 C   0  0  0  0  0  1  0  0  0  0  0  0
  160.8970  207.5130  153.4830 N   0  0  0  0  0  0  0  0  0  0  0  0
  160.8160  209.9680  154.3170 C   0  0  2  0  0  3  0  0  0  0  0  0
  160.5690  206.4120  148.4100 S   0  0  0  0  0  1  0  0  0  0  0  0
  160.0130  206.5170  150.0330 O   0  0  0  0  0  0  0  0  0  0  0  0
  162.5430  210.2930  150.5670 C   0  0  0  0  0  1  0  0  0  0  0  0
  162.5130  208.9170  151.2030 C   0  0  0  0  0  2  0  0  0  0  0  0
  162.0560  204.6670  151.6970 C   0  0  0  0  0  2  0  0  0  0  0  0
  160.9320  202.6570  152.2920 O   0  0  0  0  0  0  0  0  0  0  0  0
  161.1760  203.5030  151.3900 C   0  0  0  0  0  0  0  0  0  0  0  0
  160.6250  203.3690  150.1160 O   0  0  0  0  0  0  0  0  0  0  0  0
  160.1940  202.1130  149.6150 C   0  0  0  0  0  2  0  0  0  0  0  0
  160.8100  201.7390  147.2300 C   0  0  1  0  0  3  0  0  0  0  0  0
  161.8460  202.6660  147.8320 C   0  0  2  0  0  3  0  0  0  0  0  0
  161.2450  201.5550  148.6700 C   0  0  1  0  0  3  0  0  0  0  0  0
  160.8140  203.2100  146.8620 C   0  0  1  0  0  3  0  0  0  0  0  0
  161.4460  203.3870  145.4950 C   0  0  0  0  0  2  0  0  0  0  0  0
  161.5790  204.8360  145.1830 C   0  0  0  0  0  0  0  0  0  0  0  0
  162.6280  205.4560  145.4960 O   0  0  0  0  0  1  0  0  0  0  0  0
  160.5280  205.5160  144.5790 O   0  0  0  0  0  0  0  0  0  0  0  0
  1 14  1  0  0  0  0
  2  3  1  0  0  0  0
  2 12  2  0  0  0  0
  3  9  1  1  0  0  0
  4 13  1  6  0  0  0
  4  8  1  0  0  0  0
  5 20  1  6  0  0  0
  5  1  1  0  0  0  0
  6 17  1  1  0  0  0
  6 10  1  0  0  0  0
  6  5  1  0  0  0  0
  7 11  1  1  0  0  0
  7 14  1  0  0  0  0
  8  9  1  0  0  0  0
 10 19  1  1  0  0  0
 10  7  1  0  0  0  0
 14  2  1  0  0  0  0
 15 11  1  6  0  0  0
 15  4  1  0  0  0  0
 15  3  1  0  0  0  0
 16 17  1  0  0  0  0
 18 19  1  0  0  0  0
 22 20  1  0  0  0  0
 22 21  2  0  0  0  0
 23 22  1  0  0  0  0
 24 23  1  0  0  0  0
 25 26  1  0  0  0  0
 25 27  1  0  0  0  0
 26 27  1  0  0  0  0
 27 24  1  0  0  0  0
 28 25  1  0  0  0  0
 28 26  1  0  0  0  0
 29 28  1  0  0  0  0
 30 29  1  0  0  0  0
 30 31  1  0  0  0  0
 32 30  2  0  0  0  0
M  END
>  <MODEL>
3

>  <REMARK>
 VINA RESULT:      -6.7      2.808      4.754
  Name = 
  9 active torsions:
  status: ('A' for Active; 'I' for Inactive)
    1  A    between atoms: C_1  and  C_10
    2  A    between atoms: C_8  and  C_23
    3  A    between atoms: C_8  and  O_28
    4  A    between atoms: C_9  and  C_14
    5  A    between atoms: C_9  and  C_21
    6  A    between atoms: C_10  and  C_24
    7  A    between atoms: O_13  and  C_15
    8  A    between atoms: C_21  and  O_28
    9  A    between atoms: C_25  and  C_26
                            x       y       z     vdW  Elec       q    Type
                         _______ _______ _______ _____ _____    ______ ____

>  <TORSDO>
F 9

$$$$
=
 OpenBabel11062410533D

 32 36  0  0  1  0  0  0  0  0999 V2000
  159.8530  210.4100  152.8220 O   0  0  0  0  0  0  0  0  0  0  0  0
  158.6360  212.5080  152.7350 C   0  0  0  0  0  0  0  0  0  0  0  0
  157.8890  213.4340  153.6200 C   0  0  1  0  0  3  0  0  0  0  0  0
  156.4820  213.3780  155.4790 C   0  0  2  0  0  3  0  0  0  0  0  0
  161.2410  210.2860  152.9950 C   0  0  1  0  0  3  0  0  0  0  0  0
  161.5780  210.0560  154.4910 C   0  0  2  0  0  3  0  0  0  0  0  0
  159.8390  211.8520  154.8210 C   0  0  2  0  0  3  0  0  0  0  0  0
  155.7460  213.9860  154.4310 O   0  0  0  0  0  0  0  0  0  0  0  0
  156.4770  213.7780  153.2320 C   0  0  0  0  0  2  0  0  0  0  0  0
  160.4990  210.6200  155.4460 C   0  0  1  0  0  3  0  0  0  0  0  0
  158.7700  212.3870  155.6170 O   0  0  0  0  0  0  0  0  0  0  0  0
  158.5020  212.5100  151.4810 O   0  0  0  0  0  0  0  0  0  0  0  0
  156.9830  214.4530  156.4350 C   0  0  0  0  0  1  0  0  0  0  0  0
  159.5190  211.5980  153.3960 N   0  0  0  0  0  0  0  0  0  0  0  0
  157.6150  212.6180  154.8320 C   0  0  2  0  0  3  0  0  0  0  0  0
  162.9400  210.5730  156.4950 S   0  0  0  0  0  1  0  0  0  0  0  0
  162.8110  210.6440  154.7820 O   0  0  0  0  0  0  0  0  0  0  0  0
  160.1030  208.1760  155.7790 C   0  0  0  0  0  1  0  0  0  0  0  0
  159.4600  209.5500  155.7590 C   0  0  0  0  0  2  0  0  0  0  0  0
  161.7540  209.1360  152.1420 C   0  0  0  0  0  2  0  0  0  0  0  0
  162.0330  210.7570  150.4240 O   0  0  0  0  0  0  0  0  0  0  0  0
  161.8740  209.5390  150.7120 C   0  0  0  0  0  0  0  0  0  0  0  0
  161.8210  208.5690  149.7110 O   0  0  0  0  0  0  0  0  0  0  0  0
  161.9400  207.1850  150.0040 C   0  0  0  0  0  2  0  0  0  0  0  0
  160.8110  205.8240  148.2490 C   0  0  1  0  0  3  0  0  0  0  0  0
  160.8950  204.9780  149.5030 C   0  0  2  0  0  3  0  0  0  0  0  0
  160.6580  206.4710  149.6120 C   0  0  1  0  0  3  0  0  0  0  0  0
  161.7940  204.6730  148.3210 C   0  0  1  0  0  3  0  0  0  0  0  0
  161.2420  203.4870  147.5550 C   0  0  0  0  0  2  0  0  0  0  0  0
  161.5900  203.6090  146.1130 C   0  0  0  0  0  0  0  0  0  0  0  0
  162.5580  204.3290  145.7560 O   0  0  0  0  0  1  0  0  0  0  0  0
  160.8220  202.9580  145.1560 O   0  0  0  0  0  0  0  0  0  0  0  0
  1  5  1  0  0  0  0
  1 14  1  0  0  0  0
  2 14  1  0  0  0  0
  2  3  1  0  0  0  0
  3  9  1  6  0  0  0
  3 15  1  0  0  0  0
  4 13  1  1  0  0  0
  5 20  1  6  0  0  0
  5  6  1  0  0  0  0
  6 17  1  1  0  0  0
  6 10  1  0  0  0  0
  7 10  1  0  0  0  0
  7 11  1  1  0  0  0
  8  4  1  0  0  0  0
  9  8  1  0  0  0  0
 10 19  1  6  0  0  0
 12  2  2  0  0  0  0
 14  7  1  0  0  0  0
 15  4  1  0  0  0  0
 15 11  1  1  0  0  0
 17 16  1  0  0  0  0
 19 18  1  0  0  0  0
 21 22  2  0  0  0  0
 22 20  1  0  0  0  0
 23 24  1  0  0  0  0
 23 22  1  0  0  0  0
 25 28  1  0  0  0  0
 25 26  1  0  0  0  0
 25 27  1  0  0  0  0
 26 27  1  0  0  0  0
 27 24  1  0  0  0  0
 28 26  1  0  0  0  0
 29 28  1  0  0  0  0
 30 29  1  0  0  0  0
 31 30  1  0  0  0  0
 32 30  2  0  0  0  0
M  END
>  <MODEL>
4

>  <REMARK>
 VINA RESULT:      -6.7      2.419      4.339
  Name = 
  9 active torsions:
  status: ('A' for Active; 'I' for Inactive)
    1  A    between atoms: C_1  and  C_10
    2  A    between atoms: C_8  and  C_23
    3  A    between atoms: C_8  and  O_28
    4  A    between atoms: C_9  and  C_14
    5  A    between atoms: C_9  and  C_21
    6  A    between atoms: C_10  and  C_24
    7  A    between atoms: O_13  and  C_15
    8  A    between atoms: C_21  and  O_28
    9  A    between atoms: C_25  and  C_26
                            x       y       z     vdW  Elec       q    Type
                         _______ _______ _______ _____ _____    ______ ____

>  <TORSDO>
F 9

$$$$
=
 OpenBabel11062410533D

 32 36  0  0  1  0  0  0  0  0999 V2000
  160.6630  209.1220  152.0360 O   0  0  0  0  0  0  0  0  0  0  0  0
  161.8700  210.0630  150.1520 C   0  0  0  0  0  0  0  0  0  0  0  0
  161.9930  211.3300  149.3900 C   0  0  1  0  0  3  0  0  0  0  0  0
  160.6760  213.1180  148.6790 C   0  0  2  0  0  3  0  0  0  0  0  0
  161.1310  209.0840  153.3600 C   0  0  1  0  0  3  0  0  0  0  0  0
  160.5850  210.2960  154.1570 C   0  0  2  0  0  3  0  0  0  0  0  0
  161.1640  211.5360  152.0390 C   0  0  2  0  0  3  0  0  0  0  0  0
  161.2010  212.5100  147.5110 O   0  0  0  0  0  0  0  0  0  0  0  0
  161.7690  211.2710  147.9040 C   0  0  0  0  0  2  0  0  0  0  0  0
  160.2350  211.5040  153.2560 C   0  0  1  0  0  3  0  0  0  0  0  0
  160.8490  212.5880  151.1130 O   0  0  0  0  0  0  0  0  0  0  0  0
  162.2380  208.9510  149.6850 O   0  0  0  0  0  0  0  0  0  0  0  0
  161.4630  214.3850  148.9870 C   0  0  0  0  0  1  0  0  0  0  0  0
  161.2950  210.1790  151.4560 N   0  0  0  0  0  0  0  0  0  0  0  0
  160.7840  212.0980  149.7870 C   0  0  2  0  0  3  0  0  0  0  0  0
  160.6800  210.6570  156.6070 S   0  0  0  0  0  1  0  0  0  0  0  0
  161.5280  210.6850  155.1110 O   0  0  0  0  0  0  0  0  0  0  0  0
  157.8610  211.4410  154.0300 C   0  0  0  0  0  1  0  0  0  0  0  0
  158.7760  211.4330  152.8210 C   0  0  0  0  0  2  0  0  0  0  0  0
  160.7060  207.7740  154.0060 C   0  0  0  0  0  2  0  0  0  0  0  0
  161.2070  205.4570  153.8140 O   0  0  0  0  0  0  0  0  0  0  0  0
  161.3210  206.6080  153.3110 C   0  0  0  0  0  0  0  0  0  0  0  0
  162.0020  206.7990  152.1090 O   0  0  0  0  0  0  0  0  0  0  0  0
  162.1520  205.7540  151.1590 C   0  0  0  0  0  2  0  0  0  0  0  0
  161.0180  204.5160  149.3190 C   0  0  1  0  0  3  0  0  0  0  0  0
  160.1800  204.3480  150.5690 C   0  0  2  0  0  3  0  0  0  0  0  0
  160.8970  205.6570  150.3090 C   0  0  1  0  0  3  0  0  0  0  0  0
  161.0000  203.1850  150.0440 C   0  0  1  0  0  3  0  0  0  0  0  0
  160.0970  202.2180  149.3060 C   0  0  0  0  0  2  0  0  0  0  0  0
  160.8670  201.5130  148.2450 C   0  0  0  0  0  0  0  0  0  0  0  0
  161.5800  200.5180  148.5390 O   0  0  0  0  0  1  0  0  0  0  0  0
  160.8320  201.9770  146.9370 O   0  0  0  0  0  0  0  0  0  0  0  0
  1  5  1  0  0  0  0
  2 14  1  0  0  0  0
  3  9  1  6  0  0  0
  3 15  1  0  0  0  0
  3  2  1  0  0  0  0
  4 13  1  1  0  0  0
  4 15  1  0  0  0  0
  5 20  1  1  0  0  0
  5  6  1  0  0  0  0
  6 17  1  1  0  0  0
  7 11  1  6  0  0  0
  7 10  1  0  0  0  0
  8  9  1  0  0  0  0
  8  4  1  0  0  0  0
 10 19  1  6  0  0  0
 10  6  1  0  0  0  0
 12  2  2  0  0  0  0
 14  1  1  0  0  0  0
 14  7  1  0  0  0  0
 15 11  1  1  0  0  0
 17 16  1  0  0  0  0
 19 18  1  0  0  0  0
 22 21  2  0  0  0  0
 22 20  1  0  0  0  0
 23 22  1  0  0  0  0
 24 23  1  0  0  0  0
 25 28  1  0  0  0  0
 25 27  1  0  0  0  0
 25 26  1  0  0  0  0
 27 26  1  0  0  0  0
 27 24  1  0  0  0  0
 28 26  1  0  0  0  0
 29 28  1  0  0  0  0
 30 31  1  0  0  0  0
 30 29  1  0  0  0  0
 32 30  2  0  0  0  0
M  END
>  <MODEL>
5

>  <REMARK>
 VINA RESULT:      -6.2      1.409      1.808
  Name = 
  9 active torsions:
  status: ('A' for Active; 'I' for Inactive)
    1  A    between atoms: C_1  and  C_10
    2  A    between atoms: C_8  and  C_23
    3  A    between atoms: C_8  and  O_28
    4  A    between atoms: C_9  and  C_14
    5  A    between atoms: C_9  and  C_21
    6  A    between atoms: C_10  and  C_24
    7  A    between atoms: O_13  and  C_15
    8  A    between atoms: C_21  and  O_28
    9  A    between atoms: C_25  and  C_26
                            x       y       z     vdW  Elec       q    Type
                         _______ _______ _______ _____ _____    ______ ____

>  <TORSDO>
F 9

$$$$
=
 OpenBabel11062410533D

 32 36  0  0  1  0  0  0  0  0999 V2000
  162.4530  207.8790  149.5270 O   0  0  0  0  0  0  0  0  0  0  0  0
  161.5290  206.2270  148.0070 C   0  0  0  0  0  0  0  0  0  0  0  0
  160.9490  204.8620  148.0170 C   0  0  1  0  0  3  0  0  0  0  0  0
  161.1860  202.8310  149.1360 C   0  0  2  0  0  3  0  0  0  0  0  0
  161.7290  208.9230  150.1250 C   0  0  1  0  0  3  0  0  0  0  0  0
  161.2520  208.5060  151.5390 C   0  0  2  0  0  3  0  0  0  0  0  0
  160.7190  206.3390  150.3650 C   0  0  2  0  0  3  0  0  0  0  0  0
  161.4500  202.5740  147.7680 O   0  0  0  0  0  0  0  0  0  0  0  0
  161.5830  203.8310  147.1240 C   0  0  0  0  0  2  0  0  0  0  0  0
  161.1130  206.9740  151.7020 C   0  0  1  0  0  3  0  0  0  0  0  0
  160.6470  204.9050  150.4180 O   0  0  0  0  0  0  0  0  0  0  0  0
  161.9940  206.7600  146.9630 O   0  0  0  0  0  0  0  0  0  0  0  0
  159.7800  202.3570  149.4790 C   0  0  0  0  0  1  0  0  0  0  0  0
  161.5390  206.9040  149.2660 N   0  0  0  0  0  0  0  0  0  0  0  0
  161.3510  204.3180  149.3400 C   0  0  2  0  0  3  0  0  0  0  0  0
  160.3230  210.1040  153.1890 S   0  0  0  0  0  1  0  0  0  0  0  0
  160.0260  209.1170  151.8130 O   0  0  0  0  0  0  0  0  0  0  0  0
  162.2760  205.9910  153.6820 C   0  0  0  0  0  1  0  0  0  0  0  0
  162.4150  206.3770  152.2220 C   0  0  0  0  0  2  0  0  0  0  0  0
  162.6020  210.1670  150.1920 C   0  0  0  0  0  2  0  0  0  0  0  0
  161.1220  212.0230  150.0480 O   0  0  0  0  0  0  0  0  0  0  0  0
  161.9750  211.3040  149.4600 C   0  0  0  0  0  0  0  0  0  0  0  0
  162.3460  211.5680  148.1420 O   0  0  0  0  0  0  0  0  0  0  0  0
  162.9790  212.7830  147.7710 C   0  0  0  0  0  2  0  0  0  0  0  0
  162.4500  214.4250  145.9730 C   0  0  1  0  0  3  0  0  0  0  0  0
  161.4420  213.2980  145.8770 C   0  0  2  0  0  3  0  0  0  0  0  0
  161.9410  213.7530  147.2340 C   0  0  1  0  0  3  0  0  0  0  0  0
  162.5450  213.4190  144.8430 C   0  0  1  0  0  3  0  0  0  0  0  0
  161.9860  214.0310  143.5730 C   0  0  0  0  0  2  0  0  0  0  0  0
  162.5050  213.2980  142.3870 C   0  0  0  0  0  0  0  0  0  0  0  0
  162.3030  212.0610  142.2710 O   0  0  0  0  0  1  0  0  0  0  0  0
  163.2470  213.9720  141.4250 O   0  0  0  0  0  0  0  0  0  0  0  0
  1  5  1  0  0  0  0
  2  3  1  0  0  0  0
  2 14  1  0  0  0  0
  3  9  1  6  0  0  0
  3 15  1  0  0  0  0
  4 15  1  0  0  0  0
  4 13  1  6  0  0  0
  5 20  1  1  0  0  0
  5  6  1  0  0  0  0
  6 10  1  0  0  0  0
  6 17  1  6  0  0  0
  7 11  1  1  0  0  0
  7 10  1  0  0  0  0
  8  4  1  0  0  0  0
  9  8  1  0  0  0  0
 10 19  1  6  0  0  0
 12  2  2  0  0  0  0
 14  1  1  0  0  0  0
 14  7  1  0  0  0  0
 15 11  1  1  0  0  0
 17 16  1  0  0  0  0
 19 18  1  0  0  0  0
 22 21  2  0  0  0  0
 22 20  1  0  0  0  0
 23 22  1  0  0  0  0
 24 23  1  0  0  0  0
 25 27  1  0  0  0  0
 26 25  1  0  0  0  0
 26 27  1  0  0  0  0
 27 24  1  0  0  0  0
 28 26  1  0  0  0  0
 28 25  1  0  0  0  0
 29 28  1  0  0  0  0
 30 29  1  0  0  0  0
 31 30  1  0  0  0  0
 32 30  2  0  0  0  0
M  END
>  <MODEL>
6

>  <REMARK>
 VINA RESULT:      -5.7      2.759      7.610
  Name = 
  9 active torsions:
  status: ('A' for Active; 'I' for Inactive)
    1  A    between atoms: C_1  and  C_10
    2  A    between atoms: C_8  and  C_23
    3  A    between atoms: C_8  and  O_28
    4  A    between atoms: C_9  and  C_14
    5  A    between atoms: C_9  and  C_21
    6  A    between atoms: C_10  and  C_24
    7  A    between atoms: O_13  and  C_15
    8  A    between atoms: C_21  and  O_28
    9  A    between atoms: C_25  and  C_26
                            x       y       z     vdW  Elec       q    Type
                         _______ _______ _______ _____ _____    ______ ____

>  <TORSDO>
F 9

$$$$
=
 OpenBabel11062410533D

 32 36  0  0  1  0  0  0  0  0999 V2000
  162.5130  207.6620  149.4370 O   0  0  0  0  0  0  0  0  0  0  0  0
  161.5730  206.0270  147.9090 C   0  0  0  0  0  0  0  0  0  0  0  0
  160.9590  204.6770  147.9160 C   0  0  1  0  0  3  0  0  0  0  0  0
  161.1290  202.6450  149.0470 C   0  0  2  0  0  3  0  0  0  0  0  0
  161.8060  208.7260  150.0190 C   0  0  1  0  0  3  0  0  0  0  0  0
  161.2980  208.3270  151.4280 C   0  0  2  0  0  3  0  0  0  0  0  0
  160.7300  206.1690  150.2550 C   0  0  2  0  0  3  0  0  0  0  0  0
  161.4080  202.3750  147.6840 O   0  0  0  0  0  0  0  0  0  0  0  0
  161.5810  203.6260  147.0370 C   0  0  0  0  0  2  0  0  0  0  0  0
  161.1180  206.8000  151.5950 C   0  0  1  0  0  3  0  0  0  0  0  0
  160.6210  204.7370  150.3120 O   0  0  0  0  0  0  0  0  0  0  0  0
  162.0660  206.5440  146.8710 O   0  0  0  0  0  0  0  0  0  0  0  0
  159.7070  202.2070  149.3690 C   0  0  0  0  0  1  0  0  0  0  0  0
  161.5800  206.7090  149.1660 N   0  0  0  0  0  0  0  0  0  0  0  0
  161.3270  204.1280  149.2470 C   0  0  2  0  0  3  0  0  0  0  0  0
  160.3560  209.8830  153.1110 S   0  0  0  0  0  1  0  0  0  0  0  0
  160.0830  208.9690  151.6810 O   0  0  0  0  0  0  0  0  0  0  0  0
  162.3950  206.1900  153.6540 C   0  0  0  0  0  1  0  0  0  0  0  0
  162.3970  206.1740  152.1370 C   0  0  0  0  0  2  0  0  0  0  0  0
  162.7080  209.9490  150.0950 C   0  0  0  0  0  2  0  0  0  0  0  0
  161.2240  211.8050  150.1810 O   0  0  0  0  0  0  0  0  0  0  0  0
  162.0480  211.1420  149.4940 C   0  0  0  0  0  0  0  0  0  0  0  0
  162.3560  211.5190  148.1870 O   0  0  0  0  0  0  0  0  0  0  0  0
  162.0970  212.8300  147.7050 C   0  0  0  0  0  2  0  0  0  0  0  0
  159.6780  212.5560  147.1750 C   0  0  1  0  0  3  0  0  0  0  0  0
  160.0990  213.9310  146.7010 C   0  0  2  0  0  3  0  0  0  0  0  0
  161.0630  212.7660  146.5950 C   0  0  1  0  0  3  0  0  0  0  0  0
  159.2340  213.7880  147.9380 C   0  0  1  0  0  3  0  0  0  0  0  0
  157.7930  214.1060  147.5910 C   0  0  0  0  0  2  0  0  0  0  0  0
  156.9260  213.8920  148.7820 C   0  0  0  0  0  0  0  0  0  0  0  0
  155.7000  214.1690  148.7280 O   0  0  0  0  0  0  0  0  0  0  0  0
  157.4770  213.4220  149.9670 O   0  0  0  0  0  1  0  0  0  0  0  0
  1  5  1  0  0  0  0
  2  3  1  0  0  0  0
  2 14  1  0  0  0  0
  3  9  1  6  0  0  0
  3 15  1  0  0  0  0
  4 15  1  0  0  0  0
  4 13  1  6  0  0  0
  5 20  1  1  0  0  0
  5  6  1  0  0  0  0
  6 10  1  0  0  0  0
  6 17  1  6  0  0  0
  7 11  1  1  0  0  0
  7 10  1  0  0  0  0
  8  4  1  0  0  0  0
  9  8  1  0  0  0  0
 10 19  1  6  0  0  0
 12  2  2  0  0  0  0
 14  1  1  0  0  0  0
 14  7  1  0  0  0  0
 15 11  1  1  0  0  0
 17 16  1  0  0  0  0
 19 18  1  0  0  0  0
 22 20  1  0  0  0  0
 22 21  2  0  0  0  0
 23 22  1  0  0  0  0
 24 23  1  0  0  0  0
 25 28  1  0  0  0  0
 26 25  1  0  0  0  0
 26 28  1  0  0  0  0
 27 26  1  0  0  0  0
 27 25  1  0  0  0  0
 27 24  1  0  0  0  0
 29 28  1  0  0  0  0
 29 30  1  0  0  0  0
 30 32  1  0  0  0  0
 31 30  2  0  0  0  0
M  END
>  <MODEL>
7

>  <REMARK>
 VINA RESULT:      -5.2      2.291      7.812
  Name = 
  9 active torsions:
  status: ('A' for Active; 'I' for Inactive)
    1  A    between atoms: C_1  and  C_10
    2  A    between atoms: C_8  and  C_23
    3  A    between atoms: C_8  and  O_28
    4  A    between atoms: C_9  and  C_14
    5  A    between atoms: C_9  and  C_21
    6  A    between atoms: C_10  and  C_24
    7  A    between atoms: O_13  and  C_15
    8  A    between atoms: C_21  and  O_28
    9  A    between atoms: C_25  and  C_26
                            x       y       z     vdW  Elec       q    Type
                         _______ _______ _______ _____ _____    ______ ____

>  <TORSDO>
F 9

$$$$
=
 OpenBabel11062410533D

 32 36  0  0  1  0  0  0  0  0999 V2000
  162.2920  208.0630  149.3840 O   0  0  0  0  0  0  0  0  0  0  0  0
  161.3050  206.4060  147.9100 C   0  0  0  0  0  0  0  0  0  0  0  0
  160.8270  205.0020  147.9260 C   0  0  1  0  0  3  0  0  0  0  0  0
  161.3430  202.9530  148.9110 C   0  0  2  0  0  3  0  0  0  0  0  0
  161.5760  209.0260  150.1140 C   0  0  1  0  0  3  0  0  0  0  0  0
  161.3090  208.5200  151.5540 C   0  0  2  0  0  3  0  0  0  0  0  0
  160.7880  206.3660  150.3520 C   0  0  2  0  0  3  0  0  0  0  0  0
  161.4530  202.7690  147.5100 O   0  0  0  0  0  0  0  0  0  0  0  0
  161.4170  204.0560  146.9150 C   0  0  0  0  0  2  0  0  0  0  0  0
  161.2980  206.9770  151.6600 C   0  0  1  0  0  3  0  0  0  0  0  0
  160.8230  204.9300  150.3450 O   0  0  0  0  0  0  0  0  0  0  0  0
  161.5990  207.0120  146.8440 O   0  0  0  0  0  0  0  0  0  0  0  0
  160.0270  202.3610  149.3980 C   0  0  0  0  0  1  0  0  0  0  0  0
  161.4230  207.0330  149.1900 N   0  0  0  0  0  0  0  0  0  0  0  0
  161.4270  204.4390  149.1630 C   0  0  2  0  0  3  0  0  0  0  0  0
  160.4550  209.8260  153.4790 S   0  0  0  0  0  1  0  0  0  0  0  0
  160.0870  209.0260  152.0030 O   0  0  0  0  0  0  0  0  0  0  0  0
  162.6270  205.0260  152.4770 C   0  0  0  0  0  1  0  0  0  0  0  0
  162.6940  206.4600  151.9900 C   0  0  0  0  0  2  0  0  0  0  0  0
  162.3620  210.3280  150.1340 C   0  0  0  0  0  2  0  0  0  0  0  0
  161.8490  211.0660  147.9320 O   0  0  0  0  0  0  0  0  0  0  0  0
  161.7970  211.3120  149.1670 C   0  0  0  0  0  0  0  0  0  0  0  0
  161.2080  212.4850  149.6380 O   0  0  0  0  0  0  0  0  0  0  0  0
  160.4870  212.5230  150.8600 C   0  0  0  0  0  2  0  0  0  0  0  0
  158.1190  213.0550  151.4210 C   0  0  1  0  0  3  0  0  0  0  0  0
  158.9980  214.0470  152.1540 C   0  0  2  0  0  3  0  0  0  0  0  0
  159.3890  213.5680  150.7700 C   0  0  1  0  0  3  0  0  0  0  0  0
  158.3070  212.9360  152.9200 C   0  0  1  0  0  3  0  0  0  0  0  0
  157.0870  213.4890  153.6290 C   0  0  0  0  0  2  0  0  0  0  0  0
  156.5980  212.5100  154.6370 C   0  0  0  0  0  0  0  0  0  0  0  0
  155.6010  212.7860  155.3540 O   0  0  0  0  0  1  0  0  0  0  0  0
  157.2650  211.3040  154.8140 O   0  0  0  0  0  0  0  0  0  0  0  0
  1  5  1  0  0  0  0
  2  3  1  0  0  0  0
  2 14  1  0  0  0  0
  3  9  1  6  0  0  0
  3 15  1  0  0  0  0
  4 15  1  0  0  0  0
  4 13  1  6  0  0  0
  5 20  1  1  0  0  0
  5  6  1  0  0  0  0
  6 10  1  0  0  0  0
  6 17  1  6  0  0  0
  7 11  1  1  0  0  0
  7 10  1  0  0  0  0
  8  4  1  0  0  0  0
  9  8  1  0  0  0  0
 10 19  1  6  0  0  0
 12  2  2  0  0  0  0
 14  1  1  0  0  0  0
 14  7  1  0  0  0  0
 15 11  1  1  0  0  0
 17 16  1  0  0  0  0
 19 18  1  0  0  0  0
 21 22  2  0  0  0  0
 22 23  1  0  0  0  0
 22 20  1  0  0  0  0
 23 24  1  0  0  0  0
 25 26  1  0  0  0  0
 25 28  1  0  0  0  0
 26 28  1  0  0  0  0
 27 24  1  0  0  0  0
 27 25  1  0  0  0  0
 27 26  1  0  0  0  0
 28 29  1  0  0  0  0
 29 30  1  0  0  0  0
 30 32  2  0  0  0  0
 30 31  1  0  0  0  0
M  END
>  <MODEL>
8

>  <REMARK>
 VINA RESULT:      -4.9      2.301      8.123
  Name = 
  9 active torsions:
  status: ('A' for Active; 'I' for Inactive)
    1  A    between atoms: C_1  and  C_10
    2  A    between atoms: C_8  and  C_23
    3  A    between atoms: C_8  and  O_28
    4  A    between atoms: C_9  and  C_14
    5  A    between atoms: C_9  and  C_21
    6  A    between atoms: C_10  and  C_24
    7  A    between atoms: O_13  and  C_15
    8  A    between atoms: C_21  and  O_28
    9  A    between atoms: C_25  and  C_26
                            x       y       z     vdW  Elec       q    Type
                         _______ _______ _______ _____ _____    ______ ____

>  <TORSDO>
F 9

$$$$
=
 OpenBabel11062410533D

 32 36  0  0  1  0  0  0  0  0999 V2000
  160.4660  206.0790  150.7240 O   0  0  0  0  0  0  0  0  0  0  0  0
  161.1090  203.7560  151.0140 C   0  0  0  0  0  0  0  0  0  0  0  0
  161.3980  202.5410  150.2130 C   0  0  1  0  0  3  0  0  0  0  0  0
  160.6950  201.4860  148.2570 C   0  0  2  0  0  3  0  0  0  0  0  0
  161.3570  207.1620  150.6500 C   0  0  1  0  0  3  0  0  0  0  0  0
  161.6670  207.5030  149.1700 C   0  0  2  0  0  3  0  0  0  0  0  0
  161.8050  204.9940  148.9610 C   0  0  2  0  0  3  0  0  0  0  0  0
  160.4530  200.5780  149.3170 O   0  0  0  0  0  0  0  0  0  0  0  0
  160.6120  201.2980  150.5290 C   0  0  0  0  0  2  0  0  0  0  0  0
  161.4830  206.2950  148.2210 C   0  0  1  0  0  3  0  0  0  0  0  0
  161.5810  203.8190  148.1650 O   0  0  0  0  0  0  0  0  0  0  0  0
  160.8150  203.7080  152.2390 O   0  0  0  0  0  0  0  0  0  0  0  0
  161.9560  201.0690  147.5110 C   0  0  0  0  0  1  0  0  0  0  0  0
  161.1740  204.9950  150.3030 N   0  0  0  0  0  0  0  0  0  0  0  0
  160.8270  202.8550  148.8770 C   0  0  2  0  0  3  0  0  0  0  0  0
  162.8130  209.6340  148.6360 S   0  0  0  0  0  1  0  0  0  0  0  0
  162.9770  207.9780  149.0700 O   0  0  0  0  0  0  0  0  0  0  0  0
  160.0810  206.2040  146.1560 C   0  0  0  0  0  1  0  0  0  0  0  0
  160.0620  206.2680  147.6710 C   0  0  0  0  0  2  0  0  0  0  0  0
  160.7540  208.3600  151.3670 C   0  0  0  0  0  2  0  0  0  0  0  0
  160.9440  207.3890  153.5300 O   0  0  0  0  0  0  0  0  0  0  0  0
  161.1660  208.3930  152.8000 C   0  0  0  0  0  0  0  0  0  0  0  0
  161.7990  209.5240  153.3120 O   0  0  0  0  0  0  0  0  0  0  0  0
  161.1280  210.7700  153.4280 C   0  0  0  0  0  2  0  0  0  0  0  0
  159.6020  211.8980  155.0420 C   0  0  1  0  0  3  0  0  0  0  0  0
  159.5720  210.4140  155.3420 C   0  0  2  0  0  3  0  0  0  0  0  0
  160.8630  211.0690  154.8930 C   0  0  1  0  0  3  0  0  0  0  0  0
  158.3840  211.0750  154.6710 C   0  0  1  0  0  3  0  0  0  0  0  0
  157.2870  211.3060  155.6910 C   0  0  0  0  0  2  0  0  0  0  0  0
  155.9650  211.3640  155.0090 C   0  0  0  0  0  0  0  0  0  0  0  0
  155.2090  210.3590  155.0120 O   0  0  0  0  0  1  0  0  0  0  0  0
  155.5820  212.5170  154.3360 O   0  0  0  0  0  0  0  0  0  0  0  0
  2 12  2  0  0  0  0
  3  9  1  1  0  0  0
  3  2  1  0  0  0  0
  4 13  1  1  0  0  0
  4 15  1  0  0  0  0
  4  8  1  0  0  0  0
  5  1  1  0  0  0  0
  5 20  1  6  0  0  0
  6 17  1  1  0  0  0
  6  5  1  0  0  0  0
  7 11  1  6  0  0  0
  7 14  1  0  0  0  0
  8  9  1  0  0  0  0
 10 19  1  1  0  0  0
 10  7  1  0  0  0  0
 10  6  1  0  0  0  0
 14  1  1  0  0  0  0
 14  2  1  0  0  0  0
 15 11  1  6  0  0  0
 15  3  1  0  0  0  0
 16 17  1  0  0  0  0
 18 19  1  0  0  0  0
 20 22  1  0  0  0  0
 22 23  1  0  0  0  0
 22 21  2  0  0  0  0
 23 24  1  0  0  0  0
 24 27  1  0  0  0  0
 25 26  1  0  0  0  0
 27 25  1  0  0  0  0
 27 26  1  0  0  0  0
 28 25  1  0  0  0  0
 28 26  1  0  0  0  0
 28 29  1  0  0  0  0
 30 31  1  0  0  0  0
 30 29  1  0  0  0  0
 32 30  2  0  0  0  0
M  END
>  <MODEL>
9

>  <REMARK>
 VINA RESULT:      -4.8      3.097      8.642
  Name = 
  9 active torsions:
  status: ('A' for Active; 'I' for Inactive)
    1  A    between atoms: C_1  and  C_10
    2  A    between atoms: C_8  and  C_23
    3  A    between atoms: C_8  and  O_28
    4  A    between atoms: C_9  and  C_14
    5  A    between atoms: C_9  and  C_21
    6  A    between atoms: C_10  and  C_24
    7  A    between atoms: O_13  and  C_15
    8  A    between atoms: C_21  and  O_28
    9  A    between atoms: C_25  and  C_26
                            x       y       z     vdW  Elec       q    Type
                         _______ _______ _______ _____ _____    ______ ____

>  <TORSDO>
F 9

$$$$
