=
 OpenBabel11062409383D

 34 37  0  0  0  0  0  0  0  0999 V2000
  161.6270  205.4040  149.7870 C   0  0  0  0  0  0  0  0  0  0  0  0
  161.1740  202.6820  147.2860 C   0  0  0  0  0  3  0  0  0  0  0  0
  161.5300  205.0510  146.9930 C   0  0  0  0  0  3  0  0  0  0  0  0
  161.2420  206.5290  151.9130 C   0  0  0  0  0  0  0  0  0  0  0  0
  161.7230  205.5430  151.2160 N   0  0  0  0  0  0  0  0  0  0  0  0
  161.3110  208.5190  150.4390 C   0  0  0  0  0  2  0  0  0  0  0  0
  163.1280  208.6200  148.7570 C   0  0  0  0  0  1  0  0  0  0  0  0
  160.4200  207.5860  151.2440 C   0  0  0  0  0  2  0  0  0  0  0  0
  161.4620  206.5320  153.3310 N   0  0  0  0  0  2  0  0  0  0  0  0
  161.7470  206.3170  147.5320 C   0  0  0  0  0  3  0  0  0  0  0  0
  161.7950  206.5150  148.9200 C   0  0  0  0  0  0  0  0  0  0  0  0
  162.1130  207.8250  149.4290 N   0  0  0  0  0  0  0  0  0  0  0  0
  161.0280  201.5710  148.1250 C   0  0  0  0  0  0  0  0  0  0  0  0
  161.0880  201.7300  149.5120 C   0  0  0  0  0  3  0  0  0  0  0  0
  161.3750  203.9520  147.8330 C   0  0  0  0  0  0  0  0  0  0  0  0
  161.2880  202.9980  150.0650 C   0  0  0  0  0  3  0  0  0  0  0  0
  161.4350  204.1210  149.2380 C   0  0  0  0  0  0  0  0  0  0  0  0
  159.6380  208.2300  156.1010 C   0  0  0  0  0  3  0  0  0  0  0  0
  161.7990  208.7450  154.4100 C   0  0  0  0  0  3  0  0  0  0  0  0
  160.3410  209.4340  156.2240 C   0  0  0  0  0  0  0  0  0  0  0  0
  161.4240  209.6980  155.3630 C   0  0  0  0  0  0  0  0  0  0  0  0
  161.0960  207.5370  154.2880 C   0  0  0  0  0  0  0  0  0  0  0  0
  160.0170  207.2880  155.1410 C   0  0  0  0  0  3  0  0  0  0  0  0
  162.2120  210.9620  155.4630 C   0  0  0  0  0  2  0  0  0  0  0  0
  163.3900  210.7270  156.1750 O   0  0  0  0  0  1  0  0  0  0  0  0
  159.8980  210.4250  157.2510 C   0  0  0  0  0  2  0  0  0  0  0  0
  158.6040  211.0900  156.8080 C   0  0  0  0  0  2  0  0  0  0  0  0
  158.9020  212.2830  155.9610 C   0  0  0  0  0  0  0  0  0  0  0  0
  158.2440  212.4310  154.6330 C   0  0  0  0  0  1  0  0  0  0  0  0
  159.6630  213.1480  156.3620 O   0  0  0  0  0  0  0  0  0  0  0  0
  160.8250  200.2120  147.5410 C   0  0  0  0  0  2  0  0  0  0  0  0
  161.4720  198.7660  145.6150 C   0  0  0  0  0  1  0  0  0  0  0  0
  160.0430  200.7460  145.2540 C   0  0  0  0  0  1  0  0  0  0  0  0
  161.1930  200.1870  146.0660 C   0  0  0  0  0  3  0  0  0  0  0  0
  1  5  1  0  0  0  0
  2 15  2  0  0  0  0
  2 13  1  0  0  0  0
  3 10  2  0  0  0  0
  3 15  1  0  0  0  0
  4  9  1  0  0  0  0
  5  4  2  0  0  0  0
  6  8  1  0  0  0  0
  7 12  1  0  0  0  0
  8  4  1  0  0  0  0
  9 22  1  0  0  0  0
 10 11  1  0  0  0  0
 11 12  1  0  0  0  0
 11  1  2  0  0  0  0
 12  6  1  0  0  0  0
 13 14  2  0  0  0  0
 14 16  1  0  0  0  0
 15 17  1  0  0  0  0
 17  1  1  0  0  0  0
 17 16  2  0  0  0  0
 18 20  1  0  0  0  0
 19 21  1  0  0  0  0
 20 26  1  0  0  0  0
 21 24  1  0  0  0  0
 21 20  2  0  0  0  0
 22 19  2  0  0  0  0
 22 23  1  0  0  0  0
 23 18  2  0  0  0  0
 24 25  1  0  0  0  0
 27 26  1  0  0  0  0
 28 30  2  0  0  0  0
 28 27  1  0  0  0  0
 29 28  1  0  0  0  0
 31 13  1  0  0  0  0
 32 34  1  0  0  0  0
 33 34  1  0  0  0  0
 34 31  1  0  0  0  0
M  END
>  <MODEL>
1

>  <REMARK>
 VINA RESULT:      -6.6      0.000      0.000
  Name = 
  7 active torsions:
  status: ('A' for Active; 'I' for Inactive)
    1  A    between atoms: C_7  and  C_11
    2  A    between atoms: C_7  and  C_14
    3  A    between atoms: C_14  and  C_16
    4  A    between atoms: N_18  and  C_30
    5  A    between atoms: C_23  and  C_24
    6  A    between atoms: C_23  and  C_25
    7  A    between atoms: C_26  and  C_28
                            x       y       z     vdW  Elec       q    Type
                         _______ _______ _______ _____ _____    ______ ____

>  <TORSDO>
F 7

$$$$
=
 OpenBabel11062409383D

 34 37  0  0  0  0  0  0  0  0999 V2000
  160.8850  208.7640  152.3200 C   0  0  0  0  0  0  0  0  0  0  0  0
  159.5620  211.4870  154.4880 C   0  0  0  0  0  3  0  0  0  0  0  0
  160.2110  209.2230  155.0170 C   0  0  0  0  0  3  0  0  0  0  0  0
  161.0830  207.4960  150.2490 C   0  0  0  0  0  0  0  0  0  0  0  0
  161.2690  208.5770  150.9450 N   0  0  0  0  0  0  0  0  0  0  0  0
  161.1730  205.6130  151.8560 C   0  0  0  0  0  2  0  0  0  0  0  0
  162.6350  205.8850  153.8390 C   0  0  0  0  0  1  0  0  0  0  0  0
  160.3190  206.3510  150.8380 C   0  0  0  0  0  2  0  0  0  0  0  0
  161.5640  207.4650  148.8980 N   0  0  0  0  0  2  0  0  0  0  0  0
  160.7150  207.9860  154.6220 C   0  0  0  0  0  3  0  0  0  0  0  0
  161.0530  207.7360  153.2830 C   0  0  0  0  0  0  0  0  0  0  0  0
  161.6560  206.4730  152.9390 N   0  0  0  0  0  0  0  0  0  0  0  0
  159.4100  212.5200  153.5560 C   0  0  0  0  0  0  0  0  0  0  0  0
  159.7540  212.3100  152.2190 C   0  0  0  0  0  3  0  0  0  0  0  0
  160.0520  210.2430  154.0830 C   0  0  0  0  0  0  0  0  0  0  0  0
  160.2450  211.0680  151.8060 C   0  0  0  0  0  3  0  0  0  0  0  0
  160.4010  210.0230  152.7280 C   0  0  0  0  0  0  0  0  0  0  0  0
  161.9960  204.0280  147.5260 C   0  0  0  0  0  3  0  0  0  0  0  0
  161.0410  206.5050  146.6650 C   0  0  0  0  0  3  0  0  0  0  0  0
  161.4940  204.1620  146.2270 C   0  0  0  0  0  0  0  0  0  0  0  0
  161.0220  205.4150  145.7900 C   0  0  0  0  0  0  0  0  0  0  0  0
  161.5420  206.3700  147.9680 C   0  0  0  0  0  0  0  0  0  0  0  0
  162.0170  205.1250  148.3910 C   0  0  0  0  0  3  0  0  0  0  0  0
  160.4650  205.6050  144.4180 C   0  0  0  0  0  2  0  0  0  0  0  0
  161.5080  205.7560  143.5030 O   0  0  0  0  0  1  0  0  0  0  0  0
  161.5020  202.9700  145.3250 C   0  0  0  0  0  2  0  0  0  0  0  0
  160.3580  202.0370  145.6850 C   0  0  0  0  0  2  0  0  0  0  0  0
  160.8100  201.0310  146.6920 C   0  0  0  0  0  0  0  0  0  0  0  0
  160.4920  201.2320  148.1330 C   0  0  0  0  0  1  0  0  0  0  0  0
  161.4180  200.0340  146.3370 O   0  0  0  0  0  0  0  0  0  0  0  0
  158.8970  213.8530  153.9920 C   0  0  0  0  0  2  0  0  0  0  0  0
  157.2920  214.4530  155.8030 C   0  0  0  0  0  1  0  0  0  0  0  0
  156.5520  214.4280  153.4480 C   0  0  0  0  0  1  0  0  0  0  0  0
  157.4550  213.7600  154.4640 C   0  0  0  0  0  3  0  0  0  0  0  0
  1 17  2  0  0  0  0
  1 11  1  0  0  0  0
  4  8  1  0  0  0  0
  4  5  2  0  0  0  0
  5  1  1  0  0  0  0
  6 12  1  0  0  0  0
  8  6  1  0  0  0  0
  9  4  1  0  0  0  0
 10  3  1  0  0  0  0
 11 10  2  0  0  0  0
 12 11  1  0  0  0  0
 12  7  1  0  0  0  0
 13 31  1  0  0  0  0
 13  2  2  0  0  0  0
 14 13  1  0  0  0  0
 15  2  1  0  0  0  0
 15  3  2  0  0  0  0
 16 14  2  0  0  0  0
 16 17  1  0  0  0  0
 17 15  1  0  0  0  0
 18 23  1  0  0  0  0
 19 22  1  0  0  0  0
 20 18  2  0  0  0  0
 21 20  1  0  0  0  0
 21 19  2  0  0  0  0
 22 23  2  0  0  0  0
 22  9  1  0  0  0  0
 24 21  1  0  0  0  0
 25 24  1  0  0  0  0
 26 27  1  0  0  0  0
 26 20  1  0  0  0  0
 27 28  1  0  0  0  0
 28 29  1  0  0  0  0
 30 28  2  0  0  0  0
 31 34  1  0  0  0  0
 33 34  1  0  0  0  0
 34 32  1  0  0  0  0
M  END
>  <MODEL>
2

>  <REMARK>
 VINA RESULT:      -5.7      3.831     10.739
  Name = 
  7 active torsions:
  status: ('A' for Active; 'I' for Inactive)
    1  A    between atoms: C_7  and  C_11
    2  A    between atoms: C_7  and  C_14
    3  A    between atoms: C_14  and  C_16
    4  A    between atoms: N_18  and  C_30
    5  A    between atoms: C_23  and  C_24
    6  A    between atoms: C_23  and  C_25
    7  A    between atoms: C_26  and  C_28
                            x       y       z     vdW  Elec       q    Type
                         _______ _______ _______ _____ _____    ______ ____

>  <TORSDO>
F 7

$$$$
=
 OpenBabel11062409383D

 34 37  0  0  0  0  0  0  0  0999 V2000
  160.6680  209.3060  152.9750 C   0  0  0  0  0  0  0  0  0  0  0  0
  159.0990  212.1200  154.8410 C   0  0  0  0  0  3  0  0  0  0  0  0
  159.7590  209.9170  155.5710 C   0  0  0  0  0  3  0  0  0  0  0  0
  161.0720  207.9140  151.0170 C   0  0  0  0  0  0  0  0  0  0  0  0
  161.1700  209.0430  151.6510 N   0  0  0  0  0  0  0  0  0  0  0  0
  161.0750  206.1420  152.7480 C   0  0  0  0  0  2  0  0  0  0  0  0
  162.3590  206.5880  154.8210 C   0  0  0  0  0  1  0  0  0  0  0  0
  160.2910  206.7860  151.6160 C   0  0  0  0  0  2  0  0  0  0  0  0
  161.6640  207.8100  149.7140 N   0  0  0  0  0  2  0  0  0  0  0  0
  160.3270  208.6730  155.3020 C   0  0  0  0  0  3  0  0  0  0  0  0
  160.7820  208.3480  154.0150 C   0  0  0  0  0  0  0  0  0  0  0  0
  161.4440  207.0850  153.8060 N   0  0  0  0  0  0  0  0  0  0  0  0
  158.9980  213.0860  153.8320 C   0  0  0  0  0  0  0  0  0  0  0  0
  159.4580  212.8000  152.5440 C   0  0  0  0  0  3  0  0  0  0  0  0
  159.6530  210.8690  154.5610 C   0  0  0  0  0  0  0  0  0  0  0  0
  160.0140  211.5510  152.2570 C   0  0  0  0  0  3  0  0  0  0  0  0
  160.1200  210.5730  153.2570 C   0  0  0  0  0  0  0  0  0  0  0  0
  162.4000  205.7160  146.7220 C   0  0  0  0  0  3  0  0  0  0  0  0
  161.3370  205.3850  149.2810 C   0  0  0  0  0  3  0  0  0  0  0  0
  161.9920  204.4450  147.1420 C   0  0  0  0  0  0  0  0  0  0  0  0
  161.4450  204.2810  148.4290 C   0  0  0  0  0  0  0  0  0  0  0  0
  161.7480  206.6580  148.8610 C   0  0  0  0  0  0  0  0  0  0  0  0
  162.2810  206.8140  147.5780 C   0  0  0  0  0  3  0  0  0  0  0  0
  161.0060  202.9440  148.9280 C   0  0  0  0  0  2  0  0  0  0  0  0
  160.6000  203.0480  150.2590 O   0  0  0  0  0  1  0  0  0  0  0  0
  162.1190  203.2980  146.1930 C   0  0  0  0  0  2  0  0  0  0  0  0
  160.8850  203.2150  145.3080 C   0  0  0  0  0  2  0  0  0  0  0  0
  160.3410  201.8250  145.3120 C   0  0  0  0  0  0  0  0  0  0  0  0
  160.8870  200.8180  146.2650 C   0  0  0  0  0  1  0  0  0  0  0  0
  159.4360  201.5150  144.5550 O   0  0  0  0  0  0  0  0  0  0  0  0
  158.4170  214.4280  154.1340 C   0  0  0  0  0  2  0  0  0  0  0  0
  156.6480  214.4520  152.3760 C   0  0  0  0  0  1  0  0  0  0  0  0
  156.2830  213.2240  154.4860 C   0  0  0  0  0  1  0  0  0  0  0  0
  156.9200  214.4510  153.8690 C   0  0  0  0  0  3  0  0  0  0  0  0
  1 17  2  0  0  0  0
  1 11  1  0  0  0  0
  4  8  1  0  0  0  0
  4  5  2  0  0  0  0
  5  1  1  0  0  0  0
  6 12  1  0  0  0  0
  8  6  1  0  0  0  0
  9  4  1  0  0  0  0
 10  3  1  0  0  0  0
 11 10  2  0  0  0  0
 12 11  1  0  0  0  0
 12  7  1  0  0  0  0
 13 31  1  0  0  0  0
 13  2  2  0  0  0  0
 14 13  1  0  0  0  0
 15  2  1  0  0  0  0
 15  3  2  0  0  0  0
 16 14  2  0  0  0  0
 16 17  1  0  0  0  0
 17 15  1  0  0  0  0
 18 20  2  0  0  0  0
 18 23  1  0  0  0  0
 20 21  1  0  0  0  0
 21 24  1  0  0  0  0
 21 19  2  0  0  0  0
 22 19  1  0  0  0  0
 22  9  1  0  0  0  0
 23 22  2  0  0  0  0
 24 25  1  0  0  0  0
 26 20  1  0  0  0  0
 27 28  1  0  0  0  0
 27 26  1  0  0  0  0
 28 29  1  0  0  0  0
 30 28  2  0  0  0  0
 32 34  1  0  0  0  0
 34 31  1  0  0  0  0
 34 33  1  0  0  0  0
M  END
>  <MODEL>
3

>  <REMARK>
 VINA RESULT:      -5.4      3.542     10.630
  Name = 
  7 active torsions:
  status: ('A' for Active; 'I' for Inactive)
    1  A    between atoms: C_7  and  C_11
    2  A    between atoms: C_7  and  C_14
    3  A    between atoms: C_14  and  C_16
    4  A    between atoms: N_18  and  C_30
    5  A    between atoms: C_23  and  C_24
    6  A    between atoms: C_23  and  C_25
    7  A    between atoms: C_26  and  C_28
                            x       y       z     vdW  Elec       q    Type
                         _______ _______ _______ _____ _____    ______ ____

>  <TORSDO>
F 7

$$$$
=
 OpenBabel11062409383D

 34 37  0  0  0  0  0  0  0  0999 V2000
  161.2430  208.3340  152.0590 C   0  0  0  0  0  0  0  0  0  0  0  0
  161.3630  210.6810  154.9480 C   0  0  0  0  0  3  0  0  0  0  0  0
  162.2870  210.8650  152.7260 C   0  0  0  0  0  3  0  0  0  0  0  0
  161.2040  206.1390  151.0040 C   0  0  0  0  0  0  0  0  0  0  0  0
  160.6530  207.0620  151.7340 N   0  0  0  0  0  0  0  0  0  0  0  0
  162.6580  207.3140  149.3790 C   0  0  0  0  0  2  0  0  0  0  0  0
  161.9460  209.5720  148.6490 C   0  0  0  0  0  1  0  0  0  0  0  0
  162.6100  206.3100  150.5190 C   0  0  0  0  0  2  0  0  0  0  0  0
  160.4590  204.9400  150.7450 N   0  0  0  0  0  2  0  0  0  0  0  0
  162.4780  210.3430  151.4480 C   0  0  0  0  0  3  0  0  0  0  0  0
  161.9690  209.0830  151.0980 C   0  0  0  0  0  0  0  0  0  0  0  0
  162.1130  208.6240  149.7390 N   0  0  0  0  0  0  0  0  0  0  0  0
  160.6310  209.9670  155.9030 C   0  0  0  0  0  0  0  0  0  0  0  0
  160.0960  208.7170  155.5810 C   0  0  0  0  0  3  0  0  0  0  0  0
  161.5660  210.1450  153.6730 C   0  0  0  0  0  0  0  0  0  0  0  0
  160.2950  208.1740  154.3080 C   0  0  0  0  0  3  0  0  0  0  0  0
  161.0280  208.8780  153.3410 C   0  0  0  0  0  0  0  0  0  0  0  0
  161.2100  201.4370  149.7220 C   0  0  0  0  0  3  0  0  0  0  0  0
  161.0980  203.9680  148.5480 C   0  0  0  0  0  3  0  0  0  0  0  0
  161.4820  201.5800  148.3570 C   0  0  0  0  0  0  0  0  0  0  0  0
  161.4360  202.8580  147.7680 C   0  0  0  0  0  0  0  0  0  0  0  0
  160.8230  203.8250  149.9160 C   0  0  0  0  0  0  0  0  0  0  0  0
  160.8790  202.5540  150.4950 C   0  0  0  0  0  3  0  0  0  0  0  0
  161.7060  203.0600  146.3130 C   0  0  0  0  0  2  0  0  0  0  0  0
  162.3570  204.2790  146.1200 O   0  0  0  0  0  1  0  0  0  0  0  0
  161.8480  200.3660  147.5650 C   0  0  0  0  0  2  0  0  0  0  0  0
  160.5970  199.7290  146.9810 C   0  0  0  0  0  2  0  0  0  0  0  0
  160.7530  199.5440  145.5080 C   0  0  0  0  0  0  0  0  0  0  0  0
  161.4560  198.3410  144.9820 C   0  0  0  0  0  1  0  0  0  0  0  0
  160.2850  200.3620  144.7320 O   0  0  0  0  0  0  0  0  0  0  0  0
  160.4040  210.5450  157.2610 C   0  0  0  0  0  2  0  0  0  0  0  0
  160.0810  212.9740  156.7940 C   0  0  0  0  0  1  0  0  0  0  0  0
  158.3130  211.3530  156.2090 C   0  0  0  0  0  1  0  0  0  0  0  0
  159.3980  211.6850  157.2120 C   0  0  0  0  0  3  0  0  0  0  0  0
  1 17  1  0  0  0  0
  2 13  1  0  0  0  0
  3 15  1  0  0  0  0
  4  5  2  0  0  0  0
  5  1  1  0  0  0  0
  6 12  1  0  0  0  0
  6  8  1  0  0  0  0
  7 12  1  0  0  0  0
  8  4  1  0  0  0  0
  9  4  1  0  0  0  0
 10  3  2  0  0  0  0
 11 10  1  0  0  0  0
 11  1  2  0  0  0  0
 12 11  1  0  0  0  0
 13 31  1  0  0  0  0
 14 13  2  0  0  0  0
 15  2  2  0  0  0  0
 16 14  1  0  0  0  0
 17 15  1  0  0  0  0
 17 16  2  0  0  0  0
 18 23  1  0  0  0  0
 19 22  1  0  0  0  0
 20 18  2  0  0  0  0
 21 20  1  0  0  0  0
 21 19  2  0  0  0  0
 22 23  2  0  0  0  0
 22  9  1  0  0  0  0
 24 21  1  0  0  0  0
 25 24  1  0  0  0  0
 26 20  1  0  0  0  0
 27 26  1  0  0  0  0
 28 27  1  0  0  0  0
 29 28  1  0  0  0  0
 30 28  2  0  0  0  0
 32 34  1  0  0  0  0
 33 34  1  0  0  0  0
 34 31  1  0  0  0  0
M  END
>  <MODEL>
4

>  <REMARK>
 VINA RESULT:      -5.1      3.602     10.469
  Name = 
  7 active torsions:
  status: ('A' for Active; 'I' for Inactive)
    1  A    between atoms: C_7  and  C_11
    2  A    between atoms: C_7  and  C_14
    3  A    between atoms: C_14  and  C_16
    4  A    between atoms: N_18  and  C_30
    5  A    between atoms: C_23  and  C_24
    6  A    between atoms: C_23  and  C_25
    7  A    between atoms: C_26  and  C_28
                            x       y       z     vdW  Elec       q    Type
                         _______ _______ _______ _____ _____    ______ ____

>  <TORSDO>
F 7

$$$$
=
 OpenBabel11062409383D

 34 37  0  0  0  0  0  0  0  0999 V2000
  160.1580  210.0130  154.5810 C   0  0  0  0  0  0  0  0  0  0  0  0
  158.1730  212.2880  156.7610 C   0  0  0  0  0  3  0  0  0  0  0  0
  159.3080  210.2170  157.2610 C   0  0  0  0  0  3  0  0  0  0  0  0
  160.7100  208.8920  152.4900 C   0  0  0  0  0  0  0  0  0  0  0  0
  160.6180  209.9640  153.2190 N   0  0  0  0  0  0  0  0  0  0  0  0
  161.1790  207.0290  154.0540 C   0  0  0  0  0  2  0  0  0  0  0  0
  162.4730  207.5650  156.0980 C   0  0  0  0  0  1  0  0  0  0  0  0
  160.2120  207.5830  153.0210 C   0  0  0  0  0  2  0  0  0  0  0  0
  161.2280  209.0150  151.1580 N   0  0  0  0  0  2  0  0  0  0  0  0
  160.0970  209.1420  156.8560 C   0  0  0  0  0  3  0  0  0  0  0  0
  160.5270  209.0210  155.5260 C   0  0  0  0  0  0  0  0  0  0  0  0
  161.4150  207.9410  155.1750 N   0  0  0  0  0  0  0  0  0  0  0  0
  157.8170  213.2880  155.8490 C   0  0  0  0  0  0  0  0  0  0  0  0
  158.2430  213.2050  154.5210 C   0  0  0  0  0  3  0  0  0  0  0  0
  158.9500  211.2030  156.3450 C   0  0  0  0  0  0  0  0  0  0  0  0
  159.0200  212.1240  154.0990 C   0  0  0  0  0  3  0  0  0  0  0  0
  159.3840  211.1130  155.0010 C   0  0  0  0  0  0  0  0  0  0  0  0
  162.3350  207.3450  148.0170 C   0  0  0  0  0  3  0  0  0  0  0  0
  161.2270  206.6250  150.4760 C   0  0  0  0  0  3  0  0  0  0  0  0
  162.0750  205.9980  148.2900 C   0  0  0  0  0  0  0  0  0  0  0  0
  161.5060  205.6360  149.5270 C   0  0  0  0  0  0  0  0  0  0  0  0
  161.4890  207.9760  150.2030 C   0  0  0  0  0  0  0  0  0  0  0  0
  162.0460  208.3260  148.9690 C   0  0  0  0  0  3  0  0  0  0  0  0
  161.2210  204.2110  149.8710 C   0  0  0  0  0  2  0  0  0  0  0  0
  160.2430  204.1530  150.8640 O   0  0  0  0  0  1  0  0  0  0  0  0
  162.3820  204.9780  147.2420 C   0  0  0  0  0  2  0  0  0  0  0  0
  162.3590  205.6230  145.8660 C   0  0  0  0  0  2  0  0  0  0  0  0
  161.0770  205.3060  145.1690 C   0  0  0  0  0  0  0  0  0  0  0  0
  160.7450  203.8920  144.8370 C   0  0  0  0  0  1  0  0  0  0  0  0
  160.2900  206.1960  144.8920 O   0  0  0  0  0  0  0  0  0  0  0  0
  156.9970  214.4530  156.2960 C   0  0  0  0  0  2  0  0  0  0  0  0
  155.1980  214.2300  154.5830 C   0  0  0  0  0  1  0  0  0  0  0  0
  155.1440  212.8460  156.6270 C   0  0  0  0  0  1  0  0  0  0  0  0
  155.5150  214.2030  156.0670 C   0  0  0  0  0  3  0  0  0  0  0  0
  1 17  2  0  0  0  0
  1 11  1  0  0  0  0
  4  8  1  0  0  0  0
  4  5  2  0  0  0  0
  5  1  1  0  0  0  0
  6 12  1  0  0  0  0
  8  6  1  0  0  0  0
  9  4  1  0  0  0  0
 10  3  1  0  0  0  0
 11 10  2  0  0  0  0
 12 11  1  0  0  0  0
 12  7  1  0  0  0  0
 13 31  1  0  0  0  0
 13  2  2  0  0  0  0
 14 13  1  0  0  0  0
 15  2  1  0  0  0  0
 15  3  2  0  0  0  0
 16 14  2  0  0  0  0
 16 17  1  0  0  0  0
 17 15  1  0  0  0  0
 18 20  2  0  0  0  0
 18 23  1  0  0  0  0
 20 21  1  0  0  0  0
 21 24  1  0  0  0  0
 21 19  2  0  0  0  0
 22 19  1  0  0  0  0
 22  9  1  0  0  0  0
 23 22  2  0  0  0  0
 24 25  1  0  0  0  0
 26 20  1  0  0  0  0
 27 26  1  0  0  0  0
 28 27  1  0  0  0  0
 29 28  1  0  0  0  0
 30 28  2  0  0  0  0
 32 34  1  0  0  0  0
 34 31  1  0  0  0  0
 34 33  1  0  0  0  0
M  END
>  <MODEL>
5

>  <REMARK>
 VINA RESULT:      -4.9      3.216     10.731
  Name = 
  7 active torsions:
  status: ('A' for Active; 'I' for Inactive)
    1  A    between atoms: C_7  and  C_11
    2  A    between atoms: C_7  and  C_14
    3  A    between atoms: C_14  and  C_16
    4  A    between atoms: N_18  and  C_30
    5  A    between atoms: C_23  and  C_24
    6  A    between atoms: C_23  and  C_25
    7  A    between atoms: C_26  and  C_28
                            x       y       z     vdW  Elec       q    Type
                         _______ _______ _______ _____ _____    ______ ____

>  <TORSDO>
F 7

$$$$
=
 OpenBabel11062409383D

 34 37  0  0  0  0  0  0  0  0999 V2000
  160.8200  213.0180  145.4400 C   0  0  0  0  0  0  0  0  0  0  0  0
  161.6030  213.2920  141.8100 C   0  0  0  0  0  3  0  0  0  0  0  0
  163.0200  213.5160  143.7500 C   0  0  0  0  0  3  0  0  0  0  0  0
  159.4180  213.2660  147.4170 C   0  0  0  0  0  0  0  0  0  0  0  0
  159.6880  212.7100  146.2740 N   0  0  0  0  0  0  0  0  0  0  0  0
  161.5970  213.8870  148.4180 C   0  0  0  0  0  2  0  0  0  0  0  0
  163.5430  212.4520  147.8730 C   0  0  0  0  0  1  0  0  0  0  0  0
  160.2590  214.4010  147.9120 C   0  0  0  0  0  2  0  0  0  0  0  0
  158.2650  212.8120  148.1400 N   0  0  0  0  0  2  0  0  0  0  0  0
  163.1910  213.4890  145.1330 C   0  0  0  0  0  3  0  0  0  0  0  0
  162.1070  213.2470  145.9910 C   0  0  0  0  0  0  0  0  0  0  0  0
  162.3490  213.1390  147.4080 N   0  0  0  0  0  0  0  0  0  0  0  0
  160.3450  213.0470  141.2470 C   0  0  0  0  0  0  0  0  0  0  0  0
  159.2490  212.7850  142.0730 C   0  0  0  0  0  3  0  0  0  0  0  0
  161.7640  213.2810  143.1980 C   0  0  0  0  0  0  0  0  0  0  0  0
  159.4030  212.7720  143.4620 C   0  0  0  0  0  3  0  0  0  0  0  0
  160.6570  213.0180  144.0400 C   0  0  0  0  0  0  0  0  0  0  0  0
  158.3380  213.6390  151.7720 C   0  0  0  0  0  3  0  0  0  0  0  0
  156.4890  213.6170  149.6810 C   0  0  0  0  0  3  0  0  0  0  0  0
  157.0190  214.0410  152.0110 C   0  0  0  0  0  0  0  0  0  0  0  0
  156.0840  214.0180  150.9580 C   0  0  0  0  0  0  0  0  0  0  0  0
  157.8120  213.2170  149.4410 C   0  0  0  0  0  0  0  0  0  0  0  0
  158.7310  213.2340  150.4940 C   0  0  0  0  0  3  0  0  0  0  0  0
  154.6680  214.4490  151.1590 C   0  0  0  0  0  2  0  0  0  0  0  0
  153.9860  214.4060  149.9420 O   0  0  0  0  0  1  0  0  0  0  0  0
  156.6300  214.4530  153.3930 C   0  0  0  0  0  2  0  0  0  0  0  0
  157.3960  213.6290  154.4160 C   0  0  0  0  0  2  0  0  0  0  0  0
  156.4590  212.7480  155.1740 C   0  0  0  0  0  0  0  0  0  0  0  0
  156.0630  211.4280  154.6070 C   0  0  0  0  0  1  0  0  0  0  0  0
  156.0350  213.0920  156.2650 O   0  0  0  0  0  0  0  0  0  0  0  0
  160.1740  213.0460  139.7630 C   0  0  0  0  0  2  0  0  0  0  0  0
  159.3380  210.7020  139.6090 C   0  0  0  0  0  1  0  0  0  0  0  0
  160.4440  211.7540  137.6690 C   0  0  0  0  0  1  0  0  0  0  0  0
  160.4290  211.6650  139.1800 C   0  0  0  0  0  3  0  0  0  0  0  0
  1 11  1  0  0  0  0
  1  5  1  0  0  0  0
  2 15  1  0  0  0  0
  3 10  1  0  0  0  0
  4  8  1  0  0  0  0
  4  9  1  0  0  0  0
  5  4  2  0  0  0  0
  8  6  1  0  0  0  0
  9 22  1  0  0  0  0
 10 11  2  0  0  0  0
 11 12  1  0  0  0  0
 12  7  1  0  0  0  0
 12  6  1  0  0  0  0
 13  2  2  0  0  0  0
 13 14  1  0  0  0  0
 14 16  2  0  0  0  0
 15  3  2  0  0  0  0
 15 17  1  0  0  0  0
 16 17  1  0  0  0  0
 17  1  2  0  0  0  0
 18 20  1  0  0  0  0
 19 21  1  0  0  0  0
 20 26  1  0  0  0  0
 21 24  1  0  0  0  0
 21 20  2  0  0  0  0
 22 19  2  0  0  0  0
 22 23  1  0  0  0  0
 23 18  2  0  0  0  0
 25 24  1  0  0  0  0
 26 27  1  0  0  0  0
 27 28  1  0  0  0  0
 28 30  2  0  0  0  0
 29 28  1  0  0  0  0
 31 13  1  0  0  0  0
 33 34  1  0  0  0  0
 34 32  1  0  0  0  0
 34 31  1  0  0  0  0
M  END
>  <MODEL>
6

>  <REMARK>
 VINA RESULT:      -4.6      7.822      9.304
  Name = 
  7 active torsions:
  status: ('A' for Active; 'I' for Inactive)
    1  A    between atoms: C_7  and  C_11
    2  A    between atoms: C_7  and  C_14
    3  A    between atoms: C_14  and  C_16
    4  A    between atoms: N_18  and  C_30
    5  A    between atoms: C_23  and  C_24
    6  A    between atoms: C_23  and  C_25
    7  A    between atoms: C_26  and  C_28
                            x       y       z     vdW  Elec       q    Type
                         _______ _______ _______ _____ _____    ______ ____

>  <TORSDO>
F 7

$$$$
=
 OpenBabel11062409383D

 34 37  0  0  0  0  0  0  0  0999 V2000
  161.0860  205.2190  149.9800 C   0  0  0  0  0  0  0  0  0  0  0  0
  161.9350  203.8020  146.6430 C   0  0  0  0  0  3  0  0  0  0  0  0
  161.5170  202.7170  148.7580 C   0  0  0  0  0  3  0  0  0  0  0  0
  161.1770  206.8860  151.7540 C   0  0  0  0  0  0  0  0  0  0  0  0
  160.8210  206.5080  150.5630 N   0  0  0  0  0  0  0  0  0  0  0  0
  161.1960  204.8430  153.1540 C   0  0  0  0  0  2  0  0  0  0  0  0
  159.5800  203.0560  152.5700 C   0  0  0  0  0  1  0  0  0  0  0  0
  162.0260  205.9890  152.6000 C   0  0  0  0  0  2  0  0  0  0  0  0
  160.7970  208.1980  152.1950 N   0  0  0  0  0  2  0  0  0  0  0  0
  161.1870  202.7880  150.1090 C   0  0  0  0  0  3  0  0  0  0  0  0
  160.9720  204.0250  150.7370 C   0  0  0  0  0  0  0  0  0  0  0  0
  160.5440  204.0440  152.1140 N   0  0  0  0  0  0  0  0  0  0  0  0
  162.0300  204.9680  145.8750 C   0  0  0  0  0  0  0  0  0  0  0  0
  161.8050  206.2140  146.4650 C   0  0  0  0  0  3  0  0  0  0  0  0
  161.6200  203.8820  148.0020 C   0  0  0  0  0  0  0  0  0  0  0  0
  161.4900  206.3010  147.8240 C   0  0  0  0  0  3  0  0  0  0  0  0
  161.3920  205.1410  148.6070 C   0  0  0  0  0  0  0  0  0  0  0  0
  161.8470  210.6850  154.7630 C   0  0  0  0  0  3  0  0  0  0  0  0
  160.5840  208.1970  154.6720 C   0  0  0  0  0  3  0  0  0  0  0  0
  161.4210  210.0810  155.9510 C   0  0  0  0  0  0  0  0  0  0  0  0
  160.7940  208.8210  155.9050 C   0  0  0  0  0  0  0  0  0  0  0  0
  161.0080  208.8030  153.4800 C   0  0  0  0  0  0  0  0  0  0  0  0
  161.6380  210.0500  153.5350 C   0  0  0  0  0  3  0  0  0  0  0  0
  160.3110  208.1420  157.1440 C   0  0  0  0  0  2  0  0  0  0  0  0
  159.6510  206.9590  156.8060 O   0  0  0  0  0  1  0  0  0  0  0  0
  161.6760  210.7820  157.2460 C   0  0  0  0  0  2  0  0  0  0  0  0
  161.3070  212.2520  157.1240 C   0  0  0  0  0  2  0  0  0  0  0  0
  159.8310  212.4010  156.9560 C   0  0  0  0  0  0  0  0  0  0  0  0
  159.2730  213.6610  156.3900 C   0  0  0  0  0  1  0  0  0  0  0  0
  159.0810  211.4870  157.2590 O   0  0  0  0  0  0  0  0  0  0  0  0
  162.3550  204.8830  144.4190 C   0  0  0  0  0  2  0  0  0  0  0  0
  161.7930  205.8300  142.1810 C   0  0  0  0  0  1  0  0  0  0  0  0
  160.0850  204.6000  143.4720 C   0  0  0  0  0  1  0  0  0  0  0  0
  161.2710  205.5360  143.5750 C   0  0  0  0  0  3  0  0  0  0  0  0
  1  5  1  0  0  0  0
  1 11  1  0  0  0  0
  2 15  1  0  0  0  0
  3 10  1  0  0  0  0
  4  9  1  0  0  0  0
  4  8  1  0  0  0  0
  5  4  2  0  0  0  0
  8  6  1  0  0  0  0
  9 22  1  0  0  0  0
 10 11  2  0  0  0  0
 11 12  1  0  0  0  0
 12  7  1  0  0  0  0
 12  6  1  0  0  0  0
 13 14  1  0  0  0  0
 13  2  2  0  0  0  0
 14 16  2  0  0  0  0
 15 17  1  0  0  0  0
 15  3  2  0  0  0  0
 16 17  1  0  0  0  0
 17  1  2  0  0  0  0
 18 20  1  0  0  0  0
 19 21  1  0  0  0  0
 20 26  1  0  0  0  0
 21 20  2  0  0  0  0
 21 24  1  0  0  0  0
 22 23  1  0  0  0  0
 22 19  2  0  0  0  0
 23 18  2  0  0  0  0
 25 24  1  0  0  0  0
 27 26  1  0  0  0  0
 28 27  1  0  0  0  0
 28 30  2  0  0  0  0
 29 28  1  0  0  0  0
 31 13  1  0  0  0  0
 32 34  1  0  0  0  0
 33 34  1  0  0  0  0
 34 31  1  0  0  0  0
M  END
>  <MODEL>
7

>  <REMARK>
 VINA RESULT:      -4.4      2.081      3.719
  Name = 
  7 active torsions:
  status: ('A' for Active; 'I' for Inactive)
    1  A    between atoms: C_7  and  C_11
    2  A    between atoms: C_7  and  C_14
    3  A    between atoms: C_14  and  C_16
    4  A    between atoms: N_18  and  C_30
    5  A    between atoms: C_23  and  C_24
    6  A    between atoms: C_23  and  C_25
    7  A    between atoms: C_26  and  C_28
                            x       y       z     vdW  Elec       q    Type
                         _______ _______ _______ _____ _____    ______ ____

>  <TORSDO>
F 7

$$$$
