=
 OpenBabel11062409463D

 34 39  0  0  0  0  0  0  0  0999 V2000
  161.5950  207.6860  150.1310 C   0  0  0  0  0  0  0  0  0  0  0  0
  161.0880  204.0400  149.6140 C   0  0  0  0  0  3  0  0  0  0  0  0
  160.9870  205.3200  151.5200 C   0  0  0  0  0  3  0  0  0  0  0  0
  161.9990  210.2050  150.3930 C   0  0  0  0  0  0  0  0  0  0  0  0
  161.9080  209.0090  149.4510 C   0  0  0  0  0  3  0  0  0  0  0  0
  161.4290  208.7530  152.2690 C   0  0  0  0  0  0  0  0  0  0  0  0
  161.1000  208.4250  154.0050 S   0  0  0  0  0  0  0  0  0  0  0  0
  161.7580  210.0680  151.7040 C   0  0  0  0  0  3  0  0  0  0  0  0
  161.0760  206.5340  152.1860 C   0  0  0  0  0  0  0  0  0  0  0  0
  161.3710  207.6790  151.5080 C   0  0  0  0  0  0  0  0  0  0  0  0
  160.8850  206.7150  153.5810 N   0  0  0  0  0  0  0  0  0  0  0  0
  161.2270  203.5350  148.2460 C   0  0  0  0  0  3  0  0  0  0  0  0
  161.5130  204.1800  147.1180 C   0  0  0  0  0  0  0  0  0  0  0  0
  161.7620  205.6220  147.0170 C   0  0  0  0  0  3  0  0  0  0  0  0
  161.2020  205.2630  150.1300 C   0  0  0  0  0  0  0  0  0  0  0  0
  161.7600  206.5530  147.9610 C   0  0  0  0  0  3  0  0  0  0  0  0
  161.5120  206.4630  149.4130 C   0  0  0  0  0  0  0  0  0  0  0  0
  161.5850  203.3870  145.8750 C   0  0  0  0  0  0  0  0  0  0  0  0
  160.9030  202.1800  145.7660 O   0  0  0  0  0  1  0  0  0  0  0  0
  162.2680  203.7960  144.8980 O   0  0  0  0  0  0  0  0  0  0  0  0
  162.2940  211.4930  149.9190 O   0  0  0  0  0  0  0  0  0  0  0  0
  162.7990  212.9550  146.5200 C   0  0  0  0  0  3  0  0  0  0  0  0
  160.7300  212.0440  148.1760 C   0  0  0  0  0  3  0  0  0  0  0  0
  159.8440  213.5370  144.3760 C   0  0  0  0  0  0  0  0  0  0  0  0
  161.1780  213.4990  144.8030 C   0  0  0  0  0  3  0  0  0  0  0  0
  161.4780  213.0010  146.0710 C   0  0  0  0  0  0  0  0  0  0  0  0
  159.1230  212.5990  146.4460 C   0  0  0  0  0  3  0  0  0  0  0  0
  160.4390  212.5440  146.9050 C   0  0  0  0  0  0  0  0  0  0  0  0
  158.8570  213.0900  145.2040 N   0  0  0  0  0  0  0  0  0  0  0  0
  162.0540  211.9860  148.6280 C   0  0  0  0  0  0  0  0  0  0  0  0
  163.0840  212.4520  147.7930 C   0  0  0  0  0  3  0  0  0  0  0  0
  159.5160  214.0450  143.0780 N   0  0  0  0  0  0  0  0  0  0  0  0
  158.3230  214.2180  142.7540 O   0  0  0  0  0  0  0  0  0  0  0  0
  160.5100  214.3480  142.1750 O   0  0  0  0  0  0  0  0  0  0  0  0
  1 10  1  0  0  0  0
  2 15  1  0  0  0  0
  3  9  1  0  0  0  0
  4  8  2  0  0  0  0
  5  1  2  0  0  0  0
  5  4  1  0  0  0  0
  6  7  1  0  0  0  0
  8  6  1  0  0  0  0
  9 11  2  0  0  0  0
 10  9  1  0  0  0  0
 10  6  2  0  0  0  0
 11  7  1  0  0  0  0
 12  2  2  0  0  0  0
 13 12  1  0  0  0  0
 14 13  2  0  0  0  0
 14 16  1  0  0  0  0
 15  3  2  0  0  0  0
 16 17  2  0  0  0  0
 17 15  1  0  0  0  0
 17  1  1  0  0  0  0
 18 13  1  0  0  0  0
 19 18  1  0  0  0  0
 20 18  2  0  0  0  0
 21  4  1  0  0  0  0
 22 31  1  0  0  0  0
 23 30  1  0  0  0  0
 24 25  2  0  0  0  0
 24 29  1  0  0  0  0
 25 26  1  0  0  0  0
 26 22  2  0  0  0  0
 26 28  1  0  0  0  0
 27 28  1  0  0  0  0
 28 23  2  0  0  0  0
 29 27  2  0  0  0  0
 30 21  1  0  0  0  0
 31 30  2  0  0  0  0
 32 24  1  0  0  0  0
 33 32  2  0  0  0  0
 34 32  2  0  0  0  0
M  END
>  <MODEL>
1

>  <REMARK>
 VINA RESULT:     -10.2      0.000      0.000
  Name = 
  4 active torsions:
  status: ('A' for Active; 'I' for Inactive)
    1  A    between atoms: C_3  and  C_25
    2  A    between atoms: C_7  and  N_11
    3  A    between atoms: C_8  and  O_18
    4  A    between atoms: O_18  and  C_30
                            x       y       z     vdW  Elec       q    Type
                         _______ _______ _______ _____ _____    ______ ____

>  <TORSDO>
F 4

$$$$
=
 OpenBabel11062409463D

 34 39  0  0  0  0  0  0  0  0999 V2000
  161.1330  208.7810  152.3250 C   0  0  0  0  0  0  0  0  0  0  0  0
  160.7640  212.2750  151.1100 C   0  0  0  0  0  3  0  0  0  0  0  0
  160.2390  211.3200  153.1340 C   0  0  0  0  0  3  0  0  0  0  0  0
  161.3940  206.3370  153.0600 C   0  0  0  0  0  0  0  0  0  0  0  0
  161.6060  207.3810  151.9680 C   0  0  0  0  0  3  0  0  0  0  0  0
  160.4820  208.0690  154.5180 C   0  0  0  0  0  0  0  0  0  0  0  0
  159.7680  208.6620  156.0570 S   0  0  0  0  0  0  0  0  0  0  0  0
  160.8800  206.6810  154.2500 C   0  0  0  0  0  3  0  0  0  0  0  0
  160.1750  210.2350  153.9950 C   0  0  0  0  0  0  0  0  0  0  0  0
  160.6100  209.0050  153.5990 C   0  0  0  0  0  0  0  0  0  0  0  0
  159.6690  210.2750  155.3210 N   0  0  0  0  0  0  0  0  0  0  0  0
  161.2050  212.5550  149.7410 C   0  0  0  0  0  3  0  0  0  0  0  0
  161.7340  211.7450  148.8280 C   0  0  0  0  0  0  0  0  0  0  0  0
  161.9970  210.3160  149.0260 C   0  0  0  0  0  3  0  0  0  0  0  0
  160.7580  211.1570  151.8360 C   0  0  0  0  0  0  0  0  0  0  0  0
  161.7830  209.5510  150.0890 C   0  0  0  0  0  3  0  0  0  0  0  0
  161.2170  209.8680  151.4140 C   0  0  0  0  0  0  0  0  0  0  0  0
  162.0830  212.3260  147.5170 C   0  0  0  0  0  0  0  0  0  0  0  0
  161.0960  212.5740  146.5690 O   0  0  0  0  0  0  0  0  0  0  0  0
  163.2810  212.6050  147.2420 O   0  0  0  0  0  1  0  0  0  0  0  0
  161.7650  204.9970  152.8770 O   0  0  0  0  0  0  0  0  0  0  0  0
  160.8300  202.0690  150.7550 C   0  0  0  0  0  3  0  0  0  0  0  0
  161.6040  204.7500  150.4890 C   0  0  0  0  0  3  0  0  0  0  0  0
  160.8250  202.4640  147.0800 C   0  0  0  0  0  0  0  0  0  0  0  0
  160.6930  201.8750  148.3440 C   0  0  0  0  0  3  0  0  0  0  0  0
  160.9520  202.6350  149.4850 C   0  0  0  0  0  0  0  0  0  0  0  0
  161.4640  204.5330  148.0770 C   0  0  0  0  0  3  0  0  0  0  0  0
  161.3420  203.9820  149.3530 C   0  0  0  0  0  0  0  0  0  0  0  0
  161.2060  203.7700  146.9800 N   0  0  0  0  0  0  0  0  0  0  0  0
  161.4740  204.1910  151.7670 C   0  0  0  0  0  0  0  0  0  0  0  0
  161.0920  202.8430  151.8900 C   0  0  0  0  0  3  0  0  0  0  0  0
  160.5640  201.7010  145.8970 N   0  0  0  0  0  0  0  0  0  0  0  0
  160.0840  202.2530  144.8860 O   0  0  0  0  0  0  0  0  0  0  0  0
  160.8400  200.3530  145.8610 O   0  0  0  0  0  0  0  0  0  0  0  0
  1 10  1  0  0  0  0
  2 15  1  0  0  0  0
  3  9  1  0  0  0  0
  4  8  2  0  0  0  0
  5  1  2  0  0  0  0
  5  4  1  0  0  0  0
  6  7  1  0  0  0  0
  8  6  1  0  0  0  0
  9 11  2  0  0  0  0
 10  9  1  0  0  0  0
 10  6  2  0  0  0  0
 11  7  1  0  0  0  0
 12  2  2  0  0  0  0
 13 14  2  0  0  0  0
 13 12  1  0  0  0  0
 14 16  1  0  0  0  0
 15  3  2  0  0  0  0
 16 17  2  0  0  0  0
 17 15  1  0  0  0  0
 17  1  1  0  0  0  0
 18 13  1  0  0  0  0
 19 18  2  0  0  0  0
 20 18  1  0  0  0  0
 21  4  1  0  0  0  0
 22 31  1  0  0  0  0
 23 30  1  0  0  0  0
 24 25  2  0  0  0  0
 25 26  1  0  0  0  0
 26 22  2  0  0  0  0
 27 28  1  0  0  0  0
 28 26  1  0  0  0  0
 28 23  2  0  0  0  0
 29 24  1  0  0  0  0
 29 27  2  0  0  0  0
 30 31  2  0  0  0  0
 30 21  1  0  0  0  0
 32 24  1  0  0  0  0
 33 32  2  0  0  0  0
 34 32  2  0  0  0  0
M  END
>  <MODEL>
2

>  <REMARK>
 VINA RESULT:      -9.5      3.340      8.289
  Name = 
  4 active torsions:
  status: ('A' for Active; 'I' for Inactive)
    1  A    between atoms: C_3  and  C_25
    2  A    between atoms: C_7  and  N_11
    3  A    between atoms: C_8  and  O_18
    4  A    between atoms: O_18  and  C_30
                            x       y       z     vdW  Elec       q    Type
                         _______ _______ _______ _____ _____    ______ ____

>  <TORSDO>
F 4

$$$$
=
 OpenBabel11062409463D

 34 39  0  0  0  0  0  0  0  0999 V2000
  161.5690  207.3570  150.8460 C   0  0  0  0  0  0  0  0  0  0  0  0
  161.4650  205.0800  147.9090 C   0  0  0  0  0  3  0  0  0  0  0  0
  161.8310  207.3450  148.0480 C   0  0  0  0  0  3  0  0  0  0  0  0
  161.5860  208.8530  152.9290 C   0  0  0  0  0  0  0  0  0  0  0  0
  161.4530  207.4440  152.3590 C   0  0  0  0  0  3  0  0  0  0  0  0
  161.9730  209.7120  150.6790 C   0  0  0  0  0  0  0  0  0  0  0  0
  162.2990  211.0220  149.4920 S   0  0  0  0  0  0  0  0  0  0  0  0
  161.8430  209.8970  152.1290 C   0  0  0  0  0  3  0  0  0  0  0  0
  161.9600  208.5220  148.7700 C   0  0  0  0  0  0  0  0  0  0  0  0
  161.8330  208.5230  150.1280 C   0  0  0  0  0  0  0  0  0  0  0  0
  162.2210  209.7990  148.2080 N   0  0  0  0  0  0  0  0  0  0  0  0
  161.2030  203.6620  148.1730 C   0  0  0  0  0  3  0  0  0  0  0  0
  160.9900  203.0290  149.3240 C   0  0  0  0  0  0  0  0  0  0  0  0
  160.9740  203.6690  150.6430 C   0  0  0  0  0  3  0  0  0  0  0  0
  161.5660  206.1350  148.7170 C   0  0  0  0  0  0  0  0  0  0  0  0
  161.1570  204.9420  150.9730 C   0  0  0  0  0  3  0  0  0  0  0  0
  161.4320  206.1300  150.1420 C   0  0  0  0  0  0  0  0  0  0  0  0
  160.7520  201.5740  149.2700 C   0  0  0  0  0  0  0  0  0  0  0  0
  161.3400  200.7970  148.2780 O   0  0  0  0  0  0  0  0  0  0  0  0
  160.0110  201.0180  150.1250 O   0  0  0  0  0  1  0  0  0  0  0  0
  161.4880  209.1000  154.3070 O   0  0  0  0  0  0  0  0  0  0  0  0
  159.2750  210.4860  156.9770 C   0  0  0  0  0  3  0  0  0  0  0  0
  159.5020  210.4530  154.1840 C   0  0  0  0  0  3  0  0  0  0  0  0
  156.3390  212.5020  155.9870 C   0  0  0  0  0  0  0  0  0  0  0  0
  157.2740  211.8400  156.7930 C   0  0  0  0  0  3  0  0  0  0  0  0
  158.3320  211.1550  156.1950 C   0  0  0  0  0  0  0  0  0  0  0  0
  157.4950  211.8070  154.0220 C   0  0  0  0  0  3  0  0  0  0  0  0
  158.4470  211.1370  154.7910 C   0  0  0  0  0  0  0  0  0  0  0  0
  156.4720  212.4670  154.6300 N   0  0  0  0  0  0  0  0  0  0  0  0
  160.4570  209.7880  154.9630 C   0  0  0  0  0  0  0  0  0  0  0  0
  160.3300  209.8040  156.3640 C   0  0  0  0  0  3  0  0  0  0  0  0
  155.2460  213.2110  156.5820 N   0  0  0  0  0  0  0  0  0  0  0  0
  155.1780  214.4530  156.4890 O   0  0  0  0  0  0  0  0  0  0  0  0
  154.2600  212.5300  157.2610 O   0  0  0  0  0  0  0  0  0  0  0  0
  1  5  1  0  0  0  0
  2 12  2  0  0  0  0
  2 15  1  0  0  0  0
  3 15  2  0  0  0  0
  3  9  1  0  0  0  0
  4 21  1  0  0  0  0
  5  4  2  0  0  0  0
  6  8  2  0  0  0  0
  7  6  1  0  0  0  0
  8  4  1  0  0  0  0
  9 10  1  0  0  0  0
 10  6  1  0  0  0  0
 10  1  2  0  0  0  0
 11  9  2  0  0  0  0
 11  7  1  0  0  0  0
 12 13  1  0  0  0  0
 13 14  2  0  0  0  0
 14 16  1  0  0  0  0
 15 17  1  0  0  0  0
 17  1  1  0  0  0  0
 17 16  2  0  0  0  0
 18 13  1  0  0  0  0
 18 20  1  0  0  0  0
 19 18  2  0  0  0  0
 21 30  1  0  0  0  0
 23 28  2  0  0  0  0
 23 30  1  0  0  0  0
 24 32  1  0  0  0  0
 24 25  2  0  0  0  0
 26 25  1  0  0  0  0
 26 22  2  0  0  0  0
 27 29  2  0  0  0  0
 27 28  1  0  0  0  0
 28 26  1  0  0  0  0
 29 24  1  0  0  0  0
 30 31  2  0  0  0  0
 31 22  1  0  0  0  0
 32 34  2  0  0  0  0
 33 32  2  0  0  0  0
M  END
>  <MODEL>
3

>  <REMARK>
 VINA RESULT:      -9.4      4.859      7.446
  Name = 
  4 active torsions:
  status: ('A' for Active; 'I' for Inactive)
    1  A    between atoms: C_3  and  C_25
    2  A    between atoms: C_7  and  N_11
    3  A    between atoms: C_8  and  O_18
    4  A    between atoms: O_18  and  C_30
                            x       y       z     vdW  Elec       q    Type
                         _______ _______ _______ _____ _____    ______ ____

>  <TORSDO>
F 4

$$$$
=
 OpenBabel11062409463D

 34 39  0  0  0  0  0  0  0  0999 V2000
  160.7870  208.7780  152.7640 C   0  0  0  0  0  0  0  0  0  0  0  0
  161.3390  205.1270  152.3260 C   0  0  0  0  0  3  0  0  0  0  0  0
  161.2330  206.4180  154.2240 C   0  0  0  0  0  3  0  0  0  0  0  0
  160.4350  211.3100  152.9620 C   0  0  0  0  0  0  0  0  0  0  0  0
  160.5310  210.0930  152.0470 C   0  0  0  0  0  3  0  0  0  0  0  0
  160.7320  209.8590  154.9000 C   0  0  0  0  0  0  0  0  0  0  0  0
  160.8770  209.5410  156.6640 S   0  0  0  0  0  0  0  0  0  0  0  0
  160.5170  211.1780  154.2930 C   0  0  0  0  0  3  0  0  0  0  0  0
  161.0740  207.6360  154.8690 C   0  0  0  0  0  0  0  0  0  0  0  0
  160.8570  208.7780  154.1570 C   0  0  0  0  0  0  0  0  0  0  0  0
  161.1210  207.8260  156.2750 N   0  0  0  0  0  0  0  0  0  0  0  0
  161.3490  204.6140  150.9540 C   0  0  0  0  0  3  0  0  0  0  0  0
  161.1880  205.2530  149.7970 C   0  0  0  0  0  0  0  0  0  0  0  0
  160.9530  206.6940  149.6620 C   0  0  0  0  0  3  0  0  0  0  0  0
  161.1710  206.3530  152.8200 C   0  0  0  0  0  0  0  0  0  0  0  0
  160.8530  207.6310  150.5960 C   0  0  0  0  0  3  0  0  0  0  0  0
  160.9430  207.5490  152.0660 C   0  0  0  0  0  0  0  0  0  0  0  0
  161.2510  204.4530  148.5590 C   0  0  0  0  0  0  0  0  0  0  0  0
  161.3000  205.0770  147.3170 O   0  0  0  0  0  0  0  0  0  0  0  0
  161.2600  203.1940  148.6130 O   0  0  0  0  0  1  0  0  0  0  0  0
  160.2150  212.5980  152.4500 O   0  0  0  0  0  0  0  0  0  0  0  0
  157.6090  213.3670  149.8890 C   0  0  0  0  0  3  0  0  0  0  0  0
  160.3890  213.0790  150.0990 C   0  0  0  0  0  3  0  0  0  0  0  0
  158.6680  213.9930  146.4030 C   0  0  0  0  0  0  0  0  0  0  0  0
  157.8410  213.8360  147.5230 C   0  0  0  0  0  3  0  0  0  0  0  0
  158.4120  213.5310  148.7590 C   0  0  0  0  0  0  0  0  0  0  0  0
  160.5990  213.5470  147.7280 C   0  0  0  0  0  3  0  0  0  0  0  0
  159.8090  213.3850  148.8660 C   0  0  0  0  0  0  0  0  0  0  0  0
  160.0180  213.8440  146.5340 N   0  0  0  0  0  0  0  0  0  0  0  0
  159.5890  212.9230  151.2380 C   0  0  0  0  0  0  0  0  0  0  0  0
  158.1940  213.0630  151.1210 C   0  0  0  0  0  3  0  0  0  0  0  0
  158.1020  214.3060  145.1260 N   0  0  0  0  0  0  0  0  0  0  0  0
  158.8400  214.4530  144.1300 O   0  0  0  0  0  0  0  0  0  0  0  0
  156.7400  214.4480  144.9820 O   0  0  0  0  0  0  0  0  0  0  0  0
  1 10  1  0  0  0  0
  2 15  1  0  0  0  0
  3  9  1  0  0  0  0
  4  8  2  0  0  0  0
  5  1  2  0  0  0  0
  5  4  1  0  0  0  0
  6  7  1  0  0  0  0
  8  6  1  0  0  0  0
  9 11  2  0  0  0  0
 10  9  1  0  0  0  0
 10  6  2  0  0  0  0
 11  7  1  0  0  0  0
 12  2  2  0  0  0  0
 13 12  1  0  0  0  0
 14 13  2  0  0  0  0
 14 16  1  0  0  0  0
 15  3  2  0  0  0  0
 16 17  2  0  0  0  0
 17  1  1  0  0  0  0
 17 15  1  0  0  0  0
 18 20  1  0  0  0  0
 18 13  1  0  0  0  0
 19 18  2  0  0  0  0
 21  4  1  0  0  0  0
 22 31  1  0  0  0  0
 23 30  1  0  0  0  0
 24 29  1  0  0  0  0
 24 25  2  0  0  0  0
 25 26  1  0  0  0  0
 26 28  1  0  0  0  0
 26 22  2  0  0  0  0
 27 28  1  0  0  0  0
 28 23  2  0  0  0  0
 29 27  2  0  0  0  0
 30 21  1  0  0  0  0
 31 30  2  0  0  0  0
 32 24  1  0  0  0  0
 33 32  2  0  0  0  0
 34 32  2  0  0  0  0
M  END
>  <MODEL>
4

>  <REMARK>
 VINA RESULT:      -9.3      2.258      3.316
  Name = 
  4 active torsions:
  status: ('A' for Active; 'I' for Inactive)
    1  A    between atoms: C_3  and  C_25
    2  A    between atoms: C_7  and  N_11
    3  A    between atoms: C_8  and  O_18
    4  A    between atoms: O_18  and  C_30
                            x       y       z     vdW  Elec       q    Type
                         _______ _______ _______ _____ _____    ______ ____

>  <TORSDO>
F 4

$$$$
=
 OpenBabel11062409463D

 34 39  0  0  0  0  0  0  0  0999 V2000
  161.1930  207.0120  150.6100 C   0  0  0  0  0  0  0  0  0  0  0  0
  161.2410  203.7830  148.7660 C   0  0  0  0  0  3  0  0  0  0  0  0
  161.2390  204.2320  151.0210 C   0  0  0  0  0  3  0  0  0  0  0  0
  161.1950  209.2880  151.7910 C   0  0  0  0  0  0  0  0  0  0  0  0
  161.1570  208.5240  150.4710 C   0  0  0  0  0  3  0  0  0  0  0  0
  161.2020  207.1680  153.0000 C   0  0  0  0  0  0  0  0  0  0  0  0
  161.2260  206.1710  154.4950 S   0  0  0  0  0  0  0  0  0  0  0  0
  161.2020  208.6360  152.9630 C   0  0  0  0  0  3  0  0  0  0  0  0
  161.2270  205.1100  152.0940 C   0  0  0  0  0  0  0  0  0  0  0  0
  161.2040  206.4580  151.8900 C   0  0  0  0  0  0  0  0  0  0  0  0
  161.2410  204.7270  153.4610 N   0  0  0  0  0  0  0  0  0  0  0  0
  161.2360  203.8510  147.3030 C   0  0  0  0  0  3  0  0  0  0  0  0
  161.2160  204.9070  146.4930 C   0  0  0  0  0  0  0  0  0  0  0  0
  161.1940  206.3040  146.9370 C   0  0  0  0  0  3  0  0  0  0  0  0
  161.2270  204.7300  149.7040 C   0  0  0  0  0  0  0  0  0  0  0  0
  161.1880  206.8060  148.1650 C   0  0  0  0  0  3  0  0  0  0  0  0
  161.2030  206.1440  149.4840 C   0  0  0  0  0  0  0  0  0  0  0  0
  161.2170  204.6540  145.0390 C   0  0  0  0  0  0  0  0  0  0  0  0
  160.5520  203.5520  144.5130 O   0  0  0  0  0  1  0  0  0  0  0  0
  161.8220  205.4360  144.2570 O   0  0  0  0  0  0  0  0  0  0  0  0
  161.1820  210.6910  151.8300 O   0  0  0  0  0  0  0  0  0  0  0  0
  158.8990  213.6130  152.2740 C   0  0  0  0  0  3  0  0  0  0  0  0
  159.2320  210.9910  153.2070 C   0  0  0  0  0  3  0  0  0  0  0  0
  156.0650  213.3170  154.6280 C   0  0  0  0  0  0  0  0  0  0  0  0
  156.9470  213.8630  153.6860 C   0  0  0  0  0  3  0  0  0  0  0  0
  158.0060  213.0900  153.2090 C   0  0  0  0  0  0  0  0  0  0  0  0
  157.2770  211.2640  154.6170 C   0  0  0  0  0  3  0  0  0  0  0  0
  158.1750  211.7720  153.6790 C   0  0  0  0  0  0  0  0  0  0  0  0
  156.2520  212.0390  155.0670 N   0  0  0  0  0  0  0  0  0  0  0  0
  160.1260  211.5070  152.2610 C   0  0  0  0  0  0  0  0  0  0  0  0
  159.9550  212.8260  151.8040 C   0  0  0  0  0  3  0  0  0  0  0  0
  154.9730  214.0940  155.1300 N   0  0  0  0  0  0  0  0  0  0  0  0
  154.0530  214.4530  154.3660 O   0  0  0  0  0  0  0  0  0  0  0  0
  154.9240  214.4530  156.4580 O   0  0  0  0  0  0  0  0  0  0  0  0
  1 10  1  0  0  0  0
  2 15  1  0  0  0  0
  3  9  1  0  0  0  0
  4 21  1  0  0  0  0
  4  8  2  0  0  0  0
  5  1  2  0  0  0  0
  5  4  1  0  0  0  0
  6  7  1  0  0  0  0
  8  6  1  0  0  0  0
  9 11  2  0  0  0  0
 10  9  1  0  0  0  0
 10  6  2  0  0  0  0
 11  7  1  0  0  0  0
 12  2  2  0  0  0  0
 13 14  2  0  0  0  0
 13 12  1  0  0  0  0
 14 16  1  0  0  0  0
 15  3  2  0  0  0  0
 16 17  2  0  0  0  0
 17 15  1  0  0  0  0
 17  1  1  0  0  0  0
 18 13  1  0  0  0  0
 19 18  1  0  0  0  0
 20 18  2  0  0  0  0
 21 30  1  0  0  0  0
 22 26  1  0  0  0  0
 23 28  1  0  0  0  0
 24 29  1  0  0  0  0
 24 32  1  0  0  0  0
 25 24  2  0  0  0  0
 26 28  2  0  0  0  0
 26 25  1  0  0  0  0
 27 29  2  0  0  0  0
 28 27  1  0  0  0  0
 30 23  2  0  0  0  0
 31 30  1  0  0  0  0
 31 22  2  0  0  0  0
 32 34  2  0  0  0  0
 33 32  2  0  0  0  0
M  END
>  <MODEL>
5

>  <REMARK>
 VINA RESULT:      -9.1      4.741      6.015
  Name = 
  4 active torsions:
  status: ('A' for Active; 'I' for Inactive)
    1  A    between atoms: C_3  and  C_25
    2  A    between atoms: C_7  and  N_11
    3  A    between atoms: C_8  and  O_18
    4  A    between atoms: O_18  and  C_30
                            x       y       z     vdW  Elec       q    Type
                         _______ _______ _______ _____ _____    ______ ____

>  <TORSDO>
F 4

$$$$
=
 OpenBabel11062409463D

 34 39  0  0  0  0  0  0  0  0999 V2000
  160.6140  210.7470  152.1970 C   0  0  0  0  0  0  0  0  0  0  0  0
  160.0990  213.9300  150.3450 C   0  0  0  0  0  3  0  0  0  0  0  0
  159.3700  213.2580  152.4190 C   0  0  0  0  0  3  0  0  0  0  0  0
  160.9940  208.5040  153.3800 C   0  0  0  0  0  0  0  0  0  0  0  0
  161.2660  209.3750  152.1580 C   0  0  0  0  0  3  0  0  0  0  0  0
  159.7120  210.3260  154.3760 C   0  0  0  0  0  0  0  0  0  0  0  0
  158.7230  211.0710  155.6790 S   0  0  0  0  0  0  0  0  0  0  0  0
  160.2770  208.9710  154.4120 C   0  0  0  0  0  3  0  0  0  0  0  0
  159.2820  212.3260  153.4430 C   0  0  0  0  0  0  0  0  0  0  0  0
  159.8870  211.1100  153.3310 C   0  0  0  0  0  0  0  0  0  0  0  0
  158.5810  212.5200  154.6620 N   0  0  0  0  0  0  0  0  0  0  0  0
  160.7120  214.0360  149.0180 C   0  0  0  0  0  3  0  0  0  0  0  0
  161.4470  213.1580  148.3400 C   0  0  0  0  0  0  0  0  0  0  0  0
  161.8120  211.8210  148.8210 C   0  0  0  0  0  3  0  0  0  0  0  0
  160.0910  212.9510  151.2500 C   0  0  0  0  0  0  0  0  0  0  0  0
  161.5160  211.2190  149.9650 C   0  0  0  0  0  3  0  0  0  0  0  0
  160.7290  211.6750  151.1270 C   0  0  0  0  0  0  0  0  0  0  0  0
  161.9310  213.5580  147.0050 C   0  0  0  0  0  0  0  0  0  0  0  0
  161.4240  212.9530  145.8590 O   0  0  0  0  0  0  0  0  0  0  0  0
  162.8110  214.4530  146.8870 O   0  0  0  0  0  1  0  0  0  0  0  0
  161.5150  207.2050  153.4880 O   0  0  0  0  0  0  0  0  0  0  0  0
  161.1050  203.8250  151.9550 C   0  0  0  0  0  3  0  0  0  0  0  0
  161.4780  206.4950  151.1890 C   0  0  0  0  0  3  0  0  0  0  0  0
  161.1720  203.5200  148.2720 C   0  0  0  0  0  0  0  0  0  0  0  0
  161.0840  203.1640  149.6240 C   0  0  0  0  0  3  0  0  0  0  0  0
  161.1860  204.1540  150.6010 C   0  0  0  0  0  0  0  0  0  0  0  0
  161.4590  205.8120  148.8620 C   0  0  0  0  0  3  0  0  0  0  0  0
  161.3750  205.4970  150.2180 C   0  0  0  0  0  0  0  0  0  0  0  0
  161.3570  204.8270  147.9280 N   0  0  0  0  0  0  0  0  0  0  0  0
  161.3870  206.1710  152.5490 C   0  0  0  0  0  0  0  0  0  0  0  0
  161.2070  204.8270  152.9230 C   0  0  0  0  0  3  0  0  0  0  0  0
  161.0710  202.5180  147.2540 N   0  0  0  0  0  0  0  0  0  0  0  0
  160.8670  201.3260  147.5620 O   0  0  0  0  0  0  0  0  0  0  0  0
  161.1970  202.8580  145.9260 O   0  0  0  0  0  0  0  0  0  0  0  0
  1 10  1  0  0  0  0
  2 15  1  0  0  0  0
  3  9  1  0  0  0  0
  4 21  1  0  0  0  0
  4  8  2  0  0  0  0
  5  1  2  0  0  0  0
  5  4  1  0  0  0  0
  6  8  1  0  0  0  0
  6  7  1  0  0  0  0
  9 11  2  0  0  0  0
 10  9  1  0  0  0  0
 10  6  2  0  0  0  0
 11  7  1  0  0  0  0
 12  2  2  0  0  0  0
 13 14  2  0  0  0  0
 13 12  1  0  0  0  0
 14 16  1  0  0  0  0
 15  3  2  0  0  0  0
 16 17  2  0  0  0  0
 17 15  1  0  0  0  0
 17  1  1  0  0  0  0
 18 13  1  0  0  0  0
 19 18  2  0  0  0  0
 20 18  1  0  0  0  0
 22 31  1  0  0  0  0
 23 30  1  0  0  0  0
 24 25  2  0  0  0  0
 25 26  1  0  0  0  0
 26 22  2  0  0  0  0
 27 28  1  0  0  0  0
 28 26  1  0  0  0  0
 28 23  2  0  0  0  0
 29 24  1  0  0  0  0
 29 27  2  0  0  0  0
 30 31  2  0  0  0  0
 30 21  1  0  0  0  0
 32 33  2  0  0  0  0
 32 24  1  0  0  0  0
 34 32  2  0  0  0  0
M  END
>  <MODEL>
6

>  <REMARK>
 VINA RESULT:      -9.0      3.296      8.389
  Name = 
  4 active torsions:
  status: ('A' for Active; 'I' for Inactive)
    1  A    between atoms: C_3  and  C_25
    2  A    between atoms: C_7  and  N_11
    3  A    between atoms: C_8  and  O_18
    4  A    between atoms: O_18  and  C_30
                            x       y       z     vdW  Elec       q    Type
                         _______ _______ _______ _____ _____    ______ ____

>  <TORSDO>
F 4

$$$$
=
 OpenBabel11062409463D

 34 39  0  0  0  0  0  0  0  0999 V2000
  159.7190  211.8120  152.1020 C   0  0  0  0  0  0  0  0  0  0  0  0
  157.0430  214.1150  153.2660 C   0  0  0  0  0  3  0  0  0  0  0  0
  158.4310  214.2200  151.4370 C   0  0  0  0  0  3  0  0  0  0  0  0
  161.5700  210.1820  151.3990 C   0  0  0  0  0  0  0  0  0  0  0  0
  160.4560  210.5140  152.3860 C   0  0  0  0  0  3  0  0  0  0  0  0
  161.0230  212.1920  150.1280 C   0  0  0  0  0  0  0  0  0  0  0  0
  161.2480  213.3440  148.7670 S   0  0  0  0  0  0  0  0  0  0  0  0
  161.8100  210.9710  150.3420 C   0  0  0  0  0  3  0  0  0  0  0  0
  159.4490  213.7140  150.6420 C   0  0  0  0  0  0  0  0  0  0  0  0
  160.0710  212.5450  150.9690 C   0  0  0  0  0  0  0  0  0  0  0  0
  159.9420  214.3260  149.4600 N   0  0  0  0  0  0  0  0  0  0  0  0
  156.3360  213.7470  154.4950 C   0  0  0  0  0  3  0  0  0  0  0  0
  156.4920  212.6940  155.2930 C   0  0  0  0  0  0  0  0  0  0  0  0
  157.4700  211.6210  155.0840 C   0  0  0  0  0  3  0  0  0  0  0  0
  158.0300  213.5240  152.5930 C   0  0  0  0  0  0  0  0  0  0  0  0
  158.3640  211.4630  154.1160 C   0  0  0  0  0  3  0  0  0  0  0  0
  158.6790  212.2960  152.9400 C   0  0  0  0  0  0  0  0  0  0  0  0
  155.6170  212.5960  156.4770 C   0  0  0  0  0  0  0  0  0  0  0  0
  155.2050  213.7430  157.1480 O   0  0  0  0  0  1  0  0  0  0  0  0
  155.2330  211.4710  156.8940 O   0  0  0  0  0  0  0  0  0  0  0  0
  162.3520  209.0240  151.5340 O   0  0  0  0  0  0  0  0  0  0  0  0
  161.2200  205.4920  151.9660 C   0  0  0  0  0  3  0  0  0  0  0  0
  161.9460  207.2760  149.9310 C   0  0  0  0  0  3  0  0  0  0  0  0
  160.8320  203.3670  148.9670 C   0  0  0  0  0  0  0  0  0  0  0  0
  160.8350  203.7660  150.3100 C   0  0  0  0  0  3  0  0  0  0  0  0
  161.2060  205.0710  150.6360 C   0  0  0  0  0  0  0  0  0  0  0  0
  161.5580  205.5340  148.2880 C   0  0  0  0  0  3  0  0  0  0  0  0
  161.5730  205.9690  149.6130 C   0  0  0  0  0  0  0  0  0  0  0  0
  161.1930  204.2550  147.9970 N   0  0  0  0  0  0  0  0  0  0  0  0
  161.9520  207.7070  151.2630 C   0  0  0  0  0  0  0  0  0  0  0  0
  161.5930  206.8020  152.2780 C   0  0  0  0  0  3  0  0  0  0  0  0
  160.4540  202.0320  148.6110 N   0  0  0  0  0  0  0  0  0  0  0  0
  159.7750  201.3400  149.3980 O   0  0  0  0  0  0  0  0  0  0  0  0
  160.8340  201.4980  147.4010 O   0  0  0  0  0  0  0  0  0  0  0  0
  1  5  1  0  0  0  0
  1 17  1  0  0  0  0
  2 12  2  0  0  0  0
  3 15  2  0  0  0  0
  4 21  1  0  0  0  0
  4  5  2  0  0  0  0
  6  8  2  0  0  0  0
  6 10  1  0  0  0  0
  7 11  1  0  0  0  0
  7  6  1  0  0  0  0
  8  4  1  0  0  0  0
  9 10  1  0  0  0  0
  9  3  1  0  0  0  0
 10  1  2  0  0  0  0
 11  9  2  0  0  0  0
 12 13  1  0  0  0  0
 13 18  1  0  0  0  0
 14 13  2  0  0  0  0
 15 17  1  0  0  0  0
 15  2  1  0  0  0  0
 16 14  1  0  0  0  0
 17 16  2  0  0  0  0
 18 20  2  0  0  0  0
 18 19  1  0  0  0  0
 22 31  1  0  0  0  0
 23 30  1  0  0  0  0
 24 25  2  0  0  0  0
 25 26  1  0  0  0  0
 26 22  2  0  0  0  0
 27 28  1  0  0  0  0
 28 23  2  0  0  0  0
 28 26  1  0  0  0  0
 29 27  2  0  0  0  0
 29 24  1  0  0  0  0
 30 21  1  0  0  0  0
 30 31  2  0  0  0  0
 32 24  1  0  0  0  0
 32 33  2  0  0  0  0
 34 32  2  0  0  0  0
M  END
>  <MODEL>
7

>  <REMARK>
 VINA RESULT:      -8.5      4.687      9.776
  Name = 
  4 active torsions:
  status: ('A' for Active; 'I' for Inactive)
    1  A    between atoms: C_3  and  C_25
    2  A    between atoms: C_7  and  N_11
    3  A    between atoms: C_8  and  O_18
    4  A    between atoms: O_18  and  C_30
                            x       y       z     vdW  Elec       q    Type
                         _______ _______ _______ _____ _____    ______ ____

>  <TORSDO>
F 4

$$$$
=
 OpenBabel11062409463D

 34 39  0  0  0  0  0  0  0  0999 V2000
  160.7200  209.7700  153.1400 C   0  0  0  0  0  0  0  0  0  0  0  0
  159.8030  213.3050  152.4450 C   0  0  0  0  0  3  0  0  0  0  0  0
  159.6220  212.0510  154.3620 C   0  0  0  0  0  3  0  0  0  0  0  0
  161.3520  207.3120  153.5130 C   0  0  0  0  0  0  0  0  0  0  0  0
  161.3150  208.5000  152.5560 C   0  0  0  0  0  3  0  0  0  0  0  0
  160.4040  208.7170  155.2690 C   0  0  0  0  0  0  0  0  0  0  0  0
  159.7990  209.0200  156.9340 S   0  0  0  0  0  0  0  0  0  0  0  0
  160.9350  207.4380  154.7810 C   0  0  0  0  0  3  0  0  0  0  0  0
  159.7840  210.8700  155.0720 C   0  0  0  0  0  0  0  0  0  0  0  0
  160.3170  209.7670  154.4760 C   0  0  0  0  0  0  0  0  0  0  0  0
  159.4260  210.6820  156.4330 N   0  0  0  0  0  0  0  0  0  0  0  0
  160.0540  213.8050  151.0900 C   0  0  0  0  0  3  0  0  0  0  0  0
  160.5720  213.1890  150.0310 C   0  0  0  0  0  0  0  0  0  0  0  0
  161.0250  211.7940  150.0100 C   0  0  0  0  0  3  0  0  0  0  0  0
  160.0110  212.1170  153.0110 C   0  0  0  0  0  0  0  0  0  0  0  0
  161.0230  210.8850  150.9760 C   0  0  0  0  0  3  0  0  0  0  0  0
  160.5720  210.9610  152.3790 C   0  0  0  0  0  0  0  0  0  0  0  0
  160.7020  213.9660  148.7830 C   0  0  0  0  0  0  0  0  0  0  0  0
  159.5730  214.4520  148.1320 O   0  0  0  0  0  0  0  0  0  0  0  0
  161.8390  214.1980  148.2920 O   0  0  0  0  0  1  0  0  0  0  0  0
  161.8590  206.0650  153.1180 O   0  0  0  0  0  0  0  0  0  0  0  0
  161.0740  203.4580  150.5620 C   0  0  0  0  0  3  0  0  0  0  0  0
  161.8280  206.1530  150.7140 C   0  0  0  0  0  3  0  0  0  0  0  0
  161.2590  204.3620  146.9830 C   0  0  0  0  0  0  0  0  0  0  0  0
  161.0670  203.6010  148.1440 C   0  0  0  0  0  3  0  0  0  0  0  0
  161.2560  204.1960  149.3910 C   0  0  0  0  0  0  0  0  0  0  0  0
  161.8180  206.2740  148.2910 C   0  0  0  0  0  3  0  0  0  0  0  0
  161.6360  205.5500  149.4690 C   0  0  0  0  0  0  0  0  0  0  0  0
  161.6290  205.6700  147.0860 N   0  0  0  0  0  0  0  0  0  0  0  0
  161.6370  205.4210  151.8920 C   0  0  0  0  0  0  0  0  0  0  0  0
  161.2660  204.0670  151.8050 C   0  0  0  0  0  3  0  0  0  0  0  0
  161.0700  203.7700  145.6930 N   0  0  0  0  0  0  0  0  0  0  0  0
  161.1830  202.5360  145.5440 O   0  0  0  0  0  0  0  0  0  0  0  0
  160.7630  204.5540  144.6030 O   0  0  0  0  0  0  0  0  0  0  0  0
  1 10  1  0  0  0  0
  2 15  1  0  0  0  0
  3  9  1  0  0  0  0
  4  8  2  0  0  0  0
  5  1  2  0  0  0  0
  5  4  1  0  0  0  0
  6  7  1  0  0  0  0
  8  6  1  0  0  0  0
  9 11  2  0  0  0  0
 10  9  1  0  0  0  0
 10  6  2  0  0  0  0
 11  7  1  0  0  0  0
 12  2  2  0  0  0  0
 13 12  1  0  0  0  0
 14 13  2  0  0  0  0
 14 16  1  0  0  0  0
 15  3  2  0  0  0  0
 16 17  2  0  0  0  0
 17 15  1  0  0  0  0
 17  1  1  0  0  0  0
 18 13  1  0  0  0  0
 19 18  2  0  0  0  0
 20 18  1  0  0  0  0
 21  4  1  0  0  0  0
 22 31  1  0  0  0  0
 23 30  1  0  0  0  0
 24 29  1  0  0  0  0
 24 25  2  0  0  0  0
 25 26  1  0  0  0  0
 26 28  1  0  0  0  0
 26 22  2  0  0  0  0
 27 28  1  0  0  0  0
 28 23  2  0  0  0  0
 29 27  2  0  0  0  0
 30 21  1  0  0  0  0
 31 30  2  0  0  0  0
 32 24  1  0  0  0  0
 33 32  2  0  0  0  0
 34 32  2  0  0  0  0
M  END
>  <MODEL>
8

>  <REMARK>
 VINA RESULT:      -8.3      3.360      8.111
  Name = 
  4 active torsions:
  status: ('A' for Active; 'I' for Inactive)
    1  A    between atoms: C_3  and  C_25
    2  A    between atoms: C_7  and  N_11
    3  A    between atoms: C_8  and  O_18
    4  A    between atoms: O_18  and  C_30
                            x       y       z     vdW  Elec       q    Type
                         _______ _______ _______ _____ _____    ______ ____

>  <TORSDO>
F 4

$$$$
=
 OpenBabel11062409463D

 34 39  0  0  0  0  0  0  0  0999 V2000
  161.3760  205.4020  149.2200 C   0  0  0  0  0  0  0  0  0  0  0  0
  161.4300  203.9410  145.8020 C   0  0  0  0  0  3  0  0  0  0  0  0
  161.6840  206.1100  146.5180 C   0  0  0  0  0  3  0  0  0  0  0  0
  161.2870  206.3210  151.6130 C   0  0  0  0  0  0  0  0  0  0  0  0
  161.2310  205.0990  150.7020 C   0  0  0  0  0  3  0  0  0  0  0  0
  161.6700  207.7380  149.6630 C   0  0  0  0  0  0  0  0  0  0  0  0
  161.9530  209.3190  148.8560 S   0  0  0  0  0  0  0  0  0  0  0  0
  161.5070  207.5440  151.1100 C   0  0  0  0  0  3  0  0  0  0  0  0
  161.7460  207.0710  147.5170 C   0  0  0  0  0  0  0  0  0  0  0  0
  161.5960  206.7220  148.8260 C   0  0  0  0  0  0  0  0  0  0  0  0
  161.9550  208.4580  147.3020 N   0  0  0  0  0  0  0  0  0  0  0  0
  161.2310  202.4940  145.6920 C   0  0  0  0  0  3  0  0  0  0  0  0
  161.0290  201.5810  146.6390 C   0  0  0  0  0  0  0  0  0  0  0  0
  160.9600  201.8650  148.0760 C   0  0  0  0  0  3  0  0  0  0  0  0
  161.4660  204.7610  146.8520 C   0  0  0  0  0  0  0  0  0  0  0  0
  161.0760  203.0190  148.7220 C   0  0  0  0  0  3  0  0  0  0  0  0
  161.3090  204.3890  148.2250 C   0  0  0  0  0  0  0  0  0  0  0  0
  160.8610  200.1780  146.2140 C   0  0  0  0  0  0  0  0  0  0  0  0
  161.5890  199.1630  146.8240 O   0  0  0  0  0  1  0  0  0  0  0  0
  160.0540  199.8850  145.2910 O   0  0  0  0  0  0  0  0  0  0  0  0
  161.1540  206.2080  153.0050 O   0  0  0  0  0  0  0  0  0  0  0  0
  159.9300  208.0020  156.0430 C   0  0  0  0  0  3  0  0  0  0  0  0
  160.8700  208.5530  153.4610 C   0  0  0  0  0  3  0  0  0  0  0  0
  159.7590  211.6940  155.9810 C   0  0  0  0  0  0  0  0  0  0  0  0
  159.6560  210.3760  156.4440 C   0  0  0  0  0  3  0  0  0  0  0  0
  160.0260  209.3240  155.6060 C   0  0  0  0  0  0  0  0  0  0  0  0
  160.5850  210.9250  153.8820 C   0  0  0  0  0  3  0  0  0  0  0  0
  160.4980  209.6000  154.3070 C   0  0  0  0  0  0  0  0  0  0  0  0
  160.2170  211.9330  154.7190 N   0  0  0  0  0  0  0  0  0  0  0  0
  160.7850  207.2250  153.8970 C   0  0  0  0  0  0  0  0  0  0  0  0
  160.3060  206.9590  155.1920 C   0  0  0  0  0  3  0  0  0  0  0  0
  159.3830  212.7870  156.8260 N   0  0  0  0  0  0  0  0  0  0  0  0
  158.2160  212.8760  157.2580 O   0  0  0  0  0  0  0  0  0  0  0  0
  160.3040  213.7500  157.1720 O   0  0  0  0  0  0  0  0  0  0  0  0
  1  5  1  0  0  0  0
  2 15  1  0  0  0  0
  3 15  2  0  0  0  0
  3  9  1  0  0  0  0
  4 21  1  0  0  0  0
  5  4  2  0  0  0  0
  6  8  2  0  0  0  0
  7  6  1  0  0  0  0
  8  4  1  0  0  0  0
  9 10  1  0  0  0  0
 10  1  2  0  0  0  0
 10  6  1  0  0  0  0
 11  9  2  0  0  0  0
 11  7  1  0  0  0  0
 12  2  2  0  0  0  0
 12 13  1  0  0  0  0
 13 14  2  0  0  0  0
 14 16  1  0  0  0  0
 15 17  1  0  0  0  0
 17 16  2  0  0  0  0
 17  1  1  0  0  0  0
 18 13  1  0  0  0  0
 18 19  1  0  0  0  0
 20 18  2  0  0  0  0
 21 30  1  0  0  0  0
 23 30  2  0  0  0  0
 23 28  1  0  0  0  0
 24 25  1  0  0  0  0
 24 32  1  0  0  0  0
 26 22  1  0  0  0  0
 26 25  2  0  0  0  0
 27 28  2  0  0  0  0
 27 29  1  0  0  0  0
 28 26  1  0  0  0  0
 29 24  2  0  0  0  0
 30 31  1  0  0  0  0
 31 22  2  0  0  0  0
 32 34  2  0  0  0  0
 32 33  2  0  0  0  0
M  END
>  <MODEL>
9

>  <REMARK>
 VINA RESULT:      -8.2      5.186      7.448
  Name = 
  4 active torsions:
  status: ('A' for Active; 'I' for Inactive)
    1  A    between atoms: C_3  and  C_25
    2  A    between atoms: C_7  and  N_11
    3  A    between atoms: C_8  and  O_18
    4  A    between atoms: O_18  and  C_30
                            x       y       z     vdW  Elec       q    Type
                         _______ _______ _______ _____ _____    ______ ____

>  <TORSDO>
F 4

$$$$
