=
 OpenBabel11062410293D

 43 48  0  0  1  0  0  0  0  0999 V2000
  161.4030  206.5430  153.9600 C   0  0  0  0  0  2  0  0  0  0  0  0
  161.5840  207.8960  154.6700 C   0  0  1  0  0  3  0  0  0  0  0  0
  161.6750  206.6100  152.4580 C   0  0  0  0  0  2  0  0  0  0  0  0
  161.9020  209.0520  153.7140 C   0  0  0  0  0  2  0  0  0  0  0  0
  160.9480  209.0760  152.5180 C   0  0  0  0  0  2  0  0  0  0  0  0
  160.8240  207.7080  151.8160 C   0  0  1  0  0  3  0  0  0  0  0  0
  160.0960  207.2960  156.8190 O   0  0  0  0  0  0  0  0  0  0  0  0
  160.1470  208.2620  155.6680 S   0  0  0  0  0  0  0  0  0  0  0  0
  158.8970  208.1030  154.8490 O   0  0  0  0  0  0  0  0  0  0  0  0
  160.2490  209.8970  156.2610 N   0  0  0  0  0  0  0  0  0  0  0  0
  159.5000  210.9430  155.6140 C   0  0  0  0  0  0  0  0  0  0  0  0
  159.8340  212.1490  155.7710 O   0  0  0  0  0  0  0  0  0  0  0  0
  162.5600  209.4940  156.9680 C   0  0  0  0  0  2  0  0  0  0  0  0
  161.2630  210.2360  157.2600 C   0  0  0  0  0  3  0  0  0  0  0  0
  162.4320  210.9490  156.5970 C   0  0  0  0  0  2  0  0  0  0  0  0
  158.2980  210.6320  154.7770 C   0  0  0  0  0  2  0  0  0  0  0  0
  158.0160  211.7460  153.8260 C   0  0  0  0  0  0  0  0  0  0  0  0
  158.5550  212.9750  151.8240 C   0  0  0  0  0  3  0  0  0  0  0  0
  156.7410  213.6890  153.1820 C   0  0  0  0  0  3  0  0  0  0  0  0
  157.5300  213.8330  152.0830 N   0  0  0  0  0  0  0  0  0  0  0  0
  156.9710  212.6410  154.0760 C   0  0  0  0  0  3  0  0  0  0  0  0
  158.8180  211.9140  152.6940 C   0  0  0  0  0  3  0  0  0  0  0  0
  161.0560  207.7870  150.3030 C   0  0  2  0  0  3  0  0  0  0  0  0
  161.4120  201.4620  148.6770 C   0  0  1  0  0  3  0  0  0  0  0  0
  161.0860  206.4410  149.6360 C   0  0  0  0  0  0  0  0  0  0  0  0
  161.2090  203.9530  148.4040 C   0  0  0  0  0  0  0  0  0  0  0  0
  160.4610  201.6060  149.8600 C   0  0  0  0  0  2  0  0  0  0  0  0
  161.1600  200.2580  148.0200 O   0  0  0  0  0  1  0  0  0  0  0  0
  160.9500  204.0700  149.7870 C   0  0  0  0  0  0  0  0  0  0  0  0
  161.1980  202.6200  147.7070 C   0  0  0  0  0  2  0  0  0  0  0  0
  160.8210  202.8530  150.6620 C   0  0  0  0  0  2  0  0  0  0  0  0
  160.9170  205.3000  150.3630 N   0  0  0  0  0  0  0  0  0  0  0  0
  161.3310  206.3630  148.2630 C   0  0  0  0  0  3  0  0  0  0  0  0
  161.3870  205.1130  147.6470 C   0  0  0  0  0  3  0  0  0  0  0  0
  162.3050  208.6060  149.9830 C   0  0  0  0  0  2  0  0  0  0  0  0
  161.5630  212.2360  149.8110 C   0  0  0  0  0  3  0  0  0  0  0  0
  161.1040  212.3730  148.4190 C   0  0  0  0  0  0  0  0  0  0  0  0
  161.8240  210.0280  147.9760 C   0  0  0  0  0  2  0  0  0  0  0  0
  161.9540  211.0530  150.2810 C   0  0  0  0  0  3  0  0  0  0  0  0
  161.9460  209.9000  149.4290 N   0  0  0  0  0  0  0  0  0  0  0  0
  161.1910  211.3330  147.5750 C   0  0  0  0  0  3  0  0  0  0  0  0
  159.1670  213.8660  148.0110 C   0  0  0  0  0  1  0  0  0  0  0  0
  160.5630  213.5970  148.0130 O   0  0  0  0  0  0  0  0  0  0  0  0
  1  2  1  0  0  0  0
  2  8  1  6  0  0  0
  3  1  1  0  0  0  0
  4  2  1  0  0  0  0
  5  4  1  0  0  0  0
  6 23  1  6  0  0  0
  6  3  1  0  0  0  0
  6  5  1  0  0  0  0
  8 10  1  0  0  0  0
  8  7  2  0  0  0  0
  9  8  2  0  0  0  0
 10 14  1  0  0  0  0
 11 12  2  0  0  0  0
 11 10  1  0  0  0  0
 13 14  1  0  0  0  0
 15 13  1  0  0  0  0
 15 14  1  0  0  0  0
 16 11  1  0  0  0  0
 17 21  1  0  0  0  0
 17 16  1  0  0  0  0
 18 20  2  0  0  0  0
 18 22  1  0  0  0  0
 19 21  2  0  0  0  0
 20 19  1  0  0  0  0
 22 17  2  0  0  0  0
 23 35  1  1  0  0  0
 24 28  1  6  0  0  0
 24 27  1  0  0  0  0
 25 23  1  0  0  0  0
 25 32  1  0  0  0  0
 26 29  1  0  0  0  0
 27 31  1  0  0  0  0
 29 32  2  0  0  0  0
 29 31  1  0  0  0  0
 30 26  1  0  0  0  0
 30 24  1  0  0  0  0
 33 25  2  0  0  0  0
 34 33  1  0  0  0  0
 34 26  2  0  0  0  0
 36 39  2  0  0  0  0
 37 36  1  0  0  0  0
 38 40  1  0  0  0  0
 40 35  1  0  0  0  0
 40 39  1  0  0  0  0
 41 38  1  0  0  0  0
 41 37  2  0  0  0  0
 42 43  1  0  0  0  0
 43 37  1  0  0  0  0
M  END
>  <MODEL>
1

>  <REMARK>
 VINA RESULT:      -6.8      0.000      0.000
  Name = 
  10 active torsions:
  status: ('A' for Active; 'I' for Inactive)
    1  A    between atoms: C_1  and  C_34
    2  A    between atoms: C_1  and  N_35
    3  A    between atoms: N_4  and  S_12
    4  A    between atoms: N_4  and  C_15
    5  A    between atoms: C_6  and  S_12
    6  A    between atoms: C_8  and  C_34
    7  A    between atoms: C_11  and  C_14
    8  A    between atoms: C_14  and  C_22
    9  A    between atoms: C_19  and  O_37
   10  A    between atoms: C_34  and  C_38
                            x       y       z     vdW  Elec       q    Type
                         _______ _______ _______ _____ _____    ______ ____

>  <TORSDO>
F 10

$$$$
=
 OpenBabel11062410293D

 43 48  0  0  1  0  0  0  0  0999 V2000
  160.8020  208.4830  154.2500 C   0  0  0  0  0  2  0  0  0  0  0  0
  161.4470  209.7270  153.6160 C   0  0  1  0  0  3  0  0  0  0  0  0
  161.2580  207.1740  153.6080 C   0  0  0  0  0  2  0  0  0  0  0  0
  162.3380  209.4080  152.4090 C   0  0  0  0  0  2  0  0  0  0  0  0
  161.6380  208.4730  151.4210 C   0  0  0  0  0  2  0  0  0  0  0  0
  161.0360  207.2230  152.0950 C   0  0  1  0  0  3  0  0  0  0  0  0
  158.9460  210.1880  152.7650 O   0  0  0  0  0  0  0  0  0  0  0  0
  160.1880  210.9210  153.1890 S   0  0  0  0  0  0  0  0  0  0  0  0
  160.6560  211.7780  152.0460 O   0  0  0  0  0  0  0  0  0  0  0  0
  159.8460  211.9300  154.5680 N   0  0  0  0  0  0  0  0  0  0  0  0
  159.3410  213.2640  154.3740 C   0  0  0  0  0  0  0  0  0  0  0  0
  159.4430  214.1190  155.2960 O   0  0  0  0  0  0  0  0  0  0  0  0
  159.1910  211.7450  156.9210 C   0  0  0  0  0  2  0  0  0  0  0  0
  160.2890  211.5030  155.8960 C   0  0  0  0  0  3  0  0  0  0  0  0
  159.4240  210.3540  156.3910 C   0  0  0  0  0  2  0  0  0  0  0  0
  158.6590  213.6580  153.1000 C   0  0  0  0  0  2  0  0  0  0  0  0
  157.1970  213.8530  153.3240 C   0  0  0  0  0  0  0  0  0  0  0  0
  155.2680  213.7420  154.7630 C   0  0  0  0  0  3  0  0  0  0  0  0
  155.0060  214.4390  152.5070 C   0  0  0  0  0  3  0  0  0  0  0  0
  154.4850  214.1670  153.7340 N   0  0  0  0  0  0  0  0  0  0  0  0
  156.3750  214.2850  152.2790 C   0  0  0  0  0  3  0  0  0  0  0  0
  156.6420  213.5750  154.5750 C   0  0  0  0  0  3  0  0  0  0  0  0
  161.4640  205.9140  151.4220 C   0  0  2  0  0  3  0  0  0  0  0  0
  161.9180  205.6460  144.9030 C   0  0  1  0  0  3  0  0  0  0  0  0
  161.2580  205.9160  149.9330 C   0  0  0  0  0  0  0  0  0  0  0  0
  160.9030  205.9830  147.1780 C   0  0  0  0  0  0  0  0  0  0  0  0
  162.5910  204.4090  145.4870 C   0  0  0  0  0  2  0  0  0  0  0  0
  161.5810  205.4080  143.5710 O   0  0  0  0  0  1  0  0  0  0  0  0
  162.0090  205.3230  147.7540 C   0  0  0  0  0  0  0  0  0  0  0  0
  160.6520  205.9590  145.6950 C   0  0  0  0  0  2  0  0  0  0  0  0
  163.0840  204.7100  146.9000 C   0  0  0  0  0  2  0  0  0  0  0  0
  162.1650  205.3260  149.1050 N   0  0  0  0  0  0  0  0  0  0  0  0
  160.1440  206.5680  149.3970 C   0  0  0  0  0  3  0  0  0  0  0  0
  159.9670  206.5950  148.0140 C   0  0  0  0  0  3  0  0  0  0  0  0
  160.7930  204.7130  152.0850 C   0  0  0  0  0  2  0  0  0  0  0  0
  161.9360  201.4720  150.6880 C   0  0  0  0  0  3  0  0  0  0  0  0
  161.0990  201.3640  149.4820 C   0  0  0  0  0  0  0  0  0  0  0  0
  159.7850  203.3400  150.2460 C   0  0  0  0  0  2  0  0  0  0  0  0
  161.8150  202.5170  151.5050 C   0  0  0  0  0  3  0  0  0  0  0  0
  160.8560  203.5450  151.2230 N   0  0  0  0  0  0  0  0  0  0  0  0
  160.1230  202.2570  149.2570 C   0  0  0  0  0  3  0  0  0  0  0  0
  161.2100  200.4710  147.1710 C   0  0  0  0  0  1  0  0  0  0  0  0
  161.3630  200.3300  148.5780 O   0  0  0  0  0  0  0  0  0  0  0  0
  2  8  1  6  0  0  0
  2  1  1  0  0  0  0
  3  1  1  0  0  0  0
  4  2  1  0  0  0  0
  5  6  1  0  0  0  0
  5  4  1  0  0  0  0
  6 23  1  6  0  0  0
  6  3  1  0  0  0  0
  7  8  2  0  0  0  0
  8 10  1  0  0  0  0
  9  8  2  0  0  0  0
 10 14  1  0  0  0  0
 11 10  1  0  0  0  0
 11 12  2  0  0  0  0
 14 15  1  0  0  0  0
 14 13  1  0  0  0  0
 15 13  1  0  0  0  0
 16 17  1  0  0  0  0
 16 11  1  0  0  0  0
 17 22  1  0  0  0  0
 19 20  2  0  0  0  0
 20 18  1  0  0  0  0
 21 19  1  0  0  0  0
 21 17  2  0  0  0  0
 22 18  2  0  0  0  0
 23 35  1  1  0  0  0
 24 28  1  6  0  0  0
 24 27  1  0  0  0  0
 24 30  1  0  0  0  0
 25 23  1  0  0  0  0
 26 29  2  0  0  0  0
 26 34  1  0  0  0  0
 27 31  1  0  0  0  0
 29 32  1  0  0  0  0
 30 26  1  0  0  0  0
 31 29  1  0  0  0  0
 32 25  2  0  0  0  0
 33 25  1  0  0  0  0
 34 33  2  0  0  0  0
 36 39  2  0  0  0  0
 37 36  1  0  0  0  0
 38 40  1  0  0  0  0
 40 39  1  0  0  0  0
 40 35  1  0  0  0  0
 41 37  2  0  0  0  0
 41 38  1  0  0  0  0
 42 43  1  0  0  0  0
 43 37  1  0  0  0  0
M  END
>  <MODEL>
2

>  <REMARK>
 VINA RESULT:      -6.5      2.582      5.406
  Name = 
  10 active torsions:
  status: ('A' for Active; 'I' for Inactive)
    1  A    between atoms: C_1  and  C_34
    2  A    between atoms: C_1  and  N_35
    3  A    between atoms: N_4  and  S_12
    4  A    between atoms: N_4  and  C_15
    5  A    between atoms: C_6  and  S_12
    6  A    between atoms: C_8  and  C_34
    7  A    between atoms: C_11  and  C_14
    8  A    between atoms: C_14  and  C_22
    9  A    between atoms: C_19  and  O_37
   10  A    between atoms: C_34  and  C_38
                            x       y       z     vdW  Elec       q    Type
                         _______ _______ _______ _____ _____    ______ ____

>  <TORSDO>
F 10

$$$$
=
 OpenBabel11062410293D

 43 48  0  0  1  0  0  0  0  0999 V2000
  160.5330  207.3230  154.2380 C   0  0  0  0  0  2  0  0  0  0  0  0
  161.5470  208.4650  154.0600 C   0  0  1  0  0  3  0  0  0  0  0  0
  160.8780  206.0770  153.4230 C   0  0  0  0  0  2  0  0  0  0  0  0
  162.6410  208.1590  153.0290 C   0  0  0  0  0  2  0  0  0  0  0  0
  162.0530  207.6120  151.7270 C   0  0  0  0  0  2  0  0  0  0  0  0
  161.0680  206.4460  151.9500 C   0  0  1  0  0  3  0  0  0  0  0  0
  159.4060  209.6520  152.9660 O   0  0  0  0  0  0  0  0  0  0  0  0
  160.6960  209.9850  153.6630 S   0  0  0  0  0  0  0  0  0  0  0  0
  161.5390  210.8230  152.7420 O   0  0  0  0  0  0  0  0  0  0  0  0
  160.3750  210.8750  155.1260 N   0  0  0  0  0  0  0  0  0  0  0  0
  159.9440  212.2470  155.0510 C   0  0  0  0  0  0  0  0  0  0  0  0
  160.0680  213.0040  156.0530 O   0  0  0  0  0  0  0  0  0  0  0  0
  162.2430  209.9470  156.4110 C   0  0  0  0  0  2  0  0  0  0  0  0
  160.7630  210.3000  156.4150 C   0  0  0  0  0  3  0  0  0  0  0  0
  161.7760  211.2010  157.1050 C   0  0  0  0  0  2  0  0  0  0  0  0
  159.3130  212.7950  153.8090 C   0  0  0  0  0  2  0  0  0  0  0  0
  157.8560  213.0330  154.0190 C   0  0  0  0  0  0  0  0  0  0  0  0
  155.9180  214.4530  153.8240 C   0  0  0  0  0  3  0  0  0  0  0  0
  155.7100  212.3250  154.8610 C   0  0  0  0  0  3  0  0  0  0  0  0
  155.1680  213.5010  154.4440 N   0  0  0  0  0  0  0  0  0  0  0  0
  157.0680  212.0700  154.6570 C   0  0  0  0  0  3  0  0  0  0  0  0
  157.2800  214.2360  153.6020 C   0  0  0  0  0  3  0  0  0  0  0  0
  161.3940  205.2130  151.1000 C   0  0  2  0  0  3  0  0  0  0  0  0
  161.7200  205.5480  144.5760 C   0  0  1  0  0  3  0  0  0  0  0  0
  161.1880  205.4360  149.6280 C   0  0  0  0  0  0  0  0  0  0  0  0
  160.8510  205.9000  146.9090 C   0  0  0  0  0  0  0  0  0  0  0  0
  162.0260  204.1160  145.0040 C   0  0  0  0  0  2  0  0  0  0  0  0
  161.3220  205.5590  143.2400 O   0  0  0  0  0  1  0  0  0  0  0  0
  161.7330  204.9010  147.3730 C   0  0  0  0  0  0  0  0  0  0  0  0
  160.5960  206.1090  145.4410 C   0  0  0  0  0  2  0  0  0  0  0  0
  162.5910  204.1130  146.4220 C   0  0  0  0  0  2  0  0  0  0  0  0
  161.8910  204.7130  148.7100 N   0  0  0  0  0  0  0  0  0  0  0  0
  160.2970  206.4240  149.2020 C   0  0  0  0  0  3  0  0  0  0  0  0
  160.1260  206.6500  147.8370 C   0  0  0  0  0  3  0  0  0  0  0  0
  160.6340  203.9870  151.5990 C   0  0  0  0  0  2  0  0  0  0  0  0
  161.9570  200.9440  149.9410 C   0  0  0  0  0  3  0  0  0  0  0  0
  161.0840  200.8550  148.7590 C   0  0  0  0  0  0  0  0  0  0  0  0
  159.6590  202.6680  149.7040 C   0  0  0  0  0  2  0  0  0  0  0  0
  161.7920  201.9190  150.8320 C   0  0  0  0  0  3  0  0  0  0  0  0
  160.7490  202.8880  150.6560 N   0  0  0  0  0  0  0  0  0  0  0  0
  160.0370  201.6830  148.6310 C   0  0  0  0  0  3  0  0  0  0  0  0
  161.2370  200.1550  146.3850 C   0  0  0  0  0  1  0  0  0  0  0  0
  161.3890  199.9070  147.7760 O   0  0  0  0  0  0  0  0  0  0  0  0
  2  8  1  6  0  0  0
  2  1  1  0  0  0  0
  3  1  1  0  0  0  0
  4  2  1  0  0  0  0
  5  6  1  0  0  0  0
  5  4  1  0  0  0  0
  6 23  1  6  0  0  0
  6  3  1  0  0  0  0
  7  8  2  0  0  0  0
  8 10  1  0  0  0  0
  9  8  2  0  0  0  0
 10 14  1  0  0  0  0
 11 10  1  0  0  0  0
 11 12  2  0  0  0  0
 13 14  1  0  0  0  0
 13 15  1  0  0  0  0
 14 15  1  0  0  0  0
 16 17  1  0  0  0  0
 16 11  1  0  0  0  0
 17 21  1  0  0  0  0
 18 20  2  0  0  0  0
 20 19  1  0  0  0  0
 21 19  2  0  0  0  0
 22 18  1  0  0  0  0
 22 17  2  0  0  0  0
 23 35  1  1  0  0  0
 24 28  1  6  0  0  0
 24 27  1  0  0  0  0
 24 30  1  0  0  0  0
 25 23  1  0  0  0  0
 26 29  2  0  0  0  0
 26 34  1  0  0  0  0
 27 31  1  0  0  0  0
 29 32  1  0  0  0  0
 30 26  1  0  0  0  0
 31 29  1  0  0  0  0
 32 25  2  0  0  0  0
 33 25  1  0  0  0  0
 34 33  2  0  0  0  0
 36 39  2  0  0  0  0
 37 36  1  0  0  0  0
 38 40  1  0  0  0  0
 40 39  1  0  0  0  0
 40 35  1  0  0  0  0
 41 37  2  0  0  0  0
 41 38  1  0  0  0  0
 42 43  1  0  0  0  0
 43 37  1  0  0  0  0
M  END
>  <MODEL>
3

>  <REMARK>
 VINA RESULT:      -5.6      2.633      5.427
  Name = 
  10 active torsions:
  status: ('A' for Active; 'I' for Inactive)
    1  A    between atoms: C_1  and  C_34
    2  A    between atoms: C_1  and  N_35
    3  A    between atoms: N_4  and  S_12
    4  A    between atoms: N_4  and  C_15
    5  A    between atoms: C_6  and  S_12
    6  A    between atoms: C_8  and  C_34
    7  A    between atoms: C_11  and  C_14
    8  A    between atoms: C_14  and  C_22
    9  A    between atoms: C_19  and  O_37
   10  A    between atoms: C_34  and  C_38
                            x       y       z     vdW  Elec       q    Type
                         _______ _______ _______ _____ _____    ______ ____

>  <TORSDO>
F 10

$$$$
=
 OpenBabel11062410293D

 43 48  0  0  1  0  0  0  0  0999 V2000
  162.4440  206.3870  150.4370 C   0  0  0  0  0  2  0  0  0  0  0  0
  162.2000  205.5910  151.7300 C   0  0  1  0  0  3  0  0  0  0  0  0
  162.4800  207.8980  150.6560 C   0  0  0  0  0  2  0  0  0  0  0  0
  161.9440  206.4760  152.9560 C   0  0  0  0  0  2  0  0  0  0  0  0
  160.9060  207.5610  152.6620 C   0  0  0  0  0  2  0  0  0  0  0  0
  161.2090  208.3560  151.3760 C   0  0  1  0  0  3  0  0  0  0  0  0
  159.6240  205.1770  151.1100 O   0  0  0  0  0  0  0  0  0  0  0  0
  160.8680  204.4230  151.4900 S   0  0  0  0  0  0  0  0  0  0  0  0
  160.6060  203.6700  152.7640 O   0  0  0  0  0  0  0  0  0  0  0  0
  161.2960  203.3000  150.2290 N   0  0  0  0  0  0  0  0  0  0  0  0
  161.2030  203.7000  148.8490 C   0  0  0  0  0  0  0  0  0  0  0  0
  161.1390  202.8270  147.9400 O   0  0  0  0  0  0  0  0  0  0  0  0
  160.2040  201.1380  150.5980 C   0  0  0  0  0  2  0  0  0  0  0  0
  161.5240  201.8940  150.5670 C   0  0  0  0  0  3  0  0  0  0  0  0
  161.1140  201.0030  149.4050 C   0  0  0  0  0  2  0  0  0  0  0  0
  161.2140  205.1450  148.4580 C   0  0  0  0  0  2  0  0  0  0  0  0
  161.3480  205.2910  146.9800 C   0  0  0  0  0  0  0  0  0  0  0  0
  160.5100  206.1100  144.8740 C   0  0  0  0  0  3  0  0  0  0  0  0
  162.5110  204.8300  144.9190 C   0  0  0  0  0  3  0  0  0  0  0  0
  161.5630  205.5270  144.2370 N   0  0  0  0  0  0  0  0  0  0  0  0
  162.4200  204.6980  146.3060 C   0  0  0  0  0  3  0  0  0  0  0  0
  160.3830  206.0000  146.2600 C   0  0  0  0  0  3  0  0  0  0  0  0
  161.2020  209.8740  151.5930 C   0  0  2  0  0  3  0  0  0  0  0  0
  161.3310  213.5570  146.1900 C   0  0  1  0  0  3  0  0  0  0  0  0
  161.5420  210.6520  150.3540 C   0  0  0  0  0  0  0  0  0  0  0  0
  162.1450  212.0410  148.0230 C   0  0  0  0  0  0  0  0  0  0  0  0
  160.5790  214.3170  147.2770 C   0  0  0  0  0  2  0  0  0  0  0  0
  161.7810  214.4530  145.2210 O   0  0  0  0  0  1  0  0  0  0  0  0
  160.9760  212.3270  148.7600 C   0  0  0  0  0  0  0  0  0  0  0  0
  162.5270  212.8380  146.8060 C   0  0  0  0  0  2  0  0  0  0  0  0
  159.9680  213.3290  148.2670 C   0  0  0  0  0  2  0  0  0  0  0  0
  160.6990  211.6160  149.8850 N   0  0  0  0  0  0  0  0  0  0  0  0
  162.7140  210.3520  149.6560 C   0  0  0  0  0  3  0  0  0  0  0  0
  163.0160  211.0550  148.4890 C   0  0  0  0  0  3  0  0  0  0  0  0
  162.0950  210.2630  152.7690 C   0  0  0  0  0  2  0  0  0  0  0  0
  161.0200  210.6490  156.2980 C   0  0  0  0  0  3  0  0  0  0  0  0
  159.6960  211.2700  156.1320 C   0  0  0  0  0  0  0  0  0  0  0  0
  160.1630  211.5600  153.7010 C   0  0  0  0  0  2  0  0  0  0  0  0
  161.7690  210.3570  155.2360 C   0  0  0  0  0  3  0  0  0  0  0  0
  161.2960  210.6590  153.9160 N   0  0  0  0  0  0  0  0  0  0  0  0
  159.2820  211.6590  154.9160 C   0  0  0  0  0  3  0  0  0  0  0  0
  157.5320  211.8550  157.1920 C   0  0  0  0  0  1  0  0  0  0  0  0
  158.8840  211.4220  157.2610 O   0  0  0  0  0  0  0  0  0  0  0  0
  1  3  1  0  0  0  0
  1  2  1  0  0  0  0
  2  8  1  6  0  0  0
  2  4  1  0  0  0  0
  3  6  1  0  0  0  0
  5  4  1  0  0  0  0
  6 23  1  1  0  0  0
  6  5  1  0  0  0  0
  7  8  2  0  0  0  0
  8  9  2  0  0  0  0
 10 14  1  0  0  0  0
 10  8  1  0  0  0  0
 11 10  1  0  0  0  0
 12 11  2  0  0  0  0
 14 13  1  0  0  0  0
 15 14  1  0  0  0  0
 15 13  1  0  0  0  0
 16 11  1  0  0  0  0
 17 16  1  0  0  0  0
 18 22  1  0  0  0  0
 19 21  2  0  0  0  0
 20 18  2  0  0  0  0
 20 19  1  0  0  0  0
 21 17  1  0  0  0  0
 22 17  2  0  0  0  0
 23 35  1  1  0  0  0
 24 28  1  6  0  0  0
 24 30  1  0  0  0  0
 24 27  1  0  0  0  0
 25 23  1  0  0  0  0
 26 34  2  0  0  0  0
 26 29  1  0  0  0  0
 27 31  1  0  0  0  0
 29 32  2  0  0  0  0
 30 26  1  0  0  0  0
 31 29  1  0  0  0  0
 32 25  1  0  0  0  0
 33 25  2  0  0  0  0
 34 33  1  0  0  0  0
 35 40  1  0  0  0  0
 37 36  1  0  0  0  0
 37 43  1  0  0  0  0
 38 40  1  0  0  0  0
 38 41  1  0  0  0  0
 39 36  2  0  0  0  0
 40 39  1  0  0  0  0
 41 37  2  0  0  0  0
 42 43  1  0  0  0  0
M  END
>  <MODEL>
4

>  <REMARK>
 VINA RESULT:      -5.1      2.332      8.556
  Name = 
  10 active torsions:
  status: ('A' for Active; 'I' for Inactive)
    1  A    between atoms: C_1  and  C_34
    2  A    between atoms: C_1  and  N_35
    3  A    between atoms: N_4  and  S_12
    4  A    between atoms: N_4  and  C_15
    5  A    between atoms: C_6  and  S_12
    6  A    between atoms: C_8  and  C_34
    7  A    between atoms: C_11  and  C_14
    8  A    between atoms: C_14  and  C_22
    9  A    between atoms: C_19  and  O_37
   10  A    between atoms: C_34  and  C_38
                            x       y       z     vdW  Elec       q    Type
                         _______ _______ _______ _____ _____    ______ ____

>  <TORSDO>
F 10

$$$$
=
 OpenBabel11062410293D

 43 48  0  0  1  0  0  0  0  0999 V2000
  161.9540  208.6450  149.1090 C   0  0  0  0  0  2  0  0  0  0  0  0
  162.4950  208.5570  150.5460 C   0  0  1  0  0  3  0  0  0  0  0  0
  161.7270  210.0800  148.6370 C   0  0  0  0  0  2  0  0  0  0  0  0
  162.6020  209.9170  151.2450 C   0  0  0  0  0  2  0  0  0  0  0  0
  161.3190  210.7360  151.0900 C   0  0  0  0  0  2  0  0  0  0  0  0
  160.8320  210.8260  149.6290 C   0  0  1  0  0  3  0  0  0  0  0  0
  160.0660  207.8360  151.4240 O   0  0  0  0  0  0  0  0  0  0  0  0
  161.5080  207.4170  151.5040 S   0  0  0  0  0  0  0  0  0  0  0  0
  161.9380  207.4450  152.9440 O   0  0  0  0  0  0  0  0  0  0  0  0
  161.6980  205.8040  150.8730 N   0  0  0  0  0  0  0  0  0  0  0  0
  161.1150  205.4570  149.6030 C   0  0  0  0  0  0  0  0  0  0  0  0
  160.9140  204.2470  149.3090 O   0  0  0  0  0  0  0  0  0  0  0  0
  161.2050  204.3080  152.7500 C   0  0  0  0  0  2  0  0  0  0  0  0
  162.2470  204.7560  151.7350 C   0  0  0  0  0  3  0  0  0  0  0  0
  161.4780  203.4590  151.5360 C   0  0  0  0  0  2  0  0  0  0  0  0
  160.7680  206.5090  148.5960 C   0  0  0  0  0  2  0  0  0  0  0  0
  161.1500  206.0700  147.2220 C   0  0  0  0  0  0  0  0  0  0  0  0
  160.6170  205.8030  144.8870 C   0  0  0  0  0  3  0  0  0  0  0  0
  162.7150  205.0430  145.7030 C   0  0  0  0  0  3  0  0  0  0  0  0
  161.8290  205.2190  144.6850 N   0  0  0  0  0  0  0  0  0  0  0  0
  162.3890  205.4650  146.9930 C   0  0  0  0  0  3  0  0  0  0  0  0
  160.2530  206.2390  146.1640 C   0  0  0  0  0  3  0  0  0  0  0  0
  160.5660  212.2650  149.1730 C   0  0  2  0  0  3  0  0  0  0  0  0
  162.5550  213.1030  142.9990 C   0  0  1  0  0  3  0  0  0  0  0  0
  161.2600  212.6200  147.8890 C   0  0  0  0  0  0  0  0  0  0  0  0
  162.5710  213.2120  145.5110 C   0  0  0  0  0  0  0  0  0  0  0  0
  161.0750  213.4590  143.0850 C   0  0  0  0  0  2  0  0  0  0  0  0
  163.1130  213.6970  141.8680 O   0  0  0  0  0  1  0  0  0  0  0  0
  161.2050  212.8600  145.5220 C   0  0  0  0  0  0  0  0  0  0  0  0
  163.2740  213.6140  144.2440 C   0  0  0  0  0  2  0  0  0  0  0  0
  160.4290  212.7020  144.2420 C   0  0  0  0  0  2  0  0  0  0  0  0
  160.5980  212.5550  146.6990 N   0  0  0  0  0  0  0  0  0  0  0  0
  162.6110  212.9770  147.9160 C   0  0  0  0  0  3  0  0  0  0  0  0
  163.2640  213.2790  146.7220 C   0  0  0  0  0  3  0  0  0  0  0  0
  160.8890  213.2600  150.2850 C   0  0  0  0  0  2  0  0  0  0  0  0
  158.5660  213.8870  153.1080 C   0  0  0  0  0  3  0  0  0  0  0  0
  157.3250  214.2280  152.3920 C   0  0  0  0  0  0  0  0  0  0  0  0
  158.6030  214.2870  150.2530 C   0  0  0  0  0  2  0  0  0  0  0  0
  159.6790  213.6060  152.4350 C   0  0  0  0  0  3  0  0  0  0  0  0
  159.6850  213.6450  151.0010 N   0  0  0  0  0  0  0  0  0  0  0  0
  157.3350  214.3770  151.0590 C   0  0  0  0  0  3  0  0  0  0  0  0
  155.5740  213.3120  153.8900 C   0  0  0  0  0  1  0  0  0  0  0  0
  156.1460  214.3700  153.1320 O   0  0  0  0  0  0  0  0  0  0  0  0
  1  2  1  0  0  0  0
  2  4  1  0  0  0  0
  2  8  1  1  0  0  0
  3  1  1  0  0  0  0
  3  6  1  0  0  0  0
  5  4  1  0  0  0  0
  6 23  1  6  0  0  0
  6  5  1  0  0  0  0
  7  8  2  0  0  0  0
  8  9  2  0  0  0  0
 10  8  1  0  0  0  0
 10 14  1  0  0  0  0
 11 10  1  0  0  0  0
 12 11  2  0  0  0  0
 14 13  1  0  0  0  0
 15 14  1  0  0  0  0
 15 13  1  0  0  0  0
 16 11  1  0  0  0  0
 17 16  1  0  0  0  0
 18 22  1  0  0  0  0
 19 21  2  0  0  0  0
 20 18  2  0  0  0  0
 20 19  1  0  0  0  0
 21 17  1  0  0  0  0
 22 17  2  0  0  0  0
 23 35  1  1  0  0  0
 24 28  1  6  0  0  0
 24 27  1  0  0  0  0
 24 30  1  0  0  0  0
 25 33  1  0  0  0  0
 25 23  1  0  0  0  0
 26 29  2  0  0  0  0
 26 34  1  0  0  0  0
 27 31  1  0  0  0  0
 29 32  1  0  0  0  0
 30 26  1  0  0  0  0
 31 29  1  0  0  0  0
 32 25  2  0  0  0  0
 34 33  2  0  0  0  0
 35 40  1  0  0  0  0
 37 36  1  0  0  0  0
 37 43  1  0  0  0  0
 38 40  1  0  0  0  0
 38 41  1  0  0  0  0
 39 36  2  0  0  0  0
 40 39  1  0  0  0  0
 41 37  2  0  0  0  0
 43 42  1  0  0  0  0
M  END
>  <MODEL>
5

>  <REMARK>
 VINA RESULT:      -4.9      3.221      8.241
  Name = 
  10 active torsions:
  status: ('A' for Active; 'I' for Inactive)
    1  A    between atoms: C_1  and  C_34
    2  A    between atoms: C_1  and  N_35
    3  A    between atoms: N_4  and  S_12
    4  A    between atoms: N_4  and  C_15
    5  A    between atoms: C_6  and  S_12
    6  A    between atoms: C_8  and  C_34
    7  A    between atoms: C_11  and  C_14
    8  A    between atoms: C_14  and  C_22
    9  A    between atoms: C_19  and  O_37
   10  A    between atoms: C_34  and  C_38
                            x       y       z     vdW  Elec       q    Type
                         _______ _______ _______ _____ _____    ______ ____

>  <TORSDO>
F 10

$$$$
=
 OpenBabel11062410293D

 43 48  0  0  1  0  0  0  0  0999 V2000
  162.5090  207.3900  148.3200 C   0  0  0  0  0  2  0  0  0  0  0  0
  162.2530  206.4300  149.4950 C   0  0  1  0  0  3  0  0  0  0  0  0
  162.6850  208.8430  148.7560 C   0  0  0  0  0  2  0  0  0  0  0  0
  162.1280  207.1390  150.8490 C   0  0  0  0  0  2  0  0  0  0  0  0
  161.1760  208.3340  150.7760 C   0  0  0  0  0  2  0  0  0  0  0  0
  161.4910  209.2870  149.6050 C   0  0  1  0  0  3  0  0  0  0  0  0
  160.4610  205.5480  147.7060 O   0  0  0  0  0  0  0  0  0  0  0  0
  160.8160  205.4210  149.1610 S   0  0  0  0  0  0  0  0  0  0  0  0
  159.6510  205.8940  149.9850 O   0  0  0  0  0  0  0  0  0  0  0  0
  161.1650  203.7590  149.5500 N   0  0  0  0  0  0  0  0  0  0  0  0
  161.5760  202.8510  148.5110 C   0  0  0  0  0  0  0  0  0  0  0  0
  161.4690  201.6050  148.6820 O   0  0  0  0  0  0  0  0  0  0  0  0
  162.0780  203.0270  151.7020 C   0  0  0  0  0  2  0  0  0  0  0  0
  160.8190  203.2450  150.8750 C   0  0  0  0  0  3  0  0  0  0  0  0
  161.2240  204.2450  151.9470 C   0  0  0  0  0  2  0  0  0  0  0  0
  162.1660  203.3530  147.2300 C   0  0  0  0  0  2  0  0  0  0  0  0
  161.2280  203.1270  146.0930 C   0  0  0  0  0  0  0  0  0  0  0  0
  160.0600  203.9460  144.1500 C   0  0  0  0  0  3  0  0  0  0  0  0
  159.7030  201.7120  144.8750 C   0  0  0  0  0  3  0  0  0  0  0  0
  159.4560  202.7340  144.0110 N   0  0  0  0  0  0  0  0  0  0  0  0
  160.5940  201.8910  145.9340 C   0  0  0  0  0  3  0  0  0  0  0  0
  160.9580  204.1660  145.1970 C   0  0  0  0  0  3  0  0  0  0  0  0
  161.6250  210.7500  150.0410 C   0  0  2  0  0  3  0  0  0  0  0  0
  159.6960  212.8190  155.9380 C   0  0  1  0  0  3  0  0  0  0  0  0
  161.3300  210.9650  151.4990 C   0  0  0  0  0  0  0  0  0  0  0  0
  160.8370  211.4080  154.1970 C   0  0  0  0  0  0  0  0  0  0  0  0
  158.4960  212.8460  154.9980 C   0  0  0  0  0  2  0  0  0  0  0  0
  159.2520  212.7920  157.2600 O   0  0  0  0  0  1  0  0  0  0  0  0
  160.0490  212.0250  153.2020 C   0  0  0  0  0  0  0  0  0  0  0  0
  160.5310  211.5730  155.6610 C   0  0  0  0  0  2  0  0  0  0  0  0
  158.9730  213.0140  153.5580 C   0  0  0  0  0  2  0  0  0  0  0  0
  160.3290  211.8040  151.8900 N   0  0  0  0  0  0  0  0  0  0  0  0
  162.1210  210.3280  152.4580 C   0  0  0  0  0  3  0  0  0  0  0  0
  161.8670  210.5490  153.8120 C   0  0  0  0  0  3  0  0  0  0  0  0
  160.7860  211.6660  149.1530 C   0  0  0  0  0  2  0  0  0  0  0  0
  161.5880  213.0390  145.8020 C   0  0  0  0  0  3  0  0  0  0  0  0
  163.0580  212.9570  145.7980 C   0  0  0  0  0  0  0  0  0  0  0  0
  163.0060  212.3580  148.2170 C   0  0  0  0  0  2  0  0  0  0  0  0
  160.8910  212.6490  146.8670 C   0  0  0  0  0  3  0  0  0  0  0  0
  161.5680  212.1570  148.0310 N   0  0  0  0  0  0  0  0  0  0  0  0
  163.7150  212.6030  146.9130 C   0  0  0  0  0  3  0  0  0  0  0  0
  163.0850  213.3620  143.3520 C   0  0  0  0  0  1  0  0  0  0  0  0
  163.7380  213.2360  144.6080 O   0  0  0  0  0  0  0  0  0  0  0  0
  1  3  1  0  0  0  0
  1  2  1  0  0  0  0
  2  8  1  6  0  0  0
  2  4  1  0  0  0  0
  3  6  1  0  0  0  0
  5  4  1  0  0  0  0
  6 23  1  1  0  0  0
  6  5  1  0  0  0  0
  7  8  2  0  0  0  0
  8 10  1  0  0  0  0
  8  9  2  0  0  0  0
 10 14  1  0  0  0  0
 11 12  2  0  0  0  0
 11 10  1  0  0  0  0
 13 15  1  0  0  0  0
 14 13  1  0  0  0  0
 14 15  1  0  0  0  0
 16 11  1  0  0  0  0
 17 16  1  0  0  0  0
 18 22  1  0  0  0  0
 19 21  2  0  0  0  0
 20 18  2  0  0  0  0
 20 19  1  0  0  0  0
 21 17  1  0  0  0  0
 22 17  2  0  0  0  0
 23 35  1  6  0  0  0
 23 25  1  0  0  0  0
 24 28  1  1  0  0  0
 25 32  2  0  0  0  0
 25 33  1  0  0  0  0
 26 30  1  0  0  0  0
 27 24  1  0  0  0  0
 29 31  1  0  0  0  0
 29 26  2  0  0  0  0
 30 24  1  0  0  0  0
 31 27  1  0  0  0  0
 32 29  1  0  0  0  0
 33 34  2  0  0  0  0
 34 26  1  0  0  0  0
 36 39  2  0  0  0  0
 37 36  1  0  0  0  0
 37 41  2  0  0  0  0
 39 40  1  0  0  0  0
 40 38  1  0  0  0  0
 40 35  1  0  0  0  0
 41 38  1  0  0  0  0
 42 43  1  0  0  0  0
 43 37  1  0  0  0  0
M  END
>  <MODEL>
6

>  <REMARK>
 VINA RESULT:      -4.8      2.834      8.810
  Name = 
  10 active torsions:
  status: ('A' for Active; 'I' for Inactive)
    1  A    between atoms: C_1  and  C_34
    2  A    between atoms: C_1  and  N_35
    3  A    between atoms: N_4  and  S_12
    4  A    between atoms: N_4  and  C_15
    5  A    between atoms: C_6  and  S_12
    6  A    between atoms: C_8  and  C_34
    7  A    between atoms: C_11  and  C_14
    8  A    between atoms: C_14  and  C_22
    9  A    between atoms: C_19  and  O_37
   10  A    between atoms: C_34  and  C_38
                            x       y       z     vdW  Elec       q    Type
                         _______ _______ _______ _____ _____    ______ ____

>  <TORSDO>
F 10

$$$$
=
 OpenBabel11062410293D

 43 48  0  0  1  0  0  0  0  0999 V2000
  162.2930  207.6910  148.1130 C   0  0  0  0  0  2  0  0  0  0  0  0
  162.3180  206.8860  149.4230 C   0  0  1  0  0  3  0  0  0  0  0  0
  162.7290  209.1450  148.2900 C   0  0  0  0  0  2  0  0  0  0  0  0
  162.6780  207.7280  150.6530 C   0  0  0  0  0  2  0  0  0  0  0  0
  161.8670  209.0240  150.7100 C   0  0  0  0  0  2  0  0  0  0  0  0
  161.8980  209.8150  149.3870 C   0  0  1  0  0  3  0  0  0  0  0  0
  159.8680  206.3390  148.4810 O   0  0  0  0  0  0  0  0  0  0  0  0
  160.7590  206.0430  149.6550 S   0  0  0  0  0  0  0  0  0  0  0  0
  160.0880  206.5350  150.9070 O   0  0  0  0  0  0  0  0  0  0  0  0
  161.0350  204.3270  149.7800 N   0  0  0  0  0  0  0  0  0  0  0  0
  161.5710  203.6030  148.6570 C   0  0  0  0  0  0  0  0  0  0  0  0
  161.4300  202.3520  148.5850 O   0  0  0  0  0  0  0  0  0  0  0  0
  161.6360  202.8790  151.6620 C   0  0  0  0  0  2  0  0  0  0  0  0
  160.5100  203.5990  150.9350 C   0  0  0  0  0  3  0  0  0  0  0  0
  161.0900  204.1670  152.2210 C   0  0  0  0  0  2  0  0  0  0  0  0
  162.3330  204.3040  147.5740 C   0  0  0  0  0  2  0  0  0  0  0  0
  161.5620  204.2960  146.2970 C   0  0  0  0  0  0  0  0  0  0  0  0
  160.7450  205.4400  144.3400 C   0  0  0  0  0  3  0  0  0  0  0  0
  160.1560  203.1660  144.6980 C   0  0  0  0  0  3  0  0  0  0  0  0
  160.1000  204.3050  143.9550 N   0  0  0  0  0  0  0  0  0  0  0  0
  160.8890  203.1410  145.8860 C   0  0  0  0  0  3  0  0  0  0  0  0
  161.4880  205.4560  145.5220 C   0  0  0  0  0  3  0  0  0  0  0  0
  162.2950  211.2830  149.5750 C   0  0  2  0  0  3  0  0  0  0  0  0
  157.1770  213.6130  152.9140 C   0  0  1  0  0  3  0  0  0  0  0  0
  161.2400  212.1010  150.2640 C   0  0  0  0  0  0  0  0  0  0  0  0
  159.2460  213.6030  151.4860 C   0  0  0  0  0  0  0  0  0  0  0  0
  157.8690  212.5540  153.7640 C   0  0  0  0  0  2  0  0  0  0  0  0
  156.4090  214.4390  153.7330 O   0  0  0  0  0  1  0  0  0  0  0  0
  159.4790  212.2610  151.8570 C   0  0  0  0  0  0  0  0  0  0  0  0
  158.2270  214.4530  152.1930 C   0  0  0  0  0  2  0  0  0  0  0  0
  158.6010  211.5650  152.8600 C   0  0  0  0  0  2  0  0  0  0  0  0
  160.4480  211.5470  151.2250 N   0  0  0  0  0  0  0  0  0  0  0  0
  161.0460  213.4310  149.8810 C   0  0  0  0  0  3  0  0  0  0  0  0
  160.0470  214.1830  150.5000 C   0  0  0  0  0  3  0  0  0  0  0  0
  162.7210  211.9090  148.2490 C   0  0  0  0  0  2  0  0  0  0  0  0
  160.6350  214.4530  146.5350 C   0  0  0  0  0  3  0  0  0  0  0  0
  159.3530  213.7400  146.4090 C   0  0  0  0  0  0  0  0  0  0  0  0
  160.4670  211.6490  147.1850 C   0  0  0  0  0  2  0  0  0  0  0  0
  161.6870  213.8600  147.0960 C   0  0  0  0  0  3  0  0  0  0  0  0
  161.5850  212.5110  147.5720 N   0  0  0  0  0  0  0  0  0  0  0  0
  159.2660  212.4440  146.7480 C   0  0  0  0  0  3  0  0  0  0  0  0
  156.9720  213.8430  145.7230 C   0  0  0  0  0  1  0  0  0  0  0  0
  158.2380  214.4490  145.9520 O   0  0  0  0  0  0  0  0  0  0  0  0
  1  3  1  0  0  0  0
  1  2  1  0  0  0  0
  2  8  1  1  0  0  0
  2  4  1  0  0  0  0
  3  6  1  0  0  0  0
  4  5  1  0  0  0  0
  6 23  1  1  0  0  0
  6  5  1  0  0  0  0
  7  8  2  0  0  0  0
  8 10  1  0  0  0  0
  8  9  2  0  0  0  0
 10 14  1  0  0  0  0
 11 10  1  0  0  0  0
 12 11  2  0  0  0  0
 13 15  1  0  0  0  0
 14 13  1  0  0  0  0
 14 15  1  0  0  0  0
 16 11  1  0  0  0  0
 17 16  1  0  0  0  0
 18 22  1  0  0  0  0
 19 21  2  0  0  0  0
 20 18  2  0  0  0  0
 20 19  1  0  0  0  0
 21 17  1  0  0  0  0
 22 17  2  0  0  0  0
 23 35  1  6  0  0  0
 23 25  1  0  0  0  0
 24 28  1  1  0  0  0
 24 27  1  0  0  0  0
 25 32  1  0  0  0  0
 26 29  1  0  0  0  0
 26 30  1  0  0  0  0
 29 31  1  0  0  0  0
 30 24  1  0  0  0  0
 31 27  1  0  0  0  0
 32 29  2  0  0  0  0
 33 25  2  0  0  0  0
 33 34  1  0  0  0  0
 34 26  2  0  0  0  0
 36 39  2  0  0  0  0
 37 36  1  0  0  0  0
 37 41  2  0  0  0  0
 38 40  1  0  0  0  0
 39 40  1  0  0  0  0
 40 35  1  0  0  0  0
 41 38  1  0  0  0  0
 42 43  1  0  0  0  0
 43 37  1  0  0  0  0
M  END
>  <MODEL>
7

>  <REMARK>
 VINA RESULT:      -4.7      2.957      8.535
  Name = 
  10 active torsions:
  status: ('A' for Active; 'I' for Inactive)
    1  A    between atoms: C_1  and  C_34
    2  A    between atoms: C_1  and  N_35
    3  A    between atoms: N_4  and  S_12
    4  A    between atoms: N_4  and  C_15
    5  A    between atoms: C_6  and  S_12
    6  A    between atoms: C_8  and  C_34
    7  A    between atoms: C_11  and  C_14
    8  A    between atoms: C_14  and  C_22
    9  A    between atoms: C_19  and  O_37
   10  A    between atoms: C_34  and  C_38
                            x       y       z     vdW  Elec       q    Type
                         _______ _______ _______ _____ _____    ______ ____

>  <TORSDO>
F 10

$$$$
=
 OpenBabel11062410293D

 43 48  0  0  1  0  0  0  0  0999 V2000
  161.2620  207.9460  153.5370 C   0  0  0  0  0  2  0  0  0  0  0  0
  160.8750  207.0570  152.3430 C   0  0  1  0  0  3  0  0  0  0  0  0
  160.7460  209.3790  153.4130 C   0  0  0  0  0  2  0  0  0  0  0  0
  160.1390  207.8110  151.2300 C   0  0  0  0  0  2  0  0  0  0  0  0
  160.8550  209.1110  150.8580 C   0  0  0  0  0  2  0  0  0  0  0  0
  161.1920  209.9870  152.0810 C   0  0  1  0  0  3  0  0  0  0  0  0
  163.2010  205.8260  152.8600 O   0  0  0  0  0  0  0  0  0  0  0  0
  162.3210  206.2210  151.7070 S   0  0  0  0  0  0  0  0  0  0  0  0
  163.0940  207.1420  150.8040 O   0  0  0  0  0  0  0  0  0  0  0  0
  161.8340  204.8070  150.8130 N   0  0  0  0  0  0  0  0  0  0  0  0
  161.3640  204.9410  149.4590 C   0  0  0  0  0  0  0  0  0  0  0  0
  160.6710  204.0250  148.9360 O   0  0  0  0  0  0  0  0  0  0  0  0
  160.6160  203.6400  152.5900 C   0  0  0  0  0  2  0  0  0  0  0  0
  161.6870  203.5310  151.5140 C   0  0  0  0  0  3  0  0  0  0  0  0
  160.2950  202.9640  151.2820 C   0  0  0  0  0  2  0  0  0  0  0  0
  161.7120  206.1400  148.6320 C   0  0  0  0  0  2  0  0  0  0  0  0
  161.7270  205.7950  147.1820 C   0  0  0  0  0  0  0  0  0  0  0  0
  160.6900  205.8520  145.0060 C   0  0  0  0  0  3  0  0  0  0  0  0
  162.7560  204.7110  145.2890 C   0  0  0  0  0  3  0  0  0  0  0  0
  161.7220  205.1200  144.5040 N   0  0  0  0  0  0  0  0  0  0  0  0
  162.7760  205.0410  146.6460 C   0  0  0  0  0  3  0  0  0  0  0  0
  160.6730  206.2010  146.3590 C   0  0  0  0  0  3  0  0  0  0  0  0
  160.7090  211.4340  151.9350 C   0  0  2  0  0  3  0  0  0  0  0  0
  156.3730  214.1120  156.0340 C   0  0  1  0  0  3  0  0  0  0  0  0
  159.8870  211.9070  153.1000 C   0  0  0  0  0  0  0  0  0  0  0  0
  158.3970  212.8420  155.2520 C   0  0  0  0  0  0  0  0  0  0  0  0
  155.6120  213.4080  154.9150 C   0  0  0  0  0  2  0  0  0  0  0  0
  155.5350  214.2760  157.1360 O   0  0  0  0  0  1  0  0  0  0  0  0
  157.8520  212.8030  153.9500 C   0  0  0  0  0  0  0  0  0  0  0  0
  157.5780  213.2680  156.4390 C   0  0  0  0  0  2  0  0  0  0  0  0
  156.4800  213.3480  153.6610 C   0  0  0  0  0  2  0  0  0  0  0  0
  158.6140  212.3590  152.9160 N   0  0  0  0  0  0  0  0  0  0  0  0
  160.4530  211.9200  154.3770 C   0  0  0  0  0  3  0  0  0  0  0  0
  159.7000  212.3850  155.4550 C   0  0  0  0  0  3  0  0  0  0  0  0
  159.9810  211.6360  150.6080 C   0  0  0  0  0  2  0  0  0  0  0  0
  161.6720  214.4200  148.8330 C   0  0  0  0  0  3  0  0  0  0  0  0
  162.3270  213.7030  147.7270 C   0  0  0  0  0  0  0  0  0  0  0  0
  161.7080  211.5380  148.7940 C   0  0  0  0  0  2  0  0  0  0  0  0
  160.9560  213.7570  149.7400 C   0  0  0  0  0  3  0  0  0  0  0  0
  160.8280  212.3310  149.6540 N   0  0  0  0  0  0  0  0  0  0  0  0
  162.3100  212.3620  147.6890 C   0  0  0  0  0  3  0  0  0  0  0  0
  162.5470  214.3890  145.3540 C   0  0  0  0  0  1  0  0  0  0  0  0
  162.9410  214.4530  146.7180 O   0  0  0  0  0  0  0  0  0  0  0  0
  2  8  1  6  0  0  0
  2  1  1  0  0  0  0
  3  1  1  0  0  0  0
  4  2  1  0  0  0  0
  5  4  1  0  0  0  0
  5  6  1  0  0  0  0
  6 23  1  6  0  0  0
  6  3  1  0  0  0  0
  8  7  2  0  0  0  0
  9  8  2  0  0  0  0
 10 14  1  0  0  0  0
 10  8  1  0  0  0  0
 11 10  1  0  0  0  0
 12 11  2  0  0  0  0
 14 13  1  0  0  0  0
 15 14  1  0  0  0  0
 15 13  1  0  0  0  0
 16 11  1  0  0  0  0
 17 16  1  0  0  0  0
 18 22  1  0  0  0  0
 19 21  2  0  0  0  0
 20 18  2  0  0  0  0
 20 19  1  0  0  0  0
 21 17  1  0  0  0  0
 22 17  2  0  0  0  0
 23 35  1  6  0  0  0
 23 25  1  0  0  0  0
 24 30  1  0  0  0  0
 24 28  1  1  0  0  0
 25 33  1  0  0  0  0
 26 34  1  0  0  0  0
 26 30  1  0  0  0  0
 27 24  1  0  0  0  0
 29 26  2  0  0  0  0
 31 29  1  0  0  0  0
 31 27  1  0  0  0  0
 32 25  2  0  0  0  0
 32 29  1  0  0  0  0
 33 34  2  0  0  0  0
 36 39  2  0  0  0  0
 37 36  1  0  0  0  0
 38 40  1  0  0  0  0
 40 39  1  0  0  0  0
 40 35  1  0  0  0  0
 41 37  2  0  0  0  0
 41 38  1  0  0  0  0
 42 43  1  0  0  0  0
 43 37  1  0  0  0  0
M  END
>  <MODEL>
8

>  <REMARK>
 VINA RESULT:      -4.4      2.578      8.516
  Name = 
  10 active torsions:
  status: ('A' for Active; 'I' for Inactive)
    1  A    between atoms: C_1  and  C_34
    2  A    between atoms: C_1  and  N_35
    3  A    between atoms: N_4  and  S_12
    4  A    between atoms: N_4  and  C_15
    5  A    between atoms: C_6  and  S_12
    6  A    between atoms: C_8  and  C_34
    7  A    between atoms: C_11  and  C_14
    8  A    between atoms: C_14  and  C_22
    9  A    between atoms: C_19  and  O_37
   10  A    between atoms: C_34  and  C_38
                            x       y       z     vdW  Elec       q    Type
                         _______ _______ _______ _____ _____    ______ ____

>  <TORSDO>
F 10

$$$$
=
 OpenBabel11062410293D

 43 48  0  0  1  0  0  0  0  0999 V2000
  162.3320  206.9090  149.9740 C   0  0  0  0  0  2  0  0  0  0  0  0
  162.0690  205.7320  150.9280 C   0  0  1  0  0  3  0  0  0  0  0  0
  162.7010  208.2030  150.6990 C   0  0  0  0  0  2  0  0  0  0  0  0
  162.1310  206.1180  152.4110 C   0  0  0  0  0  2  0  0  0  0  0  0
  161.3140  207.3780  152.7020 C   0  0  0  0  0  2  0  0  0  0  0  0
  161.6350  208.5430  151.7440 C   0  0  1  0  0  3  0  0  0  0  0  0
  159.7070  205.8950  149.6690 O   0  0  0  0  0  0  0  0  0  0  0  0
  160.5080  204.9580  150.5300 S   0  0  0  0  0  0  0  0  0  0  0  0
  159.7340  204.6800  151.7890 O   0  0  0  0  0  0  0  0  0  0  0  0
  160.7950  203.4630  149.6830 N   0  0  0  0  0  0  0  0  0  0  0  0
  161.3730  203.4850  148.3650 C   0  0  0  0  0  0  0  0  0  0  0  0
  161.2450  202.4890  147.6010 O   0  0  0  0  0  0  0  0  0  0  0  0
  161.2060  201.0670  149.9850 C   0  0  0  0  0  2  0  0  0  0  0  0
  160.2390  202.2190  150.2160 C   0  0  0  0  0  3  0  0  0  0  0  0
  161.1110  201.6990  151.3490 C   0  0  0  0  0  2  0  0  0  0  0  0
  162.1620  204.6630  147.8840 C   0  0  0  0  0  2  0  0  0  0  0  0
  161.7070  205.0840  146.5270 C   0  0  0  0  0  0  0  0  0  0  0  0
  160.1110  206.2040  145.1100 C   0  0  0  0  0  3  0  0  0  0  0  0
  161.9710  205.0970  144.1310 C   0  0  0  0  0  3  0  0  0  0  0  0
  160.8310  205.8300  144.0170 N   0  0  0  0  0  0  0  0  0  0  0  0
  162.4300  204.7080  145.3910 C   0  0  0  0  0  3  0  0  0  0  0  0
  160.5360  205.8340  146.3890 C   0  0  0  0  0  3  0  0  0  0  0  0
  161.9640  209.8490  152.4760 C   0  0  2  0  0  3  0  0  0  0  0  0
  157.4170  213.0850  155.8860 C   0  0  1  0  0  3  0  0  0  0  0  0
  160.7470  210.5610  152.9950 C   0  0  0  0  0  0  0  0  0  0  0  0
  158.4790  211.8220  153.9890 C   0  0  0  0  0  0  0  0  0  0  0  0
  158.7390  213.8370  156.0050 C   0  0  0  0  0  2  0  0  0  0  0  0
  156.3620  213.9480  156.1800 O   0  0  0  0  0  1  0  0  0  0  0  0
  159.7450  212.0290  154.5780 C   0  0  0  0  0  0  0  0  0  0  0  0
  157.2560  212.5590  154.4630 C   0  0  0  0  0  2  0  0  0  0  0  0
  159.9020  212.8660  155.8180 C   0  0  0  0  0  2  0  0  0  0  0  0
  160.8310  211.3820  154.0810 N   0  0  0  0  0  0  0  0  0  0  0  0
  159.5120  210.3440  152.3800 C   0  0  0  0  0  3  0  0  0  0  0  0
  158.3760  210.9820  152.8780 C   0  0  0  0  0  3  0  0  0  0  0  0
  162.8270  210.7610  151.6070 C   0  0  0  0  0  2  0  0  0  0  0  0
  160.4250  212.9520  149.8220 C   0  0  0  0  0  3  0  0  0  0  0  0
  160.4170  212.3430  148.4810 C   0  0  0  0  0  0  0  0  0  0  0  0
  162.3320  210.8960  149.1540 C   0  0  0  0  0  2  0  0  0  0  0  0
  161.2000  212.4580  150.7850 C   0  0  0  0  0  3  0  0  0  0  0  0
  162.0470  211.3320  150.5220 N   0  0  0  0  0  0  0  0  0  0  0  0
  161.2800  211.3590  148.1830 C   0  0  0  0  0  3  0  0  0  0  0  0
  159.8010  213.0440  146.1840 C   0  0  0  0  0  1  0  0  0  0  0  0
  159.4810  212.7990  147.5470 O   0  0  0  0  0  0  0  0  0  0  0  0
  1  3  1  0  0  0  0
  1  2  1  0  0  0  0
  2  8  1  6  0  0  0
  2  4  1  0  0  0  0
  3  6  1  0  0  0  0
  4  5  1  0  0  0  0
  6 23  1  1  0  0  0
  6  5  1  0  0  0  0
  7  8  2  0  0  0  0
  8  9  2  0  0  0  0
 10 14  1  0  0  0  0
 10  8  1  0  0  0  0
 11 10  1  0  0  0  0
 12 11  2  0  0  0  0
 13 14  1  0  0  0  0
 13 15  1  0  0  0  0
 14 15  1  0  0  0  0
 16 11  1  0  0  0  0
 17 16  1  0  0  0  0
 18 22  2  0  0  0  0
 19 21  1  0  0  0  0
 20 19  2  0  0  0  0
 20 18  1  0  0  0  0
 21 17  2  0  0  0  0
 22 17  1  0  0  0  0
 23 35  1  6  0  0  0
 23 25  1  0  0  0  0
 24 27  1  0  0  0  0
 24 28  1  6  0  0  0
 25 32  1  0  0  0  0
 26 30  1  0  0  0  0
 26 29  1  0  0  0  0
 29 31  1  0  0  0  0
 30 24  1  0  0  0  0
 31 27  1  0  0  0  0
 32 29  2  0  0  0  0
 33 34  1  0  0  0  0
 33 25  2  0  0  0  0
 34 26  2  0  0  0  0
 36 39  2  0  0  0  0
 37 36  1  0  0  0  0
 38 40  1  0  0  0  0
 40 39  1  0  0  0  0
 40 35  1  0  0  0  0
 41 37  2  0  0  0  0
 41 38  1  0  0  0  0
 42 43  1  0  0  0  0
 43 37  1  0  0  0  0
M  END
>  <MODEL>
9

>  <REMARK>
 VINA RESULT:      -4.2      2.429      8.519
  Name = 
  10 active torsions:
  status: ('A' for Active; 'I' for Inactive)
    1  A    between atoms: C_1  and  C_34
    2  A    between atoms: C_1  and  N_35
    3  A    between atoms: N_4  and  S_12
    4  A    between atoms: N_4  and  C_15
    5  A    between atoms: C_6  and  S_12
    6  A    between atoms: C_8  and  C_34
    7  A    between atoms: C_11  and  C_14
    8  A    between atoms: C_14  and  C_22
    9  A    between atoms: C_19  and  O_37
   10  A    between atoms: C_34  and  C_38
                            x       y       z     vdW  Elec       q    Type
                         _______ _______ _______ _____ _____    ______ ____

>  <TORSDO>
F 10

$$$$
