=
 OpenBabel11062410133D

 43 48  0  0  1  0  0  0  0  0999 V2000
  160.8340  203.4120  149.9180 C   0  0  0  0  0  0  0  0  0  0  0  0
  161.5930  207.9960  151.8580 C   0  0  0  0  0  0  0  0  0  0  0  0
  161.9370  209.6960  149.7160 C   0  0  0  0  0  0  0  0  0  0  0  0
  161.1390  205.2880  151.4180 C   0  0  0  0  0  0  0  0  0  0  0  0
  161.0000  204.2570  148.8170 C   0  0  0  0  0  3  0  0  0  0  0  0
  160.5510  201.7030  149.6710 Cl  0  0  0  0  0  0  0  0  0  0  0  0
  161.3090  206.1470  150.3070 C   0  0  0  0  0  0  0  0  0  0  0  0
  160.9050  203.9250  151.2150 C   0  0  0  0  0  3  0  0  0  0  0  0
  161.2380  205.6200  149.0100 C   0  0  0  0  0  3  0  0  0  0  0  0
  161.7140  208.3740  149.4990 N   0  0  0  0  0  0  0  0  0  0  0  0
  161.5420  207.5120  150.5360 C   0  0  0  0  0  0  0  0  0  0  0  0
  161.4230  207.1020  152.9210 C   0  0  0  0  0  3  0  0  0  0  0  0
  161.8060  209.3690  152.0590 C   0  0  0  0  0  0  0  0  0  0  0  0
  161.9770  210.1820  150.9830 N   0  0  0  0  0  0  0  0  0  0  0  0
  161.2030  205.7830  152.6810 N   0  0  0  0  0  0  0  0  0  0  0  0
  161.8590  210.0910  153.7090 S   0  0  0  0  0  0  0  0  0  0  0  0
  158.1840  211.9880  153.3650 C   0  0  0  0  0  2  0  0  0  0  0  0
  157.8850  212.0590  154.7950 N   0  0  0  0  0  0  0  0  0  0  0  0
  159.6010  210.3860  155.3030 C   0  0  0  0  0  2  0  0  0  0  0  0
  159.6710  211.7170  153.1550 C   0  0  0  0  0  2  0  0  0  0  0  0
  160.0630  210.4130  153.8470 C   0  0  0  0  0  3  0  0  0  0  0  0
  158.1180  210.7350  155.3750 C   0  0  0  0  0  2  0  0  0  0  0  0
  156.0710  213.2350  153.9280 O   0  0  0  0  0  1  0  0  0  0  0  0
  156.4620  212.3230  154.9090 C   0  0  0  0  0  2  0  0  0  0  0  0
  162.0630  210.6240  148.5630 C   0  0  0  0  0  2  0  0  0  0  0  0
  161.7600  211.9220  148.9810 O   0  0  0  0  0  0  0  0  0  0  0  0
  161.6840  212.6780  147.8060 C   0  0  2  0  0  3  0  0  0  0  0  0
  161.3690  214.3070  149.5210 O   0  0  0  0  0  1  0  0  0  0  0  0
  161.4480  214.1420  148.1380 C   0  0  0  0  0  2  0  0  0  0  0  0
  160.5780  212.1470  146.8970 C   0  0  0  0  0  2  0  0  0  0  0  0
  159.5900  213.1850  146.5990 N   0  0  0  0  0  0  0  0  0  0  0  0
  158.0360  213.7580  144.9110 N   0  0  0  0  0  2  0  0  0  0  0  0
  158.2920  212.7170  147.0430 C   0  0  0  0  0  2  0  0  0  0  0  0
  159.4290  213.4030  145.1550 C   0  0  1  0  0  0  0  0  0  0  0  0
  160.2450  214.4520  144.7660 F   0  0  0  0  0  0  0  0  0  0  0  0
  157.2880  213.2350  146.0430 C   0  0  0  0  0  2  0  0  0  0  0  0
  159.7570  212.2250  144.4020 O   0  0  0  0  0  0  0  0  0  0  0  0
  160.3250  212.2310  143.1210 C   0  0  0  0  0  0  0  0  0  0  0  0
  160.1410  212.2350  140.6980 C   0  0  0  0  0  3  0  0  0  0  0  0
  162.3240  212.2310  141.7440 C   0  0  0  0  0  3  0  0  0  0  0  0
  161.5340  212.2340  140.5900 C   0  0  0  0  0  3  0  0  0  0  0  0
  161.7190  212.2270  143.0040 C   0  0  0  0  0  3  0  0  0  0  0  0
  159.5380  212.2350  141.9580 C   0  0  0  0  0  3  0  0  0  0  0  0
  1  8  1  0  0  0  0
  2 13  1  0  0  0  0
  2 12  1  0  0  0  0
  3 14  1  0  0  0  0
  4 15  1  0  0  0  0
  5  9  1  0  0  0  0
  5  1  2  0  0  0  0
  6  1  1  0  0  0  0
  7 11  1  0  0  0  0
  7  4  1  0  0  0  0
  8  4  2  0  0  0  0
  9  7  2  0  0  0  0
 10  3  2  0  0  0  0
 10 11  1  0  0  0  0
 11  2  2  0  0  0  0
 13 16  1  0  0  0  0
 14 13  2  0  0  0  0
 15 12  2  0  0  0  0
 16 21  1  0  0  0  0
 17 18  1  0  0  0  0
 18 24  1  0  0  0  0
 18 22  1  0  0  0  0
 19 22  1  0  0  0  0
 20 17  1  0  0  0  0
 20 21  1  0  0  0  0
 21 19  1  0  0  0  0
 23 24  1  0  0  0  0
 25 26  1  0  0  0  0
 25  3  1  0  0  0  0
 27 30  1  6  0  0  0
 27 29  1  0  0  0  0
 27 26  1  0  0  0  0
 29 28  1  0  0  0  0
 31 30  1  0  0  0  0
 31 33  1  0  0  0  0
 32 34  1  0  0  0  0
 32 36  1  0  0  0  0
 34 35  1  6  0  0  0
 34 31  1  0  0  0  0
 36 33  1  0  0  0  0
 37 34  1  0  0  0  0
 38 37  1  0  0  0  0
 39 43  1  0  0  0  0
 40 42  2  0  0  0  0
 41 39  2  0  0  0  0
 41 40  1  0  0  0  0
 42 38  1  0  0  0  0
 43 38  2  0  0  0  0
M  END
>  <MODEL>
1

>  <REMARK>
 VINA RESULT:      -8.4      0.000      0.000
  Name = 
  11 active torsions:
  status: ('A' for Active; 'I' for Inactive)
    1  A    between atoms: S_1  and  C_34
    2  A    between atoms: S_1  and  C_35
    3  A    between atoms: C_2  and  O_6
    4  A    between atoms: C_2  and  C_13
    5  A    between atoms: C_3  and  N_4
    6  A    between atoms: C_3  and  C_12
    7  A    between atoms: O_6  and  C_12
    8  A    between atoms: C_11  and  O_14
    9  A    between atoms: C_12  and  C_17
   10  A    between atoms: O_14  and  C_22
   11  A    between atoms: N_19  and  C_37
                            x       y       z     vdW  Elec       q    Type
                         _______ _______ _______ _____ _____    ______ ____

>  <TORSDO>
F 11

$$$$
=
 OpenBabel11062410133D

 43 48  0  0  1  0  0  0  0  0999 V2000
  160.7990  203.6710  149.7680 C   0  0  0  0  0  0  0  0  0  0  0  0
  161.6400  208.0840  152.0410 C   0  0  0  0  0  0  0  0  0  0  0  0
  162.0580  209.9230  150.0310 C   0  0  0  0  0  0  0  0  0  0  0  0
  161.1270  205.4260  151.4030 C   0  0  0  0  0  0  0  0  0  0  0  0
  161.0030  204.5880  148.7330 C   0  0  0  0  0  3  0  0  0  0  0  0
  160.4790  201.9920  149.3960 Cl  0  0  0  0  0  0  0  0  0  0  0  0
  161.3350  206.3580  150.3590 C   0  0  0  0  0  0  0  0  0  0  0  0
  160.8630  204.0880  151.1000 C   0  0  0  0  0  3  0  0  0  0  0  0
  161.2710  205.9270  149.0260 C   0  0  0  0  0  3  0  0  0  0  0  0
  161.8060  208.6270  149.7170 N   0  0  0  0  0  0  0  0  0  0  0  0
  161.5980  207.6970  150.6880 C   0  0  0  0  0  0  0  0  0  0  0  0
  161.4320  207.1210  153.0360 C   0  0  0  0  0  3  0  0  0  0  0  0
  161.8830  209.4340  152.3430 C   0  0  0  0  0  0  0  0  0  0  0  0
  162.0900  210.3160  151.3310 N   0  0  0  0  0  0  0  0  0  0  0  0
  161.1840  205.8290  152.6990 N   0  0  0  0  0  0  0  0  0  0  0  0
  161.9290  210.0340  154.0410 S   0  0  0  0  0  0  0  0  0  0  0  0
  158.5480  212.4400  153.9360 C   0  0  0  0  0  2  0  0  0  0  0  0
  158.1010  212.1790  155.3030 N   0  0  0  0  0  0  0  0  0  0  0  0
  159.5530  210.2140  155.4730 C   0  0  0  0  0  2  0  0  0  0  0  0
  160.0100  212.0320  153.7780 C   0  0  0  0  0  2  0  0  0  0  0  0
  160.1750  210.5520  154.1200 C   0  0  0  0  0  3  0  0  0  0  0  0
  158.1190  210.7320  155.5200 C   0  0  0  0  0  2  0  0  0  0  0  0
  156.0840  212.3530  154.1500 O   0  0  0  0  0  1  0  0  0  0  0  0
  156.7120  212.5970  155.3730 C   0  0  0  0  0  2  0  0  0  0  0  0
  162.2240  210.9280  148.9500 C   0  0  0  0  0  2  0  0  0  0  0  0
  161.1670  211.8390  149.0010 O   0  0  0  0  0  0  0  0  0  0  0  0
  161.2980  212.6180  147.8460 C   0  0  2  0  0  3  0  0  0  0  0  0
  162.5430  214.4420  146.9420 O   0  0  0  0  0  1  0  0  0  0  0  0
  162.5800  213.4320  147.9040 C   0  0  0  0  0  2  0  0  0  0  0  0
  160.0860  213.5320  147.6750 C   0  0  0  0  0  2  0  0  0  0  0  0
  159.1960  213.0450  146.6200 N   0  0  0  0  0  0  0  0  0  0  0  0
  157.0810  213.5350  145.6830 N   0  0  0  0  0  2  0  0  0  0  0  0
  159.4350  213.8320  145.4270 C   0  0  0  0  0  2  0  0  0  0  0  0
  157.7800  213.2740  146.9360 C   0  0  1  0  0  0  0  0  0  0  0  0
  157.2610  212.1320  147.5220 F   0  0  0  0  0  0  0  0  0  0  0  0
  158.0970  213.9940  144.7490 C   0  0  0  0  0  2  0  0  0  0  0  0
  157.6090  214.3960  147.8160 O   0  0  0  0  0  0  0  0  0  0  0  0
  156.8390  214.3790  148.9870 C   0  0  0  0  0  0  0  0  0  0  0  0
  156.6250  214.2690  151.4060 C   0  0  0  0  0  3  0  0  0  0  0  0
  154.6450  214.4360  150.0230 C   0  0  0  0  0  3  0  0  0  0  0  0
  155.2350  214.3440  151.2880 C   0  0  0  0  0  3  0  0  0  0  0  0
  155.4460  214.4520  148.8780 C   0  0  0  0  0  3  0  0  0  0  0  0
  157.4250  214.2880  150.2610 C   0  0  0  0  0  3  0  0  0  0  0  0
  1  8  1  0  0  0  0
  2 13  1  0  0  0  0
  2 12  1  0  0  0  0
  3 14  1  0  0  0  0
  4 15  1  0  0  0  0
  5  9  1  0  0  0  0
  5  1  2  0  0  0  0
  6  1  1  0  0  0  0
  7 11  1  0  0  0  0
  7  4  1  0  0  0  0
  8  4  2  0  0  0  0
  9  7  2  0  0  0  0
 10  3  2  0  0  0  0
 10 11  1  0  0  0  0
 11  2  2  0  0  0  0
 13 16  1  0  0  0  0
 14 13  2  0  0  0  0
 15 12  2  0  0  0  0
 16 21  1  0  0  0  0
 17 18  1  0  0  0  0
 18 24  1  0  0  0  0
 18 22  1  0  0  0  0
 19 22  1  0  0  0  0
 20 17  1  0  0  0  0
 20 21  1  0  0  0  0
 21 19  1  0  0  0  0
 23 24  1  0  0  0  0
 25 26  1  0  0  0  0
 25  3  1  0  0  0  0
 27 30  1  1  0  0  0
 27 29  1  0  0  0  0
 27 26  1  0  0  0  0
 28 29  1  0  0  0  0
 31 34  1  0  0  0  0
 31 30  1  0  0  0  0
 32 34  1  0  0  0  0
 33 31  1  0  0  0  0
 34 35  1  1  0  0  0
 34 37  1  0  0  0  0
 36 33  1  0  0  0  0
 36 32  1  0  0  0  0
 37 38  1  0  0  0  0
 38 43  1  0  0  0  0
 40 41  2  0  0  0  0
 41 39  1  0  0  0  0
 42 38  2  0  0  0  0
 42 40  1  0  0  0  0
 43 39  2  0  0  0  0
M  END
>  <MODEL>
2

>  <REMARK>
 VINA RESULT:      -8.2      2.008      4.052
  Name = 
  11 active torsions:
  status: ('A' for Active; 'I' for Inactive)
    1  A    between atoms: S_1  and  C_34
    2  A    between atoms: S_1  and  C_35
    3  A    between atoms: C_2  and  O_6
    4  A    between atoms: C_2  and  C_13
    5  A    between atoms: C_3  and  N_4
    6  A    between atoms: C_3  and  C_12
    7  A    between atoms: O_6  and  C_12
    8  A    between atoms: C_11  and  O_14
    9  A    between atoms: C_12  and  C_17
   10  A    between atoms: O_14  and  C_22
   11  A    between atoms: N_19  and  C_37
                            x       y       z     vdW  Elec       q    Type
                         _______ _______ _______ _____ _____    ______ ____

>  <TORSDO>
F 11

$$$$
=
 OpenBabel11062410133D

 43 48  0  0  1  0  0  0  0  0999 V2000
  160.4690  207.5910  155.3920 C   0  0  0  0  0  0  0  0  0  0  0  0
  161.2570  210.4100  151.2960 C   0  0  0  0  0  0  0  0  0  0  0  0
  162.0550  208.6780  149.3060 C   0  0  0  0  0  0  0  0  0  0  0  0
  160.6760  209.4310  153.8330 C   0  0  0  0  0  0  0  0  0  0  0  0
  160.8670  206.6940  154.3960 C   0  0  0  0  0  3  0  0  0  0  0  0
  160.1020  207.0040  156.9990 Cl  0  0  0  0  0  0  0  0  0  0  0  0
  161.0800  208.5280  152.8220 C   0  0  0  0  0  0  0  0  0  0  0  0
  160.3750  208.9560  155.1120 C   0  0  0  0  0  3  0  0  0  0  0  0
  161.1730  207.1600  153.1160 C   0  0  0  0  0  3  0  0  0  0  0  0
  161.7710  208.1970  150.5430 N   0  0  0  0  0  0  0  0  0  0  0  0
  161.3760  209.0290  151.5450 C   0  0  0  0  0  0  0  0  0  0  0  0
  160.8580  211.2600  152.3320 C   0  0  0  0  0  3  0  0  0  0  0  0
  161.5370  210.8820  150.0030 C   0  0  0  0  0  0  0  0  0  0  0  0
  161.9330  210.0040  149.0440 N   0  0  0  0  0  0  0  0  0  0  0  0
  160.5800  210.7590  153.5640 N   0  0  0  0  0  0  0  0  0  0  0  0
  161.3870  212.6260  149.5760 S   0  0  0  0  0  0  0  0  0  0  0  0
  162.4880  213.1910  145.6140 C   0  0  0  0  0  2  0  0  0  0  0  0
  161.1460  213.4450  145.0910 N   0  0  0  0  0  0  0  0  0  0  0  0
  160.1120  212.5170  147.1080 C   0  0  0  0  0  2  0  0  0  0  0  0
  162.4970  213.3570  147.1310 C   0  0  0  0  0  2  0  0  0  0  0  0
  161.4870  212.3990  147.7630 C   0  0  0  0  0  3  0  0  0  0  0  0
  160.2550  212.3990  145.5940 C   0  0  0  0  0  2  0  0  0  0  0  0
  162.3510  212.5200  143.3250 O   0  0  0  0  0  1  0  0  0  0  0  0
  161.2230  213.2740  143.6510 C   0  0  0  0  0  2  0  0  0  0  0  0
  162.4280  207.7400  148.2160 C   0  0  0  0  0  2  0  0  0  0  0  0
  161.3420  206.9080  147.9320 O   0  0  0  0  0  0  0  0  0  0  0  0
  161.8480  205.6060  148.0050 C   0  0  2  0  0  3  0  0  0  0  0  0
  162.2560  204.5950  145.8820 O   0  0  0  0  0  1  0  0  0  0  0  0
  162.8460  205.3660  146.8850 C   0  0  0  0  0  2  0  0  0  0  0  0
  160.7130  204.5860  147.9430 C   0  0  0  0  0  2  0  0  0  0  0  0
  160.4070  204.0480  149.2690 N   0  0  0  0  0  0  0  0  0  0  0  0
  161.0310  202.2460  150.6670 N   0  0  0  0  0  2  0  0  0  0  0  0
  161.3910  204.5580  150.2030 C   0  0  0  0  0  2  0  0  0  0  0  0
  160.5640  202.5890  149.3290 C   0  0  1  0  0  0  0  0  0  0  0  0
  159.3330  201.9950  149.1060 F   0  0  0  0  0  0  0  0  0  0  0  0
  161.6550  203.4500  151.1920 C   0  0  0  0  0  2  0  0  0  0  0  0
  161.5150  202.1180  148.3610 O   0  0  0  0  0  0  0  0  0  0  0  0
  161.1980  201.3120  147.2590 C   0  0  0  0  0  0  0  0  0  0  0  0
  160.1540  200.9630  145.0920 C   0  0  0  0  0  3  0  0  0  0  0  0
  161.3360  199.1470  146.1710 C   0  0  0  0  0  3  0  0  0  0  0  0
  160.5960  199.6370  145.0910 C   0  0  0  0  0  3  0  0  0  0  0  0
  161.6330  199.9830  147.2510 C   0  0  0  0  0  3  0  0  0  0  0  0
  160.4560  201.7990  146.1710 C   0  0  0  0  0  3  0  0  0  0  0  0
  1  6  1  0  0  0  0
  2 11  2  0  0  0  0
  2 12  1  0  0  0  0
  3 10  2  0  0  0  0
  4  8  2  0  0  0  0
  5  1  2  0  0  0  0
  7  9  2  0  0  0  0
  7  4  1  0  0  0  0
  8  1  1  0  0  0  0
  9  5  1  0  0  0  0
 10 11  1  0  0  0  0
 11  7  1  0  0  0  0
 12 15  2  0  0  0  0
 13  2  1  0  0  0  0
 14  3  1  0  0  0  0
 14 13  2  0  0  0  0
 15  4  1  0  0  0  0
 16 13  1  0  0  0  0
 17 20  1  0  0  0  0
 18 22  1  0  0  0  0
 18 17  1  0  0  0  0
 19 21  1  0  0  0  0
 20 21  1  0  0  0  0
 21 16  1  0  0  0  0
 22 19  1  0  0  0  0
 23 24  1  0  0  0  0
 24 18  1  0  0  0  0
 25  3  1  0  0  0  0
 26 27  1  0  0  0  0
 26 25  1  0  0  0  0
 27 29  1  6  0  0  0
 28 29  1  0  0  0  0
 30 27  1  0  0  0  0
 30 31  1  0  0  0  0
 31 34  1  0  0  0  0
 31 33  1  0  0  0  0
 32 36  1  0  0  0  0
 33 36  1  0  0  0  0
 34 35  1  6  0  0  0
 34 32  1  0  0  0  0
 37 34  1  0  0  0  0
 38 37  1  0  0  0  0
 39 43  1  0  0  0  0
 40 42  2  0  0  0  0
 41 39  2  0  0  0  0
 41 40  1  0  0  0  0
 42 38  1  0  0  0  0
 43 38  2  0  0  0  0
M  END
>  <MODEL>
3

>  <REMARK>
 VINA RESULT:      -8.0      4.080      8.779
  Name = 
  11 active torsions:
  status: ('A' for Active; 'I' for Inactive)
    1  A    between atoms: S_1  and  C_34
    2  A    between atoms: S_1  and  C_35
    3  A    between atoms: C_2  and  O_6
    4  A    between atoms: C_2  and  C_13
    5  A    between atoms: C_3  and  N_4
    6  A    between atoms: C_3  and  C_12
    7  A    between atoms: O_6  and  C_12
    8  A    between atoms: C_11  and  O_14
    9  A    between atoms: C_12  and  C_17
   10  A    between atoms: O_14  and  C_22
   11  A    between atoms: N_19  and  C_37
                            x       y       z     vdW  Elec       q    Type
                         _______ _______ _______ _____ _____    ______ ____

>  <TORSDO>
F 11

$$$$
=
 OpenBabel11062410133D

 43 48  0  0  1  0  0  0  0  0999 V2000
  160.7970  207.7780  155.3200 C   0  0  0  0  0  0  0  0  0  0  0  0
  161.8590  209.6140  150.7540 C   0  0  0  0  0  0  0  0  0  0  0  0
  161.6260  207.5030  148.9970 C   0  0  0  0  0  0  0  0  0  0  0  0
  161.3960  209.2160  153.4670 C   0  0  0  0  0  0  0  0  0  0  0  0
  160.6680  206.6940  154.4460 C   0  0  0  0  0  3  0  0  0  0  0  0
  160.5160  207.5560  157.0320 Cl  0  0  0  0  0  0  0  0  0  0  0  0
  161.2670  208.1230  152.5780 C   0  0  0  0  0  0  0  0  0  0  0  0
  161.1610  209.0350  154.8320 C   0  0  0  0  0  3  0  0  0  0  0  0
  160.9040  206.8650  153.0800 C   0  0  0  0  0  3  0  0  0  0  0  0
  161.3980  207.3070  150.3210 N   0  0  0  0  0  0  0  0  0  0  0  0
  161.5070  208.3290  151.2110 C   0  0  0  0  0  0  0  0  0  0  0  0
  161.9770  210.6600  151.6760 C   0  0  0  0  0  3  0  0  0  0  0  0
  162.0710  209.7990  149.3780 C   0  0  0  0  0  0  0  0  0  0  0  0
  161.9540  208.7380  148.5370 N   0  0  0  0  0  0  0  0  0  0  0  0
  161.7460  210.4410  152.9970 N   0  0  0  0  0  0  0  0  0  0  0  0
  162.4970  211.4090  148.6910 S   0  0  0  0  0  0  0  0  0  0  0  0
  159.1110  212.7920  146.7290 C   0  0  0  0  0  2  0  0  0  0  0  0
  158.9260  214.0040  147.5260 N   0  0  0  0  0  0  0  0  0  0  0  0
  160.4200  213.1620  149.2750 C   0  0  0  0  0  2  0  0  0  0  0  0
  160.5270  212.2540  146.9170 C   0  0  0  0  0  2  0  0  0  0  0  0
  160.7780  211.9640  148.3960 C   0  0  0  0  0  3  0  0  0  0  0  0
  159.0100  213.6370  148.9400 C   0  0  0  0  0  2  0  0  0  0  0  0
  156.7610  214.1190  148.3790 O   0  0  0  0  0  1  0  0  0  0  0  0
  157.5650  214.4530  147.2890 C   0  0  0  0  0  2  0  0  0  0  0  0
  161.4440  206.3820  148.0400 C   0  0  0  0  0  2  0  0  0  0  0  0
  162.2680  206.5850  146.9300 O   0  0  0  0  0  0  0  0  0  0  0  0
  162.4530  205.3140  146.3740 C   0  0  2  0  0  3  0  0  0  0  0  0
  161.1970  205.9460  144.4460 O   0  0  0  0  0  1  0  0  0  0  0  0
  162.4110  205.3940  144.8570 C   0  0  0  0  0  2  0  0  0  0  0  0
  161.3940  204.3430  146.8920 C   0  0  0  0  0  2  0  0  0  0  0  0
  161.5000  203.0400  146.2330 N   0  0  0  0  0  0  0  0  0  0  0  0
  160.4890  200.9030  146.2980 N   0  0  0  0  0  2  0  0  0  0  0  0
  160.5320  202.9970  145.1550 C   0  0  0  0  0  2  0  0  0  0  0  0
  161.1140  201.9340  147.1190 C   0  0  1  0  0  0  0  0  0  0  0  0
  162.2530  201.4180  147.7150 F   0  0  0  0  0  0  0  0  0  0  0  0
  160.0180  201.5800  145.1010 C   0  0  0  0  0  2  0  0  0  0  0  0
  160.1870  202.3630  148.1280 O   0  0  0  0  0  0  0  0  0  0  0  0
  160.5210  202.6030  149.4680 C   0  0  0  0  0  0  0  0  0  0  0  0
  160.7580  204.0800  151.3830 C   0  0  0  0  0  3  0  0  0  0  0  0
  161.3290  201.7360  151.5860 C   0  0  0  0  0  3  0  0  0  0  0  0
  161.2170  203.0090  152.1540 C   0  0  0  0  0  3  0  0  0  0  0  0
  160.9840  201.5370  150.2470 C   0  0  0  0  0  3  0  0  0  0  0  0
  160.4100  203.8780  150.0450 C   0  0  0  0  0  3  0  0  0  0  0  0
  1  6  1  0  0  0  0
  2 11  2  0  0  0  0
  2 12  1  0  0  0  0
  3 10  2  0  0  0  0
  4  8  2  0  0  0  0
  5  1  2  0  0  0  0
  7  9  2  0  0  0  0
  7  4  1  0  0  0  0
  8  1  1  0  0  0  0
  9  5  1  0  0  0  0
 10 11  1  0  0  0  0
 11  7  1  0  0  0  0
 12 15  2  0  0  0  0
 13  2  1  0  0  0  0
 14  3  1  0  0  0  0
 14 13  2  0  0  0  0
 15  4  1  0  0  0  0
 16 13  1  0  0  0  0
 17 20  1  0  0  0  0
 17 18  1  0  0  0  0
 18 22  1  0  0  0  0
 20 21  1  0  0  0  0
 21 16  1  0  0  0  0
 21 19  1  0  0  0  0
 22 19  1  0  0  0  0
 24 18  1  0  0  0  0
 24 23  1  0  0  0  0
 25  3  1  0  0  0  0
 26 25  1  0  0  0  0
 27 29  1  6  0  0  0
 27 30  1  0  0  0  0
 27 26  1  0  0  0  0
 28 29  1  0  0  0  0
 31 30  1  0  0  0  0
 31 34  1  0  0  0  0
 32 34  1  0  0  0  0
 33 31  1  0  0  0  0
 34 35  1  1  0  0  0
 34 37  1  0  0  0  0
 36 33  1  0  0  0  0
 36 32  1  0  0  0  0
 37 38  1  0  0  0  0
 38 43  2  0  0  0  0
 38 42  1  0  0  0  0
 39 41  2  0  0  0  0
 40 41  1  0  0  0  0
 42 40  2  0  0  0  0
 43 39  1  0  0  0  0
M  END
>  <MODEL>
4

>  <REMARK>
 VINA RESULT:      -7.8      4.121      8.459
  Name = 
  11 active torsions:
  status: ('A' for Active; 'I' for Inactive)
    1  A    between atoms: S_1  and  C_34
    2  A    between atoms: S_1  and  C_35
    3  A    between atoms: C_2  and  O_6
    4  A    between atoms: C_2  and  C_13
    5  A    between atoms: C_3  and  N_4
    6  A    between atoms: C_3  and  C_12
    7  A    between atoms: O_6  and  C_12
    8  A    between atoms: C_11  and  O_14
    9  A    between atoms: C_12  and  C_17
   10  A    between atoms: O_14  and  C_22
   11  A    between atoms: N_19  and  C_37
                            x       y       z     vdW  Elec       q    Type
                         _______ _______ _______ _____ _____    ______ ____

>  <TORSDO>
F 11

$$$$
=
 OpenBabel11062410133D

 43 48  0  0  1  0  0  0  0  0999 V2000
  160.9270  202.6640  146.5190 C   0  0  0  0  0  0  0  0  0  0  0  0
  161.6130  206.0440  150.1870 C   0  0  0  0  0  0  0  0  0  0  0  0
  162.1080  208.4510  148.9380 C   0  0  0  0  0  0  0  0  0  0  0  0
  161.1580  203.7620  148.6650 C   0  0  0  0  0  0  0  0  0  0  0  0
  161.1720  203.8750  145.8660 C   0  0  0  0  0  3  0  0  0  0  0  0
  160.6420  201.2110  145.5870 Cl  0  0  0  0  0  0  0  0  0  0  0  0
  161.4060  204.9900  148.0080 C   0  0  0  0  0  0  0  0  0  0  0  0
  160.9220  202.6060  147.9150 C   0  0  0  0  0  3  0  0  0  0  0  0
  161.4120  205.0340  146.6060 C   0  0  0  0  0  3  0  0  0  0  0  0
  161.8850  207.3380  148.1930 N   0  0  0  0  0  0  0  0  0  0  0  0
  161.6400  206.1370  148.7820 C   0  0  0  0  0  0  0  0  0  0  0  0
  161.3670  204.8040  150.7860 C   0  0  0  0  0  3  0  0  0  0  0  0
  161.8270  207.2110  150.9380 C   0  0  0  0  0  0  0  0  0  0  0  0
  162.0740  208.3820  150.2940 N   0  0  0  0  0  0  0  0  0  0  0  0
  161.1480  203.7030  150.0220 N   0  0  0  0  0  0  0  0  0  0  0  0
  161.7840  207.2030  152.7390 S   0  0  0  0  0  0  0  0  0  0  0  0
  160.5790  211.1750  152.7160 C   0  0  0  0  0  2  0  0  0  0  0  0
  160.2360  211.2650  154.1340 N   0  0  0  0  0  0  0  0  0  0  0  0
  160.2030  208.8260  154.3500 C   0  0  0  0  0  2  0  0  0  0  0  0
  161.4600  209.9530  152.4680 C   0  0  0  0  0  2  0  0  0  0  0  0
  160.7320  208.6890  152.9230 C   0  0  0  0  0  3  0  0  0  0  0  0
  159.3980  210.1150  154.4750 C   0  0  0  0  0  2  0  0  0  0  0  0
  158.0730  212.0730  154.4460 O   0  0  0  0  0  1  0  0  0  0  0  0
  159.4080  212.4490  154.2860 C   0  0  0  0  0  2  0  0  0  0  0  0
  162.3170  209.7600  148.2690 C   0  0  0  0  0  2  0  0  0  0  0  0
  161.5320  210.7300  148.8980 O   0  0  0  0  0  0  0  0  0  0  0  0
  161.5310  211.8240  148.0260 C   0  0  2  0  0  3  0  0  0  0  0  0
  162.4310  214.0330  148.0990 O   0  0  0  0  0  1  0  0  0  0  0  0
  162.7590  212.6870  148.2640 C   0  0  0  0  0  2  0  0  0  0  0  0
  160.2550  212.6450  148.1970 C   0  0  0  0  0  2  0  0  0  0  0  0
  159.4130  212.5750  147.0010 N   0  0  0  0  0  0  0  0  0  0  0  0
  157.6620  213.7770  145.9610 N   0  0  0  0  0  2  0  0  0  0  0  0
  160.0180  213.3990  145.9730 C   0  0  0  0  0  2  0  0  0  0  0  0
  158.0870  213.1690  147.2170 C   0  0  1  0  0  0  0  0  0  0  0  0
  157.1980  212.1670  147.5660 F   0  0  0  0  0  0  0  0  0  0  0  0
  158.8800  214.0290  145.2090 C   0  0  0  0  0  2  0  0  0  0  0  0
  158.1180  214.1740  148.2430 O   0  0  0  0  0  0  0  0  0  0  0  0
  157.2000  214.2630  149.2980 C   0  0  0  0  0  0  0  0  0  0  0  0
  156.6640  214.3350  151.6680 C   0  0  0  0  0  3  0  0  0  0  0  0
  154.8920  214.4530  150.0230 C   0  0  0  0  0  3  0  0  0  0  0  0
  155.3050  214.4380  151.3590 C   0  0  0  0  0  3  0  0  0  0  0  0
  155.8380  214.3630  148.9980 C   0  0  0  0  0  3  0  0  0  0  0  0
  157.6090  214.2500  150.6420 C   0  0  0  0  0  3  0  0  0  0  0  0
  1  8  1  0  0  0  0
  2 12  1  0  0  0  0
  2 13  1  0  0  0  0
  3 14  1  0  0  0  0
  4 15  1  0  0  0  0
  5  1  2  0  0  0  0
  5  9  1  0  0  0  0
  6  1  1  0  0  0  0
  7  4  1  0  0  0  0
  7 11  1  0  0  0  0
  8  4  2  0  0  0  0
  9  7  2  0  0  0  0
 10 11  1  0  0  0  0
 10  3  2  0  0  0  0
 11  2  2  0  0  0  0
 13 16  1  0  0  0  0
 14 13  2  0  0  0  0
 15 12  2  0  0  0  0
 16 21  1  0  0  0  0
 17 18  1  0  0  0  0
 18 24  1  0  0  0  0
 18 22  1  0  0  0  0
 19 22  1  0  0  0  0
 20 17  1  0  0  0  0
 20 21  1  0  0  0  0
 21 19  1  0  0  0  0
 24 23  1  0  0  0  0
 25 26  1  0  0  0  0
 25  3  1  0  0  0  0
 27 30  1  1  0  0  0
 27 29  1  0  0  0  0
 27 26  1  0  0  0  0
 28 29  1  0  0  0  0
 31 34  1  0  0  0  0
 31 30  1  0  0  0  0
 32 34  1  0  0  0  0
 33 31  1  0  0  0  0
 34 35  1  1  0  0  0
 34 37  1  0  0  0  0
 36 32  1  0  0  0  0
 36 33  1  0  0  0  0
 37 38  1  0  0  0  0
 38 43  1  0  0  0  0
 40 41  2  0  0  0  0
 41 39  1  0  0  0  0
 42 38  2  0  0  0  0
 42 40  1  0  0  0  0
 43 39  2  0  0  0  0
M  END
>  <MODEL>
5

>  <REMARK>
 VINA RESULT:      -7.3      2.472      4.533
  Name = 
  11 active torsions:
  status: ('A' for Active; 'I' for Inactive)
    1  A    between atoms: S_1  and  C_34
    2  A    between atoms: S_1  and  C_35
    3  A    between atoms: C_2  and  O_6
    4  A    between atoms: C_2  and  C_13
    5  A    between atoms: C_3  and  N_4
    6  A    between atoms: C_3  and  C_12
    7  A    between atoms: O_6  and  C_12
    8  A    between atoms: C_11  and  O_14
    9  A    between atoms: C_12  and  C_17
   10  A    between atoms: O_14  and  C_22
   11  A    between atoms: N_19  and  C_37
                            x       y       z     vdW  Elec       q    Type
                         _______ _______ _______ _____ _____    ______ ____

>  <TORSDO>
F 11

$$$$
=
 OpenBabel11062410133D

 43 48  0  0  1  0  0  0  0  0999 V2000
  160.9940  203.2500  148.6320 C   0  0  0  0  0  0  0  0  0  0  0  0
  161.8290  208.1590  149.3710 C   0  0  0  0  0  0  0  0  0  0  0  0
  160.9290  208.7240  151.9140 C   0  0  0  0  0  0  0  0  0  0  0  0
  161.6260  205.5720  148.3710 C   0  0  0  0  0  0  0  0  0  0  0  0
  160.5350  203.5130  149.9260 C   0  0  0  0  0  3  0  0  0  0  0  0
  160.8740  201.6330  147.9750 Cl  0  0  0  0  0  0  0  0  0  0  0  0
  161.1630  205.8440  149.6800 C   0  0  0  0  0  0  0  0  0  0  0  0
  161.5360  204.2770  147.8560 C   0  0  0  0  0  3  0  0  0  0  0  0
  160.6180  204.8050  150.4490 C   0  0  0  0  0  3  0  0  0  0  0  0
  160.8300  207.4600  151.4290 N   0  0  0  0  0  0  0  0  0  0  0  0
  161.2640  207.1520  150.1770 C   0  0  0  0  0  0  0  0  0  0  0  0
  162.2670  207.8390  148.0810 C   0  0  0  0  0  3  0  0  0  0  0  0
  161.9400  209.4550  149.9000 C   0  0  0  0  0  0  0  0  0  0  0  0
  161.4830  209.7040  151.1560 N   0  0  0  0  0  0  0  0  0  0  0  0
  162.1570  206.5670  147.6150 N   0  0  0  0  0  0  0  0  0  0  0  0
  162.6730  210.8060  148.9600 S   0  0  0  0  0  0  0  0  0  0  0  0
  159.8780  212.7340  146.5740 C   0  0  0  0  0  2  0  0  0  0  0  0
  159.5980  213.8420  147.4860 N   0  0  0  0  0  0  0  0  0  0  0  0
  160.6270  212.6460  149.3590 C   0  0  0  0  0  2  0  0  0  0  0  0
  161.1850  212.0510  146.9660 C   0  0  0  0  0  2  0  0  0  0  0  0
  161.0950  211.5470  148.4060 C   0  0  0  0  0  3  0  0  0  0  0  0
  159.3540  213.2850  148.8170 C   0  0  0  0  0  2  0  0  0  0  0  0
  157.4350  214.4510  148.0970 O   0  0  0  0  0  1  0  0  0  0  0  0
  158.3500  214.4390  147.0440 C   0  0  0  0  0  2  0  0  0  0  0  0
  160.5000  209.0180  153.3050 C   0  0  0  0  0  2  0  0  0  0  0  0
  161.5930  208.8800  154.1640 O   0  0  0  0  0  0  0  0  0  0  0  0
  161.0400  208.6600  155.4300 C   0  0  2  0  0  3  0  0  0  0  0  0
  159.8720  207.0410  156.7380 O   0  0  0  0  0  1  0  0  0  0  0  0
  160.6290  207.2040  155.5780 C   0  0  0  0  0  2  0  0  0  0  0  0
  159.8440  209.5820  155.6600 C   0  0  0  0  0  2  0  0  0  0  0  0
  160.2760  210.9320  156.0280 N   0  0  0  0  0  0  0  0  0  0  0  0
  159.5890  213.1780  155.7550 N   0  0  0  0  0  2  0  0  0  0  0  0
  159.5840  211.3130  157.2440 C   0  0  0  0  0  2  0  0  0  0  0  0
  159.8650  211.9370  155.0390 C   0  0  1  0  0  0  0  0  0  0  0  0
  160.9070  212.1430  154.1500 F   0  0  0  0  0  0  0  0  0  0  0  0
  159.3010  212.7900  157.1260 C   0  0  0  0  0  2  0  0  0  0  0  0
  158.6880  211.5290  154.3260 O   0  0  0  0  0  0  0  0  0  0  0  0
  157.5820  212.3520  154.0770 C   0  0  0  0  0  0  0  0  0  0  0  0
  156.4840  214.1550  152.8720 C   0  0  0  0  0  3  0  0  0  0  0  0
  155.3010  212.9760  154.6250 C   0  0  0  0  0  3  0  0  0  0  0  0
  155.3310  213.9680  153.6400 C   0  0  0  0  0  3  0  0  0  0  0  0
  156.4240  212.1740  154.8420 C   0  0  0  0  0  3  0  0  0  0  0  0
  157.6050  213.3490  153.0880 C   0  0  0  0  0  3  0  0  0  0  0  0
  1  5  1  0  0  0  0
  2 13  1  0  0  0  0
  2 11  1  0  0  0  0
  3 25  1  0  0  0  0
  4  7  1  0  0  0  0
  5  9  2  0  0  0  0
  6  1  1  0  0  0  0
  7 11  2  0  0  0  0
  7  9  1  0  0  0  0
  8  4  1  0  0  0  0
  8  1  2  0  0  0  0
 10  3  2  0  0  0  0
 11 10  1  0  0  0  0
 12  2  2  0  0  0  0
 13 14  2  0  0  0  0
 14  3  1  0  0  0  0
 15 12  1  0  0  0  0
 15  4  2  0  0  0  0
 16 13  1  0  0  0  0
 17 20  1  0  0  0  0
 17 18  1  0  0  0  0
 18 22  1  0  0  0  0
 20 21  1  0  0  0  0
 21 16  1  0  0  0  0
 21 19  1  0  0  0  0
 22 19  1  0  0  0  0
 24 18  1  0  0  0  0
 24 23  1  0  0  0  0
 25 26  1  0  0  0  0
 26 27  1  0  0  0  0
 27 29  1  6  0  0  0
 27 30  1  0  0  0  0
 29 28  1  0  0  0  0
 30 31  1  0  0  0  0
 31 33  1  0  0  0  0
 32 36  1  0  0  0  0
 34 35  1  6  0  0  0
 34 32  1  0  0  0  0
 34 31  1  0  0  0  0
 36 33  1  0  0  0  0
 37 34  1  0  0  0  0
 38 37  1  0  0  0  0
 38 42  1  0  0  0  0
 39 43  1  0  0  0  0
 39 41  2  0  0  0  0
 40 42  2  0  0  0  0
 41 40  1  0  0  0  0
 43 38  2  0  0  0  0
M  END
>  <MODEL>
6

>  <REMARK>
 VINA RESULT:      -7.0      3.110      7.935
  Name = 
  11 active torsions:
  status: ('A' for Active; 'I' for Inactive)
    1  A    between atoms: S_1  and  C_34
    2  A    between atoms: S_1  and  C_35
    3  A    between atoms: C_2  and  O_6
    4  A    between atoms: C_2  and  C_13
    5  A    between atoms: C_3  and  N_4
    6  A    between atoms: C_3  and  C_12
    7  A    between atoms: O_6  and  C_12
    8  A    between atoms: C_11  and  O_14
    9  A    between atoms: C_12  and  C_17
   10  A    between atoms: O_14  and  C_22
   11  A    between atoms: N_19  and  C_37
                            x       y       z     vdW  Elec       q    Type
                         _______ _______ _______ _____ _____    ______ ____

>  <TORSDO>
F 11

$$$$
=
 OpenBabel11062410133D

 43 48  0  0  1  0  0  0  0  0999 V2000
  157.6000  212.8830  153.7700 C   0  0  0  0  0  0  0  0  0  0  0  0
  160.9120  212.8480  149.9780 C   0  0  0  0  0  0  0  0  0  0  0  0
  161.8300  210.2580  149.7750 C   0  0  0  0  0  0  0  0  0  0  0  0
  159.0400  213.5070  151.9270 C   0  0  0  0  0  0  0  0  0  0  0  0
  158.0490  211.5620  153.6820 C   0  0  0  0  0  3  0  0  0  0  0  0
  156.4260  213.3270  154.9900 Cl  0  0  0  0  0  0  0  0  0  0  0  0
  159.4970  212.1710  151.8330 C   0  0  0  0  0  0  0  0  0  0  0  0
  158.0960  213.8530  152.8960 C   0  0  0  0  0  3  0  0  0  0  0  0
  158.9950  211.2060  152.7180 C   0  0  0  0  0  3  0  0  0  0  0  0
  160.9150  210.5760  150.7270 N   0  0  0  0  0  0  0  0  0  0  0  0
  160.4450  211.8470  150.8510 C   0  0  0  0  0  0  0  0  0  0  0  0
  160.4300  214.1550  150.1160 C   0  0  0  0  0  3  0  0  0  0  0  0
  161.8430  212.4930  148.9890 C   0  0  0  0  0  0  0  0  0  0  0  0
  162.2810  211.2080  148.9170 N   0  0  0  0  0  0  0  0  0  0  0  0
  159.5160  214.4530  151.0760 N   0  0  0  0  0  0  0  0  0  0  0  0
  162.4790  213.6940  147.8070 S   0  0  0  0  0  0  0  0  0  0  0  0
  161.4020  213.0410  143.8520 C   0  0  0  0  0  2  0  0  0  0  0  0
  159.9890  213.3900  143.9920 N   0  0  0  0  0  0  0  0  0  0  0  0
  160.1150  213.1970  146.4300 C   0  0  0  0  0  2  0  0  0  0  0  0
  162.1930  213.5780  145.0420 C   0  0  0  0  0  2  0  0  0  0  0  0
  161.6280  213.0050  146.3400 C   0  0  0  0  0  3  0  0  0  0  0  0
  159.4570  212.6790  145.1560 C   0  0  0  0  0  2  0  0  0  0  0  0
  159.9820  211.7150  142.3720 O   0  0  0  0  0  1  0  0  0  0  0  0
  159.3110  212.8520  142.8260 C   0  0  0  0  0  2  0  0  0  0  0  0
  162.2820  208.8510  149.6260 C   0  0  0  0  0  2  0  0  0  0  0  0
  161.7080  208.3020  148.4760 O   0  0  0  0  0  0  0  0  0  0  0  0
  162.0010  206.9350  148.5370 C   0  0  2  0  0  3  0  0  0  0  0  0
  161.1120  205.2680  147.0790 O   0  0  0  0  0  1  0  0  0  0  0  0
  162.0050  206.3370  147.1390 C   0  0  0  0  0  2  0  0  0  0  0  0
  160.9950  206.2110  149.4280 C   0  0  0  0  0  2  0  0  0  0  0  0
  161.6220  205.0970  150.1410 N   0  0  0  0  0  0  0  0  0  0  0  0
  161.6040  204.0930  152.2820 N   0  0  0  0  0  2  0  0  0  0  0  0
  160.7340  203.9530  150.0650 C   0  0  0  0  0  2  0  0  0  0  0  0
  161.7590  205.3620  151.5790 C   0  0  1  0  0  0  0  0  0  0  0  0
  163.0230  205.8700  151.8240 F   0  0  0  0  0  0  0  0  0  0  0  0
  160.8620  203.2270  151.3810 C   0  0  0  0  0  2  0  0  0  0  0  0
  160.7630  206.2850  152.0450 O   0  0  0  0  0  0  0  0  0  0  0  0
  160.8970  207.0980  153.1790 C   0  0  0  0  0  0  0  0  0  0  0  0
  160.7350  207.4730  155.5750 C   0  0  0  0  0  3  0  0  0  0  0  0
  161.4890  209.2550  154.1210 C   0  0  0  0  0  3  0  0  0  0  0  0
  161.1840  208.7840  155.4010 C   0  0  0  0  0  3  0  0  0  0  0  0
  161.3430  208.4140  153.0150 C   0  0  0  0  0  3  0  0  0  0  0  0
  160.5930  206.6310  154.4680 C   0  0  0  0  0  3  0  0  0  0  0  0
  1  6  1  0  0  0  0
  2 12  2  0  0  0  0
  2 11  1  0  0  0  0
  3 10  2  0  0  0  0
  4  8  1  0  0  0  0
  5  1  1  0  0  0  0
  7  4  1  0  0  0  0
  7  9  1  0  0  0  0
  8  1  2  0  0  0  0
  9  5  2  0  0  0  0
 10 11  1  0  0  0  0
 11  7  2  0  0  0  0
 12 15  1  0  0  0  0
 13  2  1  0  0  0  0
 14 13  2  0  0  0  0
 14  3  1  0  0  0  0
 15  4  2  0  0  0  0
 16 13  1  0  0  0  0
 17 18  1  0  0  0  0
 17 20  1  0  0  0  0
 18 22  1  0  0  0  0
 20 21  1  0  0  0  0
 21 19  1  0  0  0  0
 21 16  1  0  0  0  0
 22 19  1  0  0  0  0
 23 24  1  0  0  0  0
 24 18  1  0  0  0  0
 25  3  1  0  0  0  0
 26 27  1  0  0  0  0
 26 25  1  0  0  0  0
 27 29  1  6  0  0  0
 27 30  1  0  0  0  0
 28 29  1  0  0  0  0
 30 31  1  0  0  0  0
 31 34  1  0  0  0  0
 33 31  1  0  0  0  0
 33 36  1  0  0  0  0
 34 35  1  1  0  0  0
 34 37  1  0  0  0  0
 34 32  1  0  0  0  0
 36 32  1  0  0  0  0
 37 38  1  0  0  0  0
 38 43  1  0  0  0  0
 40 41  2  0  0  0  0
 41 39  1  0  0  0  0
 42 38  2  0  0  0  0
 42 40  1  0  0  0  0
 43 39  2  0  0  0  0
M  END
>  <MODEL>
7

>  <REMARK>
 VINA RESULT:      -6.9      3.755      9.544
  Name = 
  11 active torsions:
  status: ('A' for Active; 'I' for Inactive)
    1  A    between atoms: S_1  and  C_34
    2  A    between atoms: S_1  and  C_35
    3  A    between atoms: C_2  and  O_6
    4  A    between atoms: C_2  and  C_13
    5  A    between atoms: C_3  and  N_4
    6  A    between atoms: C_3  and  C_12
    7  A    between atoms: O_6  and  C_12
    8  A    between atoms: C_11  and  O_14
    9  A    between atoms: C_12  and  C_17
   10  A    between atoms: O_14  and  C_22
   11  A    between atoms: N_19  and  C_37
                            x       y       z     vdW  Elec       q    Type
                         _______ _______ _______ _____ _____    ______ ____

>  <TORSDO>
F 11

$$$$
=
 OpenBabel11062410133D

 43 48  0  0  1  0  0  0  0  0999 V2000
  160.8810  203.5080  149.0460 C   0  0  0  0  0  0  0  0  0  0  0  0
  161.9560  208.4260  149.1370 C   0  0  0  0  0  0  0  0  0  0  0  0
  161.1170  209.3570  151.5910 C   0  0  0  0  0  0  0  0  0  0  0  0
  161.6180  205.7440  148.4820 C   0  0  0  0  0  0  0  0  0  0  0  0
  160.4520  203.9580  150.2980 C   0  0  0  0  0  3  0  0  0  0  0  0
  160.6770  201.8270  148.6050 Cl  0  0  0  0  0  0  0  0  0  0  0  0
  161.1860  206.2050  149.7480 C   0  0  0  0  0  0  0  0  0  0  0  0
  161.4610  204.3990  148.1390 C   0  0  0  0  0  3  0  0  0  0  0  0
  160.6030  205.3010  150.6480 C   0  0  0  0  0  3  0  0  0  0  0  0
  160.9520  208.0470  151.2750 N   0  0  0  0  0  0  0  0  0  0  0  0
  161.3550  207.5600  150.0700 C   0  0  0  0  0  0  0  0  0  0  0  0
  162.3620  207.9200  147.8970 C   0  0  0  0  0  3  0  0  0  0  0  0
  162.1350  209.7720  149.4930 C   0  0  0  0  0  0  0  0  0  0  0  0
  161.7060  210.2030  150.7080 N   0  0  0  0  0  0  0  0  0  0  0  0
  162.1860  206.6060  147.5990 N   0  0  0  0  0  0  0  0  0  0  0  0
  162.9190  210.9530  148.3810 S   0  0  0  0  0  0  0  0  0  0  0  0
  159.3320  212.3210  146.8010 C   0  0  0  0  0  2  0  0  0  0  0  0
  159.8170  213.6290  146.3630 N   0  0  0  0  0  0  0  0  0  0  0  0
  161.8150  213.4300  147.7650 C   0  0  0  0  0  2  0  0  0  0  0  0
  160.5110  211.3850  147.0540 C   0  0  0  0  0  2  0  0  0  0  0  0
  161.4360  211.9910  148.1090 C   0  0  0  0  0  3  0  0  0  0  0  0
  160.5540  214.2360  147.4720 C   0  0  0  0  0  2  0  0  0  0  0  0
  158.2190  214.3190  144.8150 O   0  0  0  0  0  1  0  0  0  0  0  0
  158.6430  214.4530  146.1380 C   0  0  0  0  0  2  0  0  0  0  0  0
  160.7200  209.8490  152.9350 C   0  0  0  0  0  2  0  0  0  0  0  0
  161.8280  210.4240  153.5620 O   0  0  0  0  0  0  0  0  0  0  0  0
  161.3400  210.9450  154.7650 C   0  0  2  0  0  3  0  0  0  0  0  0
  162.3050  211.2070  156.9320 O   0  0  0  0  0  1  0  0  0  0  0  0
  162.0150  210.2650  155.9440 C   0  0  0  0  0  2  0  0  0  0  0  0
  159.8240  210.7810  154.8450 C   0  0  0  0  0  2  0  0  0  0  0  0
  159.2390  211.7070  155.8160 N   0  0  0  0  0  0  0  0  0  0  0  0
  157.3590  213.1240  156.0440 N   0  0  0  0  0  2  0  0  0  0  0  0
  158.2550  210.9820  156.5970 C   0  0  0  0  0  2  0  0  0  0  0  0
  158.4760  212.7830  155.1700 C   0  0  1  0  0  0  0  0  0  0  0  0
  159.2970  213.8890  155.0230 F   0  0  0  0  0  0  0  0  0  0  0  0
  157.1360  211.9540  156.8780 C   0  0  0  0  0  2  0  0  0  0  0  0
  157.9690  212.3780  153.8890 O   0  0  0  0  0  0  0  0  0  0  0  0
  158.1950  213.0660  152.6890 C   0  0  0  0  0  0  0  0  0  0  0  0
  157.4340  214.4350  150.8310 C   0  0  0  0  0  3  0  0  0  0  0  0
  159.7440  213.7180  150.9370 C   0  0  0  0  0  3  0  0  0  0  0  0
  158.7200  214.4120  150.2850 C   0  0  0  0  0  3  0  0  0  0  0  0
  159.4790  213.0460  152.1340 C   0  0  0  0  0  3  0  0  0  0  0  0
  157.1720  213.7660  152.0290 C   0  0  0  0  0  3  0  0  0  0  0  0
  1  5  1  0  0  0  0
  2 13  1  0  0  0  0
  2 11  1  0  0  0  0
  3 25  1  0  0  0  0
  4  7  1  0  0  0  0
  5  9  2  0  0  0  0
  6  1  1  0  0  0  0
  7 11  2  0  0  0  0
  7  9  1  0  0  0  0
  8  4  1  0  0  0  0
  8  1  2  0  0  0  0
 10  3  2  0  0  0  0
 11 10  1  0  0  0  0
 12  2  2  0  0  0  0
 13 14  2  0  0  0  0
 14  3  1  0  0  0  0
 15 12  1  0  0  0  0
 15  4  2  0  0  0  0
 16 13  1  0  0  0  0
 17 20  1  0  0  0  0
 18 17  1  0  0  0  0
 18 22  1  0  0  0  0
 19 21  1  0  0  0  0
 20 21  1  0  0  0  0
 21 16  1  0  0  0  0
 22 19  1  0  0  0  0
 23 24  1  0  0  0  0
 24 18  1  0  0  0  0
 25 26  1  0  0  0  0
 26 27  1  0  0  0  0
 27 30  1  1  0  0  0
 27 29  1  0  0  0  0
 29 28  1  0  0  0  0
 30 31  1  0  0  0  0
 31 33  1  0  0  0  0
 32 36  1  0  0  0  0
 33 36  1  0  0  0  0
 34 35  1  6  0  0  0
 34 31  1  0  0  0  0
 34 32  1  0  0  0  0
 37 34  1  0  0  0  0
 38 37  1  0  0  0  0
 39 43  1  0  0  0  0
 40 42  2  0  0  0  0
 41 39  2  0  0  0  0
 41 40  1  0  0  0  0
 42 38  1  0  0  0  0
 43 38  2  0  0  0  0
M  END
>  <MODEL>
8

>  <REMARK>
 VINA RESULT:      -6.7      3.160      7.312
  Name = 
  11 active torsions:
  status: ('A' for Active; 'I' for Inactive)
    1  A    between atoms: S_1  and  C_34
    2  A    between atoms: S_1  and  C_35
    3  A    between atoms: C_2  and  O_6
    4  A    between atoms: C_2  and  C_13
    5  A    between atoms: C_3  and  N_4
    6  A    between atoms: C_3  and  C_12
    7  A    between atoms: O_6  and  C_12
    8  A    between atoms: C_11  and  O_14
    9  A    between atoms: C_12  and  C_17
   10  A    between atoms: O_14  and  C_22
   11  A    between atoms: N_19  and  C_37
                            x       y       z     vdW  Elec       q    Type
                         _______ _______ _______ _____ _____    ______ ____

>  <TORSDO>
F 11

$$$$
=
 OpenBabel11062410133D

 43 48  0  0  1  0  0  0  0  0999 V2000
  160.9960  202.6230  147.2760 C   0  0  0  0  0  0  0  0  0  0  0  0
  161.2440  205.2350  151.5720 C   0  0  0  0  0  0  0  0  0  0  0  0
  162.0760  207.7720  150.8890 C   0  0  0  0  0  0  0  0  0  0  0  0
  160.9240  203.3030  149.5980 C   0  0  0  0  0  0  0  0  0  0  0  0
  161.4140  203.9050  146.9060 C   0  0  0  0  0  3  0  0  0  0  0  0
  160.7900  201.3860  146.0550 Cl  0  0  0  0  0  0  0  0  0  0  0  0
  161.3470  204.6020  149.2300 C   0  0  0  0  0  0  0  0  0  0  0  0
  160.7530  202.3220  148.6180 C   0  0  0  0  0  3  0  0  0  0  0  0
  161.5900  204.8910  147.8790 C   0  0  0  0  0  3  0  0  0  0  0  0
  161.9190  206.8310  149.9230 N   0  0  0  0  0  0  0  0  0  0  0  0
  161.5120  205.5710  150.2310 C   0  0  0  0  0  0  0  0  0  0  0  0
  160.8320  203.9350  151.8840 C   0  0  0  0  0  3  0  0  0  0  0  0
  161.3940  206.2290  152.5530 C   0  0  0  0  0  0  0  0  0  0  0  0
  161.8100  207.4700  152.1860 N   0  0  0  0  0  0  0  0  0  0  0  0
  160.6830  203.0080  150.9020 N   0  0  0  0  0  0  0  0  0  0  0  0
  161.0490  205.9080  154.2920 S   0  0  0  0  0  0  0  0  0  0  0  0
  161.8370  209.3400  156.4900 C   0  0  0  0  0  2  0  0  0  0  0  0
  160.4490  209.6610  156.8220 N   0  0  0  0  0  0  0  0  0  0  0  0
  159.6150  208.1560  155.0800 C   0  0  0  0  0  2  0  0  0  0  0  0
  161.9410  207.8870  156.0320 C   0  0  0  0  0  2  0  0  0  0  0  0
  161.0360  207.6600  154.8220 C   0  0  0  0  0  3  0  0  0  0  0  0
  159.6590  209.5910  155.5930 C   0  0  0  0  0  2  0  0  0  0  0  0
  161.6050  211.6830  156.8310 O   0  0  0  0  0  1  0  0  0  0  0  0
  160.4360  211.0480  157.2520 C   0  0  0  0  0  2  0  0  0  0  0  0
  162.4670  209.1560  150.5170 C   0  0  0  0  0  2  0  0  0  0  0  0
  161.3230  209.8810  150.1730 O   0  0  0  0  0  0  0  0  0  0  0  0
  161.4890  211.1340  150.7730 C   0  0  2  0  0  3  0  0  0  0  0  0
  161.3570  210.7610  153.1270 O   0  0  0  0  0  1  0  0  0  0  0  0
  160.6370  211.2310  152.0280 C   0  0  0  0  0  2  0  0  0  0  0  0
  161.1320  212.2500  149.7940 C   0  0  0  0  0  2  0  0  0  0  0  0
  161.5970  211.9380  148.4410 N   0  0  0  0  0  0  0  0  0  0  0  0
  161.6340  212.9070  146.2840 N   0  0  0  0  0  2  0  0  0  0  0  0
  162.9090  212.5280  148.2650 C   0  0  0  0  0  2  0  0  0  0  0  0
  160.7670  212.5710  147.4070 C   0  0  1  0  0  0  0  0  0  0  0  0
  159.8040  211.6670  146.9890 F   0  0  0  0  0  0  0  0  0  0  0  0
  162.9780  212.9920  146.8310 C   0  0  0  0  0  2  0  0  0  0  0  0
  160.1360  213.7660  147.8920 O   0  0  0  0  0  0  0  0  0  0  0  0
  158.7500  213.9630  147.9620 C   0  0  0  0  0  0  0  0  0  0  0  0
  156.6640  214.0800  149.2040 C   0  0  0  0  0  3  0  0  0  0  0  0
  156.6680  214.4480  146.8120 C   0  0  0  0  0  3  0  0  0  0  0  0
  155.9750  214.3640  148.0220 C   0  0  0  0  0  3  0  0  0  0  0  0
  158.0510  214.2460  146.7830 C   0  0  0  0  0  3  0  0  0  0  0  0
  158.0470  213.8820  149.1750 C   0  0  0  0  0  3  0  0  0  0  0  0
  1  8  1  0  0  0  0
  2 12  1  0  0  0  0
  2 13  1  0  0  0  0
  3 14  1  0  0  0  0
  4 15  1  0  0  0  0
  5  1  2  0  0  0  0
  5  9  1  0  0  0  0
  6  1  1  0  0  0  0
  7  4  1  0  0  0  0
  7 11  1  0  0  0  0
  8  4  2  0  0  0  0
  9  7  2  0  0  0  0
 10 11  1  0  0  0  0
 10  3  2  0  0  0  0
 11  2  2  0  0  0  0
 13 16  1  0  0  0  0
 14 13  2  0  0  0  0
 15 12  2  0  0  0  0
 16 21  1  0  0  0  0
 17 18  1  0  0  0  0
 18 24  1  0  0  0  0
 19 22  1  0  0  0  0
 20 17  1  0  0  0  0
 21 19  1  0  0  0  0
 21 20  1  0  0  0  0
 22 18  1  0  0  0  0
 23 24  1  0  0  0  0
 25  3  1  0  0  0  0
 26 25  1  0  0  0  0
 26 27  1  0  0  0  0
 27 30  1  6  0  0  0
 27 29  1  0  0  0  0
 29 28  1  0  0  0  0
 31 30  1  0  0  0  0
 32 36  1  0  0  0  0
 32 34  1  0  0  0  0
 33 31  1  0  0  0  0
 34 35  1  6  0  0  0
 34 37  1  0  0  0  0
 34 31  1  0  0  0  0
 36 33  1  0  0  0  0
 37 38  1  0  0  0  0
 38 43  1  0  0  0  0
 40 41  2  0  0  0  0
 41 39  1  0  0  0  0
 42 40  1  0  0  0  0
 42 38  2  0  0  0  0
 43 39  2  0  0  0  0
M  END
>  <MODEL>
9

>  <REMARK>
 VINA RESULT:      -6.7      3.051      4.420
  Name = 
  11 active torsions:
  status: ('A' for Active; 'I' for Inactive)
    1  A    between atoms: S_1  and  C_34
    2  A    between atoms: S_1  and  C_35
    3  A    between atoms: C_2  and  O_6
    4  A    between atoms: C_2  and  C_13
    5  A    between atoms: C_3  and  N_4
    6  A    between atoms: C_3  and  C_12
    7  A    between atoms: O_6  and  C_12
    8  A    between atoms: C_11  and  O_14
    9  A    between atoms: C_12  and  C_17
   10  A    between atoms: O_14  and  C_22
   11  A    between atoms: N_19  and  C_37
                            x       y       z     vdW  Elec       q    Type
                         _______ _______ _______ _____ _____    ______ ____

>  <TORSDO>
F 11

$$$$
