=
 OpenBabel11052422243D

 31 34  0  0  1  0  0  0  0  0999 V2000
  162.3590  212.6120  147.8140 C   0  0  0  0  0  0  0  0  0  0  0  0
  162.2240  210.1010  150.6740 C   0  0  1  0  0  3  0  0  0  0  0  0
  161.5760  208.8210  150.1490 C   0  0  0  0  0  0  0  0  0  0  0  0
  158.0050  212.4100  152.9800 O   0  0  0  0  0  0  0  0  0  0  0  0
  158.5440  211.6160  153.7980 C   0  0  0  0  0  0  0  0  0  0  0  0
  162.4160  207.4870  148.2350 C   0  0  0  0  0  3  0  0  0  0  0  0
  161.9360  211.2990  149.8070 C   0  0  0  0  0  0  0  0  0  0  0  0
  161.2900  213.4530  148.1400 C   0  0  0  0  0  3  0  0  0  0  0  0
  161.5350  208.6100  148.6640 C   0  0  0  0  0  2  0  0  0  0  0  0
  160.5520  211.1370  152.2910 C   0  0  0  0  0  0  0  0  0  0  0  0
  163.2870  212.9010  146.3590 Cl  0  0  0  0  0  0  0  0  0  0  0  0
  160.9730  208.1130  152.4640 C   0  0  0  0  0  2  0  0  0  0  0  0
  162.1790  206.2280  148.5920 C   0  0  0  0  0  3  0  0  0  0  0  0
  160.1520  211.9610  151.3620 N   0  0  0  0  0  0  0  0  0  0  0  0
  161.8810  210.4140  152.1450 C   0  0  1  0  0  3  0  0  0  0  0  0
  159.8050  211.0000  153.5080 N   0  0  0  0  0  2  0  0  0  0  0  0
  162.6810  211.5350  148.6450 C   0  0  0  0  0  3  0  0  0  0  0  0
  161.0960  205.8200  149.5060 C   0  0  0  0  0  3  0  0  0  0  0  0
  160.8760  212.1570  150.1420 C   0  0  0  0  0  0  0  0  0  0  0  0
  160.5500  213.2280  149.3040 C   0  0  0  0  0  3  0  0  0  0  0  0
  161.9650  209.1440  152.9840 C   0  0  0  0  0  2  0  0  0  0  0  0
  161.1270  207.8560  150.9920 C   0  0  0  0  0  0  0  0  0  0  0  0
  160.6350  206.5350  150.5390 C   0  0  0  0  0  3  0  0  0  0  0  0
  158.0910  209.9800  155.4570 F   0  0  0  0  0  0  0  0  0  0  0  0
  157.8310  211.2840  155.0720 C   0  0  2  0  0  3  0  0  0  0  0  0
  155.5340  210.2800  155.3410 C   0  0  0  0  0  1  0  0  0  0  0  0
  156.3170  211.5450  155.0220 C   0  0  1  0  0  3  0  0  0  0  0  0
  155.8290  212.7410  155.8530 C   0  0  0  0  0  0  0  0  0  0  0  0
  155.1330  213.6390  155.0620 F   0  0  0  0  0  0  0  0  0  0  0  0
  155.0080  212.3100  156.8790 F   0  0  0  0  0  0  0  0  0  0  0  0
  156.9190  213.3870  156.4050 F   0  0  0  0  0  0  0  0  0  0  0  0
  1  8  2  0  0  0  0
  1 17  1  0  0  0  0
  2  7  1  6  0  0  0
  2 15  1  0  0  0  0
  3  2  1  0  0  0  0
  3 22  2  0  0  0  0
  4  5  2  0  0  0  0
  5 25  1  0  0  0  0
  6 13  2  0  0  0  0
  6  9  1  0  0  0  0
  7 19  1  0  0  0  0
  8 20  1  0  0  0  0
  9  3  1  0  0  0  0
 10 16  1  0  0  0  0
 11  1  1  0  0  0  0
 12 21  1  0  0  0  0
 13 18  1  0  0  0  0
 14 10  2  0  0  0  0
 15 10  1  0  0  0  0
 15 21  1  1  0  0  0
 16  5  1  0  0  0  0
 17  7  2  0  0  0  0
 18 23  2  0  0  0  0
 19 14  1  0  0  0  0
 20 19  2  0  0  0  0
 22 12  1  0  0  0  0
 23 22  1  0  0  0  0
 25 24  1  6  0  0  0
 27 25  1  0  0  0  0
 27 26  1  1  0  0  0
 27 28  1  0  0  0  0
 28 31  1  0  0  0  0
 28 30  1  0  0  0  0
 29 28  1  0  0  0  0
M  END
>  <MODEL>
1

>  <REMARK>
 VINA RESULT:      -6.2      0.000      0.000
  Name = 
  3 active torsions:
  status: ('A' for Active; 'I' for Inactive)
    1  A    between atoms: C_1  and  C_19
    2  A    between atoms: C_9  and  C_22
    3  A    between atoms: C_19  and  C_22
                            x       y       z     vdW  Elec       q    Type
                         _______ _______ _______ _____ _____    ______ ____

>  <TORSDO>
F 3

$$$$
=
 OpenBabel11052422243D

 31 34  0  0  1  0  0  0  0  0999 V2000
  160.7470  209.2140  155.6010 C   0  0  0  0  0  0  0  0  0  0  0  0
  161.6620  210.6040  152.1770 C   0  0  1  0  0  3  0  0  0  0  0  0
  160.5060  211.4800  151.6960 C   0  0  0  0  0  0  0  0  0  0  0  0
  160.5200  206.0610  149.6270 O   0  0  0  0  0  0  0  0  0  0  0  0
  161.1940  206.8060  148.8660 C   0  0  0  0  0  0  0  0  0  0  0  0
  159.6170  213.4500  152.9130 C   0  0  0  0  0  3  0  0  0  0  0  0
  161.2600  209.6540  153.2740 C   0  0  0  0  0  0  0  0  0  0  0  0
  160.3730  207.9070  155.2730 C   0  0  0  0  0  3  0  0  0  0  0  0
  159.5250  211.9750  152.7190 C   0  0  0  0  0  2  0  0  0  0  0  0
  161.6640  208.5410  150.6830 C   0  0  0  0  0  0  0  0  0  0  0  0
  160.6510  209.7600  157.2610 Cl  0  0  0  0  0  0  0  0  0  0  0  0
  161.2440  211.2490  149.3240 C   0  0  0  0  0  2  0  0  0  0  0  0
  159.3040  214.3090  151.9460 C   0  0  0  0  0  3  0  0  0  0  0  0
  161.0360  207.8650  151.6040 N   0  0  0  0  0  0  0  0  0  0  0  0
  162.3740  209.8370  151.0420 C   0  0  1  0  0  3  0  0  0  0  0  0
  161.7950  208.0110  149.3570 N   0  0  0  0  0  2  0  0  0  0  0  0
  161.1870  210.0880  154.6030 C   0  0  0  0  0  3  0  0  0  0  0  0
  158.9260  213.9100  150.5780 C   0  0  0  0  0  3  0  0  0  0  0  0
  160.9030  208.3340  152.9490 C   0  0  0  0  0  0  0  0  0  0  0  0
  160.4530  207.4650  153.9490 C   0  0  0  0  0  3  0  0  0  0  0  0
  162.5870  210.7540  149.8430 C   0  0  0  0  0  2  0  0  0  0  0  0
  160.4060  211.8760  150.4020 C   0  0  0  0  0  0  0  0  0  0  0  0
  159.3980  212.8460  149.9160 C   0  0  0  0  0  3  0  0  0  0  0  0
  160.0880  206.2970  146.8280 F   0  0  0  0  0  0  0  0  0  0  0  0
  161.3310  206.4440  147.4200 C   0  0  2  0  0  3  0  0  0  0  0  0
  161.5380  203.9500  147.7280 C   0  0  0  0  0  1  0  0  0  0  0  0
  162.2020  205.2020  147.1720 C   0  0  1  0  0  3  0  0  0  0  0  0
  162.6650  205.0020  145.7210 C   0  0  0  0  0  0  0  0  0  0  0  0
  163.9300  204.4400  145.6810 F   0  0  0  0  0  0  0  0  0  0  0  0
  161.7820  204.1820  145.0430 F   0  0  0  0  0  0  0  0  0  0  0  0
  162.7030  206.2280  145.0830 F   0  0  0  0  0  0  0  0  0  0  0  0
  1 11  1  0  0  0  0
  2  3  1  6  0  0  0
  2  7  1  0  0  0  0
  3  9  1  0  0  0  0
  5 16  1  0  0  0  0
  5  4  2  0  0  0  0
  7 17  1  0  0  0  0
  8  1  1  0  0  0  0
  9  6  1  0  0  0  0
 10 15  1  0  0  0  0
 10 14  2  0  0  0  0
 12 21  1  0  0  0  0
 12 22  1  0  0  0  0
 13  6  2  0  0  0  0
 14 19  1  0  0  0  0
 15 21  1  6  0  0  0
 15  2  1  0  0  0  0
 16 10  1  0  0  0  0
 17  1  2  0  0  0  0
 18 13  1  0  0  0  0
 19  7  2  0  0  0  0
 19 20  1  0  0  0  0
 20  8  2  0  0  0  0
 22  3  2  0  0  0  0
 23 22  1  0  0  0  0
 23 18  2  0  0  0  0
 25 24  1  1  0  0  0
 25  5  1  0  0  0  0
 27 25  1  0  0  0  0
 27 26  1  6  0  0  0
 28 27  1  0  0  0  0
 29 28  1  0  0  0  0
 30 28  1  0  0  0  0
 31 28  1  0  0  0  0
M  END
>  <MODEL>
2

>  <REMARK>
 VINA RESULT:      -6.2      5.349      8.682
  Name = 
  3 active torsions:
  status: ('A' for Active; 'I' for Inactive)
    1  A    between atoms: C_1  and  C_19
    2  A    between atoms: C_9  and  C_22
    3  A    between atoms: C_19  and  C_22
                            x       y       z     vdW  Elec       q    Type
                         _______ _______ _______ _____ _____    ______ ____

>  <TORSDO>
F 3

$$$$
=
 OpenBabel11052422243D

 31 34  0  0  1  0  0  0  0  0999 V2000
  161.3920  204.3770  150.9520 C   0  0  0  0  0  0  0  0  0  0  0  0
  162.1860  207.8660  152.2530 C   0  0  1  0  0  3  0  0  0  0  0  0
  161.0290  208.3130  153.1460 C   0  0  0  0  0  0  0  0  0  0  0  0
  160.8280  210.2690  147.6890 O   0  0  0  0  0  0  0  0  0  0  0  0
  161.4840  211.0740  148.4040 C   0  0  0  0  0  0  0  0  0  0  0  0
  160.2410  207.1000  155.1600 C   0  0  0  0  0  3  0  0  0  0  0  0
  161.8110  206.7330  151.3340 C   0  0  0  0  0  0  0  0  0  0  0  0
  160.9750  204.6610  149.6480 C   0  0  0  0  0  3  0  0  0  0  0  0
  160.1070  207.2580  153.6840 C   0  0  0  0  0  2  0  0  0  0  0  0
  162.0740  209.3150  150.1620 C   0  0  0  0  0  0  0  0  0  0  0  0
  161.3820  202.7260  151.5330 Cl  0  0  0  0  0  0  0  0  0  0  0  0
  161.6560  210.7100  152.8520 C   0  0  0  0  0  2  0  0  0  0  0  0
  159.9050  208.0690  156.0070 C   0  0  0  0  0  3  0  0  0  0  0  0
  161.4730  208.3540  149.5190 N   0  0  0  0  0  0  0  0  0  0  0  0
  162.8280  209.0150  151.4470 C   0  0  1  0  0  3  0  0  0  0  0  0
  162.1340  210.6350  149.6030 N   0  0  0  0  0  2  0  0  0  0  0  0
  161.8070  205.4110  151.7960 C   0  0  0  0  0  3  0  0  0  0  0  0
  159.4570  209.4100  155.5910 C   0  0  0  0  0  3  0  0  0  0  0  0
  161.4100  207.0140  150.0180 C   0  0  0  0  0  0  0  0  0  0  0  0
  160.9860  205.9780  149.1790 C   0  0  0  0  0  3  0  0  0  0  0  0
  163.0090  210.2400  152.3350 C   0  0  0  0  0  2  0  0  0  0  0  0
  160.8810  209.6090  153.5200 C   0  0  0  0  0  0  0  0  0  0  0  0
  159.8750  210.0700  154.5030 C   0  0  0  0  0  3  0  0  0  0  0  0
  161.6630  213.3280  149.1250 F   0  0  0  0  0  0  0  0  0  0  0  0
  161.5490  212.5170  148.0100 C   0  0  2  0  0  3  0  0  0  0  0  0
  159.8190  214.3050  147.5980 C   0  0  0  0  0  1  0  0  0  0  0  0
  160.3760  212.9700  147.1250 C   0  0  1  0  0  3  0  0  0  0  0  0
  160.6560  212.9750  145.6140 C   0  0  0  0  0  0  0  0  0  0  0  0
  162.0060  212.7920  145.3630 F   0  0  0  0  0  0  0  0  0  0  0  0
  159.9390  211.9720  144.9890 F   0  0  0  0  0  0  0  0  0  0  0  0
  160.2660  214.1900  145.0830 F   0  0  0  0  0  0  0  0  0  0  0  0
  1 11  1  0  0  0  0
  1 17  1  0  0  0  0
  2  7  1  6  0  0  0
  2  3  1  0  0  0  0
  3 22  2  0  0  0  0
  3  9  1  0  0  0  0
  4  5  2  0  0  0  0
  5 16  1  0  0  0  0
  6 13  2  0  0  0  0
  7 17  2  0  0  0  0
  8  1  2  0  0  0  0
  9  6  1  0  0  0  0
 10 15  1  0  0  0  0
 12 22  1  0  0  0  0
 14 19  1  0  0  0  0
 14 10  2  0  0  0  0
 15  2  1  0  0  0  0
 15 21  1  1  0  0  0
 16 10  1  0  0  0  0
 18 13  1  0  0  0  0
 19  7  1  0  0  0  0
 20  8  1  0  0  0  0
 20 19  2  0  0  0  0
 21 12  1  0  0  0  0
 22 23  1  0  0  0  0
 23 18  2  0  0  0  0
 25  5  1  0  0  0  0
 25 24  1  1  0  0  0
 27 26  1  1  0  0  0
 27 25  1  0  0  0  0
 28 27  1  0  0  0  0
 29 28  1  0  0  0  0
 30 28  1  0  0  0  0
 31 28  1  0  0  0  0
M  END
>  <MODEL>
3

>  <REMARK>
 VINA RESULT:      -5.9      4.773      7.445
  Name = 
  3 active torsions:
  status: ('A' for Active; 'I' for Inactive)
    1  A    between atoms: C_1  and  C_19
    2  A    between atoms: C_9  and  C_22
    3  A    between atoms: C_19  and  C_22
                            x       y       z     vdW  Elec       q    Type
                         _______ _______ _______ _____ _____    ______ ____

>  <TORSDO>
F 3

$$$$
=
 OpenBabel11052422243D

 31 34  0  0  1  0  0  0  0  0999 V2000
  161.9040  212.0650  149.0100 C   0  0  0  0  0  0  0  0  0  0  0  0
  161.9500  210.2850  152.3760 C   0  0  1  0  0  3  0  0  0  0  0  0
  161.4020  208.8730  152.1720 C   0  0  0  0  0  0  0  0  0  0  0  0
  157.5650  212.7500  154.1470 O   0  0  0  0  0  0  0  0  0  0  0  0
  158.1590  212.2090  155.1180 C   0  0  0  0  0  0  0  0  0  0  0  0
  162.3440  207.1970  150.6070 C   0  0  0  0  0  3  0  0  0  0  0  0
  161.5760  211.2240  151.2590 C   0  0  0  0  0  0  0  0  0  0  0  0
  160.7750  212.8770  149.1470 C   0  0  0  0  0  3  0  0  0  0  0  0
  161.3800  208.3210  150.7770 C   0  0  0  0  0  2  0  0  0  0  0  0
  160.2010  211.5420  153.7330 C   0  0  0  0  0  0  0  0  0  0  0  0
  162.8120  212.0750  147.5140 Cl  0  0  0  0  0  0  0  0  0  0  0  0
  160.8470  208.6800  154.5970 C   0  0  0  0  0  2  0  0  0  0  0  0
  162.2000  206.0410  151.2510 C   0  0  0  0  0  3  0  0  0  0  0  0
  159.7430  212.0960  152.6450 N   0  0  0  0  0  0  0  0  0  0  0  0
  161.5810  210.9050  153.7400 C   0  0  1  0  0  3  0  0  0  0  0  0
  159.4630  211.6370  154.9600 N   0  0  0  0  0  2  0  0  0  0  0  0
  162.3040  211.2370  150.0630 C   0  0  0  0  0  3  0  0  0  0  0  0
  161.1490  205.7780  152.2500 C   0  0  0  0  0  3  0  0  0  0  0  0
  160.4530  212.0560  151.4020 C   0  0  0  0  0  0  0  0  0  0  0  0
  160.0510  212.8760  150.3430 C   0  0  0  0  0  3  0  0  0  0  0  0
  161.7570  209.8740  154.8480 C   0  0  0  0  0  2  0  0  0  0  0  0
  161.0240  208.1010  153.2220 C   0  0  0  0  0  0  0  0  0  0  0  0
  160.6330  206.6780  153.0960 C   0  0  0  0  0  3  0  0  0  0  0  0
  158.0760  211.1920  157.2610 F   0  0  0  0  0  0  0  0  0  0  0  0
  157.4700  212.1310  156.4450 C   0  0  2  0  0  3  0  0  0  0  0  0
  155.2170  213.1190  155.8930 C   0  0  0  0  0  1  0  0  0  0  0  0
  155.9590  211.8690  156.3440 C   0  0  1  0  0  3  0  0  0  0  0  0
  155.5580  210.6400  155.5140 C   0  0  0  0  0  0  0  0  0  0  0  0
  156.6300  209.7760  155.3650 F   0  0  0  0  0  0  0  0  0  0  0  0
  154.5150  209.9670  156.1240 F   0  0  0  0  0  0  0  0  0  0  0  0
  155.1420  211.0520  154.2620 F   0  0  0  0  0  0  0  0  0  0  0  0
  1  8  2  0  0  0  0
  1 17  1  0  0  0  0
  2  7  1  6  0  0  0
  2 15  1  0  0  0  0
  3  2  1  0  0  0  0
  3 22  2  0  0  0  0
  4  5  2  0  0  0  0
  5 25  1  0  0  0  0
  6  9  1  0  0  0  0
  6 13  2  0  0  0  0
  7 19  1  0  0  0  0
  8 20  1  0  0  0  0
  9  3  1  0  0  0  0
 10 15  1  0  0  0  0
 10 16  1  0  0  0  0
 11  1  1  0  0  0  0
 12 21  1  0  0  0  0
 13 18  1  0  0  0  0
 14 10  2  0  0  0  0
 15 21  1  1  0  0  0
 16  5  1  0  0  0  0
 17  7  2  0  0  0  0
 18 23  2  0  0  0  0
 19 14  1  0  0  0  0
 20 19  2  0  0  0  0
 22 12  1  0  0  0  0
 23 22  1  0  0  0  0
 25 24  1  1  0  0  0
 27 26  1  6  0  0  0
 27 25  1  0  0  0  0
 28 30  1  0  0  0  0
 28 27  1  0  0  0  0
 29 28  1  0  0  0  0
 31 28  1  0  0  0  0
M  END
>  <MODEL>
4

>  <REMARK>
 VINA RESULT:      -5.3      1.513      2.117
  Name = 
  3 active torsions:
  status: ('A' for Active; 'I' for Inactive)
    1  A    between atoms: C_1  and  C_19
    2  A    between atoms: C_9  and  C_22
    3  A    between atoms: C_19  and  C_22
                            x       y       z     vdW  Elec       q    Type
                         _______ _______ _______ _____ _____    ______ ____

>  <TORSDO>
F 3

$$$$
=
 OpenBabel11052422243D

 31 34  0  0  1  0  0  0  0  0999 V2000
  160.8310  203.8520  145.6150 C   0  0  0  0  0  0  0  0  0  0  0  0
  162.3610  205.4120  148.7330 C   0  0  1  0  0  3  0  0  0  0  0  0
  161.4410  205.1090  149.9150 C   0  0  0  0  0  0  0  0  0  0  0  0
  160.7220  210.3380  147.5110 O   0  0  0  0  0  0  0  0  0  0  0  0
  161.6000  210.4040  148.4130 C   0  0  0  0  0  0  0  0  0  0  0  0
  160.7880  202.8340  150.6560 C   0  0  0  0  0  3  0  0  0  0  0  0
  161.6740  205.2550  147.4020 C   0  0  0  0  0  0  0  0  0  0  0  0
  160.2700  204.9730  144.9970 C   0  0  0  0  0  3  0  0  0  0  0  0
  160.4560  203.9860  149.7700 C   0  0  0  0  0  2  0  0  0  0  0  0
  162.1640  207.9140  148.2990 C   0  0  0  0  0  0  0  0  0  0  0  0
  160.6480  202.2700  144.8900 Cl  0  0  0  0  0  0  0  0  0  0  0  0
  162.3910  207.0160  151.2140 C   0  0  0  0  0  2  0  0  0  0  0  0
  160.7440  202.9300  151.9820 C   0  0  0  0  0  3  0  0  0  0  0  0
  161.3260  207.6870  147.3270 N   0  0  0  0  0  0  0  0  0  0  0  0
  163.0480  206.7920  148.8180 C   0  0  1  0  0  3  0  0  0  0  0  0
  162.3470  209.2450  148.8020 N   0  0  0  0  0  2  0  0  0  0  0  0
  161.5300  203.9910  146.8180 C   0  0  0  0  0  3  0  0  0  0  0  0
  160.4580  204.1790  152.7110 C   0  0  0  0  0  3  0  0  0  0  0  0
  161.1270  206.3830  146.7690 C   0  0  0  0  0  0  0  0  0  0  0  0
  160.4190  206.2390  145.5710 C   0  0  0  0  0  3  0  0  0  0  0  0
  163.5550  207.0380  150.2340 C   0  0  0  0  0  2  0  0  0  0  0  0
  161.5610  205.7680  151.0950 C   0  0  0  0  0  0  0  0  0  0  0  0
  160.8040  205.4100  152.3160 C   0  0  0  0  0  3  0  0  0  0  0  0
  161.2060  211.7210  150.3480 F   0  0  0  0  0  0  0  0  0  0  0  0
  161.8320  211.7070  149.1140 C   0  0  2  0  0  3  0  0  0  0  0  0
  160.7370  213.9770  149.1520 C   0  0  0  0  0  1  0  0  0  0  0  0
  161.4300  212.9370  148.2850 C   0  0  1  0  0  3  0  0  0  0  0  0
  162.5550  213.5580  147.4420 C   0  0  0  0  0  0  0  0  0  0  0  0
  163.4100  212.5790  146.9650 F   0  0  0  0  0  0  0  0  0  0  0  0
  162.0250  214.2580  146.3740 F   0  0  0  0  0  0  0  0  0  0  0  0
  163.2790  214.4370  148.2260 F   0  0  0  0  0  0  0  0  0  0  0  0
  1 17  1  0  0  0  0
  2  7  1  6  0  0  0
  2 15  1  0  0  0  0
  2  3  1  0  0  0  0
  3 22  2  0  0  0  0
  4  5  2  0  0  0  0
  5 16  1  0  0  0  0
  5 25  1  0  0  0  0
  6 13  2  0  0  0  0
  8 20  1  0  0  0  0
  8  1  2  0  0  0  0
  9  3  1  0  0  0  0
  9  6  1  0  0  0  0
 10 16  1  0  0  0  0
 10 15  1  0  0  0  0
 11  1  1  0  0  0  0
 13 18  1  0  0  0  0
 14 10  2  0  0  0  0
 15 21  1  1  0  0  0
 17  7  2  0  0  0  0
 19 14  1  0  0  0  0
 19  7  1  0  0  0  0
 20 19  2  0  0  0  0
 21 12  1  0  0  0  0
 22 12  1  0  0  0  0
 22 23  1  0  0  0  0
 23 18  2  0  0  0  0
 25 24  1  1  0  0  0
 27 25  1  0  0  0  0
 27 26  1  1  0  0  0
 28 31  1  0  0  0  0
 28 27  1  0  0  0  0
 29 28  1  0  0  0  0
 30 28  1  0  0  0  0
M  END
>  <MODEL>
5

>  <REMARK>
 VINA RESULT:      -5.0      5.038      7.252
  Name = 
  3 active torsions:
  status: ('A' for Active; 'I' for Inactive)
    1  A    between atoms: C_1  and  C_19
    2  A    between atoms: C_9  and  C_22
    3  A    between atoms: C_19  and  C_22
                            x       y       z     vdW  Elec       q    Type
                         _______ _______ _______ _____ _____    ______ ____

>  <TORSDO>
F 3

$$$$
=
 OpenBabel11052422243D

 31 34  0  0  1  0  0  0  0  0999 V2000
  161.7220  206.2040  146.4530 C   0  0  0  0  0  0  0  0  0  0  0  0
  162.3180  205.2560  150.0930 C   0  0  1  0  0  3  0  0  0  0  0  0
  161.2590  204.2300  150.4940 C   0  0  0  0  0  0  0  0  0  0  0  0
  160.0810  209.7080  151.9950 O   0  0  0  0  0  0  0  0  0  0  0  0
  160.7430  209.1510  152.9120 C   0  0  0  0  0  0  0  0  0  0  0  0
  160.8970  202.0500  149.3710 C   0  0  0  0  0  3  0  0  0  0  0  0
  161.9390  206.0360  148.8610 C   0  0  0  0  0  0  0  0  0  0  0  0
  161.0960  207.4460  146.5950 C   0  0  0  0  0  3  0  0  0  0  0  0
  160.5390  203.4960  149.4010 C   0  0  0  0  0  2  0  0  0  0  0  0
  161.7590  207.3930  151.3590 C   0  0  0  0  0  0  0  0  0  0  0  0
  161.9700  205.5260  144.8590 Cl  0  0  0  0  0  0  0  0  0  0  0  0
  161.5810  204.7630  152.9110 C   0  0  0  0  0  2  0  0  0  0  0  0
  160.5840  201.2240  150.3660 C   0  0  0  0  0  3  0  0  0  0  0  0
  161.1770  207.8790  150.2980 N   0  0  0  0  0  0  0  0  0  0  0  0
  162.7150  206.2190  151.2320 C   0  0  1  0  0  3  0  0  0  0  0  0
  161.5990  208.0360  152.6310 N   0  0  0  0  0  2  0  0  0  0  0  0
  162.1410  205.4970  147.5850 C   0  0  0  0  0  3  0  0  0  0  0  0
  159.9420  201.6520  151.6220 C   0  0  0  0  0  3  0  0  0  0  0  0
  161.3280  207.2930  149.0000 C   0  0  0  0  0  0  0  0  0  0  0  0
  160.9010  207.9930  147.8660 C   0  0  0  0  0  3  0  0  0  0  0  0
  162.8890  205.4460  152.5340 C   0  0  0  0  0  2  0  0  0  0  0  0
  161.0290  203.9200  151.7960 C   0  0  0  0  0  0  0  0  0  0  0  0
  160.1300  202.8290  152.2330 C   0  0  0  0  0  3  0  0  0  0  0  0
  161.1180  210.9140  154.4550 F   0  0  0  0  0  0  0  0  0  0  0  0
  160.5970  209.6390  154.3190 C   0  0  2  0  0  3  0  0  0  0  0  0
  161.8950  209.4720  156.4750 C   0  0  0  0  0  1  0  0  0  0  0  0
  161.1980  208.6910  155.3700 C   0  0  1  0  0  3  0  0  0  0  0  0
  160.2310  207.6420  155.9380 C   0  0  0  0  0  0  0  0  0  0  0  0
  160.0890  206.5790  155.0620 F   0  0  0  0  0  0  0  0  0  0  0  0
  160.6930  207.1700  157.1520 F   0  0  0  0  0  0  0  0  0  0  0  0
  158.9930  208.2230  156.1360 F   0  0  0  0  0  0  0  0  0  0  0  0
  1  8  2  0  0  0  0
  1 17  1  0  0  0  0
  2  7  1  6  0  0  0
  2  3  1  0  0  0  0
  2 15  1  0  0  0  0
  3 22  2  0  0  0  0
  4  5  2  0  0  0  0
  5 25  1  0  0  0  0
  6  9  1  0  0  0  0
  6 13  2  0  0  0  0
  7 19  1  0  0  0  0
  8 20  1  0  0  0  0
  9  3  1  0  0  0  0
 10 16  1  0  0  0  0
 11  1  1  0  0  0  0
 13 18  1  0  0  0  0
 14 10  2  0  0  0  0
 15 10  1  0  0  0  0
 15 21  1  1  0  0  0
 16  5  1  0  0  0  0
 17  7  2  0  0  0  0
 18 23  2  0  0  0  0
 19 14  1  0  0  0  0
 20 19  2  0  0  0  0
 21 12  1  0  0  0  0
 22 23  1  0  0  0  0
 22 12  1  0  0  0  0
 25 24  1  6  0  0  0
 25 27  1  0  0  0  0
 27 28  1  0  0  0  0
 27 26  1  1  0  0  0
 28 31  1  0  0  0  0
 28 30  1  0  0  0  0
 29 28  1  0  0  0  0
M  END
>  <MODEL>
6

>  <REMARK>
 VINA RESULT:      -4.5      3.922      5.323
  Name = 
  3 active torsions:
  status: ('A' for Active; 'I' for Inactive)
    1  A    between atoms: C_1  and  C_19
    2  A    between atoms: C_9  and  C_22
    3  A    between atoms: C_19  and  C_22
                            x       y       z     vdW  Elec       q    Type
                         _______ _______ _______ _____ _____    ______ ____

>  <TORSDO>
F 3

$$$$
=
 OpenBabel11052422243D

 31 34  0  0  1  0  0  0  0  0999 V2000
  162.1690  212.5820  147.6600 C   0  0  0  0  0  0  0  0  0  0  0  0
  162.3430  209.7760  150.2280 C   0  0  1  0  0  3  0  0  0  0  0  0
  161.5910  208.5710  149.6640 C   0  0  0  0  0  0  0  0  0  0  0  0
  158.5460  211.8850  153.3230 O   0  0  0  0  0  0  0  0  0  0  0  0
  159.1650  210.9980  153.9700 C   0  0  0  0  0  0  0  0  0  0  0  0
  162.1240  207.4420  147.5220 C   0  0  0  0  0  3  0  0  0  0  0  0
  161.9780  211.0660  149.5410 C   0  0  0  0  0  0  0  0  0  0  0  0
  161.1800  213.3990  148.2160 C   0  0  0  0  0  3  0  0  0  0  0  0
  161.3440  208.5250  148.1840 C   0  0  0  0  0  2  0  0  0  0  0  0
  160.9360  210.6560  152.1590 C   0  0  0  0  0  0  0  0  0  0  0  0
  162.9010  213.0140  146.1300 Cl  0  0  0  0  0  0  0  0  0  0  0  0
  161.2840  207.6240  151.9520 C   0  0  0  0  0  2  0  0  0  0  0  0
  161.8990  206.1550  147.7730 C   0  0  0  0  0  3  0  0  0  0  0  0
  160.4410  211.5820  151.3870 N   0  0  0  0  0  0  0  0  0  0  0  0
  162.2110  209.9320  151.7570 C   0  0  1  0  0  3  0  0  0  0  0  0
  160.3560  210.3980  153.4460 N   0  0  0  0  0  2  0  0  0  0  0  0
  162.5670  211.4150  148.3190 C   0  0  0  0  0  3  0  0  0  0  0  0
  160.9370  205.6660  148.7780 C   0  0  0  0  0  3  0  0  0  0  0  0
  160.9990  211.8990  150.1080 C   0  0  0  0  0  0  0  0  0  0  0  0
  160.5970  213.0600  149.4400 C   0  0  0  0  0  3  0  0  0  0  0  0
  162.3680  208.5760  152.4370 C   0  0  0  0  0  2  0  0  0  0  0  0
  161.2310  207.5270  150.4530 C   0  0  0  0  0  0  0  0  0  0  0  0
  160.6410  206.2720  149.9350 C   0  0  0  0  0  3  0  0  0  0  0  0
  158.1530  211.6120  156.0280 F   0  0  0  0  0  0  0  0  0  0  0  0
  158.6210  210.5400  155.2880 C   0  0  2  0  0  3  0  0  0  0  0  0
  159.8350  208.3390  155.4720 C   0  0  0  0  0  1  0  0  0  0  0  0
  159.6120  209.7020  156.1100 C   0  0  1  0  0  3  0  0  0  0  0  0
  160.9400  210.3970  156.4450 C   0  0  0  0  0  0  0  0  0  0  0  0
  161.6410  210.7020  155.2910 F   0  0  0  0  0  0  0  0  0  0  0  0
  160.7090  211.5600  157.1560 F   0  0  0  0  0  0  0  0  0  0  0  0
  161.7110  209.5540  157.2240 F   0  0  0  0  0  0  0  0  0  0  0  0
  1  8  2  0  0  0  0
  1 17  1  0  0  0  0
  2  7  1  6  0  0  0
  2 15  1  0  0  0  0
  3  2  1  0  0  0  0
  3 22  2  0  0  0  0
  4  5  2  0  0  0  0
  5 25  1  0  0  0  0
  6 13  2  0  0  0  0
  6  9  1  0  0  0  0
  7 19  1  0  0  0  0
  8 20  1  0  0  0  0
  9  3  1  0  0  0  0
 10 16  1  0  0  0  0
 11  1  1  0  0  0  0
 12 21  1  0  0  0  0
 13 18  1  0  0  0  0
 14 10  2  0  0  0  0
 15 10  1  0  0  0  0
 15 21  1  1  0  0  0
 16  5  1  0  0  0  0
 17  7  2  0  0  0  0
 18 23  2  0  0  0  0
 19 14  1  0  0  0  0
 20 19  2  0  0  0  0
 22 12  1  0  0  0  0
 23 22  1  0  0  0  0
 25 24  1  1  0  0  0
 25 27  1  0  0  0  0
 27 26  1  6  0  0  0
 27 28  1  0  0  0  0
 28 30  1  0  0  0  0
 28 31  1  0  0  0  0
 29 28  1  0  0  0  0
M  END
>  <MODEL>
7

>  <REMARK>
 VINA RESULT:      -4.4      1.651      2.574
  Name = 
  3 active torsions:
  status: ('A' for Active; 'I' for Inactive)
    1  A    between atoms: C_1  and  C_19
    2  A    between atoms: C_9  and  C_22
    3  A    between atoms: C_19  and  C_22
                            x       y       z     vdW  Elec       q    Type
                         _______ _______ _______ _____ _____    ______ ____

>  <TORSDO>
F 3

$$$$
=
 OpenBabel11052422243D

 31 34  0  0  1  0  0  0  0  0999 V2000
  161.8000  206.2020  146.5490 C   0  0  0  0  0  0  0  0  0  0  0  0
  162.3310  205.3360  150.2190 C   0  0  1  0  0  3  0  0  0  0  0  0
  161.2610  204.3240  150.6260 C   0  0  0  0  0  0  0  0  0  0  0  0
  160.0800  209.8400  151.9800 O   0  0  0  0  0  0  0  0  0  0  0  0
  160.7240  209.3010  152.9200 C   0  0  0  0  0  0  0  0  0  0  0  0
  160.9090  202.1200  149.5470 C   0  0  0  0  0  3  0  0  0  0  0  0
  161.9750  206.0890  148.9640 C   0  0  0  0  0  0  0  0  0  0  0  0
  161.1770  207.4490  146.6510 C   0  0  0  0  0  3  0  0  0  0  0  0
  160.5570  203.5680  149.5380 C   0  0  0  0  0  2  0  0  0  0  0  0
  161.7590  207.5040  151.4260 C   0  0  0  0  0  0  0  0  0  0  0  0
  162.0720  205.4860  144.9750 Cl  0  0  0  0  0  0  0  0  0  0  0  0
  161.5440  204.9120  153.0350 C   0  0  0  0  0  2  0  0  0  0  0  0
  160.5750  201.3180  150.5560 C   0  0  0  0  0  3  0  0  0  0  0  0
  161.1980  207.9680  150.3440 N   0  0  0  0  0  0  0  0  0  0  0  0
  162.7120  206.3240  151.3420 C   0  0  1  0  0  3  0  0  0  0  0  0
  161.5800  208.1770  152.6800 N   0  0  0  0  0  2  0  0  0  0  0  0
  162.1970  205.5200  147.7030 C   0  0  0  0  0  3  0  0  0  0  0  0
  159.9150  201.7780  151.7900 C   0  0  0  0  0  3  0  0  0  0  0  0
  161.3680  207.3520  149.0630 C   0  0  0  0  0  0  0  0  0  0  0  0
  160.9630  208.0260  147.9070 C   0  0  0  0  0  3  0  0  0  0  0  0
  162.8610  205.5800  152.6640 C   0  0  0  0  0  2  0  0  0  0  0  0
  161.0080  204.0450  151.9300 C   0  0  0  0  0  0  0  0  0  0  0  0
  160.0970  202.9680  152.3770 C   0  0  0  0  0  3  0  0  0  0  0  0
  160.5580  208.7870  155.2320 F   0  0  0  0  0  0  0  0  0  0  0  0
  160.5570  209.8230  154.3140 C   0  0  2  0  0  3  0  0  0  0  0  0
  158.5510  210.3270  155.7550 C   0  0  0  0  0  1  0  0  0  0  0  0
  159.3170  210.7120  154.4980 C   0  0  1  0  0  3  0  0  0  0  0  0
  159.5780  212.2250  154.4330 C   0  0  0  0  0  0  0  0  0  0  0  0
  160.1310  212.5760  153.2130 F   0  0  0  0  0  0  0  0  0  0  0  0
  158.3990  212.9240  154.6140 F   0  0  0  0  0  0  0  0  0  0  0  0
  160.4570  212.5790  155.4380 F   0  0  0  0  0  0  0  0  0  0  0  0
  1  8  2  0  0  0  0
  1 17  1  0  0  0  0
  2  7  1  6  0  0  0
  2  3  1  0  0  0  0
  2 15  1  0  0  0  0
  3 22  2  0  0  0  0
  4  5  2  0  0  0  0
  5 25  1  0  0  0  0
  6 13  2  0  0  0  0
  7 19  1  0  0  0  0
  8 20  1  0  0  0  0
  9  6  1  0  0  0  0
  9  3  1  0  0  0  0
 10 16  1  0  0  0  0
 11  1  1  0  0  0  0
 13 18  1  0  0  0  0
 14 10  2  0  0  0  0
 15 10  1  0  0  0  0
 15 21  1  1  0  0  0
 16  5  1  0  0  0  0
 17  7  2  0  0  0  0
 18 23  2  0  0  0  0
 19 14  1  0  0  0  0
 20 19  2  0  0  0  0
 21 12  1  0  0  0  0
 22 23  1  0  0  0  0
 22 12  1  0  0  0  0
 25 27  1  0  0  0  0
 25 24  1  1  0  0  0
 27 26  1  1  0  0  0
 28 27  1  0  0  0  0
 28 30  1  0  0  0  0
 28 31  1  0  0  0  0
 29 28  1  0  0  0  0
M  END
>  <MODEL>
8

>  <REMARK>
 VINA RESULT:      -3.7      3.272      4.655
  Name = 
  3 active torsions:
  status: ('A' for Active; 'I' for Inactive)
    1  A    between atoms: C_1  and  C_19
    2  A    between atoms: C_9  and  C_22
    3  A    between atoms: C_19  and  C_22
                            x       y       z     vdW  Elec       q    Type
                         _______ _______ _______ _____ _____    ______ ____

>  <TORSDO>
F 3

$$$$
=
 OpenBabel11052422243D

 31 34  0  0  1  0  0  0  0  0999 V2000
  160.5280  209.5210  155.6120 C   0  0  0  0  0  0  0  0  0  0  0  0
  162.3500  208.1750  152.5510 C   0  0  1  0  0  3  0  0  0  0  0  0
  161.7610  208.8510  151.3140 C   0  0  0  0  0  0  0  0  0  0  0  0
  159.6290  203.5880  152.5010 O   0  0  0  0  0  0  0  0  0  0  0  0
  160.6440  203.4770  151.7630 C   0  0  0  0  0  0  0  0  0  0  0  0
  161.6960  211.3000  150.9300 C   0  0  0  0  0  3  0  0  0  0  0  0
  161.4470  208.2660  153.7530 C   0  0  0  0  0  0  0  0  0  0  0  0
  159.6590  208.4640  155.8980 C   0  0  0  0  0  3  0  0  0  0  0  0
  160.9870  210.1220  151.5080 C   0  0  0  0  0  2  0  0  0  0  0  0
  161.6170  205.7380  152.4510 C   0  0  0  0  0  0  0  0  0  0  0  0
  160.4920  210.9720  156.5900 Cl  0  0  0  0  0  0  0  0  0  0  0  0
  162.5910  207.0110  149.8460 C   0  0  0  0  0  2  0  0  0  0  0  0
  161.9060  211.4250  149.6230 C   0  0  0  0  0  3  0  0  0  0  0  0
  160.6540  205.9850  153.2950 N   0  0  0  0  0  0  0  0  0  0  0  0
  162.7770  206.7110  152.3160 C   0  0  1  0  0  3  0  0  0  0  0  0
  161.6530  204.4950  151.7380 N   0  0  0  0  0  2  0  0  0  0  0  0
  161.4200  209.4240  154.5400 C   0  0  0  0  0  3  0  0  0  0  0  0
  161.5520  210.3970  148.6280 C   0  0  0  0  0  3  0  0  0  0  0  0
  160.5860  207.1970  154.0540 C   0  0  0  0  0  0  0  0  0  0  0  0
  159.6890  207.3010  155.1220 C   0  0  0  0  0  3  0  0  0  0  0  0
  163.5080  206.5860  150.9840 C   0  0  0  0  0  2  0  0  0  0  0  0
  161.9960  208.3740  150.0650 C   0  0  0  0  0  0  0  0  0  0  0  0
  161.5810  209.0730  148.8280 C   0  0  0  0  0  3  0  0  0  0  0  0
  162.0170  201.6920  151.0130 F   0  0  0  0  0  0  0  0  0  0  0  0
  160.7730  202.2810  150.8710 C   0  0  2  0  0  3  0  0  0  0  0  0
  161.5900  203.4030  148.7660 C   0  0  0  0  0  1  0  0  0  0  0  0
  160.4770  202.5760  149.3920 C   0  0  1  0  0  3  0  0  0  0  0  0
  160.1280  201.3500  148.5340 C   0  0  0  0  0  0  0  0  0  0  0  0
  160.0610  201.6900  147.1940 F   0  0  0  0  0  0  0  0  0  0  0  0
  161.0770  200.3590  148.7040 F   0  0  0  0  0  0  0  0  0  0  0  0
  158.9000  200.8530  148.9290 F   0  0  0  0  0  0  0  0  0  0  0  0
  1  8  1  0  0  0  0
  1 11  1  0  0  0  0
  2  3  1  6  0  0  0
  2  7  1  0  0  0  0
  3  9  1  0  0  0  0
  5  4  2  0  0  0  0
  6  9  1  0  0  0  0
  7 19  2  0  0  0  0
  7 17  1  0  0  0  0
 10 14  2  0  0  0  0
 12 22  1  0  0  0  0
 12 21  1  0  0  0  0
 13  6  2  0  0  0  0
 14 19  1  0  0  0  0
 15 21  1  6  0  0  0
 15 10  1  0  0  0  0
 15  2  1  0  0  0  0
 16  5  1  0  0  0  0
 16 10  1  0  0  0  0
 17  1  2  0  0  0  0
 18 23  2  0  0  0  0
 18 13  1  0  0  0  0
 19 20  1  0  0  0  0
 20  8  2  0  0  0  0
 22  3  2  0  0  0  0
 23 22  1  0  0  0  0
 25 24  1  6  0  0  0
 25  5  1  0  0  0  0
 27 26  1  6  0  0  0
 27 25  1  0  0  0  0
 28 30  1  0  0  0  0
 28 31  1  0  0  0  0
 28 27  1  0  0  0  0
 29 28  1  0  0  0  0
M  END
>  <MODEL>
9

>  <REMARK>
 VINA RESULT:      -3.5      5.962      8.484
  Name = 
  3 active torsions:
  status: ('A' for Active; 'I' for Inactive)
    1  A    between atoms: C_1  and  C_19
    2  A    between atoms: C_9  and  C_22
    3  A    between atoms: C_19  and  C_22
                            x       y       z     vdW  Elec       q    Type
                         _______ _______ _______ _____ _____    ______ ____

>  <TORSDO>
F 3

$$$$
