=
 OpenBabel11062410323D

 43 48  0  0  1  0  0  0  0  0999 V2000
  158.4600  212.7790  154.6010 C   0  0  1  0  0  0  0  0  0  0  0  0
  161.0750  206.3910  153.3880 C   0  0  0  0  0  0  0  0  0  0  0  0
  160.3660  211.1790  154.8170 N   0  0  0  0  0  0  0  0  0  0  0  0
  156.2540  213.7370  155.3440 C   0  0  0  0  0  2  0  0  0  0  0  0
  160.0030  211.2560  152.3760 N   0  0  0  0  0  2  0  0  0  0  0  0
  160.9710  208.4560  154.6830 C   0  0  0  0  0  0  0  0  0  0  0  0
  160.7980  207.0040  152.2320 C   0  0  0  0  0  3  0  0  0  0  0  0
  155.6930  212.6350  156.1950 C   0  0  0  0  0  0  0  0  0  0  0  0
  161.2610  204.9190  153.4000 C   0  0  0  0  0  1  0  0  0  0  0  0
  160.6230  209.2010  153.4480 C   0  0  0  0  0  0  0  0  0  0  0  0
  161.1780  207.1420  154.6480 C   0  0  0  0  0  3  0  0  0  0  0  0
  160.6000  208.4910  152.1170 C   0  0  0  0  0  2  0  0  0  0  0  0
  160.0240  212.7090  152.4080 C   0  0  2  0  0  3  0  0  0  0  0  0
  157.1500  210.7350  155.2400 C   0  0  0  0  0  2  0  0  0  0  0  0
  160.3660  210.5150  153.5340 C   0  0  0  0  0  0  0  0  0  0  0  0
  157.7680  213.8210  155.4720 C   0  0  0  0  0  2  0  0  0  0  0  0
  160.7660  210.4730  156.0010 C   0  0  0  0  0  3  0  0  0  0  0  0
  159.9300  212.5730  155.0020 C   0  0  1  0  0  3  0  0  0  0  0  0
  157.6350  211.5930  154.0770 C   0  0  0  0  0  2  0  0  0  0  0  0
  159.5700  213.3700  153.7300 C   0  0  2  0  0  3  0  0  0  0  0  0
  156.0640  211.3420  156.1020 C   0  0  0  0  0  3  0  0  0  0  0  0
  161.0590  209.1740  155.9570 C   0  0  0  0  0  3  0  0  0  0  0  0
  153.9790  214.1380  156.8020 F   0  0  0  0  0  0  0  0  0  0  0  0
  154.6570  213.0040  157.2010 C   0  0  0  0  0  2  0  0  0  0  0  0
  159.4350  213.3280  151.1330 C   0  0  1  0  0  3  0  0  0  0  0  0
  161.0650  214.4520  149.8740 O   0  0  0  0  0  0  0  0  0  0  0  0
  160.4110  213.4300  150.0010 C   0  0  0  0  0  0  0  0  0  0  0  0
  160.5970  212.3060  149.0250 C   0  0  0  0  0  2  0  0  0  0  0  0
  161.7960  211.5370  149.3410 N   0  0  0  0  0  0  0  0  0  0  0  0
  162.6660  211.5750  148.1770 C   0  0  0  0  0  2  0  0  0  0  0  0
  162.2200  212.6730  147.2360 C   0  0  0  0  0  1  0  0  0  0  0  0
  161.4690  210.1470  149.6820 C   0  0  0  0  0  2  0  0  0  0  0  0
  162.2340  209.0960  148.8760 C   0  0  1  0  0  3  0  0  0  0  0  0
  163.0350  208.2370  149.8350 C   0  0  0  0  0  1  0  0  0  0  0  0
  161.2590  208.2210  148.0930 C   0  0  0  0  0  2  0  0  0  0  0  0
  161.7060  206.7690  148.0570 C   0  0  2  0  0  3  0  0  0  0  0  0
  161.0830  204.4450  148.7830 C   0  0  0  0  0  2  0  0  0  0  0  0
  162.7410  204.6940  146.6010 S   0  0  0  0  0  0  0  0  0  0  0  0
  161.3120  203.8760  147.3890 C   0  0  0  0  0  2  0  0  0  0  0  0
  161.9500  206.3310  146.6200 C   0  0  0  0  0  2  0  0  0  0  0  0
  160.6300  205.8970  148.6950 C   0  0  0  0  0  2  0  0  0  0  0  0
  158.2720  212.6710  150.7340 O   0  0  0  0  0  0  0  0  0  0  0  0
  157.3890  213.6850  150.3700 C   0  0  0  0  0  1  0  0  0  0  0  0
  1 19  1  6  0  0  0
  1 18  1  0  0  0  0
  1 16  1  0  0  0  0
  2  9  1  0  0  0  0
  2 11  1  0  0  0  0
  3 17  1  0  0  0  0
  4 16  1  0  0  0  0
  4  8  1  0  0  0  0
  5 13  1  0  0  0  0
  5 15  1  0  0  0  0
  6 22  1  0  0  0  0
  7  2  2  0  0  0  0
  8 24  1  0  0  0  0
 10 15  2  0  0  0  0
 10  6  1  0  0  0  0
 11  6  2  0  0  0  0
 12  7  1  0  0  0  0
 12 10  1  0  0  0  0
 13 25  1  6  0  0  0
 13 20  1  0  0  0  0
 14 21  1  0  0  0  0
 15  3  1  0  0  0  0
 18  3  1  6  0  0  0
 19 14  1  0  0  0  0
 20  1  1  0  0  0  0
 20 18  1  0  0  0  0
 21  8  2  0  0  0  0
 22 17  2  0  0  0  0
 23 24  1  0  0  0  0
 26 27  2  0  0  0  0
 27 25  1  0  0  0  0
 28 29  1  0  0  0  0
 28 27  1  0  0  0  0
 29 32  1  0  0  0  0
 30 29  1  0  0  0  0
 31 30  1  0  0  0  0
 33 32  1  0  0  0  0
 33 34  1  0  0  0  0
 35 33  1  0  0  0  0
 36 35  1  0  0  0  0
 36 41  1  0  0  0  0
 38 40  1  0  0  0  0
 38 39  1  0  0  0  0
 39 37  1  0  0  0  0
 40 36  1  0  0  0  0
 41 37  1  0  0  0  0
 42 25  1  0  0  0  0
 43 42  1  0  0  0  0
M  END
>  <MODEL>
1

>  <REMARK>
 VINA RESULT:      -5.6      0.000      0.000
  Name = 
  11 active torsions:
  status: ('A' for Active; 'I' for Inactive)
    1  A    between atoms: C_2  and  C_6
    2  A    between atoms: C_2  and  O_12
    3  A    between atoms: C_2  and  C_27
    4  A    between atoms: N_4  and  C_7
    5  A    between atoms: N_4  and  C_10
    6  A    between atoms: N_4  and  C_15
    7  A    between atoms: C_6  and  C_7
    8  A    between atoms: C_11  and  C_14
    9  A    between atoms: C_14  and  C_22
   10  A    between atoms: C_15  and  C_22
   11  A    between atoms: C_19  and  C_37
                            x       y       z     vdW  Elec       q    Type
                         _______ _______ _______ _____ _____    ______ ____

>  <TORSDO>
F 11

$$$$
=
 OpenBabel11062410323D

 43 48  0  0  1  0  0  0  0  0999 V2000
  160.8510  210.8440  153.3280 C   0  0  1  0  0  0  0  0  0  0  0  0
  155.3210  213.2500  156.9000 C   0  0  0  0  0  0  0  0  0  0  0  0
  159.9640  212.0320  155.3380 N   0  0  0  0  0  0  0  0  0  0  0  0
  161.5740  210.7690  150.9180 C   0  0  0  0  0  2  0  0  0  0  0  0
  158.8130  209.8510  155.4510 N   0  0  0  0  0  2  0  0  0  0  0  0
  157.6830  213.3320  156.2910 C   0  0  2  0  0  3  0  0  0  0  0  0
  155.2510  211.9200  156.7800 C   0  0  0  0  0  3  0  0  0  0  0  0
  160.9110  211.9870  150.3420 C   0  0  0  0  0  0  0  0  0  0  0  0
  154.1000  214.0110  157.2610 C   0  0  0  0  0  1  0  0  0  0  0  0
  157.6740  211.8600  156.1000 C   0  0  0  0  0  0  0  0  0  0  0  0
  156.5780  213.9750  156.6620 C   0  0  0  0  0  3  0  0  0  0  0  0
  156.4350  211.0630  156.4250 C   0  0  0  0  0  3  0  0  0  0  0  0
  160.0810  209.1610  155.2860 C   0  0  2  0  0  3  0  0  0  0  0  0
  159.1260  212.2640  152.1820 C   0  0  0  0  0  2  0  0  0  0  0  0
  158.7920  211.2550  155.6700 C   0  0  0  0  0  0  0  0  0  0  0  0
  162.0140  211.0030  152.3560 C   0  0  0  0  0  2  0  0  0  0  0  0
  159.9920  213.4460  155.5850 C   0  0  0  0  0  3  0  0  0  0  0  0
  161.1600  211.4530  154.7060 C   0  0  1  0  0  3  0  0  0  0  0  0
  159.4180  210.8900  152.7740 C   0  0  0  0  0  2  0  0  0  0  0  0
  161.1760  209.9220  154.5040 C   0  0  2  0  0  3  0  0  0  0  0  0
  159.8310  212.5880  150.8820 C   0  0  0  0  0  3  0  0  0  0  0  0
  158.9150  214.0840  156.0390 C   0  0  0  0  0  3  0  0  0  0  0  0
  162.5360  211.7770  148.6460 F   0  0  0  0  0  0  0  0  0  0  0  0
  161.4890  212.5580  149.0930 C   0  0  0  0  0  2  0  0  0  0  0  0
  159.8960  207.6910  154.8840 C   0  0  1  0  0  3  0  0  0  0  0  0
  161.8440  206.5140  154.3100 O   0  0  0  0  0  0  0  0  0  0  0  0
  160.9170  207.1970  153.9040 C   0  0  0  0  0  0  0  0  0  0  0  0
  160.8230  207.5260  152.4440 C   0  0  0  0  0  2  0  0  0  0  0  0
  161.6530  206.6230  151.6540 N   0  0  0  0  0  0  0  0  0  0  0  0
  162.4660  207.4350  150.7620 C   0  0  0  0  0  2  0  0  0  0  0  0
  161.9210  207.3540  149.3520 C   0  0  0  0  0  1  0  0  0  0  0  0
  160.8370  205.6830  150.8770 C   0  0  0  0  0  2  0  0  0  0  0  0
  161.3130  204.2300  150.9290 C   0  0  1  0  0  3  0  0  0  0  0  0
  161.1610  203.7200  152.3480 C   0  0  0  0  0  1  0  0  0  0  0  0
  160.4820  203.3700  149.9800 C   0  0  0  0  0  2  0  0  0  0  0  0
  161.1750  203.1730  148.6430 C   0  0  2  0  0  3  0  0  0  0  0  0
  161.1620  201.7870  146.5450 C   0  0  0  0  0  2  0  0  0  0  0  0
  162.2550  204.3080  146.3970 S   0  0  0  0  0  0  0  0  0  0  0  0
  161.1980  203.0190  145.6520 C   0  0  0  0  0  2  0  0  0  0  0  0
  161.1940  204.4800  147.8630 C   0  0  0  0  0  2  0  0  0  0  0  0
  160.4370  202.0990  147.8490 C   0  0  0  0  0  2  0  0  0  0  0  0
  159.8280  206.8590  155.9990 O   0  0  0  0  0  0  0  0  0  0  0  0
  160.6340  207.4700  156.9580 C   0  0  0  0  0  1  0  0  0  0  0  0
  1 16  1  6  0  0  0
  1 20  1  0  0  0  0
  1 18  1  0  0  0  0
  2  9  1  0  0  0  0
  3 17  1  0  0  0  0
  3 15  1  0  0  0  0
  4 16  1  0  0  0  0
  5 15  1  0  0  0  0
  6 22  1  6  0  0  0
  6 11  1  0  0  0  0
  7  2  1  0  0  0  0
  8 21  2  0  0  0  0
  8  4  1  0  0  0  0
 10  6  1  0  0  0  0
 10 12  1  0  0  0  0
 11  2  2  0  0  0  0
 12  7  2  0  0  0  0
 13 25  1  6  0  0  0
 13  5  1  0  0  0  0
 14 19  1  0  0  0  0
 15 10  2  0  0  0  0
 17 22  2  0  0  0  0
 18  3  1  1  0  0  0
 19  1  1  0  0  0  0
 20 18  1  0  0  0  0
 20 13  1  0  0  0  0
 21 14  1  0  0  0  0
 23 24  1  0  0  0  0
 24  8  1  0  0  0  0
 25 42  1  0  0  0  0
 27 26  2  0  0  0  0
 27 25  1  0  0  0  0
 28 27  1  0  0  0  0
 29 28  1  0  0  0  0
 30 29  1  0  0  0  0
 31 30  1  0  0  0  0
 32 33  1  0  0  0  0
 32 29  1  0  0  0  0
 33 34  1  0  0  0  0
 35 33  1  0  0  0  0
 36 35  1  0  0  0  0
 37 41  1  0  0  0  0
 38 40  1  0  0  0  0
 39 38  1  0  0  0  0
 39 37  1  0  0  0  0
 40 36  1  0  0  0  0
 41 36  1  0  0  0  0
 42 43  1  0  0  0  0
M  END
>  <MODEL>
2

>  <REMARK>
 VINA RESULT:      -5.4      3.074      6.283
  Name = 
  11 active torsions:
  status: ('A' for Active; 'I' for Inactive)
    1  A    between atoms: C_2  and  C_6
    2  A    between atoms: C_2  and  O_12
    3  A    between atoms: C_2  and  C_27
    4  A    between atoms: N_4  and  C_7
    5  A    between atoms: N_4  and  C_10
    6  A    between atoms: N_4  and  C_15
    7  A    between atoms: C_6  and  C_7
    8  A    between atoms: C_11  and  C_14
    9  A    between atoms: C_14  and  C_22
   10  A    between atoms: C_15  and  C_22
   11  A    between atoms: C_19  and  C_37
                            x       y       z     vdW  Elec       q    Type
                         _______ _______ _______ _____ _____    ______ ____

>  <TORSDO>
F 11

$$$$
=
 OpenBabel11062410323D

 43 48  0  0  1  0  0  0  0  0999 V2000
  158.9580  212.2830  154.1150 C   0  0  1  0  0  0  0  0  0  0  0  0
  161.1050  205.7970  152.5490 C   0  0  0  0  0  0  0  0  0  0  0  0
  160.7340  210.5320  154.2580 N   0  0  0  0  0  0  0  0  0  0  0  0
  156.8180  213.3590  154.8870 C   0  0  0  0  0  2  0  0  0  0  0  0
  160.4200  210.7820  151.8220 N   0  0  0  0  0  2  0  0  0  0  0  0
  161.1340  207.7840  153.9660 C   0  0  0  0  0  0  0  0  0  0  0  0
  160.8950  206.4980  151.4290 C   0  0  0  0  0  3  0  0  0  0  0  0
  156.1600  212.2550  155.6620 C   0  0  0  0  0  0  0  0  0  0  0  0
  161.1790  204.3180  152.4740 C   0  0  0  0  0  1  0  0  0  0  0  0
  160.8650  208.6260  152.7740 C   0  0  0  0  0  0  0  0  0  0  0  0
  161.2420  206.4620  153.8530 C   0  0  0  0  0  3  0  0  0  0  0  0
  160.8110  208.0000  151.4020 C   0  0  0  0  0  2  0  0  0  0  0  0
  160.5500  212.2250  151.9420 C   0  0  2  0  0  3  0  0  0  0  0  0
  157.4860  210.3100  154.6120 C   0  0  0  0  0  2  0  0  0  0  0  0
  160.7060  209.9480  152.9370 C   0  0  0  0  0  0  0  0  0  0  0  0
  158.3310  213.3210  155.0390 C   0  0  0  0  0  2  0  0  0  0  0  0
  161.0590  209.7280  155.4010 C   0  0  0  0  0  3  0  0  0  0  0  0
  160.4010  211.9420  154.5220 C   0  0  1  0  0  3  0  0  0  0  0  0
  158.0550  211.1960  153.5090 C   0  0  0  0  0  2  0  0  0  0  0  0
  160.1240  212.8380  153.2960 C   0  0  2  0  0  3  0  0  0  0  0  0
  156.4340  210.9450  155.4950 C   0  0  0  0  0  3  0  0  0  0  0  0
  161.2540  208.4160  155.2830 C   0  0  0  0  0  3  0  0  0  0  0  0
  154.6740  213.9180  156.4300 F   0  0  0  0  0  0  0  0  0  0  0  0
  155.1380  212.6410  156.6760 C   0  0  0  0  0  2  0  0  0  0  0  0
  160.0310  212.9620  150.7000 C   0  0  1  0  0  3  0  0  0  0  0  0
  161.4210  211.7330  149.2630 O   0  0  0  0  0  0  0  0  0  0  0  0
  160.9130  212.8170  149.4960 C   0  0  0  0  0  0  0  0  0  0  0  0
  161.1820  213.9750  148.5820 C   0  0  0  0  0  2  0  0  0  0  0  0
  160.7660  213.6660  147.2180 N   0  0  0  0  0  0  0  0  0  0  0  0
  161.5900  214.4530  146.3150 C   0  0  0  0  0  2  0  0  0  0  0  0
  162.5720  213.5530  145.5960 C   0  0  0  0  0  1  0  0  0  0  0  0
  159.3470  213.9750  147.0050 C   0  0  0  0  0  2  0  0  0  0  0  0
  158.6530  213.1000  145.9600 C   0  0  1  0  0  3  0  0  0  0  0  0
  157.3930  212.5200  146.5720 C   0  0  0  0  0  1  0  0  0  0  0  0
  158.2930  213.9330  144.7320 C   0  0  0  0  0  2  0  0  0  0  0  0
  159.2370  213.6670  143.5720 C   0  0  2  0  0  3  0  0  0  0  0  0
  160.6980  211.9140  142.5170 C   0  0  0  0  0  2  0  0  0  0  0  0
  159.7640  213.9340  140.8980 S   0  0  0  0  0  0  0  0  0  0  0  0
  160.1040  212.1560  141.1360 C   0  0  0  0  0  2  0  0  0  0  0  0
  158.5520  213.9910  142.2530 C   0  0  0  0  0  2  0  0  0  0  0  0
  159.6620  212.2020  143.5970 C   0  0  0  0  0  2  0  0  0  0  0  0
  158.7170  212.6050  150.4040 O   0  0  0  0  0  0  0  0  0  0  0  0
  157.9790  213.7780  150.5530 C   0  0  0  0  0  1  0  0  0  0  0  0
  1 19  1  6  0  0  0
  1 18  1  0  0  0  0
  1 16  1  0  0  0  0
  2 11  1  0  0  0  0
  3 17  1  0  0  0  0
  4 16  1  0  0  0  0
  4  8  1  0  0  0  0
  5 13  1  0  0  0  0
  5 15  1  0  0  0  0
  6 22  1  0  0  0  0
  7  2  2  0  0  0  0
  8 24  1  0  0  0  0
  9  2  1  0  0  0  0
 10 15  2  0  0  0  0
 10  6  1  0  0  0  0
 11  6  2  0  0  0  0
 12  7  1  0  0  0  0
 12 10  1  0  0  0  0
 13 25  1  6  0  0  0
 13 20  1  0  0  0  0
 14 21  1  0  0  0  0
 15  3  1  0  0  0  0
 18  3  1  6  0  0  0
 19 14  1  0  0  0  0
 20  1  1  0  0  0  0
 20 18  1  0  0  0  0
 21  8  2  0  0  0  0
 22 17  2  0  0  0  0
 23 24  1  0  0  0  0
 26 27  2  0  0  0  0
 27 25  1  0  0  0  0
 28 27  1  0  0  0  0
 29 28  1  0  0  0  0
 30 29  1  0  0  0  0
 31 30  1  0  0  0  0
 32 29  1  0  0  0  0
 33 34  1  0  0  0  0
 33 32  1  0  0  0  0
 35 33  1  0  0  0  0
 36 41  1  0  0  0  0
 36 35  1  0  0  0  0
 37 41  1  0  0  0  0
 38 39  1  0  0  0  0
 38 40  1  0  0  0  0
 39 37  1  0  0  0  0
 40 36  1  0  0  0  0
 42 43  1  0  0  0  0
 42 25  1  0  0  0  0
M  END
>  <MODEL>
3

>  <REMARK>
 VINA RESULT:      -5.3      2.998      4.308
  Name = 
  11 active torsions:
  status: ('A' for Active; 'I' for Inactive)
    1  A    between atoms: C_2  and  C_6
    2  A    between atoms: C_2  and  O_12
    3  A    between atoms: C_2  and  C_27
    4  A    between atoms: N_4  and  C_7
    5  A    between atoms: N_4  and  C_10
    6  A    between atoms: N_4  and  C_15
    7  A    between atoms: C_6  and  C_7
    8  A    between atoms: C_11  and  C_14
    9  A    between atoms: C_14  and  C_22
   10  A    between atoms: C_15  and  C_22
   11  A    between atoms: C_19  and  C_37
                            x       y       z     vdW  Elec       q    Type
                         _______ _______ _______ _____ _____    ______ ____

>  <TORSDO>
F 11

$$$$
=
 OpenBabel11062410323D

 43 48  0  0  1  0  0  0  0  0999 V2000
  161.0400  210.5460  153.4360 C   0  0  1  0  0  0  0  0  0  0  0  0
  155.5300  213.2860  156.7900 C   0  0  0  0  0  0  0  0  0  0  0  0
  160.1510  211.8090  155.3990 N   0  0  0  0  0  0  0  0  0  0  0  0
  161.8350  210.3960  151.0520 C   0  0  0  0  0  2  0  0  0  0  0  0
  158.8860  209.6910  155.5050 N   0  0  0  0  0  2  0  0  0  0  0  0
  157.9100  213.2370  156.2570 C   0  0  2  0  0  3  0  0  0  0  0  0
  155.3950  211.9600  156.6860 C   0  0  0  0  0  3  0  0  0  0  0  0
  161.2550  211.6360  150.4380 C   0  0  0  0  0  0  0  0  0  0  0  0
  154.3380  214.1130  157.1000 C   0  0  0  0  0  1  0  0  0  0  0  0
  157.8330  211.7660  156.0880 C   0  0  0  0  0  0  0  0  0  0  0  0
  156.8290  213.9420  156.5830 C   0  0  0  0  0  3  0  0  0  0  0  0
  156.5440  211.0370  156.3820 C   0  0  0  0  0  3  0  0  0  0  0  0
  160.1220  208.9340  155.3900 C   0  0  2  0  0  3  0  0  0  0  0  0
  159.4280  212.0330  152.2130 C   0  0  0  0  0  2  0  0  0  0  0  0
  158.9310  211.0980  155.7030 C   0  0  0  0  0  0  0  0  0  0  0  0
  162.2400  210.6290  152.5000 C   0  0  0  0  0  2  0  0  0  0  0  0
  160.2440  213.2230  155.6260 C   0  0  0  0  0  3  0  0  0  0  0  0
  161.3360  211.1590  154.8140 C   0  0  1  0  0  3  0  0  0  0  0  0
  159.6290  210.6560  152.8350 C   0  0  0  0  0  2  0  0  0  0  0  0
  161.2790  209.6270  154.6350 C   0  0  2  0  0  3  0  0  0  0  0  0
  160.1900  212.3000  150.9330 C   0  0  0  0  0  3  0  0  0  0  0  0
  159.1870  213.9220  156.0360 C   0  0  0  0  0  3  0  0  0  0  0  0
  162.2690  211.1150  148.3740 F   0  0  0  0  0  0  0  0  0  0  0  0
  161.9010  212.1570  149.2000 C   0  0  0  0  0  2  0  0  0  0  0  0
  159.8750  207.4700  155.0030 C   0  0  1  0  0  3  0  0  0  0  0  0
  161.7330  206.0910  154.6120 O   0  0  0  0  0  0  0  0  0  0  0  0
  160.9430  206.8850  154.1290 C   0  0  0  0  0  0  0  0  0  0  0  0
  161.0580  207.2570  152.6800 C   0  0  0  0  0  2  0  0  0  0  0  0
  160.7890  206.1060  151.8260 N   0  0  0  0  0  0  0  0  0  0  0  0
  161.0800  204.9060  152.5940 C   0  0  0  0  0  2  0  0  0  0  0  0
  161.5780  203.8130  151.6740 C   0  0  0  0  0  1  0  0  0  0  0  0
  161.6080  206.1360  150.6080 C   0  0  0  0  0  2  0  0  0  0  0  0
  161.1180  207.1090  149.5340 C   0  0  1  0  0  3  0  0  0  0  0  0
  162.3230  207.7120  148.8390 C   0  0  0  0  0  1  0  0  0  0  0  0
  160.2500  206.3740  148.5150 C   0  0  0  0  0  2  0  0  0  0  0  0
  161.0780  205.8040  147.3750 C   0  0  2  0  0  3  0  0  0  0  0  0
  162.2390  203.7280  146.5620 C   0  0  0  0  0  2  0  0  0  0  0  0
  161.4600  205.5720  144.6730 S   0  0  0  0  0  0  0  0  0  0  0  0
  161.5930  203.8250  145.1870 C   0  0  0  0  0  2  0  0  0  0  0  0
  160.3540  206.0030  146.0510 C   0  0  0  0  0  2  0  0  0  0  0  0
  161.3180  204.3190  147.6240 C   0  0  0  0  0  2  0  0  0  0  0  0
  159.6530  206.6730  156.1240 O   0  0  0  0  0  0  0  0  0  0  0  0
  160.2850  207.3380  157.1730 C   0  0  0  0  0  1  0  0  0  0  0  0
  1 16  1  6  0  0  0
  1 20  1  0  0  0  0
  1 18  1  0  0  0  0
  2  9  1  0  0  0  0
  3 17  1  0  0  0  0
  3 15  1  0  0  0  0
  4 16  1  0  0  0  0
  5 15  1  0  0  0  0
  6 22  1  6  0  0  0
  6 11  1  0  0  0  0
  7  2  1  0  0  0  0
  8 21  2  0  0  0  0
  8  4  1  0  0  0  0
 10  6  1  0  0  0  0
 10 12  1  0  0  0  0
 11  2  2  0  0  0  0
 12  7  2  0  0  0  0
 13 25  1  6  0  0  0
 13  5  1  0  0  0  0
 14 19  1  0  0  0  0
 15 10  2  0  0  0  0
 17 22  2  0  0  0  0
 18  3  1  1  0  0  0
 19  1  1  0  0  0  0
 20 18  1  0  0  0  0
 20 13  1  0  0  0  0
 21 14  1  0  0  0  0
 23 24  1  0  0  0  0
 24  8  1  0  0  0  0
 25 42  1  0  0  0  0
 27 26  2  0  0  0  0
 27 25  1  0  0  0  0
 28 27  1  0  0  0  0
 29 30  1  0  0  0  0
 29 28  1  0  0  0  0
 31 30  1  0  0  0  0
 32 29  1  0  0  0  0
 33 32  1  0  0  0  0
 34 33  1  0  0  0  0
 35 33  1  0  0  0  0
 36 41  1  0  0  0  0
 36 35  1  0  0  0  0
 37 41  1  0  0  0  0
 38 39  1  0  0  0  0
 38 40  1  0  0  0  0
 39 37  1  0  0  0  0
 40 36  1  0  0  0  0
 42 43  1  0  0  0  0
M  END
>  <MODEL>
4

>  <REMARK>
 VINA RESULT:      -5.0      3.157      6.376
  Name = 
  11 active torsions:
  status: ('A' for Active; 'I' for Inactive)
    1  A    between atoms: C_2  and  C_6
    2  A    between atoms: C_2  and  O_12
    3  A    between atoms: C_2  and  C_27
    4  A    between atoms: N_4  and  C_7
    5  A    between atoms: N_4  and  C_10
    6  A    between atoms: N_4  and  C_15
    7  A    between atoms: C_6  and  C_7
    8  A    between atoms: C_11  and  C_14
    9  A    between atoms: C_14  and  C_22
   10  A    between atoms: C_15  and  C_22
   11  A    between atoms: C_19  and  C_37
                            x       y       z     vdW  Elec       q    Type
                         _______ _______ _______ _____ _____    ______ ____

>  <TORSDO>
F 11

$$$$
