=
 OpenBabel11062409093D

 37 39  0  0  1  0  0  0  0  0999 V2000
  158.6140  210.0410  155.6940 C   0  0  2  0  0  3  0  0  0  0  0  0
  160.4270  210.7570  152.9030 C   0  0  0  0  0  0  0  0  0  0  0  0
  161.2590  208.4350  152.9890 N   0  0  0  0  0  0  0  0  0  0  0  0
  158.8800  214.4220  154.2400 C   0  0  0  0  0  3  0  0  0  0  0  0
  160.3150  208.2020  155.2880 C   0  0  1  0  0  3  0  0  0  0  0  0
  159.5790  212.1810  154.7470 N   0  0  0  0  0  0  0  0  0  0  0  0
  159.3300  214.2370  152.8560 C   0  0  0  0  0  3  0  0  0  0  0  0
  159.7210  211.1200  155.7510 C   0  0  0  0  0  2  0  0  0  0  0  0
  160.0250  213.1620  152.5090 C   0  0  0  0  0  3  0  0  0  0  0  0
  161.1180  207.5500  154.1500 C   0  0  0  0  0  2  0  0  0  0  0  0
  160.4260  212.1260  153.5280 C   0  0  2  0  0  3  0  0  0  0  0  0
  159.0000  208.8390  154.8220 C   0  0  0  0  0  2  0  0  0  0  0  0
  159.0190  213.4540  155.1530 C   0  0  0  0  0  0  0  0  0  0  0  0
  161.4740  209.8160  153.1920 N   0  0  0  0  0  0  0  0  0  0  0  0
  159.4740  210.4200  152.1490 O   0  0  0  0  0  0  0  0  0  0  0  0
  160.7810  206.5900  151.4090 C   0  0  0  0  0  3  0  0  0  0  0  0
  161.3000  207.8750  151.6600 C   0  0  0  0  0  0  0  0  0  0  0  0
  161.8760  208.5990  150.5980 C   0  0  0  0  0  3  0  0  0  0  0  0
  162.5120  208.7430  148.3030 F   0  0  0  0  0  0  0  0  0  0  0  0
  161.4290  206.7600  149.0860 C   0  0  0  0  0  3  0  0  0  0  0  0
  161.9350  208.0440  149.3160 C   0  0  0  0  0  0  0  0  0  0  0  0
  160.8500  206.0340  150.1330 C   0  0  0  0  0  3  0  0  0  0  0  0
  158.5940  213.7280  156.5820 C   0  0  0  0  0  0  0  0  0  0  0  0
  157.4220  214.4530  156.5990 F   0  0  0  0  0  0  0  0  0  0  0  0
  158.4040  212.5300  157.2360 F   0  0  0  0  0  0  0  0  0  0  0  0
  159.5580  214.4510  157.2600 F   0  0  0  0  0  0  0  0  0  0  0  0
  161.2570  207.4810  157.2470 C   0  0  0  0  0  1  0  0  0  0  0  0
  160.1430  207.3520  156.4060 O   0  0  0  0  0  0  0  0  0  0  0  0
  157.2130  210.5800  155.3510 C   0  0  2  0  0  3  0  0  0  0  0  0
  154.9690  209.4990  155.0120 C   0  0  0  0  0  1  0  0  0  0  0  0
  155.5850  210.3980  157.1410 O   0  0  0  0  0  1  0  0  0  0  0  0
  156.0910  209.7630  156.0000 C   0  0  2  0  0  3  0  0  0  0  0  0
  157.0250  210.6520  153.9630 O   0  0  0  0  0  0  0  0  0  0  0  0
  156.3270  211.8410  153.7420 C   0  0  0  0  0  1  0  0  0  0  0  0
  162.6820  210.2480  153.8860 C   0  0  0  0  0  2  0  0  0  0  0  0
  163.4000  210.7760  156.1710 C   0  0  0  0  0  2  0  0  0  0  0  0
  162.3970  210.4730  155.3400 C   0  0  0  0  0  3  0  0  0  0  0  0
  1 29  1  6  0  0  0
  1  8  1  0  0  0  0
  2 14  1  0  0  0  0
  2 11  1  0  0  0  0
  3 14  1  0  0  0  0
  3 10  1  0  0  0  0
  4 13  2  0  0  0  0
  5 28  1  1  0  0  0
  6 13  1  0  0  0  0
  6  8  1  0  0  0  0
  7  4  1  0  0  0  0
  9  7  2  0  0  0  0
 10  5  1  0  0  0  0
 11  9  1  6  0  0  0
 11  6  1  0  0  0  0
 12  5  1  0  0  0  0
 12  1  1  0  0  0  0
 13 23  1  0  0  0  0
 14 35  1  0  0  0  0
 15  2  2  0  0  0  0
 16 17  1  0  0  0  0
 17  3  1  0  0  0  0
 18 17  2  0  0  0  0
 19 21  1  0  0  0  0
 20 21  2  0  0  0  0
 20 22  1  0  0  0  0
 21 18  1  0  0  0  0
 22 16  2  0  0  0  0
 23 24  1  0  0  0  0
 23 25  1  0  0  0  0
 23 26  1  0  0  0  0
 28 27  1  0  0  0  0
 29 33  1  6  0  0  0
 29 32  1  0  0  0  0
 32 30  1  6  0  0  0
 32 31  1  0  0  0  0
 34 33  1  0  0  0  0
 35 37  1  0  0  0  0
 37 36  2  0  0  0  0
M  END
>  <MODEL>
1

>  <REMARK>
 VINA RESULT:      -1.0      0.000      0.000
  Name = 
  8 active torsions:
  status: ('A' for Active; 'I' for Inactive)
    1  A    between atoms: C_1  and  C_5
    2  A    between atoms: C_3  and  C_30
    3  A    between atoms: C_5  and  O_11
    4  A    between atoms: C_5  and  C_23
    5  A    between atoms: C_6  and  N_7
    6  A    between atoms: C_10  and  O_33
    7  A    between atoms: C_14  and  N_31
    8  A    between atoms: C_14  and  C_37
                            x       y       z     vdW  Elec       q    Type
                         _______ _______ _______ _____ _____    ______ ____

>  <TORSDO>
F 8

$$$$
=
 OpenBabel11062409093D

 37 39  0  0  1  0  0  0  0  0999 V2000
  161.2720  210.3660  152.7800 C   0  0  2  0  0  3  0  0  0  0  0  0
  158.6270  212.0040  154.1620 C   0  0  0  0  0  0  0  0  0  0  0  0
  158.5580  213.3800  152.1140 N   0  0  0  0  0  0  0  0  0  0  0  0
  160.1920  209.5750  157.2060 C   0  0  0  0  0  3  0  0  0  0  0  0
  160.7900  212.4750  151.4540 C   0  0  1  0  0  3  0  0  0  0  0  0
  160.5440  210.7940  155.1670 N   0  0  0  0  0  0  0  0  0  0  0  0
  158.8170  210.0850  157.2600 C   0  0  0  0  0  3  0  0  0  0  0  0
  161.4630  211.1720  154.0870 C   0  0  0  0  0  2  0  0  0  0  0  0
  158.4140  211.0310  156.4220 C   0  0  0  0  0  3  0  0  0  0  0  0
  159.6370  213.4370  151.1220 C   0  0  0  0  0  2  0  0  0  0  0  0
  159.3610  211.6530  155.4290 C   0  0  2  0  0  3  0  0  0  0  0  0
  160.3220  211.0540  151.7910 C   0  0  0  0  0  2  0  0  0  0  0  0
  161.0280  209.9290  156.2230 C   0  0  0  0  0  0  0  0  0  0  0  0
  158.8820  213.2440  153.4830 N   0  0  0  0  0  0  0  0  0  0  0  0
  157.8090  211.1790  153.6720 O   0  0  0  0  0  0  0  0  0  0  0  0
  156.8310  213.4870  150.3440 C   0  0  0  0  0  3  0  0  0  0  0  0
  157.1910  213.5850  151.7020 C   0  0  0  0  0  0  0  0  0  0  0  0
  156.2000  213.9040  152.6510 C   0  0  0  0  0  3  0  0  0  0  0  0
  153.9360  214.4520  153.1660 F   0  0  0  0  0  0  0  0  0  0  0  0
  154.5410  214.0390  150.8900 C   0  0  0  0  0  3  0  0  0  0  0  0
  154.8800  214.1250  152.2450 C   0  0  0  0  0  0  0  0  0  0  0  0
  155.5170  213.7170  149.9400 C   0  0  0  0  0  3  0  0  0  0  0  0
  162.4560  209.4200  156.2570 C   0  0  0  0  0  0  0  0  0  0  0  0
  162.4760  208.0840  156.5900 F   0  0  0  0  0  0  0  0  0  0  0  0
  163.0280  209.5960  155.0160 F   0  0  0  0  0  0  0  0  0  0  0  0
  163.2090  210.1080  157.1900 F   0  0  0  0  0  0  0  0  0  0  0  0
  161.2570  212.4450  149.2130 C   0  0  0  0  0  1  0  0  0  0  0  0
  161.8260  212.4960  150.4920 O   0  0  0  0  0  0  0  0  0  0  0  0
  160.9160  208.8830  152.9900 C   0  0  2  0  0  3  0  0  0  0  0  0
  161.7890  206.7720  151.9400 C   0  0  0  0  0  1  0  0  0  0  0  0
  161.6270  208.7940  150.6720 O   0  0  0  0  0  1  0  0  0  0  0  0
  161.0240  208.0610  151.7010 C   0  0  2  0  0  3  0  0  0  0  0  0
  159.6380  208.7450  153.5520 O   0  0  0  0  0  0  0  0  0  0  0  0
  159.7330  207.6660  154.4340 C   0  0  0  0  0  1  0  0  0  0  0  0
  159.6590  214.2940  154.1320 C   0  0  0  0  0  2  0  0  0  0  0  0
  160.1520  214.4130  156.5310 C   0  0  0  0  0  2  0  0  0  0  0  0
  159.2340  214.4530  155.5600 C   0  0  0  0  0  3  0  0  0  0  0  0
  1 29  1  1  0  0  0
  1  8  1  0  0  0  0
  2 11  1  0  0  0  0
  3 14  1  0  0  0  0
  4  7  1  0  0  0  0
  5 28  1  6  0  0  0
  5 12  1  0  0  0  0
  6 11  1  0  0  0  0
  6 13  1  0  0  0  0
  8  6  1  0  0  0  0
  9  7  2  0  0  0  0
 10  5  1  0  0  0  0
 10  3  1  0  0  0  0
 11  9  1  1  0  0  0
 12  1  1  0  0  0  0
 13 23  1  0  0  0  0
 13  4  2  0  0  0  0
 14 35  1  0  0  0  0
 14  2  1  0  0  0  0
 15  2  2  0  0  0  0
 16 17  1  0  0  0  0
 17  3  1  0  0  0  0
 17 18  2  0  0  0  0
 20 21  2  0  0  0  0
 21 18  1  0  0  0  0
 21 19  1  0  0  0  0
 22 16  2  0  0  0  0
 22 20  1  0  0  0  0
 23 24  1  0  0  0  0
 23 26  1  0  0  0  0
 25 23  1  0  0  0  0
 27 28  1  0  0  0  0
 29 33  1  6  0  0  0
 31 32  1  0  0  0  0
 32 30  1  1  0  0  0
 32 29  1  0  0  0  0
 33 34  1  0  0  0  0
 35 37  1  0  0  0  0
 37 36  2  0  0  0  0
M  END
>  <MODEL>
2

>  <REMARK>
 VINA RESULT:       0.4      2.785      6.454
  Name = 
  8 active torsions:
  status: ('A' for Active; 'I' for Inactive)
    1  A    between atoms: C_1  and  C_5
    2  A    between atoms: C_3  and  C_30
    3  A    between atoms: C_5  and  O_11
    4  A    between atoms: C_5  and  C_23
    5  A    between atoms: C_6  and  N_7
    6  A    between atoms: C_10  and  O_33
    7  A    between atoms: C_14  and  N_31
    8  A    between atoms: C_14  and  C_37
                            x       y       z     vdW  Elec       q    Type
                         _______ _______ _______ _____ _____    ______ ____

>  <TORSDO>
F 8

$$$$
=
 OpenBabel11062409093D

 37 39  0  0  1  0  0  0  0  0999 V2000
  160.9040  206.1630  152.4480 C   0  0  2  0  0  3  0  0  0  0  0  0
  162.0060  209.3760  152.2150 C   0  0  0  0  0  0  0  0  0  0  0  0
  161.4890  209.6050  154.6170 N   0  0  0  0  0  0  0  0  0  0  0  0
  161.7930  207.9450  148.2750 C   0  0  0  0  0  3  0  0  0  0  0  0
  160.2400  207.4450  154.5350 C   0  0  1  0  0  3  0  0  0  0  0  0
  161.0200  207.8290  150.5460 N   0  0  0  0  0  0  0  0  0  0  0  0
  162.6250  209.1010  148.6290 C   0  0  0  0  0  3  0  0  0  0  0  0
  160.1610  207.1670  151.5350 C   0  0  0  0  0  2  0  0  0  0  0  0
  162.5050  209.6820  149.8150 C   0  0  0  0  0  3  0  0  0  0  0  0
  160.6730  208.6540  155.3800 C   0  0  0  0  0  2  0  0  0  0  0  0
  161.4770  209.2180  150.8150 C   0  0  2  0  0  3  0  0  0  0  0  0
  161.3910  206.7980  153.7570 C   0  0  0  0  0  2  0  0  0  0  0  0
  161.0060  207.3490  149.1790 C   0  0  0  0  0  0  0  0  0  0  0  0
  161.1650  209.8710  153.2690 N   0  0  0  0  0  0  0  0  0  0  0  0
  163.1910  209.0300  152.4710 O   0  0  0  0  0  0  0  0  0  0  0  0
  162.3970  210.7270  156.6290 C   0  0  0  0  0  3  0  0  0  0  0  0
  162.5340  210.3470  155.2790 C   0  0  0  0  0  0  0  0  0  0  0  0
  163.6990  210.7180  154.5790 C   0  0  0  0  0  3  0  0  0  0  0  0
  165.8100  211.8280  154.5270 F   0  0  0  0  0  0  0  0  0  0  0  0
  164.5420  211.8400  156.5540 C   0  0  0  0  0  3  0  0  0  0  0  0
  164.7000  211.4570  155.2170 C   0  0  0  0  0  0  0  0  0  0  0  0
  163.3910  211.4730  157.2600 C   0  0  0  0  0  3  0  0  0  0  0  0
  160.1210  206.2010  148.7380 C   0  0  0  0  0  0  0  0  0  0  0  0
  159.2370  206.6270  147.7700 F   0  0  0  0  0  0  0  0  0  0  0  0
  160.9090  205.1910  148.2300 F   0  0  0  0  0  0  0  0  0  0  0  0
  159.3900  205.6970  149.7980 F   0  0  0  0  0  0  0  0  0  0  0  0
  159.4270  206.9000  156.6050 C   0  0  0  0  0  1  0  0  0  0  0  0
  159.4750  206.5030  155.2620 O   0  0  0  0  0  0  0  0  0  0  0  0
  162.0130  205.3590  151.7450 C   0  0  2  0  0  3  0  0  0  0  0  0
  161.4580  203.2760  150.4520 C   0  0  0  0  0  1  0  0  0  0  0  0
  160.7680  203.5240  152.7280 O   0  0  0  0  0  1  0  0  0  0  0  0
  161.7840  203.8460  151.8200 C   0  0  2  0  0  3  0  0  0  0  0  0
  163.2770  205.6870  152.2570 O   0  0  0  0  0  0  0  0  0  0  0  0
  163.9960  206.1990  151.1750 C   0  0  0  0  0  1  0  0  0  0  0  0
  159.8690  210.4680  152.9590 C   0  0  0  0  0  2  0  0  0  0  0  0
  159.9910  212.6000  151.7550 C   0  0  0  0  0  2  0  0  0  0  0  0
  159.9760  211.9620  152.9300 C   0  0  0  0  0  3  0  0  0  0  0  0
  1 29  1  6  0  0  0
  1 12  1  0  0  0  0
  2 15  2  0  0  0  0
  2 14  1  0  0  0  0
  3 17  1  0  0  0  0
  3 10  1  0  0  0  0
  4  7  1  0  0  0  0
  4 13  2  0  0  0  0
  5 28  1  1  0  0  0
  5 10  1  0  0  0  0
  6 11  1  0  0  0  0
  6  8  1  0  0  0  0
  7  9  2  0  0  0  0
  8  1  1  0  0  0  0
 11  9  1  6  0  0  0
 11  2  1  0  0  0  0
 12  5  1  0  0  0  0
 13  6  1  0  0  0  0
 14  3  1  0  0  0  0
 16 22  1  0  0  0  0
 17 16  2  0  0  0  0
 18 21  2  0  0  0  0
 18 17  1  0  0  0  0
 19 21  1  0  0  0  0
 20 22  2  0  0  0  0
 21 20  1  0  0  0  0
 23 13  1  0  0  0  0
 23 26  1  0  0  0  0
 24 23  1  0  0  0  0
 25 23  1  0  0  0  0
 28 27  1  0  0  0  0
 29 32  1  0  0  0  0
 29 33  1  1  0  0  0
 32 30  1  6  0  0  0
 32 31  1  0  0  0  0
 34 33  1  0  0  0  0
 35 14  1  0  0  0  0
 36 37  2  0  0  0  0
 37 35  1  0  0  0  0
M  END
>  <MODEL>
3

>  <REMARK>
 VINA RESULT:       0.6      3.493      7.155
  Name = 
  8 active torsions:
  status: ('A' for Active; 'I' for Inactive)
    1  A    between atoms: C_1  and  C_5
    2  A    between atoms: C_3  and  C_30
    3  A    between atoms: C_5  and  O_11
    4  A    between atoms: C_5  and  C_23
    5  A    between atoms: C_6  and  N_7
    6  A    between atoms: C_10  and  O_33
    7  A    between atoms: C_14  and  N_31
    8  A    between atoms: C_14  and  C_37
                            x       y       z     vdW  Elec       q    Type
                         _______ _______ _______ _____ _____    ______ ____

>  <TORSDO>
F 8

$$$$
=
 OpenBabel11062409093D

 37 39  0  0  1  0  0  0  0  0999 V2000
  161.3270  209.7640  152.2780 C   0  0  2  0  0  3  0  0  0  0  0  0
  158.6610  211.6890  153.1600 C   0  0  0  0  0  0  0  0  0  0  0  0
  159.1320  213.0530  151.1570 N   0  0  0  0  0  0  0  0  0  0  0  0
  159.3470  209.1200  156.4070 C   0  0  0  0  0  3  0  0  0  0  0  0
  161.3360  211.9050  150.9180 C   0  0  1  0  0  3  0  0  0  0  0  0
  160.2100  210.2820  154.4900 N   0  0  0  0  0  0  0  0  0  0  0  0
  158.0510  209.7780  156.2090 C   0  0  0  0  0  3  0  0  0  0  0  0
  161.3530  210.5510  153.6100 C   0  0  0  0  0  2  0  0  0  0  0  0
  157.9190  210.7570  155.3230 C   0  0  0  0  0  3  0  0  0  0  0  0
  160.3790  212.9860  150.3880 C   0  0  0  0  0  2  0  0  0  0  0  0
  159.0990  211.2670  154.5370 C   0  0  2  0  0  3  0  0  0  0  0  0
  160.6630  210.5460  151.1380 C   0  0  0  0  0  2  0  0  0  0  0  0
  160.3890  209.3750  155.6060 C   0  0  0  0  0  0  0  0  0  0  0  0
  159.1730  212.8890  152.5600 N   0  0  0  0  0  0  0  0  0  0  0  0
  157.8660  210.9550  152.5110 O   0  0  0  0  0  0  0  0  0  0  0  0
  156.8190  213.9330  151.2320 C   0  0  0  0  0  3  0  0  0  0  0  0
  157.8980  213.4040  150.4970 C   0  0  0  0  0  0  0  0  0  0  0  0
  157.7490  213.2050  149.1100 C   0  0  0  0  0  3  0  0  0  0  0  0
  156.4040  213.3100  147.1430 F   0  0  0  0  0  0  0  0  0  0  0  0
  155.4760  214.0360  149.2240 C   0  0  0  0  0  3  0  0  0  0  0  0
  156.5440  213.5250  148.4770 C   0  0  0  0  0  0  0  0  0  0  0  0
  155.6150  214.2420  150.6010 C   0  0  0  0  0  3  0  0  0  0  0  0
  161.7200  208.7140  155.9010 C   0  0  0  0  0  0  0  0  0  0  0  0
  161.6160  207.3480  155.7520 F   0  0  0  0  0  0  0  0  0  0  0  0
  162.6710  209.2020  155.0320 F   0  0  0  0  0  0  0  0  0  0  0  0
  162.1320  208.9760  157.1950 F   0  0  0  0  0  0  0  0  0  0  0  0
  162.2340  211.2800  148.9060 C   0  0  0  0  0  1  0  0  0  0  0  0
  162.5330  211.8070  150.1690 O   0  0  0  0  0  0  0  0  0  0  0  0
  160.7790  208.3290  152.3940 C   0  0  2  0  0  3  0  0  0  0  0  0
  162.6970  206.9740  151.4990 C   0  0  0  0  0  1  0  0  0  0  0  0
  161.3280  206.1350  153.2710 O   0  0  0  0  0  1  0  0  0  0  0  0
  161.8690  207.3060  152.7270 C   0  0  2  0  0  3  0  0  0  0  0  0
  160.0950  207.9540  151.2280 O   0  0  0  0  0  0  0  0  0  0  0  0
  161.0880  207.6950  150.2810 C   0  0  0  0  0  1  0  0  0  0  0  0
  159.9220  213.8520  153.3600 C   0  0  0  0  0  2  0  0  0  0  0  0
  159.4460  214.4530  155.6890 C   0  0  0  0  0  2  0  0  0  0  0  0
  159.0430  214.4530  154.4140 C   0  0  0  0  0  3  0  0  0  0  0  0
  1 29  1  1  0  0  0
  1  8  1  0  0  0  0
  2 11  1  0  0  0  0
  3 14  1  0  0  0  0
  5 28  1  6  0  0  0
  5 12  1  0  0  0  0
  6 11  1  0  0  0  0
  6 13  1  0  0  0  0
  7  4  1  0  0  0  0
  8  6  1  0  0  0  0
  9  7  2  0  0  0  0
 10  5  1  0  0  0  0
 10  3  1  0  0  0  0
 11  9  1  6  0  0  0
 12  1  1  0  0  0  0
 13 23  1  0  0  0  0
 13  4  2  0  0  0  0
 14  2  1  0  0  0  0
 14 35  1  0  0  0  0
 15  2  2  0  0  0  0
 17  3  1  0  0  0  0
 17 16  2  0  0  0  0
 18 17  1  0  0  0  0
 19 21  1  0  0  0  0
 20 22  2  0  0  0  0
 21 18  2  0  0  0  0
 21 20  1  0  0  0  0
 22 16  1  0  0  0  0
 23 26  1  0  0  0  0
 24 23  1  0  0  0  0
 25 23  1  0  0  0  0
 27 28  1  0  0  0  0
 29 33  1  6  0  0  0
 29 32  1  0  0  0  0
 32 30  1  6  0  0  0
 32 31  1  0  0  0  0
 34 33  1  0  0  0  0
 35 37  1  0  0  0  0
 37 36  2  0  0  0  0
M  END
>  <MODEL>
4

>  <REMARK>
 VINA RESULT:       0.9      3.177      6.242
  Name = 
  8 active torsions:
  status: ('A' for Active; 'I' for Inactive)
    1  A    between atoms: C_1  and  C_5
    2  A    between atoms: C_3  and  C_30
    3  A    between atoms: C_5  and  O_11
    4  A    between atoms: C_5  and  C_23
    5  A    between atoms: C_6  and  N_7
    6  A    between atoms: C_10  and  O_33
    7  A    between atoms: C_14  and  N_31
    8  A    between atoms: C_14  and  C_37
                            x       y       z     vdW  Elec       q    Type
                         _______ _______ _______ _____ _____    ______ ____

>  <TORSDO>
F 8

$$$$
=
 OpenBabel11062409093D

 37 39  0  0  1  0  0  0  0  0999 V2000
  160.8340  210.9930  155.4020 C   0  0  2  0  0  3  0  0  0  0  0  0
  159.6200  210.7940  152.2270 C   0  0  0  0  0  0  0  0  0  0  0  0
  161.8440  209.9600  151.5540 N   0  0  0  0  0  0  0  0  0  0  0  0
  156.7050  212.8420  154.4450 C   0  0  0  0  0  3  0  0  0  0  0  0
  162.7510  210.6420  153.7780 C   0  0  1  0  0  3  0  0  0  0  0  0
  159.0090  212.2280  154.1560 N   0  0  0  0  0  0  0  0  0  0  0  0
  156.3790  212.1750  153.1790 C   0  0  0  0  0  3  0  0  0  0  0  0
  160.3830  212.2790  154.6680 C   0  0  0  0  0  2  0  0  0  0  0  0
  157.3430  211.7370  152.3790 C   0  0  0  0  0  3  0  0  0  0  0  0
  163.0450  210.0470  152.3900 C   0  0  0  0  0  2  0  0  0  0  0  0
  158.7960  211.9580  152.7100 C   0  0  2  0  0  3  0  0  0  0  0  0
  161.5470  209.9990  154.4760 C   0  0  0  0  0  2  0  0  0  0  0  0
  157.9610  212.8920  154.9040 C   0  0  0  0  0  0  0  0  0  0  0  0
  160.8930  211.0040  151.5960 N   0  0  0  0  0  0  0  0  0  0  0  0
  159.2030  209.6190  152.4180 O   0  0  0  0  0  0  0  0  0  0  0  0
  161.9170  209.0940  149.2360 C   0  0  0  0  0  3  0  0  0  0  0  0
  161.7010  208.8770  150.6110 C   0  0  0  0  0  0  0  0  0  0  0  0
  161.3270  207.5920  151.0510 C   0  0  0  0  0  3  0  0  0  0  0  0
  160.7860  205.3210  150.5640 F   0  0  0  0  0  0  0  0  0  0  0  0
  161.3700  206.7860  148.7670 C   0  0  0  0  0  3  0  0  0  0  0  0
  161.1670  206.5510  150.1320 C   0  0  0  0  0  0  0  0  0  0  0  0
  161.7470  208.0570  148.3200 C   0  0  0  0  0  3  0  0  0  0  0  0
  158.2440  213.6500  156.1860 C   0  0  0  0  0  0  0  0  0  0  0  0
  159.3580  214.4450  156.0310 F   0  0  0  0  0  0  0  0  0  0  0  0
  157.1550  214.4360  156.4960 F   0  0  0  0  0  0  0  0  0  0  0  0
  158.4750  212.7840  157.2390 F   0  0  0  0  0  0  0  0  0  0  0  0
  163.4810  210.9350  155.9280 C   0  0  0  0  0  1  0  0  0  0  0  0
  163.8940  210.7060  154.6090 O   0  0  0  0  0  0  0  0  0  0  0  0
  159.7340  210.3170  156.2420 C   0  0  2  0  0  3  0  0  0  0  0  0
  161.7480  209.0160  156.9960 C   0  0  0  0  0  1  0  0  0  0  0  0
  159.7270  207.8950  156.3790 O   0  0  0  0  0  1  0  0  0  0  0  0
  160.2310  209.0620  156.9660 C   0  0  2  0  0  3  0  0  0  0  0  0
  158.6120  210.0160  155.4560 O   0  0  0  0  0  0  0  0  0  0  0  0
  157.5420  209.9320  156.3500 C   0  0  0  0  0  1  0  0  0  0  0  0
  161.2980  212.3430  151.1800 C   0  0  0  0  0  2  0  0  0  0  0  0
  159.8410  213.8300  149.8840 C   0  0  0  0  0  2  0  0  0  0  0  0
  160.6010  212.7300  149.9110 C   0  0  0  0  0  3  0  0  0  0  0  0
  1 29  1  6  0  0  0
  2 15  2  0  0  0  0
  2 11  1  0  0  0  0
  3 14  1  0  0  0  0
  3 10  1  0  0  0  0
  4 13  2  0  0  0  0
  5 12  1  0  0  0  0
  5 28  1  1  0  0  0
  6  8  1  0  0  0  0
  6 13  1  0  0  0  0
  7  4  1  0  0  0  0
  8  1  1  0  0  0  0
  9  7  2  0  0  0  0
 10  5  1  0  0  0  0
 11  9  1  1  0  0  0
 11  6  1  0  0  0  0
 12  1  1  0  0  0  0
 13 23  1  0  0  0  0
 14  2  1  0  0  0  0
 16 17  1  0  0  0  0
 17 18  2  0  0  0  0
 17  3  1  0  0  0  0
 20 21  2  0  0  0  0
 21 19  1  0  0  0  0
 21 18  1  0  0  0  0
 22 20  1  0  0  0  0
 22 16  2  0  0  0  0
 23 25  1  0  0  0  0
 23 26  1  0  0  0  0
 24 23  1  0  0  0  0
 28 27  1  0  0  0  0
 29 33  1  6  0  0  0
 29 32  1  0  0  0  0
 31 32  1  0  0  0  0
 32 30  1  6  0  0  0
 33 34  1  0  0  0  0
 35 14  1  0  0  0  0
 36 37  2  0  0  0  0
 37 35  1  0  0  0  0
M  END
>  <MODEL>
5

>  <REMARK>
 VINA RESULT:       1.9      1.723      3.404
  Name = 
  8 active torsions:
  status: ('A' for Active; 'I' for Inactive)
    1  A    between atoms: C_1  and  C_5
    2  A    between atoms: C_3  and  C_30
    3  A    between atoms: C_5  and  O_11
    4  A    between atoms: C_5  and  C_23
    5  A    between atoms: C_6  and  N_7
    6  A    between atoms: C_10  and  O_33
    7  A    between atoms: C_14  and  N_31
    8  A    between atoms: C_14  and  C_37
                            x       y       z     vdW  Elec       q    Type
                         _______ _______ _______ _____ _____    ______ ____

>  <TORSDO>
F 8

$$$$
=
 OpenBabel11062409093D

 37 39  0  0  1  0  0  0  0  0999 V2000
  162.0770  208.4860  150.1320 C   0  0  2  0  0  3  0  0  0  0  0  0
  160.3890  209.4270  152.9340 C   0  0  0  0  0  0  0  0  0  0  0  0
  160.4320  211.7300  152.0460 N   0  0  0  0  0  0  0  0  0  0  0  0
  161.5590  205.4490  153.5790 C   0  0  0  0  0  3  0  0  0  0  0  0
  162.0980  211.0160  150.3290 C   0  0  1  0  0  3  0  0  0  0  0  0
  161.9430  207.5490  152.4800 N   0  0  0  0  0  0  0  0  0  0  0  0
  160.4570  206.0570  154.3340 C   0  0  0  0  0  3  0  0  0  0  0  0
  162.7400  208.3230  151.5210 C   0  0  0  0  0  2  0  0  0  0  0  0
  160.2520  207.3680  154.2900 C   0  0  0  0  0  3  0  0  0  0  0  0
  161.2870  212.1710  150.9390 C   0  0  0  0  0  2  0  0  0  0  0  0
  161.1690  208.2790  153.5170 C   0  0  2  0  0  3  0  0  0  0  0  0
  161.2550  209.7750  150.0140 C   0  0  0  0  0  2  0  0  0  0  0  0
  162.2870  206.1610  152.7110 C   0  0  0  0  0  0  0  0  0  0  0  0
  160.9180  210.7630  152.9530 N   0  0  0  0  0  0  0  0  0  0  0  0
  159.2750  209.2040  152.3860 O   0  0  0  0  0  0  0  0  0  0  0  0
  158.5150  213.0660  151.2290 C   0  0  0  0  0  3  0  0  0  0  0  0
  159.1590  212.3700  152.2710 C   0  0  0  0  0  0  0  0  0  0  0  0
  158.5510  212.3230  153.5410 C   0  0  0  0  0  3  0  0  0  0  0  0
  156.7610  212.9310  154.9950 F   0  0  0  0  0  0  0  0  0  0  0  0
  156.7080  213.6650  152.7200 C   0  0  0  0  0  3  0  0  0  0  0  0
  157.3280  212.9650  153.7610 C   0  0  0  0  0  0  0  0  0  0  0  0
  157.3010  213.7130  151.4530 C   0  0  0  0  0  3  0  0  0  0  0  0
  163.4530  205.4920  152.0100 C   0  0  0  0  0  0  0  0  0  0  0  0
  164.5360  205.4150  152.8580 F   0  0  0  0  0  0  0  0  0  0  0  0
  163.0800  204.2250  151.6210 F   0  0  0  0  0  0  0  0  0  0  0  0
  163.8350  206.2030  150.8870 F   0  0  0  0  0  0  0  0  0  0  0  0
  162.0770  211.8390  148.1920 C   0  0  0  0  0  1  0  0  0  0  0  0
  162.9070  211.4180  149.2400 O   0  0  0  0  0  0  0  0  0  0  0  0
  161.2950  207.2510  149.6470 C   0  0  2  0  0  3  0  0  0  0  0  0
  160.8310  205.8050  147.6450 C   0  0  0  0  0  1  0  0  0  0  0  0
  162.2770  207.7030  147.4750 O   0  0  0  0  0  1  0  0  0  0  0  0
  161.1370  207.2120  148.1240 C   0  0  2  0  0  3  0  0  0  0  0  0
  160.0410  207.1710  150.2710 O   0  0  0  0  0  0  0  0  0  0  0  0
  159.8170  205.8100  150.4840 C   0  0  0  0  0  1  0  0  0  0  0  0
  162.0950  211.0780  153.7570 C   0  0  0  0  0  2  0  0  0  0  0  0
  162.6520  210.6620  156.1080 C   0  0  0  0  0  2  0  0  0  0  0  0
  161.7480  211.0760  155.2150 C   0  0  0  0  0  3  0  0  0  0  0  0
  1 29  1  1  0  0  0
  1  8  1  0  0  0  0
  2 14  1  0  0  0  0
  2 11  1  0  0  0  0
  3 17  1  0  0  0  0
  3 14  1  0  0  0  0
  4  7  1  0  0  0  0
  5 28  1  6  0  0  0
  5 10  1  0  0  0  0
  6 13  1  0  0  0  0
  6 11  1  0  0  0  0
  8  6  1  0  0  0  0
  9  7  2  0  0  0  0
 10  3  1  0  0  0  0
 11  9  1  6  0  0  0
 12  1  1  0  0  0  0
 12  5  1  0  0  0  0
 13  4  2  0  0  0  0
 14 35  1  0  0  0  0
 15  2  2  0  0  0  0
 16 22  2  0  0  0  0
 16 17  1  0  0  0  0
 17 18  2  0  0  0  0
 18 21  1  0  0  0  0
 20 21  2  0  0  0  0
 21 19  1  0  0  0  0
 22 20  1  0  0  0  0
 23 13  1  0  0  0  0
 23 24  1  0  0  0  0
 25 23  1  0  0  0  0
 26 23  1  0  0  0  0
 27 28  1  0  0  0  0
 29 33  1  1  0  0  0
 31 32  1  0  0  0  0
 32 30  1  6  0  0  0
 32 29  1  0  0  0  0
 33 34  1  0  0  0  0
 35 37  1  0  0  0  0
 37 36  2  0  0  0  0
M  END
>  <MODEL>
6

>  <REMARK>
 VINA RESULT:       2.0      2.634      7.557
  Name = 
  8 active torsions:
  status: ('A' for Active; 'I' for Inactive)
    1  A    between atoms: C_1  and  C_5
    2  A    between atoms: C_3  and  C_30
    3  A    between atoms: C_5  and  O_11
    4  A    between atoms: C_5  and  C_23
    5  A    between atoms: C_6  and  N_7
    6  A    between atoms: C_10  and  O_33
    7  A    between atoms: C_14  and  N_31
    8  A    between atoms: C_14  and  C_37
                            x       y       z     vdW  Elec       q    Type
                         _______ _______ _______ _____ _____    ______ ____

>  <TORSDO>
F 8

$$$$
