=
 OpenBabel11052423183D

 27 31  0  0  1  0  0  0  0  0999 V2000
  160.7030  210.0900  152.7870 C   0  0  2  0  0  3  0  0  0  0  0  0
  160.9460  208.8390  152.0120 C   0  0  0  0  0  0  0  0  0  0  0  0
  160.6080  208.1310  154.1800 N   0  0  0  0  0  0  0  0  0  0  0  0
  161.5660  205.0190  150.5850 N   0  0  0  0  0  0  0  0  0  0  0  0
  161.5870  202.6990  151.5110 C   0  0  0  0  0  1  0  0  0  0  0  0
  161.2250  208.7030  150.6410 C   0  0  0  0  0  3  0  0  0  0  0  0
  161.0930  204.9750  153.0850 S   0  0  0  0  0  0  0  0  0  0  0  0
  161.5930  209.4270  156.4500 N   0  0  0  0  0  0  0  0  0  0  0  0
  159.6210  207.1340  156.1740 C   0  0  0  0  0  1  0  0  0  0  0  0
  162.6820  209.9550  157.2600 C   0  0  0  0  0  1  0  0  0  0  0  0
  161.1130  206.4760  152.3310 C   0  0  0  0  0  0  0  0  0  0  0  0
  161.4390  204.1720  151.6350 C   0  0  0  0  0  0  0  0  0  0  0  0
  161.3820  206.3060  150.9780 C   0  0  0  0  0  0  0  0  0  0  0  0
  160.4850  209.5900  154.2390 C   0  0  1  0  0  3  0  0  0  0  0  0
  160.8970  207.7520  152.8470 C   0  0  0  0  0  0  0  0  0  0  0  0
  161.9560  208.0310  156.1890 C   0  0  0  0  0  2  0  0  0  0  0  0
  161.4440  207.4120  150.1150 C   0  0  0  0  0  3  0  0  0  0  0  0
  161.2080  211.6380  155.4280 C   0  0  0  0  0  1  0  0  0  0  0  0
  161.5510  210.1730  155.1780 C   0  0  1  0  0  3  0  0  0  0  0  0
  160.8880  207.3270  155.3600 C   0  0  2  0  0  3  0  0  0  0  0  0
  159.5260  210.8070  152.2920 N   0  0  0  0  0  2  0  0  0  0  0  0
  157.4370  213.8280  154.3500 C   0  0  0  0  0  3  0  0  0  0  0  0
  158.8140  211.8310  152.9960 C   0  0  0  0  0  0  0  0  0  0  0  0
  159.1340  213.1710  152.7610 C   0  0  0  0  0  3  0  0  0  0  0  0
  158.4410  214.1720  153.4440 C   0  0  0  0  0  3  0  0  0  0  0  0
  157.1420  212.4790  154.5600 C   0  0  0  0  0  3  0  0  0  0  0  0
  157.8300  211.5190  153.8860 N   0  0  0  0  0  0  0  0  0  0  0  0
  1 21  1  6  0  0  0
  1 14  1  0  0  0  0
  2  1  1  0  0  0  0
  2 15  1  0  0  0  0
  3 20  1  0  0  0  0
  4 13  1  0  0  0  0
  4 12  2  0  0  0  0
  5 12  1  0  0  0  0
  6  2  2  0  0  0  0
  8 10  1  0  0  0  0
 11 15  2  0  0  0  0
 11  7  1  0  0  0  0
 12  7  1  0  0  0  0
 13 11  1  0  0  0  0
 14  3  1  6  0  0  0
 14 19  1  0  0  0  0
 15  3  1  0  0  0  0
 16  8  1  0  0  0  0
 17  6  1  0  0  0  0
 17 13  2  0  0  0  0
 19 18  1  1  0  0  0
 19  8  1  0  0  0  0
 20  9  1  1  0  0  0
 20 16  1  0  0  0  0
 21 23  1  0  0  0  0
 22 26  2  0  0  0  0
 23 27  2  0  0  0  0
 24 23  1  0  0  0  0
 24 25  2  0  0  0  0
 25 22  1  0  0  0  0
 27 26  1  0  0  0  0
M  END
>  <MODEL>
1

>  <REMARK>
 VINA RESULT:      -7.0      0.000      0.000
  Name = 
  2 active torsions:
  status: ('A' for Active; 'I' for Inactive)
    1  A    between atoms: C_1  and  N_15
    2  A    between atoms: C_9  and  N_15
                            x       y       z     vdW  Elec       q    Type
                         _______ _______ _______ _____ _____    ______ ____

>  <TORSDO>
F 2

$$$$
=
 OpenBabel11052423183D

 27 31  0  0  1  0  0  0  0  0999 V2000
  161.4110  209.6450  150.1730 C   0  0  2  0  0  3  0  0  0  0  0  0
  160.9470  209.7190  151.5890 C   0  0  0  0  0  0  0  0  0  0  0  0
  161.8880  207.6230  151.3870 N   0  0  0  0  0  0  0  0  0  0  0  0
  159.9180  209.1640  155.5440 N   0  0  0  0  0  0  0  0  0  0  0  0
  160.1470  207.3630  157.2610 C   0  0  0  0  0  1  0  0  0  0  0  0
  160.2860  210.7780  152.2360 C   0  0  0  0  0  3  0  0  0  0  0  0
  161.0870  207.0980  154.6250 S   0  0  0  0  0  0  0  0  0  0  0  0
  161.6030  205.9580  149.1640 N   0  0  0  0  0  0  0  0  0  0  0  0
  163.3980  205.7220  151.6020 C   0  0  0  0  0  1  0  0  0  0  0  0
  160.7950  205.2030  148.2150 C   0  0  0  0  0  1  0  0  0  0  0  0
  160.8630  208.3890  153.5730 C   0  0  0  0  0  0  0  0  0  0  0  0
  160.3340  207.9240  155.8980 C   0  0  0  0  0  0  0  0  0  0  0  0
  160.2160  209.4200  154.2450 C   0  0  0  0  0  0  0  0  0  0  0  0
  162.0320  208.2280  150.0610 C   0  0  1  0  0  3  0  0  0  0  0  0
  161.2260  208.5430  152.2370 C   0  0  0  0  0  0  0  0  0  0  0  0
  161.1710  205.4940  150.4850 C   0  0  0  0  0  2  0  0  0  0  0  0
  159.9170  210.6260  153.5890 C   0  0  0  0  0  3  0  0  0  0  0  0
  161.6940  207.8880  147.6320 C   0  0  0  0  0  1  0  0  0  0  0  0
  161.2840  207.3900  149.0140 C   0  0  1  0  0  3  0  0  0  0  0  0
  161.9520  206.1850  151.5970 C   0  0  2  0  0  3  0  0  0  0  0  0
  162.4010  210.6820  149.8790 N   0  0  0  0  0  2  0  0  0  0  0  0
  161.8540  213.9260  147.2510 C   0  0  0  0  0  3  0  0  0  0  0  0
  162.2180  211.7830  148.9810 C   0  0  0  0  0  0  0  0  0  0  0  0
  161.2030  212.7090  149.2340 C   0  0  0  0  0  3  0  0  0  0  0  0
  161.0220  213.7840  148.3620 C   0  0  0  0  0  3  0  0  0  0  0  0
  162.8580  212.9820  147.0280 C   0  0  0  0  0  3  0  0  0  0  0  0
  163.0180  211.9410  147.8890 N   0  0  0  0  0  0  0  0  0  0  0  0
  1 21  1  1  0  0  0
  1  2  1  0  0  0  0
  2  6  2  0  0  0  0
  2 15  1  0  0  0  0
  3 20  1  0  0  0  0
  3 15  1  0  0  0  0
  4 12  2  0  0  0  0
  6 17  1  0  0  0  0
  7 12  1  0  0  0  0
  8 16  1  0  0  0  0
 10  8  1  0  0  0  0
 11 13  1  0  0  0  0
 11  7  1  0  0  0  0
 12  5  1  0  0  0  0
 13  4  1  0  0  0  0
 14  1  1  0  0  0  0
 14  3  1  1  0  0  0
 15 11  2  0  0  0  0
 16 20  1  0  0  0  0
 17 13  2  0  0  0  0
 19 18  1  6  0  0  0
 19  8  1  0  0  0  0
 19 14  1  0  0  0  0
 20  9  1  6  0  0  0
 22 25  1  0  0  0  0
 23 24  1  0  0  0  0
 23 21  1  0  0  0  0
 25 24  2  0  0  0  0
 26 22  2  0  0  0  0
 26 27  1  0  0  0  0
 27 23  2  0  0  0  0
M  END
>  <MODEL>
2

>  <REMARK>
 VINA RESULT:      -5.6      2.892      5.911
  Name = 
  2 active torsions:
  status: ('A' for Active; 'I' for Inactive)
    1  A    between atoms: C_1  and  N_15
    2  A    between atoms: C_9  and  N_15
                            x       y       z     vdW  Elec       q    Type
                         _______ _______ _______ _____ _____    ______ ____

>  <TORSDO>
F 2

$$$$
=
 OpenBabel11052423183D

 27 31  0  0  1  0  0  0  0  0999 V2000
  159.4780  212.4720  151.7370 C   0  0  2  0  0  3  0  0  0  0  0  0
  158.2490  213.0680  152.3370 C   0  0  0  0  0  0  0  0  0  0  0  0
  159.4200  212.2090  154.1280 N   0  0  0  0  0  0  0  0  0  0  0  0
  155.1390  214.4220  154.6830 N   0  0  0  0  0  0  0  0  0  0  0  0
  154.5510  214.4420  157.1110 C   0  0  0  0  0  1  0  0  0  0  0  0
  157.1830  213.7100  151.6830 C   0  0  0  0  0  3  0  0  0  0  0  0
  156.9170  213.2980  156.1160 S   0  0  0  0  0  0  0  0  0  0  0  0
  160.7870  209.7740  154.1160 N   0  0  0  0  0  0  0  0  0  0  0  0
  160.7570  212.0220  156.1580 C   0  0  0  0  0  1  0  0  0  0  0  0
  160.8400  208.3270  153.9540 C   0  0  0  0  0  1  0  0  0  0  0  0
  157.1840  213.3520  154.4580 C   0  0  0  0  0  0  0  0  0  0  0  0
  155.4370  214.1060  155.9670 C   0  0  0  0  0  0  0  0  0  0  0  0
  156.1190  213.9990  153.8430 C   0  0  0  0  0  0  0  0  0  0  0  0
  160.2440  211.8970  152.9580 C   0  0  1  0  0  3  0  0  0  0  0  0
  158.2520  212.8830  153.6960 C   0  0  0  0  0  0  0  0  0  0  0  0
  159.7210  210.0090  155.0930 C   0  0  0  0  0  2  0  0  0  0  0  0
  156.1000  214.1860  152.4510 C   0  0  0  0  0  3  0  0  0  0  0  0
  161.4950  210.1150  151.7790 C   0  0  0  0  0  1  0  0  0  0  0  0
  160.4140  210.3760  152.8220 C   0  0  1  0  0  3  0  0  0  0  0  0
  159.5590  211.4960  155.3890 C   0  0  2  0  0  3  0  0  0  0  0  0
  160.2770  213.4800  151.0390 N   0  0  0  0  0  2  0  0  0  0  0  0
  160.9030  213.6770  146.8790 C   0  0  0  0  0  3  0  0  0  0  0  0
  160.4930  213.5420  149.6230 C   0  0  0  0  0  0  0  0  0  0  0  0
  159.6960  214.3880  148.8480 C   0  0  0  0  0  3  0  0  0  0  0  0
  159.9040  214.4530  147.4690 C   0  0  0  0  0  3  0  0  0  0  0  0
  161.6810  212.8430  147.6850 C   0  0  0  0  0  3  0  0  0  0  0  0
  161.4620  212.7940  149.0260 N   0  0  0  0  0  0  0  0  0  0  0  0
  1 21  1  1  0  0  0
  1  2  1  0  0  0  0
  1 14  1  0  0  0  0
  2 15  1  0  0  0  0
  3 20  1  0  0  0  0
  4 12  2  0  0  0  0
  6  2  2  0  0  0  0
  6 17  1  0  0  0  0
  8 16  1  0  0  0  0
 10  8  1  0  0  0  0
 11  7  1  0  0  0  0
 12  7  1  0  0  0  0
 12  5  1  0  0  0  0
 13 11  1  0  0  0  0
 13  4  1  0  0  0  0
 14  3  1  1  0  0  0
 15  3  1  0  0  0  0
 15 11  2  0  0  0  0
 16 20  1  0  0  0  0
 17 13  2  0  0  0  0
 19 18  1  6  0  0  0
 19 14  1  0  0  0  0
 19  8  1  0  0  0  0
 20  9  1  6  0  0  0
 22 25  1  0  0  0  0
 22 26  2  0  0  0  0
 23 21  1  0  0  0  0
 24 23  1  0  0  0  0
 25 24  2  0  0  0  0
 26 27  1  0  0  0  0
 27 23  2  0  0  0  0
M  END
>  <MODEL>
3

>  <REMARK>
 VINA RESULT:      -5.0      3.440      7.066
  Name = 
  2 active torsions:
  status: ('A' for Active; 'I' for Inactive)
    1  A    between atoms: C_1  and  N_15
    2  A    between atoms: C_9  and  N_15
                            x       y       z     vdW  Elec       q    Type
                         _______ _______ _______ _____ _____    ______ ____

>  <TORSDO>
F 2

$$$$
=
 OpenBabel11052423183D

 27 31  0  0  1  0  0  0  0  0999 V2000
  161.0800  210.2590  152.0860 C   0  0  2  0  0  3  0  0  0  0  0  0
  161.1900  208.9160  151.4470 C   0  0  0  0  0  0  0  0  0  0  0  0
  161.8750  210.3990  149.8190 N   0  0  0  0  0  0  0  0  0  0  0  0
  161.7050  205.6160  149.0260 N   0  0  0  0  0  0  0  0  0  0  0  0
  162.4720  205.1580  146.6930 C   0  0  0  0  0  1  0  0  0  0  0  0
  160.8780  207.6610  151.9970 C   0  0  0  0  0  3  0  0  0  0  0  0
  162.3310  207.7460  147.7810 S   0  0  0  0  0  0  0  0  0  0  0  0
  160.6850  212.8760  149.3200 N   0  0  0  0  0  0  0  0  0  0  0  0
  163.2530  211.6580  148.2520 C   0  0  0  0  0  1  0  0  0  0  0  0
  159.5410  213.7090  148.9750 C   0  0  0  0  0  1  0  0  0  0  0  0
  161.7930  207.9090  149.3640 C   0  0  0  0  0  0  0  0  0  0  0  0
  162.1590  206.0620  147.8290 C   0  0  0  0  0  0  0  0  0  0  0  0
  161.5020  206.6520  149.8810 C   0  0  0  0  0  0  0  0  0  0  0  0
  161.5390  211.2370  150.9720 C   0  0  1  0  0  3  0  0  0  0  0  0
  161.6320  209.0450  150.1550 C   0  0  0  0  0  0  0  0  0  0  0  0
  160.7610  211.8740  148.2540 C   0  0  0  0  0  2  0  0  0  0  0  0
  161.0400  206.5080  151.2000 C   0  0  0  0  0  3  0  0  0  0  0  0
  160.2910  213.2380  151.7280 C   0  0  0  0  0  1  0  0  0  0  0  0
  160.4080  212.2100  150.6070 C   0  0  1  0  0  3  0  0  0  0  0  0
  161.9390  210.9290  148.4660 C   0  0  2  0  0  3  0  0  0  0  0  0
  161.9380  210.3630  153.2670 N   0  0  0  0  0  2  0  0  0  0  0  0
  160.6600  209.9730  157.2600 C   0  0  0  0  0  3  0  0  0  0  0  0
  161.5070  210.2330  154.6280 C   0  0  0  0  0  0  0  0  0  0  0  0
  160.1700  209.9290  154.8940 C   0  0  0  0  0  3  0  0  0  0  0  0
  159.7470  209.8010  156.2190 C   0  0  0  0  0  3  0  0  0  0  0  0
  161.9890  210.2740  156.9570 C   0  0  0  0  0  3  0  0  0  0  0  0
  162.3810  210.3970  155.6600 N   0  0  0  0  0  0  0  0  0  0  0  0
  1 21  1  1  0  0  0
  2  6  1  0  0  0  0
  2  1  1  0  0  0  0
  3 15  1  0  0  0  0
  4 13  1  0  0  0  0
  5 12  1  0  0  0  0
  7 12  1  0  0  0  0
  7 11  1  0  0  0  0
  8 19  1  0  0  0  0
 10  8  1  0  0  0  0
 11 13  2  0  0  0  0
 11 15  1  0  0  0  0
 12  4  2  0  0  0  0
 13 17  1  0  0  0  0
 14  3  1  6  0  0  0
 14  1  1  0  0  0  0
 15  2  2  0  0  0  0
 16 20  1  0  0  0  0
 16  8  1  0  0  0  0
 17  6  2  0  0  0  0
 19 14  1  0  0  0  0
 19 18  1  1  0  0  0
 20  9  1  1  0  0  0
 20  3  1  0  0  0  0
 21 23  1  0  0  0  0
 23 24  1  0  0  0  0
 23 27  2  0  0  0  0
 24 25  2  0  0  0  0
 25 22  1  0  0  0  0
 26 22  2  0  0  0  0
 27 26  1  0  0  0  0
M  END
>  <MODEL>
4

>  <REMARK>
 VINA RESULT:      -5.0      2.650      5.275
  Name = 
  2 active torsions:
  status: ('A' for Active; 'I' for Inactive)
    1  A    between atoms: C_1  and  N_15
    2  A    between atoms: C_9  and  N_15
                            x       y       z     vdW  Elec       q    Type
                         _______ _______ _______ _____ _____    ______ ____

>  <TORSDO>
F 2

$$$$
=
 OpenBabel11052423183D

 27 31  0  0  1  0  0  0  0  0999 V2000
  161.5920  210.0820  151.6910 C   0  0  2  0  0  3  0  0  0  0  0  0
  161.3340  210.5440  153.0850 C   0  0  0  0  0  0  0  0  0  0  0  0
  160.0310  211.9120  151.7620 N   0  0  0  0  0  0  0  0  0  0  0  0
  160.1680  212.3840  156.5880 N   0  0  0  0  0  0  0  0  0  0  0  0
  158.6430  214.2450  157.2590 C   0  0  0  0  0  1  0  0  0  0  0  0
  161.8910  210.0600  154.2810 C   0  0  0  0  0  3  0  0  0  0  0  0
  159.0220  213.4610  154.5870 S   0  0  0  0  0  0  0  0  0  0  0  0
  160.8260  212.9750  149.3040 N   0  0  0  0  0  0  0  0  0  0  0  0
  158.1160  212.9580  150.6750 C   0  0  0  0  0  1  0  0  0  0  0  0
  161.7230  213.7670  148.4730 C   0  0  0  0  0  1  0  0  0  0  0  0
  160.0810  212.1940  154.2780 C   0  0  0  0  0  0  0  0  0  0  0  0
  159.2910  213.3630  156.2560 C   0  0  0  0  0  0  0  0  0  0  0  0
  160.6060  211.7330  155.4800 C   0  0  0  0  0  0  0  0  0  0  0  0
  160.7120  211.0180  150.8220 C   0  0  1  0  0  3  0  0  0  0  0  0
  160.4530  211.5950  153.0760 C   0  0  0  0  0  0  0  0  0  0  0  0
  160.4280  213.8700  150.3940 C   0  0  0  0  0  2  0  0  0  0  0  0
  161.5170  210.6640  155.5010 C   0  0  0  0  0  3  0  0  0  0  0  0
  162.0360  210.9040  148.7320 C   0  0  0  0  0  1  0  0  0  0  0  0
  161.5820  211.8330  149.8530 C   0  0  1  0  0  3  0  0  0  0  0  0
  159.4580  213.1840  151.3490 C   0  0  2  0  0  3  0  0  0  0  0  0
  161.2100  208.6800  151.5120 N   0  0  0  0  0  2  0  0  0  0  0  0
  161.7730  206.3980  148.0170 C   0  0  0  0  0  3  0  0  0  0  0  0
  161.4060  207.9050  150.3230 C   0  0  0  0  0  0  0  0  0  0  0  0
  160.4600  206.9390  149.9730 C   0  0  0  0  0  3  0  0  0  0  0  0
  160.6470  206.1830  148.8150 C   0  0  0  0  0  3  0  0  0  0  0  0
  162.6980  207.3730  148.3970 C   0  0  0  0  0  3  0  0  0  0  0  0
  162.4980  208.0990  149.5300 N   0  0  0  0  0  0  0  0  0  0  0  0
  1 21  1  1  0  0  0
  1  2  1  0  0  0  0
  2  6  1  0  0  0  0
  3 15  1  0  0  0  0
  6 17  2  0  0  0  0
  7 12  1  0  0  0  0
  8 19  1  0  0  0  0
  8 16  1  0  0  0  0
 10  8  1  0  0  0  0
 11  7  1  0  0  0  0
 11 13  2  0  0  0  0
 12  4  2  0  0  0  0
 12  5  1  0  0  0  0
 13 17  1  0  0  0  0
 13  4  1  0  0  0  0
 14  1  1  0  0  0  0
 14  3  1  1  0  0  0
 15  2  2  0  0  0  0
 15 11  1  0  0  0  0
 16 20  1  0  0  0  0
 19 18  1  6  0  0  0
 19 14  1  0  0  0  0
 20  9  1  6  0  0  0
 20  3  1  0  0  0  0
 22 26  2  0  0  0  0
 22 25  1  0  0  0  0
 23 21  1  0  0  0  0
 24 23  1  0  0  0  0
 25 24  2  0  0  0  0
 26 27  1  0  0  0  0
 27 23  2  0  0  0  0
M  END
>  <MODEL>
5

>  <REMARK>
 VINA RESULT:      -4.6      2.974      7.490
  Name = 
  2 active torsions:
  status: ('A' for Active; 'I' for Inactive)
    1  A    between atoms: C_1  and  N_15
    2  A    between atoms: C_9  and  N_15
                            x       y       z     vdW  Elec       q    Type
                         _______ _______ _______ _____ _____    ______ ____

>  <TORSDO>
F 2

$$$$
=
 OpenBabel11052423183D

 27 31  0  0  1  0  0  0  0  0999 V2000
  161.0540  206.7740  151.9550 C   0  0  2  0  0  3  0  0  0  0  0  0
  161.2330  207.6150  150.7350 C   0  0  0  0  0  0  0  0  0  0  0  0
  161.8380  208.9860  152.4880 N   0  0  0  0  0  0  0  0  0  0  0  0
  161.9130  210.5180  147.8860 N   0  0  0  0  0  0  0  0  0  0  0  0
  162.6990  212.8890  147.8380 C   0  0  0  0  0  1  0  0  0  0  0  0
  160.9860  207.2700  149.3950 C   0  0  0  0  0  3  0  0  0  0  0  0
  162.4270  211.4100  150.2130 S   0  0  0  0  0  0  0  0  0  0  0  0
  160.5220  209.1000  154.9480 N   0  0  0  0  0  0  0  0  0  0  0  0
  163.1480  210.3280  154.0450 C   0  0  0  0  0  1  0  0  0  0  0  0
  159.3360  209.3180  155.7660 C   0  0  0  0  0  1  0  0  0  0  0  0
  161.8840  209.8250  150.0990 C   0  0  0  0  0  0  0  0  0  0  0  0
  162.3420  211.6270  148.5360 C   0  0  0  0  0  0  0  0  0  0  0  0
  161.6590  209.5130  148.7630 C   0  0  0  0  0  0  0  0  0  0  0  0
  161.4610  207.7180  153.1170 C   0  0  1  0  0  3  0  0  0  0  0  0
  161.6650  208.8680  151.0880 C   0  0  0  0  0  0  0  0  0  0  0  0
  160.6480  210.3090  154.1300 C   0  0  0  0  0  2  0  0  0  0  0  0
  161.2060  208.2360  148.3910 C   0  0  0  0  0  3  0  0  0  0  0  0
  160.1120  206.6680  154.9090 C   0  0  0  0  0  1  0  0  0  0  0  0
  160.2810  207.9350  154.0760 C   0  0  1  0  0  3  0  0  0  0  0  0
  161.8730  210.2400  153.2250 C   0  0  2  0  0  3  0  0  0  0  0  0
  161.9070  205.5860  151.9160 N   0  0  0  0  0  2  0  0  0  0  0  0
  160.8960  201.8950  150.1590 C   0  0  0  0  0  3  0  0  0  0  0  0
  161.5620  204.3280  151.3230 C   0  0  0  0  0  0  0  0  0  0  0  0
  161.2050  204.2850  149.9730 C   0  0  0  0  0  3  0  0  0  0  0  0
  160.8690  203.0610  149.3910 C   0  0  0  0  0  3  0  0  0  0  0  0
  161.2580  201.9750  151.5050 C   0  0  0  0  0  3  0  0  0  0  0  0
  161.5810  203.1780  152.0530 N   0  0  0  0  0  0  0  0  0  0  0  0
  1 21  1  6  0  0  0
  1 14  1  0  0  0  0
  2 15  1  0  0  0  0
  2  1  1  0  0  0  0
  3 20  1  0  0  0  0
  4 12  2  0  0  0  0
  4 13  1  0  0  0  0
  5 12  1  0  0  0  0
  6  2  2  0  0  0  0
  8 10  1  0  0  0  0
 11  7  1  0  0  0  0
 11 15  2  0  0  0  0
 12  7  1  0  0  0  0
 13 11  1  0  0  0  0
 14  3  1  6  0  0  0
 14 19  1  0  0  0  0
 15  3  1  0  0  0  0
 16  8  1  0  0  0  0
 17 13  2  0  0  0  0
 17  6  1  0  0  0  0
 19 18  1  1  0  0  0
 19  8  1  0  0  0  0
 20  9  1  1  0  0  0
 20 16  1  0  0  0  0
 22 26  2  0  0  0  0
 23 21  1  0  0  0  0
 23 27  2  0  0  0  0
 24 23  1  0  0  0  0
 25 24  2  0  0  0  0
 25 22  1  0  0  0  0
 26 27  1  0  0  0  0
M  END
>  <MODEL>
6

>  <REMARK>
 VINA RESULT:      -4.6      2.680      6.610
  Name = 
  2 active torsions:
  status: ('A' for Active; 'I' for Inactive)
    1  A    between atoms: C_1  and  N_15
    2  A    between atoms: C_9  and  N_15
                            x       y       z     vdW  Elec       q    Type
                         _______ _______ _______ _____ _____    ______ ____

>  <TORSDO>
F 2

$$$$
=
 OpenBabel11052423183D

 27 31  0  0  1  0  0  0  0  0999 V2000
  161.4910  210.6300  139.5090 C   0  0  2  0  0  3  0  0  0  0  0  0
  160.2870  210.0850  138.8180 C   0  0  0  0  0  0  0  0  0  0  0  0
  159.6120  212.1250  139.6540 N   0  0  0  0  0  0  0  0  0  0  0  0
  156.5950  209.2360  137.1860 N   0  0  0  0  0  0  0  0  0  0  0  0
  154.3670  210.3530  137.0180 C   0  0  0  0  0  1  0  0  0  0  0  0
  160.1470  208.8560  138.1510 C   0  0  0  0  0  3  0  0  0  0  0  0
  156.5650  211.5060  138.3370 S   0  0  0  0  0  0  0  0  0  0  0  0
  160.3250  213.1340  142.1590 N   0  0  0  0  0  0  0  0  0  0  0  0
  158.9090  214.4530  139.8190 C   0  0  0  0  0  1  0  0  0  0  0  0
  160.3780  213.0530  143.6120 C   0  0  0  0  0  1  0  0  0  0  0  0
  158.0050  210.6420  138.3760 C   0  0  0  0  0  0  0  0  0  0  0  0
  155.7850  210.2880  137.4560 C   0  0  0  0  0  0  0  0  0  0  0  0
  157.8350  209.4380  137.7010 C   0  0  0  0  0  0  0  0  0  0  0  0
  161.0110  211.9960  140.0670 C   0  0  1  0  0  3  0  0  0  0  0  0
  159.2390  210.9610  138.9390 C   0  0  0  0  0  0  0  0  0  0  0  0
  158.9110  212.9520  141.8200 C   0  0  0  0  0  2  0  0  0  0  0  0
  158.8990  208.5290  137.5800 C   0  0  0  0  0  3  0  0  0  0  0  0
  162.5870  212.1720  141.9690 C   0  0  0  0  0  1  0  0  0  0  0  0
  161.1150  212.0210  141.5990 C   0  0  1  0  0  3  0  0  0  0  0  0
  158.6880  213.0350  140.3140 C   0  0  2  0  0  3  0  0  0  0  0  0
  162.6100  210.8020  138.5810 N   0  0  0  0  0  2  0  0  0  0  0  0
  164.4790  214.4510  137.6220 C   0  0  0  0  0  3  0  0  0  0  0  0
  163.2420  212.0450  138.2530 C   0  0  0  0  0  0  0  0  0  0  0  0
  164.4410  212.3880  138.8810 C   0  0  0  0  0  3  0  0  0  0  0  0
  165.0600  213.5990  138.5630 C   0  0  0  0  0  3  0  0  0  0  0  0
  163.2800  214.0750  137.0140 C   0  0  0  0  0  3  0  0  0  0  0  0
  162.6920  212.8920  137.3380 N   0  0  0  0  0  0  0  0  0  0  0  0
  1 21  1  6  0  0  0
  1 14  1  0  0  0  0
  2 15  1  0  0  0  0
  2  1  1  0  0  0  0
  3 20  1  0  0  0  0
  4 12  2  0  0  0  0
  4 13  1  0  0  0  0
  5 12  1  0  0  0  0
  6  2  2  0  0  0  0
  7 11  1  0  0  0  0
  8 10  1  0  0  0  0
 11 15  2  0  0  0  0
 12  7  1  0  0  0  0
 13 11  1  0  0  0  0
 14  3  1  1  0  0  0
 14 19  1  0  0  0  0
 15  3  1  0  0  0  0
 16  8  1  0  0  0  0
 17 13  2  0  0  0  0
 17  6  1  0  0  0  0
 19 18  1  6  0  0  0
 19  8  1  0  0  0  0
 20  9  1  6  0  0  0
 20 16  1  0  0  0  0
 22 25  1  0  0  0  0
 23 21  1  0  0  0  0
 23 24  1  0  0  0  0
 25 24  2  0  0  0  0
 26 27  1  0  0  0  0
 26 22  2  0  0  0  0
 27 23  2  0  0  0  0
M  END
>  <MODEL>
7

>  <REMARK>
 VINA RESULT:      -4.5     12.719     15.332
  Name = 
  2 active torsions:
  status: ('A' for Active; 'I' for Inactive)
    1  A    between atoms: C_1  and  N_15
    2  A    between atoms: C_9  and  N_15
                            x       y       z     vdW  Elec       q    Type
                         _______ _______ _______ _____ _____    ______ ____

>  <TORSDO>
F 2

$$$$
