=
 OpenBabel11062407473D

 34 38  0  0  1  0  0  0  0  0999 V2000
  160.6700  209.2930  152.5940 C   0  0  1  0  0  0  0  0  0  0  0  0
  161.3110  208.0490  154.9770 S   0  0  0  0  0  0  0  0  0  0  0  0
  160.8440  207.8150  152.2880 C   0  0  0  0  0  2  0  0  0  0  0  0
  159.5630  209.7860  151.9020 O   0  0  0  0  0  1  0  0  0  0  0  0
  161.6750  207.2030  153.4030 C   0  0  2  0  0  3  0  0  0  0  0  0
  160.3990  209.3620  154.0940 C   0  0  1  0  0  3  0  0  0  0  0  0
  158.3870  211.3200  156.1670 C   0  0  0  0  0  0  0  0  0  0  0  0
  158.8220  212.6600  154.1560 C   0  0  0  0  0  0  0  0  0  0  0  0
  160.4340  210.7640  154.7290 C   0  0  1  0  0  3  0  0  0  0  0  0
  156.8780  213.1640  155.5750 C   0  0  0  0  0  3  0  0  0  0  0  0
  157.7120  213.5330  154.5910 C   0  0  0  0  0  3  0  0  0  0  0  0
  158.9980  211.3080  154.7940 C   0  0  1  0  0  3  0  0  0  0  0  0
  156.9880  211.8280  156.2720 C   0  0  0  0  0  2  0  0  0  0  0  0
  161.1810  210.8240  156.0460 C   0  0  0  0  0  0  0  0  0  0  0  0
  159.1360  211.2010  157.2610 C   0  0  0  0  0  3  0  0  0  0  0  0
  159.5680  213.0270  153.2090 O   0  0  0  0  0  0  0  0  0  0  0  0
  162.5990  210.6550  156.0440 N   0  0  0  0  0  2  0  0  0  0  0  0
  160.5470  210.9740  157.1730 N   0  0  0  0  0  0  0  0  0  0  0  0
  163.3940  210.6690  157.2610 C   0  0  0  0  0  2  0  0  0  0  0  0
  164.5110  211.4800  157.0750 O   0  0  0  0  0  1  0  0  0  0  0  0
  161.4670  205.6950  153.5030 C   0  0  0  0  0  2  0  0  0  0  0  0
  160.6350  205.1490  152.3430 C   0  0  0  0  0  2  0  0  0  0  0  0
  161.3900  205.9050  149.5860 O   0  0  0  0  0  0  0  0  0  0  0  0
  161.4660  204.3070  151.3790 C   0  0  2  0  0  3  0  0  0  0  0  0
  161.2550  204.7040  149.9350 C   0  0  0  0  0  0  0  0  0  0  0  0
  160.7930  202.4080  149.2660 C   0  0  0  0  0  3  0  0  0  0  0  0
  160.9670  201.9670  150.6600 C   0  0  0  0  0  3  0  0  0  0  0  0
  161.2670  202.8320  151.6330 C   0  0  0  0  0  3  0  0  0  0  0  0
  160.9250  203.6890  148.9230 C   0  0  0  0  0  3  0  0  0  0  0  0
  161.9240  210.0780  152.2000 C   0  0  0  0  0  2  0  0  0  0  0  0
  162.3380  210.4070  149.7170 C   0  0  1  0  0  3  0  0  0  0  0  0
  162.5660  209.5480  150.9170 C   0  0  2  0  0  3  0  0  0  0  0  0
  161.5570  209.2670  149.9770 O   0  0  0  0  0  0  0  0  0  0  0  0
  161.5900  211.5550  149.9990 O   0  0  0  0  0  1  0  0  0  0  0  0
  1  4  1  6  0  0  0
  1  6  1  0  0  0  0
  3  1  1  0  0  0  0
  3  5  1  0  0  0  0
  5 21  1  1  0  0  0
  5  2  1  0  0  0  0
  6  9  1  0  0  0  0
  6  2  1  1  0  0  0
  7 13  1  0  0  0  0
  7 15  2  0  0  0  0
  8 11  1  0  0  0  0
  9 12  1  0  0  0  0
  9 14  1  1  0  0  0
 10 13  1  0  0  0  0
 11 10  2  0  0  0  0
 12  8  1  1  0  0  0
 12  7  1  0  0  0  0
 14 18  2  0  0  0  0
 16  8  2  0  0  0  0
 17 14  1  0  0  0  0
 17 19  1  0  0  0  0
 18 15  1  0  0  0  0
 20 19  1  0  0  0  0
 22 21  1  0  0  0  0
 23 25  2  0  0  0  0
 24 28  1  0  0  0  0
 24 22  1  1  0  0  0
 25 24  1  0  0  0  0
 26 27  1  0  0  0  0
 27 28  2  0  0  0  0
 29 26  2  0  0  0  0
 29 25  1  0  0  0  0
 30  1  1  0  0  0  0
 31 33  1  0  0  0  0
 31 34  1  1  0  0  0
 31 32  1  0  0  0  0
 32 30  1  1  0  0  0
 33 32  1  0  0  0  0
M  END
>  <MODEL>
1

>  <REMARK>
 VINA RESULT:      -6.6      0.000      0.000
  Name = 
  7 active torsions:
  status: ('A' for Active; 'I' for Inactive)
    1  A    between atoms: C_3  and  C_13
    2  A    between atoms: C_3  and  C_17
    3  A    between atoms: C_4  and  C_31
    4  A    between atoms: C_5  and  C_27
    5  A    between atoms: C_8  and  C_27
    6  A    between atoms: C_12  and  N_28
    7  A    between atoms: C_17  and  C_29
                            x       y       z     vdW  Elec       q    Type
                         _______ _______ _______ _____ _____    ______ ____

>  <TORSDO>
F 7

$$$$
=
 OpenBabel11062407473D

 34 38  0  0  1  0  0  0  0  0999 V2000
  161.6480  210.2720  151.6120 C   0  0  1  0  0  0  0  0  0  0  0  0
  159.7940  212.3180  151.5040 S   0  0  0  0  0  0  0  0  0  0  0  0
  161.9360  211.0620  150.3470 C   0  0  0  0  0  2  0  0  0  0  0  0
  162.8500  209.9410  152.2400 O   0  0  0  0  0  1  0  0  0  0  0  0
  160.6790  211.8350  149.9840 C   0  0  2  0  0  3  0  0  0  0  0  0
  160.8560  211.2210  152.5060 C   0  0  1  0  0  3  0  0  0  0  0  0
  161.4690  211.0680  155.9380 C   0  0  0  0  0  0  0  0  0  0  0  0
  161.2570  208.7460  155.1670 C   0  0  0  0  0  0  0  0  0  0  0  0
  160.2090  210.5990  153.7560 C   0  0  1  0  0  3  0  0  0  0  0  0
  162.4460  209.2450  157.2610 C   0  0  0  0  0  3  0  0  0  0  0  0
  161.8670  208.3450  156.4520 C   0  0  0  0  0  3  0  0  0  0  0  0
  161.3230  210.1860  154.7300 C   0  0  1  0  0  3  0  0  0  0  0  0
  162.5500  210.7090  156.9030 C   0  0  0  0  0  2  0  0  0  0  0  0
  159.1270  211.4570  154.3800 C   0  0  0  0  0  0  0  0  0  0  0  0
  160.5060  211.9110  156.3020 C   0  0  0  0  0  3  0  0  0  0  0  0
  160.7470  207.8690  154.4190 O   0  0  0  0  0  0  0  0  0  0  0  0
  157.8950  211.6330  153.6790 N   0  0  0  0  0  2  0  0  0  0  0  0
  159.3230  212.0730  155.5100 N   0  0  0  0  0  0  0  0  0  0  0  0
  156.8130  212.4600  154.1860 C   0  0  0  0  0  2  0  0  0  0  0  0
  155.9570  211.6800  154.9600 O   0  0  0  0  0  1  0  0  0  0  0  0
  160.9890  213.0360  149.0960 C   0  0  0  0  0  2  0  0  0  0  0  0
  159.9960  214.1790  149.3020 C   0  0  0  0  0  2  0  0  0  0  0  0
  157.1180  213.5040  149.3180 O   0  0  0  0  0  0  0  0  0  0  0  0
  159.0340  214.3310  148.1270 C   0  0  2  0  0  3  0  0  0  0  0  0
  157.8090  213.4570  148.2670 C   0  0  0  0  0  0  0  0  0  0  0  0
  158.1000  212.5160  146.0390 C   0  0  0  0  0  3  0  0  0  0  0  0
  159.3140  213.3300  145.8560 C   0  0  0  0  0  3  0  0  0  0  0  0
  159.7510  214.1560  146.8110 C   0  0  0  0  0  3  0  0  0  0  0  0
  157.3940  212.5720  147.1680 C   0  0  0  0  0  3  0  0  0  0  0  0
  160.8610  208.9980  151.2870 C   0  0  0  0  0  2  0  0  0  0  0  0
  161.9090  207.2350  149.7900 C   0  0  1  0  0  3  0  0  0  0  0  0
  161.7620  207.7670  151.1790 C   0  0  2  0  0  3  0  0  0  0  0  0
  161.0040  206.6770  150.7110 O   0  0  0  0  0  0  0  0  0  0  0  0
  161.2040  207.9810  148.8410 O   0  0  0  0  0  1  0  0  0  0  0  0
  1  4  1  1  0  0  0
  1  6  1  0  0  0  0
  3  1  1  0  0  0  0
  5 21  1  1  0  0  0
  5  3  1  0  0  0  0
  5  2  1  0  0  0  0
  6  2  1  6  0  0  0
  6  9  1  0  0  0  0
  7 15  2  0  0  0  0
  7 13  1  0  0  0  0
  8 11  1  0  0  0  0
  9 14  1  1  0  0  0
  9 12  1  0  0  0  0
 11 10  2  0  0  0  0
 12  8  1  1  0  0  0
 12  7  1  0  0  0  0
 13 10  1  0  0  0  0
 14 18  2  0  0  0  0
 16  8  2  0  0  0  0
 17 19  1  0  0  0  0
 17 14  1  0  0  0  0
 18 15  1  0  0  0  0
 19 20  1  0  0  0  0
 21 22  1  0  0  0  0
 24 25  1  0  0  0  0
 24 22  1  1  0  0  0
 25 23  2  0  0  0  0
 26 29  2  0  0  0  0
 27 26  1  0  0  0  0
 27 28  2  0  0  0  0
 28 24  1  0  0  0  0
 29 25  1  0  0  0  0
 30  1  1  0  0  0  0
 31 34  1  6  0  0  0
 31 33  1  0  0  0  0
 31 32  1  0  0  0  0
 32 30  1  6  0  0  0
 33 32  1  0  0  0  0
M  END
>  <MODEL>
2

>  <REMARK>
 VINA RESULT:      -5.5      3.355      6.621
  Name = 
  7 active torsions:
  status: ('A' for Active; 'I' for Inactive)
    1  A    between atoms: C_3  and  C_13
    2  A    between atoms: C_3  and  C_17
    3  A    between atoms: C_4  and  C_31
    4  A    between atoms: C_5  and  C_27
    5  A    between atoms: C_8  and  C_27
    6  A    between atoms: C_12  and  N_28
    7  A    between atoms: C_17  and  C_29
                            x       y       z     vdW  Elec       q    Type
                         _______ _______ _______ _____ _____    ______ ____

>  <TORSDO>
F 7

$$$$
=
 OpenBabel11062407473D

 34 38  0  0  1  0  0  0  0  0999 V2000
  160.0230  210.9190  152.3140 C   0  0  1  0  0  0  0  0  0  0  0  0
  162.0970  209.5910  153.5660 S   0  0  0  0  0  0  0  0  0  0  0  0
  160.5090  209.8530  151.3490 C   0  0  0  0  0  2  0  0  0  0  0  0
  158.6280  210.9640  152.2980 O   0  0  0  0  0  1  0  0  0  0  0  0
  161.9230  209.4660  151.7550 C   0  0  2  0  0  3  0  0  0  0  0  0
  160.4970  210.4620  153.6910 C   0  0  1  0  0  3  0  0  0  0  0  0
  158.2610  211.1890  156.2700 C   0  0  0  0  0  0  0  0  0  0  0  0
  158.5350  213.2630  154.9850 C   0  0  0  0  0  0  0  0  0  0  0  0
  160.3620  211.4850  154.8320 C   0  0  1  0  0  3  0  0  0  0  0  0
  156.5420  212.9380  156.3870 C   0  0  0  0  0  3  0  0  0  0  0  0
  157.3280  213.7600  155.6760 C   0  0  0  0  0  3  0  0  0  0  0  0
  158.8710  211.7960  155.0380 C   0  0  1  0  0  3  0  0  0  0  0  0
  156.8100  211.4550  156.4990 C   0  0  0  0  0  2  0  0  0  0  0  0
  161.0940  211.0910  156.0990 C   0  0  0  0  0  0  0  0  0  0  0  0
  159.0160  210.7220  157.2600 C   0  0  0  0  0  3  0  0  0  0  0  0
  159.2340  214.0590  154.3020 O   0  0  0  0  0  0  0  0  0  0  0  0
  162.5230  211.0940  156.1010 N   0  0  0  0  0  2  0  0  0  0  0  0
  160.4450  210.7050  157.1600 N   0  0  0  0  0  0  0  0  0  0  0  0
  163.3070  210.7030  157.2610 C   0  0  0  0  0  2  0  0  0  0  0  0
  164.5240  211.3800  157.2450 O   0  0  0  0  0  1  0  0  0  0  0  0
  162.3020  208.0830  151.2380 C   0  0  0  0  0  2  0  0  0  0  0  0
  161.3270  207.0030  151.7040 C   0  0  0  0  0  2  0  0  0  0  0  0
  160.4940  204.1690  151.5890 O   0  0  0  0  0  0  0  0  0  0  0  0
  160.6100  206.3260  150.5380 C   0  0  2  0  0  3  0  0  0  0  0  0
  160.7760  204.8240  150.5520 C   0  0  0  0  0  0  0  0  0  0  0  0
  161.5230  204.7820  148.2340 C   0  0  0  0  0  3  0  0  0  0  0  0
  161.4000  206.2480  148.1700 C   0  0  0  0  0  3  0  0  0  0  0  0
  160.9900  206.9620  149.2230 C   0  0  0  0  0  3  0  0  0  0  0  0
  161.2330  204.1120  149.3490 C   0  0  0  0  0  3  0  0  0  0  0  0
  160.5930  212.2910  151.9370 C   0  0  0  0  0  2  0  0  0  0  0  0
  160.0570  213.3580  149.6960 C   0  0  1  0  0  3  0  0  0  0  0  0
  159.6140  213.1200  151.1040 C   0  0  2  0  0  3  0  0  0  0  0  0
  160.2410  214.3170  150.7090 O   0  0  0  0  0  0  0  0  0  0  0  0
  161.2840  212.7570  149.3990 O   0  0  0  0  0  1  0  0  0  0  0  0
  1  4  1  6  0  0  0
  1  6  1  0  0  0  0
  3  5  1  0  0  0  0
  3  1  1  0  0  0  0
  5 21  1  1  0  0  0
  5  2  1  0  0  0  0
  6  2  1  6  0  0  0
  6  9  1  0  0  0  0
  7 13  1  0  0  0  0
  7 15  2  0  0  0  0
  8 11  1  0  0  0  0
  9 12  1  0  0  0  0
  9 14  1  1  0  0  0
 10 13  1  0  0  0  0
 11 10  2  0  0  0  0
 12  8  1  1  0  0  0
 12  7  1  0  0  0  0
 14 17  1  0  0  0  0
 14 18  2  0  0  0  0
 16  8  2  0  0  0  0
 17 19  1  0  0  0  0
 18 15  1  0  0  0  0
 20 19  1  0  0  0  0
 21 22  1  0  0  0  0
 24 25  1  0  0  0  0
 24 22  1  1  0  0  0
 25 23  2  0  0  0  0
 26 29  2  0  0  0  0
 27 26  1  0  0  0  0
 27 28  2  0  0  0  0
 28 24  1  0  0  0  0
 29 25  1  0  0  0  0
 30  1  1  0  0  0  0
 31 34  1  1  0  0  0
 31 33  1  0  0  0  0
 31 32  1  0  0  0  0
 32 30  1  1  0  0  0
 33 32  1  0  0  0  0
M  END
>  <MODEL>
3

>  <REMARK>
 VINA RESULT:      -5.5      1.634      2.360
  Name = 
  7 active torsions:
  status: ('A' for Active; 'I' for Inactive)
    1  A    between atoms: C_3  and  C_13
    2  A    between atoms: C_3  and  C_17
    3  A    between atoms: C_4  and  C_31
    4  A    between atoms: C_5  and  C_27
    5  A    between atoms: C_8  and  C_27
    6  A    between atoms: C_12  and  N_28
    7  A    between atoms: C_17  and  C_29
                            x       y       z     vdW  Elec       q    Type
                         _______ _______ _______ _____ _____    ______ ____

>  <TORSDO>
F 7

$$$$
=
 OpenBabel11062407473D

 34 38  0  0  1  0  0  0  0  0999 V2000
  161.6970  210.2480  151.6340 C   0  0  1  0  0  0  0  0  0  0  0  0
  159.8890  212.3240  151.3930 S   0  0  0  0  0  0  0  0  0  0  0  0
  162.0330  210.9780  150.3460 C   0  0  0  0  0  2  0  0  0  0  0  0
  162.8750  209.9190  152.3070 O   0  0  0  0  0  1  0  0  0  0  0  0
  160.8020  211.7600  149.9180 C   0  0  2  0  0  3  0  0  0  0  0  0
  160.9020  211.2490  152.4670 C   0  0  1  0  0  3  0  0  0  0  0  0
  161.4940  211.1120  155.9040 C   0  0  0  0  0  0  0  0  0  0  0  0
  161.1280  208.7980  155.1700 C   0  0  0  0  0  0  0  0  0  0  0  0
  160.2120  210.6930  153.7250 C   0  0  1  0  0  3  0  0  0  0  0  0
  162.3420  209.2490  157.2600 C   0  0  0  0  0  3  0  0  0  0  0  0
  161.7060  208.3770  156.4630 C   0  0  0  0  0  3  0  0  0  0  0  0
  161.2930  210.2220  154.7100 C   0  0  1  0  0  3  0  0  0  0  0  0
  162.5460  210.6970  156.8780 C   0  0  0  0  0  2  0  0  0  0  0  0
  159.1880  211.6330  154.3300 C   0  0  0  0  0  0  0  0  0  0  0  0
  160.5890  212.0240  156.2500 C   0  0  0  0  0  3  0  0  0  0  0  0
  160.5620  207.9450  154.4350 O   0  0  0  0  0  0  0  0  0  0  0  0
  157.9720  211.8790  153.6220 N   0  0  0  0  0  2  0  0  0  0  0  0
  159.4220  212.2520  155.4510 N   0  0  0  0  0  0  0  0  0  0  0  0
  156.9480  212.7860  154.1110 C   0  0  0  0  0  2  0  0  0  0  0  0
  156.1050  212.1040  154.9850 O   0  0  0  0  0  1  0  0  0  0  0  0
  161.1590  212.9160  148.9900 C   0  0  0  0  0  2  0  0  0  0  0  0
  161.7430  212.4340  147.6630 C   0  0  0  0  0  2  0  0  0  0  0  0
  158.9380  212.3970  146.7300 O   0  0  0  0  0  0  0  0  0  0  0  0
  161.1860  213.2040  146.4690 C   0  0  2  0  0  3  0  0  0  0  0  0
  159.8990  212.6080  145.9460 C   0  0  0  0  0  0  0  0  0  0  0  0
  160.7450  212.5310  143.6630 C   0  0  0  0  0  3  0  0  0  0  0  0
  162.0280  213.0900  144.1210 C   0  0  0  0  0  3  0  0  0  0  0  0
  162.2390  213.3940  145.4050 C   0  0  0  0  0  3  0  0  0  0  0  0
  159.7470  212.3020  144.5160 C   0  0  0  0  0  3  0  0  0  0  0  0
  160.8910  208.9780  151.3420 C   0  0  0  0  0  2  0  0  0  0  0  0
  161.8710  207.0830  149.9640 C   0  0  1  0  0  3  0  0  0  0  0  0
  161.7690  207.7250  151.3090 C   0  0  2  0  0  3  0  0  0  0  0  0
  160.9810  206.6160  150.9480 O   0  0  0  0  0  0  0  0  0  0  0  0
  161.1540  207.7650  148.9760 O   0  0  0  0  0  1  0  0  0  0  0  0
  1  4  1  1  0  0  0
  1  6  1  0  0  0  0
  3  1  1  0  0  0  0
  5 21  1  1  0  0  0
  5  3  1  0  0  0  0
  5  2  1  0  0  0  0
  6  2  1  6  0  0  0
  6  9  1  0  0  0  0
  7 15  2  0  0  0  0
  7 13  1  0  0  0  0
  8 11  1  0  0  0  0
  9 14  1  1  0  0  0
  9 12  1  0  0  0  0
 11 10  2  0  0  0  0
 12  8  1  1  0  0  0
 12  7  1  0  0  0  0
 13 10  1  0  0  0  0
 14 18  2  0  0  0  0
 16  8  2  0  0  0  0
 17 19  1  0  0  0  0
 17 14  1  0  0  0  0
 18 15  1  0  0  0  0
 19 20  1  0  0  0  0
 22 21  1  0  0  0  0
 24 22  1  1  0  0  0
 25 24  1  0  0  0  0
 25 23  2  0  0  0  0
 26 27  1  0  0  0  0
 26 29  2  0  0  0  0
 27 28  2  0  0  0  0
 28 24  1  0  0  0  0
 29 25  1  0  0  0  0
 30  1  1  0  0  0  0
 31 34  1  6  0  0  0
 31 33  1  0  0  0  0
 31 32  1  0  0  0  0
 32 30  1  6  0  0  0
 33 32  1  0  0  0  0
M  END
>  <MODEL>
4

>  <REMARK>
 VINA RESULT:      -5.5      3.265      6.535
  Name = 
  7 active torsions:
  status: ('A' for Active; 'I' for Inactive)
    1  A    between atoms: C_3  and  C_13
    2  A    between atoms: C_3  and  C_17
    3  A    between atoms: C_4  and  C_31
    4  A    between atoms: C_5  and  C_27
    5  A    between atoms: C_8  and  C_27
    6  A    between atoms: C_12  and  N_28
    7  A    between atoms: C_17  and  C_29
                            x       y       z     vdW  Elec       q    Type
                         _______ _______ _______ _____ _____    ______ ____

>  <TORSDO>
F 7

$$$$
=
 OpenBabel11062407473D

 34 38  0  0  1  0  0  0  0  0999 V2000
  160.2620  212.0920  141.4560 C   0  0  1  0  0  0  0  0  0  0  0  0
  159.6440  212.4900  138.7930 S   0  0  0  0  0  0  0  0  0  0  0  0
  158.9830  212.9090  141.4180 C   0  0  0  0  0  2  0  0  0  0  0  0
  160.1640  211.1160  142.4490 O   0  0  0  0  0  1  0  0  0  0  0  0
  158.8950  213.5740  140.0540 C   0  0  2  0  0  3  0  0  0  0  0  0
  160.3480  211.4160  140.0910 C   0  0  1  0  0  3  0  0  0  0  0  0
  161.5790  209.1760  137.7140 C   0  0  0  0  0  0  0  0  0  0  0  0
  162.0880  208.2060  139.9120 C   0  0  0  0  0  0  0  0  0  0  0  0
  161.6790  210.7210  139.7560 C   0  0  1  0  0  3  0  0  0  0  0  0
  161.9930  206.7650  137.9220 C   0  0  0  0  0  3  0  0  0  0  0  0
  162.3440  206.9330  139.2050 C   0  0  0  0  0  3  0  0  0  0  0  0
  161.3760  209.3230  139.1960 C   0  0  1  0  0  3  0  0  0  0  0  0
  161.2810  207.8360  137.1280 C   0  0  0  0  0  2  0  0  0  0  0  0
  162.6030  211.5510  138.8870 C   0  0  0  0  0  0  0  0  0  0  0  0
  162.2830  210.0650  137.0190 C   0  0  0  0  0  3  0  0  0  0  0  0
  162.4060  208.3180  141.1260 O   0  0  0  0  0  0  0  0  0  0  0  0
  163.2100  212.7190  139.4430 N   0  0  0  0  0  2  0  0  0  0  0  0
  162.8090  211.2440  137.6390 N   0  0  0  0  0  0  0  0  0  0  0  0
  164.0860  213.5890  138.6760 C   0  0  0  0  0  2  0  0  0  0  0  0
  164.9790  214.2230  139.5370 O   0  0  0  0  0  1  0  0  0  0  0  0
  157.4610  213.9560  139.7010 C   0  0  0  0  0  2  0  0  0  0  0  0
  156.7880  212.9140  138.8090 C   0  0  0  0  0  2  0  0  0  0  0  0
  157.1480  209.9820  138.9240 O   0  0  0  0  0  0  0  0  0  0  0  0
  155.9270  211.9370  139.6050 C   0  0  2  0  0  3  0  0  0  0  0  0
  156.0220  210.5230  139.0790 C   0  0  0  0  0  0  0  0  0  0  0  0
  153.5990  210.3020  138.9480 C   0  0  0  0  0  3  0  0  0  0  0  0
  153.4490  211.6820  139.4370 C   0  0  0  0  0  3  0  0  0  0  0  0
  154.5100  212.4380  139.7330 C   0  0  0  0  0  3  0  0  0  0  0  0
  154.8040  209.7560  138.7770 C   0  0  0  0  0  3  0  0  0  0  0  0
  161.4720  212.9920  141.7270 C   0  0  0  0  0  2  0  0  0  0  0  0
  162.1380  213.3850  144.1460 C   0  0  1  0  0  3  0  0  0  0  0  0
  162.2880  212.5250  142.9330 C   0  0  2  0  0  3  0  0  0  0  0  0
  163.2290  213.5180  143.2680 O   0  0  0  0  0  0  0  0  0  0  0  0
  161.2570  214.4530  143.9530 O   0  0  0  0  0  1  0  0  0  0  0  0
  1 30  1  0  0  0  0
  1  4  1  1  0  0  0
  2  5  1  0  0  0  0
  3  1  1  0  0  0  0
  5 21  1  6  0  0  0
  5  3  1  0  0  0  0
  6  2  1  6  0  0  0
  6  1  1  0  0  0  0
  8 16  2  0  0  0  0
  9 14  1  6  0  0  0
  9  6  1  0  0  0  0
 10 11  2  0  0  0  0
 11  8  1  0  0  0  0
 12  7  1  6  0  0  0
 12  9  1  0  0  0  0
 12  8  1  0  0  0  0
 13  7  1  0  0  0  0
 13 10  1  0  0  0  0
 14 17  1  0  0  0  0
 15 18  1  0  0  0  0
 15  7  2  0  0  0  0
 18 14  2  0  0  0  0
 19 17  1  0  0  0  0
 19 20  1  0  0  0  0
 22 21  1  0  0  0  0
 23 25  2  0  0  0  0
 24 22  1  6  0  0  0
 24 28  1  0  0  0  0
 25 24  1  0  0  0  0
 26 27  1  0  0  0  0
 27 28  2  0  0  0  0
 29 26  2  0  0  0  0
 29 25  1  0  0  0  0
 31 34  1  6  0  0  0
 32 30  1  6  0  0  0
 32 33  1  0  0  0  0
 32 31  1  0  0  0  0
 33 31  1  0  0  0  0
M  END
>  <MODEL>
5

>  <REMARK>
 VINA RESULT:      -4.8     11.674     15.191
  Name = 
  7 active torsions:
  status: ('A' for Active; 'I' for Inactive)
    1  A    between atoms: C_3  and  C_13
    2  A    between atoms: C_3  and  C_17
    3  A    between atoms: C_4  and  C_31
    4  A    between atoms: C_5  and  C_27
    5  A    between atoms: C_8  and  C_27
    6  A    between atoms: C_12  and  N_28
    7  A    between atoms: C_17  and  C_29
                            x       y       z     vdW  Elec       q    Type
                         _______ _______ _______ _____ _____    ______ ____

>  <TORSDO>
F 7

$$$$
=
 OpenBabel11062407473D

 34 38  0  0  1  0  0  0  0  0999 V2000
  160.6760  210.5600  154.2740 C   0  0  1  0  0  0  0  0  0  0  0  0
  159.9240  209.8080  151.7230 S   0  0  0  0  0  0  0  0  0  0  0  0
  161.7920  209.6880  153.7240 C   0  0  0  0  0  2  0  0  0  0  0  0
  161.2260  211.6450  154.9580 O   0  0  0  0  0  1  0  0  0  0  0  0
  161.2170  208.8560  152.5880 C   0  0  2  0  0  3  0  0  0  0  0  0
  159.9200  211.0650  153.0480 C   0  0  1  0  0  3  0  0  0  0  0  0
  158.6470  213.4590  155.2450 C   0  0  0  0  0  0  0  0  0  0  0  0
  157.1900  211.4920  155.4420 C   0  0  0  0  0  0  0  0  0  0  0  0
  158.5800  211.7710  153.3180 C   0  0  1  0  0  3  0  0  0  0  0  0
  157.2780  213.1460  157.2590 C   0  0  0  0  0  3  0  0  0  0  0  0
  156.6690  212.0980  156.6850 C   0  0  0  0  0  3  0  0  0  0  0  0
  158.4560  212.0280  154.8280 C   0  0  1  0  0  3  0  0  0  0  0  0
  158.5480  213.7490  156.7050 C   0  0  0  0  0  2  0  0  0  0  0  0
  158.3480  212.9970  152.4590 C   0  0  0  0  0  0  0  0  0  0  0  0
  158.5810  214.4530  154.3630 C   0  0  0  0  0  3  0  0  0  0  0  0
  156.6080  210.4910  154.9460 O   0  0  0  0  0  0  0  0  0  0  0  0
  158.1180  212.8270  151.0590 N   0  0  0  0  0  2  0  0  0  0  0  0
  158.4070  214.1950  152.9650 N   0  0  0  0  0  0  0  0  0  0  0  0
  157.9150  213.9460  150.1540 C   0  0  0  0  0  2  0  0  0  0  0  0
  156.5540  214.0860  149.8900 O   0  0  0  0  0  1  0  0  0  0  0  0
  162.3040  208.3700  151.6360 C   0  0  0  0  0  2  0  0  0  0  0  0
  162.4430  206.8480  151.6450 C   0  0  0  0  0  2  0  0  0  0  0  0
  161.1950  204.4000  152.7360 O   0  0  0  0  0  0  0  0  0  0  0  0
  161.2060  206.1490  151.0880 C   0  0  2  0  0  3  0  0  0  0  0  0
  161.1180  204.7020  151.5170 C   0  0  0  0  0  0  0  0  0  0  0  0
  160.8080  203.9360  149.2250 C   0  0  0  0  0  3  0  0  0  0  0  0
  160.9070  205.3260  148.7490 C   0  0  0  0  0  3  0  0  0  0  0  0
  161.0970  206.3430  149.5950 C   0  0  0  0  0  3  0  0  0  0  0  0
  160.9090  203.6400  150.5210 C   0  0  0  0  0  3  0  0  0  0  0  0
  159.7740  209.7540  155.2130 C   0  0  0  0  0  2  0  0  0  0  0  0
  160.6130  207.6320  156.3260 C   0  0  1  0  0  3  0  0  0  0  0  0
  160.5500  209.1240  156.3700 C   0  0  2  0  0  3  0  0  0  0  0  0
  159.6800  208.3160  157.1270 O   0  0  0  0  0  0  0  0  0  0  0  0
  159.9600  207.0890  155.2150 O   0  0  0  0  0  1  0  0  0  0  0  0
  1  4  1  1  0  0  0
  1 30  1  0  0  0  0
  2  5  1  0  0  0  0
  3  1  1  0  0  0  0
  5 21  1  6  0  0  0
  5  3  1  0  0  0  0
  6  2  1  6  0  0  0
  6  9  1  0  0  0  0
  6  1  1  0  0  0  0
  7 13  1  0  0  0  0
  8 11  1  0  0  0  0
  9 14  1  6  0  0  0
  9 12  1  0  0  0  0
 11 10  2  0  0  0  0
 12  7  1  6  0  0  0
 12  8  1  0  0  0  0
 13 10  1  0  0  0  0
 14 18  2  0  0  0  0
 15  7  2  0  0  0  0
 16  8  2  0  0  0  0
 17 14  1  0  0  0  0
 18 15  1  0  0  0  0
 19 17  1  0  0  0  0
 20 19  1  0  0  0  0
 21 22  1  0  0  0  0
 24 25  1  0  0  0  0
 24 22  1  6  0  0  0
 25 23  2  0  0  0  0
 26 29  2  0  0  0  0
 27 26  1  0  0  0  0
 27 28  2  0  0  0  0
 28 24  1  0  0  0  0
 29 25  1  0  0  0  0
 31 34  1  6  0  0  0
 31 32  1  0  0  0  0
 31 33  1  0  0  0  0
 32 30  1  6  0  0  0
 32 33  1  0  0  0  0
M  END
>  <MODEL>
6

>  <REMARK>
 VINA RESULT:      -4.7      2.830      4.614
  Name = 
  7 active torsions:
  status: ('A' for Active; 'I' for Inactive)
    1  A    between atoms: C_3  and  C_13
    2  A    between atoms: C_3  and  C_17
    3  A    between atoms: C_4  and  C_31
    4  A    between atoms: C_5  and  C_27
    5  A    between atoms: C_8  and  C_27
    6  A    between atoms: C_12  and  N_28
    7  A    between atoms: C_17  and  C_29
                            x       y       z     vdW  Elec       q    Type
                         _______ _______ _______ _____ _____    ______ ____

>  <TORSDO>
F 7

$$$$
=
 OpenBabel11062407473D

 34 38  0  0  1  0  0  0  0  0999 V2000
  160.5060  209.4350  138.4320 C   0  0  1  0  0  0  0  0  0  0  0  0
  158.5710  211.1170  139.4630 S   0  0  0  0  0  0  0  0  0  0  0  0
  159.1730  208.9680  137.8740 C   0  0  0  0  0  2  0  0  0  0  0  0
  161.4730  209.3960  137.4270 O   0  0  0  0  0  1  0  0  0  0  0  0
  158.0750  209.4990  138.7820 C   0  0  2  0  0  3  0  0  0  0  0  0
  160.2780  210.8820  138.8580 C   0  0  1  0  0  3  0  0  0  0  0  0
  162.2870  213.7330  138.7320 C   0  0  0  0  0  0  0  0  0  0  0  0
  163.8110  211.8180  138.9190 C   0  0  0  0  0  0  0  0  0  0  0  0
  161.3950  211.5310  139.6930 C   0  0  1  0  0  3  0  0  0  0  0  0
  164.6240  213.9550  138.0150 C   0  0  0  0  0  3  0  0  0  0  0  0
  164.8930  212.7370  138.5080 C   0  0  0  0  0  3  0  0  0  0  0  0
  162.3750  212.2330  138.7410 C   0  0  1  0  0  3  0  0  0  0  0  0
  163.2120  214.4530  137.8090 C   0  0  0  0  0  2  0  0  0  0  0  0
  160.8890  212.4090  140.8200 C   0  0  0  0  0  0  0  0  0  0  0  0
  161.6680  214.3970  139.7050 C   0  0  0  0  0  3  0  0  0  0  0  0
  164.1010  210.6700  139.3510 O   0  0  0  0  0  0  0  0  0  0  0  0
  160.2410  211.7960  141.9360 N   0  0  0  0  0  2  0  0  0  0  0  0
  160.9890  213.7060  140.7600 N   0  0  0  0  0  0  0  0  0  0  0  0
  159.6990  212.5610  143.0470 C   0  0  0  0  0  2  0  0  0  0  0  0
  159.6760  211.7650  144.1890 O   0  0  0  0  0  1  0  0  0  0  0  0
  156.7310  209.5670  138.0660 C   0  0  0  0  0  2  0  0  0  0  0  0
  155.8630  210.7190  138.5720 C   0  0  0  0  0  2  0  0  0  0  0  0
  153.6270  212.6390  138.8010 O   0  0  0  0  0  0  0  0  0  0  0  0
  154.3780  210.3680  138.5780 C   0  0  2  0  0  3  0  0  0  0  0  0
  153.5300  211.4510  139.2050 C   0  0  0  0  0  0  0  0  0  0  0  0
  152.4330  209.8700  140.6980 C   0  0  0  0  0  3  0  0  0  0  0  0
  153.2470  208.7780  140.1370 C   0  0  0  0  0  3  0  0  0  0  0  0
  154.1450  209.0000  139.1730 C   0  0  0  0  0  3  0  0  0  0  0  0
  152.5640  211.1230  140.2640 C   0  0  0  0  0  3  0  0  0  0  0  0
  160.9390  208.5530  139.6080 C   0  0  0  0  0  2  0  0  0  0  0  0
  162.3230  206.5310  140.2740 C   0  0  1  0  0  3  0  0  0  0  0  0
  161.9970  207.5240  139.2060 C   0  0  2  0  0  3  0  0  0  0  0  0
  163.1220  207.6650  140.0400 O   0  0  0  0  0  0  0  0  0  0  0  0
  161.5810  206.7210  141.4430 O   0  0  0  0  0  1  0  0  0  0  0  0
  1  4  1  6  0  0  0
  1  6  1  0  0  0  0
  1 30  1  0  0  0  0
  3  1  1  0  0  0  0
  3  5  1  0  0  0  0
  5 21  1  6  0  0  0
  5  2  1  0  0  0  0
  6  2  1  1  0  0  0
  6  9  1  0  0  0  0
  7 15  2  0  0  0  0
  8 16  2  0  0  0  0
  9 14  1  1  0  0  0
 10 11  2  0  0  0  0
 11  8  1  0  0  0  0
 12  7  1  1  0  0  0
 12  8  1  0  0  0  0
 12  9  1  0  0  0  0
 13 10  1  0  0  0  0
 13  7  1  0  0  0  0
 14 17  1  0  0  0  0
 15 18  1  0  0  0  0
 17 19  1  0  0  0  0
 18 14  2  0  0  0  0
 19 20  1  0  0  0  0
 21 22  1  0  0  0  0
 23 25  2  0  0  0  0
 24 22  1  1  0  0  0
 24 28  1  0  0  0  0
 24 25  1  0  0  0  0
 25 29  1  0  0  0  0
 27 26  1  0  0  0  0
 28 27  2  0  0  0  0
 29 26  2  0  0  0  0
 31 34  1  1  0  0  0
 32 30  1  1  0  0  0
 32 33  1  0  0  0  0
 32 31  1  0  0  0  0
 33 31  1  0  0  0  0
M  END
>  <MODEL>
7

>  <REMARK>
 VINA RESULT:      -4.7     11.906     15.191
  Name = 
  7 active torsions:
  status: ('A' for Active; 'I' for Inactive)
    1  A    between atoms: C_3  and  C_13
    2  A    between atoms: C_3  and  C_17
    3  A    between atoms: C_4  and  C_31
    4  A    between atoms: C_5  and  C_27
    5  A    between atoms: C_8  and  C_27
    6  A    between atoms: C_12  and  N_28
    7  A    between atoms: C_17  and  C_29
                            x       y       z     vdW  Elec       q    Type
                         _______ _______ _______ _____ _____    ______ ____

>  <TORSDO>
F 7

$$$$
=
 OpenBabel11062407473D

 34 38  0  0  1  0  0  0  0  0999 V2000
  161.3280  208.4000  153.9600 C   0  0  1  0  0  0  0  0  0  0  0  0
  160.9130  209.5220  151.4690 S   0  0  0  0  0  0  0  0  0  0  0  0
  161.5400  207.2960  152.9380 C   0  0  0  0  0  2  0  0  0  0  0  0
  162.3060  208.3130  154.9520 O   0  0  0  0  0  1  0  0  0  0  0  0
  160.8390  207.7090  151.6540 C   0  0  2  0  0  3  0  0  0  0  0  0
  161.5070  209.7030  153.1860 C   0  0  1  0  0  3  0  0  0  0  0  0
  158.6840  210.9960  154.7790 C   0  0  0  0  0  0  0  0  0  0  0  0
  159.3410  212.6460  153.0840 C   0  0  0  0  0  0  0  0  0  0  0  0
  161.0980  210.9920  153.9190 C   0  0  1  0  0  3  0  0  0  0  0  0
  157.0400  212.6180  153.9480 C   0  0  0  0  0  3  0  0  0  0  0  0
  158.0060  213.2520  153.2660 C   0  0  0  0  0  3  0  0  0  0  0  0
  159.6150  211.2710  153.6320 C   0  0  1  0  0  3  0  0  0  0  0  0
  157.2320  211.2400  154.5360 C   0  0  0  0  0  2  0  0  0  0  0  0
  161.4570  211.0020  155.3920 C   0  0  0  0  0  0  0  0  0  0  0  0
  159.1370  210.8610  156.0230 C   0  0  0  0  0  3  0  0  0  0  0  0
  160.2150  213.2580  152.4130 O   0  0  0  0  0  0  0  0  0  0  0  0
  162.8330  211.0790  155.7670 N   0  0  0  0  0  2  0  0  0  0  0  0
  160.5390  210.8910  156.3090 N   0  0  0  0  0  0  0  0  0  0  0  0
  163.2710  211.0650  157.1530 C   0  0  0  0  0  2  0  0  0  0  0  0
  164.5190  211.6750  157.2500 O   0  0  0  0  0  1  0  0  0  0  0  0
  161.4110  206.9860  150.4390 C   0  0  0  0  0  2  0  0  0  0  0  0
  160.5640  205.7810  150.0310 C   0  0  0  0  0  2  0  0  0  0  0  0
  161.3780  204.4410  147.5250 O   0  0  0  0  0  0  0  0  0  0  0  0
  161.3890  204.5010  149.9270 C   0  0  2  0  0  3  0  0  0  0  0  0
  161.2090  203.8040  148.5970 C   0  0  0  0  0  0  0  0  0  0  0  0
  160.7010  201.6750  149.6660 C   0  0  0  0  0  3  0  0  0  0  0  0
  160.8430  202.3070  150.9890 C   0  0  0  0  0  3  0  0  0  0  0  0
  161.1500  203.6020  151.1150 C   0  0  0  0  0  3  0  0  0  0  0  0
  160.8700  202.3750  148.5440 C   0  0  0  0  0  3  0  0  0  0  0  0
  159.9360  208.2940  154.5900 C   0  0  0  0  0  2  0  0  0  0  0  0
  159.7100  206.9440  156.7290 C   0  0  1  0  0  3  0  0  0  0  0  0
  159.6900  206.9290  155.2350 C   0  0  2  0  0  3  0  0  0  0  0  0
  160.8290  206.5530  155.9720 O   0  0  0  0  0  0  0  0  0  0  0  0
  159.9340  208.2180  157.2600 O   0  0  0  0  0  1  0  0  0  0  0  0
  1 30  1  0  0  0  0
  1  4  1  1  0  0  0
  2  5  1  0  0  0  0
  3  1  1  0  0  0  0
  5 21  1  6  0  0  0
  5  3  1  0  0  0  0
  6  2  1  6  0  0  0
  6  9  1  0  0  0  0
  6  1  1  0  0  0  0
  7 15  2  0  0  0  0
  8 11  1  0  0  0  0
  9 14  1  1  0  0  0
 10 13  1  0  0  0  0
 11 10  2  0  0  0  0
 12  8  1  1  0  0  0
 12  9  1  0  0  0  0
 12  7  1  0  0  0  0
 13  7  1  0  0  0  0
 14 17  1  0  0  0  0
 14 18  2  0  0  0  0
 15 18  1  0  0  0  0
 16  8  2  0  0  0  0
 17 19  1  0  0  0  0
 19 20  1  0  0  0  0
 22 21  1  0  0  0  0
 23 25  2  0  0  0  0
 24 22  1  6  0  0  0
 24 28  1  0  0  0  0
 25 24  1  0  0  0  0
 26 27  1  0  0  0  0
 27 28  2  0  0  0  0
 29 25  1  0  0  0  0
 29 26  2  0  0  0  0
 31 34  1  6  0  0  0
 32 30  1  6  0  0  0
 32 33  1  0  0  0  0
 32 31  1  0  0  0  0
 33 31  1  0  0  0  0
M  END
>  <MODEL>
8

>  <REMARK>
 VINA RESULT:      -4.2      2.096      3.069
  Name = 
  7 active torsions:
  status: ('A' for Active; 'I' for Inactive)
    1  A    between atoms: C_3  and  C_13
    2  A    between atoms: C_3  and  C_17
    3  A    between atoms: C_4  and  C_31
    4  A    between atoms: C_5  and  C_27
    5  A    between atoms: C_8  and  C_27
    6  A    between atoms: C_12  and  N_28
    7  A    between atoms: C_17  and  C_29
                            x       y       z     vdW  Elec       q    Type
                         _______ _______ _______ _____ _____    ______ ____

>  <TORSDO>
F 7

$$$$
=
 OpenBabel11062407473D

 34 38  0  0  1  0  0  0  0  0999 V2000
  162.2080  206.8820  149.8210 C   0  0  1  0  0  0  0  0  0  0  0  0
  160.6230  205.4640  151.5850 S   0  0  0  0  0  0  0  0  0  0  0  0
  162.5600  207.3670  151.2170 C   0  0  0  0  0  2  0  0  0  0  0  0
  163.3750  206.7380  149.0680 O   0  0  0  0  0  1  0  0  0  0  0  0
  161.4000  207.0200  152.1370 C   0  0  2  0  0  3  0  0  0  0  0  0
  161.5650  205.5130  150.0210 C   0  0  1  0  0  3  0  0  0  0  0  0
  162.4290  204.5570  146.7780 C   0  0  0  0  0  0  0  0  0  0  0  0
  160.5290  206.0970  146.5640 C   0  0  0  0  0  0  0  0  0  0  0  0
  160.8790  204.8960  148.7900 C   0  0  1  0  0  3  0  0  0  0  0  0
  162.0370  205.7300  144.6580 C   0  0  0  0  0  3  0  0  0  0  0  0
  160.8750  206.2030  145.1310 C   0  0  0  0  0  3  0  0  0  0  0  0
  161.5160  205.4890  147.5240 C   0  0  1  0  0  3  0  0  0  0  0  0
  163.0810  205.1000  145.5500 C   0  0  0  0  0  2  0  0  0  0  0  0
  160.8300  203.3810  148.8090 C   0  0  0  0  0  0  0  0  0  0  0  0
  162.4110  203.2450  146.9970 C   0  0  0  0  0  3  0  0  0  0  0  0
  159.4400  206.5780  146.9780 O   0  0  0  0  0  0  0  0  0  0  0  0
  159.9860  202.7290  149.7600 N   0  0  0  0  0  2  0  0  0  0  0  0
  161.5780  202.6740  148.0120 N   0  0  0  0  0  0  0  0  0  0  0  0
  159.8990  201.2820  149.8690 C   0  0  0  0  0  2  0  0  0  0  0  0
  161.0350  200.7970  150.5100 O   0  0  0  0  0  1  0  0  0  0  0  0
  161.8350  206.9560  153.5970 C   0  0  0  0  0  2  0  0  0  0  0  0
  160.6440  206.9540  154.5550 C   0  0  0  0  0  2  0  0  0  0  0  0
  160.0830  209.6600  153.5040 O   0  0  0  0  0  0  0  0  0  0  0  0
  160.5610  208.2360  155.3800 C   0  0  2  0  0  3  0  0  0  0  0  0
  160.7710  209.4760  154.5420 C   0  0  0  0  0  0  0  0  0  0  0  0
  162.4830  210.3290  156.0500 C   0  0  0  0  0  3  0  0  0  0  0  0
  162.3350  209.1300  156.8930 C   0  0  0  0  0  3  0  0  0  0  0  0
  161.4630  208.1650  156.5880 C   0  0  0  0  0  3  0  0  0  0  0  0
  161.7530  210.4930  154.9470 C   0  0  0  0  0  3  0  0  0  0  0  0
  161.2590  207.8660  149.1300 C   0  0  0  0  0  2  0  0  0  0  0  0
  162.3170  210.1690  148.9740 C   0  0  1  0  0  3  0  0  0  0  0  0
  162.0040  208.8890  148.2700 C   0  0  2  0  0  3  0  0  0  0  0  0
  161.2060  210.0390  148.1210 O   0  0  0  0  0  0  0  0  0  0  0  0
  161.8820  210.1840  150.3020 O   0  0  0  0  0  1  0  0  0  0  0  0
  1  4  1  6  0  0  0
  1  6  1  0  0  0  0
  1  3  1  0  0  0  0
  2  5  1  0  0  0  0
  3  5  1  0  0  0  0
  5 21  1  1  0  0  0
  6  2  1  1  0  0  0
  7 15  2  0  0  0  0
  7 12  1  0  0  0  0
  8 16  2  0  0  0  0
  9 14  1  6  0  0  0
  9  6  1  0  0  0  0
 10 11  2  0  0  0  0
 10 13  1  0  0  0  0
 11  8  1  0  0  0  0
 12  8  1  6  0  0  0
 12  9  1  0  0  0  0
 13  7  1  0  0  0  0
 14 17  1  0  0  0  0
 15 18  1  0  0  0  0
 17 19  1  0  0  0  0
 18 14  2  0  0  0  0
 19 20  1  0  0  0  0
 21 22  1  0  0  0  0
 23 25  2  0  0  0  0
 24 22  1  6  0  0  0
 24 28  1  0  0  0  0
 25 29  1  0  0  0  0
 25 24  1  0  0  0  0
 26 27  1  0  0  0  0
 28 27  2  0  0  0  0
 29 26  2  0  0  0  0
 30  1  1  0  0  0  0
 31 34  1  1  0  0  0
 32 31  1  0  0  0  0
 32 30  1  1  0  0  0
 33 32  1  0  0  0  0
 33 31  1  0  0  0  0
M  END
>  <MODEL>
9

>  <REMARK>
 VINA RESULT:      -4.2      3.744      8.601
  Name = 
  7 active torsions:
  status: ('A' for Active; 'I' for Inactive)
    1  A    between atoms: C_3  and  C_13
    2  A    between atoms: C_3  and  C_17
    3  A    between atoms: C_4  and  C_31
    4  A    between atoms: C_5  and  C_27
    5  A    between atoms: C_8  and  C_27
    6  A    between atoms: C_12  and  N_28
    7  A    between atoms: C_17  and  C_29
                            x       y       z     vdW  Elec       q    Type
                         _______ _______ _______ _____ _____    ______ ____

>  <TORSDO>
F 7

$$$$
