=
 OpenBabel11062409393D

 34 39  0  0  1  0  0  0  0  0999 V2000
  159.8480  210.6260  153.8590 C   0  0  2  0  0  3  0  0  0  0  0  0
  156.5410  211.1150  155.6730 C   0  0  0  0  0  3  0  0  0  0  0  0
  158.6400  210.3930  156.6320 C   0  0  0  0  0  2  0  0  0  0  0  0
  161.1950  209.7590  151.9500 C   0  0  0  0  0  2  0  0  0  0  0  0
  159.7830  209.9320  152.5030 C   0  0  0  0  0  2  0  0  0  0  0  0
  161.6950  209.2030  154.8110 C   0  0  1  0  0  3  0  0  0  0  0  0
  162.2150  208.6860  156.4730 S   0  0  0  0  0  0  0  0  0  0  0  0
  161.7660  208.0280  153.8490 C   0  0  0  0  0  2  0  0  0  0  0  0
  161.8840  208.4490  152.3740 C   0  0  1  0  0  3  0  0  0  0  0  0
  160.1200  210.2360  156.3030 C   0  0  2  0  0  3  0  0  0  0  0  0
  160.2570  209.6240  154.9370 C   0  0  1  0  0  3  0  0  0  0  0  0
  160.7630  209.3470  157.2540 N   0  0  0  0  0  2  0  0  0  0  0  0
  155.5980  211.5590  154.6080 C   0  0  0  0  0  2  0  0  0  0  0  0
  155.8910  212.9590  154.1760 C   0  0  0  0  0  0  0  0  0  0  0  0
  157.0520  213.2680  153.5890 C   0  0  0  0  0  3  0  0  0  0  0  0
  157.8570  210.9950  155.4920 C   0  0  0  0  0  0  0  0  0  0  0  0
  158.2020  212.3580  153.4190 C   0  0  0  0  0  3  0  0  0  0  0  0
  158.5430  211.3150  154.1940 C   0  0  0  0  0  0  0  0  0  0  0  0
  161.1600  206.4130  149.2390 C   0  0  0  0  0  3  0  0  0  0  0  0
  161.2110  206.0690  152.0190 C   0  0  0  0  0  3  0  0  0  0  0  0
  160.9470  202.7520  149.4760 N   0  0  0  0  0  0  0  0  0  0  0  0
  161.2650  201.6740  148.5810 C   0  0  0  0  0  0  0  0  0  0  0  0
  160.4490  204.0220  148.9270 C   0  0  0  0  0  2  0  0  0  0  0  0
  161.7280  200.5920  149.0300 O   0  0  0  0  0  0  0  0  0  0  0  0
  160.8510  205.1700  149.7970 C   0  0  0  0  0  0  0  0  0  0  0  0
  161.0570  201.8070  147.1100 C   0  0  0  0  0  1  0  0  0  0  0  0
  160.4940  203.6760  151.7620 C   0  0  0  0  0  2  0  0  0  0  0  0
  160.8790  204.9980  151.1860 C   0  0  0  0  0  0  0  0  0  0  0  0
  161.0800  202.5320  150.9270 C   0  0  0  0  0  2  0  0  0  0  0  0
  161.5330  207.3140  151.4650 C   0  0  0  0  0  0  0  0  0  0  0  0
  161.5050  207.4820  150.0710 C   0  0  0  0  0  3  0  0  0  0  0  0
  154.8430  213.9830  154.3150 C   0  0  0  0  0  0  0  0  0  0  0  0
  154.4910  214.4530  155.5750 O   0  0  0  0  0  1  0  0  0  0  0  0
  154.2620  214.4510  153.2990 O   0  0  0  0  0  0  0  0  0  0  0  0
  1  5  1  6  0  0  0
  1 18  1  0  0  0  0
  1 11  1  0  0  0  0
  4  9  1  0  0  0  0
  4  5  1  0  0  0  0
  6  8  1  6  0  0  0
  6 11  1  0  0  0  0
  6  7  1  0  0  0  0
  7 12  1  0  0  0  0
  9 30  1  6  0  0  0
  9  8  1  0  0  0  0
 10  3  1  1  0  0  0
 10 12  1  0  0  0  0
 11 10  1  0  0  0  0
 13  2  1  0  0  0  0
 14 32  1  0  0  0  0
 14 13  1  0  0  0  0
 15 14  2  0  0  0  0
 16  2  2  0  0  0  0
 16  3  1  0  0  0  0
 17 15  1  0  0  0  0
 17 18  2  0  0  0  0
 18 16  1  0  0  0  0
 19 25  2  0  0  0  0
 19 31  1  0  0  0  0
 21 29  1  0  0  0  0
 22 24  2  0  0  0  0
 22 21  1  0  0  0  0
 23 21  1  0  0  0  0
 23 25  1  0  0  0  0
 25 28  1  0  0  0  0
 26 22  1  0  0  0  0
 28 27  1  0  0  0  0
 28 20  2  0  0  0  0
 29 27  1  0  0  0  0
 30 20  1  0  0  0  0
 31 30  2  0  0  0  0
 32 33  1  0  0  0  0
 34 32  2  0  0  0  0
M  END
>  <MODEL>
1

>  <REMARK>
 VINA RESULT:      -8.5      0.000      0.000
  Name = 
  2 active torsions:
  status: ('A' for Active; 'I' for Inactive)
    1  A    between atoms: C_3  and  C_25
    2  A    between atoms: C_18  and  C_30
                            x       y       z     vdW  Elec       q    Type
                         _______ _______ _______ _____ _____    ______ ____

>  <TORSDO>
F 2

$$$$
=
 OpenBabel11062409393D

 34 39  0  0  1  0  0  0  0  0999 V2000
  161.5050  213.3060  145.9040 C   0  0  2  0  0  3  0  0  0  0  0  0
  160.1610  212.5920  142.4190 C   0  0  0  0  0  3  0  0  0  0  0  0
  159.0050  213.6980  144.2310 C   0  0  0  0  0  2  0  0  0  0  0  0
  162.6930  212.6100  147.9820 C   0  0  0  0  0  2  0  0  0  0  0  0
  162.2890  212.1820  146.5740 C   0  0  0  0  0  2  0  0  0  0  0  0
  159.9810  213.7790  147.8520 C   0  0  1  0  0  3  0  0  0  0  0  0
  158.3070  214.4520  148.0610 S   0  0  0  0  0  0  0  0  0  0  0  0
  160.1780  212.5730  148.7560 C   0  0  0  0  0  2  0  0  0  0  0  0
  161.6550  212.2750  149.0680 C   0  0  1  0  0  3  0  0  0  0  0  0
  159.2290  214.2750  145.6240 C   0  0  2  0  0  3  0  0  0  0  0  0
  160.0680  213.3190  146.4240 C   0  0  1  0  0  3  0  0  0  0  0  0
  157.9650  214.4430  146.3170 N   0  0  0  0  0  2  0  0  0  0  0  0
  161.2830  211.8960  141.7270 C   0  0  0  0  0  2  0  0  0  0  0  0
  162.3940  212.8430  141.4110 C   0  0  0  0  0  0  0  0  0  0  0  0
  163.0780  213.4500  142.3860 C   0  0  0  0  0  3  0  0  0  0  0  0
  160.2770  213.1690  143.6160 C   0  0  0  0  0  0  0  0  0  0  0  0
  162.7630  213.3890  143.8270 C   0  0  0  0  0  3  0  0  0  0  0  0
  161.5600  213.2000  144.3960 C   0  0  0  0  0  0  0  0  0  0  0  0
  162.0590  209.3210  151.4350 C   0  0  0  0  0  3  0  0  0  0  0  0
  161.9270  209.8220  148.6820 C   0  0  0  0  0  3  0  0  0  0  0  0
  161.6610  205.9050  150.1400 N   0  0  0  0  0  0  0  0  0  0  0  0
  161.1760  204.6750  150.7020 C   0  0  0  0  0  0  0  0  0  0  0  0
  162.3670  206.8630  151.0030 C   0  0  0  0  0  2  0  0  0  0  0  0
  160.5370  203.8590  149.9870 O   0  0  0  0  0  0  0  0  0  0  0  0
  162.1530  208.2650  150.5260 C   0  0  0  0  0  0  0  0  0  0  0  0
  161.4160  204.3350  152.1350 C   0  0  0  0  0  1  0  0  0  0  0  0
  162.2410  207.3780  148.1950 C   0  0  0  0  0  2  0  0  0  0  0  0
  162.0850  208.5150  149.1500 C   0  0  0  0  0  0  0  0  0  0  0  0
  161.4810  206.1440  148.6970 C   0  0  0  0  0  2  0  0  0  0  0  0
  161.8200  210.8830  149.5890 C   0  0  0  0  0  0  0  0  0  0  0  0
  161.8880  210.6270  150.9680 C   0  0  0  0  0  3  0  0  0  0  0  0
  162.7970  213.0280  140.0070 C   0  0  0  0  0  0  0  0  0  0  0  0
  163.9410  213.7560  139.7010 O   0  0  0  0  0  1  0  0  0  0  0  0
  162.1200  212.5230  139.0720 O   0  0  0  0  0  0  0  0  0  0  0  0
  1 11  1  0  0  0  0
  1  5  1  1  0  0  0
  2 16  2  0  0  0  0
  4  9  1  0  0  0  0
  5  4  1  0  0  0  0
  6  7  1  0  0  0  0
  6  8  1  1  0  0  0
  8  9  1  0  0  0  0
  9 30  1  6  0  0  0
 10  3  1  6  0  0  0
 10 12  1  0  0  0  0
 10 11  1  0  0  0  0
 11  6  1  0  0  0  0
 12  7  1  0  0  0  0
 13  2  1  0  0  0  0
 14 13  1  0  0  0  0
 14 15  2  0  0  0  0
 15 17  1  0  0  0  0
 16  3  1  0  0  0  0
 16 18  1  0  0  0  0
 17 18  2  0  0  0  0
 18  1  1  0  0  0  0
 20 28  2  0  0  0  0
 20 30  1  0  0  0  0
 21 22  1  0  0  0  0
 21 23  1  0  0  0  0
 22 26  1  0  0  0  0
 24 22  2  0  0  0  0
 25 23  1  0  0  0  0
 25 19  2  0  0  0  0
 27 29  1  0  0  0  0
 27 28  1  0  0  0  0
 28 25  1  0  0  0  0
 29 21  1  0  0  0  0
 30 31  2  0  0  0  0
 31 19  1  0  0  0  0
 32 14  1  0  0  0  0
 33 32  1  0  0  0  0
 34 32  2  0  0  0  0
M  END
>  <MODEL>
2

>  <REMARK>
 VINA RESULT:      -7.3      7.513      9.681
  Name = 
  2 active torsions:
  status: ('A' for Active; 'I' for Inactive)
    1  A    between atoms: C_3  and  C_25
    2  A    between atoms: C_18  and  C_30
                            x       y       z     vdW  Elec       q    Type
                         _______ _______ _______ _____ _____    ______ ____

>  <TORSDO>
F 2

$$$$
