=
 OpenBabel11052423113D

 27 31  0  0  1  0  0  0  0  0999 V2000
  161.8190  208.4120  148.0640 N   0  0  0  0  0  0  0  0  0  0  0  0
  161.5810  209.1910  150.5180 C   0  0  1  0  0  3  0  0  0  0  0  0
  160.7280  206.3730  150.6450 S   0  0  0  0  0  0  0  0  0  0  0  0
  161.0570  209.1140  154.5780 N   0  0  0  0  0  0  0  0  0  0  0  0
  160.3100  207.1990  156.0040 C   0  0  0  0  0  1  0  0  0  0  0  0
  161.7740  210.4430  151.3370 C   0  0  0  0  0  3  0  0  0  0  0  0
  160.7440  207.0230  153.5270 N   0  0  0  0  0  0  0  0  0  0  0  0
  161.6340  203.6700  147.9970 C   0  0  0  0  0  3  0  0  0  0  0  0
  161.3160  205.7640  153.5500 C   0  0  0  0  0  1  0  0  0  0  0  0
  162.1720  203.9740  146.8020 C   0  0  0  0  0  3  0  0  0  0  0  0
  161.5820  207.9120  152.7000 C   0  0  2  0  0  3  0  0  0  0  0  0
  161.7520  209.3650  148.9900 C   0  0  0  0  0  0  0  0  0  0  0  0
  161.1070  207.6420  154.7590 C   0  0  1  0  0  3  0  0  0  0  0  0
  161.4350  209.2150  153.3210 C   0  0  0  0  0  0  0  0  0  0  0  0
  161.7980  206.9820  148.0510 C   0  0  0  0  0  0  0  0  0  0  0  0
  161.2780  208.0070  151.1570 C   0  0  1  0  0  3  0  0  0  0  0  0
  160.8220  204.6480  148.8020 C   0  0  0  0  0  2  0  0  0  0  0  0
  161.6440  210.4800  152.6570 N   0  0  0  0  0  0  0  0  0  0  0  0
  162.3560  205.2560  146.1570 C   0  0  0  0  0  3  0  0  0  0  0  0
  162.2530  206.5160  146.6690 C   0  0  0  0  0  3  0  0  0  0  0  0
  161.3320  206.0940  148.9430 C   0  0  0  0  0  0  0  0  0  0  0  0
  162.3360  213.2800  147.3760 C   0  0  0  0  0  3  0  0  0  0  0  0
  161.9700  210.7460  148.4470 C   0  0  0  0  0  0  0  0  0  0  0  0
  160.8800  211.4300  147.8680 C   0  0  0  0  0  3  0  0  0  0  0  0
  161.0650  212.6950  147.3590 C   0  0  0  0  0  3  0  0  0  0  0  0
  163.4400  212.5770  147.8860 C   0  0  0  0  0  3  0  0  0  0  0  0
  163.2550  211.3190  148.4200 C   0  0  0  0  0  3  0  0  0  0  0  0
  1 12  2  0  0  0  0
  2 16  1  0  0  0  0
  2  6  1  1  0  0  0
  4 13  1  0  0  0  0
  6 18  2  0  0  0  0
  7  9  1  0  0  0  0
  7 13  1  0  0  0  0
  8 17  1  0  0  0  0
 10  8  2  0  0  0  0
 11 14  1  1  0  0  0
 11  7  1  0  0  0  0
 12  2  1  0  0  0  0
 13  5  1  1  0  0  0
 14  4  2  0  0  0  0
 15  1  1  0  0  0  0
 15 21  2  0  0  0  0
 16  3  1  6  0  0  0
 16 11  1  0  0  0  0
 17 21  1  0  0  0  0
 18 14  1  0  0  0  0
 19 20  2  0  0  0  0
 19 10  1  0  0  0  0
 20 15  1  0  0  0  0
 21  3  1  0  0  0  0
 22 26  1  0  0  0  0
 23 12  1  0  0  0  0
 24 23  2  0  0  0  0
 25 22  2  0  0  0  0
 25 24  1  0  0  0  0
 26 27  2  0  0  0  0
 27 23  1  0  0  0  0
M  END
>  <MODEL>
1

>  <REMARK>
 VINA RESULT:      -8.1      0.000      0.000
  Name = 
  1 active torsions:
  status: ('A' for Active; 'I' for Inactive)
    1  A    between atoms: C_9  and  C_15
                            x       y       z     vdW  Elec       q    Type
                         _______ _______ _______ _____ _____    ______ ____

>  <TORSDO>
F 1

$$$$
=
 OpenBabel11052423113D

 27 31  0  0  1  0  0  0  0  0999 V2000
  161.4090  209.8330  151.7840 N   0  0  0  0  0  0  0  0  0  0  0  0
  161.5230  208.2170  149.7680 C   0  0  1  0  0  3  0  0  0  0  0  0
  161.5380  206.3820  152.0730 S   0  0  0  0  0  0  0  0  0  0  0  0
  161.4600  204.7800  147.5430 N   0  0  0  0  0  0  0  0  0  0  0  0
  161.4520  202.4140  148.3540 C   0  0  0  0  0  1  0  0  0  0  0  0
  161.5770  208.2810  148.2610 C   0  0  0  0  0  3  0  0  0  0  0  0
  161.3190  204.4220  149.8720 N   0  0  0  0  0  0  0  0  0  0  0  0
  160.2810  207.3030  155.6380 C   0  0  0  0  0  3  0  0  0  0  0  0
  160.4230  203.8840  150.7780 C   0  0  0  0  0  1  0  0  0  0  0  0
  160.0130  208.5670  156.0110 C   0  0  0  0  0  2  0  0  0  0  0  0
  160.8780  205.7850  149.5180 C   0  0  2  0  0  3  0  0  0  0  0  0
  161.6120  209.5810  150.4930 C   0  0  0  0  0  0  0  0  0  0  0  0
  160.9810  203.8630  148.6050 C   0  0  1  0  0  3  0  0  0  0  0  0
  161.2960  205.9440  148.1380 C   0  0  0  0  0  0  0  0  0  0  0  0
  161.0350  209.0730  152.9360 C   0  0  0  0  0  0  0  0  0  0  0  0
  161.3990  206.9910  150.3870 C   0  0  1  0  0  3  0  0  0  0  0  0
  161.2170  206.9630  154.5100 C   0  0  0  0  0  3  0  0  0  0  0  0
  161.5360  207.2080  147.4830 N   0  0  0  0  0  0  0  0  0  0  0  0
  160.2780  209.8190  155.3350 C   0  0  0  0  0  3  0  0  0  0  0  0
  160.6560  210.0530  154.0450 C   0  0  0  0  0  3  0  0  0  0  0  0
  161.1130  207.7590  153.1960 C   0  0  0  0  0  0  0  0  0  0  0  0
  162.2410  213.0940  148.1390 C   0  0  0  0  0  3  0  0  0  0  0  0
  161.8600  210.8130  149.6740 C   0  0  0  0  0  0  0  0  0  0  0  0
  161.0080  211.9260  149.8410 C   0  0  0  0  0  3  0  0  0  0  0  0
  161.2170  213.0600  149.0920 C   0  0  0  0  0  3  0  0  0  0  0  0
  163.0490  211.9660  147.9170 C   0  0  0  0  0  3  0  0  0  0  0  0
  162.8580  210.8340  148.6830 C   0  0  0  0  0  3  0  0  0  0  0  0
  1 15  1  0  0  0  0
  2  6  1  6  0  0  0
  2 16  1  0  0  0  0
  2 12  1  0  0  0  0
  3 21  1  0  0  0  0
  4 14  2  0  0  0  0
  4 13  1  0  0  0  0
  7  9  1  0  0  0  0
  8 10  1  0  0  0  0
 11 14  1  6  0  0  0
 11  7  1  0  0  0  0
 11 16  1  0  0  0  0
 12  1  2  0  0  0  0
 13  5  1  6  0  0  0
 13  7  1  0  0  0  0
 15 21  2  0  0  0  0
 15 20  1  0  0  0  0
 16  3  1  1  0  0  0
 17  8  2  0  0  0  0
 18 14  1  0  0  0  0
 18  6  2  0  0  0  0
 19 10  1  0  0  0  0
 20 19  2  0  0  0  0
 21 17  1  0  0  0  0
 22 25  1  0  0  0  0
 23 24  1  0  0  0  0
 23 12  1  0  0  0  0
 25 24  2  0  0  0  0
 26 22  2  0  0  0  0
 26 27  1  0  0  0  0
 27 23  2  0  0  0  0
M  END
>  <MODEL>
2

>  <REMARK>
 VINA RESULT:      -7.7      1.653      5.529
  Name = 
  1 active torsions:
  status: ('A' for Active; 'I' for Inactive)
    1  A    between atoms: C_9  and  C_15
                            x       y       z     vdW  Elec       q    Type
                         _______ _______ _______ _____ _____    ______ ____

>  <TORSDO>
F 1

$$$$
=
 OpenBabel11052423113D

 27 31  0  0  1  0  0  0  0  0999 V2000
  161.2470  209.6170  152.8120 N   0  0  0  0  0  0  0  0  0  0  0  0
  161.2760  207.8530  150.9220 C   0  0  1  0  0  3  0  0  0  0  0  0
  161.5530  206.2080  153.3500 S   0  0  0  0  0  0  0  0  0  0  0  0
  161.1940  204.2520  148.9760 N   0  0  0  0  0  0  0  0  0  0  0  0
  161.3550  201.9590  149.9620 C   0  0  0  0  0  1  0  0  0  0  0  0
  161.2090  207.8000  149.4150 C   0  0  0  0  0  3  0  0  0  0  0  0
  161.2510  204.0740  151.3290 N   0  0  0  0  0  0  0  0  0  0  0  0
  160.5360  207.3580  156.9250 C   0  0  0  0  0  3  0  0  0  0  0  0
  160.4530  203.5740  152.3430 C   0  0  0  0  0  1  0  0  0  0  0  0
  160.2410  208.6370  157.2220 C   0  0  0  0  0  2  0  0  0  0  0  0
  160.7230  205.3860  150.9100 C   0  0  2  0  0  3  0  0  0  0  0  0
  161.3600  209.2730  151.5320 C   0  0  0  0  0  0  0  0  0  0  0  0
  160.8410  203.4030  150.1400 C   0  0  1  0  0  3  0  0  0  0  0  0
  161.0250  205.4510  149.4920 C   0  0  0  0  0  0  0  0  0  0  0  0
  160.9970  208.9370  154.0450 C   0  0  0  0  0  0  0  0  0  0  0  0
  161.2550  206.6760  151.6390 C   0  0  1  0  0  3  0  0  0  0  0  0
  161.3970  206.9670  155.7540 C   0  0  0  0  0  3  0  0  0  0  0  0
  161.1560  206.6680  148.7260 N   0  0  0  0  0  0  0  0  0  0  0  0
  160.3970  209.8400  156.4340 C   0  0  0  0  0  3  0  0  0  0  0  0
  160.6630  209.9870  155.1040 C   0  0  0  0  0  3  0  0  0  0  0  0
  161.1550  207.6520  154.3970 C   0  0  0  0  0  0  0  0  0  0  0  0
  161.6450  212.6180  148.8850 C   0  0  0  0  0  3  0  0  0  0  0  0
  161.4870  210.4450  150.6040 C   0  0  0  0  0  0  0  0  0  0  0  0
  160.7350  211.6090  150.8690 C   0  0  0  0  0  3  0  0  0  0  0  0
  160.8350  212.6890  150.0240 C   0  0  0  0  0  3  0  0  0  0  0  0
  162.3430  211.4380  148.5760 C   0  0  0  0  0  3  0  0  0  0  0  0
  162.2640  210.3600  149.4340 C   0  0  0  0  0  3  0  0  0  0  0  0
  1 15  1  0  0  0  0
  2  6  1  1  0  0  0
  2 12  1  0  0  0  0
  2 16  1  0  0  0  0
  3 21  1  0  0  0  0
  4 14  2  0  0  0  0
  4 13  1  0  0  0  0
  7  9  1  0  0  0  0
  8 10  1  0  0  0  0
 11 14  1  6  0  0  0
 11  7  1  0  0  0  0
 11 16  1  0  0  0  0
 12  1  2  0  0  0  0
 13  5  1  6  0  0  0
 13  7  1  0  0  0  0
 15 21  2  0  0  0  0
 15 20  1  0  0  0  0
 16  3  1  1  0  0  0
 17  8  2  0  0  0  0
 18  6  2  0  0  0  0
 18 14  1  0  0  0  0
 19 10  1  0  0  0  0
 20 19  2  0  0  0  0
 21 17  1  0  0  0  0
 22 25  1  0  0  0  0
 23 24  1  0  0  0  0
 23 12  1  0  0  0  0
 25 24  2  0  0  0  0
 26 22  2  0  0  0  0
 26 27  1  0  0  0  0
 27 23  2  0  0  0  0
M  END
>  <MODEL>
3

>  <REMARK>
 VINA RESULT:      -6.4      1.984      5.791
  Name = 
  1 active torsions:
  status: ('A' for Active; 'I' for Inactive)
    1  A    between atoms: C_9  and  C_15
                            x       y       z     vdW  Elec       q    Type
                         _______ _______ _______ _____ _____    ______ ____

>  <TORSDO>
F 1

$$$$
=
 OpenBabel11052423113D

 27 31  0  0  1  0  0  0  0  0999 V2000
  160.4570  209.4560  153.8100 N   0  0  0  0  0  0  0  0  0  0  0  0
  160.2930  211.6550  152.4600 C   0  0  1  0  0  3  0  0  0  0  0  0
  162.0350  209.9840  150.7700 S   0  0  0  0  0  0  0  0  0  0  0  0
  160.6040  214.3640  149.4050 N   0  0  0  0  0  0  0  0  0  0  0  0
  161.8770  214.1380  147.2640 C   0  0  0  0  0  1  0  0  0  0  0  0
  159.6490  213.0150  152.5760 C   0  0  0  0  0  3  0  0  0  0  0  0
  161.6540  212.2940  148.9690 N   0  0  0  0  0  0  0  0  0  0  0  0
  162.2250  206.1020  150.9550 C   0  0  0  0  0  3  0  0  0  0  0  0
  161.5370  211.2510  148.0670 C   0  0  0  0  0  1  0  0  0  0  0  0
  161.6790  205.3940  151.9600 C   0  0  0  0  0  2  0  0  0  0  0  0
  160.6100  212.1510  150.0010 C   0  0  2  0  0  3  0  0  0  0  0  0
  160.1520  210.7470  153.7050 C   0  0  0  0  0  0  0  0  0  0  0  0
  161.0420  213.4220  148.3460 C   0  0  1  0  0  3  0  0  0  0  0  0
  160.2800  213.5180  150.3610 C   0  0  0  0  0  0  0  0  0  0  0  0
  160.9570  208.4390  152.9370 C   0  0  0  0  0  0  0  0  0  0  0  0
  160.9430  211.3140  151.2930 C   0  0  1  0  0  3  0  0  0  0  0  0
  162.6200  207.5480  151.0920 C   0  0  0  0  0  3  0  0  0  0  0  0
  159.6930  213.9280  151.6150 N   0  0  0  0  0  0  0  0  0  0  0  0
  161.1090  205.8350  153.2140 C   0  0  0  0  0  3  0  0  0  0  0  0
  160.7560  207.0880  153.6220 C   0  0  0  0  0  3  0  0  0  0  0  0
  161.6470  208.5170  151.7890 C   0  0  0  0  0  0  0  0  0  0  0  0
  158.3800  212.3270  157.2600 C   0  0  0  0  0  3  0  0  0  0  0  0
  159.5120  211.3140  154.9370 C   0  0  0  0  0  0  0  0  0  0  0  0
  160.3300  211.9210  155.9130 C   0  0  0  0  0  3  0  0  0  0  0  0
  159.7600  212.4400  157.0520 C   0  0  0  0  0  3  0  0  0  0  0  0
  157.5680  211.6620  156.3260 C   0  0  0  0  0  3  0  0  0  0  0  0
  158.1330  211.1610  155.1710 C   0  0  0  0  0  3  0  0  0  0  0  0
  2  6  1  6  0  0  0
  2 12  1  0  0  0  0
  3 21  1  0  0  0  0
  4 14  2  0  0  0  0
  7 11  1  0  0  0  0
  8 17  2  0  0  0  0
  8 10  1  0  0  0  0
  9  7  1  0  0  0  0
 10 19  1  0  0  0  0
 11 14  1  1  0  0  0
 11 16  1  0  0  0  0
 12  1  2  0  0  0  0
 12 23  1  0  0  0  0
 13  5  1  6  0  0  0
 13  7  1  0  0  0  0
 13  4  1  0  0  0  0
 14 18  1  0  0  0  0
 15 20  1  0  0  0  0
 15  1  1  0  0  0  0
 16  3  1  6  0  0  0
 16  2  1  0  0  0  0
 17 21  1  0  0  0  0
 18  6  2  0  0  0  0
 19 20  2  0  0  0  0
 21 15  2  0  0  0  0
 23 27  2  0  0  0  0
 23 24  1  0  0  0  0
 24 25  2  0  0  0  0
 25 22  1  0  0  0  0
 26 22  2  0  0  0  0
 27 26  1  0  0  0  0
M  END
>  <MODEL>
4

>  <REMARK>
 VINA RESULT:      -6.1      3.103      6.821
  Name = 
  1 active torsions:
  status: ('A' for Active; 'I' for Inactive)
    1  A    between atoms: C_9  and  C_15
                            x       y       z     vdW  Elec       q    Type
                         _______ _______ _______ _____ _____    ______ ____

>  <TORSDO>
F 1

$$$$
=
 OpenBabel11052423113D

 27 31  0  0  1  0  0  0  0  0999 V2000
  160.8250  206.2210  153.0870 N   0  0  0  0  0  0  0  0  0  0  0  0
  161.2940  207.3010  150.7850 C   0  0  1  0  0  3  0  0  0  0  0  0
  160.5530  209.6160  152.4510 S   0  0  0  0  0  0  0  0  0  0  0  0
  161.9630  210.1110  147.8840 N   0  0  0  0  0  0  0  0  0  0  0  0
  161.6850  212.5920  148.0420 C   0  0  0  0  0  1  0  0  0  0  0  0
  161.6980  206.8810  149.3940 C   0  0  0  0  0  3  0  0  0  0  0  0
  161.3900  211.0160  149.9870 N   0  0  0  0  0  0  0  0  0  0  0  0
  160.6950  209.6760  156.3380 C   0  0  0  0  0  3  0  0  0  0  0  0
  161.9620  211.8330  150.9470 C   0  0  0  0  0  1  0  0  0  0  0  0
  160.8610  208.5640  157.0780 C   0  0  0  0  0  2  0  0  0  0  0  0
  161.9410  209.6550  150.1290 C   0  0  2  0  0  3  0  0  0  0  0  0
  161.0160  206.1430  151.7730 C   0  0  0  0  0  0  0  0  0  0  0  0
  162.0840  211.2920  148.7730 C   0  0  1  0  0  3  0  0  0  0  0  0
  161.9610  209.1400  148.7730 C   0  0  0  0  0  0  0  0  0  0  0  0
  160.8220  207.2610  154.0690 C   0  0  0  0  0  0  0  0  0  0  0  0
  161.2050  208.6440  151.0850 C   0  0  1  0  0  3  0  0  0  0  0  0
  160.1360  209.6540  154.9420 C   0  0  0  0  0  3  0  0  0  0  0  0
  161.9530  207.7410  148.4160 N   0  0  0  0  0  0  0  0  0  0  0  0
  160.8340  207.1700  156.6910 C   0  0  0  0  0  3  0  0  0  0  0  0
  160.8660  206.6060  155.4490 C   0  0  0  0  0  3  0  0  0  0  0  0
  160.6450  208.5850  153.9570 C   0  0  0  0  0  0  0  0  0  0  0  0
  161.0420  202.1460  150.2570 C   0  0  0  0  0  3  0  0  0  0  0  0
  161.0490  204.7350  151.2540 C   0  0  0  0  0  0  0  0  0  0  0  0
  160.8120  204.5090  149.8810 C   0  0  0  0  0  3  0  0  0  0  0  0
  160.8320  203.2250  149.3910 C   0  0  0  0  0  3  0  0  0  0  0  0
  161.2070  202.3570  151.6360 C   0  0  0  0  0  3  0  0  0  0  0  0
  161.2120  203.6450  152.1280 C   0  0  0  0  0  3  0  0  0  0  0  0
  1 15  1  0  0  0  0
  2  6  1  1  0  0  0
  2 16  1  0  0  0  0
  2 12  1  0  0  0  0
  3 21  1  0  0  0  0
  4 14  2  0  0  0  0
  4 13  1  0  0  0  0
  7 11  1  0  0  0  0
  7  9  1  0  0  0  0
  8 10  1  0  0  0  0
 11 14  1  6  0  0  0
 11 16  1  0  0  0  0
 12  1  2  0  0  0  0
 13  5  1  6  0  0  0
 13  7  1  0  0  0  0
 15 20  1  0  0  0  0
 16  3  1  1  0  0  0
 17  8  2  0  0  0  0
 18 14  1  0  0  0  0
 18  6  2  0  0  0  0
 19 10  1  0  0  0  0
 20 19  2  0  0  0  0
 21 15  2  0  0  0  0
 21 17  1  0  0  0  0
 22 26  1  0  0  0  0
 23 12  1  0  0  0  0
 23 27  1  0  0  0  0
 24 23  2  0  0  0  0
 25 24  1  0  0  0  0
 25 22  2  0  0  0  0
 26 27  2  0  0  0  0
M  END
>  <MODEL>
5

>  <REMARK>
 VINA RESULT:      -5.9      1.841      7.435
  Name = 
  1 active torsions:
  status: ('A' for Active; 'I' for Inactive)
    1  A    between atoms: C_9  and  C_15
                            x       y       z     vdW  Elec       q    Type
                         _______ _______ _______ _____ _____    ______ ____

>  <TORSDO>
F 1

$$$$
=
 OpenBabel11052423113D

 27 31  0  0  1  0  0  0  0  0999 V2000
  161.1960  207.2170  152.3300 N   0  0  0  0  0  0  0  0  0  0  0  0
  160.9630  209.7910  152.2440 C   0  0  1  0  0  3  0  0  0  0  0  0
  161.9570  209.1390  149.5480 S   0  0  0  0  0  0  0  0  0  0  0  0
  160.7910  213.6250  150.8150 N   0  0  0  0  0  0  0  0  0  0  0  0
  161.4040  214.4530  148.5360 C   0  0  0  0  0  1  0  0  0  0  0  0
  160.5550  210.9270  153.1500 C   0  0  0  0  0  3  0  0  0  0  0  0
  161.4090  212.0210  149.1970 N   0  0  0  0  0  0  0  0  0  0  0  0
  161.6860  205.6320  147.8830 C   0  0  0  0  0  3  0  0  0  0  0  0
  160.9220  211.5250  148.0010 C   0  0  0  0  0  1  0  0  0  0  0  0
  161.3420  204.5260  148.5670 C   0  0  0  0  0  2  0  0  0  0  0  0
  160.6710  211.3930  150.3100 C   0  0  2  0  0  3  0  0  0  0  0  0
  161.0440  208.4010  152.9180 C   0  0  0  0  0  0  0  0  0  0  0  0
  160.8030  213.3000  149.3680 C   0  0  1  0  0  3  0  0  0  0  0  0
  160.6280  212.4240  151.3300 C   0  0  0  0  0  0  0  0  0  0  0  0
  161.3080  206.7400  150.9860 C   0  0  0  0  0  0  0  0  0  0  0  0
  161.2260  210.0500  150.9150 C   0  0  1  0  0  3  0  0  0  0  0  0
  162.2860  206.8470  148.5380 C   0  0  0  0  0  3  0  0  0  0  0  0
  160.4560  212.1860  152.7440 N   0  0  0  0  0  0  0  0  0  0  0  0
  161.1910  204.3160  149.9910 C   0  0  0  0  0  3  0  0  0  0  0  0
  161.1250  205.2230  151.0070 C   0  0  0  0  0  3  0  0  0  0  0  0
  161.6700  207.3590  149.8520 C   0  0  0  0  0  0  0  0  0  0  0  0
  160.5290  208.1430  157.1540 C   0  0  0  0  0  3  0  0  0  0  0  0
  160.8360  208.3110  154.4010 C   0  0  0  0  0  0  0  0  0  0  0  0
  161.5760  209.1650  155.2460 C   0  0  0  0  0  3  0  0  0  0  0  0
  161.4020  209.0910  156.6080 C   0  0  0  0  0  3  0  0  0  0  0  0
  159.8420  207.2410  156.3240 C   0  0  0  0  0  3  0  0  0  0  0  0
  159.9950  207.3290  154.9550 C   0  0  0  0  0  3  0  0  0  0  0  0
  1 12  2  0  0  0  0
  2 12  1  0  0  0  0
  2  6  1  6  0  0  0
  3 21  1  0  0  0  0
  4 14  2  0  0  0  0
  7 13  1  0  0  0  0
  7 11  1  0  0  0  0
  8 17  2  0  0  0  0
  8 10  1  0  0  0  0
  9  7  1  0  0  0  0
 10 19  1  0  0  0  0
 11 16  1  0  0  0  0
 11 14  1  1  0  0  0
 12 23  1  0  0  0  0
 13  5  1  6  0  0  0
 13  4  1  0  0  0  0
 14 18  1  0  0  0  0
 15 20  1  0  0  0  0
 15  1  1  0  0  0  0
 16  3  1  6  0  0  0
 16  2  1  0  0  0  0
 17 21  1  0  0  0  0
 18  6  2  0  0  0  0
 19 20  2  0  0  0  0
 21 15  2  0  0  0  0
 23 27  2  0  0  0  0
 23 24  1  0  0  0  0
 24 25  2  0  0  0  0
 25 22  1  0  0  0  0
 26 22  2  0  0  0  0
 27 26  1  0  0  0  0
M  END
>  <MODEL>
6

>  <REMARK>
 VINA RESULT:      -5.6      1.858      6.041
  Name = 
  1 active torsions:
  status: ('A' for Active; 'I' for Inactive)
    1  A    between atoms: C_9  and  C_15
                            x       y       z     vdW  Elec       q    Type
                         _______ _______ _______ _____ _____    ______ ____

>  <TORSDO>
F 1

$$$$
=
 OpenBabel11052423113D

 27 31  0  0  1  0  0  0  0  0999 V2000
  161.6670  208.4850  148.5010 N   0  0  0  0  0  0  0  0  0  0  0  0
  161.4840  207.2180  150.7470 C   0  0  1  0  0  3  0  0  0  0  0  0
  161.8940  210.0060  151.6070 S   0  0  0  0  0  0  0  0  0  0  0  0
  161.1210  206.4590  154.7540 N   0  0  0  0  0  0  0  0  0  0  0  0
  161.2780  208.0780  156.6540 C   0  0  0  0  0  1  0  0  0  0  0  0
  161.2960  205.8050  151.2440 C   0  0  0  0  0  3  0  0  0  0  0  0
  161.3580  208.7470  154.2250 N   0  0  0  0  0  0  0  0  0  0  0  0
  161.2060  213.1260  149.3850 C   0  0  0  0  0  3  0  0  0  0  0  0
  160.6260  209.9140  154.3530 C   0  0  0  0  0  1  0  0  0  0  0  0
  160.9810  213.0410  148.0620 C   0  0  0  0  0  3  0  0  0  0  0  0
  160.8450  207.9870  153.0700 C   0  0  2  0  0  3  0  0  0  0  0  0
  161.6660  207.3650  149.2180 C   0  0  0  0  0  0  0  0  0  0  0  0
  160.8310  207.8450  155.1950 C   0  0  1  0  0  3  0  0  0  0  0  0
  161.0360  206.5990  153.4480 C   0  0  0  0  0  0  0  0  0  0  0  0
  161.4930  209.8800  148.7670 C   0  0  0  0  0  0  0  0  0  0  0  0
  161.4790  208.2570  151.6530 C   0  0  1  0  0  3  0  0  0  0  0  0
  161.9560  212.0740  150.1570 C   0  0  0  0  0  2  0  0  0  0  0  0
  161.1490  205.4950  152.5250 N   0  0  0  0  0  0  0  0  0  0  0  0
  161.1160  211.9180  147.1590 C   0  0  0  0  0  3  0  0  0  0  0  0
  161.2800  210.5920  147.4320 C   0  0  0  0  0  3  0  0  0  0  0  0
  161.6320  210.5920  149.8950 C   0  0  0  0  0  0  0  0  0  0  0  0
  161.9060  203.8570  146.7850 C   0  0  0  0  0  3  0  0  0  0  0  0
  161.7610  206.1200  148.3850 C   0  0  0  0  0  0  0  0  0  0  0  0
  162.3310  206.2030  147.0970 C   0  0  0  0  0  3  0  0  0  0  0  0
  162.4190  205.0730  146.3180 C   0  0  0  0  0  3  0  0  0  0  0  0
  161.2730  203.7810  148.0370 C   0  0  0  0  0  3  0  0  0  0  0  0
  161.2050  204.9070  148.8310 C   0  0  0  0  0  3  0  0  0  0  0  0
  1 15  1  0  0  0  0
  1 12  2  0  0  0  0
  2  6  1  6  0  0  0
  2 16  1  0  0  0  0
  4 13  1  0  0  0  0
  6 18  2  0  0  0  0
  7  9  1  0  0  0  0
  7 13  1  0  0  0  0
  8 17  1  0  0  0  0
 10  8  2  0  0  0  0
 11 14  1  1  0  0  0
 11  7  1  0  0  0  0
 12  2  1  0  0  0  0
 13  5  1  1  0  0  0
 14  4  2  0  0  0  0
 15 21  2  0  0  0  0
 16  3  1  6  0  0  0
 16 11  1  0  0  0  0
 18 14  1  0  0  0  0
 19 20  2  0  0  0  0
 19 10  1  0  0  0  0
 20 15  1  0  0  0  0
 21 17  1  0  0  0  0
 21  3  1  0  0  0  0
 22 26  1  0  0  0  0
 23 27  1  0  0  0  0
 23 12  1  0  0  0  0
 24 23  2  0  0  0  0
 25 22  2  0  0  0  0
 25 24  1  0  0  0  0
 26 27  2  0  0  0  0
M  END
>  <MODEL>
7

>  <REMARK>
 VINA RESULT:      -5.4      1.390      5.340
  Name = 
  1 active torsions:
  status: ('A' for Active; 'I' for Inactive)
    1  A    between atoms: C_9  and  C_15
                            x       y       z     vdW  Elec       q    Type
                         _______ _______ _______ _____ _____    ______ ____

>  <TORSDO>
F 1

$$$$
=
 OpenBabel11052423113D

 27 31  0  0  1  0  0  0  0  0999 V2000
  160.4530  209.2380  153.3180 N   0  0  0  0  0  0  0  0  0  0  0  0
  161.1840  209.8720  150.9200 C   0  0  1  0  0  3  0  0  0  0  0  0
  159.8560  212.3270  151.8640 S   0  0  0  0  0  0  0  0  0  0  0  0
  161.9890  212.0780  147.5660 N   0  0  0  0  0  0  0  0  0  0  0  0
  161.3620  214.4520  147.0910 C   0  0  0  0  0  1  0  0  0  0  0  0
  161.8840  209.2420  149.7410 C   0  0  0  0  0  3  0  0  0  0  0  0
  160.9310  213.2960  149.2890 N   0  0  0  0  0  0  0  0  0  0  0  0
  159.2840  213.2290  155.6050 C   0  0  0  0  0  3  0  0  0  0  0  0
  161.2080  214.3810  150.1010 C   0  0  0  0  0  1  0  0  0  0  0  0
  159.4600  212.3430  156.6020 C   0  0  0  0  0  2  0  0  0  0  0  0
  161.6220  212.1090  149.8270 C   0  0  2  0  0  3  0  0  0  0  0  0
  160.8860  208.9180  152.1020 C   0  0  0  0  0  0  0  0  0  0  0  0
  161.7900  213.4230  148.1580 C   0  0  1  0  0  3  0  0  0  0  0  0
  161.9550  211.3300  148.6490 C   0  0  0  0  0  0  0  0  0  0  0  0
  160.1350  210.4460  154.0150 C   0  0  0  0  0  0  0  0  0  0  0  0
  160.8650  211.2130  150.8770 C   0  0  1  0  0  3  0  0  0  0  0  0
  158.9940  212.8190  154.1870 C   0  0  0  0  0  3  0  0  0  0  0  0
  162.1950  209.9060  148.6360 N   0  0  0  0  0  0  0  0  0  0  0  0
  159.6860  210.9150  156.5570 C   0  0  0  0  0  3  0  0  0  0  0  0
  160.0160  210.1150  155.5020 C   0  0  0  0  0  3  0  0  0  0  0  0
  159.8090  211.6680  153.5680 C   0  0  0  0  0  0  0  0  0  0  0  0
  161.7000  204.7490  151.6140 C   0  0  0  0  0  3  0  0  0  0  0  0
  161.1970  207.4590  151.9400 C   0  0  0  0  0  0  0  0  0  0  0  0
  160.8860  206.8270  150.7180 C   0  0  0  0  0  3  0  0  0  0  0  0
  161.1580  205.4890  150.5560 C   0  0  0  0  0  3  0  0  0  0  0  0
  161.9470  205.3550  152.8580 C   0  0  0  0  0  3  0  0  0  0  0  0
  161.6980  206.7030  153.0160 C   0  0  0  0  0  3  0  0  0  0  0  0
  1 15  1  0  0  0  0
  2  6  1  1  0  0  0
  2 12  1  0  0  0  0
  3 21  1  0  0  0  0
  4 13  1  0  0  0  0
  4 14  2  0  0  0  0
  7 11  1  0  0  0  0
  7  9  1  0  0  0  0
  8 10  1  0  0  0  0
 11 14  1  6  0  0  0
 11 16  1  0  0  0  0
 12  1  2  0  0  0  0
 13  5  1  6  0  0  0
 13  7  1  0  0  0  0
 15 20  1  0  0  0  0
 16  2  1  0  0  0  0
 16  3  1  1  0  0  0
 17  8  2  0  0  0  0
 18 14  1  0  0  0  0
 18  6  2  0  0  0  0
 19 10  1  0  0  0  0
 20 19  2  0  0  0  0
 21 15  2  0  0  0  0
 21 17  1  0  0  0  0
 22 26  1  0  0  0  0
 23 12  1  0  0  0  0
 23 27  1  0  0  0  0
 24 23  2  0  0  0  0
 25 24  1  0  0  0  0
 25 22  2  0  0  0  0
 26 27  2  0  0  0  0
M  END
>  <MODEL>
8

>  <REMARK>
 VINA RESULT:      -5.3      2.827      7.893
  Name = 
  1 active torsions:
  status: ('A' for Active; 'I' for Inactive)
    1  A    between atoms: C_9  and  C_15
                            x       y       z     vdW  Elec       q    Type
                         _______ _______ _______ _____ _____    ______ ____

>  <TORSDO>
F 1

$$$$
=
 OpenBabel11052423113D

 27 31  0  0  1  0  0  0  0  0999 V2000
  161.2520  208.4740  152.3050 N   0  0  0  0  0  0  0  0  0  0  0  0
  161.0210  205.9000  152.2070 C   0  0  1  0  0  3  0  0  0  0  0  0
  160.8520  206.6760  149.3690 S   0  0  0  0  0  0  0  0  0  0  0  0
  160.8250  202.0760  150.7580 N   0  0  0  0  0  0  0  0  0  0  0  0
  160.6450  201.3330  148.3770 C   0  0  0  0  0  1  0  0  0  0  0  0
  160.9800  204.7260  153.1530 C   0  0  0  0  0  3  0  0  0  0  0  0
  160.9270  203.7370  149.0830 N   0  0  0  0  0  0  0  0  0  0  0  0
  162.1610  210.0400  147.9180 C   0  0  0  0  0  3  0  0  0  0  0  0
  161.7740  204.1110  148.0550 C   0  0  0  0  0  1  0  0  0  0  0  0
  162.5260  211.0750  148.6950 C   0  0  0  0  0  2  0  0  0  0  0  0
  161.4750  204.2360  150.3580 C   0  0  2  0  0  3  0  0  0  0  0  0
  161.0360  207.2940  152.8800 C   0  0  0  0  0  0  0  0  0  0  0  0
  161.2260  202.3700  149.3610 C   0  0  1  0  0  3  0  0  0  0  0  0
  161.0770  203.2350  151.3300 C   0  0  0  0  0  0  0  0  0  0  0  0
  161.5610  208.9390  150.9880 C   0  0  0  0  0  0  0  0  0  0  0  0
  161.0470  205.6710  150.8480 C   0  0  1  0  0  3  0  0  0  0  0  0
  161.2070  208.9700  148.3730 C   0  0  0  0  0  3  0  0  0  0  0  0
  160.9400  203.4630  152.7490 N   0  0  0  0  0  0  0  0  0  0  0  0
  162.3630  211.2800  150.1180 C   0  0  0  0  0  3  0  0  0  0  0  0
  162.0100  210.3950  151.0950 C   0  0  0  0  0  3  0  0  0  0  0  0
  161.3790  208.3770  149.7840 C   0  0  0  0  0  0  0  0  0  0  0  0
  160.5470  207.5440  157.1190 C   0  0  0  0  0  3  0  0  0  0  0  0
  160.8890  207.3710  154.3710 C   0  0  0  0  0  0  0  0  0  0  0  0
  159.7070  206.8830  154.9660 C   0  0  0  0  0  3  0  0  0  0  0  0
  159.5540  206.9530  156.3310 C   0  0  0  0  0  3  0  0  0  0  0  0
  161.6960  208.0960  156.5280 C   0  0  0  0  0  3  0  0  0  0  0  0
  161.8640  208.0070  155.1620 C   0  0  0  0  0  3  0  0  0  0  0  0
  1 12  2  0  0  0  0
  2 12  1  0  0  0  0
  2  6  1  1  0  0  0
  3 21  1  0  0  0  0
  4 14  2  0  0  0  0
  7 13  1  0  0  0  0
  7 11  1  0  0  0  0
  8 17  2  0  0  0  0
  8 10  1  0  0  0  0
  9  7  1  0  0  0  0
 10 19  1  0  0  0  0
 11 16  1  0  0  0  0
 11 14  1  1  0  0  0
 12 23  1  0  0  0  0
 13  5  1  6  0  0  0
 13  4  1  0  0  0  0
 14 18  1  0  0  0  0
 15 20  1  0  0  0  0
 15  1  1  0  0  0  0
 16  3  1  6  0  0  0
 16  2  1  0  0  0  0
 17 21  1  0  0  0  0
 18  6  2  0  0  0  0
 19 20  2  0  0  0  0
 21 15  2  0  0  0  0
 23 24  2  0  0  0  0
 23 27  1  0  0  0  0
 24 25  1  0  0  0  0
 25 22  2  0  0  0  0
 26 22  1  0  0  0  0
 27 26  2  0  0  0  0
M  END
>  <MODEL>
9

>  <REMARK>
 VINA RESULT:      -5.2      2.097      6.734
  Name = 
  1 active torsions:
  status: ('A' for Active; 'I' for Inactive)
    1  A    between atoms: C_9  and  C_15
                            x       y       z     vdW  Elec       q    Type
                         _______ _______ _______ _____ _____    ______ ____

>  <TORSDO>
F 1

$$$$
