=
 OpenBabel11062408093D

 34 39  0  0  1  0  0  0  0  0999 V2000
  162.0160  210.5180  155.8300 C   0  0  1  0  0  0  0  0  0  0  0  0
  160.3920  213.8140  150.9380 O   0  0  0  0  0  0  0  0  0  0  0  0
  160.7580  210.4830  153.7780 C   0  0  1  0  0  0  0  0  0  0  0  0
  159.3750  210.8520  153.1180 C   0  0  2  0  0  3  0  0  0  0  0  0
  162.9280  210.9860  156.9610 C   0  0  2  0  0  3  0  0  0  0  0  0
  161.1440  208.3020  150.2640 O   0  0  0  0  0  1  0  0  0  0  0  0
  162.6980  212.3280  157.2610 O   0  0  0  0  0  1  0  0  0  0  0  0
  158.2140  213.0890  149.2620 O   0  0  0  0  0  1  0  0  0  0  0  0
  160.4690  211.7630  150.4190 C   0  0  2  0  0  3  0  0  0  0  0  0
  160.5960  213.1170  149.7300 C   0  0  1  0  0  0  0  0  0  0  0  0
  159.4640  213.4080  148.7280 C   0  0  1  0  0  3  0  0  0  0  0  0
  161.0640  211.3810  155.0190 C   0  0  1  0  0  3  0  0  0  0  0  0
  162.3560  210.4120  149.1770 C   0  0  0  0  0  1  0  0  0  0  0  0
  160.4590  212.6070  151.6580 C   0  0  2  0  0  3  0  0  0  0  0  0
  159.2410  212.2740  152.5040 C   0  0  2  0  0  3  0  0  0  0  0  0
  163.4620  210.8770  155.5450 C   0  0  0  0  0  2  0  0  0  0  0  0
  161.0630  212.8980  146.8850 C   0  0  0  0  0  3  0  0  0  0  0  0
  160.8020  209.0350  154.3950 C   0  0  2  0  0  3  0  0  0  0  0  0
  162.1010  213.2450  147.6610 C   0  0  0  0  0  3  0  0  0  0  0  0
  160.8170  209.4690  150.9610 C   0  0  1  0  0  3  0  0  0  0  0  0
  161.7690  209.0930  155.5300 C   0  0  0  0  0  0  0  0  0  0  0  0
  162.0300  209.9420  151.7330 C   0  0  1  0  0  3  0  0  0  0  0  0
  161.5790  210.6970  150.4570 C   0  0  2  0  0  0  0  0  0  0  0  0
  161.8420  210.7630  152.8830 O   0  0  0  0  0  0  0  0  0  0  0  0
  159.0700  213.2450  153.4900 O   0  0  0  0  0  1  0  0  0  0  0  0
  161.7660  208.1640  156.4880 C   0  0  0  0  0  2  0  0  0  0  0  0
  161.9860  213.4560  149.1530 C   0  0  0  0  0  2  0  0  0  0  0  0
  159.6980  212.6150  147.4480 C   0  0  0  0  0  2  0  0  0  0  0  0
  159.9160  211.6060  155.7940 O   0  0  0  0  0  0  0  0  0  0  0  0
  159.9860  212.9440  156.1900 C   0  0  0  0  0  1  0  0  0  0  0  0
  161.0970  207.8500  153.4850 C   0  0  0  0  0  2  0  0  0  0  0  0
  160.4100  206.7230  153.9330 O   0  0  0  0  0  1  0  0  0  0  0  0
  157.2140  211.5320  153.9010 O   0  0  0  0  0  1  0  0  0  0  0  0
  158.1350  210.4870  153.9300 C   0  0  0  0  0  2  0  0  0  0  0  0
  1 16  1  6  0  0  0
  1  5  1  0  0  0  0
  2 14  1  0  0  0  0
  3 24  1  6  0  0  0
  3 18  1  0  0  0  0
  3 12  1  0  0  0  0
  4  3  1  0  0  0  0
  4 34  1  1  0  0  0
  5  7  1  6  0  0  0
  6 20  1  0  0  0  0
  9 23  1  0  0  0  0
  9 14  1  0  0  0  0
 10  9  1  0  0  0  0
 10  2  1  0  0  0  0
 11  8  1  0  0  0  0
 11 10  1  0  0  0  0
 12 29  1  0  0  0  0
 12  1  1  0  0  0  0
 13 23  1  0  0  0  0
 14 15  1  0  0  0  0
 15  4  1  0  0  0  0
 15 25  1  0  0  0  0
 16  5  1  0  0  0  0
 17 28  1  0  0  0  0
 17 19  2  0  0  0  0
 18 21  1  0  0  0  0
 19 27  1  0  0  0  0
 20 22  1  0  0  0  0
 21  1  1  0  0  0  0
 21 26  2  0  0  0  0
 22 24  1  0  0  0  0
 23 20  1  0  0  0  0
 23 22  1  0  0  0  0
 27 10  1  0  0  0  0
 28 11  1  0  0  0  0
 29 30  1  0  0  0  0
 31 32  1  0  0  0  0
 31 18  1  0  0  0  0
 33 34  1  0  0  0  0
M  END
>  <MODEL>
1

>  <REMARK>
 VINA RESULT:      -2.2      0.000      0.000
  Name = 
  3 active torsions:
  status: ('A' for Active; 'I' for Inactive)
    1  A    between atoms: O_2  and  C_15
    2  A    between atoms: C_5  and  C_31
    3  A    between atoms: C_7  and  C_21
                            x       y       z     vdW  Elec       q    Type
                         _______ _______ _______ _____ _____    ______ ____

>  <TORSDO>
F 3

$$$$
