=
 OpenBabel11062410403D

 32 36  0  0  1  0  0  0  0  0999 V2000
  160.5950  203.3010  150.1370 C   0  0  1  0  0  3  0  0  0  0  0  0
  161.2480  207.2590  147.3730 C   0  0  0  0  0  2  0  0  0  0  0  0
  161.5980  208.5660  153.3190 C   0  0  0  0  0  2  0  0  0  0  0  0
  161.6430  210.0030  152.7820 C   0  0  0  0  0  2  0  0  0  0  0  0
  162.5520  205.3560  148.1740 O   0  0  0  0  0  0  0  0  0  0  0  0
  160.0740  205.7880  149.8860 C   0  0  0  0  0  2  0  0  0  0  0  0
  161.8510  204.0280  150.6100 C   0  0  0  0  0  2  0  0  0  0  0  0
  160.7460  207.6620  152.4160 C   0  0  0  0  0  2  0  0  0  0  0  0
  160.8030  207.0950  149.8840 C   0  0  0  0  0  0  0  0  0  0  0  0
  161.1190  207.8690  150.9820 C   0  0  0  0  0  0  0  0  0  0  0  0
  161.9070  208.9160  149.1670 N   0  0  0  0  0  0  0  0  0  0  0  0
  160.9970  204.6330  149.5150 C   0  0  1  0  0  0  0  0  0  0  0  0
  161.5020  204.5540  148.2020 O   0  0  0  0  0  0  0  0  0  0  0  0
  162.3140  210.0610  151.4020 C   0  0  0  0  0  2  0  0  0  0  0  0
  161.7630  208.9900  150.5070 C   0  0  0  0  0  0  0  0  0  0  0  0
  162.3440  206.2270  147.0910 C   0  0  0  0  0  2  0  0  0  0  0  0
  161.3070  207.7680  148.7800 C   0  0  0  0  0  0  0  0  0  0  0  0
  160.4560  200.8290  149.9210 C   0  0  0  0  0  1  0  0  0  0  0  0
  160.9930  202.1000  149.2880 C   0  0  1  0  0  3  0  0  0  0  0  0
  160.7700  201.3540  146.8830 C   0  0  0  0  0  0  0  0  0  0  0  0
  160.4480  202.2510  147.9460 N   0  0  0  0  0  2  0  0  0  0  0  0
  161.5480  200.3820  147.0740 O   0  0  0  0  0  0  0  0  0  0  0  0
  160.0630  201.6160  145.2640 S   0  0  0  0  0  1  0  0  0  0  0  0
  162.5540  209.9000  148.3050 C   0  0  0  0  0  2  0  0  0  0  0  0
  163.9570  212.2850  147.9190 O   0  0  0  0  0  1  0  0  0  0  0  0
  162.0470  213.7430  148.0890 C   0  0  2  0  0  3  0  0  0  0  0  0
  161.8150  211.2310  148.3670 C   0  0  2  0  0  3  0  0  0  0  0  0
  159.9910  212.3090  147.6050 C   0  0  0  0  0  2  0  0  0  0  0  0
  160.5210  213.6440  148.1750 C   0  0  0  0  0  2  0  0  0  0  0  0
  162.4050  214.0300  146.7820 F   0  0  0  0  0  0  0  0  0  0  0  0
  161.0200  211.4180  147.2270 O   0  0  0  0  0  0  0  0  0  0  0  0
  162.7330  212.4500  148.5770 C   0  0  1  0  0  3  0  0  0  0  0  0
  1 19  1  6  0  0  0
  1  7  1  0  0  0  0
  2 17  1  0  0  0  0
  4  3  1  0  0  0  0
  5 13  1  0  0  0  0
  8  3  1  0  0  0  0
  9  6  1  0  0  0  0
  9 10  1  0  0  0  0
 10  8  1  0  0  0  0
 11 15  1  0  0  0  0
 12  6  1  1  0  0  0
 12  1  1  0  0  0  0
 12  7  1  0  0  0  0
 13 12  1  0  0  0  0
 14  4  1  0  0  0  0
 15 10  2  0  0  0  0
 15 14  1  0  0  0  0
 16  2  1  0  0  0  0
 16  5  1  0  0  0  0
 17 11  1  0  0  0  0
 17  9  2  0  0  0  0
 19 18  1  1  0  0  0
 20 22  2  0  0  0  0
 20 21  1  0  0  0  0
 21 19  1  0  0  0  0
 23 20  1  0  0  0  0
 24 11  1  0  0  0  0
 26 30  1  6  0  0  0
 26 29  1  0  0  0  0
 26 32  1  0  0  0  0
 27 24  1  6  0  0  0
 27 32  1  0  0  0  0
 28 29  1  0  0  0  0
 31 28  1  0  0  0  0
 31 27  1  0  0  0  0
 32 25  1  6  0  0  0
M  END
>  <MODEL>
1

>  <REMARK>
 VINA RESULT:      -7.5      0.000      0.000
  Name = 
  4 active torsions:
  status: ('A' for Active; 'I' for Inactive)
    1  A    between atoms: C_2  and  C_24
    2  A    between atoms: N_10  and  C_24
    3  A    between atoms: C_11  and  C_27
    4  A    between atoms: N_16  and  C_27
                            x       y       z     vdW  Elec       q    Type
                         _______ _______ _______ _____ _____    ______ ____

>  <TORSDO>
F 4

$$$$
=
 OpenBabel11062410403D

 32 36  0  0  1  0  0  0  0  0999 V2000
  161.9630  205.7430  146.5930 C   0  0  1  0  0  3  0  0  0  0  0  0
  161.8580  205.5910  151.4610 C   0  0  0  0  0  2  0  0  0  0  0  0
  161.4550  211.3020  149.3640 C   0  0  0  0  0  2  0  0  0  0  0  0
  161.5920  211.6330  150.8570 C   0  0  0  0  0  2  0  0  0  0  0  0
  160.3200  205.2740  149.5910 O   0  0  0  0  0  0  0  0  0  0  0  0
  162.7710  206.8640  148.7410 C   0  0  0  0  0  2  0  0  0  0  0  0
  160.7820  206.5760  147.0850 C   0  0  0  0  0  2  0  0  0  0  0  0
  162.2290  210.0270  149.0040 C   0  0  0  0  0  2  0  0  0  0  0  0
  162.1950  207.5950  149.9130 C   0  0  0  0  0  0  0  0  0  0  0  0
  161.9320  208.9470  149.9970 C   0  0  0  0  0  0  0  0  0  0  0  0
  161.3310  208.0170  151.9430 N   0  0  0  0  0  0  0  0  0  0  0  0
  161.7360  205.9560  148.0850 C   0  0  1  0  0  0  0  0  0  0  0  0
  161.2710  204.8280  148.7900 O   0  0  0  0  0  0  0  0  0  0  0  0
  160.9790  210.5280  151.7300 C   0  0  0  0  0  2  0  0  0  0  0  0
  161.4350  209.1780  151.2610 C   0  0  0  0  0  0  0  0  0  0  0  0
  160.6620  204.8310  150.8800 C   0  0  0  0  0  2  0  0  0  0  0  0
  161.8090  207.0500  151.1290 C   0  0  0  0  0  0  0  0  0  0  0  0
  162.2770  203.9530  144.8970 C   0  0  0  0  0  1  0  0  0  0  0  0
  161.4600  204.3920  146.1000 C   0  0  1  0  0  3  0  0  0  0  0  0
  161.0470  202.0890  147.0580 C   0  0  0  0  0  0  0  0  0  0  0  0
  161.5850  203.4070  147.1660 N   0  0  0  0  0  2  0  0  0  0  0  0
  160.4380  201.7250  146.0180 O   0  0  0  0  0  0  0  0  0  0  0  0
  161.2380  200.9460  148.4160 S   0  0  0  0  0  1  0  0  0  0  0  0
  160.8290  207.8490  153.3030 C   0  0  0  0  0  2  0  0  0  0  0  0
  159.3190  208.1820  155.6290 O   0  0  0  0  0  1  0  0  0  0  0  0
  160.0930  210.4080  156.1280 C   0  0  2  0  0  3  0  0  0  0  0  0
  160.8850  209.1710  154.0590 C   0  0  2  0  0  3  0  0  0  0  0  0
  162.3100  210.7010  154.8960 C   0  0  0  0  0  2  0  0  0  0  0  0
  161.1480  211.4020  155.6350 C   0  0  0  0  0  2  0  0  0  0  0  0
  160.5740  209.7680  157.2590 F   0  0  0  0  0  0  0  0  0  0  0  0
  162.1070  209.3130  154.7330 O   0  0  0  0  0  0  0  0  0  0  0  0
  159.7140  209.3860  155.0370 C   0  0  1  0  0  3  0  0  0  0  0  0
  1 19  1  1  0  0  0
  1  7  1  0  0  0  0
  1 12  1  0  0  0  0
  3  4  1  0  0  0  0
  4 14  1  0  0  0  0
  5 16  1  0  0  0  0
  6  9  1  0  0  0  0
  8  3  1  0  0  0  0
  8 10  1  0  0  0  0
  9 10  1  0  0  0  0
  9 17  2  0  0  0  0
 10 15  2  0  0  0  0
 11 24  1  0  0  0  0
 12  7  1  6  0  0  0
 12  6  1  0  0  0  0
 12 13  1  0  0  0  0
 13  5  1  0  0  0  0
 15 14  1  0  0  0  0
 15 11  1  0  0  0  0
 16  2  1  0  0  0  0
 17  2  1  0  0  0  0
 17 11  1  0  0  0  0
 19 18  1  6  0  0  0
 19 21  1  0  0  0  0
 20 21  1  0  0  0  0
 20 23  1  0  0  0  0
 22 20  2  0  0  0  0
 26 30  1  1  0  0  0
 27 24  1  1  0  0  0
 27 31  1  0  0  0  0
 27 32  1  0  0  0  0
 28 29  1  0  0  0  0
 29 26  1  0  0  0  0
 31 28  1  0  0  0  0
 32 25  1  1  0  0  0
 32 26  1  0  0  0  0
M  END
>  <MODEL>
2

>  <REMARK>
 VINA RESULT:      -5.7      3.409      5.212
  Name = 
  4 active torsions:
  status: ('A' for Active; 'I' for Inactive)
    1  A    between atoms: C_2  and  C_24
    2  A    between atoms: N_10  and  C_24
    3  A    between atoms: C_11  and  C_27
    4  A    between atoms: N_16  and  C_27
                            x       y       z     vdW  Elec       q    Type
                         _______ _______ _______ _____ _____    ______ ____

>  <TORSDO>
F 4

$$$$
=
 OpenBabel11062410403D

 32 36  0  0  1  0  0  0  0  0999 V2000
  160.8380  203.8370  149.4840 C   0  0  1  0  0  3  0  0  0  0  0  0
  161.5020  208.5910  148.6520 C   0  0  0  0  0  2  0  0  0  0  0  0
  161.1450  207.3630  154.6140 C   0  0  0  0  0  2  0  0  0  0  0  0
  161.1470  208.8960  154.7120 C   0  0  0  0  0  2  0  0  0  0  0  0
  162.8430  206.5540  148.7710 O   0  0  0  0  0  0  0  0  0  0  0  0
  160.1770  206.1990  150.1950 C   0  0  0  0  0  2  0  0  0  0  0  0
  161.9860  204.3330  150.3600 C   0  0  0  0  0  2  0  0  0  0  0  0
  160.4550  206.8900  153.3270 C   0  0  0  0  0  2  0  0  0  0  0  0
  160.8120  207.4080  150.8090 C   0  0  0  0  0  0  0  0  0  0  0  0
  160.9590  207.6720  152.1550 C   0  0  0  0  0  0  0  0  0  0  0  0
  161.8570  209.3850  151.0270 N   0  0  0  0  0  0  0  0  0  0  0  0
  161.2110  205.3150  149.5060 C   0  0  1  0  0  0  0  0  0  0  0  0
  161.8530  205.7900  148.3450 O   0  0  0  0  0  0  0  0  0  0  0  0
  161.9520  209.5250  153.5660 C   0  0  0  0  0  2  0  0  0  0  0  0
  161.5700  208.9020  152.2550 C   0  0  0  0  0  0  0  0  0  0  0  0
  162.6890  207.7870  148.1150 C   0  0  0  0  0  2  0  0  0  0  0  0
  161.3800  208.4830  150.1400 C   0  0  0  0  0  0  0  0  0  0  0  0
  161.0790  201.6160  148.3940 C   0  0  0  0  0  1  0  0  0  0  0  0
  161.4040  203.0960  148.2790 C   0  0  1  0  0  3  0  0  0  0  0  0
  161.6150  204.0550  145.9500 C   0  0  0  0  0  0  0  0  0  0  0  0
  160.8200  203.6350  147.0580 N   0  0  0  0  0  2  0  0  0  0  0  0
  162.8710  203.9690  145.9880 O   0  0  0  0  0  0  0  0  0  0  0  0
  160.8190  204.7140  144.4930 S   0  0  0  0  0  1  0  0  0  0  0  0
  162.5210  210.6470  150.7210 C   0  0  0  0  0  2  0  0  0  0  0  0
  160.7890  212.7910  151.1790 O   0  0  0  0  0  1  0  0  0  0  0  0
  160.3190  213.2480  148.8620 C   0  0  2  0  0  3  0  0  0  0  0  0
  161.8410  211.3360  149.5440 C   0  0  2  0  0  3  0  0  0  0  0  0
  162.2350  212.2290  147.5150 C   0  0  0  0  0  2  0  0  0  0  0  0
  160.8040  212.8120  147.4760 C   0  0  0  0  0  2  0  0  0  0  0  0
  160.9200  214.4530  149.1880 F   0  0  0  0  0  0  0  0  0  0  0  0
  162.7540  212.1200  148.8240 O   0  0  0  0  0  0  0  0  0  0  0  0
  160.6120  212.1790  149.9340 C   0  0  1  0  0  3  0  0  0  0  0  0
  1 19  1  6  0  0  0
  1 12  1  0  0  0  0
  1  7  1  0  0  0  0
  2 17  1  0  0  0  0
  3  4  1  0  0  0  0
  6  9  1  0  0  0  0
  8  3  1  0  0  0  0
  9 10  1  0  0  0  0
 10 15  2  0  0  0  0
 10  8  1  0  0  0  0
 11 15  1  0  0  0  0
 12  6  1  1  0  0  0
 12  7  1  0  0  0  0
 13  5  1  0  0  0  0
 13 12  1  0  0  0  0
 14  4  1  0  0  0  0
 15 14  1  0  0  0  0
 16  2  1  0  0  0  0
 16  5  1  0  0  0  0
 17  9  2  0  0  0  0
 17 11  1  0  0  0  0
 19 18  1  1  0  0  0
 20 22  2  0  0  0  0
 20 21  1  0  0  0  0
 21 19  1  0  0  0  0
 23 20  1  0  0  0  0
 24 11  1  0  0  0  0
 26 30  1  1  0  0  0
 26 32  1  0  0  0  0
 27 32  1  0  0  0  0
 27 24  1  1  0  0  0
 28 31  1  0  0  0  0
 29 28  1  0  0  0  0
 29 26  1  0  0  0  0
 31 27  1  0  0  0  0
 32 25  1  1  0  0  0
M  END
>  <MODEL>
3

>  <REMARK>
 VINA RESULT:      -5.7      1.672      2.109
  Name = 
  4 active torsions:
  status: ('A' for Active; 'I' for Inactive)
    1  A    between atoms: C_2  and  C_24
    2  A    between atoms: N_10  and  C_24
    3  A    between atoms: C_11  and  C_27
    4  A    between atoms: N_16  and  C_27
                            x       y       z     vdW  Elec       q    Type
                         _______ _______ _______ _____ _____    ______ ____

>  <TORSDO>
F 4

$$$$
=
 OpenBabel11062410403D

 32 36  0  0  1  0  0  0  0  0999 V2000
  158.2580  213.1640  155.1470 C   0  0  1  0  0  3  0  0  0  0  0  0
  160.3350  209.0890  153.4700 C   0  0  0  0  0  2  0  0  0  0  0  0
  160.7790  213.6690  149.4690 C   0  0  0  0  0  2  0  0  0  0  0  0
  161.3280  212.5500  148.5730 C   0  0  0  0  0  2  0  0  0  0  0  0
  160.8880  210.9380  154.9660 O   0  0  0  0  0  0  0  0  0  0  0  0
  158.6060  211.6830  153.0960 C   0  0  0  0  0  2  0  0  0  0  0  0
  159.6570  213.5000  154.6370 C   0  0  0  0  0  2  0  0  0  0  0  0
  159.7260  213.1320  150.4480 C   0  0  0  0  0  2  0  0  0  0  0  0
  159.7270  211.2290  152.2130 C   0  0  0  0  0  0  0  0  0  0  0  0
  160.2220  211.8810  151.1030 C   0  0  0  0  0  0  0  0  0  0  0  0
  161.4090  210.0020  151.3700 N   0  0  0  0  0  0  0  0  0  0  0  0
  159.1120  212.0960  154.4740 C   0  0  1  0  0  0  0  0  0  0  0  0
  159.6320  211.1110  155.3360 O   0  0  0  0  0  0  0  0  0  0  0  0
  162.0530  211.4800  149.4010 C   0  0  0  0  0  2  0  0  0  0  0  0
  161.2260  211.0900  150.5910 C   0  0  0  0  0  0  0  0  0  0  0  0
  161.0400  209.5580  154.7460 C   0  0  0  0  0  2  0  0  0  0  0  0
  160.4840  210.0750  152.3530 C   0  0  0  0  0  0  0  0  0  0  0  0
  158.0330  214.4520  157.2610 C   0  0  0  0  0  1  0  0  0  0  0  0
  158.2800  213.0760  156.6680 C   0  0  1  0  0  3  0  0  0  0  0  0
  155.9020  212.2200  156.6410 C   0  0  0  0  0  0  0  0  0  0  0  0
  157.2460  212.1530  157.1170 N   0  0  0  0  0  2  0  0  0  0  0  0
  155.5590  213.0910  155.8000 O   0  0  0  0  0  0  0  0  0  0  0  0
  154.6930  211.0550  157.2500 S   0  0  0  0  0  1  0  0  0  0  0  0
  162.3910  208.9420  151.1680 C   0  0  0  0  0  2  0  0  0  0  0  0
  162.1320  208.1640  148.4980 O   0  0  0  0  0  1  0  0  0  0  0  0
  161.0630  206.0520  148.9430 C   0  0  2  0  0  3  0  0  0  0  0  0
  161.6960  207.6290  150.8260 C   0  0  2  0  0  3  0  0  0  0  0  0
  161.6310  205.4420  151.3560 C   0  0  0  0  0  2  0  0  0  0  0  0
  160.7230  205.1570  150.1390 C   0  0  0  0  0  2  0  0  0  0  0  0
  162.2130  205.5730  148.3370 F   0  0  0  0  0  0  0  0  0  0  0  0
  162.5060  206.5320  151.1540 O   0  0  0  0  0  0  0  0  0  0  0  0
  161.2340  207.5270  149.3610 C   0  0  1  0  0  3  0  0  0  0  0  0
  1 19  1  1  0  0  0
  2 16  1  0  0  0  0
  3  8  1  0  0  0  0
  4 14  1  0  0  0  0
  4  3  1  0  0  0  0
  5 13  1  0  0  0  0
  7  1  1  0  0  0  0
  8 10  1  0  0  0  0
  9 17  2  0  0  0  0
  9  6  1  0  0  0  0
 10  9  1  0  0  0  0
 11 17  1  0  0  0  0
 12  6  1  6  0  0  0
 12  7  1  0  0  0  0
 12  1  1  0  0  0  0
 12 13  1  0  0  0  0
 14 15  1  0  0  0  0
 15 10  2  0  0  0  0
 15 11  1  0  0  0  0
 16  5  1  0  0  0  0
 17  2  1  0  0  0  0
 19 21  1  0  0  0  0
 19 18  1  1  0  0  0
 20 21  1  0  0  0  0
 20 23  1  0  0  0  0
 22 20  2  0  0  0  0
 24 11  1  0  0  0  0
 26 30  1  1  0  0  0
 26 32  1  0  0  0  0
 26 29  1  0  0  0  0
 27 31  1  0  0  0  0
 27 24  1  6  0  0  0
 29 28  1  0  0  0  0
 31 28  1  0  0  0  0
 32 25  1  6  0  0  0
 32 27  1  0  0  0  0
M  END
>  <MODEL>
4

>  <REMARK>
 VINA RESULT:      -5.5      5.433      9.050
  Name = 
  4 active torsions:
  status: ('A' for Active; 'I' for Inactive)
    1  A    between atoms: C_2  and  C_24
    2  A    between atoms: N_10  and  C_24
    3  A    between atoms: C_11  and  C_27
    4  A    between atoms: N_16  and  C_27
                            x       y       z     vdW  Elec       q    Type
                         _______ _______ _______ _____ _____    ______ ____

>  <TORSDO>
F 4

$$$$
=
 OpenBabel11062410403D

 32 36  0  0  1  0  0  0  0  0999 V2000
  159.8490  211.7340  155.1610 C   0  0  1  0  0  3  0  0  0  0  0  0
  160.3360  206.9530  154.3630 C   0  0  0  0  0  2  0  0  0  0  0  0
  162.3300  210.2520  149.6390 C   0  0  0  0  0  2  0  0  0  0  0  0
  162.4390  208.8640  148.9910 C   0  0  0  0  0  2  0  0  0  0  0  0
  161.5220  208.7390  155.5330 O   0  0  0  0  0  0  0  0  0  0  0  0
  159.6320  209.8670  153.4320 C   0  0  0  0  0  2  0  0  0  0  0  0
  161.2720  211.4590  154.6790 C   0  0  0  0  0  2  0  0  0  0  0  0
  161.1650  210.3100  150.6350 C   0  0  0  0  0  2  0  0  0  0  0  0
  160.5110  208.8940  152.7110 C   0  0  0  0  0  0  0  0  0  0  0  0
  161.1940  209.1110  151.5320 C   0  0  0  0  0  0  0  0  0  0  0  0
  161.6430  207.0220  152.1990 N   0  0  0  0  0  0  0  0  0  0  0  0
  160.2650  210.3290  154.7400 C   0  0  1  0  0  0  0  0  0  0  0  0
  160.4110  209.4050  155.7940 O   0  0  0  0  0  0  0  0  0  0  0  0
  162.7480  207.7840  150.0370 C   0  0  0  0  0  2  0  0  0  0  0  0
  161.8490  207.9380  151.2290 C   0  0  0  0  0  0  0  0  0  0  0  0
  161.1740  207.3780  155.5730 C   0  0  0  0  0  2  0  0  0  0  0  0
  160.8130  207.5960  153.0980 C   0  0  0  0  0  0  0  0  0  0  0  0
  160.2980  213.3470  156.9980 C   0  0  0  0  0  1  0  0  0  0  0  0
  159.8540  211.9310  156.6710 C   0  0  1  0  0  3  0  0  0  0  0  0
  157.3410  212.1620  156.5270 C   0  0  0  0  0  0  0  0  0  0  0  0
  158.5150  211.7020  157.1960 N   0  0  0  0  0  2  0  0  0  0  0  0
  157.4240  212.7900  155.4380 O   0  0  0  0  0  0  0  0  0  0  0  0
  155.7360  211.8450  157.2430 S   0  0  0  0  0  1  0  0  0  0  0  0
  162.1850  205.6680  152.2470 C   0  0  0  0  0  2  0  0  0  0  0  0
  161.0900  203.1030  152.3920 O   0  0  0  0  0  1  0  0  0  0  0  0
  160.8310  202.7930  150.0180 C   0  0  2  0  0  3  0  0  0  0  0  0
  161.8510  204.9140  150.9650 C   0  0  2  0  0  3  0  0  0  0  0  0
  160.8160  205.1250  148.9770 C   0  0  0  0  0  2  0  0  0  0  0  0
  160.9550  203.6060  148.7260 C   0  0  0  0  0  2  0  0  0  0  0  0
  159.4950  202.7240  150.3780 F   0  0  0  0  0  0  0  0  0  0  0  0
  160.7140  205.4540  150.3460 O   0  0  0  0  0  0  0  0  0  0  0  0
  161.6780  203.3950  151.1570 C   0  0  1  0  0  3  0  0  0  0  0  0
  1 19  1  1  0  0  0
  2 16  1  0  0  0  0
  3  8  1  0  0  0  0
  4  3  1  0  0  0  0
  4 14  1  0  0  0  0
  5 16  1  0  0  0  0
  5 13  1  0  0  0  0
  7 12  1  0  0  0  0
  7  1  1  0  0  0  0
  8 10  1  0  0  0  0
  9 17  2  0  0  0  0
  9  6  1  0  0  0  0
 10  9  1  0  0  0  0
 11 24  1  0  0  0  0
 11 17  1  0  0  0  0
 12  6  1  6  0  0  0
 12  1  1  0  0  0  0
 12 13  1  0  0  0  0
 14 15  1  0  0  0  0
 15 10  2  0  0  0  0
 15 11  1  0  0  0  0
 17  2  1  0  0  0  0
 19 18  1  6  0  0  0
 19 21  1  0  0  0  0
 20 21  1  0  0  0  0
 20 23  1  0  0  0  0
 22 20  2  0  0  0  0
 26 30  1  1  0  0  0
 26 32  1  0  0  0  0
 27 32  1  0  0  0  0
 27 24  1  1  0  0  0
 28 31  1  0  0  0  0
 29 28  1  0  0  0  0
 29 26  1  0  0  0  0
 31 27  1  0  0  0  0
 32 25  1  1  0  0  0
M  END
>  <MODEL>
5

>  <REMARK>
 VINA RESULT:      -5.4      5.351      9.108
  Name = 
  4 active torsions:
  status: ('A' for Active; 'I' for Inactive)
    1  A    between atoms: C_2  and  C_24
    2  A    between atoms: N_10  and  C_24
    3  A    between atoms: C_11  and  C_27
    4  A    between atoms: N_16  and  C_27
                            x       y       z     vdW  Elec       q    Type
                         _______ _______ _______ _____ _____    ______ ____

>  <TORSDO>
F 4

$$$$
=
 OpenBabel11062410403D

 32 36  0  0  1  0  0  0  0  0999 V2000
  161.4060  205.5720  147.5980 C   0  0  1  0  0  3  0  0  0  0  0  0
  162.4510  207.4640  151.9640 C   0  0  0  0  0  2  0  0  0  0  0  0
  161.1890  211.7950  147.8620 C   0  0  0  0  0  2  0  0  0  0  0  0
  161.6480  212.7120  149.0050 C   0  0  0  0  0  2  0  0  0  0  0  0
  160.5440  206.4560  150.8200 O   0  0  0  0  0  0  0  0  0  0  0  0
  162.6160  207.4540  148.8290 C   0  0  0  0  0  2  0  0  0  0  0  0
  160.3190  206.5780  147.9700 C   0  0  0  0  0  2  0  0  0  0  0  0
  161.9410  210.4580  147.8860 C   0  0  0  0  0  2  0  0  0  0  0  0
  162.2830  208.6280  149.6950 C   0  0  0  0  0  0  0  0  0  0  0  0
  161.9560  209.9010  149.2750 C   0  0  0  0  0  0  0  0  0  0  0  0
  161.8900  209.8890  151.5130 N   0  0  0  0  0  0  0  0  0  0  0  0
  161.5200  206.3960  148.8750 C   0  0  1  0  0  0  0  0  0  0  0  0
  161.3080  205.6810  150.0720 O   0  0  0  0  0  0  0  0  0  0  0  0
  161.3310  212.0950  150.3740 C   0  0  0  0  0  2  0  0  0  0  0  0
  161.7540  210.6560  150.4090 C   0  0  0  0  0  0  0  0  0  0  0  0
  161.2060  206.5770  152.0530 C   0  0  0  0  0  2  0  0  0  0  0  0
  162.2290  208.6540  151.0820 C   0  0  0  0  0  0  0  0  0  0  0  0
  161.3420  203.2520  146.7090 C   0  0  0  0  0  1  0  0  0  0  0  0
  160.8930  204.1580  147.8420 C   0  0  1  0  0  3  0  0  0  0  0  0
  160.7980  202.5980  149.8290 C   0  0  0  0  0  0  0  0  0  0  0  0
  161.4180  203.6630  149.1070 N   0  0  0  0  0  2  0  0  0  0  0  0
  159.7610  202.0380  149.3860 O   0  0  0  0  0  0  0  0  0  0  0  0
  161.5020  202.0560  151.3780 S   0  0  0  0  0  1  0  0  0  0  0  0
  161.7320  210.3210  152.8980 C   0  0  0  0  0  2  0  0  0  0  0  0
  160.7220  209.9370  155.4740 O   0  0  0  0  0  1  0  0  0  0  0  0
  158.5040  210.7540  155.0110 C   0  0  2  0  0  3  0  0  0  0  0  0
  160.2700  210.6380  153.1930 C   0  0  2  0  0  3  0  0  0  0  0  0
  158.6870  212.2160  152.9260 C   0  0  0  0  0  2  0  0  0  0  0  0
  157.7420  211.4530  153.8810 C   0  0  0  0  0  2  0  0  0  0  0  0
  158.8750  211.6990  155.9540 F   0  0  0  0  0  0  0  0  0  0  0  0
  160.0540  212.0230  153.2250 O   0  0  0  0  0  0  0  0  0  0  0  0
  159.7350  209.9890  154.4840 C   0  0  1  0  0  3  0  0  0  0  0  0
  1 19  1  1  0  0  0
  1  7  1  0  0  0  0
  1 12  1  0  0  0  0
  2 16  1  0  0  0  0
  3  8  1  0  0  0  0
  3  4  1  0  0  0  0
  4 14  1  0  0  0  0
  5 16  1  0  0  0  0
  6 12  1  0  0  0  0
  6  9  1  0  0  0  0
  8 10  1  0  0  0  0
  9 17  2  0  0  0  0
 10  9  1  0  0  0  0
 10 15  2  0  0  0  0
 11 24  1  0  0  0  0
 12  7  1  6  0  0  0
 12 13  1  0  0  0  0
 13  5  1  0  0  0  0
 14 15  1  0  0  0  0
 15 11  1  0  0  0  0
 17 11  1  0  0  0  0
 17  2  1  0  0  0  0
 19 18  1  6  0  0  0
 19 21  1  0  0  0  0
 20 23  1  0  0  0  0
 21 20  1  0  0  0  0
 22 20  2  0  0  0  0
 26 30  1  1  0  0  0
 27 24  1  1  0  0  0
 27 31  1  0  0  0  0
 27 32  1  0  0  0  0
 28 31  1  0  0  0  0
 28 29  1  0  0  0  0
 29 26  1  0  0  0  0
 32 26  1  0  0  0  0
 32 25  1  1  0  0  0
M  END
>  <MODEL>
6

>  <REMARK>
 VINA RESULT:      -5.3      3.426      4.930
  Name = 
  4 active torsions:
  status: ('A' for Active; 'I' for Inactive)
    1  A    between atoms: C_2  and  C_24
    2  A    between atoms: N_10  and  C_24
    3  A    between atoms: C_11  and  C_27
    4  A    between atoms: N_16  and  C_27
                            x       y       z     vdW  Elec       q    Type
                         _______ _______ _______ _____ _____    ______ ____

>  <TORSDO>
F 4

$$$$
=
 OpenBabel11062410403D

 32 36  0  0  1  0  0  0  0  0999 V2000
  160.8210  203.8590  149.5130 C   0  0  1  0  0  3  0  0  0  0  0  0
  161.5340  208.5960  148.6270 C   0  0  0  0  0  2  0  0  0  0  0  0
  161.1470  207.4420  154.6020 C   0  0  0  0  0  2  0  0  0  0  0  0
  161.1640  208.9750  154.6820 C   0  0  0  0  0  2  0  0  0  0  0  0
  162.8540  206.5480  148.7740 O   0  0  0  0  0  0  0  0  0  0  0  0
  160.1810  206.2360  150.1940 C   0  0  0  0  0  2  0  0  0  0  0  0
  161.9710  204.3540  150.3860 C   0  0  0  0  0  2  0  0  0  0  0  0
  160.4570  206.9600  153.3190 C   0  0  0  0  0  2  0  0  0  0  0  0
  160.8260  207.4450  150.7960 C   0  0  0  0  0  0  0  0  0  0  0  0
  160.9720  207.7240  152.1390 C   0  0  0  0  0  0  0  0  0  0  0  0
  161.8890  209.4140  150.9940 N   0  0  0  0  0  0  0  0  0  0  0  0
  161.2080  205.3330  149.5180 C   0  0  1  0  0  0  0  0  0  0  0  0
  161.8580  205.7880  148.3540 O   0  0  0  0  0  0  0  0  0  0  0  0
  161.9790  209.5830  153.5310 C   0  0  0  0  0  2  0  0  0  0  0  0
  161.5950  208.9480  152.2270 C   0  0  0  0  0  0  0  0  0  0  0  0
  162.7150  207.7740  148.1030 C   0  0  0  0  0  2  0  0  0  0  0  0
  161.4060  208.5070  150.1160 C   0  0  0  0  0  0  0  0  0  0  0  0
  161.0410  201.6240  148.4480 C   0  0  0  0  0  1  0  0  0  0  0  0
  161.3830  203.0980  148.3180 C   0  0  1  0  0  3  0  0  0  0  0  0
  161.6140  204.0490  145.9870 C   0  0  0  0  0  0  0  0  0  0  0  0
  160.8090  203.6310  147.0890 N   0  0  0  0  0  2  0  0  0  0  0  0
  162.8700  203.9660  146.0390 O   0  0  0  0  0  0  0  0  0  0  0  0
  160.8310  204.6990  144.5200 S   0  0  0  0  0  1  0  0  0  0  0  0
  162.5670  210.6660  150.6750 C   0  0  0  0  0  2  0  0  0  0  0  0
  161.6560  211.7790  148.2800 O   0  0  0  0  0  1  0  0  0  0  0  0
  160.1610  213.3770  149.2850 C   0  0  2  0  0  3  0  0  0  0  0  0
  161.5810  211.8290  150.7070 C   0  0  2  0  0  3  0  0  0  0  0  0
  159.6500  212.5190  151.6350 C   0  0  0  0  0  2  0  0  0  0  0  0
  159.5950  213.7220  150.6660 C   0  0  0  0  0  2  0  0  0  0  0  0
  159.2230  212.6320  148.5890 F   0  0  0  0  0  0  0  0  0  0  0  0
  160.3040  211.3940  151.0870 O   0  0  0  0  0  0  0  0  0  0  0  0
  161.5000  212.6190  149.3870 C   0  0  1  0  0  3  0  0  0  0  0  0
  1 19  1  6  0  0  0
  1 12  1  0  0  0  0
  1  7  1  0  0  0  0
  2 17  1  0  0  0  0
  3  4  1  0  0  0  0
  6  9  1  0  0  0  0
  8  3  1  0  0  0  0
  9 10  1  0  0  0  0
 10 15  2  0  0  0  0
 10  8  1  0  0  0  0
 11 15  1  0  0  0  0
 12  6  1  1  0  0  0
 12  7  1  0  0  0  0
 13  5  1  0  0  0  0
 13 12  1  0  0  0  0
 14  4  1  0  0  0  0
 15 14  1  0  0  0  0
 16  2  1  0  0  0  0
 16  5  1  0  0  0  0
 17  9  2  0  0  0  0
 17 11  1  0  0  0  0
 19 18  1  1  0  0  0
 20 22  2  0  0  0  0
 20 21  1  0  0  0  0
 21 19  1  0  0  0  0
 23 20  1  0  0  0  0
 24 11  1  0  0  0  0
 26 30  1  1  0  0  0
 26 32  1  0  0  0  0
 26 29  1  0  0  0  0
 27 24  1  6  0  0  0
 27 31  1  0  0  0  0
 29 28  1  0  0  0  0
 31 28  1  0  0  0  0
 32 25  1  6  0  0  0
 32 27  1  0  0  0  0
M  END
>  <MODEL>
7

>  <REMARK>
 VINA RESULT:      -5.0      1.856      2.238
  Name = 
  4 active torsions:
  status: ('A' for Active; 'I' for Inactive)
    1  A    between atoms: C_2  and  C_24
    2  A    between atoms: N_10  and  C_24
    3  A    between atoms: C_11  and  C_27
    4  A    between atoms: N_16  and  C_27
                            x       y       z     vdW  Elec       q    Type
                         _______ _______ _______ _____ _____    ______ ____

>  <TORSDO>
F 4

$$$$
=
 OpenBabel11062410403D

 32 36  0  0  1  0  0  0  0  0999 V2000
  162.5050  206.5060  147.3800 C   0  0  1  0  0  3  0  0  0  0  0  0
  161.5780  206.3320  152.1590 C   0  0  0  0  0  2  0  0  0  0  0  0
  161.0180  211.9870  149.9480 C   0  0  0  0  0  2  0  0  0  0  0  0
  160.8650  212.3250  151.4380 C   0  0  0  0  0  2  0  0  0  0  0  0
  160.4210  205.8790  150.0570 O   0  0  0  0  0  0  0  0  0  0  0  0
  162.8250  207.6920  149.6190 C   0  0  0  0  0  2  0  0  0  0  0  0
  161.1850  207.2250  147.6510 C   0  0  0  0  0  2  0  0  0  0  0  0
  161.9570  210.7900  149.7440 C   0  0  0  0  0  2  0  0  0  0  0  0
  161.9910  208.3640  150.6650 C   0  0  0  0  0  0  0  0  0  0  0  0
  161.5930  209.6840  150.6850 C   0  0  0  0  0  0  0  0  0  0  0  0
  160.7550  208.6980  152.5110 N   0  0  0  0  0  0  0  0  0  0  0  0
  162.0060  206.6940  148.8080 C   0  0  1  0  0  0  0  0  0  0  0  0
  161.5320  205.5250  149.4370 O   0  0  0  0  0  0  0  0  0  0  0  0
  160.2150  211.1650  152.2070 C   0  0  0  0  0  2  0  0  0  0  0  0
  160.8680  209.8650  151.8420 C   0  0  0  0  0  0  0  0  0  0  0  0
  160.5750  205.4660  151.3920 C   0  0  0  0  0  2  0  0  0  0  0  0
  161.4530  207.7810  151.8040 C   0  0  0  0  0  0  0  0  0  0  0  0
  163.3920  204.6600  145.9720 C   0  0  0  0  0  1  0  0  0  0  0  0
  162.2210  205.1160  146.8250 C   0  0  1  0  0  3  0  0  0  0  0  0
  161.2880  202.9690  147.7790 C   0  0  0  0  0  0  0  0  0  0  0  0
  162.0220  204.1840  147.9270 N   0  0  0  0  0  2  0  0  0  0  0  0
  160.7810  202.6530  146.6700 O   0  0  0  0  0  0  0  0  0  0  0  0
  161.0840  201.8860  149.1840 S   0  0  0  0  0  1  0  0  0  0  0  0
  160.0440  208.4800  153.7670 C   0  0  0  0  0  2  0  0  0  0  0  0
  160.6130  207.2680  156.2190 O   0  0  0  0  0  1  0  0  0  0  0  0
  161.6200  209.2020  157.2400 C   0  0  2  0  0  3  0  0  0  0  0  0
  160.6770  209.2970  154.8860 C   0  0  2  0  0  3  0  0  0  0  0  0
  162.3510  210.7350  155.3330 C   0  0  0  0  0  2  0  0  0  0  0  0
  162.0750  210.6120  156.8490 C   0  0  0  0  0  2  0  0  0  0  0  0
  162.7240  208.3650  157.2600 F   0  0  0  0  0  0  0  0  0  0  0  0
  162.0260  209.5650  154.6120 O   0  0  0  0  0  0  0  0  0  0  0  0
  160.5380  208.6630  156.2830 C   0  0  1  0  0  3  0  0  0  0  0  0
  1 19  1  6  0  0  0
  1  7  1  0  0  0  0
  1 12  1  0  0  0  0
  3  4  1  0  0  0  0
  4 14  1  0  0  0  0
  5 16  1  0  0  0  0
  6  9  1  0  0  0  0
  8  3  1  0  0  0  0
  8 10  1  0  0  0  0
  9 10  1  0  0  0  0
  9 17  2  0  0  0  0
 10 15  2  0  0  0  0
 11 24  1  0  0  0  0
 12  7  1  6  0  0  0
 12 13  1  0  0  0  0
 12  6  1  0  0  0  0
 13  5  1  0  0  0  0
 15 14  1  0  0  0  0
 15 11  1  0  0  0  0
 16  2  1  0  0  0  0
 17  2  1  0  0  0  0
 17 11  1  0  0  0  0
 19 18  1  1  0  0  0
 19 21  1  0  0  0  0
 20 21  1  0  0  0  0
 20 23  1  0  0  0  0
 22 20  2  0  0  0  0
 26 30  1  6  0  0  0
 27 24  1  6  0  0  0
 27 32  1  0  0  0  0
 28 29  1  0  0  0  0
 29 26  1  0  0  0  0
 31 27  1  0  0  0  0
 31 28  1  0  0  0  0
 32 25  1  6  0  0  0
 32 26  1  0  0  0  0
M  END
>  <MODEL>
8

>  <REMARK>
 VINA RESULT:      -5.0      3.606      5.647
  Name = 
  4 active torsions:
  status: ('A' for Active; 'I' for Inactive)
    1  A    between atoms: C_2  and  C_24
    2  A    between atoms: N_10  and  C_24
    3  A    between atoms: C_11  and  C_27
    4  A    between atoms: N_16  and  C_27
                            x       y       z     vdW  Elec       q    Type
                         _______ _______ _______ _____ _____    ______ ____

>  <TORSDO>
F 4

$$$$
=
 OpenBabel11062410403D

 32 36  0  0  1  0  0  0  0  0999 V2000
  160.8280  203.4550  148.5630 C   0  0  1  0  0  3  0  0  0  0  0  0
  161.4190  208.2900  148.5130 C   0  0  0  0  0  2  0  0  0  0  0  0
  161.0450  206.1130  154.1960 C   0  0  0  0  0  2  0  0  0  0  0  0
  161.0210  207.6090  154.5390 C   0  0  0  0  0  2  0  0  0  0  0  0
  162.7920  206.2810  148.3140 O   0  0  0  0  0  0  0  0  0  0  0  0
  160.1240  205.6610  149.6390 C   0  0  0  0  0  2  0  0  0  0  0  0
  161.9620  203.8210  149.5180 C   0  0  0  0  0  2  0  0  0  0  0  0
  160.3710  205.8420  152.8440 C   0  0  0  0  0  2  0  0  0  0  0  0
  160.7350  206.7650  150.4460 C   0  0  0  0  0  0  0  0  0  0  0  0
  160.8690  206.8110  151.8180 C   0  0  0  0  0  0  0  0  0  0  0  0
  161.7460  208.6970  150.9880 N   0  0  0  0  0  0  0  0  0  0  0  0
  161.1760  204.9150  148.8260 C   0  0  1  0  0  0  0  0  0  0  0  0
  161.8180  205.5810  147.7620 O   0  0  0  0  0  0  0  0  0  0  0  0
  161.8230  208.4270  153.5170 C   0  0  0  0  0  2  0  0  0  0  0  0
  161.4600  208.0170  152.1200 C   0  0  0  0  0  0  0  0  0  0  0  0
  162.6230  207.6010  147.8640 C   0  0  0  0  0  2  0  0  0  0  0  0
  161.2890  207.9420  149.9630 C   0  0  0  0  0  0  0  0  0  0  0  0
  160.9740  201.4870  147.0520 C   0  0  0  0  0  1  0  0  0  0  0  0
  161.4130  202.9260  147.2590 C   0  0  1  0  0  3  0  0  0  0  0  0
  161.8470  204.4090  145.2580 C   0  0  0  0  0  0  0  0  0  0  0  0
  160.9490  203.7480  146.1500 N   0  0  0  0  0  2  0  0  0  0  0  0
  163.0930  204.2990  145.4010 O   0  0  0  0  0  0  0  0  0  0  0  0
  161.1940  205.4040  143.9280 S   0  0  0  0  0  1  0  0  0  0  0  0
  162.3910  210.0010  150.8950 C   0  0  0  0  0  2  0  0  0  0  0  0
  160.9180  211.7890  152.4570 O   0  0  0  0  0  1  0  0  0  0  0  0
  159.8980  212.9640  150.6190 C   0  0  2  0  0  3  0  0  0  0  0  0
  161.4640  211.0080  150.2230 C   0  0  2  0  0  3  0  0  0  0  0  0
  161.3700  212.5400  148.5760 C   0  0  0  0  0  2  0  0  0  0  0  0
  160.0000  213.0340  149.0920 C   0  0  0  0  0  2  0  0  0  0  0  0
  160.6090  214.0200  151.1650 F   0  0  0  0  0  0  0  0  0  0  0  0
  162.1970  212.0280  149.6000 O   0  0  0  0  0  0  0  0  0  0  0  0
  160.4080  211.6150  151.1660 C   0  0  1  0  0  3  0  0  0  0  0  0
  1 19  1  6  0  0  0
  1 12  1  0  0  0  0
  1  7  1  0  0  0  0
  2 17  1  0  0  0  0
  3  4  1  0  0  0  0
  6  9  1  0  0  0  0
  8  3  1  0  0  0  0
  9 10  1  0  0  0  0
 10 15  2  0  0  0  0
 10  8  1  0  0  0  0
 11 15  1  0  0  0  0
 12  7  1  1  0  0  0
 12  6  1  0  0  0  0
 13  5  1  0  0  0  0
 13 12  1  0  0  0  0
 14  4  1  0  0  0  0
 15 14  1  0  0  0  0
 16  5  1  0  0  0  0
 16  2  1  0  0  0  0
 17  9  2  0  0  0  0
 17 11  1  0  0  0  0
 19 18  1  6  0  0  0
 20 22  2  0  0  0  0
 20 21  1  0  0  0  0
 21 19  1  0  0  0  0
 23 20  1  0  0  0  0
 24 11  1  0  0  0  0
 26 30  1  1  0  0  0
 26 32  1  0  0  0  0
 27 24  1  1  0  0  0
 27 32  1  0  0  0  0
 28 29  1  0  0  0  0
 28 31  1  0  0  0  0
 29 26  1  0  0  0  0
 31 27  1  0  0  0  0
 32 25  1  1  0  0  0
M  END
>  <MODEL>
9

>  <REMARK>
 VINA RESULT:      -4.8      2.129      2.619
  Name = 
  4 active torsions:
  status: ('A' for Active; 'I' for Inactive)
    1  A    between atoms: C_2  and  C_24
    2  A    between atoms: N_10  and  C_24
    3  A    between atoms: C_11  and  C_27
    4  A    between atoms: N_16  and  C_27
                            x       y       z     vdW  Elec       q    Type
                         _______ _______ _______ _____ _____    ______ ____

>  <TORSDO>
F 4

$$$$
