=
 OpenBabel11062409013D

 55 57  0  0  1  0  0  0  0  0999 V2000
  162.5790  207.5210  149.1410 O   0  0  0  0  0  0  0  0  0  0  0  0
  161.6060  208.6660  150.9370 N   0  0  0  0  0  0  0  0  0  0  0  0
  161.7800  207.4910  150.1150 C   0  0  0  0  0  0  0  0  0  0  0  0
  162.5910  209.7620  150.8640 C   0  0  2  0  0  3  0  0  0  0  0  0
  162.9900  210.2480  152.2570 C   0  0  0  0  0  1  0  0  0  0  0  0
  161.1130  211.7790  150.6480 C   0  0  0  0  0  1  0  0  0  0  0  0
  162.1560  210.9230  149.9510 C   0  0  2  0  0  3  0  0  0  0  0  0
  161.6250  210.4360  148.6020 C   0  0  0  0  0  2  0  0  0  0  0  0
  161.3390  211.5980  147.6610 C   0  0  0  0  0  2  0  0  0  0  0  0
  162.6010  212.4070  147.3950 C   0  0  0  0  0  2  0  0  0  0  0  0
  162.2630  213.7890  146.8460 C   0  0  1  0  0  3  0  0  0  0  0  0
  160.9430  212.7000  145.0040 C   0  0  0  0  0  3  0  0  0  0  0  0
  161.7900  212.6520  142.7050 C   0  0  0  0  0  0  0  0  0  0  0  0
  163.2590  213.5330  144.4970 C   0  0  0  0  0  2  0  0  0  0  0  0
  162.9080  213.3060  143.0530 C   0  0  0  0  0  3  0  0  0  0  0  0
  160.8370  212.2290  143.7570 C   0  0  0  0  0  3  0  0  0  0  0  0
  161.9870  213.7320  145.3380 C   0  0  2  0  0  3  0  0  0  0  0  0
  161.5040  212.3740  141.2840 C   0  0  0  0  0  0  0  0  0  0  0  0
  160.7550  211.4150  140.9620 O   0  0  0  0  0  0  0  0  0  0  0  0
  162.2110  213.3860  139.9860 S   0  0  0  0  0  1  0  0  0  0  0  0
  161.1070  214.3830  147.6400 C   0  0  0  0  0  2  0  0  0  0  0  0
  159.8480  214.4090  146.7920 C   0  0  0  0  0  2  0  0  0  0  0  0
  157.3710  214.3970  147.1340 C   0  0  0  0  0  3  0  0  0  0  0  0
  157.6870  213.5450  149.7800 C   0  0  0  0  0  0  0  0  0  0  0  0
  158.8110  213.7550  148.9740 C   0  0  0  0  0  3  0  0  0  0  0  0
  156.2480  214.1900  147.9400 C   0  0  0  0  0  3  0  0  0  0  0  0
  158.6540  214.1750  147.6480 C   0  0  0  0  0  0  0  0  0  0  0  0
  157.8390  213.1420  151.0640 F   0  0  0  0  0  0  0  0  0  0  0  0
  156.4050  213.7630  149.2630 C   0  0  0  0  0  3  0  0  0  0  0  0
  160.3800  208.8230  151.7200 C   0  0  0  0  0  2  0  0  0  0  0  0
  159.4670  209.9420  153.3910 C   0  0  0  0  0  1  0  0  0  0  0  0
  160.6800  209.4140  152.9490 O   0  0  0  0  0  0  0  0  0  0  0  0
  161.0330  206.2080  150.3720 C   0  0  2  0  0  3  0  0  0  0  0  0
  161.7580  206.4280  154.1850 C   0  0  0  0  0  1  0  0  0  0  0  0
  161.2150  204.7220  152.3720 C   0  0  0  0  0  2  0  0  0  0  0  0
  161.9150  206.0060  152.7390 C   0  0  1  0  0  0  0  0  0  0  0  0
  160.6840  206.0540  151.8490 C   0  0  1  0  0  3  0  0  0  0  0  0
  163.1670  206.1540  152.1370 O   0  0  0  0  0  1  0  0  0  0  0  0
  161.7840  204.9720  149.8660 C   0  0  0  0  0  2  0  0  0  0  0  0
  161.1850  204.3460  148.5990 C   0  0  2  0  0  0  0  0  0  0  0  0
  160.6140  202.6810  150.5220 C   0  0  0  0  0  1  0  0  0  0  0  0
  160.3310  203.1390  149.0930 C   0  0  2  0  0  3  0  0  0  0  0  0
  160.3230  201.9610  148.1040 C   0  0  1  0  0  3  0  0  0  0  0  0
  160.7050  202.3680  146.8210 O   0  0  0  0  0  1  0  0  0  0  0  0
  161.7660  200.1020  147.7310 O   0  0  0  0  0  0  0  0  0  0  0  0
  161.1910  200.8400  148.5720 C   0  0  0  0  0  0  0  0  0  0  0  0
  161.3650  200.6010  149.9310 O   0  0  0  0  0  1  0  0  0  0  0  0
  162.3950  203.9000  147.7490 C   0  0  0  0  0  2  0  0  0  0  0  0
  163.1570  204.9700  147.2760 O   0  0  0  0  0  0  0  0  0  0  0  0
  163.8040  204.4670  146.1500 C   0  0  0  0  0  2  0  0  0  0  0  0
  162.8000  204.2710  145.0340 C   0  0  0  0  0  1  0  0  0  0  0  0
  160.4090  205.3490  147.9560 O   0  0  0  0  0  0  0  0  0  0  0  0
  160.1620  204.9630  146.6770 N   0  0  0  0  0  2  0  0  0  0  0  0
  160.2520  206.1540  145.8490 C   0  0  0  0  0  2  0  0  0  0  0  0
  160.7190  207.3310  146.6820 C   0  0  0  0  0  1  0  0  0  0  0  0
  1  3  2  0  0  0  0
  2 30  1  0  0  0  0
  3 33  1  0  0  0  0
  3  2  1  0  0  0  0
  4  2  1  0  0  0  0
  4  5  1  1  0  0  0
  7  6  1  1  0  0  0
  7  4  1  0  0  0  0
  8  7  1  0  0  0  0
  9  8  1  0  0  0  0
 10  9  1  0  0  0  0
 11 10  1  1  0  0  0
 11 21  1  0  0  0  0
 12 17  1  0  0  0  0
 13 15  2  0  0  0  0
 13 16  1  0  0  0  0
 14 17  1  0  0  0  0
 15 14  1  0  0  0  0
 16 12  2  0  0  0  0
 17 11  1  1  0  0  0
 18 13  1  0  0  0  0
 19 18  2  0  0  0  0
 20 18  1  0  0  0  0
 22 21  1  0  0  0  0
 22 27  1  0  0  0  0
 23 27  2  0  0  0  0
 23 26  1  0  0  0  0
 24 28  1  0  0  0  0
 25 24  2  0  0  0  0
 26 29  2  0  0  0  0
 27 25  1  0  0  0  0
 29 24  1  0  0  0  0
 30 32  1  0  0  0  0
 32 31  1  0  0  0  0
 33 39  1  1  0  0  0
 35 36  1  0  0  0  0
 36 34  1  1  0  0  0
 37 33  1  6  0  0  0
 37 35  1  0  0  0  0
 37 36  1  0  0  0  0
 38 36  1  0  0  0  0
 40 48  1  6  0  0  0
 40 42  1  0  0  0  0
 40 39  1  0  0  0  0
 42 41  1  1  0  0  0
 43 44  1  6  0  0  0
 43 46  1  0  0  0  0
 43 42  1  0  0  0  0
 45 46  2  0  0  0  0
 46 47  1  0  0  0  0
 49 48  1  0  0  0  0
 50 49  1  0  0  0  0
 51 50  1  0  0  0  0
 52 40  1  0  0  0  0
 53 52  1  0  0  0  0
 54 53  1  0  0  0  0
 54 55  1  0  0  0  0
M  END
>  <MODEL>
1

>  <REMARK>
 VINA RESULT:      -3.7      0.000      0.000
  Name = 
  26 active torsions:
  status: ('A' for Active; 'I' for Inactive)
    1  A    between atoms: C_1  and  N_30
    2  A    between atoms: C_2  and  C_28
    3  A    between atoms: C_2  and  C_44
    4  A    between atoms: C_6  and  C_8
    5  A    between atoms: C_6  and  O_20
    6  A    between atoms: C_6  and  C_38
    7  A    between atoms: C_6  and  C_46
    8  A    between atoms: C_7  and  C_8
    9  A    between atoms: C_7  and  C_23
   10  A    between atoms: C_7  and  C_43
   11  A    between atoms: C_10  and  C_32
   12  A    between atoms: C_11  and  C_29
   13  A    between atoms: C_11  and  C_38
   14  A    between atoms: C_12  and  O_14
   15  A    between atoms: O_14  and  C_46
   16  A    between atoms: C_16  and  N_17
   17  A    between atoms: C_16  and  C_26
   18  A    between atoms: N_17  and  C_37
   19  A    between atoms: C_19  and  C_45
   20  A    between atoms: C_19  and  C_49
   21  A    between atoms: O_20  and  N_30
   22  A    between atoms: C_26  and  C_45
   23  A    between atoms: C_28  and  C_33
   24  A    between atoms: C_33  and  C_49
   25  A    between atoms: C_33  and  C_52
   26  A    between atoms: C_37  and  O_40
                            x       y       z     vdW  Elec       q    Type
                         _______ _______ _______ _____ _____    ______ ____

>  <TORSDO>
F 26

$$$$
=
 OpenBabel11062409013D

 55 57  0  0  1  0  0  0  0  0999 V2000
  159.2470  209.3820  153.0050 O   0  0  0  0  0  0  0  0  0  0  0  0
  160.8220  210.4050  151.6050 N   0  0  0  0  0  0  0  0  0  0  0  0
  160.1010  210.2970  152.8520 C   0  0  0  0  0  0  0  0  0  0  0  0
  160.8250  209.2710  150.6610 C   0  0  2  0  0  3  0  0  0  0  0  0
  160.2820  208.0000  151.3130 C   0  0  0  0  0  1  0  0  0  0  0  0
  162.2990  209.8740  148.7220 C   0  0  0  0  0  1  0  0  0  0  0  0
  162.1880  209.0350  149.9830 C   0  0  2  0  0  3  0  0  0  0  0  0
  162.4310  207.5600  149.6620 C   0  0  0  0  0  2  0  0  0  0  0  0
  161.1330  206.8420  149.3170 C   0  0  0  0  0  2  0  0  0  0  0  0
  161.4070  205.5740  148.5200 C   0  0  0  0  0  2  0  0  0  0  0  0
  160.8460  204.3470  149.2290 C   0  0  1  0  0  3  0  0  0  0  0  0
  160.9190  201.8920  148.6890 C   0  0  0  0  0  3  0  0  0  0  0  0
  160.7990  201.1080  146.3710 C   0  0  0  0  0  0  0  0  0  0  0  0
  160.9590  203.5450  146.7960 C   0  0  0  0  0  2  0  0  0  0  0  0
  160.7190  202.3610  145.9000 C   0  0  0  0  0  3  0  0  0  0  0  0
  161.0350  200.8870  147.8160 C   0  0  0  0  0  3  0  0  0  0  0  0
  160.4680  203.2510  148.2240 C   0  0  2  0  0  3  0  0  0  0  0  0
  160.6340  199.9600  145.4570 C   0  0  0  0  0  0  0  0  0  0  0  0
  160.0930  200.1180  144.3310 O   0  0  0  0  0  0  0  0  0  0  0  0
  161.1930  198.3230  145.9210 S   0  0  0  0  0  1  0  0  0  0  0  0
  161.8370  203.8700  150.2820 C   0  0  0  0  0  2  0  0  0  0  0  0
  161.1270  203.6410  151.6050 C   0  0  0  0  0  2  0  0  0  0  0  0
  162.4840  205.5710  152.4330 C   0  0  0  0  0  3  0  0  0  0  0  0
  160.4570  206.2970  154.2210 C   0  0  0  0  0  0  0  0  0  0  0  0
  160.2880  205.1870  153.3860 C   0  0  0  0  0  3  0  0  0  0  0  0
  162.6530  206.6780  153.2700 C   0  0  0  0  0  3  0  0  0  0  0  0
  161.2990  204.8270  152.4860 C   0  0  0  0  0  0  0  0  0  0  0  0
  159.4820  206.6430  155.0930 F   0  0  0  0  0  0  0  0  0  0  0  0
  161.6400  207.0420  154.1630 C   0  0  0  0  0  3  0  0  0  0  0  0
  161.4160  211.6860  151.2250 C   0  0  0  0  0  2  0  0  0  0  0  0
  161.1900  213.2640  149.6960 C   0  0  0  0  0  1  0  0  0  0  0  0
  161.2750  211.8800  149.8500 O   0  0  0  0  0  0  0  0  0  0  0  0
  160.3230  211.2480  153.9990 C   0  0  2  0  0  3  0  0  0  0  0  0
  162.2600  209.0740  156.5760 C   0  0  0  0  0  1  0  0  0  0  0  0
  161.4560  211.4660  156.2150 C   0  0  0  0  0  2  0  0  0  0  0  0
  161.1910  209.9940  156.0230 C   0  0  1  0  0  0  0  0  0  0  0  0
  161.5460  210.8520  154.8200 C   0  0  1  0  0  3  0  0  0  0  0  0
  159.8520  209.6380  156.2030 O   0  0  0  0  0  1  0  0  0  0  0  0
  159.0930  211.3880  154.9020 C   0  0  0  0  0  2  0  0  0  0  0  0
  158.1800  212.5680  154.5420 C   0  0  2  0  0  0  0  0  0  0  0  0
  155.6230  213.0140  154.3060 C   0  0  0  0  0  1  0  0  0  0  0  0
  156.7320  211.9910  154.5390 C   0  0  2  0  0  3  0  0  0  0  0  0
  156.4390  211.0920  155.7530 C   0  0  1  0  0  3  0  0  0  0  0  0
  156.0940  211.8490  156.8780 O   0  0  0  0  0  1  0  0  0  0  0  0
  155.4170  209.4270  154.3860 O   0  0  0  0  0  0  0  0  0  0  0  0
  155.3700  210.0920  155.4540 C   0  0  0  0  0  0  0  0  0  0  0  0
  154.3190  209.8930  156.3430 O   0  0  0  0  0  1  0  0  0  0  0  0
  158.6330  213.0230  153.1360 C   0  0  0  0  0  2  0  0  0  0  0  0
  157.8200  214.0210  152.5950 O   0  0  0  0  0  0  0  0  0  0  0  0
  158.3010  214.1990  151.3000 C   0  0  0  0  0  2  0  0  0  0  0  0
  157.5560  213.2820  150.3530 C   0  0  0  0  0  1  0  0  0  0  0  0
  158.3750  213.5740  155.5280 O   0  0  0  0  0  0  0  0  0  0  0  0
  159.7000  213.8650  155.6050 N   0  0  0  0  0  2  0  0  0  0  0  0
  159.9310  214.4510  156.9150 C   0  0  0  0  0  2  0  0  0  0  0  0
  161.4080  214.3990  157.2540 C   0  0  0  0  0  1  0  0  0  0  0  0
  2  3  1  0  0  0  0
  3  1  2  0  0  0  0
  3 33  1  0  0  0  0
  4  5  1  1  0  0  0
  4  2  1  0  0  0  0
  7  6  1  6  0  0  0
  7  4  1  0  0  0  0
  8  7  1  0  0  0  0
  9  8  1  0  0  0  0
 10  9  1  0  0  0  0
 11 10  1  6  0  0  0
 11 21  1  0  0  0  0
 13 16  1  0  0  0  0
 14 17  1  0  0  0  0
 15 13  2  0  0  0  0
 15 14  1  0  0  0  0
 16 12  2  0  0  0  0
 17 12  1  0  0  0  0
 17 11  1  1  0  0  0
 18 20  1  0  0  0  0
 18 13  1  0  0  0  0
 19 18  2  0  0  0  0
 21 22  1  0  0  0  0
 22 27  1  0  0  0  0
 23 27  2  0  0  0  0
 23 26  1  0  0  0  0
 24 28  1  0  0  0  0
 25 24  2  0  0  0  0
 26 29  2  0  0  0  0
 27 25  1  0  0  0  0
 29 24  1  0  0  0  0
 30  2  1  0  0  0  0
 31 32  1  0  0  0  0
 32 30  1  0  0  0  0
 33 39  1  1  0  0  0
 36 38  1  0  0  0  0
 36 35  1  0  0  0  0
 36 34  1  1  0  0  0
 37 33  1  6  0  0  0
 37 36  1  0  0  0  0
 37 35  1  0  0  0  0
 40 48  1  6  0  0  0
 40 39  1  0  0  0  0
 40 52  1  0  0  0  0
 42 41  1  1  0  0  0
 42 40  1  0  0  0  0
 42 43  1  0  0  0  0
 43 44  1  1  0  0  0
 45 46  2  0  0  0  0
 46 43  1  0  0  0  0
 46 47  1  0  0  0  0
 49 48  1  0  0  0  0
 50 49  1  0  0  0  0
 51 50  1  0  0  0  0
 52 53  1  0  0  0  0
 53 54  1  0  0  0  0
 54 55  1  0  0  0  0
M  END
>  <MODEL>
2

>  <REMARK>
 VINA RESULT:      -2.8      4.359      9.899
  Name = 
  26 active torsions:
  status: ('A' for Active; 'I' for Inactive)
    1  A    between atoms: C_1  and  N_30
    2  A    between atoms: C_2  and  C_28
    3  A    between atoms: C_2  and  C_44
    4  A    between atoms: C_6  and  C_8
    5  A    between atoms: C_6  and  O_20
    6  A    between atoms: C_6  and  C_38
    7  A    between atoms: C_6  and  C_46
    8  A    between atoms: C_7  and  C_8
    9  A    between atoms: C_7  and  C_23
   10  A    between atoms: C_7  and  C_43
   11  A    between atoms: C_10  and  C_32
   12  A    between atoms: C_11  and  C_29
   13  A    between atoms: C_11  and  C_38
   14  A    between atoms: C_12  and  O_14
   15  A    between atoms: O_14  and  C_46
   16  A    between atoms: C_16  and  N_17
   17  A    between atoms: C_16  and  C_26
   18  A    between atoms: N_17  and  C_37
   19  A    between atoms: C_19  and  C_45
   20  A    between atoms: C_19  and  C_49
   21  A    between atoms: O_20  and  N_30
   22  A    between atoms: C_26  and  C_45
   23  A    between atoms: C_28  and  C_33
   24  A    between atoms: C_33  and  C_49
   25  A    between atoms: C_33  and  C_52
   26  A    between atoms: C_37  and  O_40
                            x       y       z     vdW  Elec       q    Type
                         _______ _______ _______ _____ _____    ______ ____

>  <TORSDO>
F 26

$$$$
=
 OpenBabel11062409013D

 55 57  0  0  1  0  0  0  0  0999 V2000
  163.4980  208.6790  147.6180 O   0  0  0  0  0  0  0  0  0  0  0  0
  161.3530  207.7490  147.4570 N   0  0  0  0  0  0  0  0  0  0  0  0
  162.2800  208.7470  147.9400 C   0  0  0  0  0  0  0  0  0  0  0  0
  161.7390  206.8750  146.3340 C   0  0  2  0  0  3  0  0  0  0  0  0
  160.5170  206.2200  145.6900 C   0  0  0  0  0  1  0  0  0  0  0  0
  162.7720  204.6670  145.7380 C   0  0  0  0  0  1  0  0  0  0  0  0
  162.8230  205.8430  146.6980 C   0  0  2  0  0  3  0  0  0  0  0  0
  162.7000  205.3540  148.1410 C   0  0  0  0  0  2  0  0  0  0  0  0
  162.1050  203.9540  148.2090 C   0  0  0  0  0  2  0  0  0  0  0  0
  161.1500  203.8240  149.3870 C   0  0  0  0  0  2  0  0  0  0  0  0
  161.7910  203.0460  150.5310 C   0  0  1  0  0  3  0  0  0  0  0  0
  160.5010  203.9080  152.5090 C   0  0  0  0  0  3  0  0  0  0  0  0
  161.1900  205.9550  153.6670 C   0  0  0  0  0  0  0  0  0  0  0  0
  162.3740  205.3070  151.5880 C   0  0  0  0  0  2  0  0  0  0  0  0
  162.2270  206.1340  152.8360 C   0  0  0  0  0  3  0  0  0  0  0  0
  160.2240  204.8640  153.4020 C   0  0  0  0  0  3  0  0  0  0  0  0
  161.8360  203.8850  151.8140 C   0  0  2  0  0  3  0  0  0  0  0  0
  161.0250  206.8280  154.8460 C   0  0  0  0  0  0  0  0  0  0  0  0
  162.0220  207.4070  155.3520 O   0  0  0  0  0  0  0  0  0  0  0  0
  159.4140  207.0860  155.5850 S   0  0  0  0  0  1  0  0  0  0  0  0
  161.0640  201.7200  150.7130 C   0  0  0  0  0  2  0  0  0  0  0  0
  159.8840  201.6330  149.7620 C   0  0  0  0  0  2  0  0  0  0  0  0
  161.3580  200.1980  148.3410 C   0  0  0  0  0  3  0  0  0  0  0  0
  160.2060  201.2310  146.0090 C   0  0  0  0  0  0  0  0  0  0  0  0
  159.7680  201.6750  147.2620 C   0  0  0  0  0  3  0  0  0  0  0  0
  161.7970  199.7560  147.0890 C   0  0  0  0  0  3  0  0  0  0  0  0
  160.3390  201.1540  148.4290 C   0  0  0  0  0  0  0  0  0  0  0  0
  159.6560  201.7380  144.8810 F   0  0  0  0  0  0  0  0  0  0  0  0
  161.2210  200.2720  145.9240 C   0  0  0  0  0  3  0  0  0  0  0  0
  160.1050  207.5160  148.1810 C   0  0  0  0  0  2  0  0  0  0  0  0
  159.7450  206.3070  149.9940 C   0  0  0  0  0  1  0  0  0  0  0  0
  160.0660  206.1990  148.6410 O   0  0  0  0  0  0  0  0  0  0  0  0
  161.8520  209.8850  148.8300 C   0  0  2  0  0  3  0  0  0  0  0  0
  161.3520  209.9790  152.6840 C   0  0  0  0  0  1  0  0  0  0  0  0
  162.3500  208.5100  150.8560 C   0  0  0  0  0  2  0  0  0  0  0  0
  162.0730  209.9060  151.3540 C   0  0  1  0  0  0  0  0  0  0  0  0
  161.3020  209.3740  150.1580 C   0  0  1  0  0  3  0  0  0  0  0  0
  163.1180  210.8030  151.1160 O   0  0  0  0  0  1  0  0  0  0  0  0
  160.8440  210.8200  148.1550 C   0  0  0  0  0  2  0  0  0  0  0  0
  160.8350  212.2470  148.7190 C   0  0  2  0  0  0  0  0  0  0  0  0
  158.8210  213.8660  148.3720 C   0  0  0  0  0  1  0  0  0  0  0  0
  159.9650  213.0820  147.7310 C   0  0  2  0  0  3  0  0  0  0  0  0
  159.4940  212.2740  146.5100 C   0  0  1  0  0  3  0  0  0  0  0  0
  158.0980  212.2100  146.4470 O   0  0  0  0  0  1  0  0  0  0  0  0
  159.9830  212.1430  144.1810 O   0  0  0  0  0  0  0  0  0  0  0  0
  160.0460  212.8250  145.2360 C   0  0  0  0  0  0  0  0  0  0  0  0
  160.6350  214.0840  145.2080 O   0  0  0  0  0  1  0  0  0  0  0  0
  162.3130  212.6970  148.7220 C   0  0  0  0  0  2  0  0  0  0  0  0
  162.5980  213.6500  147.7420 O   0  0  0  0  0  0  0  0  0  0  0  0
  163.4560  212.9980  146.8590 C   0  0  0  0  0  2  0  0  0  0  0  0
  164.2690  211.9660  147.6130 C   0  0  0  0  0  1  0  0  0  0  0  0
  160.2840  212.1850  150.0280 O   0  0  0  0  0  0  0  0  0  0  0  0
  160.5390  213.3540  150.6710 N   0  0  0  0  0  2  0  0  0  0  0  0
  159.8100  213.3160  151.9270 C   0  0  0  0  0  2  0  0  0  0  0  0
  158.5360  212.5090  151.7640 C   0  0  0  0  0  1  0  0  0  0  0  0
  1  3  2  0  0  0  0
  2  3  1  0  0  0  0
  2 30  1  0  0  0  0
  3 33  1  0  0  0  0
  4  5  1  1  0  0  0
  4  7  1  0  0  0  0
  4  2  1  0  0  0  0
  7  6  1  6  0  0  0
  7  8  1  0  0  0  0
  8  9  1  0  0  0  0
  9 10  1  0  0  0  0
 11 10  1  6  0  0  0
 11 21  1  0  0  0  0
 12 16  2  0  0  0  0
 13 18  1  0  0  0  0
 14 17  1  0  0  0  0
 14 15  1  0  0  0  0
 15 13  2  0  0  0  0
 16 13  1  0  0  0  0
 17 11  1  6  0  0  0
 17 12  1  0  0  0  0
 18 19  2  0  0  0  0
 18 20  1  0  0  0  0
 22 21  1  0  0  0  0
 23 27  1  0  0  0  0
 24 25  1  0  0  0  0
 25 27  2  0  0  0  0
 26 23  2  0  0  0  0
 27 22  1  0  0  0  0
 28 24  1  0  0  0  0
 29 24  2  0  0  0  0
 29 26  1  0  0  0  0
 30 32  1  0  0  0  0
 32 31  1  0  0  0  0
 33 39  1  6  0  0  0
 35 36  1  0  0  0  0
 36 34  1  1  0  0  0
 37 33  1  6  0  0  0
 37 35  1  0  0  0  0
 37 36  1  0  0  0  0
 38 36  1  0  0  0  0
 40 39  1  6  0  0  0
 40 48  1  0  0  0  0
 40 52  1  0  0  0  0
 42 41  1  1  0  0  0
 42 40  1  0  0  0  0
 43 44  1  6  0  0  0
 43 42  1  0  0  0  0
 45 46  2  0  0  0  0
 46 43  1  0  0  0  0
 47 46  1  0  0  0  0
 49 48  1  0  0  0  0
 50 51  1  0  0  0  0
 50 49  1  0  0  0  0
 52 53  1  0  0  0  0
 53 54  1  0  0  0  0
 55 54  1  0  0  0  0
M  END
>  <MODEL>
3

>  <REMARK>
 VINA RESULT:      -1.6      3.710     10.104
  Name = 
  26 active torsions:
  status: ('A' for Active; 'I' for Inactive)
    1  A    between atoms: C_1  and  N_30
    2  A    between atoms: C_2  and  C_28
    3  A    between atoms: C_2  and  C_44
    4  A    between atoms: C_6  and  C_8
    5  A    between atoms: C_6  and  O_20
    6  A    between atoms: C_6  and  C_38
    7  A    between atoms: C_6  and  C_46
    8  A    between atoms: C_7  and  C_8
    9  A    between atoms: C_7  and  C_23
   10  A    between atoms: C_7  and  C_43
   11  A    between atoms: C_10  and  C_32
   12  A    between atoms: C_11  and  C_29
   13  A    between atoms: C_11  and  C_38
   14  A    between atoms: C_12  and  O_14
   15  A    between atoms: O_14  and  C_46
   16  A    between atoms: C_16  and  N_17
   17  A    between atoms: C_16  and  C_26
   18  A    between atoms: N_17  and  C_37
   19  A    between atoms: C_19  and  C_45
   20  A    between atoms: C_19  and  C_49
   21  A    between atoms: O_20  and  N_30
   22  A    between atoms: C_26  and  C_45
   23  A    between atoms: C_28  and  C_33
   24  A    between atoms: C_33  and  C_49
   25  A    between atoms: C_33  and  C_52
   26  A    between atoms: C_37  and  O_40
                            x       y       z     vdW  Elec       q    Type
                         _______ _______ _______ _____ _____    ______ ____

>  <TORSDO>
F 26

$$$$
=
 OpenBabel11062409013D

 55 57  0  0  1  0  0  0  0  0999 V2000
  162.8100  210.2840  152.2410 O   0  0  0  0  0  0  0  0  0  0  0  0
  160.8600  211.4470  151.6630 N   0  0  0  0  0  0  0  0  0  0  0  0
  161.6400  210.6280  152.5630 C   0  0  0  0  0  0  0  0  0  0  0  0
  161.5280  212.1600  150.5580 C   0  0  2  0  0  3  0  0  0  0  0  0
  160.5400  213.0200  149.7700 C   0  0  0  0  0  1  0  0  0  0  0  0
  161.8520  211.3400  148.2090 C   0  0  0  0  0  1  0  0  0  0  0  0
  162.3530  211.2400  149.6390 C   0  0  2  0  0  3  0  0  0  0  0  0
  162.3370  209.7850  150.1050 C   0  0  0  0  0  2  0  0  0  0  0  0
  162.0800  208.8290  148.9470 C   0  0  0  0  0  2  0  0  0  0  0  0
  162.0650  207.3840  149.4260 C   0  0  0  0  0  2  0  0  0  0  0  0
  160.7110  206.7340  149.1690 C   0  0  1  0  0  3  0  0  0  0  0  0
  162.0600  205.7980  147.2650 C   0  0  0  0  0  3  0  0  0  0  0  0
  161.1280  205.6710  145.0020 C   0  0  0  0  0  0  0  0  0  0  0  0
  159.8200  206.8220  146.7660 C   0  0  0  0  0  2  0  0  0  0  0  0
  159.9680  206.2150  145.3980 C   0  0  0  0  0  3  0  0  0  0  0  0
  162.2540  205.5820  145.9600 C   0  0  0  0  0  3  0  0  0  0  0  0
  160.6740  206.0580  147.7920 C   0  0  2  0  0  3  0  0  0  0  0  0
  161.2720  205.1490  143.6290 C   0  0  0  0  0  0  0  0  0  0  0  0
  160.8090  204.0180  143.3270 O   0  0  0  0  0  0  0  0  0  0  0  0
  162.1050  206.1030  142.3630 S   0  0  0  0  0  1  0  0  0  0  0  0
  160.3810  205.7790  150.3080 C   0  0  0  0  0  2  0  0  0  0  0  0
  161.5860  204.9140  150.6340 C   0  0  0  0  0  2  0  0  0  0  0  0
  161.4640  202.4900  151.2350 C   0  0  0  0  0  3  0  0  0  0  0  0
  160.6560  201.8310  148.6390 C   0  0  0  0  0  0  0  0  0  0  0  0
  160.9080  203.1660  148.9750 C   0  0  0  0  0  3  0  0  0  0  0  0
  161.2150  201.1570  150.8980 C   0  0  0  0  0  3  0  0  0  0  0  0
  161.3060  203.4970  150.2760 C   0  0  0  0  0  0  0  0  0  0  0  0
  160.2750  201.5110  147.3800 F   0  0  0  0  0  0  0  0  0  0  0  0
  160.8100  200.8270  149.6000 C   0  0  0  0  0  3  0  0  0  0  0  0
  159.4020  211.4420  151.7670 C   0  0  0  0  0  2  0  0  0  0  0  0
  158.7600  213.3590  152.6560 C   0  0  0  0  0  1  0  0  0  0  0  0
  158.9020  212.7020  151.4330 O   0  0  0  0  0  0  0  0  0  0  0  0
  161.1090  210.1550  153.8910 C   0  0  2  0  0  3  0  0  0  0  0  0
  160.4870  206.3210  153.7350 C   0  0  0  0  0  1  0  0  0  0  0  0
  160.3140  208.4120  152.2890 C   0  0  0  0  0  2  0  0  0  0  0  0
  161.0600  207.6760  153.3720 C   0  0  1  0  0  0  0  0  0  0  0  0
  160.2460  208.9080  153.7310 C   0  0  1  0  0  3  0  0  0  0  0  0
  162.4480  207.8080  153.2860 O   0  0  0  0  0  1  0  0  0  0  0  0
  160.3430  211.2460  154.6470 C   0  0  0  0  0  2  0  0  0  0  0  0
  159.7980  210.8000  156.0110 C   0  0  2  0  0  0  0  0  0  0  0  0
  157.5010  210.9180  154.7830 C   0  0  0  0  0  1  0  0  0  0  0  0
  158.3080  211.2570  156.0350 C   0  0  2  0  0  3  0  0  0  0  0  0
  158.1340  212.7280  156.4490 C   0  0  1  0  0  3  0  0  0  0  0  0
  158.9750  213.5690  155.7120 O   0  0  0  0  0  1  0  0  0  0  0  0
  156.3740  213.9110  155.3590 O   0  0  0  0  0  0  0  0  0  0  0  0
  156.7140  213.1740  156.3210 C   0  0  0  0  0  0  0  0  0  0  0  0
  155.7640  212.7850  157.2600 O   0  0  0  0  0  1  0  0  0  0  0  0
  160.6560  211.5440  157.0580 C   0  0  0  0  0  2  0  0  0  0  0  0
  161.9060  210.9560  157.2600 O   0  0  0  0  0  0  0  0  0  0  0  0
  162.8000  212.0250  157.2560 C   0  0  0  0  0  2  0  0  0  0  0  0
  164.1910  211.5200  156.9370 C   0  0  0  0  0  1  0  0  0  0  0  0
  159.9470  209.3890  156.0890 O   0  0  0  0  0  0  0  0  0  0  0  0
  161.2570  209.0940  156.2990 N   0  0  0  0  0  2  0  0  0  0  0  0
  161.2970  207.9180  157.1510 C   0  0  0  0  0  2  0  0  0  0  0  0
  160.0200  207.1170  156.9910 C   0  0  0  0  0  1  0  0  0  0  0  0
  1  3  2  0  0  0  0
  2 30  1  0  0  0  0
  2  3  1  0  0  0  0
  3 33  1  0  0  0  0
  4  5  1  6  0  0  0
  4  2  1  0  0  0  0
  7  6  1  6  0  0  0
  7  8  1  0  0  0  0
  7  4  1  0  0  0  0
  9 10  1  0  0  0  0
  9  8  1  0  0  0  0
 11 10  1  1  0  0  0
 11 21  1  0  0  0  0
 12 17  1  0  0  0  0
 13 15  2  0  0  0  0
 13 16  1  0  0  0  0
 14 17  1  0  0  0  0
 15 14  1  0  0  0  0
 16 12  2  0  0  0  0
 17 11  1  1  0  0  0
 18 13  1  0  0  0  0
 19 18  2  0  0  0  0
 20 18  1  0  0  0  0
 21 22  1  0  0  0  0
 24 25  2  0  0  0  0
 24 29  1  0  0  0  0
 25 27  1  0  0  0  0
 26 23  1  0  0  0  0
 27 22  1  0  0  0  0
 27 23  2  0  0  0  0
 28 24  1  0  0  0  0
 29 26  2  0  0  0  0
 32 30  1  0  0  0  0
 32 31  1  0  0  0  0
 33 39  1  6  0  0  0
 35 36  1  0  0  0  0
 35 37  1  0  0  0  0
 36 37  1  0  0  0  0
 36 34  1  1  0  0  0
 37 33  1  6  0  0  0
 38 36  1  0  0  0  0
 40 39  1  6  0  0  0
 40 42  1  0  0  0  0
 40 52  1  0  0  0  0
 40 48  1  0  0  0  0
 42 41  1  6  0  0  0
 42 43  1  0  0  0  0
 43 44  1  6  0  0  0
 45 46  2  0  0  0  0
 46 43  1  0  0  0  0
 46 47  1  0  0  0  0
 48 49  1  0  0  0  0
 50 49  1  0  0  0  0
 51 50  1  0  0  0  0
 52 53  1  0  0  0  0
 53 54  1  0  0  0  0
 55 54  1  0  0  0  0
M  END
>  <MODEL>
4

>  <REMARK>
 VINA RESULT:      -1.5      3.947      9.266
  Name = 
  26 active torsions:
  status: ('A' for Active; 'I' for Inactive)
    1  A    between atoms: C_1  and  N_30
    2  A    between atoms: C_2  and  C_28
    3  A    between atoms: C_2  and  C_44
    4  A    between atoms: C_6  and  C_8
    5  A    between atoms: C_6  and  O_20
    6  A    between atoms: C_6  and  C_38
    7  A    between atoms: C_6  and  C_46
    8  A    between atoms: C_7  and  C_8
    9  A    between atoms: C_7  and  C_23
   10  A    between atoms: C_7  and  C_43
   11  A    between atoms: C_10  and  C_32
   12  A    between atoms: C_11  and  C_29
   13  A    between atoms: C_11  and  C_38
   14  A    between atoms: C_12  and  O_14
   15  A    between atoms: O_14  and  C_46
   16  A    between atoms: C_16  and  N_17
   17  A    between atoms: C_16  and  C_26
   18  A    between atoms: N_17  and  C_37
   19  A    between atoms: C_19  and  C_45
   20  A    between atoms: C_19  and  C_49
   21  A    between atoms: O_20  and  N_30
   22  A    between atoms: C_26  and  C_45
   23  A    between atoms: C_28  and  C_33
   24  A    between atoms: C_33  and  C_49
   25  A    between atoms: C_33  and  C_52
   26  A    between atoms: C_37  and  O_40
                            x       y       z     vdW  Elec       q    Type
                         _______ _______ _______ _____ _____    ______ ____

>  <TORSDO>
F 26

$$$$
=
 OpenBabel11062409013D

 55 57  0  0  1  0  0  0  0  0999 V2000
  159.3240  206.7370  149.7760 O   0  0  0  0  0  0  0  0  0  0  0  0
  161.4760  207.2890  150.5200 N   0  0  0  0  0  0  0  0  0  0  0  0
  160.5660  206.5380  149.6860 C   0  0  0  0  0  0  0  0  0  0  0  0
  161.0030  208.5070  151.2060 C   0  0  2  0  0  3  0  0  0  0  0  0
  161.3480  209.7660  150.4100 C   0  0  0  0  0  1  0  0  0  0  0  0
  160.4230  207.9850  153.5900 C   0  0  0  0  0  1  0  0  0  0  0  0
  161.4610  208.6070  152.6730 C   0  0  2  0  0  3  0  0  0  0  0  0
  161.7460  210.0480  153.0970 C   0  0  0  0  0  2  0  0  0  0  0  0
  161.9710  210.1550  154.5990 C   0  0  0  0  0  2  0  0  0  0  0  0
  161.3150  211.4090  155.1600 C   0  0  0  0  0  2  0  0  0  0  0  0
  160.0430  211.7540  154.3940 C   0  0  1  0  0  3  0  0  0  0  0  0
  157.8620  210.6620  155.0090 C   0  0  0  0  0  3  0  0  0  0  0  0
  156.0940  211.9290  156.1380 C   0  0  0  0  0  0  0  0  0  0  0  0
  158.1120  213.1390  155.3580 C   0  0  0  0  0  2  0  0  0  0  0  0
  156.8320  213.0480  156.1420 C   0  0  0  0  0  3  0  0  0  0  0  0
  156.5940  210.7300  155.4270 C   0  0  0  0  0  3  0  0  0  0  0  0
  158.8240  211.7760  155.3270 C   0  0  2  0  0  3  0  0  0  0  0  0
  154.8030  211.8880  156.8530 C   0  0  0  0  0  0  0  0  0  0  0  0
  154.2340  212.9580  157.1960 O   0  0  0  0  0  0  0  0  0  0  0  0
  154.0180  210.3290  157.2510 S   0  0  0  0  0  1  0  0  0  0  0  0
  160.2400  213.0630  153.6420 C   0  0  0  0  0  2  0  0  0  0  0  0
  158.8970  213.6280  153.2120 C   0  0  0  0  0  2  0  0  0  0  0  0
  159.9250  213.5640  150.9330 C   0  0  0  0  0  3  0  0  0  0  0  0
  157.3970  213.5040  149.7360 C   0  0  0  0  0  0  0  0  0  0  0  0
  157.5090  213.5470  151.1300 C   0  0  0  0  0  3  0  0  0  0  0  0
  159.8120  213.5240  149.5400 C   0  0  0  0  0  3  0  0  0  0  0  0
  158.7740  213.5700  151.7300 C   0  0  0  0  0  0  0  0  0  0  0  0
  156.1740  213.4850  149.1560 F   0  0  0  0  0  0  0  0  0  0  0  0
  158.5480  213.4930  148.9420 C   0  0  0  0  0  3  0  0  0  0  0  0
  162.8090  206.7550  150.7950 C   0  0  0  0  0  2  0  0  0  0  0  0
  162.5460  205.0610  152.1880 C   0  0  0  0  0  1  0  0  0  0  0  0
  162.9070  206.4080  152.1440 O   0  0  0  0  0  0  0  0  0  0  0  0
  161.0420  205.5050  148.6980 C   0  0  2  0  0  3  0  0  0  0  0  0
  161.0250  206.2020  144.8730 C   0  0  0  0  0  1  0  0  0  0  0  0
  160.1610  207.1760  147.0640 C   0  0  0  0  0  2  0  0  0  0  0  0
  161.2630  206.4340  146.3510 C   0  0  1  0  0  0  0  0  0  0  0  0
  160.3780  205.6900  147.3370 C   0  0  1  0  0  3  0  0  0  0  0  0
  162.5450  206.8010  146.7670 O   0  0  0  0  0  1  0  0  0  0  0  0
  160.8480  204.0700  149.2000 C   0  0  0  0  0  2  0  0  0  0  0  0
  161.2300  202.9900  148.1780 C   0  0  2  0  0  0  0  0  0  0  0  0
  161.7410  200.4340  148.2130 C   0  0  0  0  0  1  0  0  0  0  0  0
  161.5640  201.7200  149.0170 C   0  0  2  0  0  3  0  0  0  0  0  0
  160.6190  201.5220  150.2150 C   0  0  1  0  0  3  0  0  0  0  0  0
  160.2330  200.1840  150.3460 O   0  0  0  0  0  1  0  0  0  0  0  0
  160.6160  202.8580  152.1890 O   0  0  0  0  0  1  0  0  0  0  0  0
  161.2290  202.0120  151.4870 C   0  0  0  0  0  0  0  0  0  0  0  0
  162.4730  201.5450  151.9000 O   0  0  0  0  0  0  0  0  0  0  0  0
  162.4670  203.5450  147.4370 C   0  0  0  0  0  2  0  0  0  0  0  0
  162.3730  203.4270  146.0490 O   0  0  0  0  0  0  0  0  0  0  0  0
  163.6470  203.7440  145.5840 C   0  0  0  0  0  2  0  0  0  0  0  0
  164.3480  204.6300  146.5920 C   0  0  0  0  0  1  0  0  0  0  0  0
  160.1150  202.8070  147.3150 O   0  0  0  0  0  0  0  0  0  0  0  0
  160.2310  201.6040  146.6940 N   0  0  0  0  0  2  0  0  0  0  0  0
  159.9620  201.8260  145.2830 C   0  0  0  0  0  2  0  0  0  0  0  0
  159.4140  200.5600  144.6540 C   0  0  0  0  0  1  0  0  0  0  0  0
  2 30  1  0  0  0  0
  2  4  1  0  0  0  0
  3  1  2  0  0  0  0
  3  2  1  0  0  0  0
  4  5  1  6  0  0  0
  4  7  1  0  0  0  0
  7  8  1  0  0  0  0
  7  6  1  1  0  0  0
  8  9  1  0  0  0  0
  9 10  1  0  0  0  0
 11 21  1  1  0  0  0
 11 10  1  0  0  0  0
 12 17  1  0  0  0  0
 12 16  2  0  0  0  0
 13 15  2  0  0  0  0
 13 18  1  0  0  0  0
 14 15  1  0  0  0  0
 16 13  1  0  0  0  0
 17 11  1  6  0  0  0
 17 14  1  0  0  0  0
 18 19  2  0  0  0  0
 18 20  1  0  0  0  0
 22 21  1  0  0  0  0
 23 27  1  0  0  0  0
 24 25  1  0  0  0  0
 25 27  2  0  0  0  0
 26 23  2  0  0  0  0
 27 22  1  0  0  0  0
 28 24  1  0  0  0  0
 29 26  1  0  0  0  0
 29 24  2  0  0  0  0
 30 32  1  0  0  0  0
 32 31  1  0  0  0  0
 33 39  1  1  0  0  0
 33  3  1  0  0  0  0
 35 37  1  0  0  0  0
 36 34  1  6  0  0  0
 36 38  1  0  0  0  0
 36 35  1  0  0  0  0
 36 37  1  0  0  0  0
 37 33  1  1  0  0  0
 40 48  1  6  0  0  0
 40 42  1  0  0  0  0
 40 39  1  0  0  0  0
 42 41  1  6  0  0  0
 42 43  1  0  0  0  0
 43 44  1  1  0  0  0
 43 46  1  0  0  0  0
 46 47  2  0  0  0  0
 46 45  1  0  0  0  0
 49 48  1  0  0  0  0
 50 49  1  0  0  0  0
 50 51  1  0  0  0  0
 52 40  1  0  0  0  0
 53 52  1  0  0  0  0
 54 53  1  0  0  0  0
 55 54  1  0  0  0  0
M  END
>  <MODEL>
5

>  <REMARK>
 VINA RESULT:      -1.3      3.980      7.137
  Name = 
  26 active torsions:
  status: ('A' for Active; 'I' for Inactive)
    1  A    between atoms: C_1  and  N_30
    2  A    between atoms: C_2  and  C_28
    3  A    between atoms: C_2  and  C_44
    4  A    between atoms: C_6  and  C_8
    5  A    between atoms: C_6  and  O_20
    6  A    between atoms: C_6  and  C_38
    7  A    between atoms: C_6  and  C_46
    8  A    between atoms: C_7  and  C_8
    9  A    between atoms: C_7  and  C_23
   10  A    between atoms: C_7  and  C_43
   11  A    between atoms: C_10  and  C_32
   12  A    between atoms: C_11  and  C_29
   13  A    between atoms: C_11  and  C_38
   14  A    between atoms: C_12  and  O_14
   15  A    between atoms: O_14  and  C_46
   16  A    between atoms: C_16  and  N_17
   17  A    between atoms: C_16  and  C_26
   18  A    between atoms: N_17  and  C_37
   19  A    between atoms: C_19  and  C_45
   20  A    between atoms: C_19  and  C_49
   21  A    between atoms: O_20  and  N_30
   22  A    between atoms: C_26  and  C_45
   23  A    between atoms: C_28  and  C_33
   24  A    between atoms: C_33  and  C_49
   25  A    between atoms: C_33  and  C_52
   26  A    between atoms: C_37  and  O_40
                            x       y       z     vdW  Elec       q    Type
                         _______ _______ _______ _____ _____    ______ ____

>  <TORSDO>
F 26

$$$$
=
 OpenBabel11062409013D

 55 57  0  0  1  0  0  0  0  0999 V2000
  163.0130  205.9280  150.2750 O   0  0  0  0  0  0  0  0  0  0  0  0
  161.0960  205.6170  151.5840 N   0  0  0  0  0  0  0  0  0  0  0  0
  161.9570  205.2700  150.4770 C   0  0  0  0  0  0  0  0  0  0  0  0
  161.6060  206.4830  152.6640 C   0  0  2  0  0  3  0  0  0  0  0  0
  161.5550  205.7760  154.0190 C   0  0  0  0  0  1  0  0  0  0  0  0
  161.7820  208.8850  151.9610 C   0  0  0  0  0  1  0  0  0  0  0  0
  160.9380  207.8700  152.7110 C   0  0  2  0  0  3  0  0  0  0  0  0
  160.6840  208.3460  154.1420 C   0  0  0  0  0  2  0  0  0  0  0  0
  161.0640  209.8100  154.3200 C   0  0  0  0  0  2  0  0  0  0  0  0
  159.8340  210.6600  154.6070 C   0  0  0  0  0  2  0  0  0  0  0  0
  159.9860  212.0600  154.0230 C   0  0  1  0  0  3  0  0  0  0  0  0
  159.8380  212.8850  151.6520 C   0  0  0  0  0  3  0  0  0  0  0  0
  157.6920  213.5790  150.6910 C   0  0  0  0  0  0  0  0  0  0  0  0
  157.7880  213.0060  153.1020 C   0  0  0  0  0  2  0  0  0  0  0  0
  157.0410  213.3140  151.8340 C   0  0  0  0  0  3  0  0  0  0  0  0
  159.1690  213.4740  150.6560 C   0  0  0  0  0  3  0  0  0  0  0  0
  159.0890  212.2470  152.7920 C   0  0  2  0  0  3  0  0  0  0  0  0
  156.9410  213.9530  149.4780 C   0  0  0  0  0  0  0  0  0  0  0  0
  157.5020  213.9300  148.3510 O   0  0  0  0  0  0  0  0  0  0  0  0
  155.2220  214.4480  149.5730 S   0  0  0  0  0  1  0  0  0  0  0  0
  159.7270  213.0960  155.1090 C   0  0  0  0  0  2  0  0  0  0  0  0
  159.2720  212.4130  156.3870 C   0  0  0  0  0  2  0  0  0  0  0  0
  157.4770  214.0460  156.9920 C   0  0  0  0  0  3  0  0  0  0  0  0
  155.5330  212.0390  156.8600 C   0  0  0  0  0  0  0  0  0  0  0  0
  156.8720  211.7320  156.5960 C   0  0  0  0  0  3  0  0  0  0  0  0
  156.1400  214.3500  157.2580 C   0  0  0  0  0  3  0  0  0  0  0  0
  157.8450  212.7370  156.6550 C   0  0  0  0  0  0  0  0  0  0  0  0
  154.5930  211.0660  156.8060 F   0  0  0  0  0  0  0  0  0  0  0  0
  155.1670  213.3480  157.1920 C   0  0  0  0  0  3  0  0  0  0  0  0
  159.6860  205.2290  151.5500 C   0  0  0  0  0  2  0  0  0  0  0  0
  160.3690  203.6920  152.9810 C   0  0  0  0  0  1  0  0  0  0  0  0
  159.3400  204.6050  152.7500 O   0  0  0  0  0  0  0  0  0  0  0  0
  161.6420  204.1410  149.5310 C   0  0  2  0  0  3  0  0  0  0  0  0
  161.0950  200.3400  150.1400 C   0  0  0  0  0  1  0  0  0  0  0  0
  161.0990  202.5620  151.3890 C   0  0  0  0  0  2  0  0  0  0  0  0
  160.7940  201.8250  150.1100 C   0  0  1  0  0  0  0  0  0  0  0  0
  161.9680  202.7880  150.1540 C   0  0  1  0  0  3  0  0  0  0  0  0
  159.6180  202.2500  149.4850 O   0  0  0  0  0  1  0  0  0  0  0  0
  162.3380  204.2900  148.1740 C   0  0  0  0  0  2  0  0  0  0  0  0
  161.3810  204.3040  146.9750 C   0  0  2  0  0  0  0  0  0  0  0  0
  163.7900  204.3390  145.9800 C   0  0  0  0  0  1  0  0  0  0  0  0
  162.2900  204.4460  145.7160 C   0  0  2  0  0  3  0  0  0  0  0  0
  161.9430  205.6740  144.8570 C   0  0  1  0  0  3  0  0  0  0  0  0
  163.0970  206.3390  144.4280 O   0  0  0  0  0  1  0  0  0  0  0  0
  160.1390  204.4980  143.8360 O   0  0  0  0  0  1  0  0  0  0  0  0
  161.0910  205.3070  143.6860 C   0  0  0  0  0  0  0  0  0  0  0  0
  161.3450  205.8490  142.4310 O   0  0  0  0  0  0  0  0  0  0  0  0
  160.4750  205.5370  147.1860 C   0  0  0  0  0  2  0  0  0  0  0  0
  160.8080  206.2730  148.3250 O   0  0  0  0  0  0  0  0  0  0  0  0
  160.9930  207.5730  147.8590 C   0  0  0  0  0  2  0  0  0  0  0  0
  162.4710  207.9020  147.8530 C   0  0  0  0  0  1  0  0  0  0  0  0
  160.6520  203.0830  146.9980 O   0  0  0  0  0  0  0  0  0  0  0  0
  161.4930  202.0610  146.6920 N   0  0  0  0  0  2  0  0  0  0  0  0
  160.7020  201.0480  146.0140 C   0  0  0  0  0  2  0  0  0  0  0  0
  159.7860  201.7000  144.9970 C   0  0  0  0  0  1  0  0  0  0  0  0
  1  3  2  0  0  0  0
  2  4  1  0  0  0  0
  3  2  1  0  0  0  0
  4  7  1  0  0  0  0
  4  5  1  1  0  0  0
  7  6  1  1  0  0  0
  7  8  1  0  0  0  0
  8  9  1  0  0  0  0
  9 10  1  0  0  0  0
 11 10  1  1  0  0  0
 11 21  1  0  0  0  0
 12 17  1  0  0  0  0
 13 15  2  0  0  0  0
 15 14  1  0  0  0  0
 16 13  1  0  0  0  0
 16 12  2  0  0  0  0
 17 14  1  0  0  0  0
 17 11  1  1  0  0  0
 18 20  1  0  0  0  0
 18 13  1  0  0  0  0
 19 18  2  0  0  0  0
 21 22  1  0  0  0  0
 22 27  1  0  0  0  0
 23 26  1  0  0  0  0
 24 29  1  0  0  0  0
 25 27  1  0  0  0  0
 25 24  2  0  0  0  0
 27 23  2  0  0  0  0
 28 24  1  0  0  0  0
 29 26  2  0  0  0  0
 30  2  1  0  0  0  0
 30 32  1  0  0  0  0
 32 31  1  0  0  0  0
 33 39  1  6  0  0  0
 33  3  1  0  0  0  0
 36 34  1  6  0  0  0
 36 37  1  0  0  0  0
 36 35  1  0  0  0  0
 37 33  1  6  0  0  0
 37 35  1  0  0  0  0
 38 36  1  0  0  0  0
 40 52  1  0  0  0  0
 40 48  1  1  0  0  0
 40 39  1  0  0  0  0
 42 41  1  1  0  0  0
 42 40  1  0  0  0  0
 43 44  1  6  0  0  0
 43 42  1  0  0  0  0
 46 45  1  0  0  0  0
 46 43  1  0  0  0  0
 47 46  2  0  0  0  0
 48 49  1  0  0  0  0
 50 49  1  0  0  0  0
 51 50  1  0  0  0  0
 53 52  1  0  0  0  0
 54 53  1  0  0  0  0
 55 54  1  0  0  0  0
M  END
>  <MODEL>
6

>  <REMARK>
 VINA RESULT:      -1.2      3.764      6.533
  Name = 
  26 active torsions:
  status: ('A' for Active; 'I' for Inactive)
    1  A    between atoms: C_1  and  N_30
    2  A    between atoms: C_2  and  C_28
    3  A    between atoms: C_2  and  C_44
    4  A    between atoms: C_6  and  C_8
    5  A    between atoms: C_6  and  O_20
    6  A    between atoms: C_6  and  C_38
    7  A    between atoms: C_6  and  C_46
    8  A    between atoms: C_7  and  C_8
    9  A    between atoms: C_7  and  C_23
   10  A    between atoms: C_7  and  C_43
   11  A    between atoms: C_10  and  C_32
   12  A    between atoms: C_11  and  C_29
   13  A    between atoms: C_11  and  C_38
   14  A    between atoms: C_12  and  O_14
   15  A    between atoms: O_14  and  C_46
   16  A    between atoms: C_16  and  N_17
   17  A    between atoms: C_16  and  C_26
   18  A    between atoms: N_17  and  C_37
   19  A    between atoms: C_19  and  C_45
   20  A    between atoms: C_19  and  C_49
   21  A    between atoms: O_20  and  N_30
   22  A    between atoms: C_26  and  C_45
   23  A    between atoms: C_28  and  C_33
   24  A    between atoms: C_33  and  C_49
   25  A    between atoms: C_33  and  C_52
   26  A    between atoms: C_37  and  O_40
                            x       y       z     vdW  Elec       q    Type
                         _______ _______ _______ _____ _____    ______ ____

>  <TORSDO>
F 26

$$$$
