=
 OpenBabel11062408533D

 55 60  0  0  1  0  0  0  0  0999 V2000
  161.2410  211.0380  151.1010 C   0  0  0  0  0  0  0  0  0  0  0  0
  159.7100  214.3530  150.1140 C   0  0  0  0  0  1  0  0  0  0  0  0
  156.7510  212.5600  153.6420 C   0  0  0  0  0  3  0  0  0  0  0  0
  155.8170  212.9520  154.6060 C   0  0  0  0  0  3  0  0  0  0  0  0
  158.4890  212.7550  155.3010 C   0  0  0  0  0  0  0  0  0  0  0  0
  157.5360  213.1900  156.2230 C   0  0  0  0  0  3  0  0  0  0  0  0
  158.8200  212.7830  151.7110 O   0  0  0  0  0  0  0  0  0  0  0  0
  156.2270  213.2680  155.8650 N   0  0  0  0  0  0  0  0  0  0  0  0
  158.1020  212.4940  153.9730 C   0  0  0  0  0  0  0  0  0  0  0  0
  161.5660  211.2930  152.5660 C   0  0  0  0  0  2  0  0  0  0  0  0
  160.7950  211.8310  154.8960 C   0  0  2  0  0  3  0  0  0  0  0  0
  159.8520  212.5970  155.7050 N   0  0  0  0  0  2  0  0  0  0  0  0
  160.6190  211.9830  150.3360 C   0  0  0  0  0  0  0  0  0  0  0  0
  159.9890  213.1670  151.0300 C   0  0  1  0  0  3  0  0  0  0  0  0
  159.1070  212.0810  152.9200 C   0  0  2  0  0  3  0  0  0  0  0  0
  160.5950  212.1400  153.4060 C   0  0  2  0  0  3  0  0  0  0  0  0
  161.8130  209.4920  149.1900 C   0  0  0  0  0  3  0  0  0  0  0  0
  162.3710  207.4190  150.9690 C   0  0  0  0  0  0  0  0  0  0  0  0
  161.9570  208.6650  151.4490 C   0  0  0  0  0  3  0  0  0  0  0  0
  162.2210  208.2470  148.7070 C   0  0  0  0  0  3  0  0  0  0  0  0
  161.7000  209.7210  150.5690 C   0  0  0  0  0  0  0  0  0  0  0  0
  162.6470  206.3960  151.8540 O   0  0  0  0  0  1  0  0  0  0  0  0
  162.5130  207.2090  149.5990 C   0  0  0  0  0  3  0  0  0  0  0  0
  161.9510  209.8900  156.0630 C   0  0  0  0  0  2  0  0  0  0  0  0
  160.5880  207.9590  157.0170 C   0  0  2  0  0  3  0  0  0  0  0  0
  159.4050  209.8200  155.7740 C   0  0  0  0  0  2  0  0  0  0  0  0
  159.5480  209.0800  157.1000 C   0  0  0  0  0  2  0  0  0  0  0  0
  161.8790  208.3850  156.3010 C   0  0  0  0  0  2  0  0  0  0  0  0
  160.7510  210.3260  155.2230 C   0  0  1  0  0  3  0  0  0  0  0  0
  160.0000  206.7430  156.3130 C   0  0  0  0  0  2  0  0  0  0  0  0
  160.9490  206.2060  155.2470 C   0  0  0  0  0  2  0  0  0  0  0  0
  160.3360  206.2930  153.8630 C   0  0  0  0  0  1  0  0  0  0  0  0
  160.3880  211.8310  148.8710 C   0  0  0  0  0  3  0  0  0  0  0  0
  161.1270  212.3960  147.9160 C   0  0  0  0  0  0  0  0  0  0  0  0
  162.1960  213.2220  148.2390 O   0  0  0  0  0  1  0  0  0  0  0  0
  160.7380  212.1850  146.4870 C   0  0  0  0  0  2  0  0  0  0  0  0
  161.2600  213.2790  145.5700 C   0  0  2  0  0  3  0  0  0  0  0  0
  160.2800  214.2280  145.3210 F   0  0  0  0  0  0  0  0  0  0  0  0
  161.7550  212.7210  144.3760 O   0  0  0  0  0  0  0  0  0  0  0  0
  161.3200  213.5530  143.3180 C   0  0  1  0  0  3  0  0  0  0  0  0
  162.3600  214.3940  142.8840 O   0  0  0  0  0  1  0  0  0  0  0  0
  157.5290  213.8830  141.0650 C   0  0  0  0  0  2  0  0  0  0  0  0
  160.8230  211.0860  139.5770 O   0  0  0  0  0  0  0  0  0  0  0  0
  160.7180  212.7130  142.1620 C   0  0  1  0  0  0  0  0  0  0  0  0
  161.3160  214.4520  140.5150 O   0  0  0  0  0  1  0  0  0  0  0  0
  161.3140  213.0730  140.7650 C   0  0  2  0  0  3  0  0  0  0  0  0
  158.7900  213.9920  141.9080 C   0  0  0  0  0  2  0  0  0  0  0  0
  159.9570  212.9670  138.4740 C   0  0  1  0  0  3  0  0  0  0  0  0
  157.7930  213.1590  139.7390 C   0  0  0  0  0  2  0  0  0  0  0  0
  160.6820  212.3020  139.6220 C   0  0  0  0  0  0  0  0  0  0  0  0
  161.1060  211.4100  142.4090 F   0  0  0  0  0  0  0  0  0  0  0  0
  158.8440  213.9070  138.9410 C   0  0  0  0  0  2  0  0  0  0  0  0
  159.2970  212.7150  142.1900 O   0  0  0  0  0  0  0  0  0  0  0  0
  160.9070  213.7080  137.6600 N   0  0  0  0  0  2  0  0  0  0  0  0
  161.8970  212.7540  137.1910 C   0  0  0  0  0  1  0  0  0  0  0  0
  1 10  1  0  0  0  0
  3  9  2  0  0  0  0
  3  4  1  0  0  0  0
  4  8  2  0  0  0  0
  5 12  1  0  0  0  0
  5  6  2  0  0  0  0
  8  6  1  0  0  0  0
  9  5  1  0  0  0  0
 11 29  1  0  0  0  0
 11 12  1  1  0  0  0
 13 14  1  0  0  0  0
 13  1  2  0  0  0  0
 14  2  1  6  0  0  0
 14  7  1  0  0  0  0
 15  7  1  6  0  0  0
 15 16  1  0  0  0  0
 15  9  1  0  0  0  0
 16 10  1  6  0  0  0
 16 11  1  0  0  0  0
 17 21  1  0  0  0  0
 18 19  1  0  0  0  0
 18 22  1  0  0  0  0
 20 17  2  0  0  0  0
 20 23  1  0  0  0  0
 21  1  1  0  0  0  0
 21 19  2  0  0  0  0
 23 18  2  0  0  0  0
 24 28  1  0  0  0  0
 25 30  1  6  0  0  0
 25 27  1  0  0  0  0
 26 27  1  0  0  0  0
 28 25  1  0  0  0  0
 29 26  1  1  0  0  0
 29 24  1  0  0  0  0
 31 30  1  0  0  0  0
 32 31  1  0  0  0  0
 33 13  1  0  0  0  0
 34 35  1  0  0  0  0
 34 33  2  0  0  0  0
 36 34  1  0  0  0  0
 37 38  1  6  0  0  0
 37 36  1  0  0  0  0
 39 37  1  0  0  0  0
 40 41  1  6  0  0  0
 40 39  1  0  0  0  0
 42 47  1  0  0  0  0
 43 50  2  0  0  0  0
 44 53  1  0  0  0  0
 44 51  1  1  0  0  0
 44 40  1  0  0  0  0
 46 45  1  6  0  0  0
 46 44  1  0  0  0  0
 47 53  1  0  0  0  0
 48 54  1  1  0  0  0
 48 52  1  0  0  0  0
 48 50  1  0  0  0  0
 49 42  1  0  0  0  0
 50 46  1  0  0  0  0
 52 49  1  0  0  0  0
 55 54  1  0  0  0  0
M  END
>  <MODEL>
1

>  <REMARK>
 VINA RESULT:      -3.7      0.000      0.000
  Name = 
  11 active torsions:
  status: ('A' for Active; 'I' for Inactive)
    1  A    between atoms: C_2  and  C_44
    2  A    between atoms: C_4  and  C_37
    3  A    between atoms: C_6  and  C_20
    4  A    between atoms: C_7  and  C_8
    5  A    between atoms: C_7  and  O_22
    6  A    between atoms: C_8  and  C_35
    7  A    between atoms: C_10  and  C_18
    8  A    between atoms: C_10  and  C_32
    9  A    between atoms: N_11  and  C_29
   10  A    between atoms: C_20  and  O_22
   11  A    between atoms: C_33  and  C_52
                            x       y       z     vdW  Elec       q    Type
                         _______ _______ _______ _____ _____    ______ ____

>  <TORSDO>
F 11

$$$$
=
 OpenBabel11062408533D

 55 60  0  0  1  0  0  0  0  0999 V2000
  162.0610  207.9060  149.0910 C   0  0  0  0  0  0  0  0  0  0  0  0
  162.0390  211.3320  150.6960 C   0  0  0  0  0  1  0  0  0  0  0  0
  159.5170  208.4310  153.8020 C   0  0  0  0  0  3  0  0  0  0  0  0
  159.1260  208.3210  155.1400 C   0  0  0  0  0  3  0  0  0  0  0  0
  161.4880  207.1390  154.3110 C   0  0  0  0  0  0  0  0  0  0  0  0
  161.0900  207.0920  155.6480 C   0  0  0  0  0  3  0  0  0  0  0  0
  160.9340  209.3550  151.5220 O   0  0  0  0  0  0  0  0  0  0  0  0
  159.9200  207.6670  156.0320 N   0  0  0  0  0  0  0  0  0  0  0  0
  160.7220  207.8720  153.3840 C   0  0  0  0  0  0  0  0  0  0  0  0
  162.8030  207.0970  150.1460 C   0  0  0  0  0  2  0  0  0  0  0  0
  162.9420  206.1950  152.4860 C   0  0  2  0  0  3  0  0  0  0  0  0
  162.6780  206.4620  153.8960 N   0  0  0  0  0  2  0  0  0  0  0  0
  161.7810  209.2300  149.2790 C   0  0  0  0  0  0  0  0  0  0  0  0
  161.9500  209.8100  150.6620 C   0  0  1  0  0  3  0  0  0  0  0  0
  161.1440  208.0060  151.9370 C   0  0  2  0  0  3  0  0  0  0  0  0
  162.5600  207.4110  151.6310 C   0  0  2  0  0  3  0  0  0  0  0  0
  160.4550  207.2710  147.2510 C   0  0  0  0  0  3  0  0  0  0  0  0
  162.3500  205.5660  146.1200 C   0  0  0  0  0  0  0  0  0  0  0  0
  162.6540  206.2840  147.2800 C   0  0  0  0  0  3  0  0  0  0  0  0
  160.1460  206.5510  146.0950 C   0  0  0  0  0  3  0  0  0  0  0  0
  161.7230  207.1630  147.8420 C   0  0  0  0  0  0  0  0  0  0  0  0
  163.2900  204.7230  145.5630 O   0  0  0  0  0  1  0  0  0  0  0  0
  161.0990  205.7040  145.5190 C   0  0  0  0  0  3  0  0  0  0  0  0
  161.0650  204.5200  152.8510 C   0  0  0  0  0  2  0  0  0  0  0  0
  160.1060  203.2060  150.8900 C   0  0  2  0  0  3  0  0  0  0  0  0
  162.0420  204.7880  150.4970 C   0  0  0  0  0  2  0  0  0  0  0  0
  160.5930  204.4570  150.1530 C   0  0  0  0  0  2  0  0  0  0  0  0
  160.5050  203.1840  152.3730 C   0  0  0  0  0  2  0  0  0  0  0  0
  162.2910  204.8820  152.0130 C   0  0  1  0  0  3  0  0  0  0  0  0
  160.6350  201.9510  150.2080 C   0  0  0  0  0  2  0  0  0  0  0  0
  159.9470  201.7140  148.8680 C   0  0  0  0  0  2  0  0  0  0  0  0
  160.9450  201.7030  147.7270 C   0  0  0  0  0  1  0  0  0  0  0  0
  161.1670  210.0950  148.2310 C   0  0  0  0  0  3  0  0  0  0  0  0
  161.7560  211.1470  147.6630 C   0  0  0  0  0  0  0  0  0  0  0  0
  163.0330  211.5400  148.0460 O   0  0  0  0  0  1  0  0  0  0  0  0
  160.9880  211.9450  146.6580 C   0  0  0  0  0  2  0  0  0  0  0  0
  161.7960  213.0970  146.0830 C   0  0  2  0  0  3  0  0  0  0  0  0
  162.0810  214.0390  147.0600 F   0  0  0  0  0  0  0  0  0  0  0  0
  161.1190  213.6730  144.9910 O   0  0  0  0  0  0  0  0  0  0  0  0
  161.9690  213.5560  143.8670 C   0  0  1  0  0  3  0  0  0  0  0  0
  163.2470  213.1120  144.2520 O   0  0  0  0  0  1  0  0  0  0  0  0
  159.3990  214.4530  140.3830 C   0  0  0  0  0  2  0  0  0  0  0  0
  161.2680  210.3060  140.8220 O   0  0  0  0  0  0  0  0  0  0  0  0
  161.3330  212.6510  142.7800 C   0  0  1  0  0  0  0  0  0  0  0  0
  163.0300  213.3480  141.1290 O   0  0  0  0  0  1  0  0  0  0  0  0
  162.3330  212.2500  141.6510 C   0  0  2  0  0  3  0  0  0  0  0  0
  160.3330  214.3760  141.5800 C   0  0  0  0  0  2  0  0  0  0  0  0
  161.6530  211.8580  139.1040 C   0  0  1  0  0  3  0  0  0  0  0  0
  159.5960  213.2680  139.4300 C   0  0  0  0  0  2  0  0  0  0  0  0
  161.7000  211.4200  140.5510 C   0  0  0  0  0  0  0  0  0  0  0  0
  161.0060  211.4730  143.4250 F   0  0  0  0  0  0  0  0  0  0  0  0
  161.0270  213.2420  138.9240 C   0  0  0  0  0  2  0  0  0  0  0  0
  160.1110  213.1880  142.2920 O   0  0  0  0  0  0  0  0  0  0  0  0
  162.9970  211.8580  138.5500 N   0  0  0  0  0  2  0  0  0  0  0  0
  163.0750  212.9790  137.6300 C   0  0  0  0  0  1  0  0  0  0  0  0
  1 13  2  0  0  0  0
  1 10  1  0  0  0  0
  3  4  1  0  0  0  0
  4  8  2  0  0  0  0
  5  6  2  0  0  0  0
  6  8  1  0  0  0  0
  9  3  2  0  0  0  0
  9  5  1  0  0  0  0
 11 12  1  1  0  0  0
 12  5  1  0  0  0  0
 13 14  1  0  0  0  0
 14  2  1  6  0  0  0
 14  7  1  0  0  0  0
 15  7  1  1  0  0  0
 15  9  1  0  0  0  0
 16 10  1  6  0  0  0
 16 15  1  0  0  0  0
 16 11  1  0  0  0  0
 17 21  1  0  0  0  0
 18 19  1  0  0  0  0
 19 21  2  0  0  0  0
 20 17  2  0  0  0  0
 21  1  1  0  0  0  0
 22 18  1  0  0  0  0
 23 20  1  0  0  0  0
 23 18  2  0  0  0  0
 25 30  1  6  0  0  0
 25 28  1  0  0  0  0
 27 26  1  0  0  0  0
 27 25  1  0  0  0  0
 28 24  1  0  0  0  0
 29 26  1  6  0  0  0
 29 11  1  0  0  0  0
 29 24  1  0  0  0  0
 31 30  1  0  0  0  0
 32 31  1  0  0  0  0
 33 13  1  0  0  0  0
 34 35  1  0  0  0  0
 34 33  2  0  0  0  0
 36 34  1  0  0  0  0
 37 36  1  0  0  0  0
 37 38  1  1  0  0  0
 39 37  1  0  0  0  0
 40 41  1  1  0  0  0
 40 39  1  0  0  0  0
 42 47  1  0  0  0  0
 44 51  1  1  0  0  0
 44 40  1  0  0  0  0
 46 45  1  6  0  0  0
 46 44  1  0  0  0  0
 47 53  1  0  0  0  0
 48 54  1  1  0  0  0
 48 50  1  0  0  0  0
 49 42  1  0  0  0  0
 50 43  2  0  0  0  0
 50 46  1  0  0  0  0
 52 48  1  0  0  0  0
 52 49  1  0  0  0  0
 53 44  1  0  0  0  0
 55 54  1  0  0  0  0
M  END
>  <MODEL>
2

>  <REMARK>
 VINA RESULT:      -3.4      2.793      4.635
  Name = 
  11 active torsions:
  status: ('A' for Active; 'I' for Inactive)
    1  A    between atoms: C_2  and  C_44
    2  A    between atoms: C_4  and  C_37
    3  A    between atoms: C_6  and  C_20
    4  A    between atoms: C_7  and  C_8
    5  A    between atoms: C_7  and  O_22
    6  A    between atoms: C_8  and  C_35
    7  A    between atoms: C_10  and  C_18
    8  A    between atoms: C_10  and  C_32
    9  A    between atoms: N_11  and  C_29
   10  A    between atoms: C_20  and  O_22
   11  A    between atoms: C_33  and  C_52
                            x       y       z     vdW  Elec       q    Type
                         _______ _______ _______ _____ _____    ______ ____

>  <TORSDO>
F 11

$$$$
=
 OpenBabel11062408533D

 55 60  0  0  1  0  0  0  0  0999 V2000
  161.9700  207.7980  148.5360 C   0  0  0  0  0  0  0  0  0  0  0  0
  162.1860  211.2530  150.0620 C   0  0  0  0  0  1  0  0  0  0  0  0
  159.7440  208.5220  153.3790 C   0  0  0  0  0  3  0  0  0  0  0  0
  159.4320  208.4560  154.7400 C   0  0  0  0  0  3  0  0  0  0  0  0
  161.6880  207.1590  153.7970 C   0  0  0  0  0  0  0  0  0  0  0  0
  161.3710  207.1550  155.1560 C   0  0  0  0  0  3  0  0  0  0  0  0
  161.0550  209.3410  150.9980 O   0  0  0  0  0  0  0  0  0  0  0  0
  160.2520  207.7870  155.5970 N   0  0  0  0  0  0  0  0  0  0  0  0
  160.8970  207.9050  152.9020 C   0  0  0  0  0  0  0  0  0  0  0  0
  162.7410  206.9790  149.5610 C   0  0  0  0  0  2  0  0  0  0  0  0
  162.9870  206.1190  151.9090 C   0  0  2  0  0  3  0  0  0  0  0  0
  162.8210  206.4250  153.3260 N   0  0  0  0  0  2  0  0  0  0  0  0
  161.7560  209.1350  148.7110 C   0  0  0  0  0  0  0  0  0  0  0  0
  162.0330  209.7350  150.0680 C   0  0  1  0  0  3  0  0  0  0  0  0
  161.2340  207.9930  151.4300 C   0  0  2  0  0  3  0  0  0  0  0  0
  162.6030  207.3320  151.0520 C   0  0  2  0  0  3  0  0  0  0  0  0
  160.1890  207.0760  146.9000 C   0  0  0  0  0  3  0  0  0  0  0  0
  162.0310  205.5060  145.5140 C   0  0  0  0  0  0  0  0  0  0  0  0
  162.4320  206.2330  146.6390 C   0  0  0  0  0  3  0  0  0  0  0  0
  159.7830  206.3470  145.7800 C   0  0  0  0  0  3  0  0  0  0  0  0
  161.5250  207.0450  147.3270 C   0  0  0  0  0  0  0  0  0  0  0  0
  162.9460  204.7310  144.8300 O   0  0  0  0  0  1  0  0  0  0  0  0
  160.7090  205.5680  145.0760 C   0  0  0  0  0  3  0  0  0  0  0  0
  161.2930  204.3510  152.5950 C   0  0  0  0  0  2  0  0  0  0  0  0
  159.8780  203.1660  150.8390 C   0  0  2  0  0  3  0  0  0  0  0  0
  161.6230  204.8450  150.1020 C   0  0  0  0  0  2  0  0  0  0  0  0
  160.1400  204.4900  150.1150 C   0  0  0  0  0  2  0  0  0  0  0  0
  160.6480  203.0390  152.1620 C   0  0  0  0  0  2  0  0  0  0  0  0
  162.2550  204.8250  151.5060 C   0  0  1  0  0  3  0  0  0  0  0  0
  160.2310  201.9910  149.9370 C   0  0  0  0  0  2  0  0  0  0  0  0
  161.1340  202.4250  148.7870 C   0  0  0  0  0  2  0  0  0  0  0  0
  160.7300  201.7620  147.4840 C   0  0  0  0  0  1  0  0  0  0  0  0
  161.1150  210.0050  147.6830 C   0  0  0  0  0  3  0  0  0  0  0  0
  161.5500  211.2100  147.3170 C   0  0  0  0  0  0  0  0  0  0  0  0
  162.6710  211.7720  147.9170 O   0  0  0  0  0  1  0  0  0  0  0  0
  160.7670  211.9800  146.3030 C   0  0  0  0  0  2  0  0  0  0  0  0
  161.6490  212.8340  145.4060 C   0  0  2  0  0  3  0  0  0  0  0  0
  161.7460  214.1290  145.8930 F   0  0  0  0  0  0  0  0  0  0  0  0
  161.1680  212.8130  144.0830 O   0  0  0  0  0  0  0  0  0  0  0  0
  162.1660  213.3970  143.2690 C   0  0  1  0  0  3  0  0  0  0  0  0
  163.4120  212.7820  143.4890 O   0  0  0  0  0  1  0  0  0  0  0  0
  161.3690  210.0780  140.4580 C   0  0  0  0  0  2  0  0  0  0  0  0
  160.2420  214.3560  139.3060 O   0  0  0  0  0  0  0  0  0  0  0  0
  161.7510  213.3730  141.7760 C   0  0  1  0  0  0  0  0  0  0  0  0
  159.4220  212.8170  142.3750 O   0  0  0  0  0  1  0  0  0  0  0  0
  160.2260  213.6220  141.5560 C   0  0  2  0  0  3  0  0  0  0  0  0
  161.6190  211.0560  141.5940 C   0  0  0  0  0  2  0  0  0  0  0  0
  158.7870  212.5370  139.5930 C   0  0  1  0  0  3  0  0  0  0  0  0
  160.4780  210.6890  139.3680 C   0  0  0  0  0  2  0  0  0  0  0  0
  159.8030  213.5350  140.1030 C   0  0  0  0  0  0  0  0  0  0  0  0
  162.3920  214.4520  141.1960 F   0  0  0  0  0  0  0  0  0  0  0  0
  159.1400  211.0940  139.9590 C   0  0  0  0  0  2  0  0  0  0  0  0
  162.2390  212.2170  141.1080 O   0  0  0  0  0  0  0  0  0  0  0  0
  157.4730  212.8630  140.1220 N   0  0  0  0  0  2  0  0  0  0  0  0
  156.5030  212.1320  139.3280 C   0  0  0  0  0  1  0  0  0  0  0  0
  1 13  2  0  0  0  0
  1 10  1  0  0  0  0
  3  4  1  0  0  0  0
  4  8  2  0  0  0  0
  5  6  2  0  0  0  0
  6  8  1  0  0  0  0
  9  3  2  0  0  0  0
  9  5  1  0  0  0  0
 11 12  1  1  0  0  0
 12  5  1  0  0  0  0
 13 14  1  0  0  0  0
 14  2  1  6  0  0  0
 14  7  1  0  0  0  0
 15  7  1  1  0  0  0
 15  9  1  0  0  0  0
 16 10  1  6  0  0  0
 16 15  1  0  0  0  0
 16 11  1  0  0  0  0
 17 21  1  0  0  0  0
 18 19  1  0  0  0  0
 19 21  2  0  0  0  0
 20 17  2  0  0  0  0
 21  1  1  0  0  0  0
 22 18  1  0  0  0  0
 23 18  2  0  0  0  0
 23 20  1  0  0  0  0
 25 30  1  6  0  0  0
 25 28  1  0  0  0  0
 26 27  1  0  0  0  0
 27 25  1  0  0  0  0
 28 24  1  0  0  0  0
 29 26  1  6  0  0  0
 29 11  1  0  0  0  0
 29 24  1  0  0  0  0
 31 30  1  0  0  0  0
 32 31  1  0  0  0  0
 33 13  1  0  0  0  0
 34 33  2  0  0  0  0
 34 35  1  0  0  0  0
 36 34  1  0  0  0  0
 37 38  1  1  0  0  0
 37 36  1  0  0  0  0
 39 37  1  0  0  0  0
 40 41  1  6  0  0  0
 40 39  1  0  0  0  0
 42 47  1  0  0  0  0
 43 50  2  0  0  0  0
 44 51  1  6  0  0  0
 44 40  1  0  0  0  0
 46 44  1  0  0  0  0
 46 45  1  1  0  0  0
 48 52  1  0  0  0  0
 48 50  1  0  0  0  0
 48 54  1  1  0  0  0
 49 52  1  0  0  0  0
 49 42  1  0  0  0  0
 50 46  1  0  0  0  0
 53 47  1  0  0  0  0
 53 44  1  0  0  0  0
 55 54  1  0  0  0  0
M  END
>  <MODEL>
3

>  <REMARK>
 VINA RESULT:      -0.8      2.967      5.025
  Name = 
  11 active torsions:
  status: ('A' for Active; 'I' for Inactive)
    1  A    between atoms: C_2  and  C_44
    2  A    between atoms: C_4  and  C_37
    3  A    between atoms: C_6  and  C_20
    4  A    between atoms: C_7  and  C_8
    5  A    between atoms: C_7  and  O_22
    6  A    between atoms: C_8  and  C_35
    7  A    between atoms: C_10  and  C_18
    8  A    between atoms: C_10  and  C_32
    9  A    between atoms: N_11  and  C_29
   10  A    between atoms: C_20  and  O_22
   11  A    between atoms: C_33  and  C_52
                            x       y       z     vdW  Elec       q    Type
                         _______ _______ _______ _____ _____    ______ ____

>  <TORSDO>
F 11

$$$$
