=
 OpenBabel11052421563D

 30 34  0  0  1  0  0  0  0  0999 V2000
  161.0820  211.1740  153.0980 C   0  0  0  0  0  2  0  0  0  0  0  0
  161.0060  208.6640  152.8310 C   0  0  0  0  0  0  0  0  0  0  0  0
  160.2910  212.2220  153.7540 N   0  0  2  0  0  0  0  0  0  0  0  0
  160.7500  207.3880  153.3400 C   0  0  0  0  0  3  0  0  0  0  0  0
  161.4790  208.7880  151.4220 C   0  0  0  0  0  1  0  0  0  0  0  0
  160.0850  210.8290  155.8560 C   0  0  1  0  0  3  0  0  0  0  0  0
  160.2960  207.2300  154.6490 C   0  0  0  0  0  3  0  0  0  0  0  0
  160.8040  209.7990  153.6420 C   0  0  0  0  0  0  0  0  0  0  0  0
  160.4560  212.1790  155.2170 C   0  0  2  0  0  3  0  0  0  0  0  0
  159.7590  213.3440  155.9060 C   0  0  0  0  0  1  0  0  0  0  0  0
  160.1030  208.3490  155.4590 C   0  0  0  0  0  3  0  0  0  0  0  0
  160.3760  209.6360  154.9760 C   0  0  0  0  0  0  0  0  0  0  0  0
  158.9000  212.2720  153.2500 C   0  0  1  0  0  0  0  0  0  0  0  0
  158.5440  213.5500  152.7820 O   0  0  0  0  0  0  0  0  0  0  0  0
  158.7190  212.5500  151.7990 C   0  0  1  0  0  3  0  0  0  0  0  0
  157.6300  210.3460  153.7550 O   0  0  0  0  0  0  0  0  0  0  0  0
  157.7740  211.5460  153.9360 C   0  0  0  0  0  0  0  0  0  0  0  0
  156.7940  212.3010  154.7860 C   0  0  1  0  0  3  0  0  0  0  0  0
  155.7430  212.7710  153.9920 O   0  0  0  0  0  0  0  0  0  0  0  0
  155.4100  214.0140  154.5330 C   0  0  0  0  0  1  0  0  0  0  0  0
  156.2480  211.4130  155.8950 C   0  0  0  0  0  2  0  0  0  0  0  0
  156.6310  211.9680  157.2520 C   0  0  0  0  0  1  0  0  0  0  0  0
  159.9420  212.7500  151.1510 O   0  0  0  0  0  0  0  0  0  0  0  0
  159.7410  213.8820  150.3600 C   0  0  2  0  0  3  0  0  0  0  0  0
  159.5090  213.4610  148.9210 C   0  0  2  0  0  3  0  0  0  0  0  0
  160.8550  213.9860  149.3370 C   0  0  1  0  0  3  0  0  0  0  0  0
  160.2520  214.4230  148.0160 C   0  0  0  0  0  2  0  0  0  0  0  0
  160.7080  210.6880  157.2490 C   0  0  0  0  0  2  0  0  0  0  0  0
  162.1890  211.0360  157.2520 C   0  0  0  0  0  2  0  0  0  0  0  0
  162.9330  209.9010  156.9340 O   0  0  0  0  0  1  0  0  0  0  0  0
  1  8  1  0  0  0  0
  2  4  2  0  0  0  0
  2  8  1  0  0  0  0
  3  1  1  6  0  0  0
  3  9  1  0  0  0  0
  4  7  1  0  0  0  0
  5  2  1  0  0  0  0
  6 28  1  1  0  0  0
  7 11  2  0  0  0  0
  8 12  2  0  0  0  0
  9  6  1  0  0  0  0
  9 10  1  1  0  0  0
 12 11  1  0  0  0  0
 12  6  1  0  0  0  0
 13  3  1  0  0  0  0
 13 17  1  1  0  0  0
 14 13  1  0  0  0  0
 15 23  1  6  0  0  0
 15 14  1  0  0  0  0
 15 13  1  0  0  0  0
 16 17  2  0  0  0  0
 17 18  1  0  0  0  0
 18 21  1  1  0  0  0
 19 20  1  0  0  0  0
 19 18  1  0  0  0  0
 21 22  1  0  0  0  0
 24 23  1  1  0  0  0
 25 27  1  6  0  0  0
 25 26  1  0  0  0  0
 25 24  1  0  0  0  0
 26 27  1  6  0  0  0
 26 24  1  0  0  0  0
 28 29  1  0  0  0  0
 30 29  1  0  0  0  0
M  END
>  <MODEL>
1

>  <REMARK>
 VINA RESULT:      -4.1      0.000      0.000
  Name = 
  9 active torsions:
  status: ('A' for Active; 'I' for Inactive)
    1  A    between atoms: C_3  and  C_11
    2  A    between atoms: C_3  and  C_19
    3  A    between atoms: N_4  and  C_13
    4  A    between atoms: O_5  and  C_12
    5  A    between atoms: C_7  and  O_16
    6  A    between atoms: C_8  and  C_12
    7  A    between atoms: C_8  and  C_13
    8  A    between atoms: C_9  and  C_12
    9  A    between atoms: O_16  and  C_30
                            x       y       z     vdW  Elec       q    Type
                         _______ _______ _______ _____ _____    ______ ____

>  <TORSDO>
F 9

$$$$
=
 OpenBabel11052421563D

 30 34  0  0  1  0  0  0  0  0999 V2000
  159.9600  205.8040  150.0790 C   0  0  0  0  0  2  0  0  0  0  0  0
  160.4010  203.5080  151.0330 C   0  0  0  0  0  0  0  0  0  0  0  0
  160.6750  206.8050  149.2790 N   0  0  2  0  0  0  0  0  0  0  0  0
  160.9580  202.2300  150.9340 C   0  0  0  0  0  3  0  0  0  0  0  0
  159.6550  203.8660  152.2730 C   0  0  0  0  0  1  0  0  0  0  0  0
  161.5060  205.0200  147.6900 C   0  0  1  0  0  3  0  0  0  0  0  0
  161.6730  201.8600  149.7950 C   0  0  0  0  0  3  0  0  0  0  0  0
  160.5610  204.4290  149.9780 C   0  0  0  0  0  0  0  0  0  0  0  0
  160.8010  206.3750  147.8750 C   0  0  2  0  0  3  0  0  0  0  0  0
  161.4110  207.4590  146.9970 C   0  0  0  0  0  1  0  0  0  0  0  0
  161.8270  202.7640  148.7440 C   0  0  0  0  0  3  0  0  0  0  0  0
  161.2560  204.0420  148.8130 C   0  0  0  0  0  0  0  0  0  0  0  0
  161.9160  207.2670  149.9390 C   0  0  1  0  0  0  0  0  0  0  0  0
  162.9690  207.4600  149.0260 O   0  0  0  0  0  0  0  0  0  0  0  0
  162.4010  208.6280  149.5810 C   0  0  1  0  0  3  0  0  0  0  0  0
  163.1100  205.7600  151.3100 O   0  0  0  0  0  0  0  0  0  0  0  0
  162.3640  206.7270  151.2700 C   0  0  0  0  0  0  0  0  0  0  0  0
  161.8490  207.3330  152.5440 C   0  0  1  0  0  3  0  0  0  0  0  0
  160.7060  208.0940  152.2760 O   0  0  0  0  0  0  0  0  0  0  0  0
  161.0290  209.3870  152.6920 C   0  0  0  0  0  1  0  0  0  0  0  0
  161.5220  206.2480  153.5610 C   0  0  0  0  0  2  0  0  0  0  0  0
  160.6570  206.8110  154.6710 C   0  0  0  0  0  1  0  0  0  0  0  0
  161.5810  209.2390  148.6280 O   0  0  0  0  0  0  0  0  0  0  0  0
  162.2180  210.4460  148.3360 C   0  0  2  0  0  3  0  0  0  0  0  0
  161.8130  211.4930  149.3560 C   0  0  2  0  0  3  0  0  0  0  0  0
  161.1770  211.4950  147.9930 C   0  0  1  0  0  3  0  0  0  0  0  0
  161.5920  212.8060  148.6300 C   0  0  0  0  0  2  0  0  0  0  0  0
  161.1920  204.4190  146.3150 C   0  0  0  0  0  2  0  0  0  0  0  0
  162.4220  204.3550  145.4230 C   0  0  0  0  0  2  0  0  0  0  0  0
  163.5500  204.7090  146.1620 O   0  0  0  0  0  1  0  0  0  0  0  0
  2  5  1  0  0  0  0
  3 13  1  0  0  0  0
  3  1  1  1  0  0  0
  4  2  1  0  0  0  0
  6 28  1  6  0  0  0
  6  9  1  0  0  0  0
  6 12  1  0  0  0  0
  7  4  2  0  0  0  0
  8  1  1  0  0  0  0
  8  2  2  0  0  0  0
  9 10  1  6  0  0  0
  9  3  1  0  0  0  0
 11 12  2  0  0  0  0
 11  7  1  0  0  0  0
 12  8  1  0  0  0  0
 13 17  1  1  0  0  0
 14 15  1  0  0  0  0
 14 13  1  0  0  0  0
 15 23  1  6  0  0  0
 15 13  1  0  0  0  0
 17 16  2  0  0  0  0
 17 18  1  0  0  0  0
 18 21  1  1  0  0  0
 19 18  1  0  0  0  0
 19 20  1  0  0  0  0
 21 22  1  0  0  0  0
 24 23  1  1  0  0  0
 24 25  1  0  0  0  0
 25 27  1  6  0  0  0
 26 24  1  0  0  0  0
 26 27  1  6  0  0  0
 26 25  1  0  0  0  0
 29 30  1  0  0  0  0
 29 28  1  0  0  0  0
M  END
>  <MODEL>
2

>  <REMARK>
 VINA RESULT:      -3.6      4.889      7.776
  Name = 
  9 active torsions:
  status: ('A' for Active; 'I' for Inactive)
    1  A    between atoms: C_3  and  C_11
    2  A    between atoms: C_3  and  C_19
    3  A    between atoms: N_4  and  C_13
    4  A    between atoms: O_5  and  C_12
    5  A    between atoms: C_7  and  O_16
    6  A    between atoms: C_8  and  C_12
    7  A    between atoms: C_8  and  C_13
    8  A    between atoms: C_9  and  C_12
    9  A    between atoms: O_16  and  C_30
                            x       y       z     vdW  Elec       q    Type
                         _______ _______ _______ _____ _____    ______ ____

>  <TORSDO>
F 9

$$$$
=
 OpenBabel11052421563D

 30 34  0  0  1  0  0  0  0  0999 V2000
  159.4380  209.2290  153.0990 C   0  0  0  0  0  2  0  0  0  0  0  0
  159.4730  211.5100  154.1810 C   0  0  0  0  0  0  0  0  0  0  0  0
  160.4020  208.1850  152.7300 N   0  0  2  0  0  0  0  0  0  0  0  0
  159.9720  212.4040  155.1310 C   0  0  0  0  0  3  0  0  0  0  0  0
  158.4160  211.9850  153.2410 C   0  0  0  0  0  1  0  0  0  0  0  0
  161.5730  208.4010  154.9630 C   0  0  1  0  0  3  0  0  0  0  0  0
  160.9680  212.0030  156.0200 C   0  0  0  0  0  3  0  0  0  0  0  0
  159.9760  210.1950  154.1180 C   0  0  0  0  0  0  0  0  0  0  0  0
  160.9100  207.4830  153.9220 C   0  0  2  0  0  3  0  0  0  0  0  0
  161.8010  206.3030  153.5560 C   0  0  0  0  0  1  0  0  0  0  0  0
  161.4640  210.7000  155.9700 C   0  0  0  0  0  3  0  0  0  0  0  0
  160.9610  209.7800  155.0400 C   0  0  0  0  0  0  0  0  0  0  0  0
  161.4200  208.6740  151.7730 C   0  0  1  0  0  0  0  0  0  0  0  0
  162.4820  207.7680  151.6090 O   0  0  0  0  0  0  0  0  0  0  0  0
  161.5930  207.8930  150.5190 C   0  0  1  0  0  3  0  0  0  0  0  0
  162.6510  210.5370  152.5440 O   0  0  0  0  0  0  0  0  0  0  0  0
  161.8460  210.1170  151.7250 C   0  0  0  0  0  0  0  0  0  0  0  0
  161.2390  211.0520  150.7200 C   0  0  1  0  0  3  0  0  0  0  0  0
  160.8070  212.2180  151.3600 O   0  0  0  0  0  0  0  0  0  0  0  0
  160.3290  213.0360  150.3340 C   0  0  0  0  0  1  0  0  0  0  0  0
  162.2460  211.4000  149.6330 C   0  0  0  0  0  2  0  0  0  0  0  0
  161.9480  210.6200  148.3690 C   0  0  0  0  0  1  0  0  0  0  0  0
  160.7520  206.7770  150.4800 O   0  0  0  0  0  0  0  0  0  0  0  0
  161.5440  205.7570  149.9510 C   0  0  2  0  0  3  0  0  0  0  0  0
  160.8040  205.0770  148.8140 C   0  0  2  0  0  3  0  0  0  0  0  0
  160.8560  204.4220  150.1670 C   0  0  1  0  0  3  0  0  0  0  0  0
  161.0380  203.5830  148.9170 C   0  0  0  0  0  2  0  0  0  0  0  0
  161.6420  207.7200  156.3350 C   0  0  0  0  0  2  0  0  0  0  0  0
  160.3250  207.8170  157.0900 C   0  0  0  0  0  2  0  0  0  0  0  0
  159.4220  206.8910  156.5690 O   0  0  0  0  0  1  0  0  0  0  0  0
  1  8  1  0  0  0  0
  2  4  1  0  0  0  0
  3  1  1  1  0  0  0
  3  9  1  0  0  0  0
  4  7  2  0  0  0  0
  5  2  1  0  0  0  0
  6 12  1  0  0  0  0
  6 28  1  1  0  0  0
  8  2  2  0  0  0  0
  8 12  1  0  0  0  0
  9 10  1  6  0  0  0
  9  6  1  0  0  0  0
 11  7  1  0  0  0  0
 12 11  2  0  0  0  0
 13 17  1  6  0  0  0
 13  3  1  0  0  0  0
 14 13  1  0  0  0  0
 15 23  1  1  0  0  0
 15 14  1  0  0  0  0
 15 13  1  0  0  0  0
 17 16  2  0  0  0  0
 18 21  1  6  0  0  0
 18 19  1  0  0  0  0
 18 17  1  0  0  0  0
 20 19  1  0  0  0  0
 22 21  1  0  0  0  0
 24 26  1  0  0  0  0
 24 23  1  1  0  0  0
 25 27  1  6  0  0  0
 25 24  1  0  0  0  0
 25 26  1  0  0  0  0
 26 27  1  6  0  0  0
 28 29  1  0  0  0  0
 30 29  1  0  0  0  0
M  END
>  <MODEL>
3

>  <REMARK>
 VINA RESULT:      -3.6      2.924      6.057
  Name = 
  9 active torsions:
  status: ('A' for Active; 'I' for Inactive)
    1  A    between atoms: C_3  and  C_11
    2  A    between atoms: C_3  and  C_19
    3  A    between atoms: N_4  and  C_13
    4  A    between atoms: O_5  and  C_12
    5  A    between atoms: C_7  and  O_16
    6  A    between atoms: C_8  and  C_12
    7  A    between atoms: C_8  and  C_13
    8  A    between atoms: C_9  and  C_12
    9  A    between atoms: O_16  and  C_30
                            x       y       z     vdW  Elec       q    Type
                         _______ _______ _______ _____ _____    ______ ____

>  <TORSDO>
F 9

$$$$
=
 OpenBabel11052421563D

 30 34  0  0  1  0  0  0  0  0999 V2000
  162.1480  210.2110  152.3180 C   0  0  0  0  0  2  0  0  0  0  0  0
  161.6950  207.9460  151.2980 C   0  0  0  0  0  0  0  0  0  0  0  0
  161.5080  211.1200  153.2760 N   0  0  2  0  0  0  0  0  0  0  0  0
  161.2290  206.6320  151.3960 C   0  0  0  0  0  3  0  0  0  0  0  0
  162.2250  208.4170  149.9860 C   0  0  0  0  0  1  0  0  0  0  0  0
  161.0240  209.2030  154.8550 C   0  0  1  0  0  3  0  0  0  0  0  0
  160.7150  206.1560  152.6020 C   0  0  0  0  0  3  0  0  0  0  0  0
  161.6450  208.7970  152.4200 C   0  0  0  0  0  0  0  0  0  0  0  0
  161.6180  210.6080  154.6530 C   0  0  2  0  0  3  0  0  0  0  0  0
  161.0890  211.6020  155.6780 C   0  0  0  0  0  1  0  0  0  0  0  0
  160.6720  206.9910  153.7190 C   0  0  0  0  0  3  0  0  0  0  0  0
  161.1550  208.3040  153.6480 C   0  0  0  0  0  0  0  0  0  0  0  0
  160.1580  211.5370  152.8370 C   0  0  1  0  0  0  0  0  0  0  0  0
  160.1140  212.8880  152.4480 O   0  0  0  0  0  0  0  0  0  0  0  0
  160.0080  211.9350  151.4110 C   0  0  1  0  0  3  0  0  0  0  0  0
  158.4520  209.9650  153.2790 O   0  0  0  0  0  0  0  0  0  0  0  0
  158.9090  211.0700  153.5340 C   0  0  0  0  0  0  0  0  0  0  0  0
  158.1910  211.9780  154.4910 C   0  0  1  0  0  3  0  0  0  0  0  0
  157.1540  212.6400  153.8250 O   0  0  0  0  0  0  0  0  0  0  0  0
  157.3640  213.9950  154.0880 C   0  0  0  0  0  1  0  0  0  0  0  0
  157.6320  211.1880  155.6650 C   0  0  0  0  0  2  0  0  0  0  0  0
  156.1360  211.0000  155.5080 C   0  0  0  0  0  1  0  0  0  0  0  0
  161.2220  211.8680  150.7210 O   0  0  0  0  0  0  0  0  0  0  0  0
  160.9110  212.2670  149.4200 C   0  0  2  0  0  3  0  0  0  0  0  0
  161.9500  211.7200  148.4590 C   0  0  2  0  0  3  0  0  0  0  0  0
  162.0160  213.1600  148.8880 C   0  0  1  0  0  3  0  0  0  0  0  0
  162.2700  212.7940  147.4390 C   0  0  0  0  0  2  0  0  0  0  0  0
  161.5740  208.5490  156.1280 C   0  0  0  0  0  2  0  0  0  0  0  0
  160.4870  208.3070  157.1630 C   0  0  0  0  0  2  0  0  0  0  0  0
  160.2360  206.9390  157.2610 O   0  0  0  0  0  1  0  0  0  0  0  0
  1  8  1  0  0  0  0
  2  4  2  0  0  0  0
  2  8  1  0  0  0  0
  3  1  1  6  0  0  0
  3  9  1  0  0  0  0
  4  7  1  0  0  0  0
  5  2  1  0  0  0  0
  6 28  1  1  0  0  0
  7 11  2  0  0  0  0
  8 12  2  0  0  0  0
  9  6  1  0  0  0  0
  9 10  1  1  0  0  0
 12 11  1  0  0  0  0
 12  6  1  0  0  0  0
 13  3  1  0  0  0  0
 13 17  1  1  0  0  0
 14 13  1  0  0  0  0
 15 23  1  6  0  0  0
 15 14  1  0  0  0  0
 15 13  1  0  0  0  0
 16 17  2  0  0  0  0
 17 18  1  0  0  0  0
 18 21  1  1  0  0  0
 19 20  1  0  0  0  0
 19 18  1  0  0  0  0
 22 21  1  0  0  0  0
 24 23  1  1  0  0  0
 25 27  1  6  0  0  0
 25 26  1  0  0  0  0
 25 24  1  0  0  0  0
 26 27  1  6  0  0  0
 26 24  1  0  0  0  0
 28 29  1  0  0  0  0
 29 30  1  0  0  0  0
M  END
>  <MODEL>
4

>  <REMARK>
 VINA RESULT:      -3.4      1.648      2.094
  Name = 
  9 active torsions:
  status: ('A' for Active; 'I' for Inactive)
    1  A    between atoms: C_3  and  C_11
    2  A    between atoms: C_3  and  C_19
    3  A    between atoms: N_4  and  C_13
    4  A    between atoms: O_5  and  C_12
    5  A    between atoms: C_7  and  O_16
    6  A    between atoms: C_8  and  C_12
    7  A    between atoms: C_8  and  C_13
    8  A    between atoms: C_9  and  C_12
    9  A    between atoms: O_16  and  C_30
                            x       y       z     vdW  Elec       q    Type
                         _______ _______ _______ _____ _____    ______ ____

>  <TORSDO>
F 9

$$$$
=
 OpenBabel11052421563D

 30 34  0  0  1  0  0  0  0  0999 V2000
  161.0310  211.9210  155.2240 C   0  0  0  0  0  2  0  0  0  0  0  0
  162.1160  210.0590  156.5390 C   0  0  0  0  0  0  0  0  0  0  0  0
  160.0220  212.0610  154.1680 N   0  0  2  0  0  0  0  0  0  0  0  0
  162.0500  208.8280  157.1980 C   0  0  0  0  0  3  0  0  0  0  0  0
  163.4260  210.7700  156.4880 C   0  0  0  0  0  1  0  0  0  0  0  0
  158.4970  210.4090  155.3280 C   0  0  1  0  0  3  0  0  0  0  0  0
  160.8460  208.1270  157.2590 C   0  0  0  0  0  3  0  0  0  0  0  0
  160.9630  210.5950  155.9320 C   0  0  0  0  0  0  0  0  0  0  0  0
  158.6680  211.7960  154.6840 C   0  0  2  0  0  3  0  0  0  0  0  0
  157.5920  212.0740  153.6430 C   0  0  0  0  0  1  0  0  0  0  0  0
  159.6990  208.6570  156.6680 C   0  0  0  0  0  3  0  0  0  0  0  0
  159.7390  209.9000  156.0220 C   0  0  0  0  0  0  0  0  0  0  0  0
  160.4040  211.3480  152.9290 C   0  0  1  0  0  0  0  0  0  0  0  0
  159.3190  211.1790  152.0500 O   0  0  0  0  0  0  0  0  0  0  0  0
  160.3060  212.1110  151.6560 C   0  0  1  0  0  3  0  0  0  0  0  0
  162.5560  210.3860  153.0860 O   0  0  0  0  0  0  0  0  0  0  0  0
  161.3590  210.1840  152.9380 C   0  0  0  0  0  0  0  0  0  0  0  0
  160.8550  208.7900  152.7020 C   0  0  1  0  0  3  0  0  0  0  0  0
  160.8480  208.5160  151.3310 O   0  0  0  0  0  0  0  0  0  0  0  0
  162.1040  207.9670  151.0660 C   0  0  0  0  0  1  0  0  0  0  0  0
  161.7250  207.7740  153.4290 C   0  0  0  0  0  2  0  0  0  0  0  0
  160.9180  206.5370  153.7690 C   0  0  0  0  0  1  0  0  0  0  0  0
  159.8230  213.4070  151.8610 O   0  0  0  0  0  0  0  0  0  0  0  0
  159.4480  213.8500  150.5920 C   0  0  2  0  0  3  0  0  0  0  0  0
  160.2020  213.0630  149.5360 C   0  0  2  0  0  3  0  0  0  0  0  0
  160.6520  214.4530  149.8920 C   0  0  1  0  0  3  0  0  0  0  0  0
  160.6270  214.0190  148.4400 C   0  0  0  0  0  2  0  0  0  0  0  0
  157.2660  210.3710  156.2410 C   0  0  0  0  0  2  0  0  0  0  0  0
  156.8480  211.7620  156.6950 C   0  0  0  0  0  2  0  0  0  0  0  0
  155.4650  211.8930  156.5730 O   0  0  0  0  0  1  0  0  0  0  0  0
  1  8  1  0  0  0  0
  2  4  1  0  0  0  0
  3  9  1  0  0  0  0
  3  1  1  1  0  0  0
  4  7  2  0  0  0  0
  5  2  1  0  0  0  0
  6 12  1  0  0  0  0
  6 28  1  1  0  0  0
  8 12  1  0  0  0  0
  8  2  2  0  0  0  0
  9 10  1  6  0  0  0
  9  6  1  0  0  0  0
 11  7  1  0  0  0  0
 12 11  2  0  0  0  0
 13 17  1  1  0  0  0
 13  3  1  0  0  0  0
 14 13  1  0  0  0  0
 15 23  1  1  0  0  0
 15 14  1  0  0  0  0
 15 13  1  0  0  0  0
 17 16  2  0  0  0  0
 18 17  1  0  0  0  0
 18 21  1  1  0  0  0
 19 18  1  0  0  0  0
 20 19  1  0  0  0  0
 21 22  1  0  0  0  0
 24 23  1  1  0  0  0
 25 27  1  6  0  0  0
 25 26  1  0  0  0  0
 25 24  1  0  0  0  0
 26 27  1  6  0  0  0
 26 24  1  0  0  0  0
 28 29  1  0  0  0  0
 30 29  1  0  0  0  0
M  END
>  <MODEL>
5

>  <REMARK>
 VINA RESULT:      -3.2      1.631      4.301
  Name = 
  9 active torsions:
  status: ('A' for Active; 'I' for Inactive)
    1  A    between atoms: C_3  and  C_11
    2  A    between atoms: C_3  and  C_19
    3  A    between atoms: N_4  and  C_13
    4  A    between atoms: O_5  and  C_12
    5  A    between atoms: C_7  and  O_16
    6  A    between atoms: C_8  and  C_12
    7  A    between atoms: C_8  and  C_13
    8  A    between atoms: C_9  and  C_12
    9  A    between atoms: O_16  and  C_30
                            x       y       z     vdW  Elec       q    Type
                         _______ _______ _______ _____ _____    ______ ____

>  <TORSDO>
F 9

$$$$
=
 OpenBabel11052421563D

 30 34  0  0  1  0  0  0  0  0999 V2000
  162.7060  206.6970  151.1940 C   0  0  0  0  0  2  0  0  0  0  0  0
  161.4560  207.1150  153.3470 C   0  0  0  0  0  0  0  0  0  0  0  0
  162.4930  206.8960  149.7560 N   0  0  2  0  0  0  0  0  0  0  0  0
  160.6150  207.9020  154.1380 C   0  0  0  0  0  3  0  0  0  0  0  0
  161.9610  205.8280  153.9050 C   0  0  0  0  0  1  0  0  0  0  0  0
  161.6060  209.2320  150.1560 C   0  0  1  0  0  3  0  0  0  0  0  0
  160.1120  209.1070  153.6490 C   0  0  0  0  0  3  0  0  0  0  0  0
  161.7990  207.5390  152.0470 C   0  0  0  0  0  0  0  0  0  0  0  0
  162.5860  208.3220  149.3950 C   0  0  2  0  0  3  0  0  0  0  0  0
  162.5110  208.5380  147.8900 C   0  0  0  0  0  1  0  0  0  0  0  0
  160.4560  209.5370  152.3670 C   0  0  0  0  0  3  0  0  0  0  0  0
  161.3160  208.7740  151.5660 C   0  0  0  0  0  0  0  0  0  0  0  0
  161.3030  206.1700  149.2590 C   0  0  1  0  0  0  0  0  0  0  0  0
  160.5330  206.9430  148.3720 O   0  0  0  0  0  0  0  0  0  0  0  0
  161.2570  205.8710  147.8020 C   0  0  1  0  0  3  0  0  0  0  0  0
  159.4940  205.7290  150.7130 O   0  0  0  0  0  0  0  0  0  0  0  0
  160.4810  205.2770  150.1500 C   0  0  0  0  0  0  0  0  0  0  0  0
  160.9040  203.8580  150.3960 C   0  0  1  0  0  3  0  0  0  0  0  0
  160.6760  203.5240  151.7350 O   0  0  0  0  0  0  0  0  0  0  0  0
  161.5810  202.4960  152.0090 C   0  0  0  0  0  1  0  0  0  0  0  0
  160.1410  202.9040  149.4880 C   0  0  0  0  0  2  0  0  0  0  0  0
  161.0950  202.2050  148.5400 C   0  0  0  0  0  1  0  0  0  0  0  0
  162.3750  206.3750  147.1320 O   0  0  0  0  0  0  0  0  0  0  0  0
  162.2950  205.8280  145.8510 C   0  0  2  0  0  3  0  0  0  0  0  0
  161.2190  204.7590  145.8210 C   0  0  2  0  0  3  0  0  0  0  0  0
  162.6660  204.3580  145.9060 C   0  0  1  0  0  3  0  0  0  0  0  0
  161.7260  203.5930  144.9950 C   0  0  0  0  0  2  0  0  0  0  0  0
  162.0580  210.6960  150.1030 C   0  0  0  0  0  2  0  0  0  0  0  0
  161.6190  211.3840  148.8190 C   0  0  0  0  0  2  0  0  0  0  0  0
  162.6760  212.1400  148.3130 O   0  0  0  0  0  1  0  0  0  0  0  0
  1  8  1  0  0  0  0
  2  5  1  0  0  0  0
  2  4  1  0  0  0  0
  3  1  1  1  0  0  0
  6 28  1  1  0  0  0
  6 12  1  0  0  0  0
  7  4  2  0  0  0  0
  8  2  2  0  0  0  0
  9 10  1  6  0  0  0
  9  3  1  0  0  0  0
  9  6  1  0  0  0  0
 11  7  1  0  0  0  0
 12  8  1  0  0  0  0
 12 11  2  0  0  0  0
 13  3  1  0  0  0  0
 13 17  1  1  0  0  0
 14 13  1  0  0  0  0
 15 23  1  6  0  0  0
 15 14  1  0  0  0  0
 15 13  1  0  0  0  0
 17 18  1  0  0  0  0
 17 16  2  0  0  0  0
 18 21  1  6  0  0  0
 18 19  1  0  0  0  0
 19 20  1  0  0  0  0
 22 21  1  0  0  0  0
 24 26  1  0  0  0  0
 24 23  1  1  0  0  0
 25 27  1  6  0  0  0
 25 24  1  0  0  0  0
 25 26  1  0  0  0  0
 26 27  1  6  0  0  0
 29 28  1  0  0  0  0
 30 29  1  0  0  0  0
M  END
>  <MODEL>
6

>  <REMARK>
 VINA RESULT:      -2.7      4.839      8.181
  Name = 
  9 active torsions:
  status: ('A' for Active; 'I' for Inactive)
    1  A    between atoms: C_3  and  C_11
    2  A    between atoms: C_3  and  C_19
    3  A    between atoms: N_4  and  C_13
    4  A    between atoms: O_5  and  C_12
    5  A    between atoms: C_7  and  O_16
    6  A    between atoms: C_8  and  C_12
    7  A    between atoms: C_8  and  C_13
    8  A    between atoms: C_9  and  C_12
    9  A    between atoms: O_16  and  C_30
                            x       y       z     vdW  Elec       q    Type
                         _______ _______ _______ _____ _____    ______ ____

>  <TORSDO>
F 9

$$$$
=
 OpenBabel11052421563D

 30 34  0  0  1  0  0  0  0  0999 V2000
  158.9580  209.9730  153.1320 C   0  0  0  0  0  2  0  0  0  0  0  0
  160.9260  208.7750  152.0980 C   0  0  0  0  0  0  0  0  0  0  0  0
  158.6840  211.2670  153.7680 N   0  0  2  0  0  0  0  0  0  0  0  0
  162.0940  208.7800  151.3300 C   0  0  0  0  0  3  0  0  0  0  0  0
  160.4670  207.4850  152.6890 C   0  0  0  0  0  1  0  0  0  0  0  0
  159.9810  212.4870  151.9700 C   0  0  1  0  0  3  0  0  0  0  0  0
  162.5630  209.9680  150.7700 C   0  0  0  0  0  3  0  0  0  0  0  0
  160.2170  209.9750  152.3090 C   0  0  0  0  0  0  0  0  0  0  0  0
  158.6780  212.3570  152.7770 C   0  0  2  0  0  3  0  0  0  0  0  0
  158.2550  213.6860  153.3910 C   0  0  0  0  0  1  0  0  0  0  0  0
  161.8600  211.1560  150.9670 C   0  0  0  0  0  3  0  0  0  0  0  0
  160.6750  211.1700  151.7140 C   0  0  0  0  0  0  0  0  0  0  0  0
  159.5090  211.4830  154.9770 C   0  0  1  0  0  0  0  0  0  0  0  0
  159.4150  212.7990  155.4640 O   0  0  0  0  0  0  0  0  0  0  0  0
  158.7850  211.7990  156.2380 C   0  0  1  0  0  3  0  0  0  0  0  0
  161.8300  211.3860  154.5450 O   0  0  0  0  0  0  0  0  0  0  0  0
  160.8810  210.8820  155.1280 C   0  0  0  0  0  0  0  0  0  0  0  0
  161.0750  209.6330  155.9390 C   0  0  1  0  0  3  0  0  0  0  0  0
  161.4460  209.9710  157.2440 O   0  0  0  0  0  0  0  0  0  0  0  0
  162.8420  209.9670  157.2350 C   0  0  0  0  0  1  0  0  0  0  0  0
  159.7990  208.8030  155.9610 C   0  0  0  0  0  2  0  0  0  0  0  0
  160.1190  207.3540  156.2710 C   0  0  0  0  0  1  0  0  0  0  0  0
  157.4030  211.8660  156.0410 O   0  0  0  0  0  0  0  0  0  0  0  0
  156.9740  212.8850  156.8930 C   0  0  2  0  0  3  0  0  0  0  0  0
  155.4970  212.7100  157.1920 C   0  0  2  0  0  3  0  0  0  0  0  0
  155.9370  213.7340  156.1820 C   0  0  1  0  0  3  0  0  0  0  0  0
  154.8400  214.0760  157.1710 C   0  0  0  0  0  2  0  0  0  0  0  0
  159.7540  213.2830  150.6800 C   0  0  0  0  0  2  0  0  0  0  0  0
  158.3040  213.2310  150.2220 C   0  0  0  0  0  2  0  0  0  0  0  0
  158.0300  214.3410  149.4240 O   0  0  0  0  0  1  0  0  0  0  0  0
  2  8  1  0  0  0  0
  2  5  1  0  0  0  0
  3  1  1  6  0  0  0
  3 13  1  0  0  0  0
  4  2  2  0  0  0  0
  6 28  1  6  0  0  0
  6  9  1  0  0  0  0
  7 11  2  0  0  0  0
  7  4  1  0  0  0  0
  8  1  1  0  0  0  0
  9 10  1  1  0  0  0
  9  3  1  0  0  0  0
 11 12  1  0  0  0  0
 12  6  1  0  0  0  0
 12  8  2  0  0  0  0
 13 17  1  1  0  0  0
 13 14  1  0  0  0  0
 13 15  1  0  0  0  0
 14 15  1  0  0  0  0
 15 23  1  6  0  0  0
 16 17  2  0  0  0  0
 17 18  1  0  0  0  0
 18 21  1  1  0  0  0
 18 19  1  0  0  0  0
 20 19  1  0  0  0  0
 21 22  1  0  0  0  0
 24 23  1  6  0  0  0
 24 25  1  0  0  0  0
 25 27  1  1  0  0  0
 26 24  1  0  0  0  0
 26 27  1  1  0  0  0
 26 25  1  0  0  0  0
 29 28  1  0  0  0  0
 30 29  1  0  0  0  0
M  END
>  <MODEL>
7

>  <REMARK>
 VINA RESULT:      -2.3      1.754      5.710
  Name = 
  9 active torsions:
  status: ('A' for Active; 'I' for Inactive)
    1  A    between atoms: C_3  and  C_11
    2  A    between atoms: C_3  and  C_19
    3  A    between atoms: N_4  and  C_13
    4  A    between atoms: O_5  and  C_12
    5  A    between atoms: C_7  and  O_16
    6  A    between atoms: C_8  and  C_12
    7  A    between atoms: C_8  and  C_13
    8  A    between atoms: C_9  and  C_12
    9  A    between atoms: O_16  and  C_30
                            x       y       z     vdW  Elec       q    Type
                         _______ _______ _______ _____ _____    ______ ____

>  <TORSDO>
F 9

$$$$
=
 OpenBabel11052421563D

 30 34  0  0  1  0  0  0  0  0999 V2000
  160.0240  205.7400  149.7760 C   0  0  0  0  0  2  0  0  0  0  0  0
  160.3680  203.2650  149.4140 C   0  0  0  0  0  0  0  0  0  0  0  0
  160.8340  206.9640  149.7610 N   0  0  2  0  0  0  0  0  0  0  0  0
  160.9740  202.2010  148.7400 C   0  0  0  0  0  3  0  0  0  0  0  0
  159.4100  202.9580  150.5150 C   0  0  0  0  0  1  0  0  0  0  0  0
  161.9800  206.2450  147.6230 C   0  0  1  0  0  3  0  0  0  0  0  0
  161.8840  202.4450  147.7120 C   0  0  0  0  0  3  0  0  0  0  0  0
  160.6770  204.5920  149.0550 C   0  0  0  0  0  0  0  0  0  0  0  0
  161.2110  207.3370  148.3870 C   0  0  2  0  0  3  0  0  0  0  0  0
  161.9280  208.6790  148.3340 C   0  0  0  0  0  1  0  0  0  0  0  0
  162.1860  203.7570  147.3470 C   0  0  0  0  0  3  0  0  0  0  0  0
  161.5730  204.8380  147.9940 C   0  0  0  0  0  0  0  0  0  0  0  0
  161.9290  206.9240  150.7550 C   0  0  1  0  0  0  0  0  0  0  0  0
  163.0770  207.6100  150.3180 O   0  0  0  0  0  0  0  0  0  0  0  0
  162.3400  208.2220  151.3560 C   0  0  1  0  0  3  0  0  0  0  0  0
  162.9530  204.8210  151.0850 O   0  0  0  0  0  0  0  0  0  0  0  0
  162.2360  205.6900  151.5600 C   0  0  0  0  0  0  0  0  0  0  0  0
  161.6140  205.4950  152.9130 C   0  0  1  0  0  3  0  0  0  0  0  0
  160.7840  206.5800  153.2110 O   0  0  0  0  0  0  0  0  0  0  0  0
  161.0370  206.8680  154.5540 C   0  0  0  0  0  1  0  0  0  0  0  0
  160.8120  204.2020  152.9550 C   0  0  0  0  0  2  0  0  0  0  0  0
  161.6270  203.0580  152.3860 C   0  0  0  0  0  1  0  0  0  0  0  0
  161.6080  209.2920  150.8330 O   0  0  0  0  0  0  0  0  0  0  0  0
  161.6710  210.2780  151.8180 C   0  0  2  0  0  3  0  0  0  0  0  0
  160.5050  210.1160  152.7740 C   0  0  2  0  0  3  0  0  0  0  0  0
  160.4540  211.1780  151.7100 C   0  0  1  0  0  3  0  0  0  0  0  0
  159.9670  211.4930  153.1110 C   0  0  0  0  0  2  0  0  0  0  0  0
  161.9240  206.4850  146.1100 C   0  0  0  0  0  2  0  0  0  0  0  0
  160.5380  206.2240  145.5400 C   0  0  0  0  0  2  0  0  0  0  0  0
  160.6070  205.1860  144.6110 O   0  0  0  0  0  1  0  0  0  0  0  0
  2  5  1  0  0  0  0
  3  1  1  6  0  0  0
  3 13  1  0  0  0  0
  4  2  2  0  0  0  0
  6 28  1  6  0  0  0
  6 12  1  0  0  0  0
  6  9  1  0  0  0  0
  7  4  1  0  0  0  0
  8  2  1  0  0  0  0
  8  1  1  0  0  0  0
  9 10  1  1  0  0  0
  9  3  1  0  0  0  0
 11  7  2  0  0  0  0
 11 12  1  0  0  0  0
 12  8  2  0  0  0  0
 13 15  1  0  0  0  0
 13 17  1  1  0  0  0
 14 13  1  0  0  0  0
 14 15  1  0  0  0  0
 15 23  1  6  0  0  0
 16 17  2  0  0  0  0
 17 18  1  0  0  0  0
 18 21  1  6  0  0  0
 18 19  1  0  0  0  0
 19 20  1  0  0  0  0
 22 21  1  0  0  0  0
 24 23  1  6  0  0  0
 24 25  1  0  0  0  0
 25 27  1  1  0  0  0
 26 24  1  0  0  0  0
 26 25  1  0  0  0  0
 26 27  1  1  0  0  0
 29 28  1  0  0  0  0
 30 29  1  0  0  0  0
M  END
>  <MODEL>
8

>  <REMARK>
 VINA RESULT:      -2.2      4.923      8.236
  Name = 
  9 active torsions:
  status: ('A' for Active; 'I' for Inactive)
    1  A    between atoms: C_3  and  C_11
    2  A    between atoms: C_3  and  C_19
    3  A    between atoms: N_4  and  C_13
    4  A    between atoms: O_5  and  C_12
    5  A    between atoms: C_7  and  O_16
    6  A    between atoms: C_8  and  C_12
    7  A    between atoms: C_8  and  C_13
    8  A    between atoms: C_9  and  C_12
    9  A    between atoms: O_16  and  C_30
                            x       y       z     vdW  Elec       q    Type
                         _______ _______ _______ _____ _____    ______ ____

>  <TORSDO>
F 9

$$$$
=
 OpenBabel11052421563D

 30 34  0  0  1  0  0  0  0  0999 V2000
  162.5820  210.5030  153.8990 C   0  0  0  0  0  2  0  0  0  0  0  0
  161.8040  210.8180  156.2800 C   0  0  0  0  0  0  0  0  0  0  0  0
  161.9880  210.1960  152.5930 N   0  0  2  0  0  0  0  0  0  0  0  0
  160.8690  211.2840  157.2090 C   0  0  0  0  0  3  0  0  0  0  0  0
  163.0230  210.1220  156.7840 C   0  0  0  0  0  1  0  0  0  0  0  0
  160.1080  211.8400  152.9990 C   0  0  1  0  0  3  0  0  0  0  0  0
  159.7110  211.9300  156.7790 C   0  0  0  0  0  3  0  0  0  0  0  0
  161.5760  211.0000  154.9020 C   0  0  0  0  0  0  0  0  0  0  0  0
  161.2290  211.3440  152.0680 C   0  0  2  0  0  3  0  0  0  0  0  0
  160.7250  211.0990  150.6520 C   0  0  0  0  0  1  0  0  0  0  0  0
  159.4850  212.1220  155.4160 C   0  0  0  0  0  3  0  0  0  0  0  0
  160.4200  211.6830  154.4690 C   0  0  0  0  0  0  0  0  0  0  0  0
  161.2920  208.8900  152.5860 C   0  0  1  0  0  0  0  0  0  0  0  0
  160.4440  208.7390  151.4740 O   0  0  0  0  0  0  0  0  0  0  0  0
  161.6210  207.9580  151.4740 C   0  0  1  0  0  3  0  0  0  0  0  0
  159.7240  208.6980  154.3420 O   0  0  0  0  0  0  0  0  0  0  0  0
  160.7530  208.2640  153.8440 C   0  0  0  0  0  0  0  0  0  0  0  0
  161.5060  207.1560  154.5210 C   0  0  1  0  0  3  0  0  0  0  0  0
  161.6260  207.4320  155.8870 O   0  0  0  0  0  0  0  0  0  0  0  0
  160.4430  206.9580  156.4560 C   0  0  0  0  0  1  0  0  0  0  0  0
  160.7970  205.8240  154.3230 C   0  0  0  0  0  2  0  0  0  0  0  0
  161.2910  205.1470  153.0600 C   0  0  0  0  0  1  0  0  0  0  0  0
  162.5440  208.5150  150.5840 O   0  0  0  0  0  0  0  0  0  0  0  0
  161.9620  208.3530  149.3260 C   0  0  2  0  0  3  0  0  0  0  0  0
  161.3970  206.9500  149.2040 C   0  0  2  0  0  3  0  0  0  0  0  0
  162.7130  207.2830  148.5570 C   0  0  1  0  0  3  0  0  0  0  0  0
  161.7040  206.4310  147.8130 C   0  0  0  0  0  2  0  0  0  0  0  0
  159.6890  213.2710  152.6450 C   0  0  0  0  0  2  0  0  0  0  0  0
  158.2770  213.3320  152.0810 C   0  0  0  0  0  2  0  0  0  0  0  0
  157.3820  213.6350  153.1060 O   0  0  0  0  0  1  0  0  0  0  0  0
  1  8  1  0  0  0  0
  2  5  1  0  0  0  0
  2  4  1  0  0  0  0
  3  1  1  1  0  0  0
  6 28  1  1  0  0  0
  6 12  1  0  0  0  0
  7  4  2  0  0  0  0
  8  2  2  0  0  0  0
  9 10  1  6  0  0  0
  9  3  1  0  0  0  0
  9  6  1  0  0  0  0
 11  7  1  0  0  0  0
 12  8  1  0  0  0  0
 12 11  2  0  0  0  0
 13  3  1  0  0  0  0
 13 17  1  1  0  0  0
 14 15  1  0  0  0  0
 14 13  1  0  0  0  0
 15 23  1  6  0  0  0
 15 13  1  0  0  0  0
 17 16  2  0  0  0  0
 17 18  1  0  0  0  0
 18 21  1  1  0  0  0
 18 19  1  0  0  0  0
 19 20  1  0  0  0  0
 22 21  1  0  0  0  0
 24 23  1  1  0  0  0
 25 27  1  6  0  0  0
 25 24  1  0  0  0  0
 26 27  1  6  0  0  0
 26 25  1  0  0  0  0
 26 24  1  0  0  0  0
 29 28  1  0  0  0  0
 29 30  1  0  0  0  0
M  END
>  <MODEL>
9

>  <REMARK>
 VINA RESULT:      -2.1      2.280      5.748
  Name = 
  9 active torsions:
  status: ('A' for Active; 'I' for Inactive)
    1  A    between atoms: C_3  and  C_11
    2  A    between atoms: C_3  and  C_19
    3  A    between atoms: N_4  and  C_13
    4  A    between atoms: O_5  and  C_12
    5  A    between atoms: C_7  and  O_16
    6  A    between atoms: C_8  and  C_12
    7  A    between atoms: C_8  and  C_13
    8  A    between atoms: C_9  and  C_12
    9  A    between atoms: O_16  and  C_30
                            x       y       z     vdW  Elec       q    Type
                         _______ _______ _______ _____ _____    ______ ____

>  <TORSDO>
F 9

$$$$
