=
 OpenBabel11052422033D

 30 32  0  0  1  0  0  0  0  0999 V2000
  157.9630  210.0140  155.6080 C   0  0  1  0  0  3  0  0  0  0  0  0
  155.8310  211.9990  157.0370 C   0  0  0  0  0  2  0  0  0  0  0  0
  160.1280  214.3050  156.5900 C   0  0  0  0  0  1  0  0  0  0  0  0
  158.9190  209.8940  154.3940 C   0  0  2  0  0  3  0  0  0  0  0  0
  158.6650  210.6520  156.7310 N   0  0  0  0  0  2  0  0  0  0  0  0
  160.7580  209.8280  156.1390 C   0  0  2  0  0  3  0  0  0  0  0  0
  160.1570  210.8740  152.4020 C   0  0  0  0  0  2  0  0  0  0  0  0
  160.5650  213.0430  154.0120 O   0  0  0  0  0  0  0  0  0  0  0  0
  159.7040  209.8000  157.1520 N   0  0  0  0  0  2  0  0  0  0  0  0
  160.2200  209.1970  154.8490 C   0  0  2  0  0  3  0  0  0  0  0  0
  155.7170  213.1520  156.0440 C   0  0  0  0  0  2  0  0  0  0  0  0
  161.4720  210.3760  152.9870 C   0  0  2  0  0  3  0  0  0  0  0  0
  155.8940  210.6600  156.3060 C   0  0  0  0  0  2  0  0  0  0  0  0
  158.5840  212.9700  155.2370 N   0  0  0  0  0  2  0  0  0  0  0  0
  156.2800  214.4480  156.6200 C   0  0  0  0  0  2  0  0  0  0  0  0
  156.8120  210.7350  155.2490 O   0  0  0  0  0  0  0  0  0  0  0  0
  157.8290  211.4450  152.7390 C   0  0  0  0  0  1  0  0  0  0  0  0
  159.4890  212.4330  154.2640 C   0  0  0  0  0  0  0  0  0  0  0  0
  159.1190  211.1700  153.4960 C   0  0  1  0  0  0  0  0  0  0  0  0
  162.5310  210.2630  151.9060 C   0  0  0  0  0  1  0  0  0  0  0  0
  158.7470  214.2290  155.9610 C   0  0  1  0  0  3  0  0  0  0  0  0
  157.7280  214.3080  157.0930 C   0  0  0  0  0  2  0  0  0  0  0  0
  161.2740  209.0590  153.7430 C   0  0  2  0  0  3  0  0  0  0  0  0
  160.8530  206.6790  153.3880 C   0  0  0  0  0  2  0  0  0  0  0  0
  160.7880  208.0540  151.4890 O   0  0  0  0  0  1  0  0  0  0  0  0
  160.9670  207.8860  152.8570 C   0  0  0  0  0  0  0  0  0  0  0  0
  161.9880  209.0910  156.6630 C   0  0  0  0  0  2  0  0  0  0  0  0
  162.8880  209.9850  157.2520 O   0  0  0  0  0  0  0  0  0  0  0  0
  163.3380  210.7190  156.2540 O   0  0  0  0  0  0  0  0  0  0  0  0
  164.4060  211.4380  156.7920 C   0  0  0  0  0  1  0  0  0  0  0  0
  1 16  1  6  0  0  0
  1  5  1  0  0  0  0
  4 10  1  0  0  0  0
  4  1  1  0  0  0  0
  5  9  1  0  0  0  0
  6 27  1  0  0  0  0
  6  9  1  0  0  0  0
  7 12  1  0  0  0  0
  7 19  1  0  0  0  0
  8 18  2  0  0  0  0
 10  6  1  0  0  0  0
 11 15  1  0  0  0  0
 11  2  1  0  0  0  0
 12 23  1  0  0  0  0
 13  2  1  0  0  0  0
 14 21  1  0  0  0  0
 15 22  1  0  0  0  0
 16 13  1  0  0  0  0
 17 19  1  0  0  0  0
 18 14  1  0  0  0  0
 19 18  1  0  0  0  0
 19  4  1  0  0  0  0
 20 12  1  0  0  0  0
 21  3  1  0  0  0  0
 21 22  1  0  0  0  0
 23 10  1  0  0  0  0
 25 26  1  0  0  0  0
 26 24  2  0  0  0  0
 26 23  1  0  0  0  0
 27 28  1  0  0  0  0
 29 30  1  0  0  0  0
 29 28  1  0  0  0  0
M  END
>  <MODEL>
1

>  <REMARK>
 VINA RESULT:      -2.1      0.000      0.000
  Name = 
  4 active torsions:
  status: ('A' for Active; 'I' for Inactive)
    1  A    between atoms: C_6  and  C_8
    2  A    between atoms: C_6  and  O_21
    3  A    between atoms: O_9  and  O_21
    4  A    between atoms: C_27  and  C_30
                            x       y       z     vdW  Elec       q    Type
                         _______ _______ _______ _____ _____    ______ ____

>  <TORSDO>
F 4

$$$$
=
 OpenBabel11052422033D

 30 32  0  0  1  0  0  0  0  0999 V2000
  161.7870  210.8490  152.8730 C   0  0  1  0  0  3  0  0  0  0  0  0
  162.6700  208.6500  150.6560 C   0  0  0  0  0  2  0  0  0  0  0  0
  161.2840  206.3440  154.7480 C   0  0  0  0  0  1  0  0  0  0  0  0
  160.6120  211.2800  153.7860 C   0  0  2  0  0  3  0  0  0  0  0  0
  162.6190  209.8550  153.5680 N   0  0  0  0  0  2  0  0  0  0  0  0
  162.1800  210.6960  155.6920 C   0  0  2  0  0  3  0  0  0  0  0  0
  158.3450  210.8900  154.8680 C   0  0  0  0  0  2  0  0  0  0  0  0
  159.1910  208.3100  155.1760 O   0  0  0  0  0  0  0  0  0  0  0  0
  163.2160  210.4730  154.6830 N   0  0  0  0  0  2  0  0  0  0  0  0
  161.1790  211.7250  155.1520 C   0  0  2  0  0  3  0  0  0  0  0  0
  161.3820  207.8680  150.4170 C   0  0  0  0  0  2  0  0  0  0  0  0
  158.9740  211.1040  156.2390 C   0  0  2  0  0  3  0  0  0  0  0  0
  162.3790  210.1430  150.7900 C   0  0  0  0  0  2  0  0  0  0  0  0
  160.4970  208.1190  153.2560 N   0  0  0  0  0  2  0  0  0  0  0  0
  161.5000  206.4260  150.9040 C   0  0  0  0  0  2  0  0  0  0  0  0
  161.2960  210.3420  151.6580 O   0  0  0  0  0  0  0  0  0  0  0  0
  158.6320  210.3810  152.5190 C   0  0  0  0  0  1  0  0  0  0  0  0
  159.6810  208.8760  154.1600 C   0  0  0  0  0  0  0  0  0  0  0  0
  159.3580  210.3330  153.8550 C   0  0  1  0  0  0  0  0  0  0  0  0
  157.9170  211.4820  157.2600 C   0  0  0  0  0  1  0  0  0  0  0  0
  160.7920  206.6910  153.3530 C   0  0  1  0  0  3  0  0  0  0  0  0
  161.9050  206.3280  152.3750 C   0  0  0  0  0  2  0  0  0  0  0  0
  160.1060  212.1340  156.1690 C   0  0  2  0  0  3  0  0  0  0  0  0
  159.7760  214.4530  156.8650 C   0  0  0  0  0  2  0  0  0  0  0  0
  159.0770  213.8940  154.6960 O   0  0  0  0  0  1  0  0  0  0  0  0
  159.6390  213.5390  155.9160 C   0  0  0  0  0  0  0  0  0  0  0  0
  162.8280  211.1620  156.9930 C   0  0  0  0  0  2  0  0  0  0  0  0
  164.2230  211.1050  156.9010 O   0  0  0  0  0  0  0  0  0  0  0  0
  164.6350  212.3050  157.2600 O   0  0  0  0  0  0  0  0  0  0  0  0
  166.0010  212.3140  156.9730 C   0  0  0  0  0  1  0  0  0  0  0  0
  1 16  1  6  0  0  0
  1  5  1  0  0  0  0
  1  4  1  0  0  0  0
  2 13  1  0  0  0  0
  4 19  1  0  0  0  0
  4 10  1  0  0  0  0
  5  9  1  0  0  0  0
  6 27  1  0  0  0  0
  7 12  1  0  0  0  0
  9  6  1  0  0  0  0
 10  6  1  0  0  0  0
 10 23  1  0  0  0  0
 11  2  1  0  0  0  0
 11 15  1  0  0  0  0
 12 20  1  0  0  0  0
 13 16  1  0  0  0  0
 14 21  1  0  0  0  0
 14 18  1  0  0  0  0
 15 22  1  0  0  0  0
 17 19  1  0  0  0  0
 18  8  2  0  0  0  0
 19 18  1  0  0  0  0
 19  7  1  0  0  0  0
 21  3  1  0  0  0  0
 22 21  1  0  0  0  0
 23 12  1  0  0  0  0
 25 26  1  0  0  0  0
 26 23  1  0  0  0  0
 26 24  2  0  0  0  0
 28 27  1  0  0  0  0
 28 29  1  0  0  0  0
 30 29  1  0  0  0  0
M  END
>  <MODEL>
2

>  <REMARK>
 VINA RESULT:      -1.3      2.285      6.031
  Name = 
  4 active torsions:
  status: ('A' for Active; 'I' for Inactive)
    1  A    between atoms: C_6  and  C_8
    2  A    between atoms: C_6  and  O_21
    3  A    between atoms: O_9  and  O_21
    4  A    between atoms: C_27  and  C_30
                            x       y       z     vdW  Elec       q    Type
                         _______ _______ _______ _____ _____    ______ ____

>  <TORSDO>
F 4

$$$$
