=
 OpenBabel11062410293D

 43 50  0  0  1  0  0  0  0  0999 V2000
  159.4330  212.9470  149.6990 C   0  0  0  0  0  0  0  0  0  0  0  0
  159.8010  214.3880  144.9800 C   0  0  1  0  0  3  0  0  0  0  0  0
  160.6630  212.1180  146.7330 O   0  0  0  0  0  0  0  0  0  0  0  0
  161.3580  211.3780  149.5160 C   0  0  2  0  0  3  0  0  0  0  0  0
  157.5810  213.5050  145.7240 C   0  0  0  0  0  2  0  0  0  0  0  0
  161.1920  213.7860  144.7200 C   0  0  1  0  0  3  0  0  0  0  0  0
  161.7790  214.4530  143.6450 O   0  0  0  0  0  1  0  0  0  0  0  0
  161.9940  212.6370  146.8200 C   0  0  1  0  0  3  0  0  0  0  0  0
  158.7720  213.2770  144.8140 C   0  0  2  0  0  3  0  0  0  0  0  0
  162.1160  213.8790  145.9320 C   0  0  0  0  0  2  0  0  0  0  0  0
  162.5880  211.9590  149.1310 O   0  0  0  0  0  0  0  0  0  0  0  0
  162.3380  213.0470  148.2680 C   0  0  0  0  0  2  0  0  0  0  0  0
  159.5820  212.9110  147.1170 C   0  0  0  0  0  0  0  0  0  0  0  0
  159.3520  212.9760  148.3940 C   0  0  0  0  0  0  0  0  0  0  0  0
  160.5390  212.2910  150.2700 O   0  0  0  0  0  0  0  0  0  0  0  0
  158.9660  213.9090  146.1800 C   0  0  1  0  0  0  0  0  0  0  0  0
  158.2040  214.2050  152.9860 C   0  0  0  0  0  3  0  0  0  0  0  0
  155.9350  214.4530  152.1490 N   0  0  0  0  0  0  0  0  0  0  0  0
  156.3340  213.9030  154.3590 F   0  0  0  0  0  0  0  0  0  0  0  0
  157.1810  213.7990  150.1320 C   0  0  0  0  0  3  0  0  0  0  0  0
  158.9290  214.1110  151.8760 C   0  0  0  0  0  3  0  0  0  0  0  0
  158.4400  213.6080  150.5730 C   0  0  0  0  0  0  0  0  0  0  0  0
  156.7950  213.7250  153.0700 C   0  0  2  0  0  3  0  0  0  0  0  0
  156.0730  214.4520  150.8590 C   0  0  0  0  0  3  0  0  0  0  0  0
  161.5720  210.0960  150.3290 C   0  0  2  0  0  3  0  0  0  0  0  0
  162.7340  210.2490  151.2980 C   0  0  0  0  0  1  0  0  0  0  0  0
  161.8870  208.9340  149.3950 C   0  0  2  0  0  3  0  0  0  0  0  0
  161.4080  207.6180  149.9890 C   0  0  2  0  0  3  0  0  0  0  0  0
  162.8750  207.9900  150.0570 C   0  0  0  0  0  2  0  0  0  0  0  0
  161.1730  206.6310  148.8600 C   0  0  0  0  0  2  0  0  0  0  0  0
  161.5880  205.2980  149.2760 N   0  0  0  0  0  0  0  0  0  0  0  0
  160.2360  203.5550  150.2760 C   0  0  0  0  0  2  0  0  0  0  0  0
  161.1630  204.3680  148.2410 C   0  0  0  0  0  2  0  0  0  0  0  0
  160.8090  204.9560  150.4590 C   0  0  1  0  0  3  0  0  0  0  0  0
  160.7530  203.0960  148.9360 C   0  0  0  0  0  2  0  0  0  0  0  0
  161.6730  205.0790  151.7130 C   0  0  2  0  0  3  0  0  0  0  0  0
  162.3140  203.8700  152.0140 O   0  0  0  0  0  1  0  0  0  0  0  0
  160.8480  205.6500  152.8730 C   0  0  1  0  0  3  0  0  0  0  0  0
  161.6550  206.5250  153.8180 C   0  0  1  0  0  3  0  0  0  0  0  0
  160.7560  207.1560  152.7700 C   0  0  0  0  0  2  0  0  0  0  0  0
  160.9560  206.5600  155.1600 C   0  0  0  0  0  2  0  0  0  0  0  0
  160.4180  207.9530  155.4240 C   0  0  0  0  0  2  0  0  0  0  0  0
  160.1760  208.1220  156.9090 C   0  0  0  0  0  1  0  0  0  0  0  0
  1 15  1  0  0  0  0
  1 22  1  0  0  0  0
  2 16  1  0  0  0  0
  3  8  1  0  0  0  0
  3 13  1  0  0  0  0
  4 15  1  0  0  0  0
  4 25  1  0  0  0  0
  5 16  1  0  0  0  0
  6  2  1  0  0  0  0
  6 10  1  0  0  0  0
  7  6  1  0  0  0  0
  8 12  1  0  0  0  0
  9  2  1  0  0  0  0
  9  5  1  0  0  0  0
  9 16  1  0  0  0  0
 10  8  1  0  0  0  0
 11  4  1  0  0  0  0
 12 11  1  0  0  0  0
 13 14  2  0  0  0  0
 14  1  2  0  0  0  0
 16 13  1  0  0  0  0
 17 23  1  0  0  0  0
 18 23  1  0  0  0  0
 20 22  2  0  0  0  0
 20 24  1  0  0  0  0
 21 17  2  0  0  0  0
 22 21  1  0  0  0  0
 23 19  1  0  0  0  0
 24 18  2  0  0  0  0
 25 26  1  0  0  0  0
 27 28  1  0  0  0  0
 27 29  1  0  0  0  0
 27 25  1  0  0  0  0
 28 29  1  0  0  0  0
 30 31  1  0  0  0  0
 30 28  1  0  0  0  0
 31 34  1  0  0  0  0
 32 34  1  0  0  0  0
 33 35  1  0  0  0  0
 33 31  1  0  0  0  0
 34 36  1  0  0  0  0
 35 32  1  0  0  0  0
 36 37  1  0  0  0  0
 36 38  1  0  0  0  0
 38 39  1  0  0  0  0
 39 41  1  0  0  0  0
 40 38  1  0  0  0  0
 40 39  1  0  0  0  0
 41 42  1  0  0  0  0
 42 43  1  0  0  0  0
M  END
>  <MODEL>
1

>  <REMARK>
 VINA RESULT:      -6.2      0.000      0.000
  Name = 
  9 active torsions:
  status: ('A' for Active; 'I' for Inactive)
    1  A    between atoms: C_1  and  C_35
    2  A    between atoms: C_2  and  C_6
    3  A    between atoms: C_2  and  C_13
    4  A    between atoms: C_3  and  N_4
    5  A    between atoms: C_3  and  C_12
    6  A    between atoms: C_11  and  C_14
    7  A    between atoms: C_14  and  C_22
    8  A    between atoms: C_26  and  C_29
    9  A    between atoms: C_29  and  C_36
                            x       y       z     vdW  Elec       q    Type
                         _______ _______ _______ _____ _____    ______ ____

>  <TORSDO>
F 9

$$$$
=
 OpenBabel11062410293D

 43 50  0  0  1  0  0  0  0  0999 V2000
  160.7670  210.5240  153.2030 C   0  0  0  0  0  0  0  0  0  0  0  0
  161.0480  213.6210  149.3540 C   0  0  1  0  0  3  0  0  0  0  0  0
  160.6180  210.7060  149.8950 O   0  0  0  0  0  0  0  0  0  0  0  0
  161.2120  208.5160  151.7990 C   0  0  2  0  0  3  0  0  0  0  0  0
  158.9550  213.7040  150.7250 C   0  0  0  0  0  2  0  0  0  0  0  0
  161.6770  212.6210  148.3690 C   0  0  1  0  0  3  0  0  0  0  0  0
  162.3330  213.3290  147.3630 O   0  0  0  0  0  1  0  0  0  0  0  0
  161.9670  210.3970  149.5310 C   0  0  1  0  0  3  0  0  0  0  0  0
  159.5430  213.3820  149.3640 C   0  0  2  0  0  3  0  0  0  0  0  0
  162.6660  211.6690  149.0390 C   0  0  0  0  0  2  0  0  0  0  0  0
  162.4340  208.5240  151.0880 O   0  0  0  0  0  0  0  0  0  0  0  0
  162.7600  209.8520  150.7380 C   0  0  0  0  0  2  0  0  0  0  0  0
  160.3670  211.6370  150.9030 C   0  0  0  0  0  0  0  0  0  0  0  0
  160.4750  211.1970  152.1210 C   0  0  0  0  0  0  0  0  0  0  0  0
  161.3050  209.2340  153.0440 O   0  0  0  0  0  0  0  0  0  0  0  0
  160.3450  213.1110  150.6240 C   0  0  1  0  0  0  0  0  0  0  0  0
  158.9850  212.5740  155.7560 C   0  0  0  0  0  3  0  0  0  0  0  0
  160.8950  212.5340  157.2590 N   0  0  0  0  0  0  0  0  0  0  0  0
  159.4780  214.3580  157.1860 F   0  0  0  0  0  0  0  0  0  0  0  0
  161.6170  211.0490  155.4360 C   0  0  0  0  0  3  0  0  0  0  0  0
  159.2450  211.5840  154.9070 C   0  0  0  0  0  3  0  0  0  0  0  0
  160.5940  211.0850  154.5600 C   0  0  0  0  0  0  0  0  0  0  0  0
  160.0590  213.3720  156.4140 C   0  0  2  0  0  3  0  0  0  0  0  0
  161.6140  211.5430  156.8280 C   0  0  0  0  0  3  0  0  0  0  0  0
  160.7290  207.0860  152.0710 C   0  0  2  0  0  3  0  0  0  0  0  0
  160.8280  206.7450  153.5490 C   0  0  0  0  0  1  0  0  0  0  0  0
  161.5890  206.0920  151.2990 C   0  0  2  0  0  3  0  0  0  0  0  0
  160.7660  204.8890  150.8660 C   0  0  2  0  0  3  0  0  0  0  0  0
  161.6840  204.7850  152.0660 C   0  0  0  0  0  2  0  0  0  0  0  0
  161.4240  204.2590  149.6510 C   0  0  0  0  0  2  0  0  0  0  0  0
  160.6600  203.0960  149.2220 N   0  0  0  0  0  0  0  0  0  0  0  0
  161.4860  201.0520  148.2190 C   0  0  0  0  0  2  0  0  0  0  0  0
  160.8020  202.0790  150.2530 C   0  0  0  0  0  2  0  0  0  0  0  0
  161.3250  202.5580  148.0420 C   0  0  1  0  0  3  0  0  0  0  0  0
  160.8500  200.7480  149.5510 C   0  0  0  0  0  2  0  0  0  0  0  0
  160.5400  202.9230  146.7830 C   0  0  2  0  0  3  0  0  0  0  0  0
  160.4590  201.8390  145.8980 O   0  0  0  0  0  1  0  0  0  0  0  0
  161.1110  204.1990  146.1510 C   0  0  1  0  0  3  0  0  0  0  0  0
  162.4270  204.6430  146.7660 C   0  0  1  0  0  3  0  0  0  0  0  0
  162.4140  203.9030  145.4410 C   0  0  0  0  0  2  0  0  0  0  0  0
  162.6060  206.1240  146.5080 C   0  0  0  0  0  2  0  0  0  0  0  0
  162.3880  206.9000  147.7930 C   0  0  0  0  0  2  0  0  0  0  0  0
  160.9230  207.2560  147.9190 C   0  0  0  0  0  1  0  0  0  0  0  0
  1 22  1  0  0  0  0
  2  9  1  0  0  0  0
  2 16  1  0  0  0  0
  3 13  1  0  0  0  0
  4 25  1  0  0  0  0
  4 15  1  0  0  0  0
  6 10  1  0  0  0  0
  6  2  1  0  0  0  0
  7  6  1  0  0  0  0
  8  3  1  0  0  0  0
  8 12  1  0  0  0  0
  9 16  1  0  0  0  0
  9  5  1  0  0  0  0
 10  8  1  0  0  0  0
 11  4  1  0  0  0  0
 12 11  1  0  0  0  0
 13 14  2  0  0  0  0
 14  1  2  0  0  0  0
 15  1  1  0  0  0  0
 16  5  1  0  0  0  0
 16 13  1  0  0  0  0
 17 23  1  0  0  0  0
 20 24  1  0  0  0  0
 21 17  2  0  0  0  0
 22 21  1  0  0  0  0
 22 20  2  0  0  0  0
 23 19  1  0  0  0  0
 23 18  1  0  0  0  0
 24 18  2  0  0  0  0
 25 26  1  0  0  0  0
 27 29  1  0  0  0  0
 27 25  1  0  0  0  0
 28 27  1  0  0  0  0
 28 29  1  0  0  0  0
 30 28  1  0  0  0  0
 31 30  1  0  0  0  0
 31 33  1  0  0  0  0
 32 35  1  0  0  0  0
 34 32  1  0  0  0  0
 34 31  1  0  0  0  0
 35 33  1  0  0  0  0
 36 34  1  0  0  0  0
 37 36  1  0  0  0  0
 38 39  1  0  0  0  0
 38 36  1  0  0  0  0
 40 38  1  0  0  0  0
 40 39  1  0  0  0  0
 41 39  1  0  0  0  0
 41 42  1  0  0  0  0
 42 43  1  0  0  0  0
M  END
>  <MODEL>
2

>  <REMARK>
 VINA RESULT:      -6.1      2.728      5.161
  Name = 
  9 active torsions:
  status: ('A' for Active; 'I' for Inactive)
    1  A    between atoms: C_1  and  C_35
    2  A    between atoms: C_2  and  C_6
    3  A    between atoms: C_2  and  C_13
    4  A    between atoms: C_3  and  N_4
    5  A    between atoms: C_3  and  C_12
    6  A    between atoms: C_11  and  C_14
    7  A    between atoms: C_14  and  C_22
    8  A    between atoms: C_26  and  C_29
    9  A    between atoms: C_29  and  C_36
                            x       y       z     vdW  Elec       q    Type
                         _______ _______ _______ _____ _____    ______ ____

>  <TORSDO>
F 9

$$$$
=
 OpenBabel11062410293D

 43 50  0  0  1  0  0  0  0  0999 V2000
  160.2810  211.5930  152.4380 C   0  0  0  0  0  0  0  0  0  0  0  0
  161.1900  213.8830  148.1480 C   0  0  1  0  0  3  0  0  0  0  0  0
  160.8610  211.1020  149.2110 O   0  0  0  0  0  0  0  0  0  0  0  0
  161.1700  209.4150  151.6250 C   0  0  2  0  0  3  0  0  0  0  0  0
  158.8450  213.9890  149.0130 C   0  0  0  0  0  2  0  0  0  0  0  0
  162.0940  212.7900  147.5520 C   0  0  1  0  0  3  0  0  0  0  0  0
  162.9050  213.3580  146.5720 O   0  0  0  0  0  1  0  0  0  0  0  0
  162.2760  210.8870  149.2040 C   0  0  1  0  0  3  0  0  0  0  0  0
  159.7430  213.4770  147.9030 C   0  0  2  0  0  3  0  0  0  0  0  0
  162.9740  212.1100  148.6000 C   0  0  0  0  0  2  0  0  0  0  0  0
  162.5160  209.4260  151.1920 O   0  0  0  0  0  0  0  0  0  0  0  0
  162.8160  210.6870  150.6360 C   0  0  0  0  0  2  0  0  0  0  0  0
  160.3250  212.1770  149.9200 C   0  0  0  0  0  0  0  0  0  0  0  0
  160.1900  212.0020  151.1990 C   0  0  0  0  0  0  0  0  0  0  0  0
  160.9310  210.3690  152.6760 O   0  0  0  0  0  0  0  0  0  0  0  0
  160.2600  213.5550  149.3280 C   0  0  1  0  0  0  0  0  0  0  0  0
  159.3790  212.0750  156.0240 C   0  0  0  0  0  3  0  0  0  0  0  0
  158.1040  214.0850  155.5310 N   0  0  0  0  0  0  0  0  0  0  0  0
  157.4880  212.6800  157.2610 F   0  0  0  0  0  0  0  0  0  0  0  0
  159.0880  213.5270  153.3480 C   0  0  0  0  0  3  0  0  0  0  0  0
  160.1210  211.9100  154.9330 C   0  0  0  0  0  3  0  0  0  0  0  0
  159.7690  212.3860  153.5770 C   0  0  0  0  0  0  0  0  0  0  0  0
  158.0290  212.7070  155.9910 C   0  0  2  0  0  3  0  0  0  0  0  0
  158.5250  214.4450  154.3580 C   0  0  0  0  0  3  0  0  0  0  0  0
  160.7430  208.0200  152.0970 C   0  0  2  0  0  3  0  0  0  0  0  0
  160.7080  207.9400  153.6160 C   0  0  0  0  0  1  0  0  0  0  0  0
  161.7310  206.9750  151.5940 C   0  0  2  0  0  3  0  0  0  0  0  0
  161.1350  206.1770  150.4440 C   0  0  2  0  0  3  0  0  0  0  0  0
  161.1800  205.5810  151.8350 C   0  0  0  0  0  2  0  0  0  0  0  0
  162.2660  205.6170  149.6010 C   0  0  0  0  0  2  0  0  0  0  0  0
  162.2570  206.2400  148.2850 N   0  0  0  0  0  0  0  0  0  0  0  0
  160.4780  206.2340  146.6400 C   0  0  0  0  0  2  0  0  0  0  0  0
  161.4980  207.4760  148.3940 C   0  0  0  0  0  2  0  0  0  0  0  0
  161.4780  205.3750  147.4070 C   0  0  1  0  0  3  0  0  0  0  0  0
  160.7440  207.6440  147.1020 C   0  0  0  0  0  2  0  0  0  0  0  0
  162.4070  204.5870  146.4840 C   0  0  2  0  0  3  0  0  0  0  0  0
  162.2260  204.9530  145.1430 O   0  0  0  0  0  1  0  0  0  0  0  0
  162.2620  203.0820  146.7420 C   0  0  1  0  0  3  0  0  0  0  0  0
  161.0400  202.7250  147.5710 C   0  0  1  0  0  3  0  0  0  0  0  0
  161.0210  202.5440  146.0640 C   0  0  0  0  0  2  0  0  0  0  0  0
  161.2790  201.3830  148.2310 C   0  0  0  0  0  2  0  0  0  0  0  0
  160.3590  201.2270  149.4270 C   0  0  0  0  0  2  0  0  0  0  0  0
  160.3910  202.4960  150.2500 C   0  0  0  0  0  1  0  0  0  0  0  0
  1 15  1  0  0  0  0
  1 22  1  0  0  0  0
  2 16  1  0  0  0  0
  3 13  1  0  0  0  0
  4 25  1  0  0  0  0
  4 15  1  0  0  0  0
  5 16  1  0  0  0  0
  6  2  1  0  0  0  0
  6 10  1  0  0  0  0
  7  6  1  0  0  0  0
  8  3  1  0  0  0  0
  8 12  1  0  0  0  0
  9  2  1  0  0  0  0
  9  5  1  0  0  0  0
  9 16  1  0  0  0  0
 10  8  1  0  0  0  0
 11  4  1  0  0  0  0
 12 11  1  0  0  0  0
 13 14  2  0  0  0  0
 14  1  2  0  0  0  0
 16 13  1  0  0  0  0
 18 23  1  0  0  0  0
 20 22  2  0  0  0  0
 20 24  1  0  0  0  0
 21 17  2  0  0  0  0
 22 21  1  0  0  0  0
 23 17  1  0  0  0  0
 23 19  1  0  0  0  0
 24 18  2  0  0  0  0
 25 26  1  0  0  0  0
 27 29  1  0  0  0  0
 27 25  1  0  0  0  0
 28 27  1  0  0  0  0
 28 29  1  0  0  0  0
 30 28  1  0  0  0  0
 31 33  1  0  0  0  0
 31 30  1  0  0  0  0
 32 35  1  0  0  0  0
 32 34  1  0  0  0  0
 34 31  1  0  0  0  0
 35 33  1  0  0  0  0
 36 38  1  0  0  0  0
 36 34  1  0  0  0  0
 37 36  1  0  0  0  0
 38 39  1  0  0  0  0
 39 41  1  0  0  0  0
 40 38  1  0  0  0  0
 40 39  1  0  0  0  0
 41 42  1  0  0  0  0
 42 43  1  0  0  0  0
M  END
>  <MODEL>
3

>  <REMARK>
 VINA RESULT:      -5.5      2.326      4.492
  Name = 
  9 active torsions:
  status: ('A' for Active; 'I' for Inactive)
    1  A    between atoms: C_1  and  C_35
    2  A    between atoms: C_2  and  C_6
    3  A    between atoms: C_2  and  C_13
    4  A    between atoms: C_3  and  N_4
    5  A    between atoms: C_3  and  C_12
    6  A    between atoms: C_11  and  C_14
    7  A    between atoms: C_14  and  C_22
    8  A    between atoms: C_26  and  C_29
    9  A    between atoms: C_29  and  C_36
                            x       y       z     vdW  Elec       q    Type
                         _______ _______ _______ _____ _____    ______ ____

>  <TORSDO>
F 9

$$$$
=
 OpenBabel11062410293D

 43 50  0  0  1  0  0  0  0  0999 V2000
  160.8670  210.3820  151.6200 C   0  0  0  0  0  0  0  0  0  0  0  0
  160.7970  209.0490  156.3840 C   0  0  1  0  0  3  0  0  0  0  0  0
  162.0150  208.1590  153.7960 O   0  0  0  0  0  0  0  0  0  0  0  0
  161.6360  208.1400  150.8590 C   0  0  2  0  0  3  0  0  0  0  0  0
  162.1570  211.0640  155.7920 C   0  0  0  0  0  2  0  0  0  0  0  0
  160.9150  207.5340  156.1450 C   0  0  1  0  0  3  0  0  0  0  0  0
  160.4200  206.8600  157.2600 O   0  0  0  0  0  1  0  0  0  0  0  0
  161.0570  207.1040  153.6600 C   0  0  1  0  0  3  0  0  0  0  0  0
  162.1970  209.6430  156.3190 C   0  0  2  0  0  3  0  0  0  0  0  0
  160.1600  207.0680  154.9010 C   0  0  0  0  0  2  0  0  0  0  0  0
  160.7930  207.0560  151.1950 O   0  0  0  0  0  0  0  0  0  0  0  0
  160.1580  207.3250  152.4250 C   0  0  0  0  0  2  0  0  0  0  0  0
  161.5810  209.4780  153.9350 C   0  0  0  0  0  0  0  0  0  0  0  0
  161.2420  210.0810  152.8360 C   0  0  0  0  0  0  0  0  0  0  0  0
  160.8980  209.3580  150.6550 O   0  0  0  0  0  0  0  0  0  0  0  0
  161.1770  210.0370  155.2680 C   0  0  1  0  0  0  0  0  0  0  0  0
  158.4570  213.2200  151.8030 C   0  0  0  0  0  3  0  0  0  0  0  0
  159.3680  214.2470  149.7970 N   0  0  0  0  0  0  0  0  0  0  0  0
  157.1270  214.4520  150.3250 F   0  0  0  0  0  0  0  0  0  0  0  0
  160.8860  212.3470  150.1630 C   0  0  0  0  0  3  0  0  0  0  0  0
  159.4050  212.3610  152.1630 C   0  0  0  0  0  3  0  0  0  0  0  0
  160.3800  211.7270  151.2470 C   0  0  0  0  0  0  0  0  0  0  0  0
  158.2070  213.5940  150.3820 C   0  0  2  0  0  3  0  0  0  0  0  0
  160.5310  213.6900  149.6590 C   0  0  0  0  0  3  0  0  0  0  0  0
  162.4710  207.8360  149.6090 C   0  0  2  0  0  3  0  0  0  0  0  0
  162.1000  208.7630  148.4620 C   0  0  0  0  0  1  0  0  0  0  0  0
  162.2240  206.4020  149.1540 C   0  0  2  0  0  3  0  0  0  0  0  0
  162.3440  206.2860  147.6430 C   0  0  2  0  0  3  0  0  0  0  0  0
  160.9760  206.3390  148.2920 C   0  0  0  0  0  2  0  0  0  0  0  0
  162.6970  204.8530  147.2900 C   0  0  0  0  0  2  0  0  0  0  0  0
  162.4140  204.6060  145.8830 N   0  0  0  0  0  0  0  0  0  0  0  0
  160.2870  204.7700  144.7350 C   0  0  0  0  0  2  0  0  0  0  0  0
  162.3220  205.9010  145.2250 C   0  0  0  0  0  2  0  0  0  0  0  0
  161.0760  204.0310  145.8090 C   0  0  1  0  0  3  0  0  0  0  0  0
  161.2510  205.7830  144.1720 C   0  0  0  0  0  2  0  0  0  0  0  0
  161.1630  202.5280  145.5470 C   0  0  2  0  0  3  0  0  0  0  0  0
  159.9780  202.0380  144.9820 O   0  0  0  0  0  1  0  0  0  0  0  0
  161.5960  201.7890  146.8200 C   0  0  1  0  0  3  0  0  0  0  0  0
  160.5050  201.7100  147.8750 C   0  0  1  0  0  3  0  0  0  0  0  0
  160.8010  200.5130  146.9900 C   0  0  0  0  0  2  0  0  0  0  0  0
  161.1540  201.5030  149.2270 C   0  0  0  0  0  2  0  0  0  0  0  0
  160.2870  202.1120  150.3120 C   0  0  0  0  0  2  0  0  0  0  0  0
  160.6290  203.5790  150.4610 C   0  0  0  0  0  1  0  0  0  0  0  0
  1 14  2  0  0  0  0
  3 13  1  0  0  0  0
  4 11  1  0  0  0  0
  5  9  1  0  0  0  0
  6  2  1  0  0  0  0
  6  7  1  0  0  0  0
  8  3  1  0  0  0  0
  8 10  1  0  0  0  0
  9  2  1  0  0  0  0
 10  6  1  0  0  0  0
 11 12  1  0  0  0  0
 12  8  1  0  0  0  0
 13 16  1  0  0  0  0
 14 13  2  0  0  0  0
 15  4  1  0  0  0  0
 15  1  1  0  0  0  0
 16  5  1  0  0  0  0
 16  9  1  0  0  0  0
 16  2  1  0  0  0  0
 17 21  2  0  0  0  0
 18 23  1  0  0  0  0
 19 23  1  0  0  0  0
 20 22  2  0  0  0  0
 22  1  1  0  0  0  0
 22 21  1  0  0  0  0
 23 17  1  0  0  0  0
 24 18  2  0  0  0  0
 24 20  1  0  0  0  0
 25  4  1  0  0  0  0
 26 25  1  0  0  0  0
 27 25  1  0  0  0  0
 28 29  1  0  0  0  0
 28 27  1  0  0  0  0
 29 27  1  0  0  0  0
 30 28  1  0  0  0  0
 31 30  1  0  0  0  0
 32 34  1  0  0  0  0
 33 31  1  0  0  0  0
 34 31  1  0  0  0  0
 35 32  1  0  0  0  0
 35 33  1  0  0  0  0
 36 34  1  0  0  0  0
 36 38  1  0  0  0  0
 37 36  1  0  0  0  0
 38 40  1  0  0  0  0
 38 39  1  0  0  0  0
 39 41  1  0  0  0  0
 40 39  1  0  0  0  0
 41 42  1  0  0  0  0
 42 43  1  0  0  0  0
M  END
>  <MODEL>
4

>  <REMARK>
 VINA RESULT:      -5.4      2.986      7.125
  Name = 
  9 active torsions:
  status: ('A' for Active; 'I' for Inactive)
    1  A    between atoms: C_1  and  C_35
    2  A    between atoms: C_2  and  C_6
    3  A    between atoms: C_2  and  C_13
    4  A    between atoms: C_3  and  N_4
    5  A    between atoms: C_3  and  C_12
    6  A    between atoms: C_11  and  C_14
    7  A    between atoms: C_14  and  C_22
    8  A    between atoms: C_26  and  C_29
    9  A    between atoms: C_29  and  C_36
                            x       y       z     vdW  Elec       q    Type
                         _______ _______ _______ _____ _____    ______ ____

>  <TORSDO>
F 9

$$$$
=
 OpenBabel11062410293D

 43 50  0  0  1  0  0  0  0  0999 V2000
  161.3110  209.7100  151.8520 C   0  0  0  0  0  0  0  0  0  0  0  0
  161.4720  213.9750  149.3480 C   0  0  1  0  0  3  0  0  0  0  0  0
  160.8290  211.0870  148.8740 O   0  0  0  0  0  0  0  0  0  0  0  0
  161.4130  208.3300  149.7820 C   0  0  2  0  0  3  0  0  0  0  0  0
  159.5540  213.6590  150.9250 C   0  0  0  0  0  2  0  0  0  0  0  0
  161.8960  213.3710  147.9980 C   0  0  1  0  0  3  0  0  0  0  0  0
  162.5050  214.3630  147.2310 O   0  0  0  0  0  1  0  0  0  0  0  0
  162.0970  210.8650  148.2480 C   0  0  1  0  0  3  0  0  0  0  0  0
  159.9610  213.8240  149.4730 C   0  0  2  0  0  3  0  0  0  0  0  0
  162.8560  212.1920  148.1500 C   0  0  0  0  0  2  0  0  0  0  0  0
  162.5470  208.5350  148.9640 O   0  0  0  0  0  0  0  0  0  0  0  0
  162.9580  209.8800  149.0670 C   0  0  0  0  0  2  0  0  0  0  0  0
  160.7750  211.6000  150.1700 C   0  0  0  0  0  0  0  0  0  0  0  0
  160.9710  210.7440  151.1270 C   0  0  0  0  0  0  0  0  0  0  0  0
  161.7040  208.5400  151.1760 O   0  0  0  0  0  0  0  0  0  0  0  0
  160.8630  213.0750  150.4370 C   0  0  1  0  0  0  0  0  0  0  0  0
  161.0580  208.1490  155.2280 C   0  0  0  0  0  3  0  0  0  0  0  0
  160.8510  210.3130  156.3170 N   0  0  0  0  0  0  0  0  0  0  0  0
  159.7950  208.4440  157.1740 F   0  0  0  0  0  0  0  0  0  0  0  0
  161.2610  210.9300  153.9720 C   0  0  0  0  0  3  0  0  0  0  0  0
  161.5360  208.4570  154.0260 C   0  0  0  0  0  3  0  0  0  0  0  0
  161.3360  209.7480  153.3300 C   0  0  0  0  0  0  0  0  0  0  0  0
  160.1710  209.0660  156.0010 C   0  0  2  0  0  3  0  0  0  0  0  0
  161.2900  211.1540  155.4310 C   0  0  0  0  0  3  0  0  0  0  0  0
  160.8290  206.9240  149.5910 C   0  0  2  0  0  3  0  0  0  0  0  0
  160.2390  206.3940  150.8890 C   0  0  0  0  0  1  0  0  0  0  0  0
  161.9230  205.9630  149.1440 C   0  0  2  0  0  3  0  0  0  0  0  0
  161.4750  205.1600  147.9330 C   0  0  2  0  0  3  0  0  0  0  0  0
  161.4530  204.5290  149.3090 C   0  0  0  0  0  2  0  0  0  0  0  0
  162.7030  204.7010  147.1690 C   0  0  0  0  0  2  0  0  0  0  0  0
  162.3680  204.5030  145.7660 N   0  0  0  0  0  0  0  0  0  0  0  0
  160.2180  204.7910  144.6880 C   0  0  0  0  0  2  0  0  0  0  0  0
  162.3170  205.8160  145.1420 C   0  0  0  0  0  2  0  0  0  0  0  0
  161.0040  203.9900  145.7190 C   0  0  1  0  0  3  0  0  0  0  0  0
  161.2110  205.7730  144.1200 C   0  0  0  0  0  2  0  0  0  0  0  0
  161.0150  202.4920  145.4190 C   0  0  2  0  0  3  0  0  0  0  0  0
  159.7380  202.0320  145.0680 O   0  0  0  0  0  1  0  0  0  0  0  0
  161.6550  201.7210  146.5790 C   0  0  1  0  0  3  0  0  0  0  0  0
  160.6520  201.2330  147.6100 C   0  0  1  0  0  3  0  0  0  0  0  0
  161.2050  200.2760  146.5700 C   0  0  0  0  0  2  0  0  0  0  0  0
  161.3740  201.0150  148.9230 C   0  0  0  0  0  2  0  0  0  0  0  0
  160.4450  201.3280  150.0800 C   0  0  0  0  0  2  0  0  0  0  0  0
  159.0150  201.3340  149.5840 C   0  0  0  0  0  1  0  0  0  0  0  0
  1 22  1  0  0  0  0
  2  9  1  0  0  0  0
  2 16  1  0  0  0  0
  3 13  1  0  0  0  0
  4 15  1  0  0  0  0
  6 10  1  0  0  0  0
  6  2  1  0  0  0  0
  7  6  1  0  0  0  0
  8  3  1  0  0  0  0
  8 12  1  0  0  0  0
  9 16  1  0  0  0  0
  9  5  1  0  0  0  0
 10  8  1  0  0  0  0
 11 12  1  0  0  0  0
 11  4  1  0  0  0  0
 13 16  1  0  0  0  0
 13 14  2  0  0  0  0
 14  1  2  0  0  0  0
 15  1  1  0  0  0  0
 16  5  1  0  0  0  0
 17 23  1  0  0  0  0
 20 24  1  0  0  0  0
 21 17  2  0  0  0  0
 22 20  2  0  0  0  0
 22 21  1  0  0  0  0
 23 18  1  0  0  0  0
 23 19  1  0  0  0  0
 24 18  2  0  0  0  0
 25  4  1  0  0  0  0
 25 26  1  0  0  0  0
 27 29  1  0  0  0  0
 27 25  1  0  0  0  0
 28 27  1  0  0  0  0
 28 29  1  0  0  0  0
 30 28  1  0  0  0  0
 31 30  1  0  0  0  0
 32 34  1  0  0  0  0
 33 31  1  0  0  0  0
 34 31  1  0  0  0  0
 35 32  1  0  0  0  0
 35 33  1  0  0  0  0
 36 34  1  0  0  0  0
 36 38  1  0  0  0  0
 37 36  1  0  0  0  0
 38 39  1  0  0  0  0
 39 41  1  0  0  0  0
 40 38  1  0  0  0  0
 40 39  1  0  0  0  0
 41 42  1  0  0  0  0
 43 42  1  0  0  0  0
M  END
>  <MODEL>
5

>  <REMARK>
 VINA RESULT:      -5.0      3.008      5.616
  Name = 
  9 active torsions:
  status: ('A' for Active; 'I' for Inactive)
    1  A    between atoms: C_1  and  C_35
    2  A    between atoms: C_2  and  C_6
    3  A    between atoms: C_2  and  C_13
    4  A    between atoms: C_3  and  N_4
    5  A    between atoms: C_3  and  C_12
    6  A    between atoms: C_11  and  C_14
    7  A    between atoms: C_14  and  C_22
    8  A    between atoms: C_26  and  C_29
    9  A    between atoms: C_29  and  C_36
                            x       y       z     vdW  Elec       q    Type
                         _______ _______ _______ _____ _____    ______ ____

>  <TORSDO>
F 9

$$$$
=
 OpenBabel11062410293D

 43 50  0  0  1  0  0  0  0  0999 V2000
  161.1730  207.8330  150.2090 C   0  0  0  0  0  0  0  0  0  0  0  0
  161.4630  212.4870  148.5530 C   0  0  1  0  0  3  0  0  0  0  0  0
  161.9810  210.9340  151.0620 O   0  0  0  0  0  0  0  0  0  0  0  0
  161.1700  208.5350  152.5970 C   0  0  2  0  0  3  0  0  0  0  0  0
  163.2200  210.8910  147.7600 C   0  0  0  0  0  2  0  0  0  0  0  0
  161.1220  213.1710  149.8890 C   0  0  1  0  0  3  0  0  0  0  0  0
  160.6360  214.4510  149.6290 O   0  0  0  0  0  1  0  0  0  0  0  0
  160.7610  211.3960  151.6500 C   0  0  1  0  0  3  0  0  0  0  0  0
  162.9470  212.1430  148.5710 C   0  0  2  0  0  3  0  0  0  0  0  0
  160.0880  212.3970  150.7050 C   0  0  0  0  0  2  0  0  0  0  0  0
  160.1220  209.4040  152.9800 O   0  0  0  0  0  0  0  0  0  0  0  0
  159.7800  210.2290  151.8880 C   0  0  0  0  0  2  0  0  0  0  0  0
  161.9540  210.2700  149.8350 C   0  0  0  0  0  0  0  0  0  0  0  0
  161.6310  209.0130  149.8790 C   0  0  0  0  0  0  0  0  0  0  0  0
  160.7740  207.6380  151.5440 O   0  0  0  0  0  0  0  0  0  0  0  0
  161.9270  211.0200  148.5360 C   0  0  1  0  0  0  0  0  0  0  0  0
  160.7400  204.2540  149.2600 C   0  0  0  0  0  3  0  0  0  0  0  0
  161.3620  204.6930  146.9510 N   0  0  0  0  0  0  0  0  0  0  0  0
  161.8570  202.6690  147.9520 F   0  0  0  0  0  0  0  0  0  0  0  0
  161.3240  206.9470  147.9330 C   0  0  0  0  0  3  0  0  0  0  0  0
  160.4600  205.4640  149.7350 C   0  0  0  0  0  3  0  0  0  0  0  0
  161.0250  206.7350  149.2300 C   0  0  0  0  0  0  0  0  0  0  0  0
  161.7480  204.0250  148.1850 C   0  0  2  0  0  3  0  0  0  0  0  0
  161.2180  205.9760  146.8250 C   0  0  0  0  0  3  0  0  0  0  0  0
  161.6890  207.7220  153.7900 C   0  0  2  0  0  3  0  0  0  0  0  0
  161.5990  206.2280  153.5160 C   0  0  0  0  0  1  0  0  0  0  0  0
  160.8550  208.0240  155.0280 C   0  0  2  0  0  3  0  0  0  0  0  0
  161.6190  208.9230  155.9880 C   0  0  2  0  0  3  0  0  0  0  0  0
  161.5210  207.4360  156.2590 C   0  0  0  0  0  2  0  0  0  0  0  0
  160.6220  209.6760  156.8510 C   0  0  0  0  0  2  0  0  0  0  0  0
  160.3410  210.9760  156.2600 N   0  0  0  0  0  0  0  0  0  0  0  0
  159.1760  212.8510  157.2580 C   0  0  0  0  0  2  0  0  0  0  0  0
  161.3140  211.9160  156.7960 C   0  0  0  0  0  2  0  0  0  0  0  0
  159.0490  211.4110  156.7750 C   0  0  1  0  0  3  0  0  0  0  0  0
  160.6050  213.2340  156.9650 C   0  0  0  0  0  2  0  0  0  0  0  0
  157.9710  211.2410  155.7050 C   0  0  2  0  0  3  0  0  0  0  0  0
  158.5110  210.7510  154.5090 O   0  0  0  0  0  1  0  0  0  0  0  0
  157.1760  212.5420  155.5400 C   0  0  1  0  0  3  0  0  0  0  0  0
  155.8040  212.3390  154.9210 C   0  0  1  0  0  3  0  0  0  0  0  0
  155.9460  212.5290  156.4200 C   0  0  0  0  0  2  0  0  0  0  0  0
  155.3580  213.6430  154.2930 C   0  0  0  0  0  2  0  0  0  0  0  0
  156.3050  214.0230  153.1700 C   0  0  0  0  0  2  0  0  0  0  0  0
  155.5020  214.3420  151.9270 C   0  0  0  0  0  1  0  0  0  0  0  0
  1 15  1  0  0  0  0
  2  9  1  0  0  0  0
  2  6  1  0  0  0  0
  3  8  1  0  0  0  0
  4 11  1  0  0  0  0
  4 25  1  0  0  0  0
  5 16  1  0  0  0  0
  5  9  1  0  0  0  0
  6 10  1  0  0  0  0
  7  6  1  0  0  0  0
  8 12  1  0  0  0  0
 10  8  1  0  0  0  0
 12 11  1  0  0  0  0
 13 14  2  0  0  0  0
 13  3  1  0  0  0  0
 14  1  2  0  0  0  0
 15  4  1  0  0  0  0
 16  2  1  0  0  0  0
 16  9  1  0  0  0  0
 16 13  1  0  0  0  0
 17 21  2  0  0  0  0
 18 23  1  0  0  0  0
 19 23  1  0  0  0  0
 20 22  2  0  0  0  0
 22 21  1  0  0  0  0
 22  1  1  0  0  0  0
 23 17  1  0  0  0  0
 24 18  2  0  0  0  0
 24 20  1  0  0  0  0
 25 27  1  0  0  0  0
 26 25  1  0  0  0  0
 27 28  1  0  0  0  0
 27 29  1  0  0  0  0
 28 29  1  0  0  0  0
 28 30  1  0  0  0  0
 31 34  1  0  0  0  0
 31 33  1  0  0  0  0
 31 30  1  0  0  0  0
 33 35  1  0  0  0  0
 34 32  1  0  0  0  0
 35 32  1  0  0  0  0
 36 34  1  0  0  0  0
 37 36  1  0  0  0  0
 38 36  1  0  0  0  0
 38 40  1  0  0  0  0
 39 38  1  0  0  0  0
 39 40  1  0  0  0  0
 41 39  1  0  0  0  0
 42 41  1  0  0  0  0
 43 42  1  0  0  0  0
M  END
>  <MODEL>
6

>  <REMARK>
 VINA RESULT:      -4.9      3.404      7.998
  Name = 
  9 active torsions:
  status: ('A' for Active; 'I' for Inactive)
    1  A    between atoms: C_1  and  C_35
    2  A    between atoms: C_2  and  C_6
    3  A    between atoms: C_2  and  C_13
    4  A    between atoms: C_3  and  N_4
    5  A    between atoms: C_3  and  C_12
    6  A    between atoms: C_11  and  C_14
    7  A    between atoms: C_14  and  C_22
    8  A    between atoms: C_26  and  C_29
    9  A    between atoms: C_29  and  C_36
                            x       y       z     vdW  Elec       q    Type
                         _______ _______ _______ _____ _____    ______ ____

>  <TORSDO>
F 9

$$$$
=
 OpenBabel11062410293D

 43 50  0  0  1  0  0  0  0  0999 V2000
  161.1750  210.5430  151.0090 C   0  0  0  0  0  0  0  0  0  0  0  0
  161.2460  205.5970  151.0940 C   0  0  1  0  0  3  0  0  0  0  0  0
  162.5720  207.8610  149.6480 O   0  0  0  0  0  0  0  0  0  0  0  0
  162.2090  210.6590  148.7470 C   0  0  2  0  0  3  0  0  0  0  0  0
  162.3580  206.7780  152.9990 C   0  0  0  0  0  2  0  0  0  0  0  0
  161.5450  205.3990  149.5980 C   0  0  1  0  0  3  0  0  0  0  0  0
  161.1290  204.1240  149.2190 O   0  0  0  0  0  1  0  0  0  0  0  0
  161.7470  207.6630  148.4960 C   0  0  1  0  0  3  0  0  0  0  0  0
  162.5660  205.8700  151.8020 C   0  0  2  0  0  3  0  0  0  0  0  0
  160.8560  206.4360  148.7120 C   0  0  0  0  0  2  0  0  0  0  0  0
  161.5000  210.0030  147.7150 O   0  0  0  0  0  0  0  0  0  0  0  0
  160.8320  208.8810  148.2490 C   0  0  0  0  0  2  0  0  0  0  0  0
  161.9830  208.0900  150.8930 C   0  0  0  0  0  0  0  0  0  0  0  0
  161.5780  209.3040  151.1130 C   0  0  0  0  0  0  0  0  0  0  0  0
  161.3310  211.1780  149.7630 O   0  0  0  0  0  0  0  0  0  0  0  0
  161.5090  206.9590  151.7580 C   0  0  1  0  0  0  0  0  0  0  0  0
  160.0350  210.8800  154.5430 C   0  0  0  0  0  3  0  0  0  0  0  0
  158.6180  212.7800  154.0040 N   0  0  0  0  0  0  0  0  0  0  0  0
  158.0330  211.2950  155.6770 F   0  0  0  0  0  0  0  0  0  0  0  0
  159.7680  212.3490  151.8730 C   0  0  0  0  0  3  0  0  0  0  0  0
  160.8490  210.7990  153.4940 C   0  0  0  0  0  3  0  0  0  0  0  0
  160.5320  211.2680  152.1260 C   0  0  0  0  0  0  0  0  0  0  0  0
  158.6390  211.3920  154.4410 C   0  0  2  0  0  3  0  0  0  0  0  0
  159.0710  213.1970  152.8620 C   0  0  0  0  0  3  0  0  0  0  0  0
  163.0790  211.7960  148.1970 C   0  0  2  0  0  3  0  0  0  0  0  0
  164.3910  211.9010  148.9580 C   0  0  0  0  0  1  0  0  0  0  0  0
  162.3470  213.1250  148.3350 C   0  0  2  0  0  3  0  0  0  0  0  0
  161.6820  213.5150  147.0240 C   0  0  2  0  0  3  0  0  0  0  0  0
  162.9870  214.1660  147.4340 C   0  0  0  0  0  2  0  0  0  0  0  0
  160.5200  214.4440  147.3240 C   0  0  0  0  0  2  0  0  0  0  0  0
  159.4750  214.2660  146.3260 N   0  0  0  0  0  0  0  0  0  0  0  0
  158.7230  212.2050  145.3000 C   0  0  0  0  0  2  0  0  0  0  0  0
  158.2880  213.7900  147.0200 C   0  0  0  0  0  2  0  0  0  0  0  0
  159.8920  213.1710  145.4590 C   0  0  1  0  0  3  0  0  0  0  0  0
  157.6010  212.8190  146.0970 C   0  0  0  0  0  2  0  0  0  0  0  0
  160.3910  213.7170  144.1230 C   0  0  2  0  0  3  0  0  0  0  0  0
  159.3380  214.2290  143.3540 O   0  0  0  0  0  1  0  0  0  0  0  0
  161.2320  212.6590  143.3970 C   0  0  1  0  0  3  0  0  0  0  0  0
  162.0180  213.2140  142.2200 C   0  0  1  0  0  3  0  0  0  0  0  0
  162.7070  212.9580  143.5480 C   0  0  0  0  0  2  0  0  0  0  0  0
  162.3310  212.0780  141.2690 C   0  0  0  0  0  2  0  0  0  0  0  0
  162.3730  212.5960  139.8450 C   0  0  0  0  0  2  0  0  0  0  0  0
  162.8650  211.4970  138.9280 C   0  0  0  0  0  1  0  0  0  0  0  0
  1 14  2  0  0  0  0
  1 22  1  0  0  0  0
  2 16  1  0  0  0  0
  2  9  1  0  0  0  0
  3 13  1  0  0  0  0
  4 15  1  0  0  0  0
  6  2  1  0  0  0  0
  7  6  1  0  0  0  0
  8 10  1  0  0  0  0
  8  3  1  0  0  0  0
  9  5  1  0  0  0  0
 10  6  1  0  0  0  0
 11 12  1  0  0  0  0
 11  4  1  0  0  0  0
 12  8  1  0  0  0  0
 13 14  2  0  0  0  0
 13 16  1  0  0  0  0
 15  1  1  0  0  0  0
 16  9  1  0  0  0  0
 16  5  1  0  0  0  0
 18 23  1  0  0  0  0
 20 22  2  0  0  0  0
 20 24  1  0  0  0  0
 21 17  2  0  0  0  0
 22 21  1  0  0  0  0
 23 17  1  0  0  0  0
 23 19  1  0  0  0  0
 24 18  2  0  0  0  0
 25 27  1  0  0  0  0
 25  4  1  0  0  0  0
 25 26  1  0  0  0  0
 28 30  1  0  0  0  0
 28 29  1  0  0  0  0
 28 27  1  0  0  0  0
 29 27  1  0  0  0  0
 31 33  1  0  0  0  0
 31 30  1  0  0  0  0
 32 34  1  0  0  0  0
 32 35  1  0  0  0  0
 34 31  1  0  0  0  0
 35 33  1  0  0  0  0
 36 34  1  0  0  0  0
 37 36  1  0  0  0  0
 38 40  1  0  0  0  0
 38 36  1  0  0  0  0
 39 38  1  0  0  0  0
 39 40  1  0  0  0  0
 41 39  1  0  0  0  0
 42 41  1  0  0  0  0
 43 42  1  0  0  0  0
M  END
>  <MODEL>
7

>  <REMARK>
 VINA RESULT:      -4.3      2.584      8.772
  Name = 
  9 active torsions:
  status: ('A' for Active; 'I' for Inactive)
    1  A    between atoms: C_1  and  C_35
    2  A    between atoms: C_2  and  C_6
    3  A    between atoms: C_2  and  C_13
    4  A    between atoms: C_3  and  N_4
    5  A    between atoms: C_3  and  C_12
    6  A    between atoms: C_11  and  C_14
    7  A    between atoms: C_14  and  C_22
    8  A    between atoms: C_26  and  C_29
    9  A    between atoms: C_29  and  C_36
                            x       y       z     vdW  Elec       q    Type
                         _______ _______ _______ _____ _____    ______ ____

>  <TORSDO>
F 9

$$$$
=
 OpenBabel11062410293D

 43 50  0  0  1  0  0  0  0  0999 V2000
  160.7470  210.6450  153.1360 C   0  0  0  0  0  0  0  0  0  0  0  0
  161.1290  213.8280  149.3670 C   0  0  1  0  0  3  0  0  0  0  0  0
  160.6830  210.9030  149.8300 O   0  0  0  0  0  0  0  0  0  0  0  0
  161.2250  208.6700  151.6990 C   0  0  2  0  0  3  0  0  0  0  0  0
  159.0030  213.8850  150.6850 C   0  0  0  0  0  2  0  0  0  0  0  0
  161.7830  212.8500  148.3760 C   0  0  1  0  0  3  0  0  0  0  0  0
  162.4650  213.5800  147.4040 O   0  0  0  0  0  1  0  0  0  0  0  0
  162.0400  210.6000  149.4940 C   0  0  1  0  0  3  0  0  0  0  0  0
  159.6250  213.5930  149.3330 C   0  0  2  0  0  3  0  0  0  0  0  0
  162.7530  211.8810  149.0490 C   0  0  0  0  0  2  0  0  0  0  0  0
  162.4640  208.6910  151.0190 O   0  0  0  0  0  0  0  0  0  0  0  0
  162.8010  210.0260  150.7080 C   0  0  0  0  0  2  0  0  0  0  0  0
  160.4060  211.8110  150.8530 C   0  0  0  0  0  0  0  0  0  0  0  0
  160.4830  211.3440  152.0620 C   0  0  0  0  0  0  0  0  0  0  0  0
  161.2860  209.3580  152.9610 O   0  0  0  0  0  0  0  0  0  0  0  0
  160.3940  213.2920  150.6070 C   0  0  1  0  0  0  0  0  0  0  0  0
  158.9670  212.7290  155.6650 C   0  0  0  0  0  3  0  0  0  0  0  0
  160.7920  212.5210  157.2580 N   0  0  0  0  0  0  0  0  0  0  0  0
  159.4970  214.4340  157.1750 F   0  0  0  0  0  0  0  0  0  0  0  0
  161.5110  211.0480  155.4250 C   0  0  0  0  0  3  0  0  0  0  0  0
  159.2080  211.7510  154.7970 C   0  0  0  0  0  3  0  0  0  0  0  0
  160.5390  211.1760  154.5010 C   0  0  0  0  0  0  0  0  0  0  0  0
  160.0540  213.4360  156.4010 C   0  0  2  0  0  3  0  0  0  0  0  0
  161.4680  211.4990  156.8310 C   0  0  0  0  0  3  0  0  0  0  0  0
  160.7340  207.2350  151.9250 C   0  0  2  0  0  3  0  0  0  0  0  0
  160.5990  206.9280  153.4090 C   0  0  0  0  0  1  0  0  0  0  0  0
  161.7260  206.2450  151.3280 C   0  0  2  0  0  3  0  0  0  0  0  0
  161.1640  205.6100  150.0650 C   0  0  2  0  0  3  0  0  0  0  0  0
  161.1480  204.8410  151.3700 C   0  0  0  0  0  2  0  0  0  0  0  0
  162.3180  205.1420  149.1980 C   0  0  0  0  0  2  0  0  0  0  0  0
  162.1980  205.7120  147.8640 N   0  0  0  0  0  0  0  0  0  0  0  0
  160.2780  205.6690  146.3870 C   0  0  0  0  0  2  0  0  0  0  0  0
  161.4660  206.9640  147.9910 C   0  0  0  0  0  2  0  0  0  0  0  0
  161.3330  204.8260  147.0950 C   0  0  1  0  0  3  0  0  0  0  0  0
  160.6010  207.0920  146.7650 C   0  0  0  0  0  2  0  0  0  0  0  0
  162.1650  203.9880  146.1260 C   0  0  2  0  0  3  0  0  0  0  0  0
  162.8310  204.7950  145.1940 O   0  0  0  0  0  1  0  0  0  0  0  0
  161.3000  202.8920  145.4920 C   0  0  1  0  0  3  0  0  0  0  0  0
  161.0340  201.7180  146.4190 C   0  0  1  0  0  3  0  0  0  0  0  0
  159.9720  202.7810  146.2090 C   0  0  0  0  0  2  0  0  0  0  0  0
  160.6980  200.5040  145.5780 C   0  0  0  0  0  2  0  0  0  0  0  0
  161.3440  199.2690  146.1760 C   0  0  0  0  0  2  0  0  0  0  0  0
  161.3500  198.1610  145.1450 C   0  0  0  0  0  1  0  0  0  0  0  0
  1 22  1  0  0  0  0
  2 16  1  0  0  0  0
  3 13  1  0  0  0  0
  4 25  1  0  0  0  0
  4 15  1  0  0  0  0
  6 10  1  0  0  0  0
  6  2  1  0  0  0  0
  7  6  1  0  0  0  0
  8  3  1  0  0  0  0
  8 12  1  0  0  0  0
  9  2  1  0  0  0  0
  9 16  1  0  0  0  0
  9  5  1  0  0  0  0
 10  8  1  0  0  0  0
 11  4  1  0  0  0  0
 12 11  1  0  0  0  0
 13 14  2  0  0  0  0
 14  1  2  0  0  0  0
 15  1  1  0  0  0  0
 16  5  1  0  0  0  0
 16 13  1  0  0  0  0
 17 23  1  0  0  0  0
 20 24  1  0  0  0  0
 21 17  2  0  0  0  0
 22 21  1  0  0  0  0
 22 20  2  0  0  0  0
 23 19  1  0  0  0  0
 23 18  1  0  0  0  0
 24 18  2  0  0  0  0
 25 26  1  0  0  0  0
 27 29  1  0  0  0  0
 27 25  1  0  0  0  0
 28 27  1  0  0  0  0
 28 29  1  0  0  0  0
 30 28  1  0  0  0  0
 31 33  1  0  0  0  0
 31 30  1  0  0  0  0
 32 35  1  0  0  0  0
 32 34  1  0  0  0  0
 34 31  1  0  0  0  0
 35 33  1  0  0  0  0
 36 34  1  0  0  0  0
 37 36  1  0  0  0  0
 38 36  1  0  0  0  0
 38 40  1  0  0  0  0
 38 39  1  0  0  0  0
 40 39  1  0  0  0  0
 41 42  1  0  0  0  0
 41 39  1  0  0  0  0
 43 42  1  0  0  0  0
M  END
>  <MODEL>
8

>  <REMARK>
 VINA RESULT:      -3.9      3.022      5.863
  Name = 
  9 active torsions:
  status: ('A' for Active; 'I' for Inactive)
    1  A    between atoms: C_1  and  C_35
    2  A    between atoms: C_2  and  C_6
    3  A    between atoms: C_2  and  C_13
    4  A    between atoms: C_3  and  N_4
    5  A    between atoms: C_3  and  C_12
    6  A    between atoms: C_11  and  C_14
    7  A    between atoms: C_14  and  C_22
    8  A    between atoms: C_26  and  C_29
    9  A    between atoms: C_29  and  C_36
                            x       y       z     vdW  Elec       q    Type
                         _______ _______ _______ _____ _____    ______ ____

>  <TORSDO>
F 9

$$$$
=
 OpenBabel11062410293D

 43 50  0  0  1  0  0  0  0  0999 V2000
  161.0970  209.9880  151.1990 C   0  0  0  0  0  0  0  0  0  0  0  0
  161.3050  205.0480  151.3880 C   0  0  1  0  0  3  0  0  0  0  0  0
  162.5410  207.3150  149.8690 O   0  0  0  0  0  0  0  0  0  0  0  0
  162.0840  210.0820  148.9150 C   0  0  2  0  0  3  0  0  0  0  0  0
  162.4200  206.3010  153.2450 C   0  0  0  0  0  2  0  0  0  0  0  0
  161.5810  204.8260  149.8910 C   0  0  1  0  0  3  0  0  0  0  0  0
  161.1930  203.5310  149.5480 O   0  0  0  0  0  1  0  0  0  0  0  0
  161.7000  207.0690  148.7370 C   0  0  1  0  0  3  0  0  0  0  0  0
  162.6300  205.3720  152.0640 C   0  0  2  0  0  3  0  0  0  0  0  0
  160.8470  205.8240  148.9970 C   0  0  0  0  0  2  0  0  0  0  0  0
  161.3740  209.3850  147.9110 O   0  0  0  0  0  0  0  0  0  0  0  0
  160.7470  208.2570  148.4820 C   0  0  0  0  0  2  0  0  0  0  0  0
  161.9700  207.5550  151.1200 C   0  0  0  0  0  0  0  0  0  0  0  0
  161.5360  208.7620  151.3220 C   0  0  0  0  0  0  0  0  0  0  0  0
  161.2120  210.5990  149.9370 O   0  0  0  0  0  0  0  0  0  0  0  0
  161.5440  206.4310  152.0180 C   0  0  1  0  0  0  0  0  0  0  0  0
  159.9870  210.3570  154.7390 C   0  0  0  0  0  3  0  0  0  0  0  0
  158.5400  212.2310  154.1890 N   0  0  0  0  0  0  0  0  0  0  0  0
  157.9910  210.7620  155.8880 F   0  0  0  0  0  0  0  0  0  0  0  0
  159.6750  211.7870  152.0530 C   0  0  0  0  0  3  0  0  0  0  0  0
  160.7910  210.2730  153.6830 C   0  0  0  0  0  3  0  0  0  0  0  0
  160.4560  210.7190  152.3130 C   0  0  0  0  0  0  0  0  0  0  0  0
  158.5830  210.8500  154.6440 C   0  0  2  0  0  3  0  0  0  0  0  0
  158.9770  212.6390  153.0370 C   0  0  0  0  0  3  0  0  0  0  0  0
  162.9120  211.2290  148.3240 C   0  0  2  0  0  3  0  0  0  0  0  0
  163.6970  211.9540  149.4060 C   0  0  0  0  0  1  0  0  0  0  0  0
  161.9920  212.2410  147.6520 C   0  0  2  0  0  3  0  0  0  0  0  0
  162.6880  212.9060  146.4740 C   0  0  2  0  0  3  0  0  0  0  0  0
  162.5670  213.6390  147.7940 C   0  0  0  0  0  2  0  0  0  0  0  0
  161.6350  213.4050  145.5030 C   0  0  0  0  0  2  0  0  0  0  0  0
  162.0110  213.0540  144.1410 N   0  0  0  0  0  0  0  0  0  0  0  0
  161.9290  214.4460  142.1600 C   0  0  0  0  0  2  0  0  0  0  0  0
  163.3300  213.6180  143.8960 C   0  0  0  0  0  2  0  0  0  0  0  0
  161.1050  213.7650  143.2480 C   0  0  1  0  0  3  0  0  0  0  0  0
  163.3560  214.0620  142.4570 C   0  0  0  0  0  2  0  0  0  0  0  0
  160.0610  212.8050  142.6820 C   0  0  2  0  0  3  0  0  0  0  0  0
  160.2710  211.4950  143.1360 O   0  0  0  0  0  1  0  0  0  0  0  0
  159.9950  212.9290  141.1550 C   0  0  1  0  0  3  0  0  0  0  0  0
  160.7110  211.8060  140.4240 C   0  0  1  0  0  3  0  0  0  0  0  0
  159.2000  211.7870  140.5630 C   0  0  0  0  0  2  0  0  0  0  0  0
  161.0790  212.2890  139.0370 C   0  0  0  0  0  2  0  0  0  0  0  0
  162.2640  211.5000  138.5150 C   0  0  0  0  0  2  0  0  0  0  0  0
  163.5120  211.9240  139.2590 C   0  0  0  0  0  1  0  0  0  0  0  0
  1 14  2  0  0  0  0
  1 22  1  0  0  0  0
  2 16  1  0  0  0  0
  2  9  1  0  0  0  0
  3 13  1  0  0  0  0
  4 15  1  0  0  0  0
  6  2  1  0  0  0  0
  7  6  1  0  0  0  0
  8 10  1  0  0  0  0
  8  3  1  0  0  0  0
  9  5  1  0  0  0  0
 10  6  1  0  0  0  0
 11 12  1  0  0  0  0
 11  4  1  0  0  0  0
 12  8  1  0  0  0  0
 13 14  2  0  0  0  0
 13 16  1  0  0  0  0
 15  1  1  0  0  0  0
 16  9  1  0  0  0  0
 16  5  1  0  0  0  0
 18 23  1  0  0  0  0
 20 22  2  0  0  0  0
 20 24  1  0  0  0  0
 21 17  2  0  0  0  0
 22 21  1  0  0  0  0
 23 17  1  0  0  0  0
 23 19  1  0  0  0  0
 24 18  2  0  0  0  0
 25  4  1  0  0  0  0
 25 26  1  0  0  0  0
 27 29  1  0  0  0  0
 27 25  1  0  0  0  0
 28 27  1  0  0  0  0
 28 29  1  0  0  0  0
 30 28  1  0  0  0  0
 31 30  1  0  0  0  0
 32 35  1  0  0  0  0
 32 34  1  0  0  0  0
 33 31  1  0  0  0  0
 34 31  1  0  0  0  0
 35 33  1  0  0  0  0
 36 37  1  0  0  0  0
 36 34  1  0  0  0  0
 38 36  1  0  0  0  0
 39 40  1  0  0  0  0
 39 38  1  0  0  0  0
 40 38  1  0  0  0  0
 41 39  1  0  0  0  0
 42 41  1  0  0  0  0
 42 43  1  0  0  0  0
M  END
>  <MODEL>
9

>  <REMARK>
 VINA RESULT:      -3.7      3.204      9.404
  Name = 
  9 active torsions:
  status: ('A' for Active; 'I' for Inactive)
    1  A    between atoms: C_1  and  C_35
    2  A    between atoms: C_2  and  C_6
    3  A    between atoms: C_2  and  C_13
    4  A    between atoms: C_3  and  N_4
    5  A    between atoms: C_3  and  C_12
    6  A    between atoms: C_11  and  C_14
    7  A    between atoms: C_14  and  C_22
    8  A    between atoms: C_26  and  C_29
    9  A    between atoms: C_29  and  C_36
                            x       y       z     vdW  Elec       q    Type
                         _______ _______ _______ _____ _____    ______ ____

>  <TORSDO>
F 9

$$$$
