=
 OpenBabel11052422003D

 30 36  0  0  1  0  0  0  0  0999 V2000
  161.0420  209.8440  152.2820 C   0  0  0  0  0  0  0  0  0  0  0  0
  162.0780  209.8280  148.7370 C   0  0  0  0  0  3  0  0  0  0  0  0
  159.1240  214.2620  150.0770 C   0  0  0  0  0  2  0  0  0  0  0  0
  160.5300  210.6730  153.3140 N   0  0  0  0  0  0  0  0  0  0  0  0
  161.2770  208.4930  152.6420 C   0  0  0  0  0  0  0  0  0  0  0  0
  161.2780  206.7150  154.2710 N   0  0  0  0  0  0  0  0  0  0  0  0
  159.8560  211.5330  155.0920 C   0  0  1  0  0  3  0  0  0  0  0  0
  161.0410  208.0220  153.9800 C   0  0  0  0  0  0  0  0  0  0  0  0
  161.7560  207.5920  151.6730 C   0  0  0  0  0  0  0  0  0  0  0  0
  158.4170  213.4180  152.3850 C   0  0  1  0  0  3  0  0  0  0  0  0
  158.6580  213.0800  150.9140 C   0  0  0  0  0  2  0  0  0  0  0  0
  162.0100  208.0350  150.3690 C   0  0  0  0  0  3  0  0  0  0  0  0
  160.5420  208.9340  155.0630 C   0  0  0  0  0  3  0  0  0  0  0  0
  161.8950  211.1750  148.4190 C   0  0  0  0  0  3  0  0  0  0  0  0
  158.5980  212.1520  153.2230 C   0  0  1  0  0  3  0  0  0  0  0  0
  156.5600  211.3990  154.0720 C   0  0  0  0  0  1  0  0  0  0  0  0
  161.9800  206.2600  152.0230 C   0  0  0  0  0  3  0  0  0  0  0  0
  161.8040  209.3780  150.0280 C   0  0  0  0  0  0  0  0  0  0  0  0
  160.6430  214.3720  150.1220 C   0  0  0  0  0  2  0  0  0  0  0  0
  161.2980  213.5160  149.0400 C   0  0  0  0  0  2  0  0  0  0  0  0
  161.7330  205.8390  153.3330 C   0  0  0  0  0  3  0  0  0  0  0  0
  161.3330  210.2980  150.9910 C   0  0  0  0  0  0  0  0  0  0  0  0
  160.3270  210.1750  154.6630 C   0  0  0  0  0  0  0  0  0  0  0  0
  159.2430  214.4530  152.8400 O   0  0  0  0  0  1  0  0  0  0  0  0
  160.0160  211.9630  153.7260 C   0  0  2  0  0  3  0  0  0  0  0  0
  157.7410  212.1840  154.3940 N   0  0  0  0  0  0  0  0  0  0  0  0
  158.2540  212.2520  156.6360 C   0  0  0  0  0  1  0  0  0  0  0  0
  161.4420  212.0650  149.3980 C   0  0  0  0  0  0  0  0  0  0  0  0
  161.1840  211.6090  150.6570 N   0  0  0  0  0  0  0  0  0  0  0  0
  158.4290  211.4920  155.4100 N   0  0  0  0  0  0  0  0  0  0  0  0
  1  5  1  0  0  0  0
  1  4  1  0  0  0  0
  2 18  1  0  0  0  0
  3 19  1  0  0  0  0
  3 11  1  0  0  0  0
  4 23  1  0  0  0  0
  5  8  1  0  0  0  0
  7 23  1  6  0  0  0
  7 30  1  0  0  0  0
  8  6  2  0  0  0  0
  8 13  1  0  0  0  0
  9 17  1  0  0  0  0
  9  5  2  0  0  0  0
 10 24  1  1  0  0  0
 10 15  1  0  0  0  0
 11 10  1  0  0  0  0
 12  9  1  0  0  0  0
 14  2  2  0  0  0  0
 14 28  1  0  0  0  0
 15 25  1  0  0  0  0
 15 26  1  1  0  0  0
 16 26  1  0  0  0  0
 17 21  2  0  0  0  0
 18 12  2  0  0  0  0
 18 22  1  0  0  0  0
 20 28  1  0  0  0  0
 20 19  1  0  0  0  0
 21  6  1  0  0  0  0
 22  1  2  0  0  0  0
 23 13  2  0  0  0  0
 25  4  1  6  0  0  0
 25  7  1  0  0  0  0
 26 30  1  0  0  0  0
 28 29  2  0  0  0  0
 29 22  1  0  0  0  0
 30 27  1  0  0  0  0
M  END
>  <MODEL>
1

>  <REMARK>
 VINA RESULT:      -6.8      0.000      0.000
  Name = 
  0 active torsions:
  status: ('A' for Active; 'I' for Inactive)
                            x       y       z     vdW  Elec       q    Type
                         _______ _______ _______ _____ _____    ______ ____

>  <TORSDO>
F 0

$$$$
=
 OpenBabel11052422003D

 30 36  0  0  1  0  0  0  0  0999 V2000
  160.2790  211.1790  152.1960 C   0  0  0  0  0  0  0  0  0  0  0  0
  162.3700  208.5440  150.6730 C   0  0  0  0  0  3  0  0  0  0  0  0
  161.3180  207.6270  155.9870 C   0  0  0  0  0  2  0  0  0  0  0  0
  159.4760  211.4830  153.3270 N   0  0  0  0  0  0  0  0  0  0  0  0
  160.3890  212.2090  151.2290 C   0  0  0  0  0  0  0  0  0  0  0  0
  159.8380  214.4160  150.4260 N   0  0  0  0  0  0  0  0  0  0  0  0
  158.1920  212.3010  154.7540 C   0  0  1  0  0  3  0  0  0  0  0  0
  159.6940  213.4590  151.3820 C   0  0  0  0  0  0  0  0  0  0  0  0
  161.1900  212.0070  150.0900 C   0  0  0  0  0  0  0  0  0  0  0  0
  160.2960  209.9250  156.4510 C   0  0  1  0  0  3  0  0  0  0  0  0
  161.3910  209.1280  155.7430 C   0  0  0  0  0  2  0  0  0  0  0  0
  161.8590  210.7900  149.9130 C   0  0  0  0  0  3  0  0  0  0  0  0
  158.8150  213.7350  152.5670 C   0  0  0  0  0  3  0  0  0  0  0  0
  162.2020  207.5210  151.6090 C   0  0  0  0  0  3  0  0  0  0  0  0
  160.0450  211.2210  155.6790 C   0  0  1  0  0  3  0  0  0  0  0  0
  160.8080  213.0770  156.8680 C   0  0  0  0  0  1  0  0  0  0  0  0
  161.3060  213.0220  149.1400 C   0  0  0  0  0  3  0  0  0  0  0  0
  161.7230  209.7650  150.8580 C   0  0  0  0  0  0  0  0  0  0  0  0
  160.4130  206.9710  154.9540 C   0  0  0  0  0  2  0  0  0  0  0  0
  161.1840  206.5960  153.6900 C   0  0  0  0  0  2  0  0  0  0  0  0
  160.6190  214.2250  149.3280 C   0  0  0  0  0  3  0  0  0  0  0  0
  160.9150  209.9480  152.0020 C   0  0  0  0  0  0  0  0  0  0  0  0
  158.7650  212.7440  153.4410 C   0  0  0  0  0  0  0  0  0  0  0  0
  159.1150  209.1900  156.6100 O   0  0  0  0  0  1  0  0  0  0  0  0
  158.9640  211.0920  154.6240 C   0  0  2  0  0  3  0  0  0  0  0  0
  159.6260  212.2810  156.5780 N   0  0  0  0  0  0  0  0  0  0  0  0
  157.6430  213.4390  156.7220 C   0  0  0  0  0  1  0  0  0  0  0  0
  161.3830  207.7280  152.7240 C   0  0  0  0  0  0  0  0  0  0  0  0
  160.7540  208.9270  152.8870 N   0  0  0  0  0  0  0  0  0  0  0  0
  158.7500  213.1030  155.8420 N   0  0  0  0  0  0  0  0  0  0  0  0
  1  4  1  0  0  0  0
  2 18  2  0  0  0  0
  2 14  1  0  0  0  0
  4 23  1  0  0  0  0
  5  8  1  0  0  0  0
  5  1  2  0  0  0  0
  6  8  2  0  0  0  0
  7 23  1  6  0  0  0
  7 30  1  0  0  0  0
  8 13  1  0  0  0  0
  9  5  1  0  0  0  0
 10 24  1  6  0  0  0
 11  3  1  0  0  0  0
 11 10  1  0  0  0  0
 12  9  2  0  0  0  0
 12 18  1  0  0  0  0
 13 23  2  0  0  0  0
 14 28  2  0  0  0  0
 15 10  1  0  0  0  0
 15 26  1  1  0  0  0
 17 21  2  0  0  0  0
 17  9  1  0  0  0  0
 18 22  1  0  0  0  0
 19  3  1  0  0  0  0
 20 19  1  0  0  0  0
 21  6  1  0  0  0  0
 22  1  1  0  0  0  0
 22 29  2  0  0  0  0
 25  4  1  6  0  0  0
 25  7  1  0  0  0  0
 25 15  1  0  0  0  0
 26 16  1  0  0  0  0
 28 29  1  0  0  0  0
 28 20  1  0  0  0  0
 30 26  1  0  0  0  0
 30 27  1  0  0  0  0
M  END
>  <MODEL>
2

>  <REMARK>
 VINA RESULT:      -6.0      1.822      5.268
  Name = 
  0 active torsions:
  status: ('A' for Active; 'I' for Inactive)
                            x       y       z     vdW  Elec       q    Type
                         _______ _______ _______ _____ _____    ______ ____

>  <TORSDO>
F 0

$$$$
=
 OpenBabel11052422003D

 30 36  0  0  1  0  0  0  0  0999 V2000
  161.6650  205.9060  149.6020 C   0  0  0  0  0  0  0  0  0  0  0  0
  160.7810  204.2420  152.7780 C   0  0  0  0  0  3  0  0  0  0  0  0
  160.2390  200.9430  148.4190 C   0  0  0  0  0  2  0  0  0  0  0  0
  161.9780  205.6620  148.2390 N   0  0  0  0  0  0  0  0  0  0  0  0
  161.6560  207.2680  149.9940 C   0  0  0  0  0  0  0  0  0  0  0  0
  161.9560  209.6080  149.4950 N   0  0  0  0  0  0  0  0  0  0  0  0
  162.5320  205.7470  146.2290 C   0  0  1  0  0  3  0  0  0  0  0  0
  161.9840  208.3170  149.0670 C   0  0  0  0  0  0  0  0  0  0  0  0
  161.3250  207.6040  151.3200 C   0  0  0  0  0  0  0  0  0  0  0  0
  160.5470  202.7760  146.6630 C   0  0  1  0  0  3  0  0  0  0  0  0
  159.9320  202.3740  148.0040 C   0  0  0  0  0  2  0  0  0  0  0  0
  161.0220  206.5950  152.2430 C   0  0  0  0  0  3  0  0  0  0  0  0
  162.3570  208.0260  147.6430 C   0  0  0  0  0  3  0  0  0  0  0  0
  160.8520  202.9040  152.3860 C   0  0  0  0  0  3  0  0  0  0  0  0
  160.7530  204.2910  146.6440 C   0  0  1  0  0  3  0  0  0  0  0  0
  159.2740  205.3290  145.1680 C   0  0  0  0  0  1  0  0  0  0  0  0
  161.3090  208.9440  151.7070 C   0  0  0  0  0  3  0  0  0  0  0  0
  161.0610  205.2490  151.8560 C   0  0  0  0  0  0  0  0  0  0  0  0
  161.5460  200.8900  149.1990 C   0  0  0  0  0  2  0  0  0  0  0  0
  161.3190  201.1360  150.6900 C   0  0  0  0  0  2  0  0  0  0  0  0
  161.6280  209.9360  150.7740 C   0  0  0  0  0  3  0  0  0  0  0  0
  161.4000  204.8940  150.5320 C   0  0  0  0  0  0  0  0  0  0  0  0
  162.3310  206.7410  147.3330 C   0  0  0  0  0  0  0  0  0  0  0  0
  161.7420  202.0970  146.3960 O   0  0  0  0  0  1  0  0  0  0  0  0
  162.1170  204.7190  147.1490 C   0  0  2  0  0  3  0  0  0  0  0  0
  160.6270  204.8100  145.2940 N   0  0  0  0  0  0  0  0  0  0  0  0
  162.1660  205.8280  143.9210 C   0  0  0  0  0  1  0  0  0  0  0  0
  161.2060  202.5830  151.0720 C   0  0  0  0  0  0  0  0  0  0  0  0
  161.4810  203.5810  150.1840 N   0  0  0  0  0  0  0  0  0  0  0  0
  161.4980  205.9130  145.2080 N   0  0  0  0  0  0  0  0  0  0  0  0
  1  5  2  0  0  0  0
  1 22  1  0  0  0  0
  3 19  1  0  0  0  0
  4  1  1  0  0  0  0
  5  9  1  0  0  0  0
  6 21  1  0  0  0  0
  7 25  1  0  0  0  0
  7 23  1  1  0  0  0
  8  6  2  0  0  0  0
  8  5  1  0  0  0  0
  9 17  1  0  0  0  0
  9 12  2  0  0  0  0
 10 24  1  1  0  0  0
 10 11  1  0  0  0  0
 11  3  1  0  0  0  0
 13  8  1  0  0  0  0
 14  2  1  0  0  0  0
 15 26  1  6  0  0  0
 15 10  1  0  0  0  0
 15 25  1  0  0  0  0
 16 26  1  0  0  0  0
 18 12  1  0  0  0  0
 18  2  2  0  0  0  0
 19 20  1  0  0  0  0
 20 28  1  0  0  0  0
 21 17  2  0  0  0  0
 22 18  1  0  0  0  0
 23 13  2  0  0  0  0
 23  4  1  0  0  0  0
 25  4  1  1  0  0  0
 27 30  1  0  0  0  0
 28 14  2  0  0  0  0
 29 22  2  0  0  0  0
 29 28  1  0  0  0  0
 30 26  1  0  0  0  0
 30  7  1  0  0  0  0
M  END
>  <MODEL>
3

>  <REMARK>
 VINA RESULT:      -5.2      5.202      9.324
  Name = 
  0 active torsions:
  status: ('A' for Active; 'I' for Inactive)
                            x       y       z     vdW  Elec       q    Type
                         _______ _______ _______ _____ _____    ______ ____

>  <TORSDO>
F 0

$$$$
=
 OpenBabel11052422003D

 30 36  0  0  1  0  0  0  0  0999 V2000
  160.8350  210.4590  151.1320 C   0  0  0  0  0  0  0  0  0  0  0  0
  162.4430  208.2860  148.6150 C   0  0  0  0  0  3  0  0  0  0  0  0
  161.9140  205.8500  153.5110 C   0  0  0  0  0  2  0  0  0  0  0  0
  160.2040  210.4530  152.4040 N   0  0  0  0  0  0  0  0  0  0  0  0
  160.9430  211.7270  150.5090 C   0  0  0  0  0  0  0  0  0  0  0  0
  160.5440  214.1050  150.4830 N   0  0  0  0  0  0  0  0  0  0  0  0
  159.1880  210.8760  154.1760 C   0  0  1  0  0  3  0  0  0  0  0  0
  160.4090  212.9130  151.1230 C   0  0  0  0  0  0  0  0  0  0  0  0
  161.5830  211.8320  149.2590 C   0  0  0  0  0  0  0  0  0  0  0  0
  161.2050  207.9560  154.7760 C   0  0  1  0  0  3  0  0  0  0  0  0
  162.1200  207.3440  153.7160 C   0  0  0  0  0  2  0  0  0  0  0  0
  162.0930  210.6860  148.6360 C   0  0  0  0  0  3  0  0  0  0  0  0
  159.7060  212.8680  152.4480 C   0  0  0  0  0  3  0  0  0  0  0  0
  162.2750  207.0390  149.2200 C   0  0  0  0  0  3  0  0  0  0  0  0
  161.0080  209.4410  154.4670 C   0  0  1  0  0  3  0  0  0  0  0  0
  162.0970  210.7840  156.0330 C   0  0  0  0  0  1  0  0  0  0  0  0
  161.6970  213.0800  148.6470 C   0  0  0  0  0  3  0  0  0  0  0  0
  161.9560  209.4320  149.2440 C   0  0  0  0  0  0  0  0  0  0  0  0
  160.8310  205.6070  152.4690 C   0  0  0  0  0  2  0  0  0  0  0  0
  161.4080  205.5890  151.0550 C   0  0  0  0  0  2  0  0  0  0  0  0
  161.1700  214.2110  149.2790 C   0  0  0  0  0  3  0  0  0  0  0  0
  161.3090  209.3080  150.4930 C   0  0  0  0  0  0  0  0  0  0  0  0
  159.6510  211.6630  152.9860 C   0  0  0  0  0  0  0  0  0  0  0  0
  159.9770  207.2900  154.8750 O   0  0  0  0  0  1  0  0  0  0  0  0
  159.8050  209.7160  153.5850 C   0  0  2  0  0  3  0  0  0  0  0  0
  160.8100  210.1980  155.6890 N   0  0  0  0  0  0  0  0  0  0  0  0
  158.9930  211.3860  156.4500 C   0  0  0  0  0  1  0  0  0  0  0  0
  161.6160  206.9470  150.4500 C   0  0  0  0  0  0  0  0  0  0  0  0
  161.1420  208.0760  151.0480 N   0  0  0  0  0  0  0  0  0  0  0  0
  159.9500  211.2640  155.3630 N   0  0  0  0  0  0  0  0  0  0  0  0
  1  4  1  0  0  0  0
  2 14  2  0  0  0  0
  2 18  1  0  0  0  0
  3 11  1  0  0  0  0
  4 23  1  0  0  0  0
  5  8  1  0  0  0  0
  5  1  1  0  0  0  0
  6  8  2  0  0  0  0
  7 23  1  6  0  0  0
  7 30  1  0  0  0  0
  8 13  1  0  0  0  0
  9  5  2  0  0  0  0
 10 24  1  6  0  0  0
 11 10  1  0  0  0  0
 12 18  2  0  0  0  0
 12  9  1  0  0  0  0
 13 23  2  0  0  0  0
 14 28  1  0  0  0  0
 15 10  1  0  0  0  0
 15 26  1  1  0  0  0
 17  9  1  0  0  0  0
 17 21  2  0  0  0  0
 18 22  1  0  0  0  0
 19  3  1  0  0  0  0
 20 19  1  0  0  0  0
 21  6  1  0  0  0  0
 22 29  1  0  0  0  0
 22  1  2  0  0  0  0
 25  4  1  6  0  0  0
 25  7  1  0  0  0  0
 25 15  1  0  0  0  0
 26 16  1  0  0  0  0
 28 29  2  0  0  0  0
 28 20  1  0  0  0  0
 30 26  1  0  0  0  0
 30 27  1  0  0  0  0
M  END
>  <MODEL>
4

>  <REMARK>
 VINA RESULT:      -4.8      2.011      5.342
  Name = 
  0 active torsions:
  status: ('A' for Active; 'I' for Inactive)
                            x       y       z     vdW  Elec       q    Type
                         _______ _______ _______ _____ _____    ______ ____

>  <TORSDO>
F 0

$$$$
=
 OpenBabel11052422003D

 30 36  0  0  1  0  0  0  0  0999 V2000
  161.1140  210.8350  151.2820 C   0  0  0  0  0  0  0  0  0  0  0  0
  159.7040  211.9540  154.5070 C   0  0  0  0  0  3  0  0  0  0  0  0
  160.8310  206.5780  154.4230 C   0  0  0  0  0  2  0  0  0  0  0  0
  161.8050  209.7660  150.6520 N   0  0  0  0  0  0  0  0  0  0  0  0
  160.7930  211.9330  150.4470 C   0  0  0  0  0  0  0  0  0  0  0  0
  160.8470  213.0390  148.3040 N   0  0  0  0  0  0  0  0  0  0  0  0
  162.8420  208.4810  149.3770 C   0  0  1  0  0  3  0  0  0  0  0  0
  161.1840  211.9620  149.0630 C   0  0  0  0  0  0  0  0  0  0  0  0
  160.0810  213.0240  150.9800 C   0  0  0  0  0  0  0  0  0  0  0  0
  161.2980  206.4470  151.9130 C   0  0  1  0  0  3  0  0  0  0  0  0
  160.4250  207.0260  153.0270 C   0  0  0  0  0  2  0  0  0  0  0  0
  159.7080  213.0240  152.3300 C   0  0  0  0  0  3  0  0  0  0  0  0
  161.9550  210.8380  148.4350 C   0  0  0  0  0  3  0  0  0  0  0  0
  160.0800  210.8880  155.3260 C   0  0  0  0  0  3  0  0  0  0  0  0
  161.2640  207.3940  150.7120 C   0  0  1  0  0  3  0  0  0  0  0  0
  160.0780  206.4630  148.9320 C   0  0  0  0  0  1  0  0  0  0  0  0
  159.7580  214.1030  150.1580 C   0  0  0  0  0  3  0  0  0  0  0  0
  160.0550  211.9470  153.1570 C   0  0  0  0  0  0  0  0  0  0  0  0
  161.8820  207.5220  154.9930 C   0  0  0  0  0  2  0  0  0  0  0  0
  161.2400  208.7130  155.7020 C   0  0  0  0  0  2  0  0  0  0  0  0
  160.1500  214.0910  148.8150 C   0  0  0  0  0  3  0  0  0  0  0  0
  160.7770  210.8490  152.6400 C   0  0  0  0  0  0  0  0  0  0  0  0
  162.2100  209.8360  149.2590 C   0  0  0  0  0  0  0  0  0  0  0  0
  162.6110  206.2030  152.3310 O   0  0  0  0  0  1  0  0  0  0  0  0
  162.3670  208.4350  150.7360 C   0  0  2  0  0  3  0  0  0  0  0  0
  161.4150  206.6550  149.4710 N   0  0  0  0  0  0  0  0  0  0  0  0
  163.0810  206.6960  147.8860 C   0  0  0  0  0  1  0  0  0  0  0  0
  160.8100  209.8230  154.7890 C   0  0  0  0  0  0  0  0  0  0  0  0
  161.1480  209.8350  153.4680 N   0  0  0  0  0  0  0  0  0  0  0  0
  162.0960  207.5080  148.5810 N   0  0  0  0  0  0  0  0  0  0  0  0
  1 22  1  0  0  0  0
  2 14  1  0  0  0  0
  3 19  1  0  0  0  0
  4  1  1  0  0  0  0
  5  9  1  0  0  0  0
  5  1  2  0  0  0  0
  6 21  1  0  0  0  0
  6  8  2  0  0  0  0
  7 23  1  6  0  0  0
  7 25  1  0  0  0  0
  8  5  1  0  0  0  0
  9 12  2  0  0  0  0
 10 24  1  1  0  0  0
 10 11  1  0  0  0  0
 11  3  1  0  0  0  0
 12 18  1  0  0  0  0
 13  8  1  0  0  0  0
 13 23  2  0  0  0  0
 15 26  1  6  0  0  0
 15 25  1  0  0  0  0
 15 10  1  0  0  0  0
 16 26  1  0  0  0  0
 17  9  1  0  0  0  0
 18  2  2  0  0  0  0
 19 20  1  0  0  0  0
 21 17  2  0  0  0  0
 22 18  1  0  0  0  0
 22 29  2  0  0  0  0
 23  4  1  0  0  0  0
 25  4  1  6  0  0  0
 27 30  1  0  0  0  0
 28 14  2  0  0  0  0
 28 20  1  0  0  0  0
 29 28  1  0  0  0  0
 30  7  1  0  0  0  0
 30 26  1  0  0  0  0
M  END
>  <MODEL>
5

>  <REMARK>
 VINA RESULT:      -4.4      2.433      7.001
  Name = 
  0 active torsions:
  status: ('A' for Active; 'I' for Inactive)
                            x       y       z     vdW  Elec       q    Type
                         _______ _______ _______ _____ _____    ______ ____

>  <TORSDO>
F 0

$$$$
