=
 OpenBabel11062408213D

 32 37  0  0  1  0  0  0  0  0999 V2000
  160.7450  204.0810  150.0690 C   0  0  1  0  0  3  0  0  0  0  0  0
  161.3040  206.3170  151.0530 C   0  0  0  0  0  0  0  0  0  0  0  0
  161.1960  202.6510  150.3360 C   0  0  0  0  0  2  0  0  0  0  0  0
  161.0350  204.9570  151.2590 C   0  0  0  0  0  0  0  0  0  0  0  0
  161.4770  207.1790  152.1440 C   0  0  0  0  0  0  0  0  0  0  0  0
  162.5360  210.0160  148.1720 C   0  0  0  0  0  2  0  0  0  0  0  0
  161.5850  206.8100  149.6520 C   0  0  1  0  0  3  0  0  0  0  0  0
  162.1680  210.5310  150.5780 C   0  0  0  0  0  2  0  0  0  0  0  0
  161.7200  209.1040  150.7240 C   0  0  0  0  0  0  0  0  0  0  0  0
  160.9690  204.4430  152.5680 C   0  0  0  0  0  0  0  0  0  0  0  0
  161.7850  208.5620  151.9060 N   0  0  0  0  0  0  0  0  0  0  0  0
  161.1540  205.3050  153.6550 C   0  0  0  0  0  3  0  0  0  0  0  0
  160.8790  202.9610  152.8210 C   0  0  0  0  0  2  0  0  0  0  0  0
  160.8760  206.0500  148.6950 O   0  0  0  0  0  0  0  0  0  0  0  0
  161.3310  204.7180  148.7880 C   0  0  2  0  0  3  0  0  0  0  0  0
  161.2080  208.2910  149.5370 C   0  0  1  0  0  3  0  0  0  0  0  0
  161.3920  206.6720  153.4520 C   0  0  0  0  0  0  0  0  0  0  0  0
  160.4700  202.1520  151.5820 C   0  0  0  0  0  2  0  0  0  0  0  0
  162.0340  211.0570  149.1540 C   0  0  0  0  0  2  0  0  0  0  0  0
  161.5550  208.8500  148.1460 C   0  0  0  0  0  2  0  0  0  0  0  0
  161.4160  204.2210  145.0990 C   0  0  2  0  0  3  0  0  0  0  0  0
  160.5810  200.9260  144.5620 O   0  0  0  0  0  0  0  0  0  0  0  0
  160.9150  205.6520  144.9080 C   0  0  0  0  0  1  0  0  0  0  0  0
  160.3360  201.6360  146.7970 C   0  0  0  0  0  3  0  0  0  0  0  0
  160.9820  203.9720  147.4800 C   0  0  2  0  0  3  0  0  0  0  0  0
  160.2530  203.2700  144.7910 C   0  0  0  0  0  2  0  0  0  0  0  0
  160.5530  202.5510  147.7470 C   0  0  0  0  0  3  0  0  0  0  0  0
  162.0250  203.9980  146.4290 N   0  0  0  0  0  0  0  0  0  0  0  0
  163.0790  204.9920  146.6470 C   0  0  0  0  0  1  0  0  0  0  0  0
  160.4260  201.8940  145.3490 C   0  0  0  0  0  0  0  0  0  0  0  0
  161.5620  207.5620  154.6380 C   0  0  0  0  0  2  0  0  0  0  0  0
  160.3670  207.4360  155.5620 C   0  0  0  0  0  1  0  0  0  0  0  0
  1  3  1  1  0  0  0
  1  4  1  0  0  0  0
  2  4  2  0  0  0  0
  2  5  1  0  0  0  0
  3 18  1  0  0  0  0
  4 10  1  0  0  0  0
  5 17  2  0  0  0  0
  6 19  1  0  0  0  0
  7 14  1  6  0  0  0
  7  2  1  0  0  0  0
  8  9  1  0  0  0  0
  9 11  2  0  0  0  0
 10 13  1  0  0  0  0
 10 12  2  0  0  0  0
 11  5  1  0  0  0  0
 15 14  1  6  0  0  0
 15  1  1  0  0  0  0
 16 20  1  6  0  0  0
 16  7  1  0  0  0  0
 16  9  1  0  0  0  0
 17 12  1  0  0  0  0
 17 31  1  0  0  0  0
 18 13  1  0  0  0  0
 19  8  1  0  0  0  0
 20  6  1  0  0  0  0
 21 23  1  1  0  0  0
 21 28  1  0  0  0  0
 22 30  2  0  0  0  0
 24 27  2  0  0  0  0
 25 27  1  1  0  0  0
 25 15  1  0  0  0  0
 26 21  1  0  0  0  0
 26 30  1  0  0  0  0
 28 29  1  0  0  0  0
 28 25  1  0  0  0  0
 30 24  1  0  0  0  0
 31 32  1  0  0  0  0
M  END
>  <MODEL>
1

>  <REMARK>
 VINA RESULT:      -8.1      0.000      0.000
  Name = 
  2 active torsions:
  status: ('A' for Active; 'I' for Inactive)
    1  A    between atoms: C_13  and  C_29
    2  A    between atoms: C_16  and  C_27
                            x       y       z     vdW  Elec       q    Type
                         _______ _______ _______ _____ _____    ______ ____

>  <TORSDO>
F 2

$$$$
=
 OpenBabel11062408213D

 32 37  0  0  1  0  0  0  0  0999 V2000
  161.3930  208.8330  151.0950 C   0  0  1  0  0  3  0  0  0  0  0  0
  161.4880  206.6950  149.7930 C   0  0  0  0  0  0  0  0  0  0  0  0
  162.2540  210.0880  151.1570 C   0  0  0  0  0  2  0  0  0  0  0  0
  161.6380  208.0870  149.8100 C   0  0  0  0  0  0  0  0  0  0  0  0
  161.6090  205.9820  148.5920 C   0  0  0  0  0  0  0  0  0  0  0  0
  161.1480  202.4300  152.0720 C   0  0  0  0  0  2  0  0  0  0  0  0
  161.3750  205.9480  151.1030 C   0  0  1  0  0  3  0  0  0  0  0  0
  161.0810  202.3910  149.5860 C   0  0  0  0  0  2  0  0  0  0  0  0
  161.0690  203.8920  149.6510 C   0  0  0  0  0  0  0  0  0  0  0  0
  161.9430  208.7770  148.6210 C   0  0  0  0  0  0  0  0  0  0  0  0
  161.4840  204.5510  148.6080 N   0  0  0  0  0  0  0  0  0  0  0  0
  162.0750  208.0610  147.4260 C   0  0  0  0  0  3  0  0  0  0  0  0
  162.3040  210.2400  148.6380 C   0  0  0  0  0  2  0  0  0  0  0  0
  160.7430  206.7420  152.0860 O   0  0  0  0  0  0  0  0  0  0  0  0
  161.5510  207.8780  152.3000 C   0  0  2  0  0  3  0  0  0  0  0  0
  160.5970  204.6450  150.8930 C   0  0  1  0  0  3  0  0  0  0  0  0
  161.8940  206.6710  147.4010 C   0  0  0  0  0  0  0  0  0  0  0  0
  161.9200  210.9500  149.9430 C   0  0  0  0  0  2  0  0  0  0  0  0
  160.5620  201.7330  150.8590 C   0  0  0  0  0  2  0  0  0  0  0  0
  160.5310  203.8180  152.1890 C   0  0  0  0  0  2  0  0  0  0  0  0
  160.4970  207.7300  155.8680 C   0  0  2  0  0  3  0  0  0  0  0  0
  161.4220  210.7380  157.2610 O   0  0  0  0  0  0  0  0  0  0  0  0
  159.2820  206.8980  155.4600 C   0  0  0  0  0  1  0  0  0  0  0  0
  161.6960  210.6280  154.9210 C   0  0  0  0  0  3  0  0  0  0  0  0
  161.1940  208.5020  153.6680 C   0  0  2  0  0  3  0  0  0  0  0  0
  160.0080  209.1440  156.2050 C   0  0  0  0  0  2  0  0  0  0  0  0
  161.7280  209.9060  153.7960 C   0  0  0  0  0  3  0  0  0  0  0  0
  161.5760  207.7040  154.8560 N   0  0  0  0  0  0  0  0  0  0  0  0
  161.9250  206.3120  154.5630 C   0  0  0  0  0  1  0  0  0  0  0  0
  161.0830  210.1820  156.1840 C   0  0  0  0  0  0  0  0  0  0  0  0
  162.0220  205.9460  146.1020 C   0  0  0  0  0  2  0  0  0  0  0  0
  160.7010  205.9720  145.3580 C   0  0  0  0  0  1  0  0  0  0  0  0
  1  3  1  1  0  0  0
  1 15  1  0  0  0  0
  2  4  1  0  0  0  0
  4  1  1  0  0  0  0
  5 11  1  0  0  0  0
  5  2  2  0  0  0  0
  6 20  1  0  0  0  0
  7  2  1  6  0  0  0
  7 14  1  0  0  0  0
  8  9  1  0  0  0  0
  8 19  1  0  0  0  0
  9 16  1  0  0  0  0
 10 13  1  0  0  0  0
 10  4  2  0  0  0  0
 11  9  2  0  0  0  0
 12 10  1  0  0  0  0
 13 18  1  0  0  0  0
 15 14  1  6  0  0  0
 15 25  1  0  0  0  0
 16  7  1  0  0  0  0
 16 20  1  1  0  0  0
 17 12  2  0  0  0  0
 17  5  1  0  0  0  0
 18  3  1  0  0  0  0
 19  6  1  0  0  0  0
 21 23  1  6  0  0  0
 21 26  1  0  0  0  0
 24 30  1  0  0  0  0
 25 27  1  1  0  0  0
 25 28  1  0  0  0  0
 27 24  2  0  0  0  0
 28 21  1  0  0  0  0
 29 28  1  0  0  0  0
 30 26  1  0  0  0  0
 30 22  2  0  0  0  0
 31 17  1  0  0  0  0
 32 31  1  0  0  0  0
M  END
>  <MODEL>
2

>  <REMARK>
 VINA RESULT:      -8.0      2.371      8.397
  Name = 
  2 active torsions:
  status: ('A' for Active; 'I' for Inactive)
    1  A    between atoms: C_13  and  C_29
    2  A    between atoms: C_16  and  C_27
                            x       y       z     vdW  Elec       q    Type
                         _______ _______ _______ _____ _____    ______ ____

>  <TORSDO>
F 2

$$$$
=
 OpenBabel11062408213D

 32 37  0  0  1  0  0  0  0  0999 V2000
  160.9080  205.2550  150.5890 C   0  0  1  0  0  3  0  0  0  0  0  0
  161.3460  207.6340  151.2430 C   0  0  0  0  0  0  0  0  0  0  0  0
  161.4080  203.9010  151.0750 C   0  0  0  0  0  2  0  0  0  0  0  0
  161.1260  206.3090  151.6420 C   0  0  0  0  0  0  0  0  0  0  0  0
  161.4520  208.6540  152.1980 C   0  0  0  0  0  0  0  0  0  0  0  0
  162.5160  210.9190  147.8760 C   0  0  0  0  0  2  0  0  0  0  0  0
  161.6500  207.9270  149.7910 C   0  0  1  0  0  3  0  0  0  0  0  0
  162.0550  211.7660  150.1690 C   0  0  0  0  0  2  0  0  0  0  0  0
  161.6600  210.3570  150.5140 C   0  0  0  0  0  0  0  0  0  0  0  0
  161.0400  205.9900  153.0100 C   0  0  0  0  0  0  0  0  0  0  0  0
  161.7110  209.9990  151.7650 N   0  0  0  0  0  0  0  0  0  0  0  0
  161.1580  207.0100  153.9610 C   0  0  0  0  0  3  0  0  0  0  0  0
  161.0020  204.5590  153.4780 C   0  0  0  0  0  2  0  0  0  0  0  0
  161.0010  207.0040  148.9410 O   0  0  0  0  0  0  0  0  0  0  0  0
  161.5070  205.7210  149.2420 C   0  0  2  0  0  3  0  0  0  0  0  0
  161.2170  209.3570  149.4490 C   0  0  1  0  0  3  0  0  0  0  0  0
  161.3460  208.3410  153.5640 C   0  0  0  0  0  0  0  0  0  0  0  0
  160.6640  203.5600  152.3630 C   0  0  0  0  0  2  0  0  0  0  0  0
  161.9440  212.0700  148.6800 C   0  0  0  0  0  2  0  0  0  0  0  0
  161.5840  209.7200  148.0000 C   0  0  0  0  0  2  0  0  0  0  0  0
  161.4810  204.8120  145.6310 C   0  0  2  0  0  3  0  0  0  0  0  0
  161.2260  201.3820  145.5140 O   0  0  0  0  0  0  0  0  0  0  0  0
  160.7210  206.1030  145.3260 C   0  0  0  0  0  1  0  0  0  0  0  0
  160.9780  202.2990  147.6720 C   0  0  0  0  0  3  0  0  0  0  0  0
  161.2280  204.7770  148.0510 C   0  0  2  0  0  3  0  0  0  0  0  0
  160.4940  203.6440  145.5140 C   0  0  0  0  0  2  0  0  0  0  0  0
  161.0770  203.3450  148.5000 C   0  0  0  0  0  3  0  0  0  0  0  0
  162.1900  204.8580  146.9280 N   0  0  0  0  0  0  0  0  0  0  0  0
  163.0580  206.0380  146.9600 C   0  0  0  0  0  1  0  0  0  0  0  0
  160.9420  202.3960  146.2020 C   0  0  0  0  0  0  0  0  0  0  0  0
  161.4450  209.4030  154.6090 C   0  0  0  0  0  2  0  0  0  0  0  0
  160.0710  209.7110  155.1720 C   0  0  0  0  0  1  0  0  0  0  0  0
  1  3  1  1  0  0  0
  1  4  1  0  0  0  0
  2  4  2  0  0  0  0
  2  5  1  0  0  0  0
  3 18  1  0  0  0  0
  4 10  1  0  0  0  0
  5 17  2  0  0  0  0
  6 20  1  0  0  0  0
  6 19  1  0  0  0  0
  7 14  1  6  0  0  0
  7  2  1  0  0  0  0
  8  9  1  0  0  0  0
  9 11  2  0  0  0  0
 10 13  1  0  0  0  0
 10 12  2  0  0  0  0
 11  5  1  0  0  0  0
 15 14  1  6  0  0  0
 15  1  1  0  0  0  0
 16 20  1  6  0  0  0
 16  7  1  0  0  0  0
 16  9  1  0  0  0  0
 17 12  1  0  0  0  0
 17 31  1  0  0  0  0
 18 13  1  0  0  0  0
 19  8  1  0  0  0  0
 21 23  1  1  0  0  0
 21 28  1  0  0  0  0
 22 30  2  0  0  0  0
 24 27  2  0  0  0  0
 25 27  1  1  0  0  0
 25 15  1  0  0  0  0
 26 21  1  0  0  0  0
 26 30  1  0  0  0  0
 28 29  1  0  0  0  0
 28 25  1  0  0  0  0
 30 24  1  0  0  0  0
 31 32  1  0  0  0  0
M  END
>  <MODEL>
3

>  <REMARK>
 VINA RESULT:      -6.4      1.092      1.329
  Name = 
  2 active torsions:
  status: ('A' for Active; 'I' for Inactive)
    1  A    between atoms: C_13  and  C_29
    2  A    between atoms: C_16  and  C_27
                            x       y       z     vdW  Elec       q    Type
                         _______ _______ _______ _____ _____    ______ ____

>  <TORSDO>
F 2

$$$$
=
 OpenBabel11062408213D

 32 37  0  0  1  0  0  0  0  0999 V2000
  160.5100  208.9600  154.5810 C   0  0  1  0  0  3  0  0  0  0  0  0
  161.2300  207.8360  152.4610 C   0  0  0  0  0  0  0  0  0  0  0  0
  159.4520  208.6740  155.6390 C   0  0  0  0  0  2  0  0  0  0  0  0
  160.8220  207.7150  153.7960 C   0  0  0  0  0  0  0  0  0  0  0  0
  161.6250  206.7060  151.7330 C   0  0  0  0  0  0  0  0  0  0  0  0
  161.6420  210.3890  148.3610 C   0  0  0  0  0  2  0  0  0  0  0  0
  161.0680  209.1650  151.7580 C   0  0  1  0  0  3  0  0  0  0  0  0
  162.4850  208.0500  148.3240 C   0  0  0  0  0  2  0  0  0  0  0  0
  162.1930  208.0150  149.7980 C   0  0  0  0  0  0  0  0  0  0  0  0
  160.7780  206.4460  154.4050 C   0  0  0  0  0  0  0  0  0  0  0  0
  162.0070  206.8540  150.3560 N   0  0  0  0  0  0  0  0  0  0  0  0
  161.1620  205.3180  153.6710 C   0  0  0  0  0  3  0  0  0  0  0  0
  160.1610  206.2550  155.7660 C   0  0  0  0  0  2  0  0  0  0  0  0
  161.2020  210.2390  152.6660 O   0  0  0  0  0  0  0  0  0  0  0  0
  160.1690  210.1210  153.6190 C   0  0  2  0  0  3  0  0  0  0  0  0
  162.1050  209.2890  150.6360 C   0  0  1  0  0  3  0  0  0  0  0  0
  161.6000  205.4410  152.3450 C   0  0  0  0  0  0  0  0  0  0  0  0
  159.9780  207.5650  156.5450 C   0  0  0  0  0  2  0  0  0  0  0  0
  162.6960  209.4610  147.7900 C   0  0  0  0  0  2  0  0  0  0  0  0
  161.9190  210.5950  149.8450 C   0  0  0  0  0  2  0  0  0  0  0  0
  158.4750  213.4040  154.0830 C   0  0  2  0  0  3  0  0  0  0  0  0
  159.2830  214.4530  157.2600 O   0  0  0  0  0  0  0  0  0  0  0  0
  158.6980  213.7130  152.6040 C   0  0  0  0  0  1  0  0  0  0  0  0
  160.4420  212.5260  156.5510 C   0  0  0  0  0  3  0  0  0  0  0  0
  159.9580  211.4880  154.3080 C   0  0  2  0  0  3  0  0  0  0  0  0
  159.4570  214.2560  154.8970 C   0  0  0  0  0  2  0  0  0  0  0  0
  160.5930  211.5270  155.6750 C   0  0  0  0  0  3  0  0  0  0  0  0
  158.5550  211.9580  154.3860 N   0  0  0  0  0  0  0  0  0  0  0  0
  157.6250  211.2330  153.5180 C   0  0  0  0  0  1  0  0  0  0  0  0
  159.6850  213.7620  156.2890 C   0  0  0  0  0  0  0  0  0  0  0  0
  162.0220  204.2160  151.6040 C   0  0  0  0  0  2  0  0  0  0  0  0
  160.8040  203.4280  151.1620 C   0  0  0  0  0  1  0  0  0  0  0  0
  1  3  1  1  0  0  0
  2  4  1  0  0  0  0
  3 18  1  0  0  0  0
  4 10  2  0  0  0  0
  4  1  1  0  0  0  0
  5 17  1  0  0  0  0
  5  2  2  0  0  0  0
  6 20  1  0  0  0  0
  7  2  1  1  0  0  0
  7 14  1  0  0  0  0
  8  9  1  0  0  0  0
  9 11  2  0  0  0  0
  9 16  1  0  0  0  0
 10 13  1  0  0  0  0
 11  5  1  0  0  0  0
 12 10  1  0  0  0  0
 13 18  1  0  0  0  0
 15 14  1  6  0  0  0
 15 25  1  0  0  0  0
 15  1  1  0  0  0  0
 16 20  1  6  0  0  0
 16  7  1  0  0  0  0
 17 12  2  0  0  0  0
 19  8  1  0  0  0  0
 19  6  1  0  0  0  0
 21 23  1  6  0  0  0
 21 28  1  0  0  0  0
 21 26  1  0  0  0  0
 25 28  1  0  0  0  0
 25 27  1  1  0  0  0
 26 30  1  0  0  0  0
 27 24  2  0  0  0  0
 29 28  1  0  0  0  0
 30 24  1  0  0  0  0
 30 22  2  0  0  0  0
 31 17  1  0  0  0  0
 32 31  1  0  0  0  0
M  END
>  <MODEL>
4

>  <REMARK>
 VINA RESULT:      -6.2      3.852      8.389
  Name = 
  2 active torsions:
  status: ('A' for Active; 'I' for Inactive)
    1  A    between atoms: C_13  and  C_29
    2  A    between atoms: C_16  and  C_27
                            x       y       z     vdW  Elec       q    Type
                         _______ _______ _______ _____ _____    ______ ____

>  <TORSDO>
F 2

$$$$
=
 OpenBabel11062408213D

 32 37  0  0  1  0  0  0  0  0999 V2000
  161.2400  208.1810  149.3840 C   0  0  1  0  0  3  0  0  0  0  0  0
  161.1530  206.9300  151.5530 C   0  0  0  0  0  0  0  0  0  0  0  0
  162.0450  208.0420  148.0980 C   0  0  0  0  0  2  0  0  0  0  0  0
  161.2480  206.8890  150.1560 C   0  0  0  0  0  0  0  0  0  0  0  0
  161.0570  205.7440  152.2930 C   0  0  0  0  0  0  0  0  0  0  0  0
  161.4550  209.3130  155.7630 C   0  0  0  0  0  2  0  0  0  0  0  0
  161.3390  208.2500  152.2670 C   0  0  1  0  0  3  0  0  0  0  0  0
  160.8860  206.8940  155.8730 C   0  0  0  0  0  2  0  0  0  0  0  0
  160.8270  206.9310  154.3710 C   0  0  0  0  0  0  0  0  0  0  0  0
  161.2770  205.6490  149.4880 C   0  0  0  0  0  0  0  0  0  0  0  0
  160.9950  205.8120  153.7270 N   0  0  0  0  0  0  0  0  0  0  0  0
  161.1920  204.4670  150.2320 C   0  0  0  0  0  3  0  0  0  0  0  0
  161.5750  205.5630  148.0140 C   0  0  0  0  0  2  0  0  0  0  0  0
  160.8880  209.3260  151.4700 O   0  0  0  0  0  0  0  0  0  0  0  0
  161.6770  209.3470  150.3000 C   0  0  2  0  0  3  0  0  0  0  0  0
  160.5870  208.2280  153.6020 C   0  0  1  0  0  3  0  0  0  0  0  0
  161.0660  204.5060  151.6270 C   0  0  0  0  0  0  0  0  0  0  0  0
  161.4360  206.9050  147.2820 C   0  0  0  0  0  2  0  0  0  0  0  0
  160.6630  208.2590  156.5130 C   0  0  0  0  0  2  0  0  0  0  0  0
  160.8190  209.5260  154.3950 C   0  0  0  0  0  2  0  0  0  0  0  0
  160.5850  212.9050  150.1740 C   0  0  2  0  0  3  0  0  0  0  0  0
  162.6370  214.4510  147.8850 O   0  0  0  0  0  0  0  0  0  0  0  0
  159.1430  212.4560  150.4120 C   0  0  0  0  0  1  0  0  0  0  0  0
  162.8880  212.1090  147.9840 C   0  0  0  0  0  3  0  0  0  0  0  0
  161.5810  210.7470  149.6520 C   0  0  2  0  0  3  0  0  0  0  0  0
  160.7140  213.3170  148.7030 C   0  0  0  0  0  2  0  0  0  0  0  0
  162.6420  210.9470  148.5990 C   0  0  0  0  0  3  0  0  0  0  0  0
  161.5770  211.8910  150.5930 N   0  0  0  0  0  0  0  0  0  0  0  0
  161.3300  211.5250  151.9890 C   0  0  0  0  0  1  0  0  0  0  0  0
  162.1210  213.3480  148.1990 C   0  0  0  0  0  0  0  0  0  0  0  0
  160.9560  203.2230  152.3820 C   0  0  0  0  0  2  0  0  0  0  0  0
  161.2030  202.0490  151.4550 C   0  0  0  0  0  1  0  0  0  0  0  0
  1  3  1  6  0  0  0
  1  4  1  0  0  0  0
  1 15  1  0  0  0  0
  2  7  1  0  0  0  0
  2  5  1  0  0  0  0
  4  2  2  0  0  0  0
  5 11  1  0  0  0  0
  6 19  1  0  0  0  0
  7 14  1  6  0  0  0
  7 16  1  0  0  0  0
  8 19  1  0  0  0  0
  9  8  1  0  0  0  0
 10  4  1  0  0  0  0
 10 12  2  0  0  0  0
 11  9  2  0  0  0  0
 12 17  1  0  0  0  0
 13 10  1  0  0  0  0
 15 14  1  1  0  0  0
 16  9  1  0  0  0  0
 16 20  1  1  0  0  0
 17  5  2  0  0  0  0
 17 31  1  0  0  0  0
 18 13  1  0  0  0  0
 18  3  1  0  0  0  0
 20  6  1  0  0  0  0
 21 23  1  6  0  0  0
 21 28  1  0  0  0  0
 22 30  2  0  0  0  0
 24 30  1  0  0  0  0
 24 27  2  0  0  0  0
 25 27  1  6  0  0  0
 25 15  1  0  0  0  0
 25 28  1  0  0  0  0
 26 21  1  0  0  0  0
 28 29  1  0  0  0  0
 30 26  1  0  0  0  0
 32 31  1  0  0  0  0
M  END
>  <MODEL>
5

>  <REMARK>
 VINA RESULT:      -5.8      3.138      7.018
  Name = 
  2 active torsions:
  status: ('A' for Active; 'I' for Inactive)
    1  A    between atoms: C_13  and  C_29
    2  A    between atoms: C_16  and  C_27
                            x       y       z     vdW  Elec       q    Type
                         _______ _______ _______ _____ _____    ______ ____

>  <TORSDO>
F 2

$$$$
=
 OpenBabel11062408213D

 32 37  0  0  1  0  0  0  0  0999 V2000
  161.0710  209.6570  151.0720 C   0  0  1  0  0  3  0  0  0  0  0  0
  160.2420  209.8290  153.4300 C   0  0  0  0  0  0  0  0  0  0  0  0
  162.3310  209.1070  150.4170 C   0  0  0  0  0  2  0  0  0  0  0  0
  160.8900  209.0700  152.4470 C   0  0  0  0  0  0  0  0  0  0  0  0
  159.9690  209.2760  154.6890 C   0  0  0  0  0  0  0  0  0  0  0  0
  158.6140  214.0610  155.1450 C   0  0  0  0  0  2  0  0  0  0  0  0
  160.0040  211.3020  153.1880 C   0  0  1  0  0  3  0  0  0  0  0  0
  158.2760  212.0560  156.5780 C   0  0  0  0  0  2  0  0  0  0  0  0
  158.8190  211.2530  155.4290 C   0  0  0  0  0  0  0  0  0  0  0  0
  161.2990  207.7530  152.7300 C   0  0  0  0  0  0  0  0  0  0  0  0
  159.3330  210.0860  155.6910 N   0  0  0  0  0  0  0  0  0  0  0  0
  161.0350  207.2080  153.9910 C   0  0  0  0  0  3  0  0  0  0  0  0
  162.1670  206.9820  151.7700 C   0  0  0  0  0  2  0  0  0  0  0  0
  159.8110  211.5660  151.8130 O   0  0  0  0  0  0  0  0  0  0  0  0
  160.9960  211.1990  151.1410 C   0  0  2  0  0  3  0  0  0  0  0  0
  158.7870  211.7700  153.9930 C   0  0  1  0  0  3  0  0  0  0  0  0
  160.3580  207.9540  154.9660 C   0  0  0  0  0  0  0  0  0  0  0  0
  162.2080  207.5870  150.3600 C   0  0  0  0  0  2  0  0  0  0  0  0
  157.6910  213.3950  156.1470 C   0  0  0  0  0  2  0  0  0  0  0  0
  158.5610  213.2840  153.8350 C   0  0  0  0  0  2  0  0  0  0  0  0
  159.9140  213.7680  148.6710 C   0  0  2  0  0  3  0  0  0  0  0  0
  162.4300  213.9580  146.3300 O   0  0  0  0  0  0  0  0  0  0  0  0
  158.4640  213.3280  148.8700 C   0  0  0  0  0  1  0  0  0  0  0  0
  162.6830  212.2030  147.8850 C   0  0  0  0  0  3  0  0  0  0  0  0
  161.0360  211.9080  149.7680 C   0  0  2  0  0  3  0  0  0  0  0  0
  160.3840  213.2430  147.3080 C   0  0  0  0  0  2  0  0  0  0  0  0
  162.3150  211.6100  149.0250 C   0  0  0  0  0  3  0  0  0  0  0  0
  160.7930  213.3690  149.7920 N   0  0  0  0  0  0  0  0  0  0  0  0
  160.2260  213.8660  151.0480 C   0  0  0  0  0  1  0  0  0  0  0  0
  161.8690  213.1900  147.1540 C   0  0  0  0  0  0  0  0  0  0  0  0
  160.0760  207.3290  156.2920 C   0  0  0  0  0  2  0  0  0  0  0  0
  161.2040  207.6270  157.2610 C   0  0  0  0  0  1  0  0  0  0  0  0
  1  3  1  1  0  0  0
  1 15  1  0  0  0  0
  1  4  1  0  0  0  0
  2  5  1  0  0  0  0
  4 10  1  0  0  0  0
  4  2  2  0  0  0  0
  5 17  2  0  0  0  0
  5 11  1  0  0  0  0
  6 19  1  0  0  0  0
  7 14  1  6  0  0  0
  7  2  1  0  0  0  0
  7 16  1  0  0  0  0
  9 11  2  0  0  0  0
  9  8  1  0  0  0  0
 10 12  2  0  0  0  0
 12 17  1  0  0  0  0
 13 10  1  0  0  0  0
 15 14  1  6  0  0  0
 16 20  1  1  0  0  0
 16  9  1  0  0  0  0
 17 31  1  0  0  0  0
 18  3  1  0  0  0  0
 18 13  1  0  0  0  0
 19  8  1  0  0  0  0
 20  6  1  0  0  0  0
 21 23  1  1  0  0  0
 21 28  1  0  0  0  0
 22 30  2  0  0  0  0
 24 27  2  0  0  0  0
 25 27  1  1  0  0  0
 25 28  1  0  0  0  0
 25 15  1  0  0  0  0
 26 21  1  0  0  0  0
 28 29  1  0  0  0  0
 30 26  1  0  0  0  0
 30 24  1  0  0  0  0
 31 32  1  0  0  0  0
M  END
>  <MODEL>
6

>  <REMARK>
 VINA RESULT:      -5.5      4.939      7.452
  Name = 
  2 active torsions:
  status: ('A' for Active; 'I' for Inactive)
    1  A    between atoms: C_13  and  C_29
    2  A    between atoms: C_16  and  C_27
                            x       y       z     vdW  Elec       q    Type
                         _______ _______ _______ _____ _____    ______ ____

>  <TORSDO>
F 2

$$$$
=
 OpenBabel11062408213D

 32 37  0  0  1  0  0  0  0  0999 V2000
  161.3500  206.9080  151.1100 C   0  0  1  0  0  3  0  0  0  0  0  0
  161.2970  209.3950  151.4150 C   0  0  0  0  0  0  0  0  0  0  0  0
  162.0210  205.7530  151.8430 C   0  0  0  0  0  2  0  0  0  0  0  0
  161.2680  208.1210  151.9980 C   0  0  0  0  0  0  0  0  0  0  0  0
  161.1220  210.5410  152.2020 C   0  0  0  0  0  0  0  0  0  0  0  0
  162.2350  212.3350  147.6770 C   0  0  0  0  0  2  0  0  0  0  0  0
  161.6990  209.5330  149.9640 C   0  0  1  0  0  3  0  0  0  0  0  0
  161.3910  213.3940  149.7630 C   0  0  0  0  0  2  0  0  0  0  0  0
  161.2110  211.9990  150.2930 C   0  0  0  0  0  0  0  0  0  0  0  0
  161.0930  207.9880  153.3890 C   0  0  0  0  0  0  0  0  0  0  0  0
  161.1890  211.8360  151.5840 N   0  0  0  0  0  0  0  0  0  0  0  0
  160.9290  209.1350  154.1730 C   0  0  0  0  0  3  0  0  0  0  0  0
  161.2530  206.6550  154.0720 C   0  0  0  0  0  2  0  0  0  0  0  0
  161.3150  208.3940  149.2200 O   0  0  0  0  0  0  0  0  0  0  0  0
  162.0000  207.2850  149.7590 C   0  0  2  0  0  3  0  0  0  0  0  0
  161.0650  210.7940  149.3670 C   0  0  1  0  0  3  0  0  0  0  0  0
  160.9260  210.4090  153.5880 C   0  0  0  0  0  0  0  0  0  0  0  0
  161.2150  205.4640  153.1050 C   0  0  0  0  0  2  0  0  0  0  0  0
  161.3890  213.4600  148.2410 C   0  0  0  0  0  2  0  0  0  0  0  0
  161.5170  211.0120  147.9130 C   0  0  0  0  0  2  0  0  0  0  0  0
  160.9130  204.0070  148.3650 C   0  0  2  0  0  3  0  0  0  0  0  0
  161.8000  204.0450  145.0400 O   0  0  0  0  0  0  0  0  0  0  0  0
  161.2340  203.3460  149.7050 C   0  0  0  0  0  1  0  0  0  0  0  0
  162.6130  205.8770  146.2810 C   0  0  0  0  0  3  0  0  0  0  0  0
  162.0180  206.1460  148.7130 C   0  0  2  0  0  3  0  0  0  0  0  0
  162.0080  203.6070  147.3680 C   0  0  0  0  0  2  0  0  0  0  0  0
  162.6070  206.6050  147.4030 C   0  0  0  0  0  3  0  0  0  0  0  0
  160.7220  205.4700  148.4780 N   0  0  0  0  0  0  0  0  0  0  0  0
  159.7030  205.7440  149.4940 C   0  0  0  0  0  1  0  0  0  0  0  0
  162.1000  204.5010  146.1730 C   0  0  0  0  0  0  0  0  0  0  0  0
  160.7270  211.6060  154.4570 C   0  0  0  0  0  2  0  0  0  0  0  0
  161.0950  211.2780  155.8900 C   0  0  0  0  0  1  0  0  0  0  0  0
  1  3  1  1  0  0  0
  1  4  1  0  0  0  0
  2  4  2  0  0  0  0
  2  5  1  0  0  0  0
  3 18  1  0  0  0  0
  4 10  1  0  0  0  0
  5 17  2  0  0  0  0
  6 20  1  0  0  0  0
  6 19  1  0  0  0  0
  7 14  1  6  0  0  0
  7  2  1  0  0  0  0
  8  9  1  0  0  0  0
  9 11  2  0  0  0  0
 10 13  1  0  0  0  0
 10 12  2  0  0  0  0
 11  5  1  0  0  0  0
 15 14  1  6  0  0  0
 15  1  1  0  0  0  0
 16 20  1  6  0  0  0
 16  7  1  0  0  0  0
 16  9  1  0  0  0  0
 17 12  1  0  0  0  0
 17 31  1  0  0  0  0
 18 13  1  0  0  0  0
 19  8  1  0  0  0  0
 21 28  1  0  0  0  0
 21 23  1  1  0  0  0
 22 30  2  0  0  0  0
 24 27  2  0  0  0  0
 25 27  1  6  0  0  0
 25 15  1  0  0  0  0
 26 21  1  0  0  0  0
 28 25  1  0  0  0  0
 28 29  1  0  0  0  0
 30 24  1  0  0  0  0
 30 26  1  0  0  0  0
 31 32  1  0  0  0  0
M  END
>  <MODEL>
7

>  <REMARK>
 VINA RESULT:      -5.3      2.017      3.460
  Name = 
  2 active torsions:
  status: ('A' for Active; 'I' for Inactive)
    1  A    between atoms: C_13  and  C_29
    2  A    between atoms: C_16  and  C_27
                            x       y       z     vdW  Elec       q    Type
                         _______ _______ _______ _____ _____    ______ ____

>  <TORSDO>
F 2

$$$$
