=
 OpenBabel11062408083D

 34 37  0  0  1  0  0  0  0  0999 V2000
  161.4350  207.7180  150.4760 N   0  0  0  0  0  0  0  0  0  0  0  0
  161.7510  206.2480  152.3740 C   0  0  2  0  0  3  0  0  0  0  0  0
  161.3450  206.3340  150.0190 C   0  0  1  0  0  3  0  0  0  0  0  0
  161.1430  205.4580  151.2360 C   0  0  1  0  0  3  0  0  0  0  0  0
  161.6320  207.6960  151.9280 C   0  0  2  0  0  3  0  0  0  0  0  0
  163.1050  205.9370  152.5310 O   0  0  0  0  0  1  0  0  0  0  0  0
  160.5560  207.2930  154.9380 C   0  0  0  0  0  3  0  0  0  0  0  0
  160.7910  210.0220  155.8570 C   0  0  0  0  0  3  0  0  0  0  0  0
  160.4560  208.3860  152.6290 C   0  0  2  0  0  3  0  0  0  0  0  0
  160.8720  208.9520  156.9250 C   0  0  0  0  0  2  0  0  0  0  0  0
  160.6960  209.6770  154.5730 C   0  0  0  0  0  0  0  0  0  0  0  0
  160.4290  209.8270  152.2720 N   0  0  0  0  0  0  0  0  0  0  0  0
  160.6070  208.3380  154.1140 C   0  0  0  0  0  0  0  0  0  0  0  0
  160.6640  207.5460  156.3900 C   0  0  0  0  0  0  0  0  0  0  0  0
  160.6020  206.5800  157.1930 O   0  0  0  0  0  0  0  0  0  0  0  0
  160.5880  210.5450  153.4760 N   0  0  0  0  0  0  0  0  0  0  0  0
  161.7710  204.2200  151.0670 O   0  0  0  0  0  0  0  0  0  0  0  0
  160.7850  203.2760  151.3580 C   0  0  0  0  0  2  0  0  0  0  0  0
  160.8310  202.1650  150.3300 C   0  0  0  0  0  1  0  0  0  0  0  0
  162.6420  208.2870  149.8950 C   0  0  0  0  0  2  0  0  0  0  0  0
  162.3310  208.8590  148.5260 C   0  0  0  0  0  2  0  0  0  0  0  0
  161.9550  211.4930  148.7260 C   0  0  0  0  0  0  0  0  0  0  0  0
  162.1250  210.3030  148.6360 C   0  0  0  0  0  0  0  0  0  0  0  0
  160.1150  212.9030  150.6440 O   0  0  0  0  0  0  0  0  0  0  0  0
  161.7500  212.9420  148.8340 C   0  0  2  0  0  3  0  0  0  0  0  0
  160.4560  213.2320  149.4770 C   0  0  0  0  0  0  0  0  0  0  0  0
  158.5170  214.4180  148.7690 O   0  0  0  0  0  0  0  0  0  0  0  0
  160.4740  214.1760  147.3450 C   0  0  0  0  0  2  0  0  0  0  0  0
  161.7240  213.5180  147.5330 O   0  0  0  0  0  0  0  0  0  0  0  0
  159.6800  213.9830  148.5680 C   0  0  0  0  0  0  0  0  0  0  0  0
  160.1740  206.1890  149.0610 C   0  0  0  0  0  2  0  0  0  0  0  0
  160.7690  206.1310  147.3460 S   0  0  0  0  0  0  0  0  0  0  0  0
  161.5790  204.5310  147.6150 C   0  0  0  0  0  2  0  0  0  0  0  0
  161.5830  203.7450  146.3220 C   0  0  0  0  0  1  0  0  0  0  0  0
  2  6  1  6  0  0  0
  3 31  1  6  0  0  0
  3  1  1  0  0  0  0
  3  4  1  0  0  0  0
  4 17  1  6  0  0  0
  4  2  1  0  0  0  0
  5  1  1  6  0  0  0
  5  2  1  0  0  0  0
  5  9  1  0  0  0  0
  7 14  1  0  0  0  0
  8 10  1  0  0  0  0
  9 12  1  6  0  0  0
  9 13  1  0  0  0  0
 11  8  2  0  0  0  0
 12 16  2  0  0  0  0
 13 11  1  0  0  0  0
 13  7  2  0  0  0  0
 14 10  1  0  0  0  0
 14 15  2  0  0  0  0
 16 11  1  0  0  0  0
 17 18  1  0  0  0  0
 19 18  1  0  0  0  0
 20  1  1  0  0  0  0
 21 23  1  0  0  0  0
 21 20  1  0  0  0  0
 23 22  3  0  0  0  0
 25 22  1  6  0  0  0
 25 26  1  0  0  0  0
 26 24  2  0  0  0  0
 28 29  1  0  0  0  0
 28 30  1  0  0  0  0
 29 25  1  0  0  0  0
 30 27  2  0  0  0  0
 30 26  1  0  0  0  0
 32 33  1  0  0  0  0
 32 31  1  0  0  0  0
 34 33  1  0  0  0  0
M  END
>  <MODEL>
1

>  <REMARK>
 VINA RESULT:      -6.7      0.000      0.000
  Name = 
  10 active torsions:
  status: ('A' for Active; 'I' for Inactive)
    1  A    between atoms: C_3  and  C_13
    2  A    between atoms: C_4  and  C_31
    3  A    between atoms: N_5  and  C_18
    4  A    between atoms: C_7  and  O_8
    5  A    between atoms: O_8  and  C_28
    6  A    between atoms: C_12  and  S_16
    7  A    between atoms: S_16  and  C_23
    8  A    between atoms: C_17  and  C_29
    9  A    between atoms: C_18  and  C_29
   10  A    between atoms: C_23  and  C_26
                            x       y       z     vdW  Elec       q    Type
                         _______ _______ _______ _____ _____    ______ ____

>  <TORSDO>
F 10

$$$$
=
 OpenBabel11062408083D

 34 37  0  0  1  0  0  0  0  0999 V2000
  161.3100  209.3400  152.2890 N   0  0  0  0  0  0  0  0  0  0  0  0
  161.1090  210.2180  154.5370 C   0  0  2  0  0  3  0  0  0  0  0  0
  161.5360  208.2550  153.2410 C   0  0  1  0  0  3  0  0  0  0  0  0
  161.0230  208.7080  154.5890 C   0  0  1  0  0  3  0  0  0  0  0  0
  160.9930  210.5470  153.0570 C   0  0  2  0  0  3  0  0  0  0  0  0
  162.3510  210.6640  155.0000 O   0  0  0  0  0  1  0  0  0  0  0  0
  158.5470  211.2000  155.0500 C   0  0  0  0  0  3  0  0  0  0  0  0
  158.0810  213.9470  154.2870 C   0  0  0  0  0  3  0  0  0  0  0  0
  159.5790  211.0320  152.7180 C   0  0  2  0  0  3  0  0  0  0  0  0
  157.6730  213.5700  155.6960 C   0  0  0  0  0  2  0  0  0  0  0  0
  158.6880  213.0530  153.5080 C   0  0  0  0  0  0  0  0  0  0  0  0
  159.6400  212.0530  151.6410 N   0  0  0  0  0  0  0  0  0  0  0  0
  158.9430  211.7100  153.8870 C   0  0  0  0  0  0  0  0  0  0  0  0
  157.8710  212.0980  156.0100 C   0  0  0  0  0  0  0  0  0  0  0  0
  157.4700  211.6390  157.1110 O   0  0  0  0  0  0  0  0  0  0  0  0
  159.1020  213.2410  152.1800 N   0  0  0  0  0  0  0  0  0  0  0  0
  161.8020  208.1770  155.6210 O   0  0  0  0  0  0  0  0  0  0  0  0
  160.9350  208.0770  156.7100 C   0  0  0  0  0  2  0  0  0  0  0  0
  159.7740  207.1740  156.3500 C   0  0  0  0  0  1  0  0  0  0  0  0
  162.5730  209.5910  151.6110 C   0  0  0  0  0  2  0  0  0  0  0  0
  162.3090  210.1570  150.2300 C   0  0  0  0  0  2  0  0  0  0  0  0
  161.5560  208.1910  148.5910 C   0  0  0  0  0  0  0  0  0  0  0  0
  161.8960  209.0790  149.3310 C   0  0  0  0  0  0  0  0  0  0  0  0
  159.8530  205.8160  149.3060 O   0  0  0  0  0  0  0  0  0  0  0  0
  161.1400  207.1120  147.6880 C   0  0  2  0  0  3  0  0  0  0  0  0
  160.7810  205.9070  148.4590 C   0  0  0  0  0  0  0  0  0  0  0  0
  161.6180  203.6780  148.4790 O   0  0  0  0  0  0  0  0  0  0  0  0
  162.5360  205.3900  147.0130 C   0  0  0  0  0  2  0  0  0  0  0  0
  162.2200  206.7660  146.8280 O   0  0  0  0  0  0  0  0  0  0  0  0
  161.6330  204.8600  148.0460 C   0  0  0  0  0  0  0  0  0  0  0  0
  160.7920  207.0120  152.7810 C   0  0  0  0  0  2  0  0  0  0  0  0
  161.9540  205.8110  152.0700 S   0  0  0  0  0  0  0  0  0  0  0  0
  160.7960  204.4410  152.3310 C   0  0  0  0  0  2  0  0  0  0  0  0
  161.4160  203.1540  151.8310 C   0  0  0  0  0  1  0  0  0  0  0  0
  1  3  1  0  0  0  0
  2  4  1  0  0  0  0
  2  6  1  6  0  0  0
  3 31  1  6  0  0  0
  3  4  1  0  0  0  0
  4 17  1  1  0  0  0
  5  1  1  6  0  0  0
  5  2  1  0  0  0  0
  7 14  1  0  0  0  0
  8 10  1  0  0  0  0
  9 12  1  6  0  0  0
  9  5  1  0  0  0  0
  9 13  1  0  0  0  0
 10 14  1  0  0  0  0
 11 13  1  0  0  0  0
 11  8  2  0  0  0  0
 12 16  2  0  0  0  0
 13  7  2  0  0  0  0
 14 15  2  0  0  0  0
 16 11  1  0  0  0  0
 17 18  1  0  0  0  0
 19 18  1  0  0  0  0
 20  1  1  0  0  0  0
 21 20  1  0  0  0  0
 22 23  3  0  0  0  0
 23 21  1  0  0  0  0
 25 26  1  0  0  0  0
 25 22  1  1  0  0  0
 26 24  2  0  0  0  0
 28 30  1  0  0  0  0
 29 28  1  0  0  0  0
 29 25  1  0  0  0  0
 30 26  1  0  0  0  0
 30 27  2  0  0  0  0
 32 33  1  0  0  0  0
 32 31  1  0  0  0  0
 34 33  1  0  0  0  0
M  END
>  <MODEL>
2

>  <REMARK>
 VINA RESULT:      -6.4      3.055      5.549
  Name = 
  10 active torsions:
  status: ('A' for Active; 'I' for Inactive)
    1  A    between atoms: C_3  and  C_13
    2  A    between atoms: C_4  and  C_31
    3  A    between atoms: N_5  and  C_18
    4  A    between atoms: C_7  and  O_8
    5  A    between atoms: O_8  and  C_28
    6  A    between atoms: C_12  and  S_16
    7  A    between atoms: S_16  and  C_23
    8  A    between atoms: C_17  and  C_29
    9  A    between atoms: C_18  and  C_29
   10  A    between atoms: C_23  and  C_26
                            x       y       z     vdW  Elec       q    Type
                         _______ _______ _______ _____ _____    ______ ____

>  <TORSDO>
F 10

$$$$
=
 OpenBabel11062408083D

 34 37  0  0  1  0  0  0  0  0999 V2000
  161.3260  206.9920  151.6420 N   0  0  0  0  0  0  0  0  0  0  0  0
  162.2080  207.4680  149.4380 C   0  0  2  0  0  3  0  0  0  0  0  0
  161.4330  208.4400  151.4800 C   0  0  1  0  0  3  0  0  0  0  0  0
  161.5930  208.7290  150.0040 C   0  0  1  0  0  3  0  0  0  0  0  0
  161.7460  206.3710  150.3830 C   0  0  2  0  0  3  0  0  0  0  0  0
  163.6040  207.5330  149.4730 O   0  0  0  0  0  1  0  0  0  0  0  0
  161.2040  205.6390  147.2920 C   0  0  0  0  0  3  0  0  0  0  0  0
  161.0960  202.7620  147.5350 C   0  0  0  0  0  3  0  0  0  0  0  0
  160.5830  205.5800  149.7710 C   0  0  2  0  0  3  0  0  0  0  0  0
  161.5140  203.3000  146.1830 C   0  0  0  0  0  2  0  0  0  0  0  0
  160.8760  203.6010  148.5470 C   0  0  0  0  0  0  0  0  0  0  0  0
  160.2570  204.4150  150.6310 N   0  0  0  0  0  0  0  0  0  0  0  0
  160.9540  205.0130  148.4400 C   0  0  0  0  0  0  0  0  0  0  0  0
  161.4770  204.8150  146.0960 C   0  0  0  0  0  0  0  0  0  0  0  0
  161.6990  205.3790  144.9930 O   0  0  0  0  0  0  0  0  0  0  0  0
  160.4620  203.2620  149.8440 N   0  0  0  0  0  0  0  0  0  0  0  0
  162.4120  209.8440  149.8030 O   0  0  0  0  0  0  0  0  0  0  0  0
  161.9690  210.4020  148.6030 C   0  0  0  0  0  2  0  0  0  0  0  0
  162.3400  211.8700  148.5600 C   0  0  0  0  0  1  0  0  0  0  0  0
  162.2970  206.5970  152.6510 C   0  0  0  0  0  2  0  0  0  0  0  0
  161.5820  205.9660  153.8300 C   0  0  0  0  0  2  0  0  0  0  0  0
  161.2340  207.7960  155.7410 C   0  0  0  0  0  0  0  0  0  0  0  0
  161.3910  206.9690  154.8780 C   0  0  0  0  0  0  0  0  0  0  0  0
  159.0460  209.8580  155.8750 O   0  0  0  0  0  0  0  0  0  0  0  0
  161.0450  208.8020  156.7920 C   0  0  2  0  0  3  0  0  0  0  0  0
  160.2340  209.9250  156.2890 C   0  0  0  0  0  0  0  0  0  0  0  0
  160.6450  212.2600  156.0700 O   0  0  0  0  0  0  0  0  0  0  0  0
  162.3130  210.7330  156.9680 C   0  0  0  0  0  2  0  0  0  0  0  0
  162.3090  209.3250  157.1840 O   0  0  0  0  0  0  0  0  0  0  0  0
  161.0080  211.1000  156.3970 C   0  0  0  0  0  0  0  0  0  0  0  0
  160.1770  209.1050  152.0180 C   0  0  0  0  0  2  0  0  0  0  0  0
  160.5740  210.7440  152.6930 S   0  0  0  0  0  0  0  0  0  0  0  0
  158.8250  211.2210  152.7320 C   0  0  0  0  0  2  0  0  0  0  0  0
  158.7100  212.6840  153.1040 C   0  0  0  0  0  1  0  0  0  0  0  0
  1 20  1  0  0  0  0
  2  6  1  1  0  0  0
  2  4  1  0  0  0  0
  2  5  1  0  0  0  0
  3  1  1  0  0  0  0
  3 31  1  6  0  0  0
  4 17  1  1  0  0  0
  4  3  1  0  0  0  0
  5  1  1  1  0  0  0
  7 13  2  0  0  0  0
  8 11  2  0  0  0  0
  9 13  1  6  0  0  0
  9  5  1  0  0  0  0
  9 12  1  0  0  0  0
 10  8  1  0  0  0  0
 11 16  1  0  0  0  0
 13 11  1  0  0  0  0
 14 10  1  0  0  0  0
 14  7  1  0  0  0  0
 15 14  2  0  0  0  0
 16 12  2  0  0  0  0
 18 17  1  0  0  0  0
 19 18  1  0  0  0  0
 20 21  1  0  0  0  0
 21 23  1  0  0  0  0
 23 22  3  0  0  0  0
 24 26  2  0  0  0  0
 25 22  1  6  0  0  0
 25 29  1  0  0  0  0
 26 30  1  0  0  0  0
 26 25  1  0  0  0  0
 27 30  2  0  0  0  0
 28 29  1  0  0  0  0
 30 28  1  0  0  0  0
 31 32  1  0  0  0  0
 32 33  1  0  0  0  0
 33 34  1  0  0  0  0
M  END
>  <MODEL>
3

>  <REMARK>
 VINA RESULT:      -6.2      2.746      7.744
  Name = 
  10 active torsions:
  status: ('A' for Active; 'I' for Inactive)
    1  A    between atoms: C_3  and  C_13
    2  A    between atoms: C_4  and  C_31
    3  A    between atoms: N_5  and  C_18
    4  A    between atoms: C_7  and  O_8
    5  A    between atoms: O_8  and  C_28
    6  A    between atoms: C_12  and  S_16
    7  A    between atoms: S_16  and  C_23
    8  A    between atoms: C_17  and  C_29
    9  A    between atoms: C_18  and  C_29
   10  A    between atoms: C_23  and  C_26
                            x       y       z     vdW  Elec       q    Type
                         _______ _______ _______ _____ _____    ______ ____

>  <TORSDO>
F 10

$$$$
=
 OpenBabel11062408083D

 34 37  0  0  1  0  0  0  0  0999 V2000
  161.0070  209.6050  152.4510 N   0  0  0  0  0  0  0  0  0  0  0  0
  160.7100  210.4660  154.6940 C   0  0  2  0  0  3  0  0  0  0  0  0
  161.3550  208.5570  153.4080 C   0  0  1  0  0  3  0  0  0  0  0  0
  160.7950  208.9570  154.7550 C   0  0  1  0  0  3  0  0  0  0  0  0
  160.5570  210.7720  153.2130 C   0  0  2  0  0  3  0  0  0  0  0  0
  161.8940  211.0520  155.1540 O   0  0  0  0  0  1  0  0  0  0  0  0
  158.0900  211.3230  155.2110 C   0  0  0  0  0  3  0  0  0  0  0  0
  157.3450  213.9520  154.2730 C   0  0  0  0  0  3  0  0  0  0  0  0
  159.0970  211.0930  152.8730 C   0  0  2  0  0  3  0  0  0  0  0  0
  156.9980  213.6370  155.7130 C   0  0  0  0  0  2  0  0  0  0  0  0
  158.0240  213.0690  153.5430 C   0  0  0  0  0  0  0  0  0  0  0  0
  159.0410  212.0370  151.7280 N   0  0  0  0  0  0  0  0  0  0  0  0
  158.4160  211.7870  154.0070 C   0  0  0  0  0  0  0  0  0  0  0  0
  157.3440  212.2170  156.1220 C   0  0  0  0  0  0  0  0  0  0  0  0
  157.0070  211.7990  157.2600 O   0  0  0  0  0  0  0  0  0  0  0  0
  158.3970  213.2030  152.1970 N   0  0  0  0  0  0  0  0  0  0  0  0
  161.6300  208.5230  155.7890 O   0  0  0  0  0  0  0  0  0  0  0  0
  160.7810  208.3410  156.8820 C   0  0  0  0  0  2  0  0  0  0  0  0
  160.0130  207.0460  156.7160 C   0  0  0  0  0  1  0  0  0  0  0  0
  162.2330  209.9920  151.7710 C   0  0  0  0  0  2  0  0  0  0  0  0
  162.1340  209.6420  150.2980 C   0  0  0  0  0  2  0  0  0  0  0  0
  162.0170  211.8840  148.8570 C   0  0  0  0  0  0  0  0  0  0  0  0
  162.0690  210.8710  149.5080 C   0  0  0  0  0  0  0  0  0  0  0  0
  159.6360  213.7010  148.5650 O   0  0  0  0  0  0  0  0  0  0  0  0
  161.9520  213.1180  148.0660 C   0  0  2  0  0  3  0  0  0  0  0  0
  160.5530  213.4470  147.7390 C   0  0  0  0  0  0  0  0  0  0  0  0
  159.3830  213.7210  145.6840 O   0  0  0  0  0  0  0  0  0  0  0  0
  161.7500  213.1590  145.7590 C   0  0  0  0  0  2  0  0  0  0  0  0
  162.6500  212.9360  146.8400 O   0  0  0  0  0  0  0  0  0  0  0  0
  160.4320  213.4710  146.3330 C   0  0  0  0  0  0  0  0  0  0  0  0
  160.7550  207.2350  152.9560 C   0  0  0  0  0  2  0  0  0  0  0  0
  162.0440  206.1700  152.2480 S   0  0  0  0  0  0  0  0  0  0  0  0
  161.0760  205.8940  150.7400 C   0  0  0  0  0  2  0  0  0  0  0  0
  160.7240  204.4260  150.6280 C   0  0  0  0  0  1  0  0  0  0  0  0
  1  3  1  0  0  0  0
  2  4  1  0  0  0  0
  2  6  1  6  0  0  0
  3 31  1  6  0  0  0
  3  4  1  0  0  0  0
  4 17  1  1  0  0  0
  5  1  1  6  0  0  0
  5  2  1  0  0  0  0
  7 14  1  0  0  0  0
  8 10  1  0  0  0  0
  9 12  1  6  0  0  0
  9  5  1  0  0  0  0
  9 13  1  0  0  0  0
 10 14  1  0  0  0  0
 11 13  1  0  0  0  0
 11  8  2  0  0  0  0
 12 16  2  0  0  0  0
 13  7  2  0  0  0  0
 14 15  2  0  0  0  0
 16 11  1  0  0  0  0
 17 18  1  0  0  0  0
 19 18  1  0  0  0  0
 20  1  1  0  0  0  0
 21 20  1  0  0  0  0
 22 23  3  0  0  0  0
 23 21  1  0  0  0  0
 25 22  1  1  0  0  0
 26 25  1  0  0  0  0
 26 24  2  0  0  0  0
 27 30  2  0  0  0  0
 28 30  1  0  0  0  0
 28 29  1  0  0  0  0
 29 25  1  0  0  0  0
 30 26  1  0  0  0  0
 32 31  1  0  0  0  0
 33 32  1  0  0  0  0
 34 33  1  0  0  0  0
M  END
>  <MODEL>
4

>  <REMARK>
 VINA RESULT:      -6.1      2.867      4.305
  Name = 
  10 active torsions:
  status: ('A' for Active; 'I' for Inactive)
    1  A    between atoms: C_3  and  C_13
    2  A    between atoms: C_4  and  C_31
    3  A    between atoms: N_5  and  C_18
    4  A    between atoms: C_7  and  O_8
    5  A    between atoms: O_8  and  C_28
    6  A    between atoms: C_12  and  S_16
    7  A    between atoms: S_16  and  C_23
    8  A    between atoms: C_17  and  C_29
    9  A    between atoms: C_18  and  C_29
   10  A    between atoms: C_23  and  C_26
                            x       y       z     vdW  Elec       q    Type
                         _______ _______ _______ _____ _____    ______ ____

>  <TORSDO>
F 10

$$$$
=
 OpenBabel11062408083D

 34 37  0  0  1  0  0  0  0  0999 V2000
  158.7220  211.9270  154.1070 N   0  0  0  0  0  0  0  0  0  0  0  0
  156.5640  211.6780  155.1760 C   0  0  2  0  0  3  0  0  0  0  0  0
  157.7860  212.8730  153.5050 C   0  0  1  0  0  3  0  0  0  0  0  0
  156.5920  212.9920  154.4250 C   0  0  1  0  0  3  0  0  0  0  0  0
  158.0120  211.2160  155.1730 C   0  0  2  0  0  3  0  0  0  0  0  0
  155.7900  210.7320  154.4980 O   0  0  0  0  0  1  0  0  0  0  0  0
  160.0880  209.3880  156.8260 C   0  0  0  0  0  3  0  0  0  0  0  0
  162.2670  211.2730  157.0290 C   0  0  0  0  0  3  0  0  0  0  0  0
  158.6760  211.4970  156.5270 C   0  0  2  0  0  3  0  0  0  0  0  0
  162.6480  209.8090  157.0850 C   0  0  0  0  0  2  0  0  0  0  0  0
  161.0000  211.6250  156.8190 C   0  0  0  0  0  0  0  0  0  0  0  0
  159.0870  212.9220  156.6010 N   0  0  0  0  0  0  0  0  0  0  0  0
  159.9290  210.7030  156.6920 C   0  0  0  0  0  0  0  0  0  0  0  0
  161.4540  208.8720  157.0510 C   0  0  0  0  0  0  0  0  0  0  0  0
  161.6320  207.6350  157.1990 O   0  0  0  0  0  0  0  0  0  0  0  0
  160.4880  212.9310  156.7660 N   0  0  0  0  0  0  0  0  0  0  0  0
  155.4190  213.1980  153.6930 O   0  0  0  0  0  0  0  0  0  0  0  0
  154.9550  214.4480  154.1060 C   0  0  0  0  0  2  0  0  0  0  0  0
  154.7890  214.4530  155.6110 C   0  0  0  0  0  1  0  0  0  0  0  0
  159.0540  210.9410  153.0900 C   0  0  0  0  0  2  0  0  0  0  0  0
  160.4570  211.1910  152.5720 C   0  0  0  0  0  2  0  0  0  0  0  0
  161.4720  208.9140  151.6210 C   0  0  0  0  0  0  0  0  0  0  0  0
  161.0140  209.9430  152.0510 C   0  0  0  0  0  0  0  0  0  0  0  0
  162.1960  208.3270  148.7600 O   0  0  0  0  0  0  0  0  0  0  0  0
  162.0300  207.6610  151.1010 C   0  0  2  0  0  3  0  0  0  0  0  0
  161.7750  207.5460  149.6540 C   0  0  0  0  0  0  0  0  0  0  0  0
  160.6080  205.9490  148.3280 O   0  0  0  0  0  0  0  0  0  0  0  0
  160.7780  205.7440  150.7470 C   0  0  0  0  0  2  0  0  0  0  0  0
  161.3980  206.5560  151.7390 O   0  0  0  0  0  0  0  0  0  0  0  0
  161.0110  206.3780  149.4410 C   0  0  0  0  0  0  0  0  0  0  0  0
  158.4640  214.2240  153.3390 C   0  0  0  0  0  2  0  0  0  0  0  0
  159.0000  214.4520  151.6190 S   0  0  0  0  0  0  0  0  0  0  0  0
  157.5360  213.5910  150.9830 C   0  0  0  0  0  2  0  0  0  0  0  0
  157.5310  213.6570  149.4710 C   0  0  0  0  0  1  0  0  0  0  0  0
  2  6  1  6  0  0  0
  3 31  1  1  0  0  0
  3  1  1  0  0  0  0
  3  4  1  0  0  0  0
  4 17  1  6  0  0  0
  4  2  1  0  0  0  0
  5  1  1  6  0  0  0
  5  2  1  0  0  0  0
  5  9  1  0  0  0  0
  7 14  1  0  0  0  0
  8 10  1  0  0  0  0
  9 12  1  6  0  0  0
  9 13  1  0  0  0  0
 11  8  2  0  0  0  0
 12 16  2  0  0  0  0
 13 11  1  0  0  0  0
 13  7  2  0  0  0  0
 14 10  1  0  0  0  0
 14 15  2  0  0  0  0
 16 11  1  0  0  0  0
 17 18  1  0  0  0  0
 18 19  1  0  0  0  0
 20  1  1  0  0  0  0
 21 20  1  0  0  0  0
 22 23  3  0  0  0  0
 23 21  1  0  0  0  0
 24 26  2  0  0  0  0
 25 22  1  1  0  0  0
 25 29  1  0  0  0  0
 26 25  1  0  0  0  0
 27 30  2  0  0  0  0
 28 29  1  0  0  0  0
 30 26  1  0  0  0  0
 30 28  1  0  0  0  0
 32 31  1  0  0  0  0
 33 32  1  0  0  0  0
 34 33  1  0  0  0  0
M  END
>  <MODEL>
5

>  <REMARK>
 VINA RESULT:      -5.8      3.856      7.433
  Name = 
  10 active torsions:
  status: ('A' for Active; 'I' for Inactive)
    1  A    between atoms: C_3  and  C_13
    2  A    between atoms: C_4  and  C_31
    3  A    between atoms: N_5  and  C_18
    4  A    between atoms: C_7  and  O_8
    5  A    between atoms: O_8  and  C_28
    6  A    between atoms: C_12  and  S_16
    7  A    between atoms: S_16  and  C_23
    8  A    between atoms: C_17  and  C_29
    9  A    between atoms: C_18  and  C_29
   10  A    between atoms: C_23  and  C_26
                            x       y       z     vdW  Elec       q    Type
                         _______ _______ _______ _____ _____    ______ ____

>  <TORSDO>
F 10

$$$$
=
 OpenBabel11062408083D

 34 37  0  0  1  0  0  0  0  0999 V2000
  160.6420  210.2240  153.6890 N   0  0  0  0  0  0  0  0  0  0  0  0
  161.8580  209.5380  151.7110 C   0  0  2  0  0  3  0  0  0  0  0  0
  160.5110  211.2640  152.6710 C   0  0  1  0  0  3  0  0  0  0  0  0
  160.9170  210.6640  151.3430 C   0  0  1  0  0  3  0  0  0  0  0  0
  161.4210  209.1280  153.1080 C   0  0  2  0  0  3  0  0  0  0  0  0
  163.1800  209.9890  151.7680 O   0  0  0  0  0  1  0  0  0  0  0  0
  160.7080  207.2700  150.5740 C   0  0  0  0  0  3  0  0  0  0  0  0
  161.7750  204.7690  151.5500 C   0  0  0  0  0  3  0  0  0  0  0  0
  160.5770  207.8490  153.0600 C   0  0  2  0  0  3  0  0  0  0  0  0
  161.7210  204.9260  150.0450 C   0  0  0  0  0  2  0  0  0  0  0  0
  161.4150  205.7800  152.3390 C   0  0  0  0  0  0  0  0  0  0  0  0
  160.8790  207.0000  154.2400 N   0  0  0  0  0  0  0  0  0  0  0  0
  160.9150  207.0200  151.8650 C   0  0  0  0  0  0  0  0  0  0  0  0
  161.0810  206.2270  149.5950 C   0  0  0  0  0  0  0  0  0  0  0  0
  160.8800  206.4290  148.3690 O   0  0  0  0  0  0  0  0  0  0  0  0
  161.3860  205.7810  153.7420 N   0  0  0  0  0  0  0  0  0  0  0  0
  161.5400  211.6200  150.5350 O   0  0  0  0  0  0  0  0  0  0  0  0
  161.7020  210.9940  149.2990 C   0  0  0  0  0  2  0  0  0  0  0  0
  162.4260  211.9270  148.3510 C   0  0  0  0  0  1  0  0  0  0  0  0
  161.4390  210.7790  154.7730 C   0  0  0  0  0  2  0  0  0  0  0  0
  160.8180  210.4090  156.1060 C   0  0  0  0  0  2  0  0  0  0  0  0
  158.4230  211.5660  156.3250 C   0  0  0  0  0  0  0  0  0  0  0  0
  159.5060  211.0440  156.2250 C   0  0  0  0  0  0  0  0  0  0  0  0
  155.9310  210.8120  154.8170 O   0  0  0  0  0  0  0  0  0  0  0  0
  157.1060  212.2010  156.4420 C   0  0  2  0  0  3  0  0  0  0  0  0
  156.3010  211.9410  155.2350 C   0  0  0  0  0  0  0  0  0  0  0  0
  155.2940  213.3630  153.6130 O   0  0  0  0  0  0  0  0  0  0  0  0
  156.5730  214.2430  155.4870 C   0  0  0  0  0  2  0  0  0  0  0  0
  157.2650  213.6100  156.5590 O   0  0  0  0  0  0  0  0  0  0  0  0
  155.9780  213.1860  154.6550 C   0  0  0  0  0  0  0  0  0  0  0  0
  159.0700  211.7440  152.6170 C   0  0  0  0  0  2  0  0  0  0  0  0
  159.0150  213.5360  152.3290 S   0  0  0  0  0  0  0  0  0  0  0  0
  158.0740  213.3240  150.7950 C   0  0  0  0  0  2  0  0  0  0  0  0
  158.9080  213.7970  149.6230 C   0  0  0  0  0  1  0  0  0  0  0  0
  1 20  1  0  0  0  0
  2  6  1  1  0  0  0
  2  5  1  0  0  0  0
  3 31  1  6  0  0  0
  3  1  1  0  0  0  0
  4 17  1  6  0  0  0
  4  2  1  0  0  0  0
  4  3  1  0  0  0  0
  5  1  1  6  0  0  0
  7 13  2  0  0  0  0
  8 11  2  0  0  0  0
  9 13  1  6  0  0  0
  9  5  1  0  0  0  0
  9 12  1  0  0  0  0
 10  8  1  0  0  0  0
 11 16  1  0  0  0  0
 13 11  1  0  0  0  0
 14 10  1  0  0  0  0
 14  7  1  0  0  0  0
 15 14  2  0  0  0  0
 16 12  2  0  0  0  0
 18 17  1  0  0  0  0
 19 18  1  0  0  0  0
 20 21  1  0  0  0  0
 21 23  1  0  0  0  0
 23 22  3  0  0  0  0
 24 26  2  0  0  0  0
 25 22  1  6  0  0  0
 25 29  1  0  0  0  0
 26 25  1  0  0  0  0
 27 30  2  0  0  0  0
 28 29  1  0  0  0  0
 30 26  1  0  0  0  0
 30 28  1  0  0  0  0
 32 31  1  0  0  0  0
 33 32  1  0  0  0  0
 34 33  1  0  0  0  0
M  END
>  <MODEL>
6

>  <REMARK>
 VINA RESULT:      -5.4      3.559      6.999
  Name = 
  10 active torsions:
  status: ('A' for Active; 'I' for Inactive)
    1  A    between atoms: C_3  and  C_13
    2  A    between atoms: C_4  and  C_31
    3  A    between atoms: N_5  and  C_18
    4  A    between atoms: C_7  and  O_8
    5  A    between atoms: O_8  and  C_28
    6  A    between atoms: C_12  and  S_16
    7  A    between atoms: S_16  and  C_23
    8  A    between atoms: C_17  and  C_29
    9  A    between atoms: C_18  and  C_29
   10  A    between atoms: C_23  and  C_26
                            x       y       z     vdW  Elec       q    Type
                         _______ _______ _______ _____ _____    ______ ____

>  <TORSDO>
F 10

$$$$
=
 OpenBabel11062408083D

 34 37  0  0  1  0  0  0  0  0999 V2000
  160.4290  213.1790  147.1010 N   0  0  0  0  0  0  0  0  0  0  0  0
  158.0600  213.4700  146.6970 C   0  0  2  0  0  3  0  0  0  0  0  0
  160.2230  213.4530  145.6810 C   0  0  1  0  0  3  0  0  0  0  0  0
  158.8310  214.0180  145.5160 C   0  0  1  0  0  3  0  0  0  0  0  0
  159.1210  213.2350  147.7590 C   0  0  2  0  0  3  0  0  0  0  0  0
  157.4640  212.2450  146.3800 O   0  0  0  0  0  1  0  0  0  0  0  0
  156.6290  214.3970  149.4390 C   0  0  0  0  0  3  0  0  0  0  0  0
  157.6480  213.9420  152.1050 C   0  0  0  0  0  3  0  0  0  0  0  0
  159.1050  214.3600  148.8020 C   0  0  2  0  0  3  0  0  0  0  0  0
  156.1400  213.9740  151.9650 C   0  0  0  0  0  2  0  0  0  0  0  0
  158.4190  214.0440  151.0230 C   0  0  0  0  0  0  0  0  0  0  0  0
  160.2990  214.2540  149.6780 N   0  0  0  0  0  0  0  0  0  0  0  0
  157.9240  214.2400  149.7090 C   0  0  0  0  0  0  0  0  0  0  0  0
  155.6690  214.2930  150.5580 C   0  0  0  0  0  0  0  0  0  0  0  0
  154.4410  214.4530  150.3360 O   0  0  0  0  0  0  0  0  0  0  0  0
  159.8220  214.0560  150.9910 N   0  0  0  0  0  0  0  0  0  0  0  0
  158.2720  213.6180  144.2980 O   0  0  0  0  0  0  0  0  0  0  0  0
  159.1770  214.0530  143.3290 C   0  0  0  0  0  2  0  0  0  0  0  0
  158.5800  213.8480  141.9520 C   0  0  0  0  0  1  0  0  0  0  0  0
  160.8980  211.8060  147.2130 C   0  0  0  0  0  2  0  0  0  0  0  0
  161.6350  211.6220  148.5260 C   0  0  0  0  0  2  0  0  0  0  0  0
  162.2190  209.0400  148.8620 C   0  0  0  0  0  0  0  0  0  0  0  0
  161.9540  210.2060  148.7110 C   0  0  0  0  0  0  0  0  0  0  0  0
  160.7840  206.7070  147.6160 O   0  0  0  0  0  0  0  0  0  0  0  0
  162.5370  207.6200  149.0470 C   0  0  2  0  0  3  0  0  0  0  0  0
  161.3630  206.7850  148.7320 C   0  0  0  0  0  0  0  0  0  0  0  0
  160.0860  205.2280  150.0020 O   0  0  0  0  0  0  0  0  0  0  0  0
  161.9880  206.4150  150.9480 C   0  0  0  0  0  2  0  0  0  0  0  0
  162.8830  207.3820  150.4070 O   0  0  0  0  0  0  0  0  0  0  0  0
  161.0310  206.0520  149.8920 C   0  0  0  0  0  0  0  0  0  0  0  0
  161.2620  214.4530  145.2000 C   0  0  0  0  0  2  0  0  0  0  0  0
  162.7730  213.5900  144.6820 S   0  0  0  0  0  0  0  0  0  0  0  0
  161.8680  212.6130  143.4510 C   0  0  0  0  0  2  0  0  0  0  0  0
  162.4300  212.8930  142.0730 C   0  0  0  0  0  1  0  0  0  0  0  0
  1 20  1  0  0  0  0
  2  6  1  6  0  0  0
  2  5  1  0  0  0  0
  3 31  1  1  0  0  0
  3  1  1  0  0  0  0
  4 17  1  6  0  0  0
  4  3  1  0  0  0  0
  4  2  1  0  0  0  0
  5  1  1  6  0  0  0
  5  9  1  0  0  0  0
  7 13  2  0  0  0  0
  7 14  1  0  0  0  0
  9 12  1  1  0  0  0
  9 13  1  0  0  0  0
 10  8  1  0  0  0  0
 11  8  2  0  0  0  0
 12 16  2  0  0  0  0
 13 11  1  0  0  0  0
 14 10  1  0  0  0  0
 15 14  2  0  0  0  0
 16 11  1  0  0  0  0
 18 17  1  0  0  0  0
 19 18  1  0  0  0  0
 20 21  1  0  0  0  0
 21 23  1  0  0  0  0
 23 22  3  0  0  0  0
 24 26  2  0  0  0  0
 25 22  1  1  0  0  0
 25 29  1  0  0  0  0
 26 25  1  0  0  0  0
 26 30  1  0  0  0  0
 29 28  1  0  0  0  0
 30 27  2  0  0  0  0
 30 28  1  0  0  0  0
 32 31  1  0  0  0  0
 33 32  1  0  0  0  0
 34 33  1  0  0  0  0
M  END
>  <MODEL>
7

>  <REMARK>
 VINA RESULT:      -4.5      3.905      8.494
  Name = 
  10 active torsions:
  status: ('A' for Active; 'I' for Inactive)
    1  A    between atoms: C_3  and  C_13
    2  A    between atoms: C_4  and  C_31
    3  A    between atoms: N_5  and  C_18
    4  A    between atoms: C_7  and  O_8
    5  A    between atoms: O_8  and  C_28
    6  A    between atoms: C_12  and  S_16
    7  A    between atoms: S_16  and  C_23
    8  A    between atoms: C_17  and  C_29
    9  A    between atoms: C_18  and  C_29
   10  A    between atoms: C_23  and  C_26
                            x       y       z     vdW  Elec       q    Type
                         _______ _______ _______ _____ _____    ______ ____

>  <TORSDO>
F 10

$$$$
=
 OpenBabel11062408083D

 34 37  0  0  1  0  0  0  0  0999 V2000
  161.9360  207.0840  149.7070 N   0  0  0  0  0  0  0  0  0  0  0  0
  160.3610  205.2850  149.3250 C   0  0  2  0  0  3  0  0  0  0  0  0
  161.6220  206.4530  150.9870 C   0  0  1  0  0  3  0  0  0  0  0  0
  160.9770  205.1170  150.6970 C   0  0  1  0  0  3  0  0  0  0  0  0
  161.2160  206.3530  148.6620 C   0  0  2  0  0  3  0  0  0  0  0  0
  159.0480  205.7570  149.4210 O   0  0  0  0  0  1  0  0  0  0  0  0
  161.5810  203.2500  147.8720 C   0  0  0  0  0  3  0  0  0  0  0  0
  161.1720  203.4730  145.0200 C   0  0  0  0  0  3  0  0  0  0  0  0
  162.2110  205.7200  147.6800 C   0  0  2  0  0  3  0  0  0  0  0  0
  160.8420  202.1300  145.6360 C   0  0  0  0  0  2  0  0  0  0  0  0
  161.5510  204.4870  145.7970 C   0  0  0  0  0  0  0  0  0  0  0  0
  162.3320  206.5690  146.4670 N   0  0  0  0  0  0  0  0  0  0  0  0
  161.7280  204.3910  147.2010 C   0  0  0  0  0  0  0  0  0  0  0  0
  161.1500  202.0530  147.1200 C   0  0  0  0  0  0  0  0  0  0  0  0
  161.0200  200.9570  147.7250 O   0  0  0  0  0  0  0  0  0  0  0  0
  161.9130  205.7770  145.3770 N   0  0  0  0  0  0  0  0  0  0  0  0
  160.0150  204.8090  151.6650 O   0  0  0  0  0  0  0  0  0  0  0  0
  160.5360  203.7100  152.3510 C   0  0  0  0  0  2  0  0  0  0  0  0
  161.1970  202.7680  151.3670 C   0  0  0  0  0  1  0  0  0  0  0  0
  161.3810  208.4290  149.7400 C   0  0  0  0  0  2  0  0  0  0  0  0
  162.3320  209.3570  150.4710 C   0  0  0  0  0  2  0  0  0  0  0  0
  160.9400  210.9760  152.0710 C   0  0  0  0  0  0  0  0  0  0  0  0
  161.5690  210.2440  151.3490 C   0  0  0  0  0  0  0  0  0  0  0  0
  161.2460  211.2350  155.0540 O   0  0  0  0  0  0  0  0  0  0  0  0
  160.1770  211.8660  152.9530 C   0  0  2  0  0  3  0  0  0  0  0  0
  160.2160  211.3720  154.3410 C   0  0  0  0  0  0  0  0  0  0  0  0
  158.5250  210.6950  155.8750 O   0  0  0  0  0  0  0  0  0  0  0  0
  157.9990  211.4550  153.6240 C   0  0  0  0  0  2  0  0  0  0  0  0
  158.8150  211.8920  152.5420 O   0  0  0  0  0  0  0  0  0  0  0  0
  158.8870  211.1220  154.7470 C   0  0  0  0  0  0  0  0  0  0  0  0
  162.9000  206.2620  151.7880 C   0  0  0  0  0  2  0  0  0  0  0  0
  162.5260  206.2020  153.5640 S   0  0  0  0  0  0  0  0  0  0  0  0
  161.2100  207.4370  153.3930 C   0  0  0  0  0  2  0  0  0  0  0  0
  160.6070  207.7220  154.7520 C   0  0  0  0  0  1  0  0  0  0  0  0
  1 20  1  0  0  0  0
  1  3  1  0  0  0  0
  2  6  1  1  0  0  0
  2  4  1  0  0  0  0
  3 31  1  1  0  0  0
  4  3  1  0  0  0  0
  4 17  1  1  0  0  0
  5  2  1  0  0  0  0
  5  1  1  1  0  0  0
  8 10  1  0  0  0  0
  8 11  2  0  0  0  0
  9 12  1  6  0  0  0
  9  5  1  0  0  0  0
 10 14  1  0  0  0  0
 11 13  1  0  0  0  0
 13  9  1  0  0  0  0
 13  7  2  0  0  0  0
 14 15  2  0  0  0  0
 14  7  1  0  0  0  0
 16 11  1  0  0  0  0
 16 12  2  0  0  0  0
 17 18  1  0  0  0  0
 19 18  1  0  0  0  0
 20 21  1  0  0  0  0
 21 23  1  0  0  0  0
 23 22  3  0  0  0  0
 25 22  1  6  0  0  0
 25 26  1  0  0  0  0
 26 30  1  0  0  0  0
 26 24  2  0  0  0  0
 28 30  1  0  0  0  0
 29 25  1  0  0  0  0
 29 28  1  0  0  0  0
 30 27  2  0  0  0  0
 31 32  1  0  0  0  0
 33 32  1  0  0  0  0
 33 34  1  0  0  0  0
M  END
>  <MODEL>
8

>  <REMARK>
 VINA RESULT:      -4.2      3.047      6.699
  Name = 
  10 active torsions:
  status: ('A' for Active; 'I' for Inactive)
    1  A    between atoms: C_3  and  C_13
    2  A    between atoms: C_4  and  C_31
    3  A    between atoms: N_5  and  C_18
    4  A    between atoms: C_7  and  O_8
    5  A    between atoms: O_8  and  C_28
    6  A    between atoms: C_12  and  S_16
    7  A    between atoms: S_16  and  C_23
    8  A    between atoms: C_17  and  C_29
    9  A    between atoms: C_18  and  C_29
   10  A    between atoms: C_23  and  C_26
                            x       y       z     vdW  Elec       q    Type
                         _______ _______ _______ _____ _____    ______ ____

>  <TORSDO>
F 10

$$$$
=
 OpenBabel11062408083D

 34 37  0  0  1  0  0  0  0  0999 V2000
  162.0870  207.1080  148.8760 N   0  0  0  0  0  0  0  0  0  0  0  0
  160.4300  205.3440  148.9100 C   0  0  2  0  0  3  0  0  0  0  0  0
  161.7830  206.7750  150.2650 C   0  0  1  0  0  3  0  0  0  0  0  0
  161.0750  205.4380  150.2750 C   0  0  1  0  0  3  0  0  0  0  0  0
  161.3100  206.2080  148.0210 C   0  0  2  0  0  3  0  0  0  0  0  0
  159.1410  205.8840  148.9280 O   0  0  0  0  0  1  0  0  0  0  0  0
  161.6660  203.0060  148.0410 C   0  0  0  0  0  3  0  0  0  0  0  0
  161.0800  202.4820  145.2610 C   0  0  0  0  0  3  0  0  0  0  0  0
  162.2500  205.3400  147.1770 C   0  0  2  0  0  3  0  0  0  0  0  0
  160.8060  201.3460  146.2230 C   0  0  0  0  0  2  0  0  0  0  0  0
  161.4930  203.6620  145.7230 C   0  0  0  0  0  0  0  0  0  0  0  0
  162.2860  205.8430  145.7810 N   0  0  0  0  0  0  0  0  0  0  0  0
  161.7560  203.9330  147.0900 C   0  0  0  0  0  0  0  0  0  0  0  0
  161.2050  201.6560  147.6550 C   0  0  0  0  0  0  0  0  0  0  0  0
  161.1260  200.7550  148.5290 O   0  0  0  0  0  0  0  0  0  0  0  0
  161.8110  204.7970  144.9610 N   0  0  0  0  0  0  0  0  0  0  0  0
  160.1290  205.3850  151.3030 O   0  0  0  0  0  0  0  0  0  0  0  0
  160.0620  204.0360  151.6580 C   0  0  0  0  0  2  0  0  0  0  0  0
  161.4570  203.4460  151.6620 C   0  0  0  0  0  1  0  0  0  0  0  0
  161.5890  208.4540  148.6350 C   0  0  0  0  0  2  0  0  0  0  0  0
  162.3310  209.4410  149.5160 C   0  0  0  0  0  2  0  0  0  0  0  0
  162.1560  211.8840  148.4560 C   0  0  0  0  0  0  0  0  0  0  0  0
  162.2360  210.7800  148.9350 C   0  0  0  0  0  0  0  0  0  0  0  0
  159.7720  213.7160  148.5550 O   0  0  0  0  0  0  0  0  0  0  0  0
  162.0620  213.2260  147.8720 C   0  0  2  0  0  3  0  0  0  0  0  0
  160.6510  213.5970  147.6610 C   0  0  0  0  0  0  0  0  0  0  0  0
  159.3950  214.1860  145.7260 O   0  0  0  0  0  0  0  0  0  0  0  0
  161.7600  213.6260  145.6100 C   0  0  0  0  0  2  0  0  0  0  0  0
  162.7060  213.2400  146.6030 O   0  0  0  0  0  0  0  0  0  0  0  0
  160.4700  213.8400  146.2820 C   0  0  0  0  0  0  0  0  0  0  0  0
  163.0730  206.6980  151.0650 C   0  0  0  0  0  2  0  0  0  0  0  0
  162.7070  206.5790  152.8390 S   0  0  0  0  0  0  0  0  0  0  0  0
  161.5900  208.0050  152.7680 C   0  0  0  0  0  2  0  0  0  0  0  0
  160.8300  208.1160  154.0730 C   0  0  0  0  0  1  0  0  0  0  0  0
  1  3  1  0  0  0  0
  2  6  1  1  0  0  0
  2  4  1  0  0  0  0
  3  4  1  0  0  0  0
  3 31  1  1  0  0  0
  4 17  1  1  0  0  0
  5  1  1  1  0  0  0
  5  2  1  0  0  0  0
  8 11  2  0  0  0  0
  8 10  1  0  0  0  0
  9 12  1  6  0  0  0
  9  5  1  0  0  0  0
 10 14  1  0  0  0  0
 11 13  1  0  0  0  0
 13  9  1  0  0  0  0
 13  7  2  0  0  0  0
 14  7  1  0  0  0  0
 14 15  2  0  0  0  0
 16 11  1  0  0  0  0
 16 12  2  0  0  0  0
 17 18  1  0  0  0  0
 18 19  1  0  0  0  0
 20  1  1  0  0  0  0
 20 21  1  0  0  0  0
 22 23  3  0  0  0  0
 23 21  1  0  0  0  0
 25 22  1  6  0  0  0
 26 25  1  0  0  0  0
 26 24  2  0  0  0  0
 27 30  2  0  0  0  0
 28 30  1  0  0  0  0
 28 29  1  0  0  0  0
 29 25  1  0  0  0  0
 30 26  1  0  0  0  0
 31 32  1  0  0  0  0
 33 32  1  0  0  0  0
 33 34  1  0  0  0  0
M  END
>  <MODEL>
9

>  <REMARK>
 VINA RESULT:      -4.0      2.445      6.189
  Name = 
  10 active torsions:
  status: ('A' for Active; 'I' for Inactive)
    1  A    between atoms: C_3  and  C_13
    2  A    between atoms: C_4  and  C_31
    3  A    between atoms: N_5  and  C_18
    4  A    between atoms: C_7  and  O_8
    5  A    between atoms: O_8  and  C_28
    6  A    between atoms: C_12  and  S_16
    7  A    between atoms: S_16  and  C_23
    8  A    between atoms: C_17  and  C_29
    9  A    between atoms: C_18  and  C_29
   10  A    between atoms: C_23  and  C_26
                            x       y       z     vdW  Elec       q    Type
                         _______ _______ _______ _____ _____    ______ ____

>  <TORSDO>
F 10

$$$$
