=
 OpenBabel11062410173D

 43 47  0  0  1  0  0  0  0  0999 V2000
  161.1980  203.9440  148.5010 C   0  0  0  0  0  0  0  0  0  0  0  0
  161.8850  208.6760  149.9810 C   0  0  0  0  0  0  0  0  0  0  0  0
  161.3010  208.8200  152.7240 C   0  0  0  0  0  0  0  0  0  0  0  0
  161.6790  206.2660  148.6000 C   0  0  0  0  0  0  0  0  0  0  0  0
  160.8810  203.9260  149.8600 C   0  0  0  0  0  3  0  0  0  0  0  0
  161.1000  202.5700  147.6260 S   0  0  0  0  0  0  0  0  0  0  0  0
  161.3700  206.2990  149.9770 C   0  0  0  0  0  0  0  0  0  0  0  0
  161.5870  205.1020  147.9030 N   0  0  0  0  0  2  0  0  0  0  0  0
  160.9670  205.1080  150.5990 C   0  0  0  0  0  3  0  0  0  0  0  0
  161.1830  207.5990  152.0470 C   0  0  0  0  0  3  0  0  0  0  0  0
  161.4730  207.5140  150.6790 C   0  0  0  0  0  0  0  0  0  0  0  0
  162.1740  208.6020  148.6520 N   0  0  0  0  0  0  0  0  0  0  0  0
  161.9940  209.9060  150.6540 C   0  0  0  0  0  0  0  0  0  0  0  0
  161.7050  209.9590  152.0260 C   0  0  0  0  0  3  0  0  0  0  0  0
  162.0810  207.4360  147.9570 C   0  0  0  0  0  3  0  0  0  0  0  0
  160.9920  208.9330  154.1830 C   0  0  2  0  0  3  0  0  0  0  0  0
  160.6280  207.5750  154.7650 C   0  0  0  0  0  1  0  0  0  0  0  0
  159.8830  209.9550  154.4200 C   0  0  0  0  0  2  0  0  0  0  0  0
  160.3150  211.0430  155.3520 C   0  0  0  0  0  0  0  0  0  0  0  0
  161.4370  211.5170  155.2570 O   0  0  0  0  0  0  0  0  0  0  0  0
  159.3150  211.6430  156.3050 C   0  0  0  0  0  2  0  0  0  0  0  0
  158.0350  212.0450  155.6990 N   0  0  0  0  0  0  0  0  0  0  0  0
  157.7960  213.7690  155.7630 S   0  0  0  0  0  0  0  0  0  0  0  0
  156.7440  214.1180  156.7820 O   0  0  0  0  0  0  0  0  0  0  0  0
  159.0860  214.4530  156.1240 O   0  0  0  0  0  0  0  0  0  0  0  0
  157.2580  214.3300  154.1600 C   0  0  1  0  0  3  0  0  0  0  0  0
  155.3830  214.4480  152.5590 C   0  0  0  0  0  2  0  0  0  0  0  0
  157.6050  213.9830  151.6970 C   0  0  0  0  0  3  0  0  0  0  0  0
  156.3500  214.2240  151.4960 N   0  0  0  0  0  0  0  0  0  0  0  0
  158.1860  213.7950  153.0740 C   0  0  0  0  0  2  0  0  0  0  0  0
  155.8410  213.8520  153.8870 C   0  0  0  0  0  2  0  0  0  0  0  0
  156.9100  211.3730  156.3420 C   0  0  0  0  0  2  0  0  0  0  0  0
  154.7980  210.4080  155.7810 O   0  0  0  0  0  1  0  0  0  0  0  0
  156.0980  210.6070  155.3120 C   0  0  0  0  0  2  0  0  0  0  0  0
  162.4160  211.0380  149.9330 O   0  0  0  0  0  0  0  0  0  0  0  0
  160.8850  212.6520  146.9820 C   0  0  0  0  0  3  0  0  0  0  0  0
  160.0190  213.5860  147.5720 C   0  0  0  0  0  0  0  0  0  0  0  0
  160.7430  212.8410  149.7630 C   0  0  0  0  0  3  0  0  0  0  0  0
  161.6730  211.8190  147.7810 C   0  0  0  0  0  3  0  0  0  0  0  0
  161.6150  211.9100  149.1760 C   0  0  0  0  0  0  0  0  0  0  0  0
  159.9540  213.6750  148.9660 C   0  0  0  0  0  3  0  0  0  0  0  0
  159.2170  214.4320  146.8010 O   0  0  0  0  0  0  0  0  0  0  0  0
  159.0500  214.2640  145.4000 C   0  0  0  0  0  1  0  0  0  0  0  0
  1  5  1  0  0  0  0
  2 13  2  0  0  0  0
  2 11  1  0  0  0  0
  3 16  1  0  0  0  0
  4  7  2  0  0  0  0
  5  9  2  0  0  0  0
  6  1  2  0  0  0  0
  7  9  1  0  0  0  0
  7 11  1  0  0  0  0
  8  1  1  0  0  0  0
  8  4  1  0  0  0  0
 10  3  1  0  0  0  0
 11 10  2  0  0  0  0
 12  2  1  0  0  0  0
 13 14  1  0  0  0  0
 14  3  2  0  0  0  0
 15  4  1  0  0  0  0
 15 12  2  0  0  0  0
 16 18  1  0  0  0  0
 16 17  1  6  0  0  0
 18 19  1  0  0  0  0
 19 21  1  0  0  0  0
 20 19  2  0  0  0  0
 22 23  1  0  0  0  0
 22 21  1  0  0  0  0
 22 32  1  0  0  0  0
 23 25  2  0  0  0  0
 23 24  2  0  0  0  0
 26 23  1  1  0  0  0
 27 31  1  0  0  0  0
 28 30  1  0  0  0  0
 29 28  2  0  0  0  0
 29 27  1  0  0  0  0
 30 26  1  0  0  0  0
 31 26  1  0  0  0  0
 34 33  1  0  0  0  0
 34 32  1  0  0  0  0
 35 13  1  0  0  0  0
 36 37  2  0  0  0  0
 36 39  1  0  0  0  0
 37 41  1  0  0  0  0
 39 40  2  0  0  0  0
 40 38  1  0  0  0  0
 40 35  1  0  0  0  0
 41 38  2  0  0  0  0
 42 37  1  0  0  0  0
 43 42  1  0  0  0  0
M  END
>  <MODEL>
1

>  <REMARK>
 VINA RESULT:      -7.4      0.000      0.000
  Name = 
  12 active torsions:
  status: ('A' for Active; 'I' for Inactive)
    1  A    between atoms: O_1  and  C_34
    2  A    between atoms: O_1  and  C_35
    3  A    between atoms: C_2  and  C_6
    4  A    between atoms: C_2  and  C_13
    5  A    between atoms: C_3  and  N_4
    6  A    between atoms: C_3  and  C_12
    7  A    between atoms: N_4  and  S_14
    8  A    between atoms: N_4  and  C_15
    9  A    between atoms: C_6  and  C_12
   10  A    between atoms: C_11  and  S_14
   11  A    between atoms: C_15  and  C_42
   12  A    between atoms: C_19  and  O_25
                            x       y       z     vdW  Elec       q    Type
                         _______ _______ _______ _____ _____    ______ ____

>  <TORSDO>
F 12

$$$$
=
 OpenBabel11062410173D

 43 47  0  0  1  0  0  0  0  0999 V2000
  161.0330  202.9800  146.9860 C   0  0  0  0  0  0  0  0  0  0  0  0
  161.3580  205.9580  150.9960 C   0  0  0  0  0  0  0  0  0  0  0  0
  162.0030  208.5430  150.1080 C   0  0  0  0  0  0  0  0  0  0  0  0
  161.0410  203.8620  149.1900 C   0  0  0  0  0  0  0  0  0  0  0  0
  161.3620  204.2300  146.4580 C   0  0  0  0  0  3  0  0  0  0  0  0
  160.8330  201.7050  145.9890 S   0  0  0  0  0  0  0  0  0  0  0  0
  161.3730  205.1450  148.7040 C   0  0  0  0  0  0  0  0  0  0  0  0
  160.8810  202.8220  148.3280 N   0  0  0  0  0  2  0  0  0  0  0  0
  161.5330  205.3150  147.3210 C   0  0  0  0  0  3  0  0  0  0  0  0
  161.8570  207.5020  149.1820 C   0  0  0  0  0  3  0  0  0  0  0  0
  161.5330  206.2080  149.6130 C   0  0  0  0  0  0  0  0  0  0  0  0
  161.0370  204.7060  151.4240 N   0  0  0  0  0  0  0  0  0  0  0  0
  161.5140  206.9980  151.9300 C   0  0  0  0  0  0  0  0  0  0  0  0
  161.8300  208.2860  151.4690 C   0  0  0  0  0  3  0  0  0  0  0  0
  160.8770  203.6670  150.5610 C   0  0  0  0  0  3  0  0  0  0  0  0
  162.3530  209.9300  149.6680 C   0  0  2  0  0  3  0  0  0  0  0  0
  162.0980  210.9300  150.7840 C   0  0  0  0  0  1  0  0  0  0  0  0
  161.5870  210.3010  148.4020 C   0  0  0  0  0  2  0  0  0  0  0  0
  161.8350  211.7200  147.9940 C   0  0  0  0  0  0  0  0  0  0  0  0
  162.9780  212.1480  147.9380 O   0  0  0  0  0  0  0  0  0  0  0  0
  160.6830  212.5660  147.5190 C   0  0  0  0  0  2  0  0  0  0  0  0
  160.1160  212.1780  146.2170 N   0  0  0  0  0  0  0  0  0  0  0  0
  160.8870  213.0110  144.8960 S   0  0  0  0  0  0  0  0  0  0  0  0
  160.4560  214.4530  144.8580 O   0  0  0  0  0  0  0  0  0  0  0  0
  162.3820  212.9410  145.0480 O   0  0  0  0  0  0  0  0  0  0  0  0
  160.4100  212.2250  143.3700 C   0  0  1  0  0  3  0  0  0  0  0  0
  161.1950  211.2150  141.2590 C   0  0  0  0  0  2  0  0  0  0  0  0
  159.2230  212.6290  141.1940 C   0  0  0  0  0  3  0  0  0  0  0  0
  160.0530  211.8320  140.6040 N   0  0  0  0  0  0  0  0  0  0  0  0
  159.4150  213.0990  142.6120 C   0  0  0  0  0  2  0  0  0  0  0  0
  161.6330  211.9890  142.4990 C   0  0  0  0  0  2  0  0  0  0  0  0
  158.6770  212.4200  146.1710 C   0  0  0  0  0  2  0  0  0  0  0  0
  156.8770  213.1290  147.5710 O   0  0  0  0  0  1  0  0  0  0  0  0
  158.2490  213.2660  147.3580 C   0  0  0  0  0  2  0  0  0  0  0  0
  161.3210  206.7180  153.2950 O   0  0  0  0  0  0  0  0  0  0  0  0
  160.5600  209.8870  155.0390 C   0  0  0  0  0  3  0  0  0  0  0  0
  159.8820  209.4380  156.1830 C   0  0  0  0  0  0  0  0  0  0  0  0
  160.1570  207.1520  155.4250 C   0  0  0  0  0  3  0  0  0  0  0  0
  161.0320  208.9700  154.0960 C   0  0  0  0  0  3  0  0  0  0  0  0
  160.8420  207.5960  154.2820 C   0  0  0  0  0  0  0  0  0  0  0  0
  159.6840  208.0670  156.3690 C   0  0  0  0  0  3  0  0  0  0  0  0
  159.3960  210.3290  157.1440 O   0  0  0  0  0  0  0  0  0  0  0  0
  158.4680  211.3610  156.8350 C   0  0  0  0  0  1  0  0  0  0  0  0
  1  8  1  0  0  0  0
  2 12  1  0  0  0  0
  2 13  1  0  0  0  0
  3 14  1  0  0  0  0
  4 15  1  0  0  0  0
  5  1  1  0  0  0  0
  5  9  2  0  0  0  0
  6  1  2  0  0  0  0
  7  4  2  0  0  0  0
  7 11  1  0  0  0  0
  8  4  1  0  0  0  0
  9  7  1  0  0  0  0
 10 11  1  0  0  0  0
 10  3  2  0  0  0  0
 11  2  2  0  0  0  0
 13 35  1  0  0  0  0
 14 13  2  0  0  0  0
 15 12  2  0  0  0  0
 16  3  1  0  0  0  0
 16 17  1  1  0  0  0
 18 16  1  0  0  0  0
 19 18  1  0  0  0  0
 20 19  2  0  0  0  0
 21 19  1  0  0  0  0
 22 21  1  0  0  0  0
 23 25  2  0  0  0  0
 23 22  1  0  0  0  0
 24 23  2  0  0  0  0
 26 23  1  1  0  0  0
 27 31  1  0  0  0  0
 28 30  1  0  0  0  0
 29 28  2  0  0  0  0
 29 27  1  0  0  0  0
 30 26  1  0  0  0  0
 31 26  1  0  0  0  0
 32 22  1  0  0  0  0
 32 34  1  0  0  0  0
 34 33  1  0  0  0  0
 35 40  1  0  0  0  0
 36 37  1  0  0  0  0
 37 41  2  0  0  0  0
 37 42  1  0  0  0  0
 38 41  1  0  0  0  0
 39 40  1  0  0  0  0
 39 36  2  0  0  0  0
 40 38  2  0  0  0  0
 43 42  1  0  0  0  0
M  END
>  <MODEL>
2

>  <REMARK>
 VINA RESULT:      -7.2      3.511      7.969
  Name = 
  12 active torsions:
  status: ('A' for Active; 'I' for Inactive)
    1  A    between atoms: O_1  and  C_34
    2  A    between atoms: O_1  and  C_35
    3  A    between atoms: C_2  and  C_6
    4  A    between atoms: C_2  and  C_13
    5  A    between atoms: C_3  and  N_4
    6  A    between atoms: C_3  and  C_12
    7  A    between atoms: N_4  and  S_14
    8  A    between atoms: N_4  and  C_15
    9  A    between atoms: C_6  and  C_12
   10  A    between atoms: C_11  and  S_14
   11  A    between atoms: C_15  and  C_42
   12  A    between atoms: C_19  and  O_25
                            x       y       z     vdW  Elec       q    Type
                         _______ _______ _______ _____ _____    ______ ____

>  <TORSDO>
F 12

$$$$
=
 OpenBabel11062410173D

 43 47  0  0  1  0  0  0  0  0999 V2000
  160.8230  207.5680  155.2950 C   0  0  0  0  0  0  0  0  0  0  0  0
  161.7650  209.9080  150.9710 C   0  0  0  0  0  0  0  0  0  0  0  0
  161.5740  208.0170  148.9030 C   0  0  0  0  0  0  0  0  0  0  0  0
  161.3340  209.1740  153.6230 C   0  0  0  0  0  0  0  0  0  0  0  0
  160.7170  206.5630  154.3320 C   0  0  0  0  0  3  0  0  0  0  0  0
  160.5850  207.2140  156.8700 S   0  0  0  0  0  0  0  0  0  0  0  0
  161.2350  208.1930  152.6130 C   0  0  0  0  0  0  0  0  0  0  0  0
  161.1270  208.8420  154.9260 N   0  0  0  0  0  2  0  0  0  0  0  0
  160.9240  206.8780  152.9880 C   0  0  0  0  0  3  0  0  0  0  0  0
  161.3610  207.6250  150.2310 C   0  0  0  0  0  3  0  0  0  0  0  0
  161.4520  208.5590  151.2720 C   0  0  0  0  0  0  0  0  0  0  0  0
  161.8490  210.8240  151.9750 N   0  0  0  0  0  0  0  0  0  0  0  0
  161.9900  210.3040  149.6410 C   0  0  0  0  0  0  0  0  0  0  0  0
  161.8840  209.3480  148.6180 C   0  0  0  0  0  3  0  0  0  0  0  0
  161.6430  210.4890  153.2770 C   0  0  0  0  0  3  0  0  0  0  0  0
  161.4860  207.0350  147.7790 C   0  0  2  0  0  3  0  0  0  0  0  0
  160.1670  206.2800  147.8220 C   0  0  0  0  0  1  0  0  0  0  0  0
  162.6750  206.0780  147.8070 C   0  0  0  0  0  2  0  0  0  0  0  0
  162.6910  205.1700  146.6180 C   0  0  0  0  0  0  0  0  0  0  0  0
  162.9260  205.6230  145.5080 O   0  0  0  0  0  0  0  0  0  0  0  0
  162.5590  203.6830  146.8190 C   0  0  0  0  0  2  0  0  0  0  0  0
  161.1960  203.1480  146.6610 N   0  0  0  0  0  0  0  0  0  0  0  0
  160.8250  201.9440  147.8640 S   0  0  0  0  0  0  0  0  0  0  0  0
  159.3510  201.6390  147.8670 O   0  0  0  0  0  0  0  0  0  0  0  0
  161.5940  200.6830  147.5820 O   0  0  0  0  0  0  0  0  0  0  0  0
  161.2890  202.5750  149.4640 C   0  0  1  0  0  3  0  0  0  0  0  0
  161.5690  202.0600  151.8610 C   0  0  0  0  0  2  0  0  0  0  0  0
  160.6070  204.2030  151.2500 C   0  0  0  0  0  3  0  0  0  0  0  0
  161.0510  203.3870  152.1500 N   0  0  0  0  0  0  0  0  0  0  0  0
  160.4720  203.8190  149.8000 C   0  0  0  0  0  2  0  0  0  0  0  0
  161.0530  201.5180  150.5310 C   0  0  0  0  0  2  0  0  0  0  0  0
  160.9990  202.5830  145.3300 C   0  0  0  0  0  2  0  0  0  0  0  0
  160.3680  204.5720  144.1680 O   0  0  0  0  0  1  0  0  0  0  0  0
  159.8970  203.3310  144.6000 C   0  0  0  0  0  2  0  0  0  0  0  0
  162.2870  211.6530  149.3770 O   0  0  0  0  0  0  0  0  0  0  0  0
  162.8870  213.3390  146.1430 C   0  0  0  0  0  3  0  0  0  0  0  0
  161.5950  213.7510  145.7810 C   0  0  0  0  0  0  0  0  0  0  0  0
  160.7320  212.7730  147.8250 C   0  0  0  0  0  3  0  0  0  0  0  0
  163.0960  212.6490  147.3400 C   0  0  0  0  0  3  0  0  0  0  0  0
  162.0240  212.3650  148.1940 C   0  0  0  0  0  0  0  0  0  0  0  0
  160.5210  213.4630  146.6280 C   0  0  0  0  0  3  0  0  0  0  0  0
  161.3520  214.4420  144.5910 O   0  0  0  0  0  0  0  0  0  0  0  0
  160.3920  214.0110  143.6350 C   0  0  0  0  0  1  0  0  0  0  0  0
  1  6  2  0  0  0  0
  2 11  1  0  0  0  0
  2 12  1  0  0  0  0
  3 10  1  0  0  0  0
  4  8  1  0  0  0  0
  5  1  1  0  0  0  0
  7  9  1  0  0  0  0
  7  4  2  0  0  0  0
  8  1  1  0  0  0  0
  9  5  2  0  0  0  0
 10 11  2  0  0  0  0
 11  7  1  0  0  0  0
 12 15  2  0  0  0  0
 13  2  2  0  0  0  0
 14  3  2  0  0  0  0
 14 13  1  0  0  0  0
 15  4  1  0  0  0  0
 16 18  1  0  0  0  0
 16 17  1  1  0  0  0
 16  3  1  0  0  0  0
 19 21  1  0  0  0  0
 19 18  1  0  0  0  0
 20 19  2  0  0  0  0
 22 21  1  0  0  0  0
 22 23  1  0  0  0  0
 23 24  2  0  0  0  0
 25 23  2  0  0  0  0
 26 23  1  6  0  0  0
 26 30  1  0  0  0  0
 26 31  1  0  0  0  0
 27 29  1  0  0  0  0
 28 29  2  0  0  0  0
 30 28  1  0  0  0  0
 31 27  1  0  0  0  0
 32 22  1  0  0  0  0
 33 34  1  0  0  0  0
 34 32  1  0  0  0  0
 35 13  1  0  0  0  0
 36 39  1  0  0  0  0
 37 36  2  0  0  0  0
 37 41  1  0  0  0  0
 38 40  1  0  0  0  0
 39 40  2  0  0  0  0
 40 35  1  0  0  0  0
 41 38  2  0  0  0  0
 42 37  1  0  0  0  0
 43 42  1  0  0  0  0
M  END
>  <MODEL>
3

>  <REMARK>
 VINA RESULT:      -7.0      4.132      8.923
  Name = 
  12 active torsions:
  status: ('A' for Active; 'I' for Inactive)
    1  A    between atoms: O_1  and  C_34
    2  A    between atoms: O_1  and  C_35
    3  A    between atoms: C_2  and  C_6
    4  A    between atoms: C_2  and  C_13
    5  A    between atoms: C_3  and  N_4
    6  A    between atoms: C_3  and  C_12
    7  A    between atoms: N_4  and  S_14
    8  A    between atoms: N_4  and  C_15
    9  A    between atoms: C_6  and  C_12
   10  A    between atoms: C_11  and  S_14
   11  A    between atoms: C_15  and  C_42
   12  A    between atoms: C_19  and  O_25
                            x       y       z     vdW  Elec       q    Type
                         _______ _______ _______ _____ _____    ______ ____

>  <TORSDO>
F 12

$$$$
=
 OpenBabel11062410173D

 43 47  0  0  1  0  0  0  0  0999 V2000
  161.3310  204.1410  148.2800 C   0  0  0  0  0  0  0  0  0  0  0  0
  161.7530  208.4270  150.8320 C   0  0  0  0  0  0  0  0  0  0  0  0
  162.0070  210.5200  148.9760 C   0  0  0  0  0  0  0  0  0  0  0  0
  161.4790  205.7890  149.9830 C   0  0  0  0  0  0  0  0  0  0  0  0
  161.4610  205.1170  147.2900 C   0  0  0  0  0  3  0  0  0  0  0  0
  161.1680  202.5740  147.8590 S   0  0  0  0  0  0  0  0  0  0  0  0
  161.6120  206.8110  149.0190 C   0  0  0  0  0  0  0  0  0  0  0  0
  161.3430  204.4930  149.5940 N   0  0  0  0  0  2  0  0  0  0  0  0
  161.6020  206.4560  147.6630 C   0  0  0  0  0  3  0  0  0  0  0  0
  161.8800  209.1990  148.5270 C   0  0  0  0  0  3  0  0  0  0  0  0
  161.7500  208.1460  149.4430 C   0  0  0  0  0  0  0  0  0  0  0  0
  161.6220  207.4110  151.7290 N   0  0  0  0  0  0  0  0  0  0  0  0
  161.8920  209.7500  151.2870 C   0  0  0  0  0  0  0  0  0  0  0  0
  162.0120  210.7850  150.3460 C   0  0  0  0  0  3  0  0  0  0  0  0
  161.4860  206.1160  151.3380 C   0  0  0  0  0  3  0  0  0  0  0  0
  162.1520  211.6570  148.0140 C   0  0  2  0  0  3  0  0  0  0  0  0
  163.4660  212.3880  148.2370 C   0  0  0  0  0  1  0  0  0  0  0  0
  160.9620  212.6060  148.1220 C   0  0  0  0  0  2  0  0  0  0  0  0
  160.1480  212.6280  146.8660 C   0  0  0  0  0  0  0  0  0  0  0  0
  158.9510  212.8670  146.9200 O   0  0  0  0  0  0  0  0  0  0  0  0
  160.8380  212.4980  145.5340 C   0  0  0  0  0  2  0  0  0  0  0  0
  160.5290  213.5590  144.5610 N   0  0  0  0  0  0  0  0  0  0  0  0
  160.0320  212.9090  143.0230 S   0  0  0  0  0  0  0  0  0  0  0  0
  159.8460  211.4180  143.1150 O   0  0  0  0  0  0  0  0  0  0  0  0
  158.7400  213.5470  142.5900 O   0  0  0  0  0  0  0  0  0  0  0  0
  161.2980  213.2620  141.8200 C   0  0  1  0  0  3  0  0  0  0  0  0
  161.8580  214.4530  139.7330 C   0  0  0  0  0  2  0  0  0  0  0  0
  162.7180  212.2040  140.0390 C   0  0  0  0  0  3  0  0  0  0  0  0
  162.6550  213.2980  139.3520 N   0  0  0  0  0  0  0  0  0  0  0  0
  161.8760  211.9640  141.2650 C   0  0  0  0  0  2  0  0  0  0  0  0
  160.7190  214.0810  140.6770 C   0  0  0  0  0  2  0  0  0  0  0  0
  161.6680  214.4500  144.3680 C   0  0  0  0  0  2  0  0  0  0  0  0
  163.8670  213.7340  143.7700 O   0  0  0  0  0  1  0  0  0  0  0  0
  162.9490  213.7690  144.8210 C   0  0  0  0  0  2  0  0  0  0  0  0
  161.8800  209.9950  152.6720 O   0  0  0  0  0  0  0  0  0  0  0  0
  160.1720  211.6550  155.4980 C   0  0  0  0  0  3  0  0  0  0  0  0
  158.8870  211.8740  154.9790 C   0  0  0  0  0  0  0  0  0  0  0  0
  159.5720  210.8320  152.8990 C   0  0  0  0  0  3  0  0  0  0  0  0
  161.1490  211.0280  154.7200 C   0  0  0  0  0  3  0  0  0  0  0  0
  160.8570  210.6050  153.4180 C   0  0  0  0  0  0  0  0  0  0  0  0
  158.5940  211.4590  153.6760 C   0  0  0  0  0  3  0  0  0  0  0  0
  157.8880  212.5000  155.7310 O   0  0  0  0  0  0  0  0  0  0  0  0
  156.6170  211.9080  155.9600 C   0  0  0  0  0  1  0  0  0  0  0  0
  1  8  1  0  0  0  0
  2 13  1  0  0  0  0
  2 12  1  0  0  0  0
  3 14  1  0  0  0  0
  4 15  1  0  0  0  0
  5  9  2  0  0  0  0
  5  1  1  0  0  0  0
  6  1  2  0  0  0  0
  7 11  1  0  0  0  0
  7  4  2  0  0  0  0
  8  4  1  0  0  0  0
  9  7  1  0  0  0  0
 10  3  2  0  0  0  0
 10 11  1  0  0  0  0
 11  2  2  0  0  0  0
 13 35  1  0  0  0  0
 14 13  2  0  0  0  0
 15 12  2  0  0  0  0
 16 18  1  0  0  0  0
 16 17  1  1  0  0  0
 16  3  1  0  0  0  0
 19 20  2  0  0  0  0
 19 18  1  0  0  0  0
 21 19  1  0  0  0  0
 22 21  1  0  0  0  0
 23 24  2  0  0  0  0
 23 22  1  0  0  0  0
 25 23  2  0  0  0  0
 26 23  1  1  0  0  0
 27 31  1  0  0  0  0
 28 30  1  0  0  0  0
 29 27  1  0  0  0  0
 29 28  2  0  0  0  0
 30 26  1  0  0  0  0
 31 26  1  0  0  0  0
 32 22  1  0  0  0  0
 32 34  1  0  0  0  0
 33 34  1  0  0  0  0
 35 40  1  0  0  0  0
 37 36  1  0  0  0  0
 37 42  1  0  0  0  0
 38 40  2  0  0  0  0
 38 41  1  0  0  0  0
 39 36  2  0  0  0  0
 40 39  1  0  0  0  0
 41 37  2  0  0  0  0
 42 43  1  0  0  0  0
M  END
>  <MODEL>
4

>  <REMARK>
 VINA RESULT:      -6.9      3.738      8.822
  Name = 
  12 active torsions:
  status: ('A' for Active; 'I' for Inactive)
    1  A    between atoms: O_1  and  C_34
    2  A    between atoms: O_1  and  C_35
    3  A    between atoms: C_2  and  C_6
    4  A    between atoms: C_2  and  C_13
    5  A    between atoms: C_3  and  N_4
    6  A    between atoms: C_3  and  C_12
    7  A    between atoms: N_4  and  S_14
    8  A    between atoms: N_4  and  C_15
    9  A    between atoms: C_6  and  C_12
   10  A    between atoms: C_11  and  S_14
   11  A    between atoms: C_15  and  C_42
   12  A    between atoms: C_19  and  O_25
                            x       y       z     vdW  Elec       q    Type
                         _______ _______ _______ _____ _____    ______ ____

>  <TORSDO>
F 12

$$$$
=
 OpenBabel11062410173D

 43 47  0  0  1  0  0  0  0  0999 V2000
  161.0180  202.7190  147.2430 C   0  0  0  0  0  0  0  0  0  0  0  0
  161.9350  207.4280  148.6720 C   0  0  0  0  0  0  0  0  0  0  0  0
  161.5450  207.5840  151.4490 C   0  0  0  0  0  0  0  0  0  0  0  0
  161.5680  205.0270  147.3090 C   0  0  0  0  0  0  0  0  0  0  0  0
  160.7950  202.7080  148.6220 C   0  0  0  0  0  3  0  0  0  0  0  0
  160.8220  201.3500  146.3780 S   0  0  0  0  0  0  0  0  0  0  0  0
  161.3550  205.0660  148.7040 C   0  0  0  0  0  0  0  0  0  0  0  0
  161.3970  203.8660  146.6200 N   0  0  0  0  0  2  0  0  0  0  0  0
  160.9640  203.8860  149.3520 C   0  0  0  0  0  3  0  0  0  0  0  0
  161.3470  206.3680  150.7820 C   0  0  0  0  0  3  0  0  0  0  0  0
  161.5400  206.2760  149.3970 C   0  0  0  0  0  0  0  0  0  0  0  0
  162.1300  207.3480  147.3260 N   0  0  0  0  0  0  0  0  0  0  0  0
  162.1240  208.6530  149.3350 C   0  0  0  0  0  0  0  0  0  0  0  0
  161.9320  208.7120  150.7240 C   0  0  0  0  0  3  0  0  0  0  0  0
  161.9580  206.1870  146.6390 C   0  0  0  0  0  3  0  0  0  0  0  0
  161.3400  207.7020  152.9260 C   0  0  2  0  0  3  0  0  0  0  0  0
  160.8890  206.3750  153.5170 C   0  0  0  0  0  1  0  0  0  0  0  0
  160.3470  208.8180  153.2420 C   0  0  0  0  0  2  0  0  0  0  0  0
  160.2090  209.0420  154.7150 C   0  0  0  0  0  0  0  0  0  0  0  0
  160.4540  208.1350  155.4960 O   0  0  0  0  0  0  0  0  0  0  0  0
  159.9050  210.4260  155.2290 C   0  0  0  0  0  2  0  0  0  0  0  0
  158.7270  211.0720  154.6280 N   0  0  0  0  0  0  0  0  0  0  0  0
  159.1560  212.4970  153.7220 S   0  0  0  0  0  0  0  0  0  0  0  0
  159.2430  213.6930  154.6310 O   0  0  0  0  0  0  0  0  0  0  0  0
  160.4810  212.2910  153.0400 O   0  0  0  0  0  0  0  0  0  0  0  0
  157.8990  212.7920  152.4950 C   0  0  1  0  0  3  0  0  0  0  0  0
  157.4330  213.2350  150.1130 C   0  0  0  0  0  2  0  0  0  0  0  0
  156.1480  214.4440  151.7800 C   0  0  0  0  0  3  0  0  0  0  0  0
  156.3830  214.1440  150.5440 N   0  0  0  0  0  0  0  0  0  0  0  0
  157.0180  213.9660  152.9130 C   0  0  0  0  0  2  0  0  0  0  0  0
  158.5410  213.1020  151.1520 C   0  0  0  0  0  2  0  0  0  0  0  0
  157.7380  211.4210  155.6430 C   0  0  0  0  0  2  0  0  0  0  0  0
  155.5000  210.7930  156.1910 O   0  0  0  0  0  1  0  0  0  0  0  0
  156.3360  211.1390  155.1290 C   0  0  0  0  0  2  0  0  0  0  0  0
  162.5270  209.7740  148.5870 O   0  0  0  0  0  0  0  0  0  0  0  0
  161.2580  213.2350  148.8530 C   0  0  0  0  0  3  0  0  0  0  0  0
  160.3330  213.2920  147.8000 C   0  0  0  0  0  0  0  0  0  0  0  0
  160.8480  210.9880  147.2490 C   0  0  0  0  0  3  0  0  0  0  0  0
  161.9730  212.0590  149.1000 C   0  0  0  0  0  3  0  0  0  0  0  0
  161.7700  210.9250  148.3060 C   0  0  0  0  0  0  0  0  0  0  0  0
  160.1330  212.1630  147.0010 C   0  0  0  0  0  3  0  0  0  0  0  0
  159.6040  214.4530  147.5260 O   0  0  0  0  0  0  0  0  0  0  0  0
  158.3710  214.4360  146.8190 C   0  0  0  0  0  1  0  0  0  0  0  0
  1  5  1  0  0  0  0
  2 13  2  0  0  0  0
  2 11  1  0  0  0  0
  3 16  1  0  0  0  0
  4  7  2  0  0  0  0
  5  9  2  0  0  0  0
  6  1  2  0  0  0  0
  7  9  1  0  0  0  0
  7 11  1  0  0  0  0
  8  1  1  0  0  0  0
  8  4  1  0  0  0  0
 10  3  1  0  0  0  0
 11 10  2  0  0  0  0
 12  2  1  0  0  0  0
 13 14  1  0  0  0  0
 14  3  2  0  0  0  0
 15  4  1  0  0  0  0
 15 12  2  0  0  0  0
 16 18  1  0  0  0  0
 16 17  1  6  0  0  0
 18 19  1  0  0  0  0
 19 21  1  0  0  0  0
 19 20  2  0  0  0  0
 22 21  1  0  0  0  0
 22 32  1  0  0  0  0
 23 22  1  0  0  0  0
 23 24  2  0  0  0  0
 25 23  2  0  0  0  0
 26 30  1  0  0  0  0
 26 23  1  1  0  0  0
 27 29  1  0  0  0  0
 27 31  1  0  0  0  0
 28 30  1  0  0  0  0
 29 28  2  0  0  0  0
 31 26  1  0  0  0  0
 34 32  1  0  0  0  0
 34 33  1  0  0  0  0
 35 13  1  0  0  0  0
 36 39  1  0  0  0  0
 37 36  2  0  0  0  0
 38 40  1  0  0  0  0
 40 35  1  0  0  0  0
 40 39  2  0  0  0  0
 41 38  2  0  0  0  0
 41 37  1  0  0  0  0
 42 37  1  0  0  0  0
 43 42  1  0  0  0  0
M  END
>  <MODEL>
5

>  <REMARK>
 VINA RESULT:      -6.9      1.429      2.071
  Name = 
  12 active torsions:
  status: ('A' for Active; 'I' for Inactive)
    1  A    between atoms: O_1  and  C_34
    2  A    between atoms: O_1  and  C_35
    3  A    between atoms: C_2  and  C_6
    4  A    between atoms: C_2  and  C_13
    5  A    between atoms: C_3  and  N_4
    6  A    between atoms: C_3  and  C_12
    7  A    between atoms: N_4  and  S_14
    8  A    between atoms: N_4  and  C_15
    9  A    between atoms: C_6  and  C_12
   10  A    between atoms: C_11  and  S_14
   11  A    between atoms: C_15  and  C_42
   12  A    between atoms: C_19  and  O_25
                            x       y       z     vdW  Elec       q    Type
                         _______ _______ _______ _____ _____    ______ ____

>  <TORSDO>
F 12

$$$$
=
 OpenBabel11062410173D

 43 47  0  0  1  0  0  0  0  0999 V2000
  161.1980  203.8930  148.2480 C   0  0  0  0  0  0  0  0  0  0  0  0
  161.6230  208.0930  150.9370 C   0  0  0  0  0  0  0  0  0  0  0  0
  161.9490  210.2370  149.1520 C   0  0  0  0  0  0  0  0  0  0  0  0
  161.3310  205.4860  150.0030 C   0  0  0  0  0  0  0  0  0  0  0  0
  161.3630  204.8960  147.2920 C   0  0  0  0  0  3  0  0  0  0  0  0
  161.0220  202.3410  147.7760 S   0  0  0  0  0  0  0  0  0  0  0  0
  161.5000  206.5350  149.0740 C   0  0  0  0  0  0  0  0  0  0  0  0
  161.1850  204.2040  149.5720 N   0  0  0  0  0  2  0  0  0  0  0  0
  161.5150  206.2200  147.7070 C   0  0  0  0  0  3  0  0  0  0  0  0
  161.8120  208.9320  148.6610 C   0  0  0  0  0  3  0  0  0  0  0  0
  161.6470  207.8540  149.5410 C   0  0  0  0  0  0  0  0  0  0  0  0
  161.4580  207.0530  151.8000 N   0  0  0  0  0  0  0  0  0  0  0  0
  161.7710  209.4000  151.4350 C   0  0  0  0  0  0  0  0  0  0  0  0
  161.9260  210.4610  150.5300 C   0  0  0  0  0  3  0  0  0  0  0  0
  161.3130  205.7720  151.3680 C   0  0  0  0  0  3  0  0  0  0  0  0
  162.1310  211.4000  148.2290 C   0  0  2  0  0  3  0  0  0  0  0  0
  163.6020  211.6110  147.9100 C   0  0  0  0  0  1  0  0  0  0  0  0
  161.5030  212.6590  148.8210 C   0  0  0  0  0  2  0  0  0  0  0  0
  161.7780  213.8680  147.9830 C   0  0  0  0  0  0  0  0  0  0  0  0
  162.9160  214.3050  147.8980 O   0  0  0  0  0  0  0  0  0  0  0  0
  160.6750  214.4510  147.1390 C   0  0  0  0  0  2  0  0  0  0  0  0
  159.3890  213.7390  147.2100 N   0  0  0  0  0  0  0  0  0  0  0  0
  158.6890  213.4990  145.6330 S   0  0  0  0  0  0  0  0  0  0  0  0
  158.1940  212.0850  145.4850 O   0  0  0  0  0  0  0  0  0  0  0  0
  157.5430  214.4530  145.4300 O   0  0  0  0  0  0  0  0  0  0  0  0
  159.9390  213.8080  144.4020 C   0  0  1  0  0  3  0  0  0  0  0  0
  160.3880  214.4490  142.0620 C   0  0  0  0  0  2  0  0  0  0  0  0
  161.7380  212.6910  143.0510 C   0  0  0  0  0  3  0  0  0  0  0  0
  161.4750  213.4840  142.0640 N   0  0  0  0  0  0  0  0  0  0  0  0
  160.8670  212.6030  144.2770 C   0  0  0  0  0  2  0  0  0  0  0  0
  159.2900  214.0810  143.0540 C   0  0  0  0  0  2  0  0  0  0  0  0
  158.4370  214.4450  148.0620 C   0  0  0  0  0  2  0  0  0  0  0  0
  157.1440  213.3500  149.7460 O   0  0  0  0  0  1  0  0  0  0  0  0
  158.4210  213.8300  149.4520 C   0  0  0  0  0  2  0  0  0  0  0  0
  161.7320  209.6030  152.8270 O   0  0  0  0  0  0  0  0  0  0  0  0
  158.6330  211.3860  153.7640 C   0  0  0  0  0  3  0  0  0  0  0  0
  159.0300  212.0830  154.9150 C   0  0  0  0  0  0  0  0  0  0  0  0
  161.2530  211.1420  154.6940 C   0  0  0  0  0  3  0  0  0  0  0  0
  159.5430  210.5720  153.0840 C   0  0  0  0  0  3  0  0  0  0  0  0
  160.8620  210.4470  153.5370 C   0  0  0  0  0  0  0  0  0  0  0  0
  160.3440  211.9560  155.3750 C   0  0  0  0  0  3  0  0  0  0  0  0
  158.1430  212.9040  155.6180 O   0  0  0  0  0  0  0  0  0  0  0  0
  157.3780  213.9230  154.9890 C   0  0  0  0  0  1  0  0  0  0  0  0
  1  8  1  0  0  0  0
  2 13  1  0  0  0  0
  2 12  1  0  0  0  0
  3 14  1  0  0  0  0
  4 15  1  0  0  0  0
  5  9  2  0  0  0  0
  5  1  1  0  0  0  0
  6  1  2  0  0  0  0
  7 11  1  0  0  0  0
  7  4  2  0  0  0  0
  8  4  1  0  0  0  0
  9  7  1  0  0  0  0
 10  3  2  0  0  0  0
 10 11  1  0  0  0  0
 11  2  2  0  0  0  0
 13 35  1  0  0  0  0
 14 13  2  0  0  0  0
 15 12  2  0  0  0  0
 16 17  1  1  0  0  0
 16 18  1  0  0  0  0
 16  3  1  0  0  0  0
 19 18  1  0  0  0  0
 20 19  2  0  0  0  0
 21 22  1  0  0  0  0
 21 19  1  0  0  0  0
 22 32  1  0  0  0  0
 23 22  1  0  0  0  0
 24 23  2  0  0  0  0
 25 23  2  0  0  0  0
 26 23  1  1  0  0  0
 27 29  1  0  0  0  0
 27 31  1  0  0  0  0
 28 30  1  0  0  0  0
 29 28  2  0  0  0  0
 30 26  1  0  0  0  0
 31 26  1  0  0  0  0
 32 34  1  0  0  0  0
 34 33  1  0  0  0  0
 35 40  1  0  0  0  0
 36 37  1  0  0  0  0
 37 41  2  0  0  0  0
 37 42  1  0  0  0  0
 38 41  1  0  0  0  0
 39 40  1  0  0  0  0
 39 36  2  0  0  0  0
 40 38  2  0  0  0  0
 43 42  1  0  0  0  0
M  END
>  <MODEL>
6

>  <REMARK>
 VINA RESULT:      -6.4      2.874      7.096
  Name = 
  12 active torsions:
  status: ('A' for Active; 'I' for Inactive)
    1  A    between atoms: O_1  and  C_34
    2  A    between atoms: O_1  and  C_35
    3  A    between atoms: C_2  and  C_6
    4  A    between atoms: C_2  and  C_13
    5  A    between atoms: C_3  and  N_4
    6  A    between atoms: C_3  and  C_12
    7  A    between atoms: N_4  and  S_14
    8  A    between atoms: N_4  and  C_15
    9  A    between atoms: C_6  and  C_12
   10  A    between atoms: C_11  and  S_14
   11  A    between atoms: C_15  and  C_42
   12  A    between atoms: C_19  and  O_25
                            x       y       z     vdW  Elec       q    Type
                         _______ _______ _______ _____ _____    ______ ____

>  <TORSDO>
F 12

$$$$
=
 OpenBabel11062410173D

 43 47  0  0  1  0  0  0  0  0999 V2000
  155.8910  213.6320  154.9790 C   0  0  0  0  0  0  0  0  0  0  0  0
  159.6750  212.4730  151.9140 C   0  0  0  0  0  0  0  0  0  0  0  0
  160.3660  209.7890  152.3650 C   0  0  0  0  0  0  0  0  0  0  0  0
  157.6120  213.6790  153.3450 C   0  0  0  0  0  0  0  0  0  0  0  0
  156.1740  212.2970  155.2740 C   0  0  0  0  0  3  0  0  0  0  0  0
  154.6970  214.4050  155.7780 S   0  0  0  0  0  0  0  0  0  0  0  0
  157.9340  212.3300  153.6070 C   0  0  0  0  0  0  0  0  0  0  0  0
  156.6090  214.2900  154.0300 N   0  0  0  0  0  2  0  0  0  0  0  0
  157.1990  211.6460  154.5850 C   0  0  0  0  0  3  0  0  0  0  0  0
  159.3310  210.3780  153.1030 C   0  0  0  0  0  3  0  0  0  0  0  0
  158.9750  211.7160  152.8860 C   0  0  0  0  0  0  0  0  0  0  0  0
  159.3320  213.7720  151.6910 N   0  0  0  0  0  0  0  0  0  0  0  0
  160.7220  211.8890  151.1790 C   0  0  0  0  0  0  0  0  0  0  0  0
  161.0500  210.5450  151.4120 C   0  0  0  0  0  3  0  0  0  0  0  0
  158.3290  214.3820  152.3780 C   0  0  0  0  0  3  0  0  0  0  0  0
  160.7640  208.3640  152.5860 C   0  0  2  0  0  3  0  0  0  0  0  0
  161.0070  208.0940  154.0620 C   0  0  0  0  0  1  0  0  0  0  0  0
  161.9890  208.0120  151.7470 C   0  0  0  0  0  2  0  0  0  0  0  0
  162.2480  206.5380  151.7250 C   0  0  0  0  0  0  0  0  0  0  0  0
  163.2560  206.0890  152.2500 O   0  0  0  0  0  0  0  0  0  0  0  0
  161.1960  205.6080  151.1820 C   0  0  0  0  0  2  0  0  0  0  0  0
  161.4950  205.0240  149.8640 N   0  0  0  0  0  0  0  0  0  0  0  0
  161.5080  206.2280  148.6050 S   0  0  0  0  0  0  0  0  0  0  0  0
  160.3940  207.2190  148.8120 O   0  0  0  0  0  0  0  0  0  0  0  0
  162.8260  206.9530  148.6020 O   0  0  0  0  0  0  0  0  0  0  0  0
  161.2760  205.4150  147.0370 C   0  0  1  0  0  3  0  0  0  0  0  0
  162.3740  204.2610  145.1510 C   0  0  0  0  0  2  0  0  0  0  0  0
  160.5730  205.8140  144.6590 C   0  0  0  0  0  3  0  0  0  0  0  0
  161.4350  204.9330  144.2660 N   0  0  0  0  0  0  0  0  0  0  0  0
  160.5230  206.3280  146.0740 C   0  0  0  0  0  2  0  0  0  0  0  0
  162.6230  205.0520  146.4320 C   0  0  0  0  0  2  0  0  0  0  0  0
  160.5440  203.9720  149.5220 C   0  0  0  0  0  2  0  0  0  0  0  0
  160.9930  201.9130  150.6450 O   0  0  0  0  0  1  0  0  0  0  0  0
  161.2460  202.6250  149.4720 C   0  0  0  0  0  2  0  0  0  0  0  0
  161.3880  212.6660  150.2140 O   0  0  0  0  0  0  0  0  0  0  0  0
  161.8370  213.0940  146.5700 C   0  0  0  0  0  3  0  0  0  0  0  0
  160.5180  213.0130  146.0980 C   0  0  0  0  0  0  0  0  0  0  0  0
  159.7440  212.7040  148.3750 C   0  0  0  0  0  3  0  0  0  0  0  0
  162.1050  212.9810  147.9370 C   0  0  0  0  0  3  0  0  0  0  0  0
  161.0620  212.7920  148.8520 C   0  0  0  0  0  0  0  0  0  0  0  0
  159.4750  212.8180  147.0090 C   0  0  0  0  0  3  0  0  0  0  0  0
  160.2180  213.1210  144.7380 O   0  0  0  0  0  0  0  0  0  0  0  0
  160.9520  212.4350  143.7330 C   0  0  0  0  0  1  0  0  0  0  0  0
  1  5  1  0  0  0  0
  1  6  2  0  0  0  0
  2 11  1  0  0  0  0
  3 16  1  0  0  0  0
  3 10  1  0  0  0  0
  4  7  2  0  0  0  0
  4  8  1  0  0  0  0
  7  9  1  0  0  0  0
  8  1  1  0  0  0  0
  9  5  2  0  0  0  0
 11 10  2  0  0  0  0
 11  7  1  0  0  0  0
 12  2  1  0  0  0  0
 12 15  2  0  0  0  0
 13 14  1  0  0  0  0
 13  2  2  0  0  0  0
 14  3  2  0  0  0  0
 15  4  1  0  0  0  0
 16 17  1  1  0  0  0
 18 16  1  0  0  0  0
 19 18  1  0  0  0  0
 19 20  2  0  0  0  0
 21 19  1  0  0  0  0
 22 21  1  0  0  0  0
 23 24  2  0  0  0  0
 23 22  1  0  0  0  0
 25 23  2  0  0  0  0
 26 23  1  1  0  0  0
 27 31  1  0  0  0  0
 28 30  1  0  0  0  0
 29 28  2  0  0  0  0
 29 27  1  0  0  0  0
 30 26  1  0  0  0  0
 31 26  1  0  0  0  0
 32 22  1  0  0  0  0
 34 32  1  0  0  0  0
 34 33  1  0  0  0  0
 35 13  1  0  0  0  0
 36 39  1  0  0  0  0
 37 36  2  0  0  0  0
 37 41  1  0  0  0  0
 38 40  1  0  0  0  0
 39 40  2  0  0  0  0
 40 35  1  0  0  0  0
 41 38  2  0  0  0  0
 42 37  1  0  0  0  0
 43 42  1  0  0  0  0
M  END
>  <MODEL>
7

>  <REMARK>
 VINA RESULT:      -6.1      2.871      8.468
  Name = 
  12 active torsions:
  status: ('A' for Active; 'I' for Inactive)
    1  A    between atoms: O_1  and  C_34
    2  A    between atoms: O_1  and  C_35
    3  A    between atoms: C_2  and  C_6
    4  A    between atoms: C_2  and  C_13
    5  A    between atoms: C_3  and  N_4
    6  A    between atoms: C_3  and  C_12
    7  A    between atoms: N_4  and  S_14
    8  A    between atoms: N_4  and  C_15
    9  A    between atoms: C_6  and  C_12
   10  A    between atoms: C_11  and  S_14
   11  A    between atoms: C_15  and  C_42
   12  A    between atoms: C_19  and  O_25
                            x       y       z     vdW  Elec       q    Type
                         _______ _______ _______ _____ _____    ______ ____

>  <TORSDO>
F 12

$$$$
=
 OpenBabel11062410173D

 43 47  0  0  1  0  0  0  0  0999 V2000
  158.9690  211.1110  155.7900 C   0  0  0  0  0  0  0  0  0  0  0  0
  161.4100  209.6610  151.6670 C   0  0  0  0  0  0  0  0  0  0  0  0
  161.4620  211.8290  149.8820 C   0  0  0  0  0  0  0  0  0  0  0  0
  160.1750  209.8850  154.1530 C   0  0  0  0  0  0  0  0  0  0  0  0
  158.9410  212.2350  154.9620 C   0  0  0  0  0  3  0  0  0  0  0  0
  158.2660  211.1670  157.2610 S   0  0  0  0  0  0  0  0  0  0  0  0
  160.1740  210.9950  153.2820 C   0  0  0  0  0  0  0  0  0  0  0  0
  159.5800  209.9690  155.3730 N   0  0  0  0  0  2  0  0  0  0  0  0
  159.5450  212.1750  153.7050 C   0  0  0  0  0  3  0  0  0  0  0  0
  160.8280  211.9610  151.1240 C   0  0  0  0  0  3  0  0  0  0  0  0
  160.7970  210.8870  152.0240 C   0  0  0  0  0  0  0  0  0  0  0  0
  161.3900  208.6140  152.5370 N   0  0  0  0  0  0  0  0  0  0  0  0
  162.0370  209.5200  150.4160 C   0  0  0  0  0  0  0  0  0  0  0  0
  162.0610  210.6150  149.5390 C   0  0  0  0  0  3  0  0  0  0  0  0
  160.7930  208.7000  153.7570 C   0  0  0  0  0  3  0  0  0  0  0  0
  161.5020  212.9610  148.9060 C   0  0  2  0  0  3  0  0  0  0  0  0
  160.7000  214.1460  149.4200 C   0  0  0  0  0  1  0  0  0  0  0  0
  161.0070  212.5070  147.5360 C   0  0  0  0  0  2  0  0  0  0  0  0
  161.8880  213.0000  146.4300 C   0  0  0  0  0  0  0  0  0  0  0  0
  163.1010  212.8840  146.5200 O   0  0  0  0  0  0  0  0  0  0  0  0
  161.2650  213.5060  145.1560 C   0  0  0  0  0  2  0  0  0  0  0  0
  160.9090  212.4660  144.1770 N   0  0  0  0  0  0  0  0  0  0  0  0
  161.4640  212.8620  142.5740 S   0  0  0  0  0  0  0  0  0  0  0  0
  160.7090  214.0450  142.0310 O   0  0  0  0  0  0  0  0  0  0  0  0
  162.9350  213.1790  142.6050 O   0  0  0  0  0  0  0  0  0  0  0  0
  161.1850  211.4590  141.5120 C   0  0  1  0  0  3  0  0  0  0  0  0
  162.1890  209.8880  139.8940 C   0  0  0  0  0  2  0  0  0  0  0  0
  159.9520  210.7220  139.4510 C   0  0  0  0  0  3  0  0  0  0  0  0
  160.9420  209.9480  139.1470 N   0  0  0  0  0  0  0  0  0  0  0  0
  160.0260  211.7390  140.5600 C   0  0  0  0  0  2  0  0  0  0  0  0
  162.4360  211.1590  140.7010 C   0  0  0  0  0  2  0  0  0  0  0  0
  159.4680  212.2350  144.1490 C   0  0  0  0  0  2  0  0  0  0  0  0
  157.5390  212.8130  145.4320 O   0  0  0  0  0  1  0  0  0  0  0  0
  158.7480  213.3100  144.9450 C   0  0  0  0  0  2  0  0  0  0  0  0
  162.6460  208.2930  150.0980 O   0  0  0  0  0  0  0  0  0  0  0  0
  161.9290  206.5740  146.9060 C   0  0  0  0  0  3  0  0  0  0  0  0
  161.2950  205.3990  147.3390 C   0  0  0  0  0  0  0  0  0  0  0  0
  161.5430  206.1360  149.6350 C   0  0  0  0  0  3  0  0  0  0  0  0
  162.3660  207.5220  147.8350 C   0  0  0  0  0  3  0  0  0  0  0  0
  162.1720  207.3160  149.2060 C   0  0  0  0  0  0  0  0  0  0  0  0
  161.1050  205.1870  148.7070 C   0  0  0  0  0  3  0  0  0  0  0  0
  160.8470  204.4310  146.4350 O   0  0  0  0  0  0  0  0  0  0  0  0
  161.3340  203.0960  146.4370 C   0  0  0  0  0  1  0  0  0  0  0  0
  1  6  2  0  0  0  0
  2 11  1  0  0  0  0
  2 12  1  0  0  0  0
  3 10  1  0  0  0  0
  4  8  1  0  0  0  0
  5  1  1  0  0  0  0
  7  9  1  0  0  0  0
  7  4  2  0  0  0  0
  8  1  1  0  0  0  0
  9  5  2  0  0  0  0
 10 11  2  0  0  0  0
 11  7  1  0  0  0  0
 12 15  2  0  0  0  0
 13  2  2  0  0  0  0
 14  3  2  0  0  0  0
 14 13  1  0  0  0  0
 15  4  1  0  0  0  0
 16 17  1  1  0  0  0
 16  3  1  0  0  0  0
 18 16  1  0  0  0  0
 19 20  2  0  0  0  0
 19 18  1  0  0  0  0
 21 19  1  0  0  0  0
 22 21  1  0  0  0  0
 23 25  2  0  0  0  0
 23 22  1  0  0  0  0
 24 23  2  0  0  0  0
 26 23  1  1  0  0  0
 27 31  1  0  0  0  0
 28 30  1  0  0  0  0
 29 28  2  0  0  0  0
 29 27  1  0  0  0  0
 30 26  1  0  0  0  0
 31 26  1  0  0  0  0
 32 22  1  0  0  0  0
 32 34  1  0  0  0  0
 34 33  1  0  0  0  0
 35 13  1  0  0  0  0
 36 37  2  0  0  0  0
 36 39  1  0  0  0  0
 37 41  1  0  0  0  0
 39 40  2  0  0  0  0
 40 38  1  0  0  0  0
 40 35  1  0  0  0  0
 41 38  2  0  0  0  0
 42 43  1  0  0  0  0
 42 37  1  0  0  0  0
M  END
>  <MODEL>
8

>  <REMARK>
 VINA RESULT:      -5.9      4.028      9.667
  Name = 
  12 active torsions:
  status: ('A' for Active; 'I' for Inactive)
    1  A    between atoms: O_1  and  C_34
    2  A    between atoms: O_1  and  C_35
    3  A    between atoms: C_2  and  C_6
    4  A    between atoms: C_2  and  C_13
    5  A    between atoms: C_3  and  N_4
    6  A    between atoms: C_3  and  C_12
    7  A    between atoms: N_4  and  S_14
    8  A    between atoms: N_4  and  C_15
    9  A    between atoms: C_6  and  C_12
   10  A    between atoms: C_11  and  S_14
   11  A    between atoms: C_15  and  C_42
   12  A    between atoms: C_19  and  O_25
                            x       y       z     vdW  Elec       q    Type
                         _______ _______ _______ _____ _____    ______ ____

>  <TORSDO>
F 12

$$$$
=
 OpenBabel11062410173D

 43 47  0  0  1  0  0  0  0  0999 V2000
  161.1440  203.3260  147.3030 C   0  0  0  0  0  0  0  0  0  0  0  0
  161.4260  206.9910  150.7020 C   0  0  0  0  0  0  0  0  0  0  0  0
  161.7950  209.4160  149.3340 C   0  0  0  0  0  0  0  0  0  0  0  0
  161.1950  204.5870  149.3140 C   0  0  0  0  0  0  0  0  0  0  0  0
  161.3350  204.4830  146.5440 C   0  0  0  0  0  3  0  0  0  0  0  0
  161.0020  201.8810  146.5600 S   0  0  0  0  0  0  0  0  0  0  0  0
  161.3880  205.7840  148.5900 C   0  0  0  0  0  0  0  0  0  0  0  0
  161.0790  203.4000  148.6590 N   0  0  0  0  0  2  0  0  0  0  0  0
  161.4570  205.7140  147.1920 C   0  0  0  0  0  3  0  0  0  0  0  0
  161.6910  208.2170  148.6160 C   0  0  0  0  0  3  0  0  0  0  0  0
  161.5040  207.0010  149.2870 C   0  0  0  0  0  0  0  0  0  0  0  0
  161.2390  205.8140  151.3620 N   0  0  0  0  0  0  0  0  0  0  0  0
  161.5420  208.1900  151.4260 C   0  0  0  0  0  0  0  0  0  0  0  0
  161.7190  209.3940  150.7280 C   0  0  0  0  0  3  0  0  0  0  0  0
  161.1230  204.6290  150.7060 C   0  0  0  0  0  3  0  0  0  0  0  0
  162.0000  210.7230  148.6370 C   0  0  2  0  0  3  0  0  0  0  0  0
  163.3120  210.7270  147.8700 C   0  0  0  0  0  1  0  0  0  0  0  0
  161.9340  211.8790  149.6320 C   0  0  0  0  0  2  0  0  0  0  0  0
  160.9300  212.9120  149.2250 C   0  0  0  0  0  0  0  0  0  0  0  0
  160.8150  213.9400  149.8750 O   0  0  0  0  0  0  0  0  0  0  0  0
  160.1700  212.7390  147.9360 C   0  0  0  0  0  2  0  0  0  0  0  0
  159.4750  213.9430  147.4520 N   0  0  0  0  0  0  0  0  0  0  0  0
  157.7550  213.6980  147.3290 S   0  0  0  0  0  0  0  0  0  0  0  0
  157.1970  214.4510  146.1510 O   0  0  0  0  0  0  0  0  0  0  0  0
  157.4560  212.2320  147.1700 O   0  0  0  0  0  0  0  0  0  0  0  0
  156.9850  214.3000  148.8180 C   0  0  1  0  0  3  0  0  0  0  0  0
  156.8280  214.0790  151.2710 C   0  0  0  0  0  2  0  0  0  0  0  0
  154.7820  214.4450  150.0160 C   0  0  0  0  0  3  0  0  0  0  0  0
  155.3990  214.3200  151.1460 N   0  0  0  0  0  0  0  0  0  0  0  0
  155.4660  214.2410  148.6890 C   0  0  0  0  0  2  0  0  0  0  0  0
  157.4190  213.4600  150.0080 C   0  0  0  0  0  2  0  0  0  0  0  0
  159.9980  214.3740  146.1600 C   0  0  0  0  0  2  0  0  0  0  0  0
  161.7190  213.2910  144.9070 O   0  0  0  0  0  1  0  0  0  0  0  0
  160.3930  213.1690  145.3240 C   0  0  0  0  0  2  0  0  0  0  0  0
  161.4480  208.1450  152.8300 O   0  0  0  0  0  0  0  0  0  0  0  0
  160.8870  210.1520  155.8820 C   0  0  0  0  0  3  0  0  0  0  0  0
  159.9520  211.1020  155.4440 C   0  0  0  0  0  0  0  0  0  0  0  0
  159.9880  210.0900  153.2400 C   0  0  0  0  0  3  0  0  0  0  0  0
  161.3680  209.1780  155.0020 C   0  0  0  0  0  3  0  0  0  0  0  0
  160.9200  209.1340  153.6770 C   0  0  0  0  0  0  0  0  0  0  0  0
  159.5070  211.0640  154.1190 C   0  0  0  0  0  3  0  0  0  0  0  0
  159.4530  212.0890  156.2980 O   0  0  0  0  0  0  0  0  0  0  0  0
  159.6880  213.4750  156.0900 C   0  0  0  0  0  1  0  0  0  0  0  0
  1  8  1  0  0  0  0
  2 12  1  0  0  0  0
  2 13  1  0  0  0  0
  3 14  1  0  0  0  0
  4 15  1  0  0  0  0
  5  9  2  0  0  0  0
  5  1  1  0  0  0  0
  6  1  2  0  0  0  0
  7 11  1  0  0  0  0
  7  4  2  0  0  0  0
  8  4  1  0  0  0  0
  9  7  1  0  0  0  0
 10 11  1  0  0  0  0
 10  3  2  0  0  0  0
 11  2  2  0  0  0  0
 13 35  1  0  0  0  0
 14 13  2  0  0  0  0
 15 12  2  0  0  0  0
 16 17  1  1  0  0  0
 16  3  1  0  0  0  0
 16 18  1  0  0  0  0
 19 18  1  0  0  0  0
 19 20  2  0  0  0  0
 21 19  1  0  0  0  0
 22 21  1  0  0  0  0
 23 22  1  0  0  0  0
 24 23  2  0  0  0  0
 25 23  2  0  0  0  0
 26 23  1  6  0  0  0
 26 31  1  0  0  0  0
 28 29  2  0  0  0  0
 29 27  1  0  0  0  0
 30 26  1  0  0  0  0
 30 28  1  0  0  0  0
 31 27  1  0  0  0  0
 32 22  1  0  0  0  0
 33 34  1  0  0  0  0
 34 32  1  0  0  0  0
 35 40  1  0  0  0  0
 37 36  1  0  0  0  0
 37 42  1  0  0  0  0
 38 40  2  0  0  0  0
 38 41  1  0  0  0  0
 39 36  2  0  0  0  0
 40 39  1  0  0  0  0
 41 37  2  0  0  0  0
 43 42  1  0  0  0  0
M  END
>  <MODEL>
9

>  <REMARK>
 VINA RESULT:      -5.8      2.478      6.406
  Name = 
  12 active torsions:
  status: ('A' for Active; 'I' for Inactive)
    1  A    between atoms: O_1  and  C_34
    2  A    between atoms: O_1  and  C_35
    3  A    between atoms: C_2  and  C_6
    4  A    between atoms: C_2  and  C_13
    5  A    between atoms: C_3  and  N_4
    6  A    between atoms: C_3  and  C_12
    7  A    between atoms: N_4  and  S_14
    8  A    between atoms: N_4  and  C_15
    9  A    between atoms: C_6  and  C_12
   10  A    between atoms: C_11  and  S_14
   11  A    between atoms: C_15  and  C_42
   12  A    between atoms: C_19  and  O_25
                            x       y       z     vdW  Elec       q    Type
                         _______ _______ _______ _____ _____    ______ ____

>  <TORSDO>
F 12

$$$$
