=
 OpenBabel11052423043D

 28 31  0  0  1  0  0  0  0  0999 V2000
  160.7590  205.7930  152.8380 C   0  0  1  0  0  3  0  0  0  0  0  0
  161.6210  206.8540  153.4840 C   0  0  1  0  0  3  0  0  0  0  0  0
  160.9640  207.1470  152.1490 C   0  0  1  0  0  3  0  0  0  0  0  0
  161.5150  207.9510  149.8670 C   0  0  0  0  0  1  0  0  0  0  0  0
  162.0270  207.1650  151.0570 C   0  0  0  0  0  2  0  0  0  0  0  0
  161.6450  204.6660  152.3220 C   0  0  0  0  0  2  0  0  0  0  0  0
  160.8310  203.6030  151.8440 O   0  0  0  0  0  0  0  0  0  0  0  0
  160.8780  201.2240  149.0200 C   0  0  0  0  0  3  0  0  0  0  0  0
  160.9170  203.1180  150.5370 C   0  0  0  0  0  0  0  0  0  0  0  0
  161.1990  203.4590  148.1470 C   0  0  0  0  0  0  0  0  0  0  0  0
  160.7980  201.7400  150.3160 C   0  0  0  0  0  3  0  0  0  0  0  0
  161.1190  203.9760  149.4430 C   0  0  0  0  0  3  0  0  0  0  0  0
  161.3930  204.2920  147.0970 F   0  0  0  0  0  0  0  0  0  0  0  0
  161.0790  202.0830  147.9350 C   0  0  0  0  0  3  0  0  0  0  0  0
  160.8300  207.5400  154.5900 C   0  0  0  0  0  2  0  0  0  0  0  0
  159.8110  209.7800  155.3930 C   0  0  2  0  0  0  0  0  0  0  0  0
  161.9500  210.8580  155.2690 N   0  0  0  0  0  0  0  0  0  0  0  0
  160.8250  210.5960  156.1590 C   0  0  0  0  0  2  0  0  0  0  0  0
  163.1550  210.7380  156.0710 C   0  0  0  0  0  1  0  0  0  0  0  0
  161.9730  209.7720  154.2900 C   0  0  2  0  0  3  0  0  0  0  0  0
  162.1860  210.3420  152.9000 C   0  0  0  0  0  1  0  0  0  0  0  0
  159.1370  208.9160  156.2630 O   0  0  0  0  0  1  0  0  0  0  0  0
  160.6390  209.0440  154.3450 C   0  0  1  0  0  3  0  0  0  0  0  0
  158.8170  210.7210  154.7200 C   0  0  0  0  0  2  0  0  0  0  0  0
  157.7260  211.0530  155.6230 N   0  0  0  0  0  0  0  0  0  0  0  0
  156.5910  211.4570  154.7810 C   0  0  0  0  0  2  0  0  0  0  0  0
  157.4230  212.4750  155.4060 C   0  0  1  0  0  3  0  0  0  0  0  0
  156.7220  213.0210  156.6310 C   0  0  0  0  0  1  0  0  0  0  0  0
  1  6  1  6  0  0  0
  1  2  1  0  0  0  0
  2 15  1  1  0  0  0
  3  5  1  6  0  0  0
  3  1  1  0  0  0  0
  3  2  1  0  0  0  0
  4  5  1  0  0  0  0
  7  6  1  0  0  0  0
  8 11  1  0  0  0  0
  9  7  1  0  0  0  0
 10 12  2  0  0  0  0
 11  9  2  0  0  0  0
 12  9  1  0  0  0  0
 13 10  1  0  0  0  0
 14 10  1  0  0  0  0
 14  8  2  0  0  0  0
 16 18  1  0  0  0  0
 16 22  1  1  0  0  0
 17 19  1  0  0  0  0
 17 18  1  0  0  0  0
 20 21  1  6  0  0  0
 20 23  1  0  0  0  0
 20 17  1  0  0  0  0
 23 15  1  1  0  0  0
 23 16  1  0  0  0  0
 24 16  1  0  0  0  0
 24 25  1  0  0  0  0
 26 27  1  0  0  0  0
 26 25  1  0  0  0  0
 27 25  1  0  0  0  0
 27 28  1  1  0  0  0
M  END
>  <MODEL>
1

>  <REMARK>
 VINA RESULT:      -7.3      0.000      0.000
  Name = 
  8 active torsions:
  status: ('A' for Active; 'I' for Inactive)
    1  A    between atoms: C_1  and  C_11
    2  A    between atoms: N_6  and  C_11
    3  A    between atoms: C_9  and  O_18
    4  A    between atoms: C_10  and  C_14
    5  A    between atoms: C_14  and  O_18
    6  A    between atoms: C_17  and  C_19
    7  A    between atoms: C_19  and  C_27
    8  A    between atoms: C_20  and  C_25
                            x       y       z     vdW  Elec       q    Type
                         _______ _______ _______ _____ _____    ______ ____

>  <TORSDO>
F 8

$$$$
=
 OpenBabel11052423043D

 28 31  0  0  1  0  0  0  0  0999 V2000
  160.7800  207.6150  152.6920 C   0  0  1  0  0  3  0  0  0  0  0  0
  161.3700  208.9670  153.0270 C   0  0  1  0  0  3  0  0  0  0  0  0
  161.0360  208.6420  151.5830 C   0  0  1  0  0  3  0  0  0  0  0  0
  162.0360  208.5220  149.3150 C   0  0  0  0  0  1  0  0  0  0  0  0
  162.3280  208.4410  150.8000 C   0  0  0  0  0  2  0  0  0  0  0  0
  161.8530  206.5440  152.8400 C   0  0  0  0  0  2  0  0  0  0  0  0
  161.2430  205.2600  152.8620 O   0  0  0  0  0  0  0  0  0  0  0  0
  160.9540  202.2480  150.7440 C   0  0  0  0  0  3  0  0  0  0  0  0
  161.1230  204.4640  151.7210 C   0  0  0  0  0  0  0  0  0  0  0  0
  160.9290  204.1990  149.3120 C   0  0  0  0  0  0  0  0  0  0  0  0
  161.0750  203.0720  151.8670 C   0  0  0  0  0  3  0  0  0  0  0  0
  161.0490  205.0240  150.4340 C   0  0  0  0  0  3  0  0  0  0  0  0
  160.8570  204.7460  148.0750 F   0  0  0  0  0  0  0  0  0  0  0  0
  160.8810  202.8110  149.4670 C   0  0  0  0  0  3  0  0  0  0  0  0
  160.2800  209.8630  153.6000 C   0  0  0  0  0  2  0  0  0  0  0  0
  159.5890  210.7080  155.9470 C   0  0  2  0  0  0  0  0  0  0  0  0
  161.3760  209.4800  156.9720 N   0  0  0  0  0  0  0  0  0  0  0  0
  159.9350  209.6960  157.0130 C   0  0  0  0  0  2  0  0  0  0  0  0
  161.5920  208.0590  157.1840 C   0  0  0  0  0  1  0  0  0  0  0  0
  161.8080  209.7830  155.6090 C   0  0  2  0  0  3  0  0  0  0  0  0
  163.0650  210.6320  155.6480 C   0  0  0  0  0  1  0  0  0  0  0  0
  158.3160  210.4460  155.4330 O   0  0  0  0  0  1  0  0  0  0  0  0
  160.6960  210.5490  154.9090 C   0  0  1  0  0  3  0  0  0  0  0  0
  159.6280  212.1070  156.5540 C   0  0  0  0  0  2  0  0  0  0  0  0
  159.3290  213.1160  155.5490 N   0  0  0  0  0  0  0  0  0  0  0  0
  159.4120  214.4190  156.2240 C   0  0  0  0  0  2  0  0  0  0  0  0
  158.1110  213.8050  155.9990 C   0  0  1  0  0  3  0  0  0  0  0  0
  157.4430  214.4530  154.8060 C   0  0  0  0  0  1  0  0  0  0  0  0
  1  6  1  6  0  0  0
  1  2  1  0  0  0  0
  2 15  1  1  0  0  0
  3  5  1  6  0  0  0
  3  1  1  0  0  0  0
  3  2  1  0  0  0  0
  4  5  1  0  0  0  0
  6  7  1  0  0  0  0
  8 11  1  0  0  0  0
  9 11  2  0  0  0  0
  9  7  1  0  0  0  0
 10 14  1  0  0  0  0
 10 12  2  0  0  0  0
 12  9  1  0  0  0  0
 13 10  1  0  0  0  0
 14  8  2  0  0  0  0
 16 22  1  6  0  0  0
 16 24  1  0  0  0  0
 16 18  1  0  0  0  0
 17 18  1  0  0  0  0
 17 19  1  0  0  0  0
 20 21  1  1  0  0  0
 20 17  1  0  0  0  0
 23 15  1  6  0  0  0
 23 20  1  0  0  0  0
 23 16  1  0  0  0  0
 25 27  1  0  0  0  0
 25 26  1  0  0  0  0
 25 24  1  0  0  0  0
 27 28  1  6  0  0  0
 27 26  1  0  0  0  0
M  END
>  <MODEL>
2

>  <REMARK>
 VINA RESULT:      -7.0      1.595      2.103
  Name = 
  8 active torsions:
  status: ('A' for Active; 'I' for Inactive)
    1  A    between atoms: C_1  and  C_11
    2  A    between atoms: N_6  and  C_11
    3  A    between atoms: C_9  and  O_18
    4  A    between atoms: C_10  and  C_14
    5  A    between atoms: C_14  and  O_18
    6  A    between atoms: C_17  and  C_19
    7  A    between atoms: C_19  and  C_27
    8  A    between atoms: C_20  and  C_25
                            x       y       z     vdW  Elec       q    Type
                         _______ _______ _______ _____ _____    ______ ____

>  <TORSDO>
F 8

$$$$
=
 OpenBabel11052423043D

 28 31  0  0  1  0  0  0  0  0999 V2000
  161.7110  206.6690  151.6470 C   0  0  1  0  0  3  0  0  0  0  0  0
  160.7600  206.6260  152.8220 C   0  0  1  0  0  3  0  0  0  0  0  0
  161.5770  205.3930  152.4860 C   0  0  1  0  0  3  0  0  0  0  0  0
  161.3930  203.0000  151.8570 C   0  0  0  0  0  1  0  0  0  0  0  0
  160.6610  204.3260  151.8990 C   0  0  0  0  0  2  0  0  0  0  0  0
  160.9130  206.6760  150.3500 C   0  0  0  0  0  2  0  0  0  0  0  0
  161.8040  206.7330  149.2440 O   0  0  0  0  0  0  0  0  0  0  0  0
  161.4350  203.5590  147.3920 C   0  0  0  0  0  3  0  0  0  0  0  0
  161.7360  205.8370  148.1750 C   0  0  0  0  0  0  0  0  0  0  0  0
  161.8130  205.3400  145.7970 C   0  0  0  0  0  0  0  0  0  0  0  0
  161.5100  204.4810  148.4410 C   0  0  0  0  0  3  0  0  0  0  0  0
  161.8880  206.2620  146.8450 C   0  0  0  0  0  3  0  0  0  0  0  0
  161.9600  205.7570  144.5170 F   0  0  0  0  0  0  0  0  0  0  0  0
  161.5870  203.9880  146.0710 C   0  0  0  0  0  3  0  0  0  0  0  0
  161.3950  207.3350  154.0110 C   0  0  0  0  0  2  0  0  0  0  0  0
  160.2180  208.8870  155.7150 C   0  0  2  0  0  0  0  0  0  0  0  0
  161.8240  210.6250  155.3190 N   0  0  0  0  0  0  0  0  0  0  0  0
  161.2050  209.8250  156.3700 C   0  0  0  0  0  2  0  0  0  0  0  0
  163.2270  210.7580  155.6670 C   0  0  0  0  0  1  0  0  0  0  0  0
  161.7560  209.8330  154.0930 C   0  0  2  0  0  3  0  0  0  0  0  0
  161.2970  210.7100  152.9430 C   0  0  0  0  0  1  0  0  0  0  0  0
  160.1460  207.6900  156.4340 O   0  0  0  0  0  1  0  0  0  0  0  0
  160.7600  208.7020  154.3010 C   0  0  1  0  0  3  0  0  0  0  0  0
  158.8470  209.5540  155.6750 C   0  0  0  0  0  2  0  0  0  0  0  0
  158.9390  210.9520  156.0630 N   0  0  0  0  0  0  0  0  0  0  0  0
  157.5610  211.4580  156.1450 C   0  0  0  0  0  2  0  0  0  0  0  0
  158.3600  211.7310  154.9580 C   0  0  1  0  0  3  0  0  0  0  0  0
  158.8940  213.1450  155.0200 C   0  0  0  0  0  1  0  0  0  0  0  0
  1  6  1  6  0  0  0
  1  3  1  0  0  0  0
  1  2  1  0  0  0  0
  2 15  1  1  0  0  0
  3  5  1  6  0  0  0
  3  2  1  0  0  0  0
  4  5  1  0  0  0  0
  7  6  1  0  0  0  0
  8 11  1  0  0  0  0
  9 11  2  0  0  0  0
  9  7  1  0  0  0  0
 10 14  1  0  0  0  0
 10 12  2  0  0  0  0
 12  9  1  0  0  0  0
 13 10  1  0  0  0  0
 14  8  2  0  0  0  0
 16 18  1  0  0  0  0
 16 22  1  1  0  0  0
 17 19  1  0  0  0  0
 17 18  1  0  0  0  0
 20 21  1  6  0  0  0
 20 23  1  0  0  0  0
 20 17  1  0  0  0  0
 23 15  1  1  0  0  0
 23 16  1  0  0  0  0
 24 16  1  0  0  0  0
 24 25  1  0  0  0  0
 25 26  1  0  0  0  0
 27 28  1  1  0  0  0
 27 25  1  0  0  0  0
 27 26  1  0  0  0  0
M  END
>  <MODEL>
3

>  <REMARK>
 VINA RESULT:      -7.0      1.691      2.444
  Name = 
  8 active torsions:
  status: ('A' for Active; 'I' for Inactive)
    1  A    between atoms: C_1  and  C_11
    2  A    between atoms: N_6  and  C_11
    3  A    between atoms: C_9  and  O_18
    4  A    between atoms: C_10  and  C_14
    5  A    between atoms: C_14  and  O_18
    6  A    between atoms: C_17  and  C_19
    7  A    between atoms: C_19  and  C_27
    8  A    between atoms: C_20  and  C_25
                            x       y       z     vdW  Elec       q    Type
                         _______ _______ _______ _____ _____    ______ ____

>  <TORSDO>
F 8

$$$$
=
 OpenBabel11052423043D

 28 31  0  0  1  0  0  0  0  0999 V2000
  160.8170  206.5420  152.3860 C   0  0  1  0  0  3  0  0  0  0  0  0
  161.5440  207.7050  153.0250 C   0  0  1  0  0  3  0  0  0  0  0  0
  161.0660  207.8290  151.5910 C   0  0  1  0  0  3  0  0  0  0  0  0
  162.0340  208.7340  149.4930 C   0  0  0  0  0  1  0  0  0  0  0  0
  162.2670  207.7890  150.6540 C   0  0  0  0  0  2  0  0  0  0  0  0
  161.8050  205.4140  152.1150 C   0  0  0  0  0  2  0  0  0  0  0  0
  161.0960  204.1970  151.9240 O   0  0  0  0  0  0  0  0  0  0  0  0
  160.9020  201.4210  149.4970 C   0  0  0  0  0  3  0  0  0  0  0  0
  161.0770  203.5200  150.7030 C   0  0  0  0  0  0  0  0  0  0  0  0
  161.1820  203.4920  148.2750 C   0  0  0  0  0  0  0  0  0  0  0  0
  160.9260  202.1280  150.7030 C   0  0  0  0  0  3  0  0  0  0  0  0
  161.2050  204.2000  149.4800 C   0  0  0  0  0  3  0  0  0  0  0  0
  161.3050  204.1530  147.1000 F   0  0  0  0  0  0  0  0  0  0  0  0
  161.0300  202.1020  148.2830 C   0  0  0  0  0  3  0  0  0  0  0  0
  160.5850  208.4580  153.9370 C   0  0  0  0  0  2  0  0  0  0  0  0
  159.8120  210.9190  153.7210 C   0  0  2  0  0  0  0  0  0  0  0  0
  160.4980  211.3860  155.9710 N   0  0  0  0  0  0  0  0  0  0  0  0
  159.3670  211.4690  155.0550 C   0  0  0  0  0  2  0  0  0  0  0  0
  159.9630  210.9850  157.2600 C   0  0  0  0  0  1  0  0  0  0  0  0
  161.3450  210.2940  155.4960 C   0  0  2  0  0  3  0  0  0  0  0  0
  162.7980  210.7280  155.5150 C   0  0  0  0  0  1  0  0  0  0  0  0
  158.7370  210.3020  153.0740 O   0  0  0  0  0  1  0  0  0  0  0  0
  160.9340  209.9470  154.0730 C   0  0  1  0  0  3  0  0  0  0  0  0
  160.3490  212.0610  152.8630 C   0  0  0  0  0  2  0  0  0  0  0  0
  159.3730  212.4590  151.8610 N   0  0  0  0  0  0  0  0  0  0  0  0
  159.9290  213.6340  151.1760 C   0  0  0  0  0  2  0  0  0  0  0  0
  158.9320  213.8130  152.2230 C   0  0  1  0  0  3  0  0  0  0  0  0
  157.5800  214.0750  151.5970 C   0  0  0  0  0  1  0  0  0  0  0  0
  1  6  1  6  0  0  0
  1  2  1  0  0  0  0
  2 15  1  1  0  0  0
  3  5  1  6  0  0  0
  3  1  1  0  0  0  0
  3  2  1  0  0  0  0
  4  5  1  0  0  0  0
  7  6  1  0  0  0  0
  8 11  1  0  0  0  0
  9  7  1  0  0  0  0
 10 14  1  0  0  0  0
 10 12  2  0  0  0  0
 11  9  2  0  0  0  0
 12  9  1  0  0  0  0
 13 10  1  0  0  0  0
 14  8  2  0  0  0  0
 16 22  1  6  0  0  0
 16 23  1  0  0  0  0
 16 18  1  0  0  0  0
 17 19  1  0  0  0  0
 18 17  1  0  0  0  0
 20 21  1  6  0  0  0
 20 17  1  0  0  0  0
 23 15  1  1  0  0  0
 23 20  1  0  0  0  0
 24 16  1  0  0  0  0
 25 27  1  0  0  0  0
 25 24  1  0  0  0  0
 26 25  1  0  0  0  0
 26 27  1  0  0  0  0
 27 28  1  6  0  0  0
M  END
>  <MODEL>
4

>  <REMARK>
 VINA RESULT:      -6.9      1.929      2.312
  Name = 
  8 active torsions:
  status: ('A' for Active; 'I' for Inactive)
    1  A    between atoms: C_1  and  C_11
    2  A    between atoms: N_6  and  C_11
    3  A    between atoms: C_9  and  O_18
    4  A    between atoms: C_10  and  C_14
    5  A    between atoms: C_14  and  O_18
    6  A    between atoms: C_17  and  C_19
    7  A    between atoms: C_19  and  C_27
    8  A    between atoms: C_20  and  C_25
                            x       y       z     vdW  Elec       q    Type
                         _______ _______ _______ _____ _____    ______ ____

>  <TORSDO>
F 8

$$$$
=
 OpenBabel11052423043D

 28 31  0  0  1  0  0  0  0  0999 V2000
  161.8370  208.0520  151.0180 C   0  0  1  0  0  3  0  0  0  0  0  0
  161.0980  208.8170  152.0940 C   0  0  1  0  0  3  0  0  0  0  0  0
  161.8370  207.5450  152.4650 C   0  0  1  0  0  3  0  0  0  0  0  0
  161.5620  205.1690  153.1270 C   0  0  0  0  0  1  0  0  0  0  0  0
  160.8270  206.4440  152.7650 C   0  0  0  0  0  2  0  0  0  0  0  0
  160.8310  207.3750  150.0960 C   0  0  0  0  0  2  0  0  0  0  0  0
  161.5070  206.8440  148.9640 O   0  0  0  0  0  0  0  0  0  0  0  0
  160.8940  203.2090  149.1930 C   0  0  0  0  0  3  0  0  0  0  0  0
  161.4060  205.5030  148.5870 C   0  0  0  0  0  0  0  0  0  0  0  0
  161.5800  203.7320  146.9310 C   0  0  0  0  0  0  0  0  0  0  0  0
  161.0070  204.5590  149.5400 C   0  0  0  0  0  3  0  0  0  0  0  0
  161.6920  205.0810  147.2770 C   0  0  0  0  0  3  0  0  0  0  0  0
  161.8570  203.3320  145.6670 F   0  0  0  0  0  0  0  0  0  0  0  0
  161.1810  202.7950  147.8890 C   0  0  0  0  0  3  0  0  0  0  0  0
  161.9300  210.0190  152.5190 C   0  0  0  0  0  2  0  0  0  0  0  0
  159.9070  211.0490  153.7620 C   0  0  2  0  0  0  0  0  0  0  0  0
  160.2970  209.6460  155.6680 N   0  0  0  0  0  0  0  0  0  0  0  0
  159.2800  210.0490  154.7040 C   0  0  0  0  0  2  0  0  0  0  0  0
  160.1250  208.2200  155.8850 C   0  0  0  0  0  1  0  0  0  0  0  0
  161.5910  209.8300  155.0150 C   0  0  2  0  0  3  0  0  0  0  0  0
  162.5530  210.5100  155.9710 C   0  0  0  0  0  1  0  0  0  0  0  0
  159.3370  210.9310  152.4910 O   0  0  0  0  0  1  0  0  0  0  0  0
  161.3920  210.7020  153.7840 C   0  0  1  0  0  3  0  0  0  0  0  0
  159.6820  212.4560  154.3050 C   0  0  0  0  0  2  0  0  0  0  0  0
  158.5040  213.0610  153.7030 N   0  0  0  0  0  0  0  0  0  0  0  0
  158.3590  214.3930  154.3090 C   0  0  0  0  0  2  0  0  0  0  0  0
  157.5460  213.2860  154.7950 C   0  0  1  0  0  3  0  0  0  0  0  0
  156.1520  213.3860  154.2150 C   0  0  0  0  0  1  0  0  0  0  0  0
  1  6  1  6  0  0  0
  1  2  1  0  0  0  0
  1  3  1  0  0  0  0
  2  3  1  0  0  0  0
  2 15  1  1  0  0  0
  3  5  1  6  0  0  0
  5  4  1  0  0  0  0
  7  6  1  0  0  0  0
  8 11  1  0  0  0  0
  9  7  1  0  0  0  0
  9 11  2  0  0  0  0
 10 12  2  0  0  0  0
 10 14  1  0  0  0  0
 12  9  1  0  0  0  0
 13 10  1  0  0  0  0
 14  8  2  0  0  0  0
 16 22  1  6  0  0  0
 16 23  1  0  0  0  0
 16 24  1  0  0  0  0
 16 18  1  0  0  0  0
 17 19  1  0  0  0  0
 18 17  1  0  0  0  0
 20 17  1  0  0  0  0
 20 21  1  1  0  0  0
 23 15  1  6  0  0  0
 23 20  1  0  0  0  0
 25 24  1  0  0  0  0
 25 26  1  0  0  0  0
 25 27  1  0  0  0  0
 26 27  1  0  0  0  0
 27 28  1  6  0  0  0
M  END
>  <MODEL>
5

>  <REMARK>
 VINA RESULT:      -6.5      1.826      2.742
  Name = 
  8 active torsions:
  status: ('A' for Active; 'I' for Inactive)
    1  A    between atoms: C_1  and  C_11
    2  A    between atoms: N_6  and  C_11
    3  A    between atoms: C_9  and  O_18
    4  A    between atoms: C_10  and  C_14
    5  A    between atoms: C_14  and  O_18
    6  A    between atoms: C_17  and  C_19
    7  A    between atoms: C_19  and  C_27
    8  A    between atoms: C_20  and  C_25
                            x       y       z     vdW  Elec       q    Type
                         _______ _______ _______ _____ _____    ______ ____

>  <TORSDO>
F 8

$$$$
=
 OpenBabel11052423043D

 28 31  0  0  1  0  0  0  0  0999 V2000
  160.8310  208.2600  152.1360 C   0  0  1  0  0  3  0  0  0  0  0  0
  161.6510  209.5060  152.3910 C   0  0  1  0  0  3  0  0  0  0  0  0
  161.1720  209.2100  150.9820 C   0  0  1  0  0  3  0  0  0  0  0  0
  161.9550  208.8000  148.6630 C   0  0  0  0  0  1  0  0  0  0  0  0
  162.3580  208.7890  150.1240 C   0  0  0  0  0  2  0  0  0  0  0  0
  161.7280  207.0330  152.2480 C   0  0  0  0  0  2  0  0  0  0  0  0
  160.9280  205.8580  152.2490 O   0  0  0  0  0  0  0  0  0  0  0  0
  160.9950  204.5570  148.7940 C   0  0  0  0  0  3  0  0  0  0  0  0
  160.9200  204.9510  151.1880 C   0  0  0  0  0  0  0  0  0  0  0  0
  160.8300  202.6830  150.3180 C   0  0  0  0  0  0  0  0  0  0  0  0
  161.0000  205.4400  149.8780 C   0  0  0  0  0  3  0  0  0  0  0  0
  160.8350  203.5650  151.4020 C   0  0  0  0  0  3  0  0  0  0  0  0
  160.7480  201.3480  150.5310 F   0  0  0  0  0  0  0  0  0  0  0  0
  160.9100  203.1790  149.0130 C   0  0  0  0  0  3  0  0  0  0  0  0
  160.7590  210.5770  153.0050 C   0  0  0  0  0  2  0  0  0  0  0  0
  161.6360  210.5630  155.4410 C   0  0  2  0  0  0  0  0  0  0  0  0
  159.8320  211.9740  156.1520 N   0  0  0  0  0  0  0  0  0  0  0  0
  161.2840  211.8470  156.1530 C   0  0  0  0  0  2  0  0  0  0  0  0
  159.5350  213.3760  155.9170 C   0  0  0  0  0  1  0  0  0  0  0  0
  159.3450  211.2300  154.9930 C   0  0  2  0  0  3  0  0  0  0  0  0
  158.1520  210.3830  155.3930 C   0  0  0  0  0  1  0  0  0  0  0  0
  162.8580  210.7030  154.7770 O   0  0  0  0  0  1  0  0  0  0  0  0
  160.4640  210.3300  154.4910 C   0  0  1  0  0  3  0  0  0  0  0  0
  161.7240  209.4330  156.4620 C   0  0  0  0  0  2  0  0  0  0  0  0
  160.5160  208.6230  156.4430 N   0  0  0  0  0  0  0  0  0  0  0  0
  160.7980  207.4290  157.2540 C   0  0  0  0  0  2  0  0  0  0  0  0
  160.8770  207.3500  155.8020 C   0  0  1  0  0  3  0  0  0  0  0  0
  159.6230  206.6990  155.2610 C   0  0  0  0  0  1  0  0  0  0  0  0
  1  6  1  6  0  0  0
  1  2  1  0  0  0  0
  2 15  1  1  0  0  0
  3  5  1  6  0  0  0
  3  1  1  0  0  0  0
  3  2  1  0  0  0  0
  4  5  1  0  0  0  0
  6  7  1  0  0  0  0
  8 14  2  0  0  0  0
  8 11  1  0  0  0  0
  9 12  1  0  0  0  0
  9  7  1  0  0  0  0
 10 13  1  0  0  0  0
 10 12  2  0  0  0  0
 11  9  2  0  0  0  0
 14 10  1  0  0  0  0
 16 22  1  6  0  0  0
 16 18  1  0  0  0  0
 16 24  1  0  0  0  0
 17 18  1  0  0  0  0
 19 17  1  0  0  0  0
 20 21  1  1  0  0  0
 20 17  1  0  0  0  0
 23 15  1  6  0  0  0
 23 20  1  0  0  0  0
 23 16  1  0  0  0  0
 25 24  1  0  0  0  0
 25 26  1  0  0  0  0
 27 28  1  6  0  0  0
 27 25  1  0  0  0  0
 27 26  1  0  0  0  0
M  END
>  <MODEL>
6

>  <REMARK>
 VINA RESULT:      -6.0      1.949      3.547
  Name = 
  8 active torsions:
  status: ('A' for Active; 'I' for Inactive)
    1  A    between atoms: C_1  and  C_11
    2  A    between atoms: N_6  and  C_11
    3  A    between atoms: C_9  and  O_18
    4  A    between atoms: C_10  and  C_14
    5  A    between atoms: C_14  and  O_18
    6  A    between atoms: C_17  and  C_19
    7  A    between atoms: C_19  and  C_27
    8  A    between atoms: C_20  and  C_25
                            x       y       z     vdW  Elec       q    Type
                         _______ _______ _______ _____ _____    ______ ____

>  <TORSDO>
F 8

$$$$
=
 OpenBabel11052423043D

 28 31  0  0  1  0  0  0  0  0999 V2000
  161.6560  208.6590  150.8580 C   0  0  1  0  0  3  0  0  0  0  0  0
  160.7000  208.8160  152.0200 C   0  0  1  0  0  3  0  0  0  0  0  0
  161.9180  207.9250  152.1780 C   0  0  1  0  0  3  0  0  0  0  0  0
  162.6960  205.5700  152.2400 C   0  0  0  0  0  1  0  0  0  0  0  0
  161.4750  206.4670  152.2070 C   0  0  0  0  0  2  0  0  0  0  0  0
  160.9980  207.8180  149.7710 C   0  0  0  0  0  2  0  0  0  0  0  0
  161.9950  207.3150  148.8910 O   0  0  0  0  0  0  0  0  0  0  0  0
  161.1960  203.7610  148.2850 C   0  0  0  0  0  3  0  0  0  0  0  0
  161.8650  206.0930  148.2280 C   0  0  0  0  0  0  0  0  0  0  0  0
  162.1050  204.7020  146.2490 C   0  0  0  0  0  0  0  0  0  0  0  0
  161.3390  204.9970  148.9220 C   0  0  0  0  0  3  0  0  0  0  0  0
  162.2480  205.9390  146.8850 C   0  0  0  0  0  3  0  0  0  0  0  0
  162.4760  204.5610  144.9530 F   0  0  0  0  0  0  0  0  0  0  0  0
  161.5790  203.6130  146.9490 C   0  0  0  0  0  3  0  0  0  0  0  0
  160.9640  210.1470  152.7120 C   0  0  0  0  0  2  0  0  0  0  0  0
  160.9380  210.7770  155.2220 C   0  0  2  0  0  0  0  0  0  0  0  0
  159.1880  212.3770  154.8550 N   0  0  0  0  0  0  0  0  0  0  0  0
  160.5240  212.2160  155.4170 C   0  0  0  0  0  2  0  0  0  0  0  0
  159.1660  213.6680  154.1920 C   0  0  0  0  0  1  0  0  0  0  0  0
  159.0430  211.3560  153.8200 C   0  0  2  0  0  3  0  0  0  0  0  0
  157.6900  210.6830  153.9510 C   0  0  0  0  0  1  0  0  0  0  0  0
  162.3220  210.6980  155.0380 O   0  0  0  0  0  1  0  0  0  0  0  0
  160.1460  210.3240  153.9990 C   0  0  1  0  0  3  0  0  0  0  0  0
  160.5290  209.9680  156.4490 C   0  0  0  0  0  2  0  0  0  0  0  0
  159.8750  208.7290  156.0580 N   0  0  0  0  0  0  0  0  0  0  0  0
  160.0700  207.7830  157.1660 C   0  0  0  0  0  2  0  0  0  0  0  0
  160.9270  207.7050  155.9910 C   0  0  1  0  0  3  0  0  0  0  0  0
  160.4610  206.5780  155.0960 C   0  0  0  0  0  1  0  0  0  0  0  0
  1  6  1  6  0  0  0
  1  2  1  0  0  0  0
  1  3  1  0  0  0  0
  2  3  1  0  0  0  0
  2 15  1  1  0  0  0
  3  5  1  6  0  0  0
  5  4  1  0  0  0  0
  7  6  1  0  0  0  0
  8 11  1  0  0  0  0
  9  7  1  0  0  0  0
  9 11  2  0  0  0  0
 10 12  2  0  0  0  0
 10 14  1  0  0  0  0
 12  9  1  0  0  0  0
 13 10  1  0  0  0  0
 14  8  2  0  0  0  0
 16 22  1  6  0  0  0
 16 18  1  0  0  0  0
 16 24  1  0  0  0  0
 17 18  1  0  0  0  0
 19 17  1  0  0  0  0
 20 21  1  1  0  0  0
 20 23  1  0  0  0  0
 20 17  1  0  0  0  0
 23 15  1  6  0  0  0
 23 16  1  0  0  0  0
 25 24  1  0  0  0  0
 25 26  1  0  0  0  0
 27 28  1  6  0  0  0
 27 25  1  0  0  0  0
 27 26  1  0  0  0  0
M  END
>  <MODEL>
7

>  <REMARK>
 VINA RESULT:      -6.0      2.147      3.702
  Name = 
  8 active torsions:
  status: ('A' for Active; 'I' for Inactive)
    1  A    between atoms: C_1  and  C_11
    2  A    between atoms: N_6  and  C_11
    3  A    between atoms: C_9  and  O_18
    4  A    between atoms: C_10  and  C_14
    5  A    between atoms: C_14  and  O_18
    6  A    between atoms: C_17  and  C_19
    7  A    between atoms: C_19  and  C_27
    8  A    between atoms: C_20  and  C_25
                            x       y       z     vdW  Elec       q    Type
                         _______ _______ _______ _____ _____    ______ ____

>  <TORSDO>
F 8

$$$$
=
 OpenBabel11052423043D

 28 31  0  0  1  0  0  0  0  0999 V2000
  161.9490  208.7070  151.8420 C   0  0  1  0  0  3  0  0  0  0  0  0
  160.6640  208.0260  152.2570 C   0  0  1  0  0  3  0  0  0  0  0  0
  161.9740  207.5730  152.8730 C   0  0  1  0  0  3  0  0  0  0  0  0
  161.3250  205.1800  152.7770 C   0  0  0  0  0  1  0  0  0  0  0  0
  162.3450  206.2020  152.3190 C   0  0  0  0  0  2  0  0  0  0  0  0
  162.3030  208.2950  150.4190 C   0  0  0  0  0  2  0  0  0  0  0  0
  161.1920  207.6380  149.8240 O   0  0  0  0  0  0  0  0  0  0  0  0
  161.0240  204.2910  148.2710 C   0  0  0  0  0  3  0  0  0  0  0  0
  161.3370  206.6200  148.8780 C   0  0  0  0  0  0  0  0  0  0  0  0
  162.0410  205.8200  146.6940 C   0  0  0  0  0  0  0  0  0  0  0  0
  160.8950  205.3310  149.1970 C   0  0  0  0  0  3  0  0  0  0  0  0
  161.9120  206.8600  147.6190 C   0  0  0  0  0  3  0  0  0  0  0  0
  162.5960  206.0580  145.4810 F   0  0  0  0  0  0  0  0  0  0  0  0
  161.5970  204.5350  147.0200 C   0  0  0  0  0  3  0  0  0  0  0  0
  159.9250  208.9090  153.2540 C   0  0  0  0  0  2  0  0  0  0  0  0
  159.6300  211.4780  153.1230 C   0  0  2  0  0  0  0  0  0  0  0  0
  160.4840  211.7400  155.3500 N   0  0  0  0  0  0  0  0  0  0  0  0
  159.3530  212.0630  154.4880 C   0  0  0  0  0  2  0  0  0  0  0  0
  159.9350  211.4120  156.6530 C   0  0  0  0  0  1  0  0  0  0  0  0
  161.0850  210.5210  154.8140 C   0  0  2  0  0  3  0  0  0  0  0  0
  162.5950  210.6700  154.7760 C   0  0  0  0  0  1  0  0  0  0  0  0
  158.4310  211.0950  152.5150 O   0  0  0  0  0  1  0  0  0  0  0  0
  160.5580  210.3000  153.4050 C   0  0  1  0  0  3  0  0  0  0  0  0
  160.3400  212.5200  152.2660 C   0  0  0  0  0  2  0  0  0  0  0  0
  159.5030  212.9290  151.1490 N   0  0  0  0  0  0  0  0  0  0  0  0
  160.0760  214.1790  150.6290 C   0  0  0  0  0  2  0  0  0  0  0  0
  158.9210  214.2270  151.5160 C   0  0  1  0  0  3  0  0  0  0  0  0
  157.6650  214.4520  150.7020 C   0  0  0  0  0  1  0  0  0  0  0  0
  1  6  1  6  0  0  0
  1  2  1  0  0  0  0
  1  3  1  0  0  0  0
  2  3  1  0  0  0  0
  2 15  1  1  0  0  0
  3  5  1  6  0  0  0
  5  4  1  0  0  0  0
  7  6  1  0  0  0  0
  8 11  1  0  0  0  0
  9 11  2  0  0  0  0
  9  7  1  0  0  0  0
 10 14  1  0  0  0  0
 10 12  2  0  0  0  0
 12  9  1  0  0  0  0
 13 10  1  0  0  0  0
 14  8  2  0  0  0  0
 16 22  1  6  0  0  0
 16 23  1  0  0  0  0
 16 18  1  0  0  0  0
 17 19  1  0  0  0  0
 18 17  1  0  0  0  0
 20 21  1  6  0  0  0
 20 17  1  0  0  0  0
 23 15  1  1  0  0  0
 23 20  1  0  0  0  0
 24 16  1  0  0  0  0
 25 27  1  0  0  0  0
 25 24  1  0  0  0  0
 26 25  1  0  0  0  0
 26 27  1  0  0  0  0
 27 28  1  6  0  0  0
M  END
>  <MODEL>
8

>  <REMARK>
 VINA RESULT:      -5.9      2.690      3.494
  Name = 
  8 active torsions:
  status: ('A' for Active; 'I' for Inactive)
    1  A    between atoms: C_1  and  C_11
    2  A    between atoms: N_6  and  C_11
    3  A    between atoms: C_9  and  O_18
    4  A    between atoms: C_10  and  C_14
    5  A    between atoms: C_14  and  O_18
    6  A    between atoms: C_17  and  C_19
    7  A    between atoms: C_19  and  C_27
    8  A    between atoms: C_20  and  C_25
                            x       y       z     vdW  Elec       q    Type
                         _______ _______ _______ _____ _____    ______ ____

>  <TORSDO>
F 8

$$$$
=
 OpenBabel11052423043D

 28 31  0  0  1  0  0  0  0  0999 V2000
  160.6940  205.8700  152.9820 C   0  0  1  0  0  3  0  0  0  0  0  0
  161.3030  207.0100  153.7690 C   0  0  1  0  0  3  0  0  0  0  0  0
  160.7640  207.2770  152.3760 C   0  0  1  0  0  3  0  0  0  0  0  0
  161.3940  207.9530  150.0730 C   0  0  0  0  0  1  0  0  0  0  0  0
  161.9280  207.5130  151.4210 C   0  0  0  0  0  2  0  0  0  0  0  0
  161.7960  204.9180  152.5340 C   0  0  0  0  0  2  0  0  0  0  0  0
  161.2190  203.6940  152.0990 O   0  0  0  0  0  0  0  0  0  0  0  0
  161.1810  203.9670  148.4160 C   0  0  0  0  0  3  0  0  0  0  0  0
  161.1760  203.3180  150.7550 C   0  0  0  0  0  0  0  0  0  0  0  0
  161.0500  201.6250  149.0150 C   0  0  0  0  0  0  0  0  0  0  0  0
  161.2200  204.3120  149.7700 C   0  0  0  0  0  3  0  0  0  0  0  0
  161.0900  201.9690  150.3690 C   0  0  0  0  0  3  0  0  0  0  0  0
  160.9680  200.3230  148.6490 F   0  0  0  0  0  0  0  0  0  0  0  0
  161.0950  202.6240  148.0380 C   0  0  0  0  0  3  0  0  0  0  0  0
  160.2960  207.5070  154.7960 C   0  0  0  0  0  2  0  0  0  0  0  0
  161.3560  209.5770  155.9320 C   0  0  2  0  0  0  0  0  0  0  0  0
  161.7300  210.6170  153.8030 N   0  0  0  0  0  0  0  0  0  0  0  0
  162.3920  210.2170  155.0390 C   0  0  0  0  0  2  0  0  0  0  0  0
  162.6540  210.3260  152.7210 C   0  0  0  0  0  1  0  0  0  0  0  0
  160.5790  209.7330  153.6370 C   0  0  2  0  0  3  0  0  0  0  0  0
  159.3630  210.5460  153.2370 C   0  0  0  0  0  1  0  0  0  0  0  0
  161.9470  208.5810  156.7140 O   0  0  0  0  0  1  0  0  0  0  0  0
  160.3120  209.0330  154.9610 C   0  0  1  0  0  3  0  0  0  0  0  0
  160.7400  210.6470  156.8280 C   0  0  0  0  0  2  0  0  0  0  0  0
  160.8020  211.9540  156.1940 N   0  0  0  0  0  0  0  0  0  0  0  0
  160.5780  212.9470  157.2530 C   0  0  0  0  0  2  0  0  0  0  0  0
  159.4800  212.5690  156.3740 C   0  0  1  0  0  3  0  0  0  0  0  0
  159.2850  213.6350  155.3180 C   0  0  0  0  0  1  0  0  0  0  0  0
  1  6  1  6  0  0  0
  1  2  1  0  0  0  0
  2 15  1  1  0  0  0
  3  5  1  6  0  0  0
  3  1  1  0  0  0  0
  3  2  1  0  0  0  0
  4  5  1  0  0  0  0
  7  6  1  0  0  0  0
  8 11  1  0  0  0  0
  9  7  1  0  0  0  0
 10 12  2  0  0  0  0
 11  9  2  0  0  0  0
 12  9  1  0  0  0  0
 13 10  1  0  0  0  0
 14  8  2  0  0  0  0
 14 10  1  0  0  0  0
 16 22  1  1  0  0  0
 16 24  1  0  0  0  0
 17 18  1  0  0  0  0
 18 16  1  0  0  0  0
 19 17  1  0  0  0  0
 20 21  1  1  0  0  0
 20 17  1  0  0  0  0
 20 23  1  0  0  0  0
 23 15  1  6  0  0  0
 23 16  1  0  0  0  0
 25 27  1  0  0  0  0
 25 24  1  0  0  0  0
 25 26  1  0  0  0  0
 27 28  1  6  0  0  0
 27 26  1  0  0  0  0
M  END
>  <MODEL>
9

>  <REMARK>
 VINA RESULT:      -5.9      1.618      2.242
  Name = 
  8 active torsions:
  status: ('A' for Active; 'I' for Inactive)
    1  A    between atoms: C_1  and  C_11
    2  A    between atoms: N_6  and  C_11
    3  A    between atoms: C_9  and  O_18
    4  A    between atoms: C_10  and  C_14
    5  A    between atoms: C_14  and  O_18
    6  A    between atoms: C_17  and  C_19
    7  A    between atoms: C_19  and  C_27
    8  A    between atoms: C_20  and  C_25
                            x       y       z     vdW  Elec       q    Type
                         _______ _______ _______ _____ _____    ______ ____

>  <TORSDO>
F 8

$$$$
