=
 OpenBabel11062407423D

 34 39  0  0  1  0  0  0  0  0999 V2000
  161.9230  208.8620  149.0790 C   0  0  0  0  0  0  0  0  0  0  0  0
  161.4380  209.8620  151.3350 C   0  0  2  0  0  3  0  0  0  0  0  0
  161.4620  207.3050  150.8950 C   0  0  0  0  0  0  0  0  0  0  0  0
  161.1940  205.6710  152.6630 C   0  0  0  0  0  0  0  0  0  0  0  0
  162.6610  211.1370  149.5960 N   0  0  0  0  0  2  0  0  0  0  0  0
  161.6010  211.2000  150.5970 C   0  0  0  0  0  2  0  0  0  0  0  0
  161.5440  207.8240  153.3690 N   0  0  0  0  0  2  0  0  0  0  0  0
  161.6180  208.6440  150.4340 C   0  0  0  0  0  0  0  0  0  0  0  0
  161.1690  205.5720  154.1440 C   0  0  0  0  0  2  0  0  0  0  0  0
  162.2890  210.1720  148.6470 N   0  0  0  0  0  2  0  0  0  0  0  0
  161.4130  206.2360  149.9460 C   0  0  0  0  0  0  0  0  0  0  0  0
  161.9080  207.8140  148.1630 C   0  0  0  0  0  3  0  0  0  0  0  0
  160.0380  209.8730  151.9280 C   0  0  0  0  0  1  0  0  0  0  0  0
  161.0910  204.6270  151.7560 C   0  0  0  0  0  3  0  0  0  0  0  0
  161.1900  204.8920  150.3800 C   0  0  0  0  0  0  0  0  0  0  0  0
  161.4140  207.0280  154.5880 C   0  0  2  0  0  3  0  0  0  0  0  0
  161.3760  206.9610  152.2590 C   0  0  0  0  0  0  0  0  0  0  0  0
  161.6380  206.5200  148.5920 C   0  0  0  0  0  3  0  0  0  0  0  0
  161.1890  202.8050  147.2010 C   0  0  0  0  0  0  0  0  0  0  0  0
  160.7610  201.5680  147.6870 C   0  0  0  0  0  3  0  0  0  0  0  0
  161.0680  203.7420  149.4450 C   0  0  0  0  0  0  0  0  0  0  0  0
  160.4790  201.4130  149.0470 C   0  0  0  0  0  3  0  0  0  0  0  0
  161.3350  203.8870  148.0740 C   0  0  0  0  0  3  0  0  0  0  0  0
  160.6270  202.4940  149.9190 C   0  0  0  0  0  3  0  0  0  0  0  0
  161.4650  202.9620  145.8500 O   0  0  0  0  0  1  0  0  0  0  0  0
  160.2750  207.5530  155.4600 C   0  0  0  0  0  2  0  0  0  0  0  0
  160.6410  208.8480  156.1730 C   0  0  0  0  0  2  0  0  0  0  0  0
  161.9630  210.9530  154.8160 O   0  0  0  0  0  0  0  0  0  0  0  0
  159.8700  210.0150  155.5780 C   0  0  2  0  0  3  0  0  0  0  0  0
  160.7990  211.1600  155.2500 C   0  0  0  0  0  0  0  0  0  0  0  0
  158.9670  212.7470  155.8920 C   0  0  0  0  0  2  0  0  0  0  0  0
  158.1390  211.4600  155.8710 C   0  0  0  0  0  2  0  0  0  0  0  0
  158.8730  210.4290  156.4870 O   0  0  0  0  0  0  0  0  0  0  0  0
  160.2890  212.4930  155.3240 N   0  0  0  0  0  2  0  0  0  0  0  0
  1  8  1  0  0  0  0
  2 13  1  6  0  0  0
  3 17  1  0  0  0  0
  4  9  1  0  0  0  0
  5  6  1  0  0  0  0
  6  2  1  0  0  0  0
  7 16  1  0  0  0  0
  8  3  2  0  0  0  0
  8  2  1  0  0  0  0
  9 16  1  0  0  0  0
 10  1  1  0  0  0  0
 10  5  1  0  0  0  0
 11 15  1  0  0  0  0
 11  3  1  0  0  0  0
 12 18  1  0  0  0  0
 12  1  2  0  0  0  0
 14  4  1  0  0  0  0
 15 14  2  0  0  0  0
 16 26  1  1  0  0  0
 17  4  2  0  0  0  0
 17  7  1  0  0  0  0
 18 11  2  0  0  0  0
 19 20  2  0  0  0  0
 19 23  1  0  0  0  0
 20 22  1  0  0  0  0
 21 24  1  0  0  0  0
 21 15  1  0  0  0  0
 22 24  2  0  0  0  0
 23 21  2  0  0  0  0
 25 19  1  0  0  0  0
 26 27  1  0  0  0  0
 28 30  2  0  0  0  0
 29 27  1  1  0  0  0
 29 33  1  0  0  0  0
 30 34  1  0  0  0  0
 30 29  1  0  0  0  0
 32 31  1  0  0  0  0
 32 33  1  0  0  0  0
 34 31  1  0  0  0  0
M  END
>  <MODEL>
1

>  <REMARK>
 VINA RESULT:      -9.7      0.000      0.000
  Name = 
  4 active torsions:
  status: ('A' for Active; 'I' for Inactive)
    1  A    between atoms: C_3  and  C_13
    2  A    between atoms: C_3  and  C_17
    3  A    between atoms: C_12  and  C_28
    4  A    between atoms: C_17  and  C_29
                            x       y       z     vdW  Elec       q    Type
                         _______ _______ _______ _____ _____    ______ ____

>  <TORSDO>
F 4

$$$$
=
 OpenBabel11062407423D

 34 39  0  0  1  0  0  0  0  0999 V2000
  160.8560  208.0060  154.2410 C   0  0  0  0  0  0  0  0  0  0  0  0
  161.6410  210.1870  153.2650 C   0  0  2  0  0  3  0  0  0  0  0  0
  161.3330  208.0330  151.8520 C   0  0  0  0  0  0  0  0  0  0  0  0
  161.6080  207.9970  149.4450 C   0  0  0  0  0  0  0  0  0  0  0  0
  160.3880  210.1080  155.4030 N   0  0  0  0  0  2  0  0  0  0  0  0
  161.5380  210.6860  154.7150 C   0  0  0  0  0  2  0  0  0  0  0  0
  161.5310  210.0850  150.3880 N   0  0  0  0  0  2  0  0  0  0  0  0
  161.2630  208.7180  153.0990 C   0  0  0  0  0  0  0  0  0  0  0  0
  161.7610  208.9170  148.2910 C   0  0  0  0  0  2  0  0  0  0  0  0
  160.5770  208.7180  155.4460 N   0  0  0  0  0  2  0  0  0  0  0  0
  161.1920  206.6090  151.8230 C   0  0  0  0  0  0  0  0  0  0  0  0
  160.6850  206.6250  154.2020 C   0  0  0  0  0  3  0  0  0  0  0  0
  163.0850  210.4070  152.8420 C   0  0  0  0  0  1  0  0  0  0  0  0
  161.5260  206.6130  149.4030 C   0  0  0  0  0  3  0  0  0  0  0  0
  161.3260  205.8930  150.5930 C   0  0  0  0  0  0  0  0  0  0  0  0
  161.6980  210.3080  148.9530 C   0  0  2  0  0  3  0  0  0  0  0  0
  161.5130  208.6880  150.6180 C   0  0  0  0  0  0  0  0  0  0  0  0
  160.8700  205.9350  153.0090 C   0  0  0  0  0  3  0  0  0  0  0  0
  160.8190  202.3820  149.2260 C   0  0  0  0  0  0  0  0  0  0  0  0
  161.0470  201.6090  150.3670 C   0  0  0  0  0  3  0  0  0  0  0  0
  161.2500  204.4110  150.4990 C   0  0  0  0  0  0  0  0  0  0  0  0
  161.3690  202.2300  151.5760 C   0  0  0  0  0  3  0  0  0  0  0  0
  160.9150  203.7740  149.2940 C   0  0  0  0  0  3  0  0  0  0  0  0
  161.4660  203.6220  151.6420 C   0  0  0  0  0  3  0  0  0  0  0  0
  160.4950  201.7660  148.0250 O   0  0  0  0  0  1  0  0  0  0  0  0
  162.9580  211.1250  148.6730 C   0  0  0  0  0  2  0  0  0  0  0  0
  162.6400  212.5540  148.2510 C   0  0  0  0  0  2  0  0  0  0  0  0
  162.3520  213.0340  145.4750 O   0  0  0  0  0  0  0  0  0  0  0  0
  161.2700  212.6180  147.5960 C   0  0  2  0  0  3  0  0  0  0  0  0
  161.3610  213.2430  146.2230 C   0  0  0  0  0  0  0  0  0  0  0  0
  159.1170  214.2870  146.6180 C   0  0  0  0  0  2  0  0  0  0  0  0
  159.1220  213.3300  147.8120 C   0  0  0  0  0  2  0  0  0  0  0  0
  160.3910  213.3540  148.4190 O   0  0  0  0  0  0  0  0  0  0  0  0
  160.2390  213.9800  145.7350 N   0  0  0  0  0  2  0  0  0  0  0  0
  1 10  1  0  0  0  0
  2 13  1  1  0  0  0
  2  6  1  0  0  0  0
  3  8  1  0  0  0  0
  4 17  1  0  0  0  0
  5 10  1  0  0  0  0
  6  5  1  0  0  0  0
  7 17  1  0  0  0  0
  8  2  1  0  0  0  0
  8  1  2  0  0  0  0
  9 16  1  0  0  0  0
  9  4  1  0  0  0  0
 11  3  1  0  0  0  0
 11 18  1  0  0  0  0
 12  1  1  0  0  0  0
 14  4  2  0  0  0  0
 14 15  1  0  0  0  0
 15 11  2  0  0  0  0
 16 26  1  1  0  0  0
 16  7  1  0  0  0  0
 17  3  2  0  0  0  0
 18 12  2  0  0  0  0
 19 23  2  0  0  0  0
 19 20  1  0  0  0  0
 20 22  2  0  0  0  0
 21 15  1  0  0  0  0
 21 24  2  0  0  0  0
 22 24  1  0  0  0  0
 23 21  1  0  0  0  0
 25 19  1  0  0  0  0
 27 26  1  0  0  0  0
 28 30  2  0  0  0  0
 29 27  1  1  0  0  0
 29 33  1  0  0  0  0
 30 29  1  0  0  0  0
 31 32  1  0  0  0  0
 32 33  1  0  0  0  0
 34 30  1  0  0  0  0
 34 31  1  0  0  0  0
M  END
>  <MODEL>
2

>  <REMARK>
 VINA RESULT:      -9.0      3.058      5.734
  Name = 
  4 active torsions:
  status: ('A' for Active; 'I' for Inactive)
    1  A    between atoms: C_3  and  C_13
    2  A    between atoms: C_3  and  C_17
    3  A    between atoms: C_12  and  C_28
    4  A    between atoms: C_17  and  C_29
                            x       y       z     vdW  Elec       q    Type
                         _______ _______ _______ _____ _____    ______ ____

>  <TORSDO>
F 4

$$$$
=
 OpenBabel11062407423D

 34 39  0  0  1  0  0  0  0  0999 V2000
  161.8330  209.3140  149.2440 C   0  0  0  0  0  0  0  0  0  0  0  0
  161.3120  210.7870  151.2160 C   0  0  2  0  0  3  0  0  0  0  0  0
  161.4180  208.1990  151.3700 C   0  0  0  0  0  0  0  0  0  0  0  0
  161.1990  207.0040  153.4670 C   0  0  0  0  0  0  0  0  0  0  0  0
  162.4970  211.6690  149.2250 N   0  0  0  0  0  2  0  0  0  0  0  0
  161.4340  211.9250  150.1900 C   0  0  0  0  0  2  0  0  0  0  0  0
  161.4790  209.2710  153.6600 N   0  0  0  0  0  2  0  0  0  0  0  0
  161.5320  209.4020  150.6150 C   0  0  0  0  0  0  0  0  0  0  0  0
  161.1750  207.2450  154.9300 C   0  0  0  0  0  2  0  0  0  0  0  0
  162.1580  210.5020  148.5230 N   0  0  0  0  0  2  0  0  0  0  0  0
  161.4050  206.9400  150.6900 C   0  0  0  0  0  0  0  0  0  0  0  0
  161.8530  208.0850  148.5920 C   0  0  0  0  0  3  0  0  0  0  0  0
  159.9120  210.8890  151.7980 C   0  0  0  0  0  1  0  0  0  0  0  0
  161.1310  205.7780  152.8220 C   0  0  0  0  0  3  0  0  0  0  0  0
  161.2240  205.7250  151.4210 C   0  0  0  0  0  0  0  0  0  0  0  0
  161.3720  208.7710  155.0300 C   0  0  2  0  0  3  0  0  0  0  0  0
  161.3410  208.1730  152.7770 C   0  0  0  0  0  0  0  0  0  0  0  0
  161.6240  206.9150  149.3060 C   0  0  0  0  0  3  0  0  0  0  0  0
  161.0100  202.9970  148.7810 C   0  0  0  0  0  0  0  0  0  0  0  0
  160.9110  201.8540  149.5770 C   0  0  0  0  0  3  0  0  0  0  0  0
  161.1400  204.3880  150.7730 C   0  0  0  0  0  0  0  0  0  0  0  0
  160.9190  201.9710  150.9680 C   0  0  0  0  0  3  0  0  0  0  0  0
  161.1180  204.2570  149.3760 C   0  0  0  0  0  3  0  0  0  0  0  0
  161.0290  203.2310  151.5630 C   0  0  0  0  0  3  0  0  0  0  0  0
  160.9970  202.8830  147.3970 O   0  0  0  0  0  1  0  0  0  0  0  0
  160.2150  209.4450  155.7650 C   0  0  0  0  0  2  0  0  0  0  0  0
  160.3050  210.9640  155.7150 C   0  0  0  0  0  2  0  0  0  0  0  0
  159.5960  213.5520  156.6190 O   0  0  0  0  0  0  0  0  0  0  0  0
  158.9420  211.5650  155.4100 C   0  0  2  0  0  3  0  0  0  0  0  0
  158.6730  212.7590  156.2940 C   0  0  0  0  0  0  0  0  0  0  0  0
  156.2560  212.0990  156.3440 C   0  0  0  0  0  2  0  0  0  0  0  0
  156.7130  211.1550  155.2310 C   0  0  0  0  0  2  0  0  0  0  0  0
  157.9460  210.5800  155.5890 O   0  0  0  0  0  0  0  0  0  0  0  0
  157.3220  213.0480  156.6560 N   0  0  0  0  0  2  0  0  0  0  0  0
  1  8  1  0  0  0  0
  2 13  1  6  0  0  0
  3 17  1  0  0  0  0
  4  9  1  0  0  0  0
  5  6  1  0  0  0  0
  6  2  1  0  0  0  0
  7 16  1  0  0  0  0
  8  2  1  0  0  0  0
  8  3  2  0  0  0  0
  9 16  1  0  0  0  0
 10  5  1  0  0  0  0
 10  1  1  0  0  0  0
 11  3  1  0  0  0  0
 11 15  1  0  0  0  0
 12  1  2  0  0  0  0
 12 18  1  0  0  0  0
 14  4  1  0  0  0  0
 15 14  2  0  0  0  0
 16 26  1  6  0  0  0
 17  4  2  0  0  0  0
 17  7  1  0  0  0  0
 18 11  2  0  0  0  0
 19 23  2  0  0  0  0
 19 20  1  0  0  0  0
 20 22  2  0  0  0  0
 21 15  1  0  0  0  0
 21 24  2  0  0  0  0
 22 24  1  0  0  0  0
 23 21  1  0  0  0  0
 25 19  1  0  0  0  0
 27 26  1  0  0  0  0
 29 33  1  0  0  0  0
 29 27  1  1  0  0  0
 29 30  1  0  0  0  0
 30 28  2  0  0  0  0
 30 34  1  0  0  0  0
 31 34  1  0  0  0  0
 32 33  1  0  0  0  0
 32 31  1  0  0  0  0
M  END
>  <MODEL>
3

>  <REMARK>
 VINA RESULT:      -9.0      1.291      1.745
  Name = 
  4 active torsions:
  status: ('A' for Active; 'I' for Inactive)
    1  A    between atoms: C_3  and  C_13
    2  A    between atoms: C_3  and  C_17
    3  A    between atoms: C_12  and  C_28
    4  A    between atoms: C_17  and  C_29
                            x       y       z     vdW  Elec       q    Type
                         _______ _______ _______ _____ _____    ______ ____

>  <TORSDO>
F 4

$$$$
=
 OpenBabel11062407423D

 34 39  0  0  1  0  0  0  0  0999 V2000
  161.2470  204.6630  150.4950 C   0  0  0  0  0  0  0  0  0  0  0  0
  161.3210  205.9330  148.3250 C   0  0  2  0  0  3  0  0  0  0  0  0
  161.3960  207.0900  150.6450 C   0  0  0  0  0  0  0  0  0  0  0  0
  161.7230  209.4770  150.9070 C   0  0  0  0  0  0  0  0  0  0  0  0
  161.9440  203.5360  148.4370 N   0  0  0  0  0  2  0  0  0  0  0  0
  161.1900  204.5380  147.6920 C   0  0  0  0  0  2  0  0  0  0  0  0
  162.1060  208.6640  148.7970 N   0  0  0  0  0  2  0  0  0  0  0  0
  161.3330  205.9100  149.8500 C   0  0  0  0  0  0  0  0  0  0  0  0
  162.1040  210.6780  150.1240 C   0  0  0  0  0  2  0  0  0  0  0  0
  161.3950  203.4690  149.7280 N   0  0  0  0  0  2  0  0  0  0  0  0
  161.1650  207.0020  152.0550 C   0  0  0  0  0  0  0  0  0  0  0  0
  161.0560  204.5790  151.8710 C   0  0  0  0  0  3  0  0  0  0  0  0
  160.1350  206.7400  147.8220 C   0  0  0  0  0  1  0  0  0  0  0  0
  161.4500  209.4200  152.2650 C   0  0  0  0  0  3  0  0  0  0  0  0
  161.1570  208.1820  152.8620 C   0  0  0  0  0  0  0  0  0  0  0  0
  162.3620  210.1020  148.7170 C   0  0  2  0  0  3  0  0  0  0  0  0
  161.7030  208.3620  150.1210 C   0  0  0  0  0  0  0  0  0  0  0  0
  160.9980  205.7380  152.6370 C   0  0  0  0  0  3  0  0  0  0  0  0
  160.8300  209.2750  156.4890 C   0  0  0  0  0  0  0  0  0  0  0  0
  160.3690  208.1000  157.0880 C   0  0  0  0  0  3  0  0  0  0  0  0
  160.8650  208.1700  154.3210 C   0  0  0  0  0  0  0  0  0  0  0  0
  160.1600  206.9580  156.3110 C   0  0  0  0  0  3  0  0  0  0  0  0
  161.0820  209.3070  155.1150 C   0  0  0  0  0  3  0  0  0  0  0  0
  160.4110  206.9920  154.9370 C   0  0  0  0  0  3  0  0  0  0  0  0
  161.0430  210.4090  157.2610 O   0  0  0  0  0  1  0  0  0  0  0  0
  161.4660  210.7540  147.6650 C   0  0  0  0  0  2  0  0  0  0  0  0
  161.5400  212.2750  147.7060 C   0  0  0  0  0  2  0  0  0  0  0  0
  159.5520  213.6570  149.1750 O   0  0  0  0  0  0  0  0  0  0  0  0
  160.3260  212.8810  147.0200 C   0  0  2  0  0  3  0  0  0  0  0  0
  159.2560  213.2230  148.0300 C   0  0  0  0  0  0  0  0  0  0  0  0
  157.5320  212.5950  146.3220 C   0  0  0  0  0  2  0  0  0  0  0  0
  158.7540  212.6000  145.4020 C   0  0  0  0  0  2  0  0  0  0  0  0
  159.8290  211.9740  146.0590 O   0  0  0  0  0  0  0  0  0  0  0  0
  157.8880  213.1630  147.6200 N   0  0  0  0  0  2  0  0  0  0  0  0
  1 12  1  0  0  0  0
  2 13  1  1  0  0  0
  2  8  1  0  0  0  0
  3 11  1  0  0  0  0
  4 14  2  0  0  0  0
  5 10  1  0  0  0  0
  6  2  1  0  0  0  0
  6  5  1  0  0  0  0
  7 17  1  0  0  0  0
  8  1  2  0  0  0  0
  8  3  1  0  0  0  0
  9  4  1  0  0  0  0
 10  1  1  0  0  0  0
 11 18  1  0  0  0  0
 11 15  2  0  0  0  0
 12 18  2  0  0  0  0
 14 15  1  0  0  0  0
 15 21  1  0  0  0  0
 16 26  1  6  0  0  0
 16  7  1  0  0  0  0
 16  9  1  0  0  0  0
 17  3  2  0  0  0  0
 17  4  1  0  0  0  0
 19 20  1  0  0  0  0
 19 25  1  0  0  0  0
 21 24  2  0  0  0  0
 21 23  1  0  0  0  0
 22 20  2  0  0  0  0
 23 19  2  0  0  0  0
 24 22  1  0  0  0  0
 26 27  1  0  0  0  0
 29 27  1  1  0  0  0
 29 30  1  0  0  0  0
 30 28  2  0  0  0  0
 31 34  1  0  0  0  0
 32 33  1  0  0  0  0
 32 31  1  0  0  0  0
 33 29  1  0  0  0  0
 34 30  1  0  0  0  0
M  END
>  <MODEL>
4

>  <REMARK>
 VINA RESULT:      -8.7      3.340      7.441
  Name = 
  4 active torsions:
  status: ('A' for Active; 'I' for Inactive)
    1  A    between atoms: C_3  and  C_13
    2  A    between atoms: C_3  and  C_17
    3  A    between atoms: C_12  and  C_28
    4  A    between atoms: C_17  and  C_29
                            x       y       z     vdW  Elec       q    Type
                         _______ _______ _______ _____ _____    ______ ____

>  <TORSDO>
F 4

$$$$
=
 OpenBabel11062407423D

 34 39  0  0  1  0  0  0  0  0999 V2000
  160.9860  210.0200  155.1230 C   0  0  0  0  0  0  0  0  0  0  0  0
  160.8980  207.5090  155.2390 C   0  0  2  0  0  3  0  0  0  0  0  0
  161.3560  208.8090  153.0420 C   0  0  0  0  0  0  0  0  0  0  0  0
  161.9120  207.7030  150.9590 C   0  0  0  0  0  0  0  0  0  0  0  0
  161.3260  208.8780  157.2610 N   0  0  0  0  0  2  0  0  0  0  0  0
  160.5720  207.7510  156.7220 C   0  0  0  0  0  2  0  0  0  0  0  0
  161.9610  206.3640  152.8190 N   0  0  0  0  0  2  0  0  0  0  0  0
  161.0960  208.7940  154.4420 C   0  0  0  0  0  0  0  0  0  0  0  0
  162.2930  206.3700  150.4300 C   0  0  0  0  0  2  0  0  0  0  0  0
  160.9380  210.0240  156.5500 N   0  0  0  0  0  2  0  0  0  0  0  0
  161.2950  210.0480  152.3280 C   0  0  0  0  0  0  0  0  0  0  0  0
  160.9610  211.2260  154.4300 C   0  0  0  0  0  3  0  0  0  0  0  0
  159.7300  206.7160  154.6730 C   0  0  0  0  0  1  0  0  0  0  0  0
  161.8060  208.8850  150.2410 C   0  0  0  0  0  3  0  0  0  0  0  0
  161.4860  210.0780  150.9120 C   0  0  0  0  0  0  0  0  0  0  0  0
  162.3250  205.4960  151.7000 C   0  0  2  0  0  3  0  0  0  0  0  0
  161.7020  207.6580  152.3060 C   0  0  0  0  0  0  0  0  0  0  0  0
  161.0960  211.2350  153.0460 C   0  0  0  0  0  3  0  0  0  0  0  0
  162.0600  212.6850  148.2040 C   0  0  0  0  0  0  0  0  0  0  0  0
  161.2010  213.7050  148.6210 C   0  0  0  0  0  3  0  0  0  0  0  0
  161.3770  211.3190  150.0990 C   0  0  0  0  0  0  0  0  0  0  0  0
  160.4340  213.5410  149.7770 C   0  0  0  0  0  3  0  0  0  0  0  0
  162.1510  211.5020  148.9420 C   0  0  0  0  0  3  0  0  0  0  0  0
  160.5250  212.3570  150.5130 C   0  0  0  0  0  3  0  0  0  0  0  0
  162.8260  212.8480  147.0580 O   0  0  0  0  0  1  0  0  0  0  0  0
  161.3640  204.3120  151.5970 C   0  0  0  0  0  2  0  0  0  0  0  0
  160.6400  204.2700  150.2570 C   0  0  0  0  0  2  0  0  0  0  0  0
  161.5610  204.8590  147.6450 O   0  0  0  0  0  0  0  0  0  0  0  0
  161.2390  203.1930  149.3670 C   0  0  2  0  0  3  0  0  0  0  0  0
  161.3030  203.6600  147.9320 C   0  0  0  0  0  0  0  0  0  0  0  0
  160.8180  201.3090  147.2110 C   0  0  0  0  0  2  0  0  0  0  0  0
  161.0920  201.0280  148.6900 C   0  0  0  0  0  2  0  0  0  0  0  0
  160.4670  202.0160  149.4720 O   0  0  0  0  0  0  0  0  0  0  0  0
  161.1870  202.6860  146.8930 N   0  0  0  0  0  2  0  0  0  0  0  0
  1 10  1  0  0  0  0
  2 13  1  6  0  0  0
  2  6  1  0  0  0  0
  3  8  2  0  0  0  0
  4 17  2  0  0  0  0
  6  5  1  0  0  0  0
  8  1  1  0  0  0  0
  8  2  1  0  0  0  0
  9  4  1  0  0  0  0
  9 16  1  0  0  0  0
 10  5  1  0  0  0  0
 11  3  1  0  0  0  0
 11 18  2  0  0  0  0
 12  1  2  0  0  0  0
 14 15  2  0  0  0  0
 14  4  1  0  0  0  0
 15 11  1  0  0  0  0
 16 26  1  6  0  0  0
 16  7  1  0  0  0  0
 17  7  1  0  0  0  0
 17  3  1  0  0  0  0
 18 12  1  0  0  0  0
 19 20  2  0  0  0  0
 19 23  1  0  0  0  0
 20 22  1  0  0  0  0
 21 24  1  0  0  0  0
 21 15  1  0  0  0  0
 22 24  2  0  0  0  0
 23 21  2  0  0  0  0
 25 19  1  0  0  0  0
 27 26  1  0  0  0  0
 28 30  2  0  0  0  0
 29 33  1  0  0  0  0
 29 27  1  1  0  0  0
 30 29  1  0  0  0  0
 31 32  1  0  0  0  0
 32 33  1  0  0  0  0
 34 31  1  0  0  0  0
 34 30  1  0  0  0  0
M  END
>  <MODEL>
5

>  <REMARK>
 VINA RESULT:      -7.9      3.006      8.100
  Name = 
  4 active torsions:
  status: ('A' for Active; 'I' for Inactive)
    1  A    between atoms: C_3  and  C_13
    2  A    between atoms: C_3  and  C_17
    3  A    between atoms: C_12  and  C_28
    4  A    between atoms: C_17  and  C_29
                            x       y       z     vdW  Elec       q    Type
                         _______ _______ _______ _____ _____    ______ ____

>  <TORSDO>
F 4

$$$$
=
 OpenBabel11062407423D

 34 39  0  0  1  0  0  0  0  0999 V2000
  161.1710  204.9400  150.7580 C   0  0  0  0  0  0  0  0  0  0  0  0
  161.2550  206.0900  148.5220 C   0  0  2  0  0  3  0  0  0  0  0  0
  161.3410  207.3700  150.7770 C   0  0  0  0  0  0  0  0  0  0  0  0
  161.6890  209.7640  150.9100 C   0  0  0  0  0  0  0  0  0  0  0  0
  161.8570  203.6970  148.7640 N   0  0  0  0  0  2  0  0  0  0  0  0
  161.1120  204.6640  147.9660 C   0  0  0  0  0  2  0  0  0  0  0  0
  162.0630  208.8360  148.8470 N   0  0  0  0  0  2  0  0  0  0  0  0
  161.2670  206.1490  150.0470 C   0  0  0  0  0  0  0  0  0  0  0  0
  162.0800  210.9180  150.0630 C   0  0  0  0  0  2  0  0  0  0  0  0
  161.3090  203.7040  150.0560 N   0  0  0  0  0  2  0  0  0  0  0  0
  161.1100  207.3600  152.1890 C   0  0  0  0  0  0  0  0  0  0  0  0
  160.9810  204.9310  152.1360 C   0  0  0  0  0  3  0  0  0  0  0  0
  160.0760  206.8790  147.9770 C   0  0  0  0  0  1  0  0  0  0  0  0
  161.4160  209.7830  152.2690 C   0  0  0  0  0  3  0  0  0  0  0  0
  161.1130  208.5810  152.9320 C   0  0  0  0  0  0  0  0  0  0  0  0
  162.3320  210.2650  148.6890 C   0  0  2  0  0  3  0  0  0  0  0  0
  161.6590  208.6090  150.1850 C   0  0  0  0  0  0  0  0  0  0  0  0
  160.9330  206.1300  152.8390 C   0  0  0  0  0  3  0  0  0  0  0  0
  160.3100  207.5670  156.5080 C   0  0  0  0  0  0  0  0  0  0  0  0
  160.2030  208.8140  157.1280 C   0  0  0  0  0  3  0  0  0  0  0  0
  160.8210  208.6510  154.3890 C   0  0  0  0  0  0  0  0  0  0  0  0
  160.3960  209.9810  156.3840 C   0  0  0  0  0  3  0  0  0  0  0  0
  160.6120  207.4870  155.1460 C   0  0  0  0  0  3  0  0  0  0  0  0
  160.6990  209.8990  155.0230 C   0  0  0  0  0  3  0  0  0  0  0  0
  160.1130  206.4070  157.2450 O   0  0  0  0  0  1  0  0  0  0  0  0
  161.4410  210.8670  147.6040 C   0  0  0  0  0  2  0  0  0  0  0  0
  161.2100  212.3590  147.8080 C   0  0  0  0  0  2  0  0  0  0  0  0
  159.1290  212.2750  145.8900 O   0  0  0  0  0  0  0  0  0  0  0  0
  161.3230  213.0970  146.4830 C   0  0  2  0  0  3  0  0  0  0  0  0
  160.2820  212.6040  145.5060 C   0  0  0  0  0  0  0  0  0  0  0  0
  161.9440  212.9460  143.6610 C   0  0  0  0  0  2  0  0  0  0  0  0
  162.7050  213.6720  144.7720 C   0  0  0  0  0  2  0  0  0  0  0  0
  162.6210  212.9190  145.9580 O   0  0  0  0  0  0  0  0  0  0  0  0
  160.5900  212.6340  144.1110 N   0  0  0  0  0  2  0  0  0  0  0  0
  1 12  1  0  0  0  0
  2 13  1  1  0  0  0
  2  8  1  0  0  0  0
  3 11  1  0  0  0  0
  4 14  2  0  0  0  0
  5 10  1  0  0  0  0
  6  2  1  0  0  0  0
  6  5  1  0  0  0  0
  7 17  1  0  0  0  0
  8  1  2  0  0  0  0
  8  3  1  0  0  0  0
  9  4  1  0  0  0  0
 10  1  1  0  0  0  0
 11 18  1  0  0  0  0
 11 15  2  0  0  0  0
 12 18  2  0  0  0  0
 14 15  1  0  0  0  0
 15 21  1  0  0  0  0
 16 26  1  6  0  0  0
 16  7  1  0  0  0  0
 16  9  1  0  0  0  0
 17  3  2  0  0  0  0
 17  4  1  0  0  0  0
 19 20  1  0  0  0  0
 19 25  1  0  0  0  0
 21 24  2  0  0  0  0
 21 23  1  0  0  0  0
 22 20  2  0  0  0  0
 23 19  2  0  0  0  0
 24 22  1  0  0  0  0
 26 27  1  0  0  0  0
 29 27  1  1  0  0  0
 30 28  2  0  0  0  0
 30 29  1  0  0  0  0
 31 34  1  0  0  0  0
 31 32  1  0  0  0  0
 32 33  1  0  0  0  0
 33 29  1  0  0  0  0
 34 30  1  0  0  0  0
M  END
>  <MODEL>
6

>  <REMARK>
 VINA RESULT:      -7.8      3.680      8.006
  Name = 
  4 active torsions:
  status: ('A' for Active; 'I' for Inactive)
    1  A    between atoms: C_3  and  C_13
    2  A    between atoms: C_3  and  C_17
    3  A    between atoms: C_12  and  C_28
    4  A    between atoms: C_17  and  C_29
                            x       y       z     vdW  Elec       q    Type
                         _______ _______ _______ _____ _____    ______ ____

>  <TORSDO>
F 4

$$$$
=
 OpenBabel11062407423D

 34 39  0  0  1  0  0  0  0  0999 V2000
  161.0340  204.6700  152.7450 C   0  0  0  0  0  0  0  0  0  0  0  0
  161.1370  204.0280  150.3150 C   0  0  2  0  0  3  0  0  0  0  0  0
  161.3470  206.4780  151.1420 C   0  0  0  0  0  0  0  0  0  0  0  0
  161.8360  208.3250  149.6520 C   0  0  0  0  0  0  0  0  0  0  0  0
  161.6030  202.3770  152.1040 N   0  0  0  0  0  2  0  0  0  0  0  0
  160.8980  202.6060  150.8480 C   0  0  0  0  0  2  0  0  0  0  0  0
  162.1110  206.2380  148.7440 N   0  0  0  0  0  2  0  0  0  0  0  0
  161.1850  205.0880  151.4110 C   0  0  0  0  0  0  0  0  0  0  0  0
  162.2760  208.5940  148.2610 C   0  0  0  0  0  2  0  0  0  0  0  0
  161.0840  203.2760  153.0490 N   0  0  0  0  0  2  0  0  0  0  0  0
  161.1460  207.4260  152.1950 C   0  0  0  0  0  0  0  0  0  0  0  0
  160.8740  205.5940  153.7720 C   0  0  0  0  0  3  0  0  0  0  0  0
  159.9930  204.3190  149.3550 C   0  0  0  0  0  1  0  0  0  0  0  0
  161.5950  209.2610  150.6460 C   0  0  0  0  0  3  0  0  0  0  0  0
  161.2370  208.8280  151.9340 C   0  0  0  0  0  0  0  0  0  0  0  0
  162.4590  207.1780  147.6790 C   0  0  2  0  0  3  0  0  0  0  0  0
  161.7240  206.9850  149.8820 C   0  0  0  0  0  0  0  0  0  0  0  0
  160.9120  206.9560  153.4950 C   0  0  0  0  0  3  0  0  0  0  0  0
  161.5440  210.9590  155.0680 C   0  0  0  0  0  0  0  0  0  0  0  0
  160.4360  211.7990  154.9370 C   0  0  0  0  0  3  0  0  0  0  0  0
  160.9820  209.8690  152.9660 C   0  0  0  0  0  0  0  0  0  0  0  0
  159.5950  211.6750  153.8290 C   0  0  0  0  0  3  0  0  0  0  0  0
  161.8120  209.9960  154.0910 C   0  0  0  0  0  3  0  0  0  0  0  0
  159.8640  210.7130  152.8520 C   0  0  0  0  0  3  0  0  0  0  0  0
  162.3790  211.0780  156.1710 O   0  0  0  0  0  1  0  0  0  0  0  0
  161.5820  206.9540  146.4490 C   0  0  0  0  0  2  0  0  0  0  0  0
  162.0170  205.7370  145.6420 C   0  0  0  0  0  2  0  0  0  0  0  0
  162.3310  203.4660  147.3040 O   0  0  0  0  0  0  0  0  0  0  0  0
  160.9560  204.6510  145.7080 C   0  0  2  0  0  3  0  0  0  0  0  0
  161.5080  203.4020  146.3530 C   0  0  0  0  0  0  0  0  0  0  0  0
  160.0810  202.0460  144.8000 C   0  0  0  0  0  2  0  0  0  0  0  0
  159.4620  203.4170  144.5190 C   0  0  0  0  0  2  0  0  0  0  0  0
  160.4880  204.3730  144.4060 O   0  0  0  0  0  0  0  0  0  0  0  0
  160.9820  202.1370  145.9470 N   0  0  0  0  0  2  0  0  0  0  0  0
  1 10  1  0  0  0  0
  1 12  1  0  0  0  0
  2 13  1  6  0  0  0
  2  6  1  0  0  0  0
  2  8  1  0  0  0  0
  3  8  1  0  0  0  0
  3 11  1  0  0  0  0
  4 17  1  0  0  0  0
  4 14  2  0  0  0  0
  5 10  1  0  0  0  0
  6  5  1  0  0  0  0
  7 17  1  0  0  0  0
  8  1  2  0  0  0  0
  9  4  1  0  0  0  0
 11 18  1  0  0  0  0
 14 15  1  0  0  0  0
 15 11  2  0  0  0  0
 15 21  1  0  0  0  0
 16 26  1  6  0  0  0
 16  9  1  0  0  0  0
 16  7  1  0  0  0  0
 17  3  2  0  0  0  0
 18 12  2  0  0  0  0
 19 25  1  0  0  0  0
 20 19  1  0  0  0  0
 21 23  1  0  0  0  0
 22 20  2  0  0  0  0
 23 19  2  0  0  0  0
 24 21  2  0  0  0  0
 24 22  1  0  0  0  0
 27 26  1  0  0  0  0
 29 27  1  6  0  0  0
 29 30  1  0  0  0  0
 30 28  2  0  0  0  0
 31 34  1  0  0  0  0
 32 31  1  0  0  0  0
 33 32  1  0  0  0  0
 33 29  1  0  0  0  0
 34 30  1  0  0  0  0
M  END
>  <MODEL>
7

>  <REMARK>
 VINA RESULT:      -7.7      2.563      9.050
  Name = 
  4 active torsions:
  status: ('A' for Active; 'I' for Inactive)
    1  A    between atoms: C_3  and  C_13
    2  A    between atoms: C_3  and  C_17
    3  A    between atoms: C_12  and  C_28
    4  A    between atoms: C_17  and  C_29
                            x       y       z     vdW  Elec       q    Type
                         _______ _______ _______ _____ _____    ______ ____

>  <TORSDO>
F 4

$$$$
=
 OpenBabel11062407423D

 34 39  0  0  1  0  0  0  0  0999 V2000
  161.0290  204.9140  153.1130 C   0  0  0  0  0  0  0  0  0  0  0  0
  161.2030  204.8310  150.6050 C   0  0  2  0  0  3  0  0  0  0  0  0
  161.3580  207.0360  151.9630 C   0  0  0  0  0  0  0  0  0  0  0  0
  161.8600  209.1720  150.9360 C   0  0  0  0  0  0  0  0  0  0  0  0
  161.6460  202.8260  151.9950 N   0  0  0  0  0  2  0  0  0  0  0  0
  160.9700  203.3240  150.8020 C   0  0  0  0  0  2  0  0  0  0  0  0
  162.1870  207.3420  149.5940 N   0  0  0  0  0  2  0  0  0  0  0  0
  161.2090  205.6200  151.9110 C   0  0  0  0  0  0  0  0  0  0  0  0
  162.3310  209.7490  149.6520 C   0  0  0  0  0  2  0  0  0  0  0  0
  161.0910  203.4880  153.1010 N   0  0  0  0  0  2  0  0  0  0  0  0
  161.1170  207.7240  153.1950 C   0  0  0  0  0  0  0  0  0  0  0  0
  160.8300  205.5850  154.3160 C   0  0  0  0  0  3  0  0  0  0  0  0
  160.0810  205.3190  149.7030 C   0  0  0  0  0  1  0  0  0  0  0  0
  161.5800  209.8620  152.1060 C   0  0  0  0  0  3  0  0  0  0  0  0
  161.1950  209.1500  153.2550 C   0  0  0  0  0  0  0  0  0  0  0  0
  162.5490  208.4990  148.7750 C   0  0  2  0  0  3  0  0  0  0  0  0
  161.7600  207.8140  150.8590 C   0  0  0  0  0  0  0  0  0  0  0  0
  160.8560  206.9740  154.3500 C   0  0  0  0  0  3  0  0  0  0  0  0
  159.3280  211.0880  155.9410 C   0  0  0  0  0  0  0  0  0  0  0  0
  160.3770  211.4700  156.7800 C   0  0  0  0  0  3  0  0  0  0  0  0
  160.8990  209.9320  154.4850 C   0  0  0  0  0  0  0  0  0  0  0  0
  161.6870  211.0930  156.4750 C   0  0  0  0  0  3  0  0  0  0  0  0
  159.5890  210.3290  154.7970 C   0  0  0  0  0  3  0  0  0  0  0  0
  161.9460  210.3330  155.3320 C   0  0  0  0  0  3  0  0  0  0  0  0
  158.0270  211.4660  156.2410 O   0  0  0  0  0  1  0  0  0  0  0  0
  161.7070  208.5470  147.5020 C   0  0  0  0  0  2  0  0  0  0  0  0
  160.9400  207.2520  147.2650 C   0  0  0  0  0  2  0  0  0  0  0  0
  159.7050  206.2030  144.9430 O   0  0  0  0  0  0  0  0  0  0  0  0
  161.7000  206.3570  146.2990 C   0  0  2  0  0  3  0  0  0  0  0  0
  160.7470  205.6410  145.3720 C   0  0  0  0  0  0  0  0  0  0  0  0
  162.2820  203.6600  145.4290 C   0  0  0  0  0  2  0  0  0  0  0  0
  163.2110  204.6700  146.1030 C   0  0  0  0  0  2  0  0  0  0  0  0
  162.4740  205.4300  147.0300 O   0  0  0  0  0  0  0  0  0  0  0  0
  161.1140  204.3480  144.8850 N   0  0  0  0  0  2  0  0  0  0  0  0
  1 12  1  0  0  0  0
  2 13  1  6  0  0  0
  2  6  1  0  0  0  0
  2  8  1  0  0  0  0
  3 11  1  0  0  0  0
  4 14  2  0  0  0  0
  5 10  1  0  0  0  0
  6  5  1  0  0  0  0
  7 17  1  0  0  0  0
  8  3  1  0  0  0  0
  8  1  2  0  0  0  0
  9  4  1  0  0  0  0
 10  1  1  0  0  0  0
 11 15  2  0  0  0  0
 11 18  1  0  0  0  0
 12 18  2  0  0  0  0
 14 15  1  0  0  0  0
 15 21  1  0  0  0  0
 16 26  1  6  0  0  0
 16  7  1  0  0  0  0
 16  9  1  0  0  0  0
 17  4  1  0  0  0  0
 17  3  2  0  0  0  0
 19 25  1  0  0  0  0
 19 20  1  0  0  0  0
 21 23  1  0  0  0  0
 21 24  2  0  0  0  0
 22 20  2  0  0  0  0
 23 19  2  0  0  0  0
 24 22  1  0  0  0  0
 27 26  1  0  0  0  0
 28 30  2  0  0  0  0
 29 33  1  0  0  0  0
 29 27  1  1  0  0  0
 30 29  1  0  0  0  0
 31 32  1  0  0  0  0
 32 33  1  0  0  0  0
 34 30  1  0  0  0  0
 34 31  1  0  0  0  0
M  END
>  <MODEL>
8

>  <REMARK>
 VINA RESULT:      -7.3      2.383      8.831
  Name = 
  4 active torsions:
  status: ('A' for Active; 'I' for Inactive)
    1  A    between atoms: C_3  and  C_13
    2  A    between atoms: C_3  and  C_17
    3  A    between atoms: C_12  and  C_28
    4  A    between atoms: C_17  and  C_29
                            x       y       z     vdW  Elec       q    Type
                         _______ _______ _______ _____ _____    ______ ____

>  <TORSDO>
F 4

$$$$
=
 OpenBabel11062407423D

 34 39  0  0  1  0  0  0  0  0999 V2000
  160.9460  204.8960  152.6830 C   0  0  0  0  0  0  0  0  0  0  0  0
  161.5180  207.3290  152.3960 C   0  0  2  0  0  3  0  0  0  0  0  0
  161.2200  205.7000  150.3990 C   0  0  0  0  0  0  0  0  0  0  0  0
  161.2940  206.4330  148.0910 C   0  0  0  0  0  0  0  0  0  0  0  0
  160.4560  206.4910  154.4730 N   0  0  0  0  0  2  0  0  0  0  0  0
  161.5080  207.3450  153.9330 C   0  0  0  0  0  2  0  0  0  0  0  0
  161.1740  208.1130  149.6460 N   0  0  0  0  0  2  0  0  0  0  0  0
  161.2140  205.9580  151.8000 C   0  0  0  0  0  0  0  0  0  0  0  0
  161.2950  207.6740  147.2780 C   0  0  0  0  0  2  0  0  0  0  0  0
  160.7290  205.1760  154.0650 N   0  0  0  0  0  2  0  0  0  0  0  0
  161.1600  204.3480  149.9320 C   0  0  0  0  0  0  0  0  0  0  0  0
  160.8550  203.5860  152.2220 C   0  0  0  0  0  3  0  0  0  0  0  0
  162.9060  207.7870  151.9770 C   0  0  0  0  0  1  0  0  0  0  0  0
  161.2900  205.1280  147.6200 C   0  0  0  0  0  3  0  0  0  0  0  0
  161.2320  204.0620  148.5340 C   0  0  0  0  0  0  0  0  0  0  0  0
  161.2060  208.7820  148.3460 C   0  0  2  0  0  3  0  0  0  0  0  0
  161.2560  206.7170  149.4250 C   0  0  0  0  0  0  0  0  0  0  0  0
  160.9780  203.3170  150.8640 C   0  0  0  0  0  3  0  0  0  0  0  0
  160.8120  201.1150  146.1680 C   0  0  0  0  0  0  0  0  0  0  0  0
  161.1870  200.0500  146.9900 C   0  0  0  0  0  3  0  0  0  0  0  0
  161.2360  202.6800  147.9830 C   0  0  0  0  0  0  0  0  0  0  0  0
  161.5810  200.2910  148.3080 C   0  0  0  0  0  3  0  0  0  0  0  0
  160.8310  202.4210  146.6640 C   0  0  0  0  0  3  0  0  0  0  0  0
  161.6010  201.5980  148.8030 C   0  0  0  0  0  3  0  0  0  0  0  0
  160.4160  200.8750  144.8600 O   0  0  0  0  0  1  0  0  0  0  0  0
  162.3880  209.7460  148.2610 C   0  0  0  0  0  2  0  0  0  0  0  0
  162.3110  210.8510  149.3070 C   0  0  0  0  0  2  0  0  0  0  0  0
  160.5080  212.8590  150.1640 O   0  0  0  0  0  0  0  0  0  0  0  0
  162.2640  212.2130  148.6340 C   0  0  2  0  0  3  0  0  0  0  0  0
  161.0020  212.9520  149.0090 C   0  0  0  0  0  0  0  0  0  0  0  0
  160.9620  213.9270  146.7000 C   0  0  0  0  0  2  0  0  0  0  0  0
  162.3700  213.3300  146.6570 C   0  0  0  0  0  2  0  0  0  0  0  0
  162.3450  212.0470  147.2350 O   0  0  0  0  0  0  0  0  0  0  0  0
  160.4400  213.8640  148.0630 N   0  0  0  0  0  2  0  0  0  0  0  0
  1 10  1  0  0  0  0
  2 13  1  1  0  0  0
  2  6  1  0  0  0  0
  3  8  1  0  0  0  0
  4 17  1  0  0  0  0
  6  5  1  0  0  0  0
  8  2  1  0  0  0  0
  8  1  2  0  0  0  0
  9  4  1  0  0  0  0
  9 16  1  0  0  0  0
 10  5  1  0  0  0  0
 11  3  1  0  0  0  0
 11 18  1  0  0  0  0
 12  1  1  0  0  0  0
 14  4  2  0  0  0  0
 14 15  1  0  0  0  0
 15 11  2  0  0  0  0
 16 26  1  1  0  0  0
 16  7  1  0  0  0  0
 17  7  1  0  0  0  0
 17  3  2  0  0  0  0
 18 12  2  0  0  0  0
 19 23  2  0  0  0  0
 19 20  1  0  0  0  0
 20 22  2  0  0  0  0
 21 15  1  0  0  0  0
 21 24  2  0  0  0  0
 22 24  1  0  0  0  0
 23 21  1  0  0  0  0
 25 19  1  0  0  0  0
 26 27  1  0  0  0  0
 29 30  1  0  0  0  0
 29 27  1  1  0  0  0
 30 28  2  0  0  0  0
 31 34  1  0  0  0  0
 32 31  1  0  0  0  0
 32 33  1  0  0  0  0
 33 29  1  0  0  0  0
 34 30  1  0  0  0  0
M  END
>  <MODEL>
9

>  <REMARK>
 VINA RESULT:      -7.0      2.932      5.505
  Name = 
  4 active torsions:
  status: ('A' for Active; 'I' for Inactive)
    1  A    between atoms: C_3  and  C_13
    2  A    between atoms: C_3  and  C_17
    3  A    between atoms: C_12  and  C_28
    4  A    between atoms: C_17  and  C_29
                            x       y       z     vdW  Elec       q    Type
                         _______ _______ _______ _____ _____    ______ ____

>  <TORSDO>
F 4

$$$$
