=
 OpenBabel11062410403D

 32 38  0  0  1  0  0  0  0  0999 V2000
  161.2380  203.7090  148.7120 C   0  0  0  0  0  3  0  0  0  0  0  0
  161.4520  208.1210  151.2590 C   0  0  0  0  0  0  0  0  0  0  0  0
  160.2250  206.8930  155.9230 C   0  0  0  0  0  3  0  0  0  0  0  0
  160.3000  208.2370  156.2900 C   0  0  0  0  0  3  0  0  0  0  0  0
  161.9390  210.5390  150.6920 C   0  0  0  0  0  0  0  0  0  0  0  0
  161.8290  210.0750  149.2590 C   0  0  0  0  0  0  0  0  0  0  0  0
  161.4600  206.3860  149.5170 C   0  0  0  0  0  0  0  0  0  0  0  0
  160.5460  205.8190  151.7840 C   0  0  0  0  0  2  0  0  0  0  0  0
  161.0740  212.7140  149.8580 C   0  0  0  0  0  0  0  0  0  0  0  0
  160.8800  204.0780  150.0130 C   0  0  0  0  0  3  0  0  0  0  0  0
  160.5490  206.5070  154.6210 C   0  0  0  0  0  3  0  0  0  0  0  0
  161.3780  207.0050  152.2940 C   0  0  2  0  0  3  0  0  0  0  0  0
  160.9300  207.4600  153.6610 C   0  0  0  0  0  0  0  0  0  0  0  0
  161.4680  209.8250  153.0730 C   0  0  0  0  0  0  0  0  0  0  0  0
  161.4970  212.3460  148.4890 C   0  0  0  0  0  3  0  0  0  0  0  0
  161.0010  205.4100  150.4200 C   0  0  0  0  0  0  0  0  0  0  0  0
  161.8400  211.0880  148.1940 C   0  0  0  0  0  2  0  0  0  0  0  0
  161.8080  206.0090  148.2130 C   0  0  0  0  0  3  0  0  0  0  0  0
  161.7090  204.6730  147.8140 C   0  0  0  0  0  0  0  0  0  0  0  0
  160.7060  209.1900  155.3550 C   0  0  0  0  0  3  0  0  0  0  0  0
  161.0270  208.8120  154.0430 C   0  0  0  0  0  0  0  0  0  0  0  0
  161.7870  210.9740  153.4840 O   0  0  0  0  0  0  0  0  0  0  0  0
  161.5640  207.7970  149.9510 C   0  0  0  0  0  0  0  0  0  0  0  0
  161.7010  208.8220  148.9590 N   0  0  0  0  0  0  0  0  0  0  0  0
  160.3040  214.2610  150.1370 Cl  0  0  0  0  0  0  0  0  0  0  0  0
  161.5390  209.5060  151.6680 N   0  0  0  0  0  0  0  0  0  0  0  0
  161.2040  211.8490  150.8730 C   0  0  0  0  0  3  0  0  0  0  0  0
  162.0610  204.2840  146.4220 C   0  0  0  0  0  2  0  0  0  0  0  0
  161.1490  205.3180  144.3870 C   0  0  1  0  0  3  0  0  0  0  0  0
  162.0530  205.4630  145.5600 N   0  0  0  0  0  0  0  0  0  0  0  0
  160.5760  204.0430  144.3000 O   0  0  0  0  0  1  0  0  0  0  0  0
  160.6820  205.9920  145.5930 C   0  0  0  0  0  2  0  0  0  0  0  0
  1 10  1  0  0  0  0
  2 26  1  0  0  0  0
  2 12  1  0  0  0  0
  3  4  1  0  0  0  0
  5 27  2  0  0  0  0
  5 26  1  0  0  0  0
  6  5  1  0  0  0  0
  7 23  1  0  0  0  0
  7 16  1  0  0  0  0
  9 25  1  0  0  0  0
  9 27  1  0  0  0  0
 10 16  2  0  0  0  0
 11  3  2  0  0  0  0
 12  8  1  6  0  0  0
 12 13  1  0  0  0  0
 13 21  2  0  0  0  0
 13 11  1  0  0  0  0
 14 22  2  0  0  0  0
 14 21  1  0  0  0  0
 15  9  2  0  0  0  0
 16  8  1  0  0  0  0
 17 15  1  0  0  0  0
 17  6  1  0  0  0  0
 18  7  2  0  0  0  0
 19 18  1  0  0  0  0
 19  1  2  0  0  0  0
 20  4  2  0  0  0  0
 21 20  1  0  0  0  0
 23  2  2  0  0  0  0
 24  6  2  0  0  0  0
 24 23  1  0  0  0  0
 26 14  1  0  0  0  0
 28 19  1  0  0  0  0
 29 31  1  1  0  0  0
 29 30  1  0  0  0  0
 29 32  1  0  0  0  0
 30 32  1  0  0  0  0
 30 28  1  0  0  0  0
M  END
>  <MODEL>
1

>  <REMARK>
 VINA RESULT:     -10.5      0.000      0.000
  Name = 
  2 active torsions:
  status: ('A' for Active; 'I' for Inactive)
    1  A    between atoms: N_10  and  C_19
    2  A    between atoms: C_19  and  C_24
                            x       y       z     vdW  Elec       q    Type
                         _______ _______ _______ _____ _____    ______ ____

>  <TORSDO>
F 2

$$$$
=
 OpenBabel11062410403D

 32 38  0  0  1  0  0  0  0  0999 V2000
  160.8860  203.2140  149.6150 C   0  0  0  0  0  3  0  0  0  0  0  0
  161.4100  207.8250  151.7270 C   0  0  0  0  0  0  0  0  0  0  0  0
  160.2070  207.1180  156.5040 C   0  0  0  0  0  3  0  0  0  0  0  0
  160.3680  208.4840  156.7400 C   0  0  0  0  0  3  0  0  0  0  0  0
  162.0280  210.1460  150.9250 C   0  0  0  0  0  0  0  0  0  0  0  0
  161.8620  209.5560  149.5450 C   0  0  0  0  0  0  0  0  0  0  0  0
  161.2810  205.9370  150.1580 C   0  0  0  0  0  0  0  0  0  0  0  0
  160.3810  205.6420  152.4820 C   0  0  0  0  0  2  0  0  0  0  0  0
  161.2750  212.2810  149.9010 C   0  0  0  0  0  0  0  0  0  0  0  0
  160.5770  203.7250  150.8800 C   0  0  0  0  0  3  0  0  0  0  0  0
  160.4810  206.5930  155.2400 C   0  0  0  0  0  3  0  0  0  0  0  0
  161.2920  206.8180  152.8650 C   0  0  2  0  0  3  0  0  0  0  0  0
  160.8990  207.4270  154.1890 C   0  0  0  0  0  0  0  0  0  0  0  0
  161.5630  209.6890  153.3700 C   0  0  0  0  0  0  0  0  0  0  0  0
  161.6490  211.7600  148.5670 C   0  0  0  0  0  3  0  0  0  0  0  0
  160.7840  205.0790  151.1560 C   0  0  0  0  0  0  0  0  0  0  0  0
  161.9110  210.4610  148.3880 C   0  0  0  0  0  2  0  0  0  0  0  0
  161.5810  205.4180  148.8910 C   0  0  0  0  0  3  0  0  0  0  0  0
  161.3940  204.0590  148.6230 C   0  0  0  0  0  0  0  0  0  0  0  0
  160.8110  209.3190  155.7130 C   0  0  0  0  0  3  0  0  0  0  0  0
  161.0830  208.8000  154.4390 C   0  0  0  0  0  0  0  0  0  0  0  0
  161.9580  210.8500  153.6650 O   0  0  0  0  0  0  0  0  0  0  0  0
  161.4770  207.3740  150.4540 C   0  0  0  0  0  0  0  0  0  0  0  0
  161.6540  208.2900  149.3680 N   0  0  0  0  0  0  0  0  0  0  0  0
  160.6040  213.8900  150.0410 Cl  0  0  0  0  0  0  0  0  0  0  0  0
  161.5870  209.2350  152.0010 N   0  0  0  0  0  0  0  0  0  0  0  0
  161.3750  211.5090  150.9910 C   0  0  0  0  0  3  0  0  0  0  0  0
  161.6950  203.5200  147.2690 C   0  0  0  0  0  2  0  0  0  0  0  0
  162.2470  205.0430  145.4200 C   0  0  1  0  0  3  0  0  0  0  0  0
  161.1760  204.4260  146.2480 N   0  0  0  0  0  0  0  0  0  0  0  0
  163.5330  204.7060  145.8610 O   0  0  0  0  0  1  0  0  0  0  0  0
  161.5550  203.8490  144.9500 C   0  0  0  0  0  2  0  0  0  0  0  0
  1 10  1  0  0  0  0
  2 26  1  0  0  0  0
  2 12  1  0  0  0  0
  3  4  1  0  0  0  0
  5 27  2  0  0  0  0
  5 26  1  0  0  0  0
  6  5  1  0  0  0  0
  7 23  1  0  0  0  0
  7 16  1  0  0  0  0
  9 25  1  0  0  0  0
  9 27  1  0  0  0  0
 10 16  2  0  0  0  0
 11  3  2  0  0  0  0
 12  8  1  6  0  0  0
 12 13  1  0  0  0  0
 13 21  2  0  0  0  0
 13 11  1  0  0  0  0
 14 22  2  0  0  0  0
 14 21  1  0  0  0  0
 15  9  2  0  0  0  0
 16  8  1  0  0  0  0
 17 15  1  0  0  0  0
 17  6  1  0  0  0  0
 18  7  2  0  0  0  0
 19 18  1  0  0  0  0
 19  1  2  0  0  0  0
 20  4  2  0  0  0  0
 21 20  1  0  0  0  0
 23  2  2  0  0  0  0
 24  6  2  0  0  0  0
 24 23  1  0  0  0  0
 26 14  1  0  0  0  0
 28 19  1  0  0  0  0
 29 31  1  1  0  0  0
 29 30  1  0  0  0  0
 30 28  1  0  0  0  0
 32 29  1  0  0  0  0
 32 30  1  0  0  0  0
M  END
>  <MODEL>
2

>  <REMARK>
 VINA RESULT:     -10.4      0.990      1.048
  Name = 
  2 active torsions:
  status: ('A' for Active; 'I' for Inactive)
    1  A    between atoms: N_10  and  C_19
    2  A    between atoms: C_19  and  C_24
                            x       y       z     vdW  Elec       q    Type
                         _______ _______ _______ _____ _____    ______ ____

>  <TORSDO>
F 2

$$$$
=
 OpenBabel11062410403D

 32 38  0  0  1  0  0  0  0  0999 V2000
  160.4220  202.8720  149.9030 C   0  0  0  0  0  3  0  0  0  0  0  0
  161.3420  207.5610  151.6800 C   0  0  0  0  0  0  0  0  0  0  0  0
  160.2850  207.2520  156.5330 C   0  0  0  0  0  3  0  0  0  0  0  0
  160.5480  208.6150  156.6710 C   0  0  0  0  0  3  0  0  0  0  0  0
  162.0830  209.7760  150.7020 C   0  0  0  0  0  0  0  0  0  0  0  0
  161.8220  209.1110  149.3710 C   0  0  0  0  0  0  0  0  0  0  0  0
  161.0230  205.5890  150.2470 C   0  0  0  0  0  0  0  0  0  0  0  0
  160.1980  205.5100  152.6160 C   0  0  0  0  0  2  0  0  0  0  0  0
  161.4370  211.8880  149.5640 C   0  0  0  0  0  0  0  0  0  0  0  0
  160.1990  203.4840  151.1400 C   0  0  0  0  0  3  0  0  0  0  0  0
  160.4720  206.6270  155.2980 C   0  0  0  0  0  3  0  0  0  0  0  0
  161.2010  206.6410  152.8860 C   0  0  2  0  0  3  0  0  0  0  0  0
  160.9030  207.3600  154.1790 C   0  0  0  0  0  0  0  0  0  0  0  0
  161.6870  209.5120  153.1870 C   0  0  0  0  0  0  0  0  0  0  0  0
  161.7210  211.2570  148.2550 C   0  0  0  0  0  3  0  0  0  0  0  0
  160.5080  204.8350  151.3180 C   0  0  0  0  0  0  0  0  0  0  0  0
  161.8870  209.9340  148.1550 C   0  0  0  0  0  2  0  0  0  0  0  0
  161.2350  204.9700  149.0080 C   0  0  0  0  0  3  0  0  0  0  0  0
  160.9470  203.6130  148.8390 C   0  0  0  0  0  0  0  0  0  0  0  0
  161.0050  209.3480  155.5750 C   0  0  0  0  0  3  0  0  0  0  0  0
  161.1900  208.7300  154.3300 C   0  0  0  0  0  0  0  0  0  0  0  0
  162.1710  210.6590  153.3900 O   0  0  0  0  0  0  0  0  0  0  0  0
  161.3270  207.0250  150.4390 C   0  0  0  0  0  0  0  0  0  0  0  0
  161.5220  207.8540  149.2870 N   0  0  0  0  0  0  0  0  0  0  0  0
  160.8820  213.5460  149.6190 Cl  0  0  0  0  0  0  0  0  0  0  0  0
  161.6250  208.9700  151.8520 N   0  0  0  0  0  0  0  0  0  0  0  0
  161.5280  211.1830  150.6990 C   0  0  0  0  0  3  0  0  0  0  0  0
  161.1560  202.9680  147.5140 C   0  0  0  0  0  2  0  0  0  0  0  0
  160.6510  200.9520  146.2010 C   0  0  1  0  0  3  0  0  0  0  0  0
  160.3620  201.7460  147.4260 N   0  0  0  0  0  0  0  0  0  0  0  0
  161.5490  201.5950  145.3400 O   0  0  0  0  0  1  0  0  0  0  0  0
  161.3150  200.6270  147.4580 C   0  0  0  0  0  2  0  0  0  0  0  0
  1 10  1  0  0  0  0
  2 26  1  0  0  0  0
  2 12  1  0  0  0  0
  3  4  1  0  0  0  0
  5 26  1  0  0  0  0
  6  5  1  0  0  0  0
  7 23  1  0  0  0  0
  7 16  1  0  0  0  0
  9 25  1  0  0  0  0
  9 27  1  0  0  0  0
 10 16  2  0  0  0  0
 11  3  2  0  0  0  0
 12  8  1  6  0  0  0
 12 13  1  0  0  0  0
 13 21  2  0  0  0  0
 13 11  1  0  0  0  0
 14 22  2  0  0  0  0
 14 21  1  0  0  0  0
 15  9  2  0  0  0  0
 16  8  1  0  0  0  0
 17 15  1  0  0  0  0
 17  6  1  0  0  0  0
 18  7  2  0  0  0  0
 19 18  1  0  0  0  0
 19  1  2  0  0  0  0
 20  4  2  0  0  0  0
 21 20  1  0  0  0  0
 23  2  2  0  0  0  0
 24  6  2  0  0  0  0
 24 23  1  0  0  0  0
 26 14  1  0  0  0  0
 27  5  2  0  0  0  0
 28 19  1  0  0  0  0
 29 31  1  6  0  0  0
 29 30  1  0  0  0  0
 29 32  1  0  0  0  0
 30 32  1  0  0  0  0
 30 28  1  0  0  0  0
M  END
>  <MODEL>
3

>  <REMARK>
 VINA RESULT:      -7.9      1.569      1.878
  Name = 
  2 active torsions:
  status: ('A' for Active; 'I' for Inactive)
    1  A    between atoms: N_10  and  C_19
    2  A    between atoms: C_19  and  C_24
                            x       y       z     vdW  Elec       q    Type
                         _______ _______ _______ _____ _____    ______ ____

>  <TORSDO>
F 2

$$$$
