=
 OpenBabel11052422253D

 31 35  0  0  1  0  0  0  0  0999 V2000
  162.4800  210.4220  149.5120 C   0  0  0  0  0  0  0  0  0  0  0  0
  161.0530  208.2960  152.3940 C   0  0  0  0  0  0  0  0  0  0  0  0
  160.6800  209.0710  153.5190 C   0  0  0  0  0  0  0  0  0  0  0  0
  158.9830  210.8540  153.7730 C   0  0  0  0  0  3  0  0  0  0  0  0
  161.1170  208.9360  151.0180 C   0  0  1  0  0  3  0  0  0  0  0  0
  161.6950  209.8240  148.3750 C   0  0  0  0  0  2  0  0  0  0  0  0
  160.3770  210.5290  153.3540 C   0  0  0  0  0  2  0  0  0  0  0  0
  161.7520  206.0700  151.3710 C   0  0  1  0  0  3  0  0  0  0  0  0
  163.2510  211.3430  149.2960 O   0  0  0  0  0  0  0  0  0  0  0  0
  161.1040  207.1700  154.9650 C   0  0  0  0  0  3  0  0  0  0  0  0
  158.5630  210.7260  155.0300 C   0  0  0  0  0  3  0  0  0  0  0  0
  160.9640  206.4820  150.1300 C   0  0  0  0  0  2  0  0  0  0  0  0
  161.3870  206.9300  152.5670 C   0  0  0  0  0  0  0  0  0  0  0  0
  162.3040  209.9100  150.9200 C   0  0  0  0  0  2  0  0  0  0  0  0
  159.3680  210.1750  156.1350 C   0  0  0  0  0  3  0  0  0  0  0  0
  161.1610  207.9390  149.8770 C   0  0  0  0  0  0  0  0  0  0  0  0
  161.4360  208.3650  148.6370 C   0  0  0  0  0  3  0  0  0  0  0  0
  161.4490  206.3970  153.8610 C   0  0  0  0  0  3  0  0  0  0  0  0
  160.6880  208.4910  154.8080 C   0  0  0  0  0  0  0  0  0  0  0  0
  160.2930  209.2120  156.0350 C   0  0  0  0  0  3  0  0  0  0  0  0
  161.6140  204.5630  151.6140 C   0  0  0  0  0  2  0  0  0  0  0  0
  160.4350  203.9620  150.8540 C   0  0  0  0  0  2  0  0  0  0  0  0
  162.0690  201.9430  150.4630 C   0  0  0  0  0  1  0  0  0  0  0  0
  158.9130  201.3200  149.2530 O   0  0  0  0  0  0  0  0  0  0  0  0
  159.8940  202.1050  149.3160 C   0  0  0  0  0  0  0  0  0  0  0  0
  160.9030  203.0570  148.6570 N   0  0  0  0  0  0  0  0  0  0  0  0
  160.8810  202.7740  150.0190 C   0  0  1  0  0  0  0  0  0  0  0  0
  161.4430  203.7320  147.4900 C   0  0  0  0  0  0  0  0  0  0  0  0
  162.7910  204.0160  147.7020 O   0  0  0  0  0  1  0  0  0  0  0  0
  160.6870  205.0230  147.2570 C   0  0  0  0  0  1  0  0  0  0  0  0
  161.3040  202.8410  146.2720 C   0  0  0  0  0  1  0  0  0  0  0  0
  1 14  1  0  0  0  0
  2 13  2  0  0  0  0
  2  3  1  0  0  0  0
  3 19  2  0  0  0  0
  4 11  2  0  0  0  0
  5 14  1  1  0  0  0
  5  2  1  0  0  0  0
  6 17  1  0  0  0  0
  6  1  1  0  0  0  0
  7  3  1  0  0  0  0
  7  4  1  0  0  0  0
  8 21  1  1  0  0  0
  8 13  1  0  0  0  0
  9  1  2  0  0  0  0
 11 15  1  0  0  0  0
 12  8  1  0  0  0  0
 13 18  1  0  0  0  0
 16 12  1  0  0  0  0
 16  5  1  0  0  0  0
 17 16  2  0  0  0  0
 18 10  2  0  0  0  0
 19 10  1  0  0  0  0
 19 20  1  0  0  0  0
 20 15  2  0  0  0  0
 22 21  1  0  0  0  0
 24 25  2  0  0  0  0
 25 27  1  0  0  0  0
 26 25  1  0  0  0  0
 26 27  1  0  0  0  0
 27 23  1  1  0  0  0
 27 22  1  0  0  0  0
 28 29  1  0  0  0  0
 28 26  1  0  0  0  0
 30 28  1  0  0  0  0
 31 28  1  0  0  0  0
M  END
>  <MODEL>
1

>  <REMARK>
 VINA RESULT:      -6.9      0.000      0.000
  Name = 
  4 active torsions:
  status: ('A' for Active; 'I' for Inactive)
    1  A    between atoms: C_1  and  N_19
    2  A    between atoms: C_9  and  C_22
    3  A    between atoms: C_9  and  C_23
    4  A    between atoms: C_15  and  C_23
                            x       y       z     vdW  Elec       q    Type
                         _______ _______ _______ _____ _____    ______ ____

>  <TORSDO>
F 4

$$$$
=
 OpenBabel11052422253D

 31 35  0  0  1  0  0  0  0  0999 V2000
  161.5800  210.3730  148.2760 C   0  0  0  0  0  0  0  0  0  0  0  0
  161.5850  206.6570  149.3060 C   0  0  0  0  0  0  0  0  0  0  0  0
  161.6240  205.7780  148.1970 C   0  0  0  0  0  0  0  0  0  0  0  0
  163.3300  205.4630  146.4310 C   0  0  0  0  0  3  0  0  0  0  0  0
  162.1050  208.0790  149.1670 C   0  0  1  0  0  3  0  0  0  0  0  0
  162.6390  210.8750  149.2220 C   0  0  0  0  0  2  0  0  0  0  0  0
  162.1520  206.2600  146.8790 C   0  0  0  0  0  2  0  0  0  0  0  0
  161.0220  207.1210  151.7460 C   0  0  1  0  0  3  0  0  0  0  0  0
  161.0650  211.1430  147.4820 O   0  0  0  0  0  0  0  0  0  0  0  0
  160.4670  204.0910  149.4990 C   0  0  0  0  0  3  0  0  0  0  0  0
  163.2490  204.1690  146.1280 C   0  0  0  0  0  3  0  0  0  0  0  0
  162.2500  208.0270  151.7770 C   0  0  0  0  0  2  0  0  0  0  0  0
  161.0380  206.2100  150.5330 C   0  0  0  0  0  0  0  0  0  0  0  0
  161.1690  208.9210  148.2840 C   0  0  0  0  0  2  0  0  0  0  0  0
  162.0350  203.3450  146.2740 C   0  0  0  0  0  3  0  0  0  0  0  0
  162.3480  208.7760  150.4910 C   0  0  0  0  0  0  0  0  0  0  0  0
  162.5950  210.0930  150.5080 C   0  0  0  0  0  3  0  0  0  0  0  0
  160.4460  204.9420  150.5980 C   0  0  0  0  0  3  0  0  0  0  0  0
  161.0770  204.4800  148.3070 C   0  0  0  0  0  0  0  0  0  0  0  0
  161.0930  203.4850  147.2150 C   0  0  0  0  0  3  0  0  0  0  0  0
  160.8680  206.3880  153.0830 C   0  0  0  0  0  2  0  0  0  0  0  0
  161.7450  206.9910  154.1760 C   0  0  0  0  0  2  0  0  0  0  0  0
  159.5260  207.2010  155.5670 C   0  0  0  0  0  1  0  0  0  0  0  0
  162.2500  208.4360  157.2610 O   0  0  0  0  0  0  0  0  0  0  0  0
  161.5820  208.4060  156.1950 C   0  0  0  0  0  0  0  0  0  0  0  0
  160.9100  209.1080  155.0060 N   0  0  0  0  0  0  0  0  0  0  0  0
  160.8990  207.7300  155.1990 C   0  0  1  0  0  0  0  0  0  0  0  0
  160.5660  210.3060  154.2610 C   0  0  0  0  0  0  0  0  0  0  0  0
  161.7330  210.9280  153.8190 O   0  0  0  0  0  1  0  0  0  0  0  0
  159.7990  211.2560  155.1570 C   0  0  0  0  0  1  0  0  0  0  0  0
  159.7090  209.9390  153.0670 C   0  0  0  0  0  1  0  0  0  0  0  0
  1 14  1  0  0  0  0
  1  6  1  0  0  0  0
  2 13  1  0  0  0  0
  3 19  1  0  0  0  0
  3  2  2  0  0  0  0
  4  7  1  0  0  0  0
  5 14  1  6  0  0  0
  5  2  1  0  0  0  0
  5 16  1  0  0  0  0
  6 17  1  0  0  0  0
  7  3  1  0  0  0  0
  8 12  1  0  0  0  0
  8 21  1  1  0  0  0
  9  1  2  0  0  0  0
 10 18  1  0  0  0  0
 11 15  1  0  0  0  0
 11  4  2  0  0  0  0
 13 18  2  0  0  0  0
 13  8  1  0  0  0  0
 15 20  2  0  0  0  0
 16 17  2  0  0  0  0
 16 12  1  0  0  0  0
 19 10  2  0  0  0  0
 20 19  1  0  0  0  0
 21 22  1  0  0  0  0
 22 27  1  0  0  0  0
 25 24  2  0  0  0  0
 26 27  1  0  0  0  0
 26 25  1  0  0  0  0
 27 23  1  1  0  0  0
 27 25  1  0  0  0  0
 28 26  1  0  0  0  0
 28 30  1  0  0  0  0
 29 28  1  0  0  0  0
 31 28  1  0  0  0  0
M  END
>  <MODEL>
2

>  <REMARK>
 VINA RESULT:      -6.7      3.035      7.177
  Name = 
  4 active torsions:
  status: ('A' for Active; 'I' for Inactive)
    1  A    between atoms: C_1  and  N_19
    2  A    between atoms: C_9  and  C_22
    3  A    between atoms: C_9  and  C_23
    4  A    between atoms: C_15  and  C_23
                            x       y       z     vdW  Elec       q    Type
                         _______ _______ _______ _____ _____    ______ ____

>  <TORSDO>
F 4

$$$$
=
 OpenBabel11052422253D

 31 35  0  0  1  0  0  0  0  0999 V2000
  161.2230  211.2130  147.7300 C   0  0  0  0  0  0  0  0  0  0  0  0
  161.5910  207.8320  149.5460 C   0  0  0  0  0  0  0  0  0  0  0  0
  161.4820  206.7230  148.6720 C   0  0  0  0  0  0  0  0  0  0  0  0
  162.8730  206.0280  146.7460 C   0  0  0  0  0  3  0  0  0  0  0  0
  162.0070  209.1880  149.0020 C   0  0  1  0  0  3  0  0  0  0  0  0
  162.4020  211.9280  148.3360 C   0  0  0  0  0  2  0  0  0  0  0  0
  161.7510  206.8960  147.2080 C   0  0  0  0  0  2  0  0  0  0  0  0
  161.4330  208.8360  151.8810 C   0  0  1  0  0  3  0  0  0  0  0  0
  160.5420  211.7760  146.8890 O   0  0  0  0  0  0  0  0  0  0  0  0
  160.6510  205.3660  150.5030 C   0  0  0  0  0  3  0  0  0  0  0  0
  162.8060  204.6990  146.7590 C   0  0  0  0  0  3  0  0  0  0  0  0
  162.6010  209.7370  151.4890 C   0  0  0  0  0  2  0  0  0  0  0  0
  161.2860  207.6710  150.9200 C   0  0  0  0  0  0  0  0  0  0  0  0
  160.8930  209.7980  148.1350 C   0  0  0  0  0  2  0  0  0  0  0  0
  161.6780  203.9180  147.3000 C   0  0  0  0  0  3  0  0  0  0  0  0
  162.4380  210.1730  150.0720 C   0  0  0  0  0  0  0  0  0  0  0  0
  162.6190  211.4610  149.7500 C   0  0  0  0  0  3  0  0  0  0  0  0
  160.7780  206.4460  151.3710 C   0  0  0  0  0  3  0  0  0  0  0  0
  161.0280  205.4790  149.1660 C   0  0  0  0  0  0  0  0  0  0  0  0
  160.9060  204.2610  148.3380 C   0  0  0  0  0  3  0  0  0  0  0  0
  161.5470  208.4260  153.3530 C   0  0  0  0  0  2  0  0  0  0  0  0
  160.2520  208.6730  154.1230 C   0  0  0  0  0  2  0  0  0  0  0  0
  159.7600  209.7890  156.4490 C   0  0  0  0  0  1  0  0  0  0  0  0
  162.8190  210.7090  155.1820 O   0  0  0  0  0  0  0  0  0  0  0  0
  161.5840  210.5660  154.9860 C   0  0  0  0  0  0  0  0  0  0  0  0
  160.2380  211.0730  154.4520 N   0  0  0  0  0  0  0  0  0  0  0  0
  160.4080  209.8430  155.0790 C   0  0  1  0  0  0  0  0  0  0  0  0
  159.4270  212.0780  153.7880 C   0  0  0  0  0  0  0  0  0  0  0  0
  159.5020  213.2770  154.4950 O   0  0  0  0  0  1  0  0  0  0  0  0
  157.9870  211.6130  153.7360 C   0  0  0  0  0  1  0  0  0  0  0  0
  159.9340  212.2960  152.3770 C   0  0  0  0  0  1  0  0  0  0  0  0
  1 14  1  0  0  0  0
  1  6  1  0  0  0  0
  2 13  1  0  0  0  0
  3 19  1  0  0  0  0
  3  2  2  0  0  0  0
  4 11  2  0  0  0  0
  4  7  1  0  0  0  0
  5 14  1  1  0  0  0
  5  2  1  0  0  0  0
  5 16  1  0  0  0  0
  6 17  1  0  0  0  0
  7  3  1  0  0  0  0
  8 21  1  1  0  0  0
  9  1  2  0  0  0  0
 10 18  1  0  0  0  0
 11 15  1  0  0  0  0
 12  8  1  0  0  0  0
 13 18  2  0  0  0  0
 13  8  1  0  0  0  0
 15 20  2  0  0  0  0
 16 12  1  0  0  0  0
 17 16  2  0  0  0  0
 19 10  2  0  0  0  0
 20 19  1  0  0  0  0
 21 22  1  0  0  0  0
 22 27  1  0  0  0  0
 25 27  1  0  0  0  0
 25 24  2  0  0  0  0
 26 25  1  0  0  0  0
 26 27  1  0  0  0  0
 27 23  1  1  0  0  0
 28 26  1  0  0  0  0
 28 29  1  0  0  0  0
 30 28  1  0  0  0  0
 31 28  1  0  0  0  0
M  END
>  <MODEL>
3

>  <REMARK>
 VINA RESULT:      -5.7      3.383      7.434
  Name = 
  4 active torsions:
  status: ('A' for Active; 'I' for Inactive)
    1  A    between atoms: C_1  and  N_19
    2  A    between atoms: C_9  and  C_22
    3  A    between atoms: C_9  and  C_23
    4  A    between atoms: C_15  and  C_23
                            x       y       z     vdW  Elec       q    Type
                         _______ _______ _______ _____ _____    ______ ____

>  <TORSDO>
F 4

$$$$
=
 OpenBabel11052422253D

 31 35  0  0  1  0  0  0  0  0999 V2000
  158.0720  213.1760  152.8480 C   0  0  0  0  0  0  0  0  0  0  0  0
  160.9100  211.5000  150.8480 C   0  0  0  0  0  0  0  0  0  0  0  0
  161.1860  212.1580  149.6250 C   0  0  0  0  0  0  0  0  0  0  0  0
  161.9870  214.4520  149.1580 C   0  0  0  0  0  3  0  0  0  0  0  0
  160.2520  212.2600  151.9870 C   0  0  1  0  0  3  0  0  0  0  0  0
  158.7340  213.2110  154.2000 C   0  0  0  0  0  2  0  0  0  0  0  0
  160.8010  213.5950  149.4470 C   0  0  0  0  0  2  0  0  0  0  0  0
  160.9810  209.4130  152.3060 C   0  0  1  0  0  3  0  0  0  0  0  0
  156.9600  213.6580  152.7070 O   0  0  0  0  0  0  0  0  0  0  0  0
  161.9610  210.0640  148.6780 C   0  0  0  0  0  3  0  0  0  0  0  0
  162.7140  214.3240  148.0500 C   0  0  0  0  0  3  0  0  0  0  0  0
  161.1970  210.3440  153.4960 C   0  0  0  0  0  2  0  0  0  0  0  0
  161.2310  210.1280  150.9910 C   0  0  0  0  0  0  0  0  0  0  0  0
  158.7830  212.5750  151.6610 C   0  0  0  0  0  2  0  0  0  0  0  0
  162.5070  213.2850  147.0240 C   0  0  0  0  0  3  0  0  0  0  0  0
  160.3540  211.5640  153.3300 C   0  0  0  0  0  0  0  0  0  0  0  0
  159.6340  212.0160  154.3660 C   0  0  0  0  0  3  0  0  0  0  0  0
  161.7140  209.4170  149.8850 C   0  0  0  0  0  3  0  0  0  0  0  0
  161.7340  211.4330  148.5430 C   0  0  0  0  0  0  0  0  0  0  0  0
  162.0770  212.0360  147.2390 C   0  0  0  0  0  3  0  0  0  0  0  0
  161.7910  208.1240  152.4850 C   0  0  0  0  0  2  0  0  0  0  0  0
  160.9420  206.8740  152.2660 C   0  0  0  0  0  2  0  0  0  0  0  0
  163.2930  205.7770  151.8570 C   0  0  0  0  0  1  0  0  0  0  0  0
  160.8090  203.4340  152.2460 O   0  0  0  0  0  0  0  0  0  0  0  0
  161.2000  204.4880  151.6820 C   0  0  0  0  0  0  0  0  0  0  0  0
  161.3820  205.3570  150.4300 N   0  0  0  0  0  0  0  0  0  0  0  0
  161.7840  205.7420  151.7050 C   0  0  1  0  0  0  0  0  0  0  0  0
  161.2300  205.5860  149.0040 C   0  0  0  0  0  0  0  0  0  0  0  0
  160.0100  206.2140  148.7620 O   0  0  0  0  0  1  0  0  0  0  0  0
  161.2680  204.2610  148.2720 C   0  0  0  0  0  1  0  0  0  0  0  0
  162.3560  206.4670  148.5040 C   0  0  0  0  0  1  0  0  0  0  0  0
  1  6  1  0  0  0  0
  2 13  1  0  0  0  0
  2  5  1  0  0  0  0
  3  2  2  0  0  0  0
  4  7  1  0  0  0  0
  5 14  1  6  0  0  0
  5 16  1  0  0  0  0
  6 17  1  0  0  0  0
  7  3  1  0  0  0  0
  8 21  1  1  0  0  0
  8 12  1  0  0  0  0
  9  1  2  0  0  0  0
 10 18  1  0  0  0  0
 11  4  2  0  0  0  0
 13  8  1  0  0  0  0
 14  1  1  0  0  0  0
 15 20  2  0  0  0  0
 15 11  1  0  0  0  0
 16 12  1  0  0  0  0
 16 17  2  0  0  0  0
 18 13  2  0  0  0  0
 19 10  2  0  0  0  0
 19  3  1  0  0  0  0
 20 19  1  0  0  0  0
 22 21  1  0  0  0  0
 25 27  1  0  0  0  0
 25 24  2  0  0  0  0
 26 25  1  0  0  0  0
 26 27  1  0  0  0  0
 27 23  1  1  0  0  0
 27 22  1  0  0  0  0
 28 26  1  0  0  0  0
 29 28  1  0  0  0  0
 30 28  1  0  0  0  0
 31 28  1  0  0  0  0
M  END
>  <MODEL>
4

>  <REMARK>
 VINA RESULT:      -5.4      2.666      5.509
  Name = 
  4 active torsions:
  status: ('A' for Active; 'I' for Inactive)
    1  A    between atoms: C_1  and  N_19
    2  A    between atoms: C_9  and  C_22
    3  A    between atoms: C_9  and  C_23
    4  A    between atoms: C_15  and  C_23
                            x       y       z     vdW  Elec       q    Type
                         _______ _______ _______ _____ _____    ______ ____

>  <TORSDO>
F 4

$$$$
=
 OpenBabel11052422253D

 31 35  0  0  1  0  0  0  0  0999 V2000
  161.6980  202.4740  151.5780 C   0  0  0  0  0  0  0  0  0  0  0  0
  161.5820  205.3740  149.0400 C   0  0  0  0  0  0  0  0  0  0  0  0
  161.7600  204.9430  147.7030 C   0  0  0  0  0  0  0  0  0  0  0  0
  160.4060  203.4300  146.2880 C   0  0  0  0  0  3  0  0  0  0  0  0
  161.0680  204.4010  150.0890 C   0  0  1  0  0  3  0  0  0  0  0  0
  160.4770  202.8260  152.3860 C   0  0  0  0  0  2  0  0  0  0  0  0
  161.4690  203.5210  147.3310 C   0  0  0  0  0  2  0  0  0  0  0  0
  161.6870  207.2000  150.8120 C   0  0  1  0  0  3  0  0  0  0  0  0
  162.3320  201.4670  151.8500 O   0  0  0  0  0  0  0  0  0  0  0  0
  162.6980  207.1070  147.1360 C   0  0  0  0  0  3  0  0  0  0  0  0
  160.5660  203.9080  145.0560 C   0  0  0  0  0  3  0  0  0  0  0  0
  160.4560  206.5540  151.4420 C   0  0  0  0  0  2  0  0  0  0  0  0
  161.9080  206.7060  149.3950 C   0  0  0  0  0  0  0  0  0  0  0  0
  162.1290  203.3400  150.4210 C   0  0  0  0  0  2  0  0  0  0  0  0
  161.7500  204.6520  144.5890 C   0  0  0  0  0  3  0  0  0  0  0  0
  160.5770  205.0690  151.3580 C   0  0  0  0  0  0  0  0  0  0  0  0
  160.3040  204.3210  152.4360 C   0  0  0  0  0  3  0  0  0  0  0  0
  162.5040  207.5420  148.4420 C   0  0  0  0  0  3  0  0  0  0  0  0
  162.3040  205.8280  146.7450 C   0  0  0  0  0  0  0  0  0  0  0  0
  162.5040  205.4780  145.3230 C   0  0  0  0  0  3  0  0  0  0  0  0
  161.6140  208.7250  150.9420 C   0  0  0  0  0  2  0  0  0  0  0  0
  160.5910  209.1660  151.9850 C   0  0  0  0  0  2  0  0  0  0  0  0
  162.7290  210.3280  152.9740 C   0  0  0  0  0  1  0  0  0  0  0  0
  159.8530  212.0740  153.6750 O   0  0  0  0  0  0  0  0  0  0  0  0
  160.4530  210.9690  153.6690 C   0  0  0  0  0  0  0  0  0  0  0  0
  160.8510  209.6490  154.3440 N   0  0  0  0  0  0  0  0  0  0  0  0
  161.2480  210.0130  153.0610 C   0  0  1  0  0  0  0  0  0  0  0  0
  160.8180  208.7320  155.4700 C   0  0  0  0  0  0  0  0  0  0  0  0
  159.6010  208.8610  156.1380 O   0  0  0  0  0  1  0  0  0  0  0  0
  161.9510  209.0580  156.4210 C   0  0  0  0  0  1  0  0  0  0  0  0
  160.9720  207.3080  154.9760 C   0  0  0  0  0  1  0  0  0  0  0  0
  1  9  2  0  0  0  0
  1  6  1  0  0  0  0
  2 13  1  0  0  0  0
  2  5  1  0  0  0  0
  3  2  2  0  0  0  0
  4  7  1  0  0  0  0
  5 14  1  1  0  0  0
  5 16  1  0  0  0  0
  6 17  1  0  0  0  0
  7  3  1  0  0  0  0
  8 21  1  6  0  0  0
  8 12  1  0  0  0  0
 10 18  1  0  0  0  0
 11  4  2  0  0  0  0
 13  8  1  0  0  0  0
 14  1  1  0  0  0  0
 15 11  1  0  0  0  0
 15 20  2  0  0  0  0
 16 12  1  0  0  0  0
 16 17  2  0  0  0  0
 18 13  2  0  0  0  0
 19 10  2  0  0  0  0
 19  3  1  0  0  0  0
 20 19  1  0  0  0  0
 21 22  1  0  0  0  0
 22 27  1  0  0  0  0
 25 24  2  0  0  0  0
 25 26  1  0  0  0  0
 26 28  1  0  0  0  0
 27 23  1  6  0  0  0
 27 25  1  0  0  0  0
 27 26  1  0  0  0  0
 28 29  1  0  0  0  0
 28 30  1  0  0  0  0
 31 28  1  0  0  0  0
M  END
>  <MODEL>
5

>  <REMARK>
 VINA RESULT:      -5.4      2.856      8.314
  Name = 
  4 active torsions:
  status: ('A' for Active; 'I' for Inactive)
    1  A    between atoms: C_1  and  N_19
    2  A    between atoms: C_9  and  C_22
    3  A    between atoms: C_9  and  C_23
    4  A    between atoms: C_15  and  C_23
                            x       y       z     vdW  Elec       q    Type
                         _______ _______ _______ _____ _____    ______ ____

>  <TORSDO>
F 4

$$$$
=
 OpenBabel11052422253D

 31 35  0  0  1  0  0  0  0  0999 V2000
  160.7330  204.8910  144.8390 C   0  0  0  0  0  0  0  0  0  0  0  0
  161.2230  204.4330  148.6350 C   0  0  0  0  0  0  0  0  0  0  0  0
  160.8490  203.1450  149.0880 C   0  0  0  0  0  0  0  0  0  0  0  0
  161.7440  200.9040  148.5340 C   0  0  0  0  0  3  0  0  0  0  0  0
  161.6150  204.6430  147.1830 C   0  0  1  0  0  3  0  0  0  0  0  0
  162.0640  205.5140  144.5090 C   0  0  0  0  0  2  0  0  0  0  0  0
  160.8130  201.9960  148.1260 C   0  0  0  0  0  2  0  0  0  0  0  0
  161.6400  206.9050  149.0870 C   0  0  1  0  0  3  0  0  0  0  0  0
  159.9330  204.6670  143.9450 O   0  0  0  0  0  0  0  0  0  0  0  0
  160.3270  204.0670  151.2700 C   0  0  0  0  0  3  0  0  0  0  0  0
  161.5810  200.2030  149.6540 C   0  0  0  0  0  3  0  0  0  0  0  0
  162.7630  206.8250  148.0560 C   0  0  0  0  0  2  0  0  0  0  0  0
  161.2060  205.5230  149.5400 C   0  0  0  0  0  0  0  0  0  0  0  0
  160.3910  204.5180  146.2600 C   0  0  0  0  0  2  0  0  0  0  0  0
  160.5380  200.4610  150.6650 C   0  0  0  0  0  3  0  0  0  0  0  0
  162.3360  205.9520  146.9240 C   0  0  0  0  0  0  0  0  0  0  0  0
  162.5410  206.3550  145.6620 C   0  0  0  0  0  3  0  0  0  0  0  0
  160.7150  205.3300  150.8370 C   0  0  0  0  0  3  0  0  0  0  0  0
  160.4190  202.9640  150.4220 C   0  0  0  0  0  0  0  0  0  0  0  0
  160.0320  201.6560  150.9910 C   0  0  0  0  0  3  0  0  0  0  0  0
  162.0330  207.8470  150.2300 C   0  0  0  0  0  2  0  0  0  0  0  0
  160.8350  208.2470  151.0850 C   0  0  0  0  0  2  0  0  0  0  0  0
  162.6000  209.9530  152.0200 C   0  0  0  0  0  1  0  0  0  0  0  0
  159.3740  211.0760  152.3970 O   0  0  0  0  0  0  0  0  0  0  0  0
  160.1990  210.1380  152.5430 C   0  0  0  0  0  0  0  0  0  0  0  0
  160.8300  209.0170  153.3820 N   0  0  0  0  0  0  0  0  0  0  0  0
  161.2210  209.3260  152.0830 C   0  0  1  0  0  0  0  0  0  0  0  0
  160.9230  208.2380  154.6040 C   0  0  0  0  0  0  0  0  0  0  0  0
  161.9560  208.7370  155.3950 O   0  0  0  0  0  1  0  0  0  0  0  0
  161.2060  206.7910  154.2600 C   0  0  0  0  0  1  0  0  0  0  0  0
  159.6180  208.3260  155.3690 C   0  0  0  0  0  1  0  0  0  0  0  0
  1 14  1  0  0  0  0
  2  3  2  0  0  0  0
  2 13  1  0  0  0  0
  3 19  1  0  0  0  0
  4 11  2  0  0  0  0
  5 14  1  6  0  0  0
  5  2  1  0  0  0  0
  6  1  1  0  0  0  0
  6 17  1  0  0  0  0
  7  4  1  0  0  0  0
  7  3  1  0  0  0  0
  8 13  1  0  0  0  0
  8 21  1  1  0  0  0
  9  1  2  0  0  0  0
 11 15  1  0  0  0  0
 12  8  1  0  0  0  0
 13 18  2  0  0  0  0
 15 20  2  0  0  0  0
 16  5  1  0  0  0  0
 16 12  1  0  0  0  0
 17 16  2  0  0  0  0
 18 10  1  0  0  0  0
 19 20  1  0  0  0  0
 19 10  2  0  0  0  0
 21 22  1  0  0  0  0
 22 27  1  0  0  0  0
 24 25  2  0  0  0  0
 25 26  1  0  0  0  0
 26 28  1  0  0  0  0
 27 23  1  6  0  0  0
 27 25  1  0  0  0  0
 27 26  1  0  0  0  0
 28 31  1  0  0  0  0
 28 29  1  0  0  0  0
 30 28  1  0  0  0  0
M  END
>  <MODEL>
6

>  <REMARK>
 VINA RESULT:      -5.3      2.655      7.576
  Name = 
  4 active torsions:
  status: ('A' for Active; 'I' for Inactive)
    1  A    between atoms: C_1  and  N_19
    2  A    between atoms: C_9  and  C_22
    3  A    between atoms: C_9  and  C_23
    4  A    between atoms: C_15  and  C_23
                            x       y       z     vdW  Elec       q    Type
                         _______ _______ _______ _____ _____    ______ ____

>  <TORSDO>
F 4

$$$$
=
 OpenBabel11052422253D

 31 35  0  0  1  0  0  0  0  0999 V2000
  161.1470  207.6550  147.7900 C   0  0  0  0  0  0  0  0  0  0  0  0
  161.2000  204.6570  150.2130 C   0  0  0  0  0  0  0  0  0  0  0  0
  160.9680  203.4200  149.5650 C   0  0  0  0  0  0  0  0  0  0  0  0
  162.2540  202.2380  147.8110 C   0  0  0  0  0  3  0  0  0  0  0  0
  161.7430  205.8370  149.4250 C   0  0  1  0  0  3  0  0  0  0  0  0
  162.4010  208.3480  148.2550 C   0  0  0  0  0  2  0  0  0  0  0  0
  161.2310  203.2860  148.0950 C   0  0  0  0  0  2  0  0  0  0  0  0
  161.1790  206.0930  152.3160 C   0  0  1  0  0  3  0  0  0  0  0  0
  160.5140  208.1160  146.8550 O   0  0  0  0  0  0  0  0  0  0  0  0
  160.0330  202.5240  151.6150 C   0  0  0  0  0  3  0  0  0  0  0  0
  162.0540  200.9480  148.0740 C   0  0  0  0  0  3  0  0  0  0  0  0
  162.4260  206.7810  151.7670 C   0  0  0  0  0  2  0  0  0  0  0  0
  160.9010  204.7900  151.5910 C   0  0  0  0  0  0  0  0  0  0  0  0
  160.6830  206.3830  148.4530 C   0  0  0  0  0  2  0  0  0  0  0  0
  160.8610  200.4020  148.7470 C   0  0  0  0  0  3  0  0  0  0  0  0
  162.2860  206.9570  150.2910 C   0  0  0  0  0  0  0  0  0  0  0  0
  162.5910  208.1360  149.7330 C   0  0  0  0  0  3  0  0  0  0  0  0
  160.2790  203.7300  152.2640 C   0  0  0  0  0  3  0  0  0  0  0  0
  160.3990  202.3440  150.2820 C   0  0  0  0  0  0  0  0  0  0  0  0
  160.1430  201.0110  149.6990 C   0  0  0  0  0  3  0  0  0  0  0  0
  161.2730  205.9590  153.8400 C   0  0  0  0  0  2  0  0  0  0  0  0
  161.9940  207.1410  154.4800 C   0  0  0  0  0  2  0  0  0  0  0  0
  159.7630  207.2890  155.8580 C   0  0  0  0  0  1  0  0  0  0  0  0
  162.2880  209.1520  157.2600 O   0  0  0  0  0  0  0  0  0  0  0  0
  161.6340  208.8490  156.2290 C   0  0  0  0  0  0  0  0  0  0  0  0
  160.8780  209.2390  154.9510 N   0  0  0  0  0  0  0  0  0  0  0  0
  161.0530  207.9250  155.3780 C   0  0  1  0  0  0  0  0  0  0  0  0
  160.3780  210.2340  154.0190 C   0  0  0  0  0  0  0  0  0  0  0  0
  161.1820  211.3700  154.0780 O   0  0  0  0  0  1  0  0  0  0  0  0
  158.9560  210.6030  154.3870 C   0  0  0  0  0  1  0  0  0  0  0  0
  160.4020  209.6750  152.6110 C   0  0  0  0  0  1  0  0  0  0  0  0
  1  6  1  0  0  0  0
  1 14  1  0  0  0  0
  2 13  1  0  0  0  0
  3  2  2  0  0  0  0
  3 19  1  0  0  0  0
  4 11  2  0  0  0  0
  4  7  1  0  0  0  0
  5 14  1  1  0  0  0
  5  2  1  0  0  0  0
  5 16  1  0  0  0  0
  6 17  1  0  0  0  0
  7  3  1  0  0  0  0
  8 21  1  1  0  0  0
  9  1  2  0  0  0  0
 10 18  1  0  0  0  0
 11 15  1  0  0  0  0
 12  8  1  0  0  0  0
 13 18  2  0  0  0  0
 13  8  1  0  0  0  0
 15 20  2  0  0  0  0
 16 12  1  0  0  0  0
 17 16  2  0  0  0  0
 19 10  2  0  0  0  0
 20 19  1  0  0  0  0
 21 22  1  0  0  0  0
 22 27  1  0  0  0  0
 25 24  2  0  0  0  0
 26 27  1  0  0  0  0
 26 25  1  0  0  0  0
 27 23  1  1  0  0  0
 27 25  1  0  0  0  0
 28 29  1  0  0  0  0
 28 30  1  0  0  0  0
 28 26  1  0  0  0  0
 31 28  1  0  0  0  0
M  END
>  <MODEL>
7

>  <REMARK>
 VINA RESULT:      -5.2      2.796      7.392
  Name = 
  4 active torsions:
  status: ('A' for Active; 'I' for Inactive)
    1  A    between atoms: C_1  and  N_19
    2  A    between atoms: C_9  and  C_22
    3  A    between atoms: C_9  and  C_23
    4  A    between atoms: C_15  and  C_23
                            x       y       z     vdW  Elec       q    Type
                         _______ _______ _______ _____ _____    ______ ____

>  <TORSDO>
F 4

$$$$
=
 OpenBabel11052422253D

 31 35  0  0  1  0  0  0  0  0999 V2000
  160.6430  206.5400  146.4840 C   0  0  0  0  0  0  0  0  0  0  0  0
  161.1890  204.6420  149.7950 C   0  0  0  0  0  0  0  0  0  0  0  0
  160.8730  203.2650  149.7000 C   0  0  0  0  0  0  0  0  0  0  0  0
  161.8530  201.4640  148.3130 C   0  0  0  0  0  3  0  0  0  0  0  0
  161.5580  205.4240  148.5460 C   0  0  1  0  0  3  0  0  0  0  0  0
  161.9440  207.2970  146.4360 C   0  0  0  0  0  2  0  0  0  0  0  0
  160.8740  202.5890  148.3620 C   0  0  0  0  0  2  0  0  0  0  0  0
  161.5100  206.7490  151.1880 C   0  0  1  0  0  3  0  0  0  0  0  0
  159.8440  206.6540  145.5690 O   0  0  0  0  0  0  0  0  0  0  0  0
  160.3350  203.2280  152.0650 C   0  0  0  0  0  3  0  0  0  0  0  0
  161.7300  200.3720  149.0640 C   0  0  0  0  0  3  0  0  0  0  0  0
  162.6240  207.1300  150.2170 C   0  0  0  0  0  2  0  0  0  0  0  0
  161.1360  205.2850  151.0560 C   0  0  0  0  0  0  0  0  0  0  0  0
  160.3310  205.6220  147.6400 C   0  0  0  0  0  2  0  0  0  0  0  0
  160.6880  200.1660  150.0870 C   0  0  0  0  0  3  0  0  0  0  0  0
  162.2220  206.7570  148.8290 C   0  0  0  0  0  0  0  0  0  0  0  0
  162.3970  207.6340  147.8310 C   0  0  0  0  0  3  0  0  0  0  0  0
  160.6670  204.5750  152.1690 C   0  0  0  0  0  3  0  0  0  0  0  0
  160.4630  202.5550  150.8510 C   0  0  0  0  0  0  0  0  0  0  0  0
  160.1360  201.1140  150.8540 C   0  0  0  0  0  3  0  0  0  0  0  0
  161.8750  207.1800  152.6130 C   0  0  0  0  0  2  0  0  0  0  0  0
  160.7850  208.0330  153.2550 C   0  0  0  0  0  2  0  0  0  0  0  0
  162.2580  209.9740  152.2740 C   0  0  0  0  0  1  0  0  0  0  0  0
  159.0890  211.0250  153.0880 O   0  0  0  0  0  0  0  0  0  0  0  0
  160.1290  210.4080  153.4350 C   0  0  0  0  0  0  0  0  0  0  0  0
  161.2250  210.0880  154.4610 N   0  0  0  0  0  0  0  0  0  0  0  0
  161.1510  209.5060  153.1990 C   0  0  1  0  0  0  0  0  0  0  0  0
  161.8430  210.2640  155.7640 C   0  0  0  0  0  0  0  0  0  0  0  0
  163.1280  210.7790  155.6010 O   0  0  0  0  0  1  0  0  0  0  0  0
  161.9220  208.9280  156.4710 C   0  0  0  0  0  1  0  0  0  0  0  0
  161.0190  211.2250  156.5960 C   0  0  0  0  0  1  0  0  0  0  0  0
  1 14  1  0  0  0  0
  2 13  1  0  0  0  0
  3  2  2  0  0  0  0
  3 19  1  0  0  0  0
  4  7  1  0  0  0  0
  4 11  2  0  0  0  0
  5 14  1  1  0  0  0
  5 16  1  0  0  0  0
  5  2  1  0  0  0  0
  6  1  1  0  0  0  0
  6 17  1  0  0  0  0
  7  3  1  0  0  0  0
  8 21  1  1  0  0  0
  9  1  2  0  0  0  0
 10 18  1  0  0  0  0
 11 15  1  0  0  0  0
 12  8  1  0  0  0  0
 13  8  1  0  0  0  0
 13 18  2  0  0  0  0
 15 20  2  0  0  0  0
 16 12  1  0  0  0  0
 17 16  2  0  0  0  0
 19 20  1  0  0  0  0
 19 10  2  0  0  0  0
 21 22  1  0  0  0  0
 24 25  2  0  0  0  0
 25 26  1  0  0  0  0
 26 28  1  0  0  0  0
 27 23  1  6  0  0  0
 27 22  1  0  0  0  0
 27 25  1  0  0  0  0
 27 26  1  0  0  0  0
 28 30  1  0  0  0  0
 28 31  1  0  0  0  0
 29 28  1  0  0  0  0
M  END
>  <MODEL>
8

>  <REMARK>
 VINA RESULT:      -5.0      2.811      7.684
  Name = 
  4 active torsions:
  status: ('A' for Active; 'I' for Inactive)
    1  A    between atoms: C_1  and  N_19
    2  A    between atoms: C_9  and  C_22
    3  A    between atoms: C_9  and  C_23
    4  A    between atoms: C_15  and  C_23
                            x       y       z     vdW  Elec       q    Type
                         _______ _______ _______ _____ _____    ______ ____

>  <TORSDO>
F 4

$$$$
=
 OpenBabel11052422253D

 31 35  0  0  1  0  0  0  0  0999 V2000
  160.7340  204.0250  145.2120 C   0  0  0  0  0  0  0  0  0  0  0  0
  161.3140  205.1480  148.8540 C   0  0  0  0  0  0  0  0  0  0  0  0
  161.0010  204.1400  149.7980 C   0  0  0  0  0  0  0  0  0  0  0  0
  161.9750  201.8940  150.1600 C   0  0  0  0  0  3  0  0  0  0  0  0
  161.6690  204.7680  147.4270 C   0  0  1  0  0  3  0  0  0  0  0  0
  162.0320  204.5020  144.6150 C   0  0  0  0  0  2  0  0  0  0  0  0
  160.9930  202.7010  149.3790 C   0  0  0  0  0  2  0  0  0  0  0  0
  161.6380  207.6040  148.2610 C   0  0  1  0  0  3  0  0  0  0  0  0
  159.9270  203.4370  144.5110 O   0  0  0  0  0  0  0  0  0  0  0  0
  160.4820  205.8460  151.4420 C   0  0  0  0  0  3  0  0  0  0  0  0
  161.8620  201.6990  151.4720 C   0  0  0  0  0  3  0  0  0  0  0  0
  162.7440  207.1490  147.3120 C   0  0  0  0  0  2  0  0  0  0  0  0
  161.2690  206.5090  149.2450 C   0  0  0  0  0  0  0  0  0  0  0  0
  160.4340  204.2450  146.6740 C   0  0  0  0  0  2  0  0  0  0  0  0
  160.8290  202.3100  152.3290 C   0  0  0  0  0  3  0  0  0  0  0  0
  162.3310  205.8820  146.6400 C   0  0  0  0  0  0  0  0  0  0  0  0
  162.4960  205.7500  145.3170 C   0  0  0  0  0  3  0  0  0  0  0  0
  160.8100  206.8400  150.5260 C   0  0  0  0  0  3  0  0  0  0  0  0
  160.6030  204.4990  151.1060 C   0  0  0  0  0  0  0  0  0  0  0  0
  160.2810  203.5200  152.1640 C   0  0  0  0  0  3  0  0  0  0  0  0
  162.0140  208.9380  148.9160 C   0  0  0  0  0  2  0  0  0  0  0  0
  161.5960  210.1350  148.0670 C   0  0  0  0  0  2  0  0  0  0  0  0
  161.8140  211.5050  150.2980 C   0  0  0  0  0  1  0  0  0  0  0  0
  164.0150  212.5780  147.8860 O   0  0  0  0  0  0  0  0  0  0  0  0
  162.8340  212.2700  148.1880 C   0  0  0  0  0  0  0  0  0  0  0  0
  161.3230  212.5400  148.1640 N   0  0  0  0  0  0  0  0  0  0  0  0
  161.9020  211.4380  148.7850 C   0  0  1  0  0  0  0  0  0  0  0  0
  160.1770  213.3430  147.7720 C   0  0  0  0  0  0  0  0  0  0  0  0
  159.2390  212.5320  147.1360 O   0  0  0  0  0  1  0  0  0  0  0  0
  160.6260  214.4350  146.8240 C   0  0  0  0  0  1  0  0  0  0  0  0
  159.5480  213.9710  148.9990 C   0  0  0  0  0  1  0  0  0  0  0  0
  1 14  1  0  0  0  0
  2 13  2  0  0  0  0
  2  3  1  0  0  0  0
  3 19  2  0  0  0  0
  4 11  2  0  0  0  0
  5 14  1  6  0  0  0
  5  2  1  0  0  0  0
  6  1  1  0  0  0  0
  6 17  1  0  0  0  0
  7  3  1  0  0  0  0
  7  4  1  0  0  0  0
  8 21  1  1  0  0  0
  8 13  1  0  0  0  0
  9  1  2  0  0  0  0
 11 15  1  0  0  0  0
 12  8  1  0  0  0  0
 13 18  1  0  0  0  0
 16 12  1  0  0  0  0
 16  5  1  0  0  0  0
 17 16  2  0  0  0  0
 18 10  2  0  0  0  0
 19 10  1  0  0  0  0
 19 20  1  0  0  0  0
 20 15  2  0  0  0  0
 22 27  1  0  0  0  0
 22 21  1  0  0  0  0
 24 25  2  0  0  0  0
 25 27  1  0  0  0  0
 26 25  1  0  0  0  0
 26 27  1  0  0  0  0
 27 23  1  1  0  0  0
 28 26  1  0  0  0  0
 28 31  1  0  0  0  0
 29 28  1  0  0  0  0
 30 28  1  0  0  0  0
M  END
>  <MODEL>
9

>  <REMARK>
 VINA RESULT:      -4.9      3.445      7.801
  Name = 
  4 active torsions:
  status: ('A' for Active; 'I' for Inactive)
    1  A    between atoms: C_1  and  N_19
    2  A    between atoms: C_9  and  C_22
    3  A    between atoms: C_9  and  C_23
    4  A    between atoms: C_15  and  C_23
                            x       y       z     vdW  Elec       q    Type
                         _______ _______ _______ _____ _____    ______ ____

>  <TORSDO>
F 4

$$$$
