=
 OpenBabel11062409453D

 34 40  0  0  1  0  0  0  0  0999 V2000
  161.2170  208.0480  151.6600 C   0  0  0  0  0  0  0  0  0  0  0  0
  161.4720  211.7640  151.3230 C   0  0  0  0  0  3  0  0  0  0  0  0
  161.8070  212.8280  147.9420 C   0  0  0  0  0  0  0  0  0  0  0  0
  161.2290  210.3640  153.2780 C   0  0  0  0  0  3  0  0  0  0  0  0
  160.9660  205.5080  152.8420 N   0  0  0  0  0  0  0  0  0  0  0  0
  161.2060  206.8120  150.8420 C   0  0  0  0  0  3  0  0  0  0  0  0
  160.9730  206.6820  153.6610 C   0  0  0  0  0  0  0  0  0  0  0  0
  160.8640  207.7260  155.8440 C   0  0  0  0  0  3  0  0  0  0  0  0
  161.9300  213.7590  147.1050 O   0  0  0  0  0  0  0  0  0  0  0  0
  160.8550  206.5750  155.0490 C   0  0  0  0  0  3  0  0  0  0  0  0
  161.0860  205.6040  151.4130 C   0  0  0  0  0  0  0  0  0  0  0  0
  161.1060  209.1060  153.8660 C   0  0  0  0  0  0  0  0  0  0  0  0
  161.0990  207.9470  153.0600 C   0  0  2  0  0  3  0  0  0  0  0  0
  160.9880  208.9890  155.2540 C   0  0  0  0  0  3  0  0  0  0  0  0
  161.5890  211.8720  149.9390 C   0  0  0  0  0  0  0  0  0  0  0  0
  161.7390  211.1890  147.5300 S   0  0  0  0  0  0  0  0  0  0  0  0
  161.7140  213.0490  149.2750 N   0  0  0  0  0  2  0  0  0  0  0  0
  161.5830  210.7400  149.1400 C   0  0  0  0  0  0  0  0  0  0  0  0
  161.3480  210.4850  151.8910 C   0  0  0  0  0  0  0  0  0  0  0  0
  161.4630  209.4590  149.6680 C   0  0  0  0  0  3  0  0  0  0  0  0
  161.3420  209.3200  151.0660 C   0  0  0  0  0  0  0  0  0  0  0  0
  161.0080  201.9450  150.4020 C   0  0  0  0  0  3  0  0  0  0  0  0
  161.1290  204.4710  149.1920 C   0  0  0  0  0  3  0  0  0  0  0  0
  161.1050  200.9980  146.8220 C   0  0  0  0  0  0  0  0  0  0  0  0
  161.0530  200.8970  148.2190 C   0  0  0  0  0  3  0  0  0  0  0  0
  161.0610  202.0480  149.0110 C   0  0  0  0  0  0  0  0  0  0  0  0
  161.1730  203.4230  147.0100 C   0  0  0  0  0  3  0  0  0  0  0  0
  161.1210  203.3210  148.4010 C   0  0  0  0  0  0  0  0  0  0  0  0
  161.1660  202.2670  146.2240 C   0  0  0  0  0  3  0  0  0  0  0  0
  161.0760  204.3740  150.5920 C   0  0  0  0  0  0  0  0  0  0  0  0
  161.0160  203.1020  151.1880 C   0  0  0  0  0  3  0  0  0  0  0  0
  161.0970  199.7830  145.9930 C   0  0  0  0  0  0  0  0  0  0  0  0
  161.7470  198.7620  146.3480 O   0  0  0  0  0  1  0  0  0  0  0  0
  160.3720  199.7470  144.8080 O   0  0  0  0  0  0  0  0  0  0  0  0
  2 19  1  0  0  0  0
  3 17  1  0  0  0  0
  4 12  1  0  0  0  0
  5  7  2  0  0  0  0
  6 11  2  0  0  0  0
  6  1  1  0  0  0  0
  7 10  1  0  0  0  0
  9  3  2  0  0  0  0
 10  8  2  0  0  0  0
 11  5  1  0  0  0  0
 12 14  2  0  0  0  0
 13  1  1  6  0  0  0
 13  7  1  0  0  0  0
 13 12  1  0  0  0  0
 14  8  1  0  0  0  0
 15  2  2  0  0  0  0
 16  3  1  0  0  0  0
 16 18  1  0  0  0  0
 17 15  1  0  0  0  0
 18 20  2  0  0  0  0
 18 15  1  0  0  0  0
 19  4  2  0  0  0  0
 20 21  1  0  0  0  0
 21  1  2  0  0  0  0
 21 19  1  0  0  0  0
 22 31  1  0  0  0  0
 23 30  1  0  0  0  0
 24 25  2  0  0  0  0
 25 26  1  0  0  0  0
 26 22  2  0  0  0  0
 27 28  1  0  0  0  0
 28 26  1  0  0  0  0
 28 23  2  0  0  0  0
 29 24  1  0  0  0  0
 29 27  2  0  0  0  0
 30 31  2  0  0  0  0
 30 11  1  0  0  0  0
 32 33  1  0  0  0  0
 32 24  1  0  0  0  0
 34 32  2  0  0  0  0
M  END
>  <MODEL>
1

>  <REMARK>
 VINA RESULT:      -8.3      0.000      0.000
  Name = 
  2 active torsions:
  status: ('A' for Active; 'I' for Inactive)
    1  A    between atoms: C_7  and  C_11
    2  A    between atoms: C_18  and  C_30
                            x       y       z     vdW  Elec       q    Type
                         _______ _______ _______ _____ _____    ______ ____

>  <TORSDO>
F 2

$$$$
=
 OpenBabel11062409453D

 34 40  0  0  1  0  0  0  0  0999 V2000
  159.9930  211.2070  154.1670 C   0  0  0  0  0  0  0  0  0  0  0  0
  157.5600  213.3700  156.0050 C   0  0  0  0  0  3  0  0  0  0  0  0
  154.5500  213.9260  154.1850 C   0  0  0  0  0  0  0  0  0  0  0  0
  159.7630  212.5900  156.6190 C   0  0  0  0  0  3  0  0  0  0  0  0
  162.3270  209.7460  153.5900 N   0  0  0  0  0  0  0  0  0  0  0  0
  160.1480  210.4690  152.8910 C   0  0  0  0  0  3  0  0  0  0  0  0
  162.2090  210.4470  154.8320 C   0  0  0  0  0  0  0  0  0  0  0  0
  163.1290  211.1000  156.9760 C   0  0  0  0  0  3  0  0  0  0  0  0
  153.4110  214.4530  154.1080 O   0  0  0  0  0  0  0  0  0  0  0  0
  163.2500  210.4110  155.7640 C   0  0  0  0  0  3  0  0  0  0  0  0
  161.2640  209.7740  152.6220 C   0  0  0  0  0  0  0  0  0  0  0  0
  160.9210  211.8670  156.3350 C   0  0  0  0  0  0  0  0  0  0  0  0
  161.0390  211.1740  155.1100 C   0  0  2  0  0  3  0  0  0  0  0  0
  161.9670  211.8260  157.2610 C   0  0  0  0  0  3  0  0  0  0  0  0
  156.5210  213.4070  155.0770 C   0  0  0  0  0  0  0  0  0  0  0  0
  155.2290  212.9610  152.9730 S   0  0  0  0  0  0  0  0  0  0  0  0
  155.3580  214.0810  155.2610 N   0  0  0  0  0  2  0  0  0  0  0  0
  156.6280  212.7300  153.8720 C   0  0  0  0  0  0  0  0  0  0  0  0
  158.7150  212.6340  155.6960 C   0  0  0  0  0  0  0  0  0  0  0  0
  157.7580  211.9920  153.5330 C   0  0  0  0  0  3  0  0  0  0  0  0
  158.8230  211.9370  154.4540 C   0  0  0  0  0  0  0  0  0  0  0  0
  162.0630  208.9680  148.9990 C   0  0  0  0  0  3  0  0  0  0  0  0
  161.0370  207.6900  151.2720 C   0  0  0  0  0  3  0  0  0  0  0  0
  161.4430  205.5690  147.6650 C   0  0  0  0  0  0  0  0  0  0  0  0
  161.8200  206.9180  147.7340 C   0  0  0  0  0  3  0  0  0  0  0  0
  161.6870  207.6260  148.9310 C   0  0  0  0  0  0  0  0  0  0  0  0
  160.7950  205.6380  150.0090 C   0  0  0  0  0  3  0  0  0  0  0  0
  161.1700  206.9820  150.0770 C   0  0  0  0  0  0  0  0  0  0  0  0
  160.9310  204.9350  148.8080 C   0  0  0  0  0  3  0  0  0  0  0  0
  161.4130  209.0400  151.3470 C   0  0  0  0  0  0  0  0  0  0  0  0
  161.9260  209.6720  150.2000 C   0  0  0  0  0  3  0  0  0  0  0  0
  161.5860  204.8280  146.4020 C   0  0  0  0  0  0  0  0  0  0  0  0
  161.4550  203.5750  146.3770 O   0  0  0  0  0  1  0  0  0  0  0  0
  161.8690  205.5040  145.2200 O   0  0  0  0  0  0  0  0  0  0  0  0
  1 21  2  0  0  0  0
  3 17  1  0  0  0  0
  5  7  2  0  0  0  0
  6  1  1  0  0  0  0
  7 13  1  0  0  0  0
  7 10  1  0  0  0  0
  8 14  1  0  0  0  0
  9  3  2  0  0  0  0
 10  8  2  0  0  0  0
 11  6  2  0  0  0  0
 11  5  1  0  0  0  0
 12  4  1  0  0  0  0
 12 14  2  0  0  0  0
 13  1  1  1  0  0  0
 13 12  1  0  0  0  0
 15 17  1  0  0  0  0
 15  2  2  0  0  0  0
 16 18  1  0  0  0  0
 16  3  1  0  0  0  0
 18 15  1  0  0  0  0
 19  2  1  0  0  0  0
 19  4  2  0  0  0  0
 20 18  2  0  0  0  0
 20 21  1  0  0  0  0
 21 19  1  0  0  0  0
 22 31  1  0  0  0  0
 23 30  1  0  0  0  0
 24 25  2  0  0  0  0
 24 29  1  0  0  0  0
 25 26  1  0  0  0  0
 26 22  2  0  0  0  0
 26 28  1  0  0  0  0
 27 28  1  0  0  0  0
 28 23  2  0  0  0  0
 29 27  2  0  0  0  0
 30 11  1  0  0  0  0
 31 30  2  0  0  0  0
 32 24  1  0  0  0  0
 33 32  1  0  0  0  0
 34 32  2  0  0  0  0
M  END
>  <MODEL>
2

>  <REMARK>
 VINA RESULT:      -7.3      4.321      5.798
  Name = 
  2 active torsions:
  status: ('A' for Active; 'I' for Inactive)
    1  A    between atoms: C_7  and  C_11
    2  A    between atoms: C_18  and  C_30
                            x       y       z     vdW  Elec       q    Type
                         _______ _______ _______ _____ _____    ______ ____

>  <TORSDO>
F 2

$$$$
=
 OpenBabel11062409453D

 34 40  0  0  1  0  0  0  0  0999 V2000
  161.1370  204.6160  149.3450 C   0  0  0  0  0  0  0  0  0  0  0  0
  161.2810  203.1980  145.8880 C   0  0  0  0  0  3  0  0  0  0  0  0
  161.3430  205.7080  143.3630 C   0  0  0  0  0  0  0  0  0  0  0  0
  161.2150  202.1100  148.0450 C   0  0  0  0  0  3  0  0  0  0  0  0
  161.0340  204.7410  152.1530 N   0  0  0  0  0  0  0  0  0  0  0  0
  161.0960  205.9140  150.0610 C   0  0  0  0  0  3  0  0  0  0  0  0
  161.0730  203.4710  151.4930 C   0  0  0  0  0  0  0  0  0  0  0  0
  161.0970  201.0510  151.5860 C   0  0  0  0  0  3  0  0  0  0  0  0
  161.3840  206.0200  142.1450 O   0  0  0  0  0  0  0  0  0  0  0  0
  161.0600  202.2890  152.2370 C   0  0  0  0  0  3  0  0  0  0  0  0
  161.0470  205.9660  151.4010 C   0  0  0  0  0  0  0  0  0  0  0  0
  161.1630  202.1690  149.4370 C   0  0  0  0  0  0  0  0  0  0  0  0
  161.1250  203.4200  150.0900 C   0  0  1  0  0  3  0  0  0  0  0  0
  161.1490  200.9910  150.1890 C   0  0  0  0  0  3  0  0  0  0  0  0
  161.2940  204.3760  145.1450 C   0  0  0  0  0  0  0  0  0  0  0  0
  161.2840  206.8310  144.6260 S   0  0  0  0  0  0  0  0  0  0  0  0
  161.3430  204.4220  143.7890 N   0  0  0  0  0  2  0  0  0  0  0  0
  161.2560  205.6100  145.7770 C   0  0  0  0  0  0  0  0  0  0  0  0
  161.2280  203.2840  147.2890 C   0  0  0  0  0  0  0  0  0  0  0  0
  161.2040  205.7320  147.1620 C   0  0  0  0  0  3  0  0  0  0  0  0
  161.1900  204.5560  147.9380 C   0  0  0  0  0  0  0  0  0  0  0  0
  161.1350  209.6970  152.0960 C   0  0  0  0  0  3  0  0  0  0  0  0
  160.7930  207.2920  153.4960 C   0  0  0  0  0  3  0  0  0  0  0  0
  160.6690  210.9610  155.5470 C   0  0  0  0  0  0  0  0  0  0  0  0
  160.8820  210.9360  154.1610 C   0  0  0  0  0  3  0  0  0  0  0  0
  160.9240  209.7200  153.4760 C   0  0  0  0  0  0  0  0  0  0  0  0
  160.5390  208.5320  155.5610 C   0  0  0  0  0  3  0  0  0  0  0  0
  160.7510  208.5080  154.1810 C   0  0  0  0  0  0  0  0  0  0  0  0
  160.4990  209.7530  156.2410 C   0  0  0  0  0  3  0  0  0  0  0  0
  161.0050  207.2630  152.1090 C   0  0  0  0  0  0  0  0  0  0  0  0
  161.1760  208.4750  151.4170 C   0  0  0  0  0  3  0  0  0  0  0  0
  160.6260  212.2450  156.2640 C   0  0  0  0  0  0  0  0  0  0  0  0
  161.3720  212.4480  157.2590 O   0  0  0  0  0  1  0  0  0  0  0  0
  159.7590  213.2500  155.8490 O   0  0  0  0  0  0  0  0  0  0  0  0
  1  6  1  0  0  0  0
  2 19  1  0  0  0  0
  3 17  1  0  0  0  0
  3 16  1  0  0  0  0
  4 12  1  0  0  0  0
  6 11  2  0  0  0  0
  7  5  2  0  0  0  0
  7 10  1  0  0  0  0
  8 10  2  0  0  0  0
  9  3  2  0  0  0  0
 11 30  1  0  0  0  0
 11  5  1  0  0  0  0
 12 13  1  0  0  0  0
 12 14  2  0  0  0  0
 13  1  1  6  0  0  0
 13  7  1  0  0  0  0
 14  8  1  0  0  0  0
 15 18  1  0  0  0  0
 15  2  2  0  0  0  0
 16 18  1  0  0  0  0
 17 15  1  0  0  0  0
 18 20  2  0  0  0  0
 19 21  1  0  0  0  0
 19  4  2  0  0  0  0
 20 21  1  0  0  0  0
 21  1  2  0  0  0  0
 22 26  1  0  0  0  0
 23 28  1  0  0  0  0
 24 29  1  0  0  0  0
 24 32  1  0  0  0  0
 25 24  2  0  0  0  0
 26 25  1  0  0  0  0
 26 28  2  0  0  0  0
 27 29  2  0  0  0  0
 28 27  1  0  0  0  0
 30 23  2  0  0  0  0
 31 22  2  0  0  0  0
 31 30  1  0  0  0  0
 32 33  1  0  0  0  0
 34 32  2  0  0  0  0
M  END
>  <MODEL>
3

>  <REMARK>
 VINA RESULT:      -7.1      3.494      8.993
  Name = 
  2 active torsions:
  status: ('A' for Active; 'I' for Inactive)
    1  A    between atoms: C_7  and  C_11
    2  A    between atoms: C_18  and  C_30
                            x       y       z     vdW  Elec       q    Type
                         _______ _______ _______ _____ _____    ______ ____

>  <TORSDO>
F 2

$$$$
=
 OpenBabel11062409453D

 34 40  0  0  1  0  0  0  0  0999 V2000
  161.3350  208.1340  150.5000 C   0  0  0  0  0  0  0  0  0  0  0  0
  161.5720  211.8600  150.7080 C   0  0  0  0  0  3  0  0  0  0  0  0
  161.9070  213.4070  147.5190 C   0  0  0  0  0  0  0  0  0  0  0  0
  161.3340  210.1890  152.4380 C   0  0  0  0  0  3  0  0  0  0  0  0
  161.0960  205.4480  151.2990 N   0  0  0  0  0  0  0  0  0  0  0  0
  161.3310  207.0300  149.5110 C   0  0  0  0  0  3  0  0  0  0  0  0
  161.0960  206.4900  152.2800 C   0  0  0  0  0  0  0  0  0  0  0  0
  160.9780  207.2040  154.5920 C   0  0  0  0  0  3  0  0  0  0  0  0
  162.0270  214.4500  146.8270 O   0  0  0  0  0  0  0  0  0  0  0  0
  160.9770  206.1810  153.6380 C   0  0  0  0  0  3  0  0  0  0  0  0
  161.2170  205.7510  149.8990 C   0  0  0  0  0  0  0  0  0  0  0  0
  161.2160  208.8590  152.8360 C   0  0  0  0  0  0  0  0  0  0  0  0
  161.2160  207.8290  151.8700 C   0  0  2  0  0  3  0  0  0  0  0  0
  161.0970  208.5400  154.1920 C   0  0  0  0  0  3  0  0  0  0  0  0
  161.6910  212.1700  149.3550 C   0  0  0  0  0  0  0  0  0  0  0  0
  161.8480  211.8450  146.8720 S   0  0  0  0  0  0  0  0  0  0  0  0
  161.8110  213.4310  148.8700 N   0  0  0  0  0  2  0  0  0  0  0  0
  161.6920  211.1660  148.3990 C   0  0  0  0  0  0  0  0  0  0  0  0
  161.4540  210.5120  151.0840 C   0  0  0  0  0  0  0  0  0  0  0  0
  161.5770  209.8210  148.7360 C   0  0  0  0  0  3  0  0  0  0  0  0
  161.4550  209.4790  150.0980 C   0  0  0  0  0  0  0  0  0  0  0  0
  161.2080  203.8770  146.5980 C   0  0  0  0  0  3  0  0  0  0  0  0
  161.2150  203.3200  149.3450 C   0  0  0  0  0  3  0  0  0  0  0  0
  161.2070  200.1720  146.5570 C   0  0  0  0  0  0  0  0  0  0  0  0
  161.2060  201.5030  146.1160 C   0  0  0  0  0  3  0  0  0  0  0  0
  161.2080  202.5530  147.0380 C   0  0  0  0  0  0  0  0  0  0  0  0
  161.2140  200.9470  148.8630 C   0  0  0  0  0  3  0  0  0  0  0  0
  161.2120  202.2720  148.4230 C   0  0  0  0  0  0  0  0  0  0  0  0
  161.2110  199.9020  147.9340 C   0  0  0  0  0  3  0  0  0  0  0  0
  161.2140  204.6540  148.9080 C   0  0  0  0  0  0  0  0  0  0  0  0
  161.2100  204.9210  147.5270 C   0  0  0  0  0  3  0  0  0  0  0  0
  161.2040  199.0720  145.5810 C   0  0  0  0  0  0  0  0  0  0  0  0
  160.1790  198.8360  144.8860 O   0  0  0  0  0  0  0  0  0  0  0  0
  162.3340  198.2790  145.4150 O   0  0  0  0  0  1  0  0  0  0  0  0
  2 19  1  0  0  0  0
  3 17  1  0  0  0  0
  4 12  1  0  0  0  0
  5  7  2  0  0  0  0
  6 11  2  0  0  0  0
  6  1  1  0  0  0  0
  7 10  1  0  0  0  0
  9  3  2  0  0  0  0
 10  8  2  0  0  0  0
 11  5  1  0  0  0  0
 12 14  2  0  0  0  0
 13  1  1  6  0  0  0
 13  7  1  0  0  0  0
 13 12  1  0  0  0  0
 14  8  1  0  0  0  0
 15  2  2  0  0  0  0
 16  3  1  0  0  0  0
 16 18  1  0  0  0  0
 17 15  1  0  0  0  0
 18 20  2  0  0  0  0
 18 15  1  0  0  0  0
 19  4  2  0  0  0  0
 20 21  1  0  0  0  0
 21  1  2  0  0  0  0
 21 19  1  0  0  0  0
 22 26  2  0  0  0  0
 22 31  1  0  0  0  0
 24 29  1  0  0  0  0
 25 24  2  0  0  0  0
 25 26  1  0  0  0  0
 26 28  1  0  0  0  0
 28 27  1  0  0  0  0
 28 23  2  0  0  0  0
 29 27  2  0  0  0  0
 30 23  1  0  0  0  0
 30 11  1  0  0  0  0
 31 30  2  0  0  0  0
 32 24  1  0  0  0  0
 33 32  2  0  0  0  0
 34 32  1  0  0  0  0
M  END
>  <MODEL>
4

>  <REMARK>
 VINA RESULT:      -7.1      0.982      1.757
  Name = 
  2 active torsions:
  status: ('A' for Active; 'I' for Inactive)
    1  A    between atoms: C_7  and  C_11
    2  A    between atoms: C_18  and  C_30
                            x       y       z     vdW  Elec       q    Type
                         _______ _______ _______ _____ _____    ______ ____

>  <TORSDO>
F 2

$$$$
=
 OpenBabel11062409453D

 34 40  0  0  0  0  0  0  0  0999 V2000
  160.5010  211.4260  150.9200 C   0  0  0  0  0  0  0  0  0  0  0  0
  159.0520  214.4120  152.6430 C   0  0  0  0  0  3  0  0  0  0  0  0
  157.0730  213.5520  155.4750 C   0  0  0  0  0  0  0  0  0  0  0  0
  160.4690  214.2410  150.6920 C   0  0  0  0  0  3  0  0  0  0  0  0
  161.9440  209.8810  149.0650 N   0  0  0  0  0  2  0  0  0  0  0  0
  160.5400  209.9470  151.0090 C   0  0  0  0  0  3  0  0  0  0  0  0
  161.9270  211.3080  148.9500 C   0  0  0  0  0  0  0  0  0  0  0  0
  162.6040  213.3360  147.8120 C   0  0  0  0  0  3  0  0  0  0  0  0
  156.3530  213.9080  156.4430 O   0  0  0  0  0  0  0  0  0  0  0  0
  162.6260  211.9410  147.9190 C   0  0  0  0  0  3  0  0  0  0  0  0
  161.2310  209.2160  150.1210 C   0  0  0  0  0  0  0  0  0  0  0  0
  161.1840  213.4780  149.7710 C   0  0  0  0  0  0  0  0  0  0  0  0
  161.2030  212.0700  149.8820 C   0  0  0  0  0  0  0  0  0  0  0  0
  161.8860  214.1030  148.7360 C   0  0  0  0  0  3  0  0  0  0  0  0
  158.3560  213.7820  153.6710 C   0  0  0  0  0  0  0  0  0  0  0  0
  157.4450  211.9420  155.1150 S   0  0  0  0  0  0  0  0  0  0  0  0
  157.6310  214.4360  154.6140 N   0  0  0  0  0  2  0  0  0  0  0  0
  158.3670  212.4000  153.7890 C   0  0  0  0  0  0  0  0  0  0  0  0
  159.7660  213.6210  151.7280 C   0  0  0  0  0  0  0  0  0  0  0  0
  159.0630  211.5860  152.9010 C   0  0  0  0  0  3  0  0  0  0  0  0
  159.7770  212.1980  151.8510 C   0  0  0  0  0  0  0  0  0  0  0  0
  161.4300  205.6980  151.5340 C   0  0  0  0  0  3  0  0  0  0  0  0
  161.1670  206.9660  149.0480 C   0  0  0  0  0  3  0  0  0  0  0  0
  161.2640  202.7690  149.2720 C   0  0  0  0  0  0  0  0  0  0  0  0
  161.3630  203.5380  150.4400 C   0  0  0  0  0  3  0  0  0  0  0  0
  161.3310  204.9340  150.3710 C   0  0  0  0  0  0  0  0  0  0  0  0
  161.0990  204.8070  147.9540 C   0  0  0  0  0  3  0  0  0  0  0  0
  161.1990  205.5730  149.1180 C   0  0  0  0  0  0  0  0  0  0  0  0
  161.1320  203.4110  148.0310 C   0  0  0  0  0  3  0  0  0  0  0  0
  161.2660  207.7410  150.2150 C   0  0  0  0  0  0  0  0  0  0  0  0
  161.3980  207.0940  151.4560 C   0  0  0  0  0  3  0  0  0  0  0  0
  161.2980  201.3000  149.3520 C   0  0  0  0  0  0  0  0  0  0  0  0
  161.1350  200.7160  150.4570 O   0  0  0  0  0  1  0  0  0  0  0  0
  161.5110  200.5410  148.2070 O   0  0  0  0  0  0  0  0  0  0  0  0
  1  6  1  0  0  0  0
  1 21  1  0  0  0  0
  2 15  1  0  0  0  0
  3  9  2  0  0  0  0
  4 19  1  0  0  0  0
  5 11  1  0  0  0  0
  7  5  1  0  0  0  0
  7 13  1  0  0  0  0
  8 10  1  0  0  0  0
  8 14  2  0  0  0  0
 10  7  2  0  0  0  0
 11 30  1  0  0  0  0
 11  6  2  0  0  0  0
 12 13  1  0  0  0  0
 12  4  2  0  0  0  0
 13  1  2  0  0  0  0
 14 12  1  0  0  0  0
 15 18  2  0  0  0  0
 15 17  1  0  0  0  0
 16  3  1  0  0  0  0
 17  3  1  0  0  0  0
 18 16  1  0  0  0  0
 19 21  1  0  0  0  0
 19  2  2  0  0  0  0
 20 18  1  0  0  0  0
 21 20  2  0  0  0  0
 23 28  2  0  0  0  0
 23 30  1  0  0  0  0
 24 32  1  0  0  0  0
 24 25  2  0  0  0  0
 26 25  1  0  0  0  0
 26 22  2  0  0  0  0
 27 29  2  0  0  0  0
 27 28  1  0  0  0  0
 28 26  1  0  0  0  0
 29 24  1  0  0  0  0
 30 31  2  0  0  0  0
 31 22  1  0  0  0  0
 32 33  1  0  0  0  0
 34 32  2  0  0  0  0
M  END
>  <MODEL>
5

>  <REMARK>
 VINA RESULT:      -6.5      3.445      5.526
  Name = 
  2 active torsions:
  status: ('A' for Active; 'I' for Inactive)
    1  A    between atoms: C_7  and  C_11
    2  A    between atoms: C_18  and  C_30
                            x       y       z     vdW  Elec       q    Type
                         _______ _______ _______ _____ _____    ______ ____

>  <TORSDO>
F 2

$$$$
