=
 OpenBabel11052422033D

 30 32  0  0  1  0  0  0  0  0999 V2000
  157.9890  209.9550  155.1410 C   0  0  1  0  0  3  0  0  0  0  0  0
  156.1060  211.7620  157.1660 C   0  0  0  0  0  2  0  0  0  0  0  0
  159.9820  214.4520  156.5650 C   0  0  0  0  0  1  0  0  0  0  0  0
  159.0640  209.9340  154.0130 C   0  0  2  0  0  3  0  0  0  0  0  0
  158.5510  209.9710  156.5760 C   0  0  0  0  0  2  0  0  0  0  0  0
  160.9310  209.6090  155.7780 C   0  0  2  0  0  3  0  0  0  0  0  0
  160.5730  211.0770  152.2820 C   0  0  0  0  0  2  0  0  0  0  0  0
  160.9170  212.6760  154.5540 O   0  0  0  0  0  0  0  0  0  0  0  0
  159.9950  210.4550  156.6490 C   0  0  0  0  0  2  0  0  0  0  0  0
  160.2880  209.1070  154.4710 C   0  0  2  0  0  3  0  0  0  0  0  0
  155.4780  213.1440  157.0080 C   0  0  0  0  0  2  0  0  0  0  0  0
  161.7500  210.3290  152.8930 C   0  0  2  0  0  3  0  0  0  0  0  0
  155.7460  210.8340  156.0110 C   0  0  0  0  0  2  0  0  0  0  0  0
  158.6400  213.1080  154.8580 N   0  0  0  0  0  2  0  0  0  0  0  0
  156.2160  214.0150  155.9990 C   0  0  0  0  0  2  0  0  0  0  0  0
  156.8010  210.8980  154.9110 C   0  0  0  0  0  2  0  0  0  0  0  0
  158.2350  211.6780  152.4070 C   0  0  0  0  0  1  0  0  0  0  0  0
  159.7250  212.4030  154.2440 C   0  0  0  0  0  0  0  0  0  0  0  0
  159.4160  211.2760  153.2780 C   0  0  1  0  0  0  0  0  0  0  0  0
  162.9510  210.3340  151.9650 C   0  0  0  0  0  1  0  0  0  0  0  0
  158.6900  214.0080  155.9730 C   0  0  0  0  0  0  0  0  0  0  0  0
  157.5550  214.4400  156.5180 C   0  0  0  0  0  3  0  0  0  0  0  0
  161.3330  208.9250  153.3590 C   0  0  2  0  0  3  0  0  0  0  0  0
  160.8300  206.6990  152.6670 C   0  0  0  0  0  1  0  0  0  0  0  0
  161.6350  208.1900  151.2080 O   0  0  0  0  0  1  0  0  0  0  0  0
  160.7920  208.0990  152.2630 N   0  0  0  0  0  0  0  0  0  0  0  0
  161.5340  208.4540  156.5700 C   0  0  0  0  0  2  0  0  0  0  0  0
  161.0930  207.2250  156.0720 O   0  0  0  0  0  0  0  0  0  0  0  0
  160.1270  206.8320  156.9340 N   0  0  0  0  0  2  0  0  0  0  0  0
  158.9370  206.5780  156.1420 C   0  0  0  0  0  1  0  0  0  0  0  0
  1 16  1  6  0  0  0
  1  5  1  0  0  0  0
  4 10  1  0  0  0  0
  4  1  1  0  0  0  0
  5  9  1  0  0  0  0
  6 27  1  0  0  0  0
  6  9  1  0  0  0  0
  7 12  1  0  0  0  0
  7 19  1  0  0  0  0
 10  6  1  0  0  0  0
 11  2  1  0  0  0  0
 12 23  1  0  0  0  0
 13  2  1  0  0  0  0
 14 21  1  0  0  0  0
 15 22  1  0  0  0  0
 15 11  1  0  0  0  0
 16 13  1  0  0  0  0
 17 19  1  0  0  0  0
 18  8  2  0  0  0  0
 18 14  1  0  0  0  0
 19  4  1  0  0  0  0
 19 18  1  0  0  0  0
 20 12  1  0  0  0  0
 21 22  2  0  0  0  0
 21  3  1  0  0  0  0
 23 10  1  0  0  0  0
 25 26  1  0  0  0  0
 26 24  1  0  0  0  0
 26 23  1  0  0  0  0
 28 27  1  0  0  0  0
 28 29  1  0  0  0  0
 30 29  1  0  0  0  0
M  END
>  <MODEL>
1

>  <REMARK>
 VINA RESULT:      -0.7      0.000      0.000
  Name = 
  4 active torsions:
  status: ('A' for Active; 'I' for Inactive)
    1  A    between atoms: C_6  and  C_8
    2  A    between atoms: C_6  and  O_21
    3  A    between atoms: N_9  and  O_21
    4  A    between atoms: N_27  and  C_30
                            x       y       z     vdW  Elec       q    Type
                         _______ _______ _______ _____ _____    ______ ____

>  <TORSDO>
F 4

$$$$
=
 OpenBabel11052422033D

 30 32  0  0  1  0  0  0  0  0999 V2000
  159.1940  209.1370  153.8880 C   0  0  1  0  0  3  0  0  0  0  0  0
  158.6770  210.6420  156.7830 C   0  0  0  0  0  2  0  0  0  0  0  0
  163.4060  210.7780  156.2930 C   0  0  0  0  0  1  0  0  0  0  0  0
  160.0780  209.0090  152.6110 C   0  0  2  0  0  3  0  0  0  0  0  0
  159.6290  208.2530  155.0730 C   0  0  0  0  0  2  0  0  0  0  0  0
  161.3660  207.0360  153.6840 C   0  0  2  0  0  3  0  0  0  0  0  0
  162.0070  209.7510  151.0910 C   0  0  0  0  0  2  0  0  0  0  0  0
  163.1710  209.8010  153.6360 O   0  0  0  0  0  0  0  0  0  0  0  0
  161.0830  207.8010  154.9810 C   0  0  0  0  0  2  0  0  0  0  0  0
  160.5790  207.5530  152.4650 C   0  0  2  0  0  3  0  0  0  0  0  0
  158.9770  212.0600  157.2600 C   0  0  0  0  0  2  0  0  0  0  0  0
  162.5130  208.3150  151.1230 C   0  0  2  0  0  3  0  0  0  0  0  0
  157.8680  210.6320  155.4910 C   0  0  0  0  0  2  0  0  0  0  0  0
  161.5680  211.2190  154.5770 N   0  0  0  0  0  2  0  0  0  0  0  0
  160.1050  212.7200  156.4760 C   0  0  0  0  0  2  0  0  0  0  0  0
  158.7840  210.5650  154.2730 C   0  0  0  0  0  2  0  0  0  0  0  0
  160.4560  211.4000  151.9400 C   0  0  0  0  0  1  0  0  0  0  0  0
  162.0500  210.3700  153.5280 C   0  0  0  0  0  0  0  0  0  0  0  0
  161.1620  210.1080  152.3280 C   0  0  1  0  0  0  0  0  0  0  0  0
  163.5100  208.0550  150.0080 C   0  0  0  0  0  1  0  0  0  0  0  0
  162.1100  211.3920  155.8920 C   0  0  0  0  0  0  0  0  0  0  0  0
  161.4290  212.0950  156.7940 C   0  0  0  0  0  3  0  0  0  0  0  0
  161.3450  207.3160  151.1540 C   0  0  2  0  0  3  0  0  0  0  0  0
  160.0850  206.1240  149.5180 C   0  0  0  0  0  1  0  0  0  0  0  0
  161.1470  208.0150  148.9790 O   0  0  0  0  0  1  0  0  0  0  0  0
  160.4470  207.4530  149.9920 N   0  0  0  0  0  0  0  0  0  0  0  0
  161.1660  205.5350  153.8690 C   0  0  0  0  0  2  0  0  0  0  0  0
  161.5910  204.8340  152.7370 O   0  0  0  0  0  0  0  0  0  0  0  0
  160.7950  203.7410  152.6920 N   0  0  0  0  0  2  0  0  0  0  0  0
  160.9550  203.1600  151.3710 C   0  0  0  0  0  1  0  0  0  0  0  0
  1 16  1  1  0  0  0
  1  5  1  0  0  0  0
  2 11  1  0  0  0  0
  4  1  1  0  0  0  0
  6 27  1  0  0  0  0
  6  9  1  0  0  0  0
  7 12  1  0  0  0  0
  7 19  1  0  0  0  0
  9  5  1  0  0  0  0
 10  4  1  0  0  0  0
 10  6  1  0  0  0  0
 12 23  1  0  0  0  0
 13  2  1  0  0  0  0
 14 21  1  0  0  0  0
 15 22  1  0  0  0  0
 15 11  1  0  0  0  0
 16 13  1  0  0  0  0
 17 19  1  0  0  0  0
 18  8  2  0  0  0  0
 18 14  1  0  0  0  0
 19  4  1  0  0  0  0
 19 18  1  0  0  0  0
 20 12  1  0  0  0  0
 21  3  1  0  0  0  0
 21 22  2  0  0  0  0
 23 10  1  0  0  0  0
 24 26  1  0  0  0  0
 25 26  1  0  0  0  0
 26 23  1  0  0  0  0
 28 27  1  0  0  0  0
 29 28  1  0  0  0  0
 30 29  1  0  0  0  0
M  END
>  <MODEL>
2

>  <REMARK>
 VINA RESULT:       0.9      2.378      3.430
  Name = 
  4 active torsions:
  status: ('A' for Active; 'I' for Inactive)
    1  A    between atoms: C_6  and  C_8
    2  A    between atoms: C_6  and  O_21
    3  A    between atoms: N_9  and  O_21
    4  A    between atoms: N_27  and  C_30
                            x       y       z     vdW  Elec       q    Type
                         _______ _______ _______ _____ _____    ______ ____

>  <TORSDO>
F 4

$$$$
