=
 OpenBabel11062409283D

 34 40  0  0  0  0  0  0  0  0999 V2000
  161.6690  207.9780  149.6230 C   0  0  0  0  0  0  0  0  0  0  0  0
  161.1560  204.2480  149.2740 C   0  0  0  0  0  3  0  0  0  0  0  0
  161.0010  205.6790  151.1330 C   0  0  0  0  0  3  0  0  0  0  0  0
  162.0290  210.5200  149.8970 C   0  0  0  0  0  0  0  0  0  0  0  0
  162.0080  209.3050  148.9550 C   0  0  0  0  0  3  0  0  0  0  0  0
  161.4080  209.0890  151.7590 C   0  0  0  0  0  0  0  0  0  0  0  0
  161.0780  208.6450  153.0340 C   0  0  0  0  0  2  0  0  0  0  0  0
  161.7320  210.4080  151.2160 C   0  0  0  0  0  3  0  0  0  0  0  0
  161.0790  206.9370  151.7130 C   0  0  0  0  0  0  0  0  0  0  0  0
  161.3980  208.0070  150.9680 C   0  0  0  0  0  0  0  0  0  0  0  0
  160.8720  207.2940  152.9980 N   0  0  0  0  0  0  0  0  0  0  0  0
  161.3440  203.7170  148.0070 C   0  0  0  0  0  3  0  0  0  0  0  0
  161.7110  204.3420  146.8230 C   0  0  0  0  0  0  0  0  0  0  0  0
  161.9220  205.7060  146.6640 C   0  0  0  0  0  3  0  0  0  0  0  0
  161.2670  205.5510  149.7460 C   0  0  0  0  0  0  0  0  0  0  0  0
  161.8800  206.7280  147.6000 C   0  0  0  0  0  3  0  0  0  0  0  0
  161.6070  206.7170  148.9670 C   0  0  0  0  0  0  0  0  0  0  0  0
  161.7870  203.4870  145.5890 C   0  0  0  0  0  3  0  0  0  0  0  0
  160.4690  203.5160  144.8300 C   0  0  0  0  0  2  0  0  0  0  0  0
  160.8180  202.3180  145.6800 C   0  0  0  0  0  2  0  0  0  0  0  0
  162.3360  211.7620  149.3150 O   0  0  0  0  0  0  0  0  0  0  0  0
  159.9760  212.9340  146.7210 C   0  0  0  0  0  3  0  0  0  0  0  0
  162.7320  212.5710  147.0190 C   0  0  0  0  0  3  0  0  0  0  0  0
  161.0850  213.2720  143.2340 N   0  0  0  0  0  0  0  0  0  0  0  0
  160.4400  213.1070  141.9610 C   0  0  0  0  0  0  0  0  0  0  0  0
  160.3080  213.7750  144.3770 C   0  0  0  0  0  2  0  0  0  0  0  0
  161.1040  212.7310  140.9570 O   0  0  0  0  0  0  0  0  0  0  0  0
  160.8370  213.2280  145.6630 C   0  0  0  0  0  0  0  0  0  0  0  0
  158.9830  213.3770  141.7940 C   0  0  0  0  0  1  0  0  0  0  0  0
  163.1260  213.4140  144.6850 C   0  0  0  0  0  2  0  0  0  0  0  0
  162.2160  213.0470  145.8120 C   0  0  0  0  0  0  0  0  0  0  0  0
  162.5260  212.9840  143.3420 C   0  0  0  0  0  2  0  0  0  0  0  0
  161.8720  212.2680  148.0890 C   0  0  0  0  0  0  0  0  0  0  0  0
  160.4930  212.4510  147.9270 C   0  0  0  0  0  3  0  0  0  0  0  0
  1 10  1  0  0  0  0
  2 15  1  0  0  0  0
  3  9  1  0  0  0  0
  4  8  2  0  0  0  0
  5  1  2  0  0  0  0
  5  4  1  0  0  0  0
  6  7  1  0  0  0  0
  8  6  1  0  0  0  0
  9 11  2  0  0  0  0
 10  9  1  0  0  0  0
 10  6  2  0  0  0  0
 11  7  1  0  0  0  0
 12  2  2  0  0  0  0
 13 12  1  0  0  0  0
 14 13  2  0  0  0  0
 14 16  1  0  0  0  0
 15  3  2  0  0  0  0
 16 17  2  0  0  0  0
 17  1  1  0  0  0  0
 17 15  1  0  0  0  0
 18 20  1  0  0  0  0
 18 13  1  0  0  0  0
 19 18  1  0  0  0  0
 19 20  1  0  0  0  0
 21  4  1  0  0  0  0
 22 34  1  0  0  0  0
 23 33  1  0  0  0  0
 24 32  1  0  0  0  0
 24 26  1  0  0  0  0
 25 24  1  0  0  0  0
 26 28  1  0  0  0  0
 27 25  2  0  0  0  0
 28 31  1  0  0  0  0
 28 22  2  0  0  0  0
 29 25  1  0  0  0  0
 30 31  1  0  0  0  0
 31 23  2  0  0  0  0
 32 30  1  0  0  0  0
 33 21  1  0  0  0  0
 34 33  2  0  0  0  0
M  END
>  <MODEL>
1

>  <REMARK>
 VINA RESULT:     -11.3      0.000      0.000
  Name = 
  3 active torsions:
  status: ('A' for Active; 'I' for Inactive)
    1  A    between atoms: C_3  and  C_25
    2  A    between atoms: C_8  and  O_18
    3  A    between atoms: O_18  and  C_30
                            x       y       z     vdW  Elec       q    Type
                         _______ _______ _______ _____ _____    ______ ____

>  <TORSDO>
F 3

$$$$
=
 OpenBabel11062409283D

 34 40  0  0  0  0  0  0  0  0999 V2000
  160.8460  208.3820  152.4060 C   0  0  0  0  0  0  0  0  0  0  0  0
  161.3220  204.8000  151.2910 C   0  0  0  0  0  3  0  0  0  0  0  0
  161.1800  205.7640  153.4300 C   0  0  0  0  0  3  0  0  0  0  0  0
  160.5400  210.8200  153.1990 C   0  0  0  0  0  0  0  0  0  0  0  0
  160.6530  209.8420  152.0180 C   0  0  0  0  0  3  0  0  0  0  0  0
  160.7530  208.9660  154.7550 C   0  0  0  0  0  0  0  0  0  0  0  0
  160.8400  208.2260  155.9280 C   0  0  0  0  0  2  0  0  0  0  0  0
  160.5760  210.3930  154.4860 C   0  0  0  0  0  3  0  0  0  0  0  0
  161.0300  206.8620  154.2650 C   0  0  0  0  0  0  0  0  0  0  0  0
  160.8730  208.0900  153.7470 C   0  0  0  0  0  0  0  0  0  0  0  0
  161.0140  206.9070  155.6140 N   0  0  0  0  0  0  0  0  0  0  0  0
  161.3730  204.5830  149.9220 C   0  0  0  0  0  3  0  0  0  0  0  0
  161.2900  205.4870  148.8720 C   0  0  0  0  0  0  0  0  0  0  0  0
  161.0770  206.8540  149.0010 C   0  0  0  0  0  3  0  0  0  0  0  0
  161.1670  205.9690  152.0270 C   0  0  0  0  0  0  0  0  0  0  0  0
  160.9550  207.6330  150.1420 C   0  0  0  0  0  3  0  0  0  0  0  0
  160.9960  207.2990  151.4950 C   0  0  0  0  0  0  0  0  0  0  0  0
  161.3330  204.9270  147.4780 C   0  0  0  0  0  3  0  0  0  0  0  0
  162.6460  205.2810  146.7940 C   0  0  0  0  0  2  0  0  0  0  0  0
  161.3900  206.0450  146.4470 C   0  0  0  0  0  2  0  0  0  0  0  0
  160.3590  212.1760  152.8790 O   0  0  0  0  0  0  0  0  0  0  0  0
  157.8200  213.4240  150.4970 C   0  0  0  0  0  3  0  0  0  0  0  0
  160.5860  213.0170  150.5710 C   0  0  0  0  0  3  0  0  0  0  0  0
  158.6560  213.8020  146.9390 N   0  0  0  0  0  0  0  0  0  0  0  0
  157.9100  213.6670  145.7190 C   0  0  0  0  0  0  0  0  0  0  0  0
  157.9790  214.2980  148.1470 C   0  0  0  0  0  2  0  0  0  0  0  0
  158.4870  213.2980  144.6600 O   0  0  0  0  0  0  0  0  0  0  0  0
  158.6000  213.7220  149.3790 C   0  0  0  0  0  0  0  0  0  0  0  0
  156.4480  213.9610  145.6710 C   0  0  0  0  0  1  0  0  0  0  0  0
  160.8070  213.8910  148.2260 C   0  0  0  0  0  2  0  0  0  0  0  0
  159.9830  213.5190  149.4160 C   0  0  0  0  0  0  0  0  0  0  0  0
  160.0960  213.4920  146.9290 C   0  0  0  0  0  2  0  0  0  0  0  0
  159.8080  212.7090  151.7010 C   0  0  0  0  0  0  0  0  0  0  0  0
  158.4240  212.9140  151.6510 C   0  0  0  0  0  3  0  0  0  0  0  0
  1 10  1  0  0  0  0
  2 15  1  0  0  0  0
  3  9  1  0  0  0  0
  4  8  2  0  0  0  0
  5  1  2  0  0  0  0
  5  4  1  0  0  0  0
  6  7  1  0  0  0  0
  8  6  1  0  0  0  0
  9 11  2  0  0  0  0
 10  9  1  0  0  0  0
 10  6  2  0  0  0  0
 11  7  1  0  0  0  0
 12  2  2  0  0  0  0
 13 14  2  0  0  0  0
 13 12  1  0  0  0  0
 14 16  1  0  0  0  0
 15  3  2  0  0  0  0
 16 17  2  0  0  0  0
 17 15  1  0  0  0  0
 17  1  1  0  0  0  0
 18 13  1  0  0  0  0
 19 18  1  0  0  0  0
 20 19  1  0  0  0  0
 20 18  1  0  0  0  0
 21  4  1  0  0  0  0
 22 34  1  0  0  0  0
 23 33  1  0  0  0  0
 24 26  1  0  0  0  0
 25 24  1  0  0  0  0
 26 28  1  0  0  0  0
 27 25  2  0  0  0  0
 28 31  1  0  0  0  0
 28 22  2  0  0  0  0
 29 25  1  0  0  0  0
 30 31  1  0  0  0  0
 31 23  2  0  0  0  0
 32 24  1  0  0  0  0
 32 30  1  0  0  0  0
 33 21  1  0  0  0  0
 34 33  2  0  0  0  0
M  END
>  <MODEL>
2

>  <REMARK>
 VINA RESULT:     -10.2      2.512      3.565
  Name = 
  3 active torsions:
  status: ('A' for Active; 'I' for Inactive)
    1  A    between atoms: C_3  and  C_25
    2  A    between atoms: C_8  and  O_18
    3  A    between atoms: O_18  and  C_30
                            x       y       z     vdW  Elec       q    Type
                         _______ _______ _______ _____ _____    ______ ____

>  <TORSDO>
F 3

$$$$
=
 OpenBabel11062409283D

 34 40  0  0  0  0  0  0  0  0999 V2000
  161.2830  206.8780  150.7150 C   0  0  0  0  0  0  0  0  0  0  0  0
  161.4310  203.5490  148.9280 C   0  0  0  0  0  3  0  0  0  0  0  0
  161.2830  204.0910  151.2110 C   0  0  0  0  0  3  0  0  0  0  0  0
  161.1970  209.1360  151.9650 C   0  0  0  0  0  0  0  0  0  0  0  0
  161.2670  208.3990  150.6170 C   0  0  0  0  0  3  0  0  0  0  0  0
  161.1310  207.0050  153.1290 C   0  0  0  0  0  0  0  0  0  0  0  0
  161.0780  206.0470  154.1350 C   0  0  0  0  0  2  0  0  0  0  0  0
  161.1210  208.4670  153.1420 C   0  0  0  0  0  3  0  0  0  0  0  0
  161.2070  205.0180  152.2420 C   0  0  0  0  0  0  0  0  0  0  0  0
  161.2090  206.3320  151.9710 C   0  0  0  0  0  0  0  0  0  0  0  0
  161.1270  204.8020  153.5720 N   0  0  0  0  0  0  0  0  0  0  0  0
  161.5290  203.5960  147.5460 C   0  0  0  0  0  3  0  0  0  0  0  0
  161.5970  204.6890  146.6930 C   0  0  0  0  0  0  0  0  0  0  0  0
  161.5240  206.0200  147.0830 C   0  0  0  0  0  3  0  0  0  0  0  0
  161.3640  204.5630  149.8760 C   0  0  0  0  0  0  0  0  0  0  0  0
  161.4280  206.5730  148.3510 C   0  0  0  0  0  3  0  0  0  0  0  0
  161.3630  205.9820  149.6130 C   0  0  0  0  0  0  0  0  0  0  0  0
  161.6520  204.4080  145.2180 C   0  0  0  0  0  3  0  0  0  0  0  0
  160.4910  205.0770  144.4970 C   0  0  0  0  0  2  0  0  0  0  0  0
  160.4460  203.5930  144.7770 C   0  0  0  0  0  2  0  0  0  0  0  0
  161.1790  210.5400  151.9130 O   0  0  0  0  0  0  0  0  0  0  0  0
  159.7020  212.2930  154.8160 C   0  0  0  0  0  3  0  0  0  0  0  0
  159.3670  212.2090  152.0410 C   0  0  0  0  0  3  0  0  0  0  0  0
  156.5100  214.0770  154.4660 N   0  0  0  0  0  0  0  0  0  0  0  0
  155.4040  214.3270  155.3480 C   0  0  0  0  0  0  0  0  0  0  0  0
  157.8700  214.0000  155.0180 C   0  0  0  0  0  2  0  0  0  0  0  0
  154.2380  214.4530  154.8840 O   0  0  0  0  0  0  0  0  0  0  0  0
  158.7230  213.0780  154.2070 C   0  0  0  0  0  0  0  0  0  0  0  0
  155.6040  214.4470  156.8210 C   0  0  0  0  0  1  0  0  0  0  0  0
  157.5340  213.9210  152.1810 C   0  0  0  0  0  2  0  0  0  0  0  0
  158.5550  213.0370  152.8190 C   0  0  0  0  0  0  0  0  0  0  0  0
  156.2520  213.9620  153.0200 C   0  0  0  0  0  2  0  0  0  0  0  0
  160.3540  211.4100  152.6460 C   0  0  0  0  0  0  0  0  0  0  0  0
  160.5100  211.4580  154.0370 C   0  0  0  0  0  3  0  0  0  0  0  0
  1 10  1  0  0  0  0
  2 15  1  0  0  0  0
  3  9  1  0  0  0  0
  4  8  2  0  0  0  0
  5  1  2  0  0  0  0
  5  4  1  0  0  0  0
  6  8  1  0  0  0  0
  6  7  1  0  0  0  0
  9 11  2  0  0  0  0
 10  9  1  0  0  0  0
 10  6  2  0  0  0  0
 11  7  1  0  0  0  0
 12  2  2  0  0  0  0
 13 14  2  0  0  0  0
 13 12  1  0  0  0  0
 14 16  1  0  0  0  0
 15  3  2  0  0  0  0
 16 17  2  0  0  0  0
 17 15  1  0  0  0  0
 17  1  1  0  0  0  0
 18 13  1  0  0  0  0
 19 20  1  0  0  0  0
 19 18  1  0  0  0  0
 20 18  1  0  0  0  0
 21  4  1  0  0  0  0
 21 33  1  0  0  0  0
 23 33  2  0  0  0  0
 23 31  1  0  0  0  0
 24 26  1  0  0  0  0
 24 25  1  0  0  0  0
 25 29  1  0  0  0  0
 27 25  2  0  0  0  0
 28 22  1  0  0  0  0
 28 26  1  0  0  0  0
 30 31  1  0  0  0  0
 30 32  1  0  0  0  0
 31 28  2  0  0  0  0
 32 24  1  0  0  0  0
 33 34  1  0  0  0  0
 34 22  2  0  0  0  0
M  END
>  <MODEL>
3

>  <REMARK>
 VINA RESULT:     -10.2      4.970      6.762
  Name = 
  3 active torsions:
  status: ('A' for Active; 'I' for Inactive)
    1  A    between atoms: C_3  and  C_25
    2  A    between atoms: C_8  and  O_18
    3  A    between atoms: O_18  and  C_30
                            x       y       z     vdW  Elec       q    Type
                         _______ _______ _______ _____ _____    ______ ____

>  <TORSDO>
F 3

$$$$
=
 OpenBabel11062409283D

 34 40  0  0  0  0  0  0  0  0999 V2000
  161.4040  207.3270  150.7330 C   0  0  0  0  0  0  0  0  0  0  0  0
  161.4940  204.9300  147.8090 C   0  0  0  0  0  3  0  0  0  0  0  0
  161.9690  207.2280  147.9610 C   0  0  0  0  0  3  0  0  0  0  0  0
  161.3360  208.9920  152.7060 C   0  0  0  0  0  0  0  0  0  0  0  0
  161.1440  207.5460  152.2180 C   0  0  0  0  0  2  0  0  0  0  0  0
  161.9770  209.6650  150.4610 C   0  0  0  0  0  0  0  0  0  0  0  0
  162.3770  210.4310  149.3720 C   0  0  0  0  0  3  0  0  0  0  0  0
  161.7410  209.9800  151.8700 C   0  0  0  0  0  3  0  0  0  0  0  0
  162.0760  208.4060  148.6870 C   0  0  0  0  0  0  0  0  0  0  0  0
  161.8020  208.4170  150.0010 C   0  0  0  0  0  0  0  0  0  0  0  0
  162.4370  209.6350  148.2620 N   0  0  0  0  0  0  0  0  0  0  0  0
  161.1350  203.6180  148.0780 C   0  0  0  0  0  3  0  0  0  0  0  0
  160.7260  203.0310  149.2680 C   0  0  0  0  0  0  0  0  0  0  0  0
  160.6430  203.6740  150.4960 C   0  0  0  0  0  3  0  0  0  0  0  0
  161.5640  206.0470  148.6340 C   0  0  0  0  0  0  0  0  0  0  0  0
  160.8780  205.0000  150.8250 C   0  0  0  0  0  3  0  0  0  0  0  0
  161.2740  206.0880  150.0470 C   0  0  0  0  0  0  0  0  0  0  0  0
  160.4470  201.5550  149.2450 C   0  0  0  0  0  3  0  0  0  0  0  0
  161.7030  200.7730  148.8880 C   0  0  0  0  0  2  0  0  0  0  0  0
  160.6330  200.9900  147.8440 C   0  0  0  0  0  2  0  0  0  0  0  0
  161.1060  209.2310  154.0710 O   0  0  0  0  0  0  0  0  0  0  0  0
  158.8070  210.7810  156.5190 C   0  0  0  0  0  3  0  0  0  0  0  0
  159.7970  211.3180  153.9590 C   0  0  0  0  0  3  0  0  0  0  0  0
  156.5510  213.4860  155.4750 N   0  0  0  0  0  0  0  0  0  0  0  0
  155.2320  213.8940  155.8700 C   0  0  0  0  0  0  0  0  0  0  0  0
  157.4540  212.8970  156.4750 C   0  0  0  0  0  2  0  0  0  0  0  0
  154.4650  214.4530  155.0400 O   0  0  0  0  0  0  0  0  0  0  0  0
  158.3940  211.9260  155.8370 C   0  0  0  0  0  0  0  0  0  0  0  0
  154.7390  213.6720  157.2610 C   0  0  0  0  0  1  0  0  0  0  0  0
  158.4730  213.4510  153.8630 C   0  0  0  0  0  2  0  0  0  0  0  0
  158.8890  212.1960  154.5570 C   0  0  0  0  0  0  0  0  0  0  0  0
  156.9810  213.7250  154.0860 C   0  0  0  0  0  2  0  0  0  0  0  0
  160.2160  210.1600  154.6360 C   0  0  0  0  0  0  0  0  0  0  0  0
  159.7110  209.9000  155.9170 C   0  0  0  0  0  3  0  0  0  0  0  0
  1  5  1  0  0  0  0
  2 12  2  0  0  0  0
  2 15  1  0  0  0  0
  3 15  2  0  0  0  0
  3  9  1  0  0  0  0
  4 21  1  0  0  0  0
  5  4  1  0  0  0  0
  6  8  1  0  0  0  0
  7  6  2  0  0  0  0
  8  4  2  0  0  0  0
  9 10  1  0  0  0  0
 10  6  1  0  0  0  0
 10  1  2  0  0  0  0
 11  9  2  0  0  0  0
 11  7  1  0  0  0  0
 12 13  1  0  0  0  0
 13 14  2  0  0  0  0
 14 16  1  0  0  0  0
 15 17  1  0  0  0  0
 17  1  1  0  0  0  0
 17 16  2  0  0  0  0
 18 13  1  0  0  0  0
 19 18  1  0  0  0  0
 20 19  1  0  0  0  0
 20 18  1  0  0  0  0
 21 33  1  0  0  0  0
 23 31  2  0  0  0  0
 23 33  1  0  0  0  0
 24 25  1  0  0  0  0
 24 26  1  0  0  0  0
 25 29  1  0  0  0  0
 27 25  2  0  0  0  0
 28 26  1  0  0  0  0
 28 22  2  0  0  0  0
 30 32  1  0  0  0  0
 30 31  1  0  0  0  0
 31 28  1  0  0  0  0
 32 24  1  0  0  0  0
 33 34  2  0  0  0  0
 34 22  1  0  0  0  0
M  END
>  <MODEL>
4

>  <REMARK>
 VINA RESULT:     -10.2      4.430      7.707
  Name = 
  3 active torsions:
  status: ('A' for Active; 'I' for Inactive)
    1  A    between atoms: C_3  and  C_25
    2  A    between atoms: C_8  and  O_18
    3  A    between atoms: O_18  and  C_30
                            x       y       z     vdW  Elec       q    Type
                         _______ _______ _______ _____ _____    ______ ____

>  <TORSDO>
F 3

$$$$
=
 OpenBabel11062409283D

 34 40  0  0  0  0  0  0  0  0999 V2000
  161.5900  206.8630  150.2910 C   0  0  0  0  0  0  0  0  0  0  0  0
  160.9360  203.2460  149.4000 C   0  0  0  0  0  3  0  0  0  0  0  0
  160.8480  204.3900  151.4520 C   0  0  0  0  0  3  0  0  0  0  0  0
  162.0460  209.3210  150.9340 C   0  0  0  0  0  0  0  0  0  0  0  0
  161.9730  208.2610  149.8230 C   0  0  0  0  0  3  0  0  0  0  0  0
  161.3850  207.6530  152.5710 C   0  0  0  0  0  0  0  0  0  0  0  0
  161.0480  207.0360  153.7700 C   0  0  0  0  0  2  0  0  0  0  0  0
  161.7550  209.0250  152.2250 C   0  0  0  0  0  3  0  0  0  0  0  0
  160.9760  205.5450  152.2110 C   0  0  0  0  0  0  0  0  0  0  0  0
  161.3290  206.7010  151.6290 C   0  0  0  0  0  0  0  0  0  0  0  0
  160.7920  205.7130  153.5380 N   0  0  0  0  0  0  0  0  0  0  0  0
  161.0950  202.9030  148.0660 C   0  0  0  0  0  3  0  0  0  0  0  0
  161.4770  203.6830  146.9830 C   0  0  0  0  0  0  0  0  0  0  0  0
  161.7380  205.0470  147.0260 C   0  0  0  0  0  3  0  0  0  0  0  0
  161.0990  204.4600  150.0580 C   0  0  0  0  0  0  0  0  0  0  0  0
  161.7400  205.9200  148.1030 C   0  0  0  0  0  3  0  0  0  0  0  0
  161.4770  205.7160  149.4570 C   0  0  0  0  0  0  0  0  0  0  0  0
  161.5130  203.0190  145.6360 C   0  0  0  0  0  3  0  0  0  0  0  0
  160.1980  203.2240  144.8980 C   0  0  0  0  0  2  0  0  0  0  0  0
  160.4880  201.8970  145.5580 C   0  0  0  0  0  2  0  0  0  0  0  0
  162.3950  210.6240  150.5390 O   0  0  0  0  0  0  0  0  0  0  0  0
  159.7800  212.8600  149.1830 C   0  0  0  0  0  3  0  0  0  0  0  0
  162.1720  211.6920  148.3270 C   0  0  0  0  0  3  0  0  0  0  0  0
  159.5900  213.4990  145.5700 N   0  0  0  0  0  0  0  0  0  0  0  0
  158.5110  213.7540  144.6570 C   0  0  0  0  0  0  0  0  0  0  0  0
  159.4930  213.9840  146.9550 C   0  0  0  0  0  2  0  0  0  0  0  0
  158.6010  213.3960  143.4520 O   0  0  0  0  0  0  0  0  0  0  0  0
  160.2430  213.0870  147.8860 C   0  0  0  0  0  0  0  0  0  0  0  0
  157.2680  214.4470  145.1060 C   0  0  0  0  0  1  0  0  0  0  0  0
  161.9430  212.7980  146.0830 C   0  0  0  0  0  2  0  0  0  0  0  0
  161.4390  212.5030  147.4580 C   0  0  0  0  0  0  0  0  0  0  0  0
  160.7900  212.8040  145.0730 C   0  0  0  0  0  2  0  0  0  0  0  0
  161.7120  211.4530  149.6340 C   0  0  0  0  0  0  0  0  0  0  0  0
  160.5110  212.0410  150.0500 C   0  0  0  0  0  3  0  0  0  0  0  0
  1 10  1  0  0  0  0
  2 15  1  0  0  0  0
  3  9  1  0  0  0  0
  4  8  2  0  0  0  0
  5  1  2  0  0  0  0
  5  4  1  0  0  0  0
  6  7  1  0  0  0  0
  8  6  1  0  0  0  0
  9 11  2  0  0  0  0
 10  9  1  0  0  0  0
 10  6  2  0  0  0  0
 11  7  1  0  0  0  0
 12  2  2  0  0  0  0
 13 14  2  0  0  0  0
 13 12  1  0  0  0  0
 14 16  1  0  0  0  0
 15  3  2  0  0  0  0
 16 17  2  0  0  0  0
 17 15  1  0  0  0  0
 17  1  1  0  0  0  0
 18 13  1  0  0  0  0
 19 20  1  0  0  0  0
 19 18  1  0  0  0  0
 20 18  1  0  0  0  0
 21  4  1  0  0  0  0
 22 34  1  0  0  0  0
 23 33  1  0  0  0  0
 24 26  1  0  0  0  0
 25 29  1  0  0  0  0
 25 24  1  0  0  0  0
 26 28  1  0  0  0  0
 27 25  2  0  0  0  0
 28 22  2  0  0  0  0
 30 31  1  0  0  0  0
 31 28  1  0  0  0  0
 31 23  2  0  0  0  0
 32 24  1  0  0  0  0
 32 30  1  0  0  0  0
 33 34  2  0  0  0  0
 33 21  1  0  0  0  0
M  END
>  <MODEL>
5

>  <REMARK>
 VINA RESULT:     -10.0      1.490      1.907
  Name = 
  3 active torsions:
  status: ('A' for Active; 'I' for Inactive)
    1  A    between atoms: C_3  and  C_25
    2  A    between atoms: C_8  and  O_18
    3  A    between atoms: O_18  and  C_30
                            x       y       z     vdW  Elec       q    Type
                         _______ _______ _______ _____ _____    ______ ____

>  <TORSDO>
F 3

$$$$
=
 OpenBabel11062409283D

 34 40  0  0  0  0  0  0  0  0999 V2000
  159.6870  210.6050  153.7830 C   0  0  0  0  0  0  0  0  0  0  0  0
  157.3500  213.5750  153.6680 C   0  0  0  0  0  3  0  0  0  0  0  0
  158.1760  212.3060  155.4660 C   0  0  0  0  0  3  0  0  0  0  0  0
  161.2670  208.5650  153.8920 C   0  0  0  0  0  0  0  0  0  0  0  0
  160.5540  209.6110  153.0190 C   0  0  0  0  0  3  0  0  0  0  0  0
  160.3010  209.5670  155.8830 C   0  0  0  0  0  0  0  0  0  0  0  0
  159.9690  209.8230  157.2090 C   0  0  0  0  0  2  0  0  0  0  0  0
  161.1490  208.5620  155.2440 C   0  0  0  0  0  3  0  0  0  0  0  0
  158.9470  211.2700  155.9750 C   0  0  0  0  0  0  0  0  0  0  0  0
  159.6520  210.4820  155.1490 C   0  0  0  0  0  0  0  0  0  0  0  0
  159.1190  210.8920  157.2600 N   0  0  0  0  0  0  0  0  0  0  0  0
  157.0580  214.0800  152.4110 C   0  0  0  0  0  3  0  0  0  0  0  0
  157.4810  213.6570  151.1580 C   0  0  0  0  0  0  0  0  0  0  0  0
  158.3710  212.6170  150.9190 C   0  0  0  0  0  3  0  0  0  0  0  0
  158.1500  212.5090  154.0630 C   0  0  0  0  0  0  0  0  0  0  0  0
  158.9850  211.7470  151.8070 C   0  0  0  0  0  3  0  0  0  0  0  0
  158.9180  211.6480  153.1970 C   0  0  0  0  0  0  0  0  0  0  0  0
  157.0200  214.4530  149.9710 C   0  0  0  0  0  3  0  0  0  0  0  0
  155.6070  214.0550  149.5700 C   0  0  0  0  0  2  0  0  0  0  0  0
  156.7840  213.5480  148.7710 C   0  0  0  0  0  2  0  0  0  0  0  0
  162.0770  207.6330  153.2220 O   0  0  0  0  0  0  0  0  0  0  0  0
  161.1560  204.2300  152.1040 C   0  0  0  0  0  3  0  0  0  0  0  0
  161.3780  206.7940  151.0110 C   0  0  0  0  0  3  0  0  0  0  0  0
  160.9600  203.4560  148.5180 N   0  0  0  0  0  0  0  0  0  0  0  0
  161.2230  202.2810  147.7350 C   0  0  0  0  0  0  0  0  0  0  0  0
  160.4300  203.3100  149.8820 C   0  0  0  0  0  2  0  0  0  0  0  0
  161.6240  202.3890  146.5440 O   0  0  0  0  0  0  0  0  0  0  0  0
  160.8820  204.4390  150.7520 C   0  0  0  0  0  0  0  0  0  0  0  0
  161.0290  200.9150  148.3030 C   0  0  0  0  0  1  0  0  0  0  0  0
  160.6480  205.9320  148.7670 C   0  0  0  0  0  2  0  0  0  0  0  0
  160.9920  205.7210  150.2040 C   0  0  0  0  0  0  0  0  0  0  0  0
  161.1770  204.7790  147.9070 C   0  0  0  0  0  2  0  0  0  0  0  0
  161.6600  206.5940  152.3730 C   0  0  0  0  0  0  0  0  0  0  0  0
  161.5480  205.3050  152.9090 C   0  0  0  0  0  3  0  0  0  0  0  0
  1 10  1  0  0  0  0
  2 15  1  0  0  0  0
  3  9  1  0  0  0  0
  4  8  2  0  0  0  0
  5  1  2  0  0  0  0
  5  4  1  0  0  0  0
  6  7  1  0  0  0  0
  7 11  1  0  0  0  0
  8  6  1  0  0  0  0
  9 11  2  0  0  0  0
 10  6  2  0  0  0  0
 10  9  1  0  0  0  0
 12  2  2  0  0  0  0
 13 12  1  0  0  0  0
 14 13  2  0  0  0  0
 14 16  1  0  0  0  0
 15  3  2  0  0  0  0
 16 17  2  0  0  0  0
 17  1  1  0  0  0  0
 17 15  1  0  0  0  0
 18 13  1  0  0  0  0
 19 18  1  0  0  0  0
 20 19  1  0  0  0  0
 20 18  1  0  0  0  0
 21  4  1  0  0  0  0
 22 34  1  0  0  0  0
 23 33  1  0  0  0  0
 24 26  1  0  0  0  0
 25 29  1  0  0  0  0
 25 24  1  0  0  0  0
 26 28  1  0  0  0  0
 27 25  2  0  0  0  0
 28 22  2  0  0  0  0
 30 31  1  0  0  0  0
 31 28  1  0  0  0  0
 31 23  2  0  0  0  0
 32 24  1  0  0  0  0
 32 30  1  0  0  0  0
 33 34  2  0  0  0  0
 33 21  1  0  0  0  0
M  END
>  <MODEL>
6

>  <REMARK>
 VINA RESULT:      -9.4      4.895      9.131
  Name = 
  3 active torsions:
  status: ('A' for Active; 'I' for Inactive)
    1  A    between atoms: C_3  and  C_25
    2  A    between atoms: C_8  and  O_18
    3  A    between atoms: O_18  and  C_30
                            x       y       z     vdW  Elec       q    Type
                         _______ _______ _______ _____ _____    ______ ____

>  <TORSDO>
F 3

$$$$
=
 OpenBabel11062409283D

 34 40  0  0  0  0  0  0  0  0999 V2000
  160.4690  210.8320  152.6510 C   0  0  0  0  0  0  0  0  0  0  0  0
  159.6030  214.2110  151.1910 C   0  0  0  0  0  3  0  0  0  0  0  0
  159.1350  213.2470  153.2840 C   0  0  0  0  0  3  0  0  0  0  0  0
  161.0310  208.5270  153.6700 C   0  0  0  0  0  0  0  0  0  0  0  0
  161.1490  209.4800  152.4690 C   0  0  0  0  0  3  0  0  0  0  0  0
  159.7850  210.2170  154.8910 C   0  0  0  0  0  0  0  0  0  0  0  0
  159.0710  210.8730  155.8870 C   0  0  0  0  0  2  0  0  0  0  0  0
  160.3950  208.8900  154.8120 C   0  0  0  0  0  3  0  0  0  0  0  0
  159.2140  212.1970  154.1870 C   0  0  0  0  0  0  0  0  0  0  0  0
  159.8550  211.0660  153.8560 C   0  0  0  0  0  0  0  0  0  0  0  0
  158.7160  212.1150  155.4400 N   0  0  0  0  0  0  0  0  0  0  0  0
  160.0350  214.4510  149.8960 C   0  0  0  0  0  3  0  0  0  0  0  0
  160.7370  213.6310  149.0230 C   0  0  0  0  0  0  0  0  0  0  0  0
  161.2110  212.3590  149.3190 C   0  0  0  0  0  3  0  0  0  0  0  0
  159.7410  213.0970  152.0110 C   0  0  0  0  0  0  0  0  0  0  0  0
  161.0670  211.6000  150.4710 C   0  0  0  0  0  3  0  0  0  0  0  0
  160.4250  211.8700  151.6790 C   0  0  0  0  0  0  0  0  0  0  0  0
  161.1030  214.2050  147.6840 C   0  0  0  0  0  3  0  0  0  0  0  0
  160.1300  213.7360  146.6120 C   0  0  0  0  0  2  0  0  0  0  0  0
  161.4970  213.1030  146.7120 C   0  0  0  0  0  2  0  0  0  0  0  0
  161.6470  207.2710  153.5380 O   0  0  0  0  0  0  0  0  0  0  0  0
  160.9930  203.8790  152.2170 C   0  0  0  0  0  3  0  0  0  0  0  0
  161.0660  206.5080  151.2660 C   0  0  0  0  0  3  0  0  0  0  0  0
  160.9460  203.2890  148.5910 N   0  0  0  0  0  0  0  0  0  0  0  0
  161.3100  202.1790  147.7550 C   0  0  0  0  0  0  0  0  0  0  0  0
  160.3920  203.0340  149.9290 C   0  0  0  0  0  2  0  0  0  0  0  0
  161.7340  202.3780  146.5840 O   0  0  0  0  0  0  0  0  0  0  0  0
  160.7410  204.1420  150.8700 C   0  0  0  0  0  0  0  0  0  0  0  0
  161.1960  200.7740  148.2450 C   0  0  0  0  0  1  0  0  0  0  0  0
  160.4570  205.7220  148.9590 C   0  0  0  0  0  2  0  0  0  0  0  0
  160.7770  205.4560  150.3930 C   0  0  0  0  0  0  0  0  0  0  0  0
  161.0870  204.6550  148.0570 C   0  0  0  0  0  2  0  0  0  0  0  0
  161.3250  206.2540  152.6240 C   0  0  0  0  0  0  0  0  0  0  0  0
  161.2890  204.9330  153.0880 C   0  0  0  0  0  3  0  0  0  0  0  0
  1 10  1  0  0  0  0
  2 15  1  0  0  0  0
  3  9  1  0  0  0  0
  4  8  2  0  0  0  0
  5  1  2  0  0  0  0
  5  4  1  0  0  0  0
  6  7  1  0  0  0  0
  8  6  1  0  0  0  0
  9 11  2  0  0  0  0
 10  9  1  0  0  0  0
 10  6  2  0  0  0  0
 11  7  1  0  0  0  0
 12  2  2  0  0  0  0
 13 14  2  0  0  0  0
 13 12  1  0  0  0  0
 14 16  1  0  0  0  0
 15  3  2  0  0  0  0
 16 17  2  0  0  0  0
 17 15  1  0  0  0  0
 17  1  1  0  0  0  0
 18 13  1  0  0  0  0
 19 20  1  0  0  0  0
 19 18  1  0  0  0  0
 20 18  1  0  0  0  0
 21  4  1  0  0  0  0
 22 34  1  0  0  0  0
 23 33  1  0  0  0  0
 24 26  1  0  0  0  0
 25 29  1  0  0  0  0
 25 24  1  0  0  0  0
 26 28  1  0  0  0  0
 27 25  2  0  0  0  0
 28 22  2  0  0  0  0
 30 31  1  0  0  0  0
 31 28  1  0  0  0  0
 31 23  2  0  0  0  0
 32 24  1  0  0  0  0
 32 30  1  0  0  0  0
 33 34  2  0  0  0  0
 33 21  1  0  0  0  0
M  END
>  <MODEL>
7

>  <REMARK>
 VINA RESULT:      -9.2      3.767      8.736
  Name = 
  3 active torsions:
  status: ('A' for Active; 'I' for Inactive)
    1  A    between atoms: C_3  and  C_25
    2  A    between atoms: C_8  and  O_18
    3  A    between atoms: O_18  and  C_30
                            x       y       z     vdW  Elec       q    Type
                         _______ _______ _______ _____ _____    ______ ____

>  <TORSDO>
F 3

$$$$
=
 OpenBabel11062409283D

 34 40  0  0  0  0  0  0  0  0999 V2000
  160.4350  209.8210  153.8920 C   0  0  0  0  0  0  0  0  0  0  0  0
  159.1430  213.3680  153.6670 C   0  0  0  0  0  3  0  0  0  0  0  0
  159.2480  211.8550  155.4630 C   0  0  0  0  0  3  0  0  0  0  0  0
  161.2930  207.3930  154.0740 C   0  0  0  0  0  0  0  0  0  0  0  0
  161.0780  208.6320  153.1890 C   0  0  0  0  0  3  0  0  0  0  0  0
  160.3600  208.5840  155.9730 C   0  0  0  0  0  0  0  0  0  0  0  0
  159.9080  208.8910  157.2520 C   0  0  0  0  0  2  0  0  0  0  0  0
  160.9610  207.3870  155.3890 C   0  0  0  0  0  3  0  0  0  0  0  0
  159.5800  210.6180  155.9980 C   0  0  0  0  0  0  0  0  0  0  0  0
  160.1420  209.6760  155.2250 C   0  0  0  0  0  0  0  0  0  0  0  0
  159.4200  210.1680  157.2610 N   0  0  0  0  0  0  0  0  0  0  0  0
  159.2240  213.9740  152.4230 C   0  0  0  0  0  3  0  0  0  0  0  0
  159.7000  213.4780  151.2180 C   0  0  0  0  0  0  0  0  0  0  0  0
  160.2650  212.2220  151.0310 C   0  0  0  0  0  3  0  0  0  0  0  0
  159.5130  212.0970  154.0920 C   0  0  0  0  0  0  0  0  0  0  0  0
  160.4380  211.1810  151.9300 C   0  0  0  0  0  3  0  0  0  0  0  0
  160.1190  211.0670  153.2830 C   0  0  0  0  0  0  0  0  0  0  0  0
  159.6980  214.4110  150.0400 C   0  0  0  0  0  3  0  0  0  0  0  0
  158.5350  214.1030  149.1090 C   0  0  0  0  0  2  0  0  0  0  0  0
  159.9290  213.6490  148.7440 C   0  0  0  0  0  2  0  0  0  0  0  0
  161.8860  206.2760  153.4600 O   0  0  0  0  0  0  0  0  0  0  0  0
  160.9280  203.7000  150.9850 C   0  0  0  0  0  3  0  0  0  0  0  0
  161.5050  206.4360  151.0280 C   0  0  0  0  0  3  0  0  0  0  0  0
  161.2740  204.3750  147.3900 N   0  0  0  0  0  0  0  0  0  0  0  0
  161.5810  203.5620  146.2470 C   0  0  0  0  0  0  0  0  0  0  0  0
  160.5180  203.7930  148.5080 C   0  0  0  0  0  2  0  0  0  0  0  0
  162.1790  204.0610  145.2550 O   0  0  0  0  0  0  0  0  0  0  0  0
  160.8970  204.4390  149.8020 C   0  0  0  0  0  0  0  0  0  0  0  0
  161.2010  202.1200  146.2010 C   0  0  0  0  0  1  0  0  0  0  0  0
  161.0970  206.5910  148.5540 C   0  0  0  0  0  2  0  0  0  0  0  0
  161.1850  205.8080  149.8220 C   0  0  0  0  0  0  0  0  0  0  0  0
  161.6800  205.7920  147.3830 C   0  0  0  0  0  2  0  0  0  0  0  0
  161.5440  205.7000  152.2250 C   0  0  0  0  0  0  0  0  0  0  0  0
  161.2560  204.3290  152.1910 C   0  0  0  0  0  3  0  0  0  0  0  0
  1 10  1  0  0  0  0
  2 15  1  0  0  0  0
  3  9  1  0  0  0  0
  4  8  2  0  0  0  0
  5  1  2  0  0  0  0
  5  4  1  0  0  0  0
  6  7  1  0  0  0  0
  7 11  1  0  0  0  0
  8  6  1  0  0  0  0
  9 11  2  0  0  0  0
 10  6  2  0  0  0  0
 10  9  1  0  0  0  0
 12  2  2  0  0  0  0
 13 12  1  0  0  0  0
 14 13  2  0  0  0  0
 14 16  1  0  0  0  0
 15  3  2  0  0  0  0
 16 17  2  0  0  0  0
 17  1  1  0  0  0  0
 17 15  1  0  0  0  0
 18 13  1  0  0  0  0
 19 18  1  0  0  0  0
 20 19  1  0  0  0  0
 20 18  1  0  0  0  0
 21  4  1  0  0  0  0
 22 34  1  0  0  0  0
 23 33  1  0  0  0  0
 24 26  1  0  0  0  0
 25 24  1  0  0  0  0
 26 28  1  0  0  0  0
 27 25  2  0  0  0  0
 28 31  1  0  0  0  0
 28 22  2  0  0  0  0
 29 25  1  0  0  0  0
 30 31  1  0  0  0  0
 31 23  2  0  0  0  0
 32 24  1  0  0  0  0
 32 30  1  0  0  0  0
 33 21  1  0  0  0  0
 34 33  2  0  0  0  0
M  END
>  <MODEL>
8

>  <REMARK>
 VINA RESULT:      -9.0      3.956      8.522
  Name = 
  3 active torsions:
  status: ('A' for Active; 'I' for Inactive)
    1  A    between atoms: C_3  and  C_25
    2  A    between atoms: C_8  and  O_18
    3  A    between atoms: O_18  and  C_30
                            x       y       z     vdW  Elec       q    Type
                         _______ _______ _______ _____ _____    ______ ____

>  <TORSDO>
F 3

$$$$
=
 OpenBabel11062409283D

 34 40  0  0  1  0  0  0  0  0999 V2000
  160.1440  211.9670  152.0660 C   0  0  0  0  0  0  0  0  0  0  0  0
  157.7420  214.4350  153.6280 C   0  0  0  0  0  3  0  0  0  0  0  0
  158.8820  214.4530  151.5730 C   0  0  0  0  0  3  0  0  0  0  0  0
  161.8000  210.3100  150.9800 C   0  0  0  0  0  0  0  0  0  0  0  0
  160.8940  210.6450  152.1760 C   0  0  0  0  0  3  0  0  0  0  0  0
  161.1170  212.3680  149.8850 C   0  0  0  0  0  0  0  0  0  0  0  0
  160.9980  213.3990  148.9590 C   0  0  0  0  0  3  0  0  0  0  0  0
  161.8880  211.1250  149.8990 C   0  0  0  0  0  3  0  0  0  0  0  0
  159.7500  213.8780  150.6540 C   0  0  0  0  0  0  0  0  0  0  0  0
  160.3310  212.6980  150.9200 C   0  0  2  0  0  3  0  0  0  0  0  0
  160.1390  214.3430  149.4480 N   0  0  0  0  0  0  0  0  0  0  0  0
  157.2560  214.1090  154.8850 C   0  0  0  0  0  3  0  0  0  0  0  0
  157.5230  213.0080  155.6870 C   0  0  0  0  0  0  0  0  0  0  0  0
  158.3370  211.9370  155.3390 C   0  0  0  0  0  3  0  0  0  0  0  0
  158.6280  213.7690  152.7890 C   0  0  0  0  0  0  0  0  0  0  0  0
  159.0930  211.7270  154.1960 C   0  0  0  0  0  3  0  0  0  0  0  0
  159.2650  212.5010  153.0490 C   0  0  0  0  0  0  0  0  0  0  0  0
  156.7930  212.9180  156.9970 C   0  0  0  0  0  3  0  0  0  0  0  0
  155.6410  211.9290  156.9060 C   0  0  0  0  0  2  0  0  0  0  0  0
  155.3610  213.4120  156.8540 C   0  0  0  0  0  2  0  0  0  0  0  0
  162.5060  209.0970  151.0460 O   0  0  0  0  0  0  0  0  0  0  0  0
  161.3940  205.6360  151.7260 C   0  0  0  0  0  3  0  0  0  0  0  0
  161.6680  207.3430  149.5280 C   0  0  0  0  0  3  0  0  0  0  0  0
  160.9960  203.2490  148.9620 N   0  0  0  0  0  0  0  0  0  0  0  0
  161.1730  201.8300  148.8350 C   0  0  0  0  0  0  0  0  0  0  0  0
  160.5270  203.8070  150.2390 C   0  0  0  0  0  2  0  0  0  0  0  0
  161.5200  201.3290  147.7310 O   0  0  0  0  0  0  0  0  0  0  0  0
  161.0650  205.1860  150.4470 C   0  0  0  0  0  0  0  0  0  0  0  0
  160.9500  200.9180  149.9950 C   0  0  0  0  0  1  0  0  0  0  0  0
  160.7970  205.5550  147.9940 C   0  0  0  0  0  2  0  0  0  0  0  0
  161.2010  206.0390  149.3470 C   0  0  0  0  0  0  0  0  0  0  0  0
  161.2370  204.1020  147.7840 C   0  0  0  0  0  2  0  0  0  0  0  0
  162.0070  207.8050  150.8120 C   0  0  0  0  0  0  0  0  0  0  0  0
  161.8690  206.9400  151.9050 C   0  0  0  0  0  3  0  0  0  0  0  0
  1  5  1  0  0  0  0
  1 17  2  0  0  0  0
  2 12  1  0  0  0  0
  3 15  1  0  0  0  0
  4 21  1  0  0  0  0
  4  5  2  0  0  0  0
  6  8  2  0  0  0  0
  7 11  2  0  0  0  0
  7  6  1  0  0  0  0
  8  4  1  0  0  0  0
  9 10  1  0  0  0  0
  9  3  2  0  0  0  0
 10  6  1  1  0  0  0
 10  1  1  0  0  0  0
 11  9  1  0  0  0  0
 12 13  2  0  0  0  0
 13 18  1  0  0  0  0
 14 13  1  0  0  0  0
 15 17  1  0  0  0  0
 15  2  2  0  0  0  0
 16 14  2  0  0  0  0
 17 16  1  0  0  0  0
 19 18  1  0  0  0  0
 20 19  1  0  0  0  0
 20 18  1  0  0  0  0
 22 34  1  0  0  0  0
 23 33  1  0  0  0  0
 24 26  1  0  0  0  0
 25 24  1  0  0  0  0
 25 29  1  0  0  0  0
 26 28  1  0  0  0  0
 27 25  2  0  0  0  0
 28 22  2  0  0  0  0
 30 31  1  0  0  0  0
 31 23  2  0  0  0  0
 31 28  1  0  0  0  0
 32 30  1  0  0  0  0
 32 24  1  0  0  0  0
 33 21  1  0  0  0  0
 33 34  2  0  0  0  0
M  END
>  <MODEL>
9

>  <REMARK>
 VINA RESULT:      -8.8      4.363      9.805
  Name = 
  3 active torsions:
  status: ('A' for Active; 'I' for Inactive)
    1  A    between atoms: C_3  and  C_25
    2  A    between atoms: C_8  and  O_18
    3  A    between atoms: O_18  and  C_30
                            x       y       z     vdW  Elec       q    Type
                         _______ _______ _______ _____ _____    ______ ____

>  <TORSDO>
F 3

$$$$
