=
 OpenBabel11062408083D

 34 37  0  0  1  0  0  0  0  0999 V2000
  161.3100  205.8210  150.0210 C   0  0  0  0  0  0  0  0  0  0  0  0
  160.9420  205.7580  152.4330 C   0  0  0  0  0  0  0  0  0  0  0  0
  161.3620  207.9090  151.3060 C   0  0  0  0  0  0  0  0  0  0  0  0
  160.6730  209.7260  152.7830 C   0  0  0  0  0  0  0  0  0  0  0  0
  160.8930  203.7110  151.1310 C   0  0  0  0  0  3  0  0  0  0  0  0
  160.7800  204.3710  152.3570 C   0  0  0  0  0  3  0  0  0  0  0  0
  161.5180  207.7410  153.8520 C   0  0  0  0  0  2  0  0  0  0  0  0
  161.2050  206.5020  151.2570 C   0  0  0  0  0  0  0  0  0  0  0  0
  160.0490  210.8610  152.9160 C   0  0  0  0  0  3  0  0  0  0  0  0
  161.1570  204.4340  149.9670 C   0  0  0  0  0  3  0  0  0  0  0  0
  161.6300  208.6150  150.1050 C   0  0  0  0  0  0  0  0  0  0  0  0
  161.5670  206.5320  148.8510 C   0  0  0  0  0  3  0  0  0  0  0  0
  160.7300  206.4370  153.7570 C   0  0  0  0  0  2  0  0  0  0  0  0
  161.2690  208.5740  152.6350 C   0  0  0  0  0  0  0  0  0  0  0  0
  161.7280  207.9160  148.8940 C   0  0  0  0  0  3  0  0  0  0  0  0
  163.0220  210.3950  150.8440 O   0  0  0  0  0  1  0  0  0  0  0  0
  161.8780  210.0950  150.1000 C   0  0  1  0  0  3  0  0  0  0  0  0
  161.2620  212.7340  149.2140 O   0  0  0  0  0  1  0  0  0  0  0  0
  161.9290  212.3430  147.0590 O   0  0  0  0  0  0  0  0  0  0  0  0
  162.0320  210.5810  148.7360 N   0  0  0  0  0  2  0  0  0  0  0  0
  161.7250  211.9260  148.3670 C   0  0  0  0  0  0  0  0  0  0  0  0
  158.5760  210.8590  153.1700 C   0  0  0  0  0  2  0  0  0  0  0  0
  158.2140  211.4770  154.5250 C   0  0  1  0  0  3  0  0  0  0  0  0
  156.9460  213.6390  152.7940 O   0  0  0  0  0  1  0  0  0  0  0  0
  156.7560  211.9890  154.5820 C   0  0  2  0  0  3  0  0  0  0  0  0
  156.6070  213.4560  154.1340 C   0  0  1  0  0  3  0  0  0  0  0  0
  157.4660  213.9600  156.4880 C   0  0  0  0  0  2  0  0  0  0  0  0
  156.2620  213.1010  156.8690 C   0  0  0  0  0  2  0  0  0  0  0  0
  156.1720  211.8340  156.0030 C   0  0  0  0  0  2  0  0  0  0  0  0
  157.3790  214.4330  155.0310 C   0  0  0  0  0  2  0  0  0  0  0  0
  158.5180  210.4970  155.6640 C   0  0  0  0  0  2  0  0  0  0  0  0
  159.6300  211.0050  156.5670 C   0  0  0  0  0  3  0  0  0  0  0  0
  160.6370  209.8950  156.7790 C   0  0  0  0  0  1  0  0  0  0  0  0
  160.3330  212.1890  155.9310 C   0  0  0  0  0  1  0  0  0  0  0  0
  1  8  1  0  0  0  0
  2 13  1  0  0  0  0
  3 14  1  0  0  0  0
  4  9  2  0  0  0  0
  5  6  2  0  0  0  0
  6  2  1  0  0  0  0
  8  3  1  0  0  0  0
  8  2  2  0  0  0  0
  9 22  1  0  0  0  0
 10  1  2  0  0  0  0
 10  5  1  0  0  0  0
 11  3  2  0  0  0  0
 12 15  2  0  0  0  0
 12  1  1  0  0  0  0
 13  7  1  0  0  0  0
 14  4  2  0  0  0  0
 14  7  1  0  0  0  0
 15 11  1  0  0  0  0
 17 11  1  0  0  0  0
 17 16  1  1  0  0  0
 19 21  2  0  0  0  0
 20 17  1  0  0  0  0
 21 20  1  0  0  0  0
 21 18  1  0  0  0  0
 23 22  1  6  0  0  0
 23 31  1  0  0  0  0
 25 23  1  1  0  0  0
 25 29  1  0  0  0  0
 26 24  1  6  0  0  0
 26 25  1  0  0  0  0
 26 30  1  0  0  0  0
 27 28  1  0  0  0  0
 29 28  1  0  0  0  0
 30 27  1  0  0  0  0
 31 32  1  0  0  0  0
 32 33  1  0  0  0  0
 34 32  1  0  0  0  0
M  END
>  <MODEL>
1

>  <REMARK>
 VINA RESULT:      -8.0      0.000      0.000
  Name = 
  7 active torsions:
  status: ('A' for Active; 'I' for Inactive)
    1  A    between atoms: C_3  and  C_13
    2  A    between atoms: C_3  and  C_17
    3  A    between atoms: C_3  and  C_29
    4  A    between atoms: C_7  and  C_17
    5  A    between atoms: C_18  and  C_29
    6  A    between atoms: C_21  and  C_28
    7  A    between atoms: N_23  and  C_28
                            x       y       z     vdW  Elec       q    Type
                         _______ _______ _______ _____ _____    ______ ____

>  <TORSDO>
F 7

$$$$
=
 OpenBabel11062408083D

 34 37  0  0  1  0  0  0  0  0999 V2000
  161.0120  204.5700  148.8150 C   0  0  0  0  0  0  0  0  0  0  0  0
  161.2080  204.4530  151.2440 C   0  0  0  0  0  0  0  0  0  0  0  0
  161.7440  206.5490  150.0640 C   0  0  0  0  0  0  0  0  0  0  0  0
  161.7630  208.3840  151.6730 C   0  0  0  0  0  0  0  0  0  0  0  0
  160.4820  202.5150  149.9790 C   0  0  0  0  0  3  0  0  0  0  0  0
  160.7810  203.1230  151.2010 C   0  0  0  0  0  3  0  0  0  0  0  0
  162.4530  206.2300  152.4990 C   0  0  0  0  0  2  0  0  0  0  0  0
  161.3230  205.1970  150.0450 C   0  0  0  0  0  0  0  0  0  0  0  0
  161.4070  209.6040  151.9580 C   0  0  0  0  0  3  0  0  0  0  0  0
  160.5970  203.2370  148.7900 C   0  0  0  0  0  3  0  0  0  0  0  0
  161.8500  207.2560  148.8380 C   0  0  0  0  0  0  0  0  0  0  0  0
  161.1160  205.2820  147.6220 C   0  0  0  0  0  3  0  0  0  0  0  0
  161.4390  205.0930  152.5850 C   0  0  0  0  0  2  0  0  0  0  0  0
  162.0860  207.1530  151.3810 C   0  0  0  0  0  0  0  0  0  0  0  0
  161.5340  206.6110  147.6340 C   0  0  0  0  0  3  0  0  0  0  0  0
  163.5780  208.7140  148.1030 O   0  0  0  0  0  1  0  0  0  0  0  0
  162.3590  208.6660  148.7830 C   0  0  1  0  0  3  0  0  0  0  0  0
  162.4470  211.5160  148.7640 O   0  0  0  0  0  1  0  0  0  0  0  0
  160.5750  211.7280  147.4610 O   0  0  0  0  0  0  0  0  0  0  0  0
  161.3900  209.5320  148.1270 N   0  0  0  0  0  2  0  0  0  0  0  0
  161.5090  210.9550  148.1380 C   0  0  0  0  0  0  0  0  0  0  0  0
  160.0590  209.8500  152.5540 C   0  0  0  0  0  2  0  0  0  0  0  0
  160.1400  210.3340  154.0070 C   0  0  1  0  0  3  0  0  0  0  0  0
  160.4770  207.4780  155.0110 O   0  0  0  0  0  1  0  0  0  0  0  0
  161.3490  209.7430  154.7700 C   0  0  2  0  0  3  0  0  0  0  0  0
  160.9710  208.5810  155.7070 C   0  0  1  0  0  3  0  0  0  0  0  0
  160.1990  210.4610  157.2560 C   0  0  0  0  0  2  0  0  0  0  0  0
  161.6450  210.9110  157.0640 C   0  0  0  0  0  2  0  0  0  0  0  0
  162.0710  210.8370  155.5880 C   0  0  0  0  0  2  0  0  0  0  0  0
  160.0000  209.0040  156.8180 C   0  0  0  0  0  2  0  0  0  0  0  0
  160.1200  211.8650  154.0680 C   0  0  0  0  0  2  0  0  0  0  0  0
  158.7170  212.4200  153.8900 C   0  0  0  0  0  3  0  0  0  0  0  0
  157.7600  211.6280  154.7550 C   0  0  0  0  0  1  0  0  0  0  0  0
  158.6630  213.8770  154.3100 C   0  0  0  0  0  1  0  0  0  0  0  0
  1  8  1  0  0  0  0
  2 13  1  0  0  0  0
  3 14  1  0  0  0  0
  4  9  2  0  0  0  0
  5  6  2  0  0  0  0
  6  2  1  0  0  0  0
  7 13  1  0  0  0  0
  8  3  1  0  0  0  0
  8  2  2  0  0  0  0
  9 22  1  0  0  0  0
 10  1  2  0  0  0  0
 10  5  1  0  0  0  0
 11  3  2  0  0  0  0
 12 15  2  0  0  0  0
 12  1  1  0  0  0  0
 14  4  2  0  0  0  0
 14  7  1  0  0  0  0
 15 11  1  0  0  0  0
 17 16  1  6  0  0  0
 17 11  1  0  0  0  0
 19 21  2  0  0  0  0
 20 21  1  0  0  0  0
 20 17  1  0  0  0  0
 21 18  1  0  0  0  0
 23 22  1  6  0  0  0
 23 31  1  0  0  0  0
 25 23  1  1  0  0  0
 25 29  1  0  0  0  0
 25 26  1  0  0  0  0
 26 24  1  6  0  0  0
 26 30  1  0  0  0  0
 28 27  1  0  0  0  0
 29 28  1  0  0  0  0
 30 27  1  0  0  0  0
 32 31  1  0  0  0  0
 32 34  1  0  0  0  0
 32 33  1  0  0  0  0
M  END
>  <MODEL>
2

>  <REMARK>
 VINA RESULT:      -7.9      1.888      3.354
  Name = 
  7 active torsions:
  status: ('A' for Active; 'I' for Inactive)
    1  A    between atoms: C_3  and  C_13
    2  A    between atoms: C_3  and  C_17
    3  A    between atoms: C_3  and  C_29
    4  A    between atoms: C_7  and  C_17
    5  A    between atoms: C_18  and  C_29
    6  A    between atoms: C_21  and  C_28
    7  A    between atoms: N_23  and  C_28
                            x       y       z     vdW  Elec       q    Type
                         _______ _______ _______ _____ _____    ______ ____

>  <TORSDO>
F 7

$$$$
=
 OpenBabel11062408083D

 34 37  0  0  1  0  0  0  0  0999 V2000
  161.0540  205.4970  149.3520 C   0  0  0  0  0  0  0  0  0  0  0  0
  161.1010  205.1210  151.7620 C   0  0  0  0  0  0  0  0  0  0  0  0
  161.4300  207.3910  150.8630 C   0  0  0  0  0  0  0  0  0  0  0  0
  161.0970  209.0120  152.6570 C   0  0  0  0  0  0  0  0  0  0  0  0
  160.7270  203.2690  150.2400 C   0  0  0  0  0  3  0  0  0  0  0  0
  160.8590  203.7620  151.5410 C   0  0  0  0  0  3  0  0  0  0  0  0
  162.0120  206.8790  153.2990 C   0  0  0  0  0  2  0  0  0  0  0  0
  161.1960  206.0090  150.6630 C   0  0  0  0  0  0  0  0  0  0  0  0
  160.5630  210.1360  153.0420 C   0  0  0  0  0  3  0  0  0  0  0  0
  160.8230  204.1350  149.1490 C   0  0  0  0  0  3  0  0  0  0  0  0
  161.5230  208.2450  149.7330 C   0  0  0  0  0  0  0  0  0  0  0  0
  161.1410  206.3520  148.2550 C   0  0  0  0  0  3  0  0  0  0  0  0
  161.1540  205.6220  153.1790 C   0  0  0  0  0  2  0  0  0  0  0  0
  161.5990  207.8740  152.2600 C   0  0  0  0  0  0  0  0  0  0  0  0
  161.3760  207.7120  148.4450 C   0  0  0  0  0  3  0  0  0  0  0  0
  163.0030  209.8750  150.6300 O   0  0  0  0  0  1  0  0  0  0  0  0
  161.8410  209.7050  149.8730 C   0  0  1  0  0  3  0  0  0  0  0  0
  161.3540  212.4470  149.2640 O   0  0  0  0  0  1  0  0  0  0  0  0
  161.9820  212.2420  147.0720 O   0  0  0  0  0  0  0  0  0  0  0  0
  162.0080  210.3170  148.5620 N   0  0  0  0  0  2  0  0  0  0  0  0
  161.7680  211.7060  148.3340 C   0  0  0  0  0  0  0  0  0  0  0  0
  159.1570  210.1400  153.5490 C   0  0  0  0  0  2  0  0  0  0  0  0
  159.0200  210.8710  154.8900 C   0  0  1  0  0  3  0  0  0  0  0  0
  158.6290  213.4040  153.2460 O   0  0  0  0  0  1  0  0  0  0  0  0
  157.8130  211.8370  154.9270 C   0  0  2  0  0  3  0  0  0  0  0  0
  158.1810  213.2880  154.5610 C   0  0  1  0  0  3  0  0  0  0  0  0
  159.0380  213.3730  156.9670 C   0  0  0  0  0  2  0  0  0  0  0  0
  157.6000  212.9490  157.2580 C   0  0  0  0  0  2  0  0  0  0  0  0
  157.1400  211.8220  156.3170 C   0  0  0  0  0  2  0  0  0  0  0  0
  159.1870  213.9110  155.5380 C   0  0  0  0  0  2  0  0  0  0  0  0
  158.9840  209.8690  156.0500 C   0  0  0  0  0  2  0  0  0  0  0  0
  160.1960  208.9520  156.0430 C   0  0  0  0  0  3  0  0  0  0  0  0
  161.0770  209.2910  157.2270 C   0  0  0  0  0  1  0  0  0  0  0  0
  159.7670  207.5010  156.1530 C   0  0  0  0  0  1  0  0  0  0  0  0
  1  8  1  0  0  0  0
  2 13  1  0  0  0  0
  3 14  1  0  0  0  0
  4  9  2  0  0  0  0
  5  6  2  0  0  0  0
  6  2  1  0  0  0  0
  8  3  1  0  0  0  0
  8  2  2  0  0  0  0
  9 22  1  0  0  0  0
 10  1  2  0  0  0  0
 10  5  1  0  0  0  0
 11 17  1  0  0  0  0
 11  3  2  0  0  0  0
 12 15  2  0  0  0  0
 12  1  1  0  0  0  0
 13  7  1  0  0  0  0
 14  4  2  0  0  0  0
 14  7  1  0  0  0  0
 15 11  1  0  0  0  0
 17 16  1  1  0  0  0
 19 21  2  0  0  0  0
 20 17  1  0  0  0  0
 21 20  1  0  0  0  0
 21 18  1  0  0  0  0
 23 22  1  6  0  0  0
 23 31  1  0  0  0  0
 25 23  1  1  0  0  0
 25 29  1  0  0  0  0
 26 24  1  6  0  0  0
 26 25  1  0  0  0  0
 26 30  1  0  0  0  0
 27 28  1  0  0  0  0
 29 28  1  0  0  0  0
 30 27  1  0  0  0  0
 32 31  1  0  0  0  0
 32 34  1  0  0  0  0
 32 33  1  0  0  0  0
M  END
>  <MODEL>
3

>  <REMARK>
 VINA RESULT:      -7.7      1.041      1.328
  Name = 
  7 active torsions:
  status: ('A' for Active; 'I' for Inactive)
    1  A    between atoms: C_3  and  C_13
    2  A    between atoms: C_3  and  C_17
    3  A    between atoms: C_3  and  C_29
    4  A    between atoms: C_7  and  C_17
    5  A    between atoms: C_18  and  C_29
    6  A    between atoms: C_21  and  C_28
    7  A    between atoms: N_23  and  C_28
                            x       y       z     vdW  Elec       q    Type
                         _______ _______ _______ _____ _____    ______ ____

>  <TORSDO>
F 7

$$$$
=
 OpenBabel11062408083D

 34 37  0  0  1  0  0  0  0  0999 V2000
  161.3330  205.8690  149.6170 C   0  0  0  0  0  0  0  0  0  0  0  0
  161.0150  205.6870  152.0290 C   0  0  0  0  0  0  0  0  0  0  0  0
  161.4370  207.8880  151.0040 C   0  0  0  0  0  0  0  0  0  0  0  0
  160.8010  209.6350  152.5850 C   0  0  0  0  0  0  0  0  0  0  0  0
  160.9140  203.7090  150.6280 C   0  0  0  0  0  3  0  0  0  0  0  0
  160.8350  204.3080  151.8870 C   0  0  0  0  0  3  0  0  0  0  0  0
  161.6440  207.5900  153.5340 C   0  0  0  0  0  2  0  0  0  0  0  0
  161.2620  206.4870  150.8880 C   0  0  0  0  0  0  0  0  0  0  0  0
  160.1930  210.7690  152.7890 C   0  0  0  0  0  3  0  0  0  0  0  0
  161.1620  204.4880  149.4960 C   0  0  0  0  0  3  0  0  0  0  0  0
  161.6870  208.6510  149.8350 C   0  0  0  0  0  0  0  0  0  0  0  0
  161.5730  206.6360  148.4790 C   0  0  0  0  0  3  0  0  0  0  0  0
  160.8390  206.3000  153.3910 C   0  0  0  0  0  2  0  0  0  0  0  0
  161.3790  208.4850  152.3660 C   0  0  0  0  0  0  0  0  0  0  0  0
  161.7510  208.0130  148.5880 C   0  0  0  0  0  3  0  0  0  0  0  0
  163.1180  210.3760  150.6300 O   0  0  0  0  0  1  0  0  0  0  0  0
  161.9530  210.1270  149.8990 C   0  0  1  0  0  3  0  0  0  0  0  0
  161.2010  212.7680  149.1310 O   0  0  0  0  0  1  0  0  0  0  0  0
  161.8850  212.5080  146.9620 O   0  0  0  0  0  0  0  0  0  0  0  0
  162.0800  210.6800  148.5580 N   0  0  0  0  0  2  0  0  0  0  0  0
  161.7040  212.0230  148.2490 C   0  0  0  0  0  0  0  0  0  0  0  0
  158.7260  210.7700  153.0750 C   0  0  0  0  0  2  0  0  0  0  0  0
  158.3410  211.7780  154.1640 C   0  0  1  0  0  3  0  0  0  0  0  0
  159.9170  209.9080  155.9800 O   0  0  0  0  0  1  0  0  0  0  0  0
  159.5260  212.1450  155.0880 C   0  0  2  0  0  3  0  0  0  0  0  0
  159.6410  211.2310  156.3240 C   0  0  1  0  0  3  0  0  0  0  0  0
  157.7540  212.6970  157.2270 C   0  0  0  0  0  2  0  0  0  0  0  0
  158.7700  213.7980  156.9340 C   0  0  0  0  0  2  0  0  0  0  0  0
  159.4250  213.6130  155.5550 C   0  0  0  0  0  2  0  0  0  0  0  0
  158.4140  211.3120  157.2410 C   0  0  0  0  0  2  0  0  0  0  0  0
  157.6960  213.0220  153.5440 C   0  0  0  0  0  2  0  0  0  0  0  0
  156.3060  213.2770  154.1020 C   0  0  0  0  0  3  0  0  0  0  0  0
  155.4460  213.8930  153.0200 C   0  0  0  0  0  1  0  0  0  0  0  0
  155.6670  211.9770  154.5530 C   0  0  0  0  0  1  0  0  0  0  0  0
  1  8  1  0  0  0  0
  2 13  1  0  0  0  0
  3 14  1  0  0  0  0
  4  9  2  0  0  0  0
  5  6  2  0  0  0  0
  6  2  1  0  0  0  0
  8  3  1  0  0  0  0
  8  2  2  0  0  0  0
  9 22  1  0  0  0  0
 10  1  2  0  0  0  0
 10  5  1  0  0  0  0
 11 17  1  0  0  0  0
 11  3  2  0  0  0  0
 12 15  2  0  0  0  0
 12  1  1  0  0  0  0
 13  7  1  0  0  0  0
 14  4  2  0  0  0  0
 14  7  1  0  0  0  0
 15 11  1  0  0  0  0
 17 16  1  1  0  0  0
 19 21  2  0  0  0  0
 20 17  1  0  0  0  0
 21 20  1  0  0  0  0
 21 18  1  0  0  0  0
 23 22  1  6  0  0  0
 25 23  1  1  0  0  0
 25 29  1  0  0  0  0
 25 26  1  0  0  0  0
 26 24  1  6  0  0  0
 26 30  1  0  0  0  0
 27 30  1  0  0  0  0
 28 27  1  0  0  0  0
 29 28  1  0  0  0  0
 31 32  1  0  0  0  0
 31 23  1  0  0  0  0
 32 34  1  0  0  0  0
 33 32  1  0  0  0  0
M  END
>  <MODEL>
4

>  <REMARK>
 VINA RESULT:      -7.3      1.249      2.519
  Name = 
  7 active torsions:
  status: ('A' for Active; 'I' for Inactive)
    1  A    between atoms: C_3  and  C_13
    2  A    between atoms: C_3  and  C_17
    3  A    between atoms: C_3  and  C_29
    4  A    between atoms: C_7  and  C_17
    5  A    between atoms: C_18  and  C_29
    6  A    between atoms: C_21  and  C_28
    7  A    between atoms: N_23  and  C_28
                            x       y       z     vdW  Elec       q    Type
                         _______ _______ _______ _____ _____    ______ ____

>  <TORSDO>
F 7

$$$$
=
 OpenBabel11062408083D

 34 37  0  0  1  0  0  0  0  0999 V2000
  161.2540  205.9720  149.8320 C   0  0  0  0  0  0  0  0  0  0  0  0
  160.9360  205.8880  152.2500 C   0  0  0  0  0  0  0  0  0  0  0  0
  161.3860  208.0420  151.1390 C   0  0  0  0  0  0  0  0  0  0  0  0
  160.7730  209.8580  152.6510 C   0  0  0  0  0  0  0  0  0  0  0  0
  160.8080  203.8590  150.9270 C   0  0  0  0  0  3  0  0  0  0  0  0
  160.7380  204.5080  152.1620 C   0  0  0  0  0  3  0  0  0  0  0  0
  161.5910  207.8400  153.6790 C   0  0  0  0  0  2  0  0  0  0  0  0
  161.1920  206.6400  151.0780 C   0  0  0  0  0  0  0  0  0  0  0  0
  160.1800  211.0060  152.8110 C   0  0  0  0  0  3  0  0  0  0  0  0
  161.0650  204.5900  149.7650 C   0  0  0  0  0  3  0  0  0  0  0  0
  161.6450  208.7560  149.9410 C   0  0  0  0  0  0  0  0  0  0  0  0
  161.5030  206.6900  148.6650 C   0  0  0  0  0  3  0  0  0  0  0  0
  160.7700  206.5570  153.5860 C   0  0  0  0  0  2  0  0  0  0  0  0
  161.3370  208.6930  152.4770 C   0  0  0  0  0  0  0  0  0  0  0  0
  161.6990  208.0690  148.7200 C   0  0  0  0  0  3  0  0  0  0  0  0
  163.0900  210.4930  150.6800 O   0  0  0  0  0  1  0  0  0  0  0  0
  161.9300  210.2290  149.9470 C   0  0  1  0  0  3  0  0  0  0  0  0
  161.3050  212.8740  149.0830 O   0  0  0  0  0  1  0  0  0  0  0  0
  161.9660  212.4990  146.9230 O   0  0  0  0  0  0  0  0  0  0  0  0
  162.0770  210.7250  148.5860 N   0  0  0  0  0  2  0  0  0  0  0  0
  161.7670  212.0720  148.2280 C   0  0  0  0  0  0  0  0  0  0  0  0
  158.7140  211.0370  153.0960 C   0  0  0  0  0  2  0  0  0  0  0  0
  158.2520  212.3930  153.6450 C   0  0  1  0  0  3  0  0  0  0  0  0
  158.4470  210.2110  155.7620 O   0  0  0  0  0  1  0  0  0  0  0  0
  158.5650  212.5700  155.1490 C   0  0  2  0  0  3  0  0  0  0  0  0
  157.9340  211.4790  156.0360 C   0  0  1  0  0  3  0  0  0  0  0  0
  155.8110  212.8700  155.7390 C   0  0  0  0  0  2  0  0  0  0  0  0
  156.7130  213.9600  156.3120 C   0  0  0  0  0  2  0  0  0  0  0  0
  158.1000  213.9550  155.6480 C   0  0  0  0  0  2  0  0  0  0  0  0
  156.4010  211.4720  155.9720 C   0  0  0  0  0  2  0  0  0  0  0  0
  158.8260  213.5390  152.8050 C   0  0  0  0  0  2  0  0  0  0  0  0
  157.7930  214.1140  151.8500 C   0  0  0  0  0  3  0  0  0  0  0  0
  157.8810  213.3800  150.5290 C   0  0  0  0  0  1  0  0  0  0  0  0
  156.3940  213.9420  152.4120 C   0  0  0  0  0  1  0  0  0  0  0  0
  1  8  1  0  0  0  0
  2 13  1  0  0  0  0
  3 14  1  0  0  0  0
  4  9  2  0  0  0  0
  5  6  2  0  0  0  0
  6  2  1  0  0  0  0
  8  3  1  0  0  0  0
  8  2  2  0  0  0  0
  9 22  1  0  0  0  0
 10  1  2  0  0  0  0
 10  5  1  0  0  0  0
 11 17  1  0  0  0  0
 11  3  2  0  0  0  0
 12 15  2  0  0  0  0
 12  1  1  0  0  0  0
 13  7  1  0  0  0  0
 14  4  2  0  0  0  0
 14  7  1  0  0  0  0
 15 11  1  0  0  0  0
 17 16  1  1  0  0  0
 19 21  2  0  0  0  0
 20 17  1  0  0  0  0
 21 20  1  0  0  0  0
 21 18  1  0  0  0  0
 22 23  1  0  0  0  0
 23 31  1  6  0  0  0
 25 23  1  6  0  0  0
 25 29  1  0  0  0  0
 25 26  1  0  0  0  0
 26 24  1  6  0  0  0
 27 30  1  0  0  0  0
 27 28  1  0  0  0  0
 29 28  1  0  0  0  0
 30 26  1  0  0  0  0
 32 34  1  0  0  0  0
 32 31  1  0  0  0  0
 33 32  1  0  0  0  0
M  END
>  <MODEL>
5

>  <REMARK>
 VINA RESULT:      -7.3      1.358      2.462
  Name = 
  7 active torsions:
  status: ('A' for Active; 'I' for Inactive)
    1  A    between atoms: C_3  and  C_13
    2  A    between atoms: C_3  and  C_17
    3  A    between atoms: C_3  and  C_29
    4  A    between atoms: C_7  and  C_17
    5  A    between atoms: C_18  and  C_29
    6  A    between atoms: C_21  and  C_28
    7  A    between atoms: N_23  and  C_28
                            x       y       z     vdW  Elec       q    Type
                         _______ _______ _______ _____ _____    ______ ____

>  <TORSDO>
F 7

$$$$
=
 OpenBabel11062408083D

 34 37  0  0  1  0  0  0  0  0999 V2000
  161.0100  204.7950  148.8000 C   0  0  0  0  0  0  0  0  0  0  0  0
  161.1670  204.5740  151.2260 C   0  0  0  0  0  0  0  0  0  0  0  0
  161.6440  206.7400  150.1520 C   0  0  0  0  0  0  0  0  0  0  0  0
  161.5640  208.4990  151.8420 C   0  0  0  0  0  0  0  0  0  0  0  0
  160.5380  202.6700  149.8600 C   0  0  0  0  0  3  0  0  0  0  0  0
  160.7910  203.2330  151.1130 C   0  0  0  0  0  3  0  0  0  0  0  0
  162.3200  206.3370  152.5840 C   0  0  0  0  0  2  0  0  0  0  0  0
  161.2750  205.3750  150.0630 C   0  0  0  0  0  0  0  0  0  0  0  0
  161.1560  209.6910  152.1750 C   0  0  0  0  0  3  0  0  0  0  0  0
  160.6470  203.4500  148.7070 C   0  0  0  0  0  3  0  0  0  0  0  0
  161.7460  207.5060  148.9620 C   0  0  0  0  0  0  0  0  0  0  0  0
  161.1090  205.5640  147.6430 C   0  0  0  0  0  3  0  0  0  0  0  0
  161.3480  205.1590  152.5980 C   0  0  0  0  0  2  0  0  0  0  0  0
  161.9380  207.2960  151.5010 C   0  0  0  0  0  0  0  0  0  0  0  0
  161.4760  206.9060  147.7240 C   0  0  0  0  0  3  0  0  0  0  0  0
  163.4690  209.0450  148.4040 O   0  0  0  0  0  1  0  0  0  0  0  0
  162.2010  208.9350  148.9810 C   0  0  1  0  0  3  0  0  0  0  0  0
  162.2500  211.7860  148.9380 O   0  0  0  0  0  1  0  0  0  0  0  0
  160.4460  211.9580  147.5370 O   0  0  0  0  0  0  0  0  0  0  0  0
  161.2560  209.7810  148.2670 N   0  0  0  0  0  2  0  0  0  0  0  0
  161.3540  211.2060  148.2690 C   0  0  0  0  0  0  0  0  0  0  0  0
  159.7890  209.8590  152.7540 C   0  0  0  0  0  2  0  0  0  0  0  0
  159.5210  211.2970  153.2140 C   0  0  1  0  0  3  0  0  0  0  0  0
  159.3230  209.2960  155.5020 O   0  0  0  0  0  1  0  0  0  0  0  0
  159.8840  211.5300  154.6990 C   0  0  2  0  0  3  0  0  0  0  0  0
  159.0680  210.6570  155.6720 C   0  0  1  0  0  3  0  0  0  0  0  0
  157.2490  212.4040  155.2610 C   0  0  0  0  0  2  0  0  0  0  0  0
  158.3530  213.3410  155.7430 C   0  0  0  0  0  2  0  0  0  0  0  0
  159.7030  213.0150  155.0830 C   0  0  0  0  0  2  0  0  0  0  0  0
  157.5620  210.9420  155.6070 C   0  0  0  0  0  2  0  0  0  0  0  0
  160.2240  212.2990  152.2920 C   0  0  0  0  0  2  0  0  0  0  0  0
  159.2850  212.8460  151.2290 C   0  0  0  0  0  3  0  0  0  0  0  0
  157.9740  213.2310  151.8820 C   0  0  0  0  0  1  0  0  0  0  0  0
  159.8830  214.0740  150.5700 C   0  0  0  0  0  1  0  0  0  0  0  0
  1  8  1  0  0  0  0
  2 13  1  0  0  0  0
  3 14  1  0  0  0  0
  4  9  2  0  0  0  0
  5  6  2  0  0  0  0
  6  2  1  0  0  0  0
  7 13  1  0  0  0  0
  8  3  1  0  0  0  0
  8  2  2  0  0  0  0
  9 22  1  0  0  0  0
 10  1  2  0  0  0  0
 10  5  1  0  0  0  0
 11 17  1  0  0  0  0
 11  3  2  0  0  0  0
 12 15  2  0  0  0  0
 12  1  1  0  0  0  0
 14  4  2  0  0  0  0
 14  7  1  0  0  0  0
 15 11  1  0  0  0  0
 17 16  1  6  0  0  0
 19 21  2  0  0  0  0
 20 21  1  0  0  0  0
 20 17  1  0  0  0  0
 21 18  1  0  0  0  0
 22 23  1  0  0  0  0
 23 31  1  6  0  0  0
 25 23  1  6  0  0  0
 25 29  1  0  0  0  0
 25 26  1  0  0  0  0
 26 24  1  6  0  0  0
 27 30  1  0  0  0  0
 27 28  1  0  0  0  0
 29 28  1  0  0  0  0
 30 26  1  0  0  0  0
 32 33  1  0  0  0  0
 32 31  1  0  0  0  0
 34 32  1  0  0  0  0
M  END
>  <MODEL>
6

>  <REMARK>
 VINA RESULT:      -7.1      1.759      2.906
  Name = 
  7 active torsions:
  status: ('A' for Active; 'I' for Inactive)
    1  A    between atoms: C_3  and  C_13
    2  A    between atoms: C_3  and  C_17
    3  A    between atoms: C_3  and  C_29
    4  A    between atoms: C_7  and  C_17
    5  A    between atoms: C_18  and  C_29
    6  A    between atoms: C_21  and  C_28
    7  A    between atoms: N_23  and  C_28
                            x       y       z     vdW  Elec       q    Type
                         _______ _______ _______ _____ _____    ______ ____

>  <TORSDO>
F 7

$$$$
=
 OpenBabel11062408083D

 34 37  0  0  1  0  0  0  0  0999 V2000
  160.0580  212.6750  151.4150 C   0  0  0  0  0  0  0  0  0  0  0  0
  161.1510  212.3250  149.2620 C   0  0  0  0  0  0  0  0  0  0  0  0
  161.1610  210.5340  150.9550 C   0  0  0  0  0  0  0  0  0  0  0  0
  161.7400  208.4230  149.8750 C   0  0  0  0  0  0  0  0  0  0  0  0
  160.0480  214.4300  149.7470 C   0  0  0  0  0  3  0  0  0  0  0  0
  160.7680  213.6110  148.8730 C   0  0  0  0  0  3  0  0  0  0  0  0
  162.7350  210.4080  148.9450 C   0  0  0  0  0  2  0  0  0  0  0  0
  160.7930  211.8380  150.5420 C   0  0  0  0  0  0  0  0  0  0  0  0
  161.4880  207.1530  149.7320 C   0  0  0  0  0  3  0  0  0  0  0  0
  159.6940  213.9620  151.0140 C   0  0  0  0  0  3  0  0  0  0  0  0
  160.7860  210.0880  152.2480 C   0  0  0  0  0  0  0  0  0  0  0  0
  159.6930  212.2180  152.6790 C   0  0  0  0  0  3  0  0  0  0  0  0
  161.8520  211.4480  148.2610 C   0  0  0  0  0  2  0  0  0  0  0  0
  161.9560  209.7030  150.0100 C   0  0  0  0  0  0  0  0  0  0  0  0
  160.0560  210.9380  153.0920 C   0  0  0  0  0  3  0  0  0  0  0  0
  162.5940  208.7010  152.9250 O   0  0  0  0  0  1  0  0  0  0  0  0
  161.2060  208.7470  152.7720 C   0  0  1  0  0  3  0  0  0  0  0  0
  160.9480  206.1690  153.9640 O   0  0  0  0  0  0  0  0  0  0  0  0
  159.8870  206.9590  155.8330 O   0  0  0  0  0  1  0  0  0  0  0  0
  160.5560  208.4700  154.0460 N   0  0  0  0  0  2  0  0  0  0  0  0
  160.4840  207.1540  154.5960 C   0  0  0  0  0  0  0  0  0  0  0  0
  160.4560  206.7200  148.7420 C   0  0  0  0  0  2  0  0  0  0  0  0
  160.9080  205.5100  147.9150 C   0  0  1  0  0  3  0  0  0  0  0  0
  159.9280  206.6170  145.2520 O   0  0  0  0  0  1  0  0  0  0  0  0
  161.7660  205.9070  146.6910 C   0  0  2  0  0  3  0  0  0  0  0  0
  161.0220  205.7570  145.3500 C   0  0  1  0  0  3  0  0  0  0  0  0
  161.5820  203.2810  145.6450 C   0  0  0  0  0  2  0  0  0  0  0  0
  162.9990  203.8410  145.7290 C   0  0  0  0  0  2  0  0  0  0  0  0
  163.0680  205.0780  146.6400 C   0  0  0  0  0  2  0  0  0  0  0  0
  160.6040  204.3090  145.0590 C   0  0  0  0  0  2  0  0  0  0  0  0
  161.6220  204.4860  148.8030 C   0  0  0  0  0  2  0  0  0  0  0  0
  160.6380  203.5840  149.5310 C   0  0  0  0  0  3  0  0  0  0  0  0
  160.8310  202.1600  149.0570 C   0  0  0  0  0  1  0  0  0  0  0  0
  160.8740  203.6370  151.0280 C   0  0  0  0  0  1  0  0  0  0  0  0
  1 12  1  0  0  0  0
  2  8  1  0  0  0  0
  3 11  2  0  0  0  0
  4 14  2  0  0  0  0
  5 10  2  0  0  0  0
  6  2  2  0  0  0  0
  6  5  1  0  0  0  0
  7 14  1  0  0  0  0
  8  3  1  0  0  0  0
  8  1  2  0  0  0  0
  9  4  2  0  0  0  0
 10  1  1  0  0  0  0
 11 17  1  0  0  0  0
 11 15  1  0  0  0  0
 12 15  2  0  0  0  0
 13  7  1  0  0  0  0
 13  2  1  0  0  0  0
 14  3  1  0  0  0  0
 17 16  1  1  0  0  0
 17 20  1  0  0  0  0
 18 21  2  0  0  0  0
 20 21  1  0  0  0  0
 21 19  1  0  0  0  0
 22  9  1  0  0  0  0
 23 22  1  1  0  0  0
 23 31  1  0  0  0  0
 25 23  1  1  0  0  0
 26 24  1  1  0  0  0
 26 25  1  0  0  0  0
 27 28  1  0  0  0  0
 28 29  1  0  0  0  0
 29 25  1  0  0  0  0
 30 26  1  0  0  0  0
 30 27  1  0  0  0  0
 31 32  1  0  0  0  0
 32 34  1  0  0  0  0
 33 32  1  0  0  0  0
M  END
>  <MODEL>
7

>  <REMARK>
 VINA RESULT:      -6.8      3.268      9.070
  Name = 
  7 active torsions:
  status: ('A' for Active; 'I' for Inactive)
    1  A    between atoms: C_3  and  C_13
    2  A    between atoms: C_3  and  C_17
    3  A    between atoms: C_3  and  C_29
    4  A    between atoms: C_7  and  C_17
    5  A    between atoms: C_18  and  C_29
    6  A    between atoms: C_21  and  C_28
    7  A    between atoms: N_23  and  C_28
                            x       y       z     vdW  Elec       q    Type
                         _______ _______ _______ _____ _____    ______ ____

>  <TORSDO>
F 7

$$$$
=
 OpenBabel11062408083D

 34 37  0  0  1  0  0  0  0  0999 V2000
  160.9170  204.7480  149.2540 C   0  0  0  0  0  0  0  0  0  0  0  0
  161.2160  204.7510  151.6760 C   0  0  0  0  0  0  0  0  0  0  0  0
  161.7050  206.7830  150.3710 C   0  0  0  0  0  0  0  0  0  0  0  0
  161.7960  208.6960  151.8850 C   0  0  0  0  0  0  0  0  0  0  0  0
  160.4330  202.7550  150.5410 C   0  0  0  0  0  3  0  0  0  0  0  0
  160.7840  203.4220  151.7170 C   0  0  0  0  0  3  0  0  0  0  0  0
  162.5160  206.5830  152.7870 C   0  0  0  0  0  2  0  0  0  0  0  0
  161.2810  205.4340  150.4370 C   0  0  0  0  0  0  0  0  0  0  0  0
  161.4530  209.9300  152.1240 C   0  0  0  0  0  3  0  0  0  0  0  0
  160.4990  203.4170  149.3130 C   0  0  0  0  0  3  0  0  0  0  0  0
  161.7600  207.4280  149.1090 C   0  0  0  0  0  0  0  0  0  0  0  0
  160.9710  205.4000  148.0240 C   0  0  0  0  0  3  0  0  0  0  0  0
  161.5040  205.4550  152.9730 C   0  0  0  0  0  2  0  0  0  0  0  0
  162.1030  207.4510  151.6410 C   0  0  0  0  0  0  0  0  0  0  0  0
  161.3920  206.7260  147.9530 C   0  0  0  0  0  3  0  0  0  0  0  0
  163.4770  208.8380  148.2610 O   0  0  0  0  0  1  0  0  0  0  0  0
  162.2680  208.8320  148.9620 C   0  0  1  0  0  3  0  0  0  0  0  0
  162.3370  211.6790  148.8030 O   0  0  0  0  0  1  0  0  0  0  0  0
  160.4560  211.8150  147.5050 O   0  0  0  0  0  0  0  0  0  0  0  0
  161.2890  209.6590  148.2720 N   0  0  0  0  0  2  0  0  0  0  0  0
  161.3990  211.0820  148.2120 C   0  0  0  0  0  0  0  0  0  0  0  0
  160.1330  210.2110  152.7640 C   0  0  0  0  0  2  0  0  0  0  0  0
  160.2740  210.6950  154.2120 C   0  0  1  0  0  3  0  0  0  0  0  0
  160.4790  212.4090  156.7220 O   0  0  0  0  0  1  0  0  0  0  0  0
  159.7000  212.1150  154.4280 C   0  0  2  0  0  3  0  0  0  0  0  0
  159.3530  212.4150  155.9000 C   0  0  1  0  0  3  0  0  0  0  0  0
  157.2600  211.0410  155.3850 C   0  0  0  0  0  2  0  0  0  0  0  0
  157.1130  212.0900  154.2860 C   0  0  0  0  0  2  0  0  0  0  0  0
  158.4450  212.3400  153.5580 C   0  0  0  0  0  2  0  0  0  0  0  0
  158.2660  211.4850  156.4550 C   0  0  0  0  0  2  0  0  0  0  0  0
  159.6620  209.6800  155.1830 C   0  0  0  0  0  2  0  0  0  0  0  0
  160.5970  208.5100  155.4420 C   0  0  0  0  0  3  0  0  0  0  0  0
  161.6540  208.9370  156.4380 C   0  0  0  0  0  1  0  0  0  0  0  0
  159.8320  207.3330  156.0160 C   0  0  0  0  0  1  0  0  0  0  0  0
  1 10  2  0  0  0  0
  1  8  1  0  0  0  0
  2  6  1  0  0  0  0
  2 13  1  0  0  0  0
  3  8  1  0  0  0  0
  3 14  1  0  0  0  0
  4  9  2  0  0  0  0
  5  6  2  0  0  0  0
  7 13  1  0  0  0  0
  8  2  2  0  0  0  0
  9 22  1  0  0  0  0
 10  5  1  0  0  0  0
 11  3  2  0  0  0  0
 12  1  1  0  0  0  0
 14  4  2  0  0  0  0
 14  7  1  0  0  0  0
 15 12  2  0  0  0  0
 15 11  1  0  0  0  0
 17 16  1  6  0  0  0
 17 11  1  0  0  0  0
 19 21  2  0  0  0  0
 20 17  1  0  0  0  0
 21 20  1  0  0  0  0
 21 18  1  0  0  0  0
 23 22  1  6  0  0  0
 23 31  1  0  0  0  0
 25 23  1  1  0  0  0
 25 26  1  0  0  0  0
 26 30  1  0  0  0  0
 26 24  1  1  0  0  0
 27 30  1  0  0  0  0
 28 27  1  0  0  0  0
 29 28  1  0  0  0  0
 29 25  1  0  0  0  0
 31 32  1  0  0  0  0
 32 34  1  0  0  0  0
 32 33  1  0  0  0  0
M  END
>  <MODEL>
8

>  <REMARK>
 VINA RESULT:      -6.7      1.682      2.364
  Name = 
  7 active torsions:
  status: ('A' for Active; 'I' for Inactive)
    1  A    between atoms: C_3  and  C_13
    2  A    between atoms: C_3  and  C_17
    3  A    between atoms: C_3  and  C_29
    4  A    between atoms: C_7  and  C_17
    5  A    between atoms: C_18  and  C_29
    6  A    between atoms: C_21  and  C_28
    7  A    between atoms: N_23  and  C_28
                            x       y       z     vdW  Elec       q    Type
                         _______ _______ _______ _____ _____    ______ ____

>  <TORSDO>
F 7

$$$$
=
 OpenBabel11062408083D

 34 37  0  0  1  0  0  0  0  0999 V2000
  161.2020  205.6040  149.5170 C   0  0  0  0  0  0  0  0  0  0  0  0
  161.0320  205.1990  151.9180 C   0  0  0  0  0  0  0  0  0  0  0  0
  161.4230  207.4820  151.0770 C   0  0  0  0  0  0  0  0  0  0  0  0
  160.9130  209.0800  152.8520 C   0  0  0  0  0  0  0  0  0  0  0  0
  160.8140  203.3630  150.3470 C   0  0  0  0  0  3  0  0  0  0  0  0
  160.8230  203.8420  151.6590 C   0  0  0  0  0  3  0  0  0  0  0  0
  161.7830  206.9460  153.5500 C   0  0  0  0  0  2  0  0  0  0  0  0
  161.2200  206.1010  150.8420 C   0  0  0  0  0  0  0  0  0  0  0  0
  160.3370  210.1950  153.1980 C   0  0  0  0  0  3  0  0  0  0  0  0
  161.0030  204.2430  149.2790 C   0  0  0  0  0  3  0  0  0  0  0  0
  161.6120  208.3500  149.9710 C   0  0  0  0  0  0  0  0  0  0  0  0
  161.3830  206.4720  148.4430 C   0  0  0  0  0  3  0  0  0  0  0  0
  160.9510  205.6840  153.3380 C   0  0  0  0  0  2  0  0  0  0  0  0
  161.4590  207.9500  152.4900 C   0  0  0  0  0  0  0  0  0  0  0  0
  161.5880  207.8320  148.6690 C   0  0  0  0  0  3  0  0  0  0  0  0
  163.0260  209.9790  150.9700 O   0  0  0  0  0  1  0  0  0  0  0  0
  161.9040  209.8110  150.1550 C   0  0  1  0  0  3  0  0  0  0  0  0
  161.2080  212.5020  149.5180 O   0  0  0  0  0  1  0  0  0  0  0  0
  162.0410  212.3850  147.3880 O   0  0  0  0  0  0  0  0  0  0  0  0
  162.1230  210.4530  148.8670 N   0  0  0  0  0  2  0  0  0  0  0  0
  161.7710  211.8150  148.6250 C   0  0  0  0  0  0  0  0  0  0  0  0
  158.8910  210.1820  153.5750 C   0  0  0  0  0  2  0  0  0  0  0  0
  158.4350  211.5090  154.1930 C   0  0  1  0  0  3  0  0  0  0  0  0
  159.7230  213.9410  155.4990 O   0  0  0  0  0  1  0  0  0  0  0  0
  159.0440  212.7420  153.4860 C   0  0  2  0  0  3  0  0  0  0  0  0
  158.9680  214.0290  154.3300 C   0  0  1  0  0  3  0  0  0  0  0  0
  156.5420  214.0690  153.5290 C   0  0  0  0  0  2  0  0  0  0  0  0
  157.2260  214.0320  152.1650 C   0  0  0  0  0  2  0  0  0  0  0  0
  158.3570  212.9910  152.1250 C   0  0  0  0  0  2  0  0  0  0  0  0
  157.5270  214.4530  154.6410 C   0  0  0  0  0  2  0  0  0  0  0  0
  156.9050  211.5820  154.2470 C   0  0  0  0  0  2  0  0  0  0  0  0
  156.3440  210.8280  155.4430 C   0  0  0  0  0  3  0  0  0  0  0  0
  155.8650  211.8270  156.4740 C   0  0  0  0  0  1  0  0  0  0  0  0
  155.1740  209.9590  155.0230 C   0  0  0  0  0  1  0  0  0  0  0  0
  1  8  1  0  0  0  0
  2 13  1  0  0  0  0
  3 14  1  0  0  0  0
  4  9  2  0  0  0  0
  5  6  2  0  0  0  0
  6  2  1  0  0  0  0
  8  3  1  0  0  0  0
  8  2  2  0  0  0  0
  9 22  1  0  0  0  0
 10  1  2  0  0  0  0
 10  5  1  0  0  0  0
 11 17  1  0  0  0  0
 11  3  2  0  0  0  0
 12 15  2  0  0  0  0
 12  1  1  0  0  0  0
 13  7  1  0  0  0  0
 14  4  2  0  0  0  0
 14  7  1  0  0  0  0
 15 11  1  0  0  0  0
 17 16  1  1  0  0  0
 19 21  2  0  0  0  0
 20 17  1  0  0  0  0
 21 20  1  0  0  0  0
 21 18  1  0  0  0  0
 23 22  1  6  0  0  0
 23 31  1  0  0  0  0
 25 23  1  1  0  0  0
 25 26  1  0  0  0  0
 26 30  1  0  0  0  0
 26 24  1  1  0  0  0
 27 30  1  0  0  0  0
 28 27  1  0  0  0  0
 29 28  1  0  0  0  0
 29 25  1  0  0  0  0
 31 32  1  0  0  0  0
 32 33  1  0  0  0  0
 34 32  1  0  0  0  0
M  END
>  <MODEL>
9

>  <REMARK>
 VINA RESULT:      -6.3      1.339      2.225
  Name = 
  7 active torsions:
  status: ('A' for Active; 'I' for Inactive)
    1  A    between atoms: C_3  and  C_13
    2  A    between atoms: C_3  and  C_17
    3  A    between atoms: C_3  and  C_29
    4  A    between atoms: C_7  and  C_17
    5  A    between atoms: C_18  and  C_29
    6  A    between atoms: C_21  and  C_28
    7  A    between atoms: N_23  and  C_28
                            x       y       z     vdW  Elec       q    Type
                         _______ _______ _______ _____ _____    ______ ____

>  <TORSDO>
F 7

$$$$
