=
 OpenBabel11052422343D

 31 35  0  0  1  0  0  0  0  0999 V2000
  161.2510  201.3260  150.0190 C   0  0  1  0  0  3  0  0  0  0  0  0
  161.1710  205.0650  149.2480 C   0  0  0  0  0  0  0  0  0  0  0  0
  161.2790  205.1890  147.8310 C   0  0  0  0  0  0  0  0  0  0  0  0
  160.7940  206.4630  154.3090 O   0  0  0  0  0  0  0  0  0  0  0  0
  160.8590  207.5090  153.6090 C   0  0  0  0  0  0  0  0  0  0  0  0
  161.4290  204.2110  145.6590 C   0  0  0  0  0  0  0  0  0  0  0  0
  161.1190  203.8170  149.9410 C   0  0  0  0  0  0  0  0  0  0  0  0
  160.8340  201.4540  151.3780 O   0  0  0  0  0  0  0  0  0  0  0  0
  161.3260  204.1010  147.0100 N   0  0  0  0  0  0  0  0  0  0  0  0
  161.0130  206.2030  151.4120 C   0  0  0  0  0  0  0  0  0  0  0  0
  160.4630  200.3960  149.3690 F   0  0  0  0  0  0  0  0  0  0  0  0
  161.2890  207.5870  148.0270 N   0  0  0  0  0  0  0  0  0  0  0  0
  161.4730  203.0960  144.8920 F   0  0  0  0  0  0  0  0  0  0  0  0
  160.9340  204.9980  152.0300 N   0  0  0  0  0  0  0  0  0  0  0  0
  161.1220  206.2610  150.0150 C   0  0  0  0  0  0  0  0  0  0  0  0
  160.9690  207.4160  152.1810 N   0  0  0  0  0  2  0  0  0  0  0  0
  161.2010  202.6410  149.2960 C   0  0  0  0  0  3  0  0  0  0  0  0
  161.4890  205.4690  145.0610 C   0  0  0  0  0  3  0  0  0  0  0  0
  160.9760  203.8250  151.3510 C   0  0  0  0  0  0  0  0  0  0  0  0
  160.8280  202.6870  152.0350 C   0  0  0  0  0  3  0  0  0  0  0  0
  161.1840  207.5040  149.3740 C   0  0  0  0  0  3  0  0  0  0  0  0
  161.3360  206.4770  147.2510 C   0  0  0  0  0  0  0  0  0  0  0  0
  161.4410  206.6060  145.8650 C   0  0  0  0  0  3  0  0  0  0  0  0
  160.7090  211.4160  155.3860 C   0  0  0  0  0  0  0  0  0  0  0  0
  160.2450  209.9150  153.5500 C   0  0  0  0  0  3  0  0  0  0  0  0
  161.9330  208.0630  156.2860 O   0  0  0  0  0  1  0  0  0  0  0  0
  160.6510  212.6840  155.9460 O   0  0  0  0  0  1  0  0  0  0  0  0
  160.1870  211.1910  154.1120 C   0  0  0  0  0  3  0  0  0  0  0  0
  161.3490  209.0820  155.5420 C   0  0  0  0  0  0  0  0  0  0  0  0
  160.8240  208.8440  154.2510 C   0  0  0  0  0  0  0  0  0  0  0  0
  161.2870  210.3640  156.0980 C   0  0  0  0  0  3  0  0  0  0  0  0
  1 11  1  6  0  0  0
  1  8  1  0  0  0  0
  2  7  1  0  0  0  0
  2 15  1  0  0  0  0
  3  2  2  0  0  0  0
  5 30  1  0  0  0  0
  5  4  2  0  0  0  0
  6  9  2  0  0  0  0
  7 19  1  0  0  0  0
  8 20  1  0  0  0  0
  9  3  1  0  0  0  0
 10 14  2  0  0  0  0
 10 16  1  0  0  0  0
 12 21  1  0  0  0  0
 13  6  1  0  0  0  0
 15 10  1  0  0  0  0
 16  5  1  0  0  0  0
 17  7  2  0  0  0  0
 17  1  1  0  0  0  0
 18  6  1  0  0  0  0
 18 23  2  0  0  0  0
 19 14  1  0  0  0  0
 19 20  2  0  0  0  0
 21 15  2  0  0  0  0
 22  3  1  0  0  0  0
 22 12  2  0  0  0  0
 23 22  1  0  0  0  0
 24 27  1  0  0  0  0
 24 31  1  0  0  0  0
 25 28  1  0  0  0  0
 25 30  2  0  0  0  0
 28 24  2  0  0  0  0
 29 31  2  0  0  0  0
 29 26  1  0  0  0  0
 30 29  1  0  0  0  0
M  END
>  <MODEL>
1

>  <REMARK>
 VINA RESULT:     -10.4      0.000      0.000
  Name = 
  1 active torsions:
  status: ('A' for Active; 'I' for Inactive)
    1  A    between atoms: C_9  and  C_22
                            x       y       z     vdW  Elec       q    Type
                         _______ _______ _______ _____ _____    ______ ____

>  <TORSDO>
F 1

$$$$
=
 OpenBabel11052422343D

 31 35  0  0  1  0  0  0  0  0999 V2000
  161.5780  205.3400  145.7800 C   0  0  1  0  0  3  0  0  0  0  0  0
  161.2060  204.4830  149.4830 C   0  0  0  0  0  0  0  0  0  0  0  0
  161.1060  203.0630  149.5610 C   0  0  0  0  0  0  0  0  0  0  0  0
  161.3260  209.5140  151.0250 O   0  0  0  0  0  0  0  0  0  0  0  0
  161.1420  208.7890  152.0400 C   0  0  0  0  0  0  0  0  0  0  0  0
  161.1120  200.9120  148.5250 C   0  0  0  0  0  0  0  0  0  0  0  0
  161.4010  205.2060  148.2660 C   0  0  0  0  0  0  0  0  0  0  0  0
  161.9550  206.7010  145.9880 O   0  0  0  0  0  0  0  0  0  0  0  0
  161.2070  202.2660  148.4580 N   0  0  0  0  0  0  0  0  0  0  0  0
  161.1870  206.6220  150.6780 C   0  0  0  0  0  0  0  0  0  0  0  0
  162.4870  204.7230  144.9410 F   0  0  0  0  0  0  0  0  0  0  0  0
  160.7940  203.2020  151.9430 N   0  0  0  0  0  0  0  0  0  0  0  0
  161.2200  200.1710  147.3970 F   0  0  0  0  0  0  0  0  0  0  0  0
  161.4050  207.2690  149.5050 N   0  0  0  0  0  0  0  0  0  0  0  0
  161.0930  205.2220  150.6920 C   0  0  0  0  0  0  0  0  0  0  0  0
  161.0670  207.3630  151.9030 N   0  0  0  0  0  2  0  0  0  0  0  0
  161.4760  204.5870  147.0750 C   0  0  0  0  0  3  0  0  0  0  0  0
  160.9060  200.2840  149.7530 C   0  0  0  0  0  3  0  0  0  0  0  0
  161.5200  206.6170  148.3220 C   0  0  0  0  0  0  0  0  0  0  0  0
  161.7970  207.3290  147.2270 C   0  0  0  0  0  3  0  0  0  0  0  0
  160.8870  204.5520  151.9030 C   0  0  0  0  0  3  0  0  0  0  0  0
  160.8980  202.4510  150.8190 C   0  0  0  0  0  0  0  0  0  0  0  0
  160.7990  201.0620  150.9040 C   0  0  0  0  0  3  0  0  0  0  0  0
  160.7570  210.4690  155.9740 C   0  0  0  0  0  0  0  0  0  0  0  0
  161.2060  208.5960  154.5150 C   0  0  0  0  0  3  0  0  0  0  0  0
  160.4560  211.6100  152.4860 O   0  0  0  0  0  1  0  0  0  0  0  0
  160.6370  210.9960  157.2510 O   0  0  0  0  0  1  0  0  0  0  0  0
  161.0860  209.1250  155.8010 C   0  0  0  0  0  3  0  0  0  0  0  0
  160.6700  210.7630  153.5680 C   0  0  0  0  0  0  0  0  0  0  0  0
  161.0020  209.4000  153.3820 C   0  0  0  0  0  0  0  0  0  0  0  0
  160.5500  211.2850  154.8590 C   0  0  0  0  0  3  0  0  0  0  0  0
  1 11  1  6  0  0  0
  1  8  1  0  0  0  0
  1 17  1  0  0  0  0
  2  3  2  0  0  0  0
  2 15  1  0  0  0  0
  3 22  1  0  0  0  0
  4  5  2  0  0  0  0
  5 30  1  0  0  0  0
  6 18  1  0  0  0  0
  7 19  1  0  0  0  0
  7  2  1  0  0  0  0
  8 20  1  0  0  0  0
  9  6  2  0  0  0  0
  9  3  1  0  0  0  0
 10 15  1  0  0  0  0
 10 16  1  0  0  0  0
 13  6  1  0  0  0  0
 14 10  2  0  0  0  0
 15 21  2  0  0  0  0
 16  5  1  0  0  0  0
 17  7  2  0  0  0  0
 18 23  2  0  0  0  0
 19 14  1  0  0  0  0
 20 19  2  0  0  0  0
 21 12  1  0  0  0  0
 22 23  1  0  0  0  0
 22 12  2  0  0  0  0
 24 27  1  0  0  0  0
 25 28  2  0  0  0  0
 26 29  1  0  0  0  0
 28 24  1  0  0  0  0
 29 31  1  0  0  0  0
 30 29  2  0  0  0  0
 30 25  1  0  0  0  0
 31 24  2  0  0  0  0
M  END
>  <MODEL>
2

>  <REMARK>
 VINA RESULT:     -10.0      2.093      4.173
  Name = 
  1 active torsions:
  status: ('A' for Active; 'I' for Inactive)
    1  A    between atoms: C_9  and  C_22
                            x       y       z     vdW  Elec       q    Type
                         _______ _______ _______ _____ _____    ______ ____

>  <TORSDO>
F 1

$$$$
=
 OpenBabel11052422343D

 31 35  0  0  1  0  0  0  0  0999 V2000
  162.1450  211.0270  150.0580 C   0  0  1  0  0  3  0  0  0  0  0  0
  161.3830  207.5380  151.4120 C   0  0  0  0  0  0  0  0  0  0  0  0
  161.2340  207.6760  152.8240 C   0  0  0  0  0  0  0  0  0  0  0  0
  161.6510  205.2530  146.6780 O   0  0  0  0  0  0  0  0  0  0  0  0
  161.4430  204.3590  147.5430 C   0  0  0  0  0  0  0  0  0  0  0  0
  161.1640  209.0270  154.7920 C   0  0  0  0  0  0  0  0  0  0  0  0
  161.6330  208.6280  150.5240 C   0  0  0  0  0  0  0  0  0  0  0  0
  161.9450  210.6900  148.6850 O   0  0  0  0  0  0  0  0  0  0  0  0
  161.3050  208.8880  153.4470 N   0  0  0  0  0  0  0  0  0  0  0  0
  161.4210  206.0340  149.4790 C   0  0  0  0  0  0  0  0  0  0  0  0
  161.4060  212.1480  150.3810 F   0  0  0  0  0  0  0  0  0  0  0  0
  160.9220  205.3000  153.0380 N   0  0  0  0  0  0  0  0  0  0  0  0
  161.2440  210.2550  155.3560 F   0  0  0  0  0  0  0  0  0  0  0  0
  161.6260  207.1000  148.6650 N   0  0  0  0  0  0  0  0  0  0  0  0
  161.2860  206.2310  150.8610 C   0  0  0  0  0  0  0  0  0  0  0  0
  161.3270  204.7100  148.9290 N   0  0  0  0  0  2  0  0  0  0  0  0
  161.7800  209.8880  150.9680 C   0  0  0  0  0  3  0  0  0  0  0  0
  160.9360  207.9070  155.5910 C   0  0  0  0  0  3  0  0  0  0  0  0
  161.7270  208.3680  149.1340 C   0  0  0  0  0  0  0  0  0  0  0  0
  161.8660  209.3630  148.2540 C   0  0  0  0  0  3  0  0  0  0  0  0
  161.0560  205.1350  151.7000 C   0  0  0  0  0  3  0  0  0  0  0  0
  161.0020  206.5240  153.6120 C   0  0  0  0  0  0  0  0  0  0  0  0
  160.8550  206.6510  154.9940 C   0  0  0  0  0  3  0  0  0  0  0  0
  161.1060  200.2150  146.4640 C   0  0  0  0  0  0  0  0  0  0  0  0
  161.5850  201.9400  148.0870 C   0  0  0  0  0  3  0  0  0  0  0  0
  160.6590  203.4930  144.8480 O   0  0  0  0  0  1  0  0  0  0  0  0
  161.0010  198.8730  146.1320 O   0  0  0  0  0  1  0  0  0  0  0  0
  161.4800  200.5890  147.7550 C   0  0  0  0  0  3  0  0  0  0  0  0
  160.9380  202.5510  145.8320 C   0  0  0  0  0  0  0  0  0  0  0  0
  161.3170  202.9390  147.1380 C   0  0  0  0  0  0  0  0  0  0  0  0
  160.8360  201.1950  145.5060 C   0  0  0  0  0  3  0  0  0  0  0  0
  1 11  1  1  0  0  0
  1 17  1  0  0  0  0
  2  3  1  0  0  0  0
  3  9  2  0  0  0  0
  3 22  1  0  0  0  0
  4  5  2  0  0  0  0
  5 16  1  0  0  0  0
  6 13  1  0  0  0  0
  6 18  2  0  0  0  0
  7 17  2  0  0  0  0
  7  2  1  0  0  0  0
  8  1  1  0  0  0  0
  9  6  1  0  0  0  0
 10 15  1  0  0  0  0
 12 22  1  0  0  0  0
 14 19  1  0  0  0  0
 14 10  2  0  0  0  0
 15  2  2  0  0  0  0
 15 21  1  0  0  0  0
 16 10  1  0  0  0  0
 19  7  1  0  0  0  0
 20  8  1  0  0  0  0
 20 19  2  0  0  0  0
 21 12  2  0  0  0  0
 22 23  2  0  0  0  0
 23 18  1  0  0  0  0
 24 28  1  0  0  0  0
 26 29  1  0  0  0  0
 27 24  1  0  0  0  0
 28 25  2  0  0  0  0
 29 30  2  0  0  0  0
 30  5  1  0  0  0  0
 30 25  1  0  0  0  0
 31 29  1  0  0  0  0
 31 24  2  0  0  0  0
M  END
>  <MODEL>
3

>  <REMARK>
 VINA RESULT:      -9.8      4.136      9.179
  Name = 
  1 active torsions:
  status: ('A' for Active; 'I' for Inactive)
    1  A    between atoms: C_9  and  C_22
                            x       y       z     vdW  Elec       q    Type
                         _______ _______ _______ _____ _____    ______ ____

>  <TORSDO>
F 1

$$$$
=
 OpenBabel11052422343D

 31 35  0  0  1  0  0  0  0  0999 V2000
  161.3110  203.7720  152.4690 C   0  0  1  0  0  3  0  0  0  0  0  0
  161.2610  204.8960  148.8200 C   0  0  0  0  0  0  0  0  0  0  0  0
  161.1680  203.7110  148.0320 C   0  0  0  0  0  0  0  0  0  0  0  0
  161.6720  210.0050  150.0170 O   0  0  0  0  0  0  0  0  0  0  0  0
  161.6750  209.8870  148.7610 C   0  0  0  0  0  0  0  0  0  0  0  0
  160.9660  201.3390  147.8510 C   0  0  0  0  0  0  0  0  0  0  0  0
  161.2630  204.9110  150.2480 C   0  0  0  0  0  0  0  0  0  0  0  0
  161.0990  205.0720  153.0190 O   0  0  0  0  0  0  0  0  0  0  0  0
  161.0550  202.4730  148.5950 N   0  0  0  0  0  0  0  0  0  0  0  0
  161.4600  207.3380  148.8570 C   0  0  0  0  0  0  0  0  0  0  0  0
  160.4020  202.8800  153.0050 F   0  0  0  0  0  0  0  0  0  0  0  0
  161.2970  205.0210  146.0180 N   0  0  0  0  0  0  0  0  0  0  0  0
  160.8560  200.1360  148.4640 F   0  0  0  0  0  0  0  0  0  0  0  0
  161.4260  207.3110  150.2130 N   0  0  0  0  0  0  0  0  0  0  0  0
  161.3680  206.1380  148.1360 C   0  0  0  0  0  0  0  0  0  0  0  0
  161.5740  208.5890  148.1590 N   0  0  0  0  0  2  0  0  0  0  0  0
  161.2060  203.7790  150.9710 C   0  0  0  0  0  3  0  0  0  0  0  0
  160.9860  201.4110  146.4590 C   0  0  0  0  0  3  0  0  0  0  0  0
  161.3250  206.1580  150.9180 C   0  0  0  0  0  0  0  0  0  0  0  0
  161.2350  206.2310  152.2490 C   0  0  0  0  0  3  0  0  0  0  0  0
  161.3840  206.1650  146.7370 C   0  0  0  0  0  3  0  0  0  0  0  0
  161.1890  203.8120  146.6220 C   0  0  0  0  0  0  0  0  0  0  0  0
  161.0980  202.6570  145.8450 C   0  0  0  0  0  3  0  0  0  0  0  0
  161.8930  213.3400  146.2160 C   0  0  0  0  0  0  0  0  0  0  0  0
  160.7060  211.4080  147.0540 C   0  0  0  0  0  3  0  0  0  0  0  0
  164.0240  211.6490  148.6960 O   0  0  0  0  0  1  0  0  0  0  0  0
  161.9470  214.4510  145.3880 O   0  0  0  0  0  1  0  0  0  0  0  0
  160.7590  212.5260  146.2200 C   0  0  0  0  0  3  0  0  0  0  0  0
  162.9270  211.9160  147.8850 C   0  0  0  0  0  0  0  0  0  0  0  0
  161.7830  211.0850  147.8960 C   0  0  0  0  0  0  0  0  0  0  0  0
  162.9720  213.0340  147.0460 C   0  0  0  0  0  3  0  0  0  0  0  0
  1 11  1  1  0  0  0
  1  8  1  0  0  0  0
  2  7  1  0  0  0  0
  3  9  1  0  0  0  0
  3  2  2  0  0  0  0
  5  4  2  0  0  0  0
  6 13  1  0  0  0  0
  6  9  2  0  0  0  0
  7 19  1  0  0  0  0
  7 17  2  0  0  0  0
 10 14  2  0  0  0  0
 12 22  2  0  0  0  0
 12 21  1  0  0  0  0
 14 19  1  0  0  0  0
 15  2  1  0  0  0  0
 15 10  1  0  0  0  0
 16  5  1  0  0  0  0
 16 10  1  0  0  0  0
 17  1  1  0  0  0  0
 18  6  1  0  0  0  0
 19 20  2  0  0  0  0
 20  8  1  0  0  0  0
 21 15  2  0  0  0  0
 22  3  1  0  0  0  0
 23 18  2  0  0  0  0
 23 22  1  0  0  0  0
 24 28  2  0  0  0  0
 24 31  1  0  0  0  0
 25 30  2  0  0  0  0
 27 24  1  0  0  0  0
 28 25  1  0  0  0  0
 29 30  1  0  0  0  0
 29 26  1  0  0  0  0
 30  5  1  0  0  0  0
 31 29  2  0  0  0  0
M  END
>  <MODEL>
4

>  <REMARK>
 VINA RESULT:      -9.1      3.851      5.304
  Name = 
  1 active torsions:
  status: ('A' for Active; 'I' for Inactive)
    1  A    between atoms: C_9  and  C_22
                            x       y       z     vdW  Elec       q    Type
                         _______ _______ _______ _____ _____    ______ ____

>  <TORSDO>
F 1

$$$$
