=
 OpenBabel11062408253D

 32 37  0  0  1  0  0  0  0  0999 V2000
  161.7890  208.8150  150.1140 C   0  0  0  0  0  0  0  0  0  0  0  0
  160.9500  207.4760  152.1320 C   0  0  1  0  0  3  0  0  0  0  0  0
  162.2690  208.8630  148.7980 C   0  0  0  0  0  3  0  0  0  0  0  0
  161.3180  207.5810  150.6490 C   0  0  0  0  0  0  0  0  0  0  0  0
  161.6620  206.3340  152.8980 C   0  0  2  0  0  3  0  0  0  0  0  0
  160.8790  209.8360  156.6130 C   0  0  0  0  0  2  0  0  0  0  0  0
  161.2520  208.7640  152.9200 C   0  0  1  0  0  3  0  0  0  0  0  0
  160.5210  207.3450  156.4560 C   0  0  0  0  0  2  0  0  0  0  0  0
  161.1890  207.5070  155.0840 C   0  0  1  0  0  3  0  0  0  0  0  0
  161.6100  204.9580  152.2450 C   0  0  2  0  0  3  0  0  0  0  0  0
  161.1200  206.4930  149.7510 C   0  0  0  0  0  0  0  0  0  0  0  0
  161.0490  206.2080  154.2940 C   0  0  0  0  0  2  0  0  0  0  0  0
  160.3240  205.2480  150.0490 C   0  0  0  0  0  2  0  0  0  0  0  0
  161.5750  206.5920  148.4330 C   0  0  0  0  0  3  0  0  0  0  0  0
  160.8560  209.9900  152.1280 C   0  0  0  0  0  2  0  0  0  0  0  0
  162.7370  204.7280  151.4520 O   0  0  0  0  0  1  0  0  0  0  0  0
  161.8050  210.0860  150.9420 C   0  0  2  0  0  3  0  0  0  0  0  0
  160.6160  208.7080  154.3120 C   0  0  1  0  0  3  0  0  0  0  0  0
  160.3090  204.7310  151.4860 C   0  0  0  0  0  2  0  0  0  0  0  0
  162.1770  207.7540  147.9660 C   0  0  0  0  0  3  0  0  0  0  0  0
  160.0030  208.6640  157.0430 C   0  0  0  0  0  2  0  0  0  0  0  0
  160.8680  210.0130  155.0890 C   0  0  0  0  0  2  0  0  0  0  0  0
  160.3190  213.4230  149.8810 C   0  0  0  0  0  0  0  0  0  0  0  0
  159.3620  214.4530  150.3730 C   0  0  0  0  0  1  0  0  0  0  0  0
  161.4940  211.3230  150.1430 C   0  0  0  0  0  0  0  0  0  0  0  0
  160.9350  213.6070  148.6830 N   0  0  0  0  0  0  0  0  0  0  0  0
  162.1110  211.5420  148.9040 C   0  0  0  0  0  3  0  0  0  0  0  0
  160.5880  212.2730  150.6380 C   0  0  0  0  0  0  0  0  0  0  0  0
  159.9640  212.0770  151.8670 O   0  0  0  0  0  1  0  0  0  0  0  0
  161.8190  212.7010  148.1850 C   0  0  0  0  0  0  0  0  0  0  0  0
  161.0020  213.1160  145.7490 C   0  0  0  0  0  1  0  0  0  0  0  0
  162.5980  212.9890  146.6040 S   0  0  0  0  0  0  0  0  0  0  0  0
  1  4  1  0  0  0  0
  1 17  1  0  0  0  0
  2  4  1  6  0  0  0
  2  5  1  0  0  0  0
  2  7  1  0  0  0  0
  3  1  2  0  0  0  0
  5 12  1  1  0  0  0
  6 21  1  0  0  0  0
  7 15  1  6  0  0  0
  7 18  1  0  0  0  0
  8 21  1  0  0  0  0
  9 12  1  6  0  0  0
  9  8  1  0  0  0  0
 10 16  1  6  0  0  0
 10  5  1  0  0  0  0
 11 13  1  0  0  0  0
 11  4  2  0  0  0  0
 13 19  1  0  0  0  0
 14 11  1  0  0  0  0
 17 25  1  6  0  0  0
 17 15  1  0  0  0  0
 18  9  1  0  0  0  0
 18 22  1  1  0  0  0
 19 10  1  0  0  0  0
 20 14  2  0  0  0  0
 20  3  1  0  0  0  0
 22  6  1  0  0  0  0
 23 24  1  0  0  0  0
 23 28  1  0  0  0  0
 25 28  2  0  0  0  0
 26 23  2  0  0  0  0
 27 25  1  0  0  0  0
 28 29  1  0  0  0  0
 30 26  1  0  0  0  0
 30 27  2  0  0  0  0
 31 32  1  0  0  0  0
 32 30  1  0  0  0  0
M  END
>  <MODEL>
1

>  <REMARK>
 VINA RESULT:      -8.8      0.000      0.000
  Name = 
  2 active torsions:
  status: ('A' for Active; 'I' for Inactive)
    1  A    between atoms: S_15  and  C_26
    2  A    between atoms: C_16  and  C_27
                            x       y       z     vdW  Elec       q    Type
                         _______ _______ _______ _____ _____    ______ ____

>  <TORSDO>
F 2

$$$$
=
 OpenBabel11062408253D

 32 37  0  0  1  0  0  0  0  0999 V2000
  161.7250  207.4510  150.0940 C   0  0  0  0  0  0  0  0  0  0  0  0
  161.0730  205.3600  148.7620 C   0  0  1  0  0  3  0  0  0  0  0  0
  162.1510  208.7860  150.1360 C   0  0  0  0  0  3  0  0  0  0  0  0
  161.3750  206.8600  148.8460 C   0  0  0  0  0  0  0  0  0  0  0  0
  161.9030  204.5890  147.7060 C   0  0  2  0  0  3  0  0  0  0  0  0
  160.9810  200.9540  151.2580 C   0  0  0  0  0  2  0  0  0  0  0  0
  161.3000  204.6250  150.0950 C   0  0  1  0  0  3  0  0  0  0  0  0
  160.8180  201.0210  148.7420 C   0  0  0  0  0  2  0  0  0  0  0  0
  161.4190  202.4230  148.9100 C   0  0  1  0  0  3  0  0  0  0  0  0
  161.9370  205.1970  146.3090 C   0  0  2  0  0  3  0  0  0  0  0  0
  161.2320  207.7150  147.7160 C   0  0  0  0  0  0  0  0  0  0  0  0
  161.3540  203.1660  147.5790 C   0  0  0  0  0  2  0  0  0  0  0  0
  160.5500  207.3480  146.4220 C   0  0  0  0  0  2  0  0  0  0  0  0
  161.6280  209.0530  147.8060 C   0  0  0  0  0  3  0  0  0  0  0  0
  160.7770  205.4370  151.2590 C   0  0  0  0  0  2  0  0  0  0  0  0
  163.0480  206.0280  146.1430 O   0  0  0  0  0  1  0  0  0  0  0  0
  161.6700  206.6630  151.3900 C   0  0  2  0  0  3  0  0  0  0  0  0
  160.7230  203.2080  150.0360 C   0  0  1  0  0  3  0  0  0  0  0  0
  160.6310  205.8970  145.9550 C   0  0  0  0  0  2  0  0  0  0  0  0
  162.1170  209.5790  148.9960 C   0  0  0  0  0  3  0  0  0  0  0  0
  160.2190  200.4540  150.0350 C   0  0  0  0  0  2  0  0  0  0  0  0
  160.8990  202.4810  151.3830 C   0  0  0  0  0  2  0  0  0  0  0  0
  160.6760  207.6740  154.9190 C   0  0  0  0  0  0  0  0  0  0  0  0
  160.5020  207.0730  156.2710 C   0  0  0  0  0  1  0  0  0  0  0  0
  161.2310  207.4860  152.5710 C   0  0  0  0  0  0  0  0  0  0  0  0
  160.4410  209.0020  154.7480 N   0  0  0  0  0  0  0  0  0  0  0  0
  160.9800  208.8570  152.4270 C   0  0  0  0  0  3  0  0  0  0  0  0
  161.0780  206.8870  153.8300 C   0  0  0  0  0  0  0  0  0  0  0  0
  161.3240  205.5260  153.9960 O   0  0  0  0  0  1  0  0  0  0  0  0
  160.5860  209.6050  153.5370 C   0  0  0  0  0  0  0  0  0  0  0  0
  160.3950  211.6370  155.1520 C   0  0  0  0  0  1  0  0  0  0  0  0
  160.2610  211.3530  153.3640 S   0  0  0  0  0  0  0  0  0  0  0  0
  1  3  1  0  0  0  0
  1 17  1  0  0  0  0
  2  4  1  1  0  0  0
  2  7  1  0  0  0  0
  4  1  2  0  0  0  0
  5 12  1  6  0  0  0
  5  2  1  0  0  0  0
  6 22  1  0  0  0  0
  7 15  1  1  0  0  0
  8  9  1  0  0  0  0
  8 21  1  0  0  0  0
  9 12  1  6  0  0  0
  9 18  1  0  0  0  0
 10 16  1  1  0  0  0
 10  5  1  0  0  0  0
 11 14  2  0  0  0  0
 11  4  1  0  0  0  0
 13 11  1  0  0  0  0
 14 20  1  0  0  0  0
 15 17  1  0  0  0  0
 17 25  1  1  0  0  0
 18  7  1  0  0  0  0
 18 22  1  1  0  0  0
 19 10  1  0  0  0  0
 19 13  1  0  0  0  0
 20  3  2  0  0  0  0
 21  6  1  0  0  0  0
 23 24  1  0  0  0  0
 25 28  1  0  0  0  0
 26 23  1  0  0  0  0
 27 25  2  0  0  0  0
 27 30  1  0  0  0  0
 28 29  1  0  0  0  0
 28 23  2  0  0  0  0
 30 26  2  0  0  0  0
 32 30  1  0  0  0  0
 32 31  1  0  0  0  0
M  END
>  <MODEL>
2

>  <REMARK>
 VINA RESULT:      -8.8      3.068      6.439
  Name = 
  2 active torsions:
  status: ('A' for Active; 'I' for Inactive)
    1  A    between atoms: S_15  and  C_26
    2  A    between atoms: C_16  and  C_27
                            x       y       z     vdW  Elec       q    Type
                         _______ _______ _______ _____ _____    ______ ____

>  <TORSDO>
F 2

$$$$
=
 OpenBabel11062408253D

 32 37  0  0  1  0  0  0  0  0999 V2000
  161.7500  209.4940  149.9780 C   0  0  0  0  0  0  0  0  0  0  0  0
  160.9880  208.4680  152.2000 C   0  0  1  0  0  3  0  0  0  0  0  0
  162.2510  209.3480  148.6760 C   0  0  0  0  0  3  0  0  0  0  0  0
  161.3750  208.3390  150.7230 C   0  0  0  0  0  0  0  0  0  0  0  0
  161.7790  207.5460  153.1610 C   0  0  2  0  0  3  0  0  0  0  0  0
  160.6310  211.5730  156.1860 C   0  0  0  0  0  2  0  0  0  0  0  0
  161.1650  209.8970  152.7450 C   0  0  1  0  0  3  0  0  0  0  0  0
  160.4870  209.0720  156.4750 C   0  0  0  0  0  2  0  0  0  0  0  0
  161.1650  209.0440  155.1000 C   0  0  1  0  0  3  0  0  0  0  0  0
  161.8560  206.0770  152.7650 C   0  0  2  0  0  3  0  0  0  0  0  0
  161.2870  207.0960  150.0340 C   0  0  0  0  0  0  0  0  0  0  0  0
  161.1510  207.6190  154.5540 C   0  0  0  0  0  2  0  0  0  0  0  0
  160.5930  205.8590  150.5470 C   0  0  0  0  0  2  0  0  0  0  0  0
  161.7580  206.9970  148.7220 C   0  0  0  0  0  3  0  0  0  0  0  0
  160.6830  210.9240  151.7450 C   0  0  0  0  0  2  0  0  0  0  0  0
  163.0130  205.8080  152.0300 O   0  0  0  0  0  1  0  0  0  0  0  0
  161.6430  210.8880  150.5650 C   0  0  2  0  0  3  0  0  0  0  0  0
  160.5090  210.0350  154.1220 C   0  0  1  0  0  3  0  0  0  0  0  0
  160.5940  205.6070  152.0530 C   0  0  0  0  0  2  0  0  0  0  0  0
  162.2690  208.1050  148.0570 C   0  0  0  0  0  3  0  0  0  0  0  0
  159.8490  210.4250  156.8150 C   0  0  0  0  0  2  0  0  0  0  0  0
  160.6350  211.4750  154.6540 C   0  0  0  0  0  2  0  0  0  0  0  0
  161.7790  213.3540  147.6720 C   0  0  0  0  0  0  0  0  0  0  0  0
  162.7380  213.8620  146.6520 C   0  0  0  0  0  1  0  0  0  0  0  0
  161.2450  211.9320  149.5560 C   0  0  0  0  0  0  0  0  0  0  0  0
  160.5090  213.8380  147.6890 N   0  0  0  0  0  0  0  0  0  0  0  0
  159.9440  212.4510  149.5480 C   0  0  0  0  0  3  0  0  0  0  0  0
  162.1740  212.3870  148.6090 C   0  0  0  0  0  0  0  0  0  0  0  0
  163.4720  211.8830  148.5980 O   0  0  0  0  0  1  0  0  0  0  0  0
  159.5910  213.4090  148.5960 C   0  0  0  0  0  0  0  0  0  0  0  0
  157.3390  212.7920  147.4450 C   0  0  0  0  0  1  0  0  0  0  0  0
  157.9360  214.0800  148.5770 S   0  0  0  0  0  0  0  0  0  0  0  0
  1 17  1  0  0  0  0
  1  4  1  0  0  0  0
  2  4  1  6  0  0  0
  2  7  1  0  0  0  0
  2  5  1  0  0  0  0
  3  1  2  0  0  0  0
  5 12  1  1  0  0  0
  6 21  1  0  0  0  0
  7 15  1  6  0  0  0
  7 18  1  0  0  0  0
  8 21  1  0  0  0  0
  9 12  1  6  0  0  0
  9  8  1  0  0  0  0
 10 16  1  6  0  0  0
 10  5  1  0  0  0  0
 11 13  1  0  0  0  0
 11  4  2  0  0  0  0
 13 19  1  0  0  0  0
 14 11  1  0  0  0  0
 17 25  1  6  0  0  0
 17 15  1  0  0  0  0
 18 22  1  1  0  0  0
 18  9  1  0  0  0  0
 19 10  1  0  0  0  0
 20  3  1  0  0  0  0
 20 14  2  0  0  0  0
 22  6  1  0  0  0  0
 23 26  2  0  0  0  0
 23 28  1  0  0  0  0
 24 23  1  0  0  0  0
 26 30  1  0  0  0  0
 27 25  1  0  0  0  0
 28 25  2  0  0  0  0
 29 28  1  0  0  0  0
 30 27  2  0  0  0  0
 31 32  1  0  0  0  0
 32 30  1  0  0  0  0
M  END
>  <MODEL>
3

>  <REMARK>
 VINA RESULT:      -7.7      1.732      2.166
  Name = 
  2 active torsions:
  status: ('A' for Active; 'I' for Inactive)
    1  A    between atoms: S_15  and  C_26
    2  A    between atoms: C_16  and  C_27
                            x       y       z     vdW  Elec       q    Type
                         _______ _______ _______ _____ _____    ______ ____

>  <TORSDO>
F 2

$$$$
=
 OpenBabel11062408253D

 32 37  0  0  1  0  0  0  0  0999 V2000
  160.8310  205.6170  151.1150 C   0  0  0  0  0  0  0  0  0  0  0  0
  161.3240  204.0110  149.1780 C   0  0  1  0  0  3  0  0  0  0  0  0
  160.5460  205.8420  152.4690 C   0  0  0  0  0  3  0  0  0  0  0  0
  161.1770  204.3070  150.6740 C   0  0  0  0  0  0  0  0  0  0  0  0
  160.4700  202.8260  148.6640 C   0  0  2  0  0  3  0  0  0  0  0  0
  160.8310  205.8290  144.4760 C   0  0  0  0  0  2  0  0  0  0  0  0
  160.9570  205.2130  148.2890 C   0  0  1  0  0  3  0  0  0  0  0  0
  161.1230  203.3570  144.8860 C   0  0  0  0  0  2  0  0  0  0  0  0
  160.6650  203.7110  146.3070 C   0  0  1  0  0  3  0  0  0  0  0  0
  160.5680  201.5350  149.4670 C   0  0  2  0  0  3  0  0  0  0  0  0
  161.4640  203.3220  151.6620 C   0  0  0  0  0  0  0  0  0  0  0  0
  160.8720  202.5080  147.2220 C   0  0  0  0  0  2  0  0  0  0  0  0
  162.1660  202.0110  151.4110 C   0  0  0  0  0  2  0  0  0  0  0  0
  161.2070  203.5960  153.0080 C   0  0  0  0  0  3  0  0  0  0  0  0
  161.5040  206.5010  148.8620 C   0  0  0  0  0  2  0  0  0  0  0  0
  159.5600  201.4570  150.4310 O   0  0  0  0  0  1  0  0  0  0  0  0
  160.7400  206.7820  150.1470 C   0  0  2  0  0  3  0  0  0  0  0  0
  161.3840  204.9630  146.8400 C   0  0  1  0  0  3  0  0  0  0  0  0
  161.9560  201.3310  150.0600 C   0  0  0  0  0  2  0  0  0  0  0  0
  160.7180  204.8340  153.4090 C   0  0  0  0  0  3  0  0  0  0  0  0
  161.5950  204.5710  144.0760 C   0  0  0  0  0  2  0  0  0  0  0  0
  161.0670  206.1810  145.9510 C   0  0  0  0  0  2  0  0  0  0  0  0
  162.0780  210.3280  150.4730 C   0  0  0  0  0  0  0  0  0  0  0  0
  162.5660  211.4450  149.6180 C   0  0  0  0  0  1  0  0  0  0  0  0
  161.2040  208.0860  150.7380 C   0  0  0  0  0  0  0  0  0  0  0  0
  162.0430  210.4910  151.8220 N   0  0  0  0  0  0  0  0  0  0  0  0
  161.1810  208.2860  152.1250 C   0  0  0  0  0  3  0  0  0  0  0  0
  161.6570  209.1180  149.9020 C   0  0  0  0  0  0  0  0  0  0  0  0
  161.6870  208.9420  148.5210 O   0  0  0  0  0  1  0  0  0  0  0  0
  161.6040  209.5060  152.6520 C   0  0  0  0  0  0  0  0  0  0  0  0
  160.6410  211.3150  154.2570 C   0  0  0  0  0  1  0  0  0  0  0  0
  161.5820  209.7700  154.4180 S   0  0  0  0  0  0  0  0  0  0  0  0
  1  3  1  0  0  0  0
  2  4  1  1  0  0  0
  3 20  2  0  0  0  0
  4  1  2  0  0  0  0
  4 11  1  0  0  0  0
  5 12  1  6  0  0  0
  5  2  1  0  0  0  0
  5 10  1  0  0  0  0
  6 22  1  0  0  0  0
  7 15  1  1  0  0  0
  7  2  1  0  0  0  0
  9  8  1  6  0  0  0
  9 18  1  0  0  0  0
  9 12  1  0  0  0  0
 10 19  1  0  0  0  0
 10 16  1  1  0  0  0
 11 14  2  0  0  0  0
 13 11  1  0  0  0  0
 14 20  1  0  0  0  0
 15 17  1  0  0  0  0
 17 25  1  1  0  0  0
 17  1  1  0  0  0  0
 18 22  1  6  0  0  0
 18  7  1  0  0  0  0
 19 13  1  0  0  0  0
 21  6  1  0  0  0  0
 21  8  1  0  0  0  0
 23 26  1  0  0  0  0
 24 23  1  0  0  0  0
 25 27  2  0  0  0  0
 26 30  2  0  0  0  0
 27 30  1  0  0  0  0
 28 23  2  0  0  0  0
 28 25  1  0  0  0  0
 29 28  1  0  0  0  0
 30 32  1  0  0  0  0
 31 32  1  0  0  0  0
M  END
>  <MODEL>
4

>  <REMARK>
 VINA RESULT:      -7.0      3.139      6.743
  Name = 
  2 active torsions:
  status: ('A' for Active; 'I' for Inactive)
    1  A    between atoms: S_15  and  C_26
    2  A    between atoms: C_16  and  C_27
                            x       y       z     vdW  Elec       q    Type
                         _______ _______ _______ _____ _____    ______ ____

>  <TORSDO>
F 2

$$$$
=
 OpenBabel11062408253D

 32 37  0  0  1  0  0  0  0  0999 V2000
  161.6620  206.8680  151.5410 C   0  0  0  0  0  0  0  0  0  0  0  0
  160.9590  209.3320  151.6360 C   0  0  1  0  0  3  0  0  0  0  0  0
  161.9440  205.6550  152.1850 C   0  0  0  0  0  3  0  0  0  0  0  0
  161.1140  207.9520  152.2850 C   0  0  0  0  0  0  0  0  0  0  0  0
  161.6170  210.4950  152.4200 C   0  0  2  0  0  3  0  0  0  0  0  0
  161.8740  212.1640  147.5380 C   0  0  0  0  0  2  0  0  0  0  0  0
  161.5460  209.3960  150.2140 C   0  0  1  0  0  3  0  0  0  0  0  0
  161.1640  213.2240  149.7130 C   0  0  0  0  0  2  0  0  0  0  0  0
  161.6360  211.8960  150.3180 C   0  0  1  0  0  3  0  0  0  0  0  0
  161.2840  210.5720  153.9040 C   0  0  2  0  0  3  0  0  0  0  0  0
  160.6400  207.6890  153.6020 C   0  0  0  0  0  0  0  0  0  0  0  0
  161.2060  211.8230  151.7810 C   0  0  0  0  0  2  0  0  0  0  0  0
  159.7370  208.5930  154.4030 C   0  0  0  0  0  2  0  0  0  0  0  0
  160.9040  206.4530  154.1990 C   0  0  0  0  0  3  0  0  0  0  0  0
  161.2060  208.1490  149.4290 C   0  0  0  0  0  2  0  0  0  0  0  0
  162.2380  209.9060  154.6760 O   0  0  0  0  0  1  0  0  0  0  0  0
  161.9720  206.9960  150.0610 C   0  0  2  0  0  3  0  0  0  0  0  0
  161.1220  210.6900  149.5130 C   0  0  1  0  0  3  0  0  0  0  0  0
  159.8660  210.1000  154.2000 C   0  0  0  0  0  2  0  0  0  0  0  0
  161.5810  205.4530  153.5110 C   0  0  0  0  0  3  0  0  0  0  0  0
  160.9220  213.1540  148.2000 C   0  0  0  0  0  2  0  0  0  0  0  0
  161.6610  210.7410  148.0710 C   0  0  0  0  0  2  0  0  0  0  0  0
  161.7040  204.5040  147.2000 C   0  0  0  0  0  0  0  0  0  0  0  0
  161.9310  204.4280  145.7300 C   0  0  0  0  0  1  0  0  0  0  0  0
  161.7160  205.7320  149.2860 C   0  0  0  0  0  0  0  0  0  0  0  0
  161.2620  203.4020  147.8620 N   0  0  0  0  0  0  0  0  0  0  0  0
  161.2600  204.5790  149.9390 C   0  0  0  0  0  3  0  0  0  0  0  0
  161.9420  205.6960  147.9020 C   0  0  0  0  0  0  0  0  0  0  0  0
  162.3970  206.8290  147.2330 O   0  0  0  0  0  1  0  0  0  0  0  0
  161.0400  203.4130  149.2040 C   0  0  0  0  0  0  0  0  0  0  0  0
  161.2060  200.8510  148.7800 C   0  0  0  0  0  1  0  0  0  0  0  0
  160.4560  201.9390  150.0250 S   0  0  0  0  0  0  0  0  0  0  0  0
  1  3  2  0  0  0  0
  1  4  1  0  0  0  0
  2  4  1  1  0  0  0
  2  5  1  0  0  0  0
  3 20  1  0  0  0  0
  4 11  2  0  0  0  0
  5 12  1  6  0  0  0
  5 10  1  0  0  0  0
  6 22  1  0  0  0  0
  6 21  1  0  0  0  0
  7 15  1  6  0  0  0
  7  2  1  0  0  0  0
  9  8  1  6  0  0  0
  9 12  1  0  0  0  0
 10 19  1  0  0  0  0
 10 16  1  1  0  0  0
 11 14  1  0  0  0  0
 11 13  1  0  0  0  0
 15 17  1  0  0  0  0
 17 25  1  6  0  0  0
 17  1  1  0  0  0  0
 18 22  1  6  0  0  0
 18  7  1  0  0  0  0
 18  9  1  0  0  0  0
 19 13  1  0  0  0  0
 20 14  2  0  0  0  0
 21  8  1  0  0  0  0
 23 26  2  0  0  0  0
 23 28  1  0  0  0  0
 24 23  1  0  0  0  0
 25 27  1  0  0  0  0
 26 30  1  0  0  0  0
 28 25  2  0  0  0  0
 29 28  1  0  0  0  0
 30 27  2  0  0  0  0
 30 32  1  0  0  0  0
 31 32  1  0  0  0  0
M  END
>  <MODEL>
5

>  <REMARK>
 VINA RESULT:      -6.9      3.319      7.137
  Name = 
  2 active torsions:
  status: ('A' for Active; 'I' for Inactive)
    1  A    between atoms: S_15  and  C_26
    2  A    between atoms: C_16  and  C_27
                            x       y       z     vdW  Elec       q    Type
                         _______ _______ _______ _____ _____    ______ ____

>  <TORSDO>
F 2

$$$$
=
 OpenBabel11062408253D

 32 37  0  0  1  0  0  0  0  0999 V2000
  161.7550  208.1640  151.0140 C   0  0  0  0  0  0  0  0  0  0  0  0
  161.1300  206.1740  149.5220 C   0  0  1  0  0  3  0  0  0  0  0  0
  162.2460  209.4680  151.1620 C   0  0  0  0  0  3  0  0  0  0  0  0
  161.5040  207.6480  149.7090 C   0  0  0  0  0  0  0  0  0  0  0  0
  162.0220  205.4010  148.5200 C   0  0  2  0  0  3  0  0  0  0  0  0
  160.5400  201.6790  151.7810 C   0  0  0  0  0  2  0  0  0  0  0  0
  161.1780  205.3710  150.8350 C   0  0  1  0  0  3  0  0  0  0  0  0
  160.6430  201.8630  149.2670 C   0  0  0  0  0  2  0  0  0  0  0  0
  161.2980  203.2180  149.5630 C   0  0  1  0  0  3  0  0  0  0  0  0
  162.2340  206.0650  147.1650 C   0  0  2  0  0  3  0  0  0  0  0  0
  161.5260  208.5580  148.6140 C   0  0  0  0  0  0  0  0  0  0  0  0
  161.4130  204.0200  148.2690 C   0  0  0  0  0  2  0  0  0  0  0  0
  160.9630  208.2870  147.2410 C   0  0  0  0  0  2  0  0  0  0  0  0
  161.9830  209.8650  148.8080 C   0  0  0  0  0  3  0  0  0  0  0  0
  160.5820  206.1620  151.9780 C   0  0  0  0  0  2  0  0  0  0  0  0
  163.4000  206.8350  147.1520 O   0  0  0  0  0  1  0  0  0  0  0  0
  161.5230  207.3260  152.2570 C   0  0  2  0  0  3  0  0  0  0  0  0
  160.5340  203.9940  150.6490 C   0  0  1  0  0  3  0  0  0  0  0  0
  161.0120  206.8550  146.7150 C   0  0  0  0  0  2  0  0  0  0  0  0
  162.3740  210.3100  150.0640 C   0  0  0  0  0  3  0  0  0  0  0  0
  159.8830  201.2780  150.4640 C   0  0  0  0  0  2  0  0  0  0  0  0
  160.5290  203.2020  151.9700 C   0  0  0  0  0  2  0  0  0  0  0  0
  160.6970  208.4060  155.8100 C   0  0  0  0  0  0  0  0  0  0  0  0
  160.8530  207.9280  157.2120 C   0  0  0  0  0  1  0  0  0  0  0  0
  161.0100  208.1230  153.4260 C   0  0  0  0  0  0  0  0  0  0  0  0
  160.0820  209.5960  155.5790 N   0  0  0  0  0  0  0  0  0  0  0  0
  160.3710  209.3530  153.2220 C   0  0  0  0  0  3  0  0  0  0  0  0
  161.1750  207.6430  154.7340 C   0  0  0  0  0  0  0  0  0  0  0  0
  161.8090  206.4240  154.9610 O   0  0  0  0  0  1  0  0  0  0  0  0
  159.9130  210.0830  154.3190 C   0  0  0  0  0  0  0  0  0  0  0  0
  157.6960  211.1810  155.1270 C   0  0  0  0  0  1  0  0  0  0  0  0
  159.0960  211.6510  154.0700 S   0  0  0  0  0  0  0  0  0  0  0  0
  1  3  1  0  0  0  0
  1 17  1  0  0  0  0
  2  4  1  1  0  0  0
  2  7  1  0  0  0  0
  4  1  2  0  0  0  0
  5 12  1  6  0  0  0
  5  2  1  0  0  0  0
  6 22  1  0  0  0  0
  7 15  1  1  0  0  0
  8  9  1  0  0  0  0
  8 21  1  0  0  0  0
  9 12  1  6  0  0  0
  9 18  1  0  0  0  0
 10 16  1  1  0  0  0
 10  5  1  0  0  0  0
 11 14  2  0  0  0  0
 11  4  1  0  0  0  0
 13 11  1  0  0  0  0
 14 20  1  0  0  0  0
 15 17  1  0  0  0  0
 17 25  1  1  0  0  0
 18  7  1  0  0  0  0
 18 22  1  1  0  0  0
 19 10  1  0  0  0  0
 19 13  1  0  0  0  0
 20  3  2  0  0  0  0
 21  6  1  0  0  0  0
 23 24  1  0  0  0  0
 25 28  1  0  0  0  0
 26 23  1  0  0  0  0
 27 25  2  0  0  0  0
 27 30  1  0  0  0  0
 28 29  1  0  0  0  0
 28 23  2  0  0  0  0
 30 26  2  0  0  0  0
 32 30  1  0  0  0  0
 32 31  1  0  0  0  0
M  END
>  <MODEL>
6

>  <REMARK>
 VINA RESULT:      -6.7      3.076      6.175
  Name = 
  2 active torsions:
  status: ('A' for Active; 'I' for Inactive)
    1  A    between atoms: S_15  and  C_26
    2  A    between atoms: C_16  and  C_27
                            x       y       z     vdW  Elec       q    Type
                         _______ _______ _______ _____ _____    ______ ____

>  <TORSDO>
F 2

$$$$
=
 OpenBabel11062408253D

 32 37  0  0  1  0  0  0  0  0999 V2000
  161.2110  208.1190  153.2010 C   0  0  0  0  0  0  0  0  0  0  0  0
  159.9980  210.3430  153.5920 C   0  0  1  0  0  3  0  0  0  0  0  0
  161.7600  206.9270  153.6940 C   0  0  0  0  0  3  0  0  0  0  0  0
  160.4590  208.9620  154.0690 C   0  0  0  0  0  0  0  0  0  0  0  0
  160.4070  211.5180  154.5150 C   0  0  2  0  0  3  0  0  0  0  0  0
  160.1990  213.7780  149.8750 C   0  0  0  0  0  2  0  0  0  0  0  0
  160.5280  210.7030  152.1920 C   0  0  1  0  0  3  0  0  0  0  0  0
  159.3220  214.3910  152.1590 C   0  0  0  0  0  2  0  0  0  0  0  0
  160.0810  213.1330  152.6010 C   0  0  1  0  0  3  0  0  0  0  0  0
  160.0950  211.3430  155.9960 C   0  0  2  0  0  3  0  0  0  0  0  0
  160.0800  208.4460  155.3410 C   0  0  0  0  0  0  0  0  0  0  0  0
  159.7080  212.7940  154.0410 C   0  0  0  0  0  2  0  0  0  0  0  0
  159.0200  209.0310  156.2410 C   0  0  0  0  0  2  0  0  0  0  0  0
  160.6150  207.2330  155.7840 C   0  0  0  0  0  3  0  0  0  0  0  0
  160.4470  209.5160  151.2580 C   0  0  0  0  0  2  0  0  0  0  0  0
  161.1870  210.8100  156.6860 O   0  0  0  0  0  1  0  0  0  0  0  0
  161.4560  208.4880  151.7500 C   0  0  2  0  0  3  0  0  0  0  0  0
  159.8220  211.9500  151.6510 C   0  0  1  0  0  3  0  0  0  0  0  0
  158.8180  210.5440  156.2240 C   0  0  0  0  0  2  0  0  0  0  0  0
  161.4770  206.4940  154.9830 C   0  0  0  0  0  3  0  0  0  0  0  0
  159.0700  214.4530  150.6470 C   0  0  0  0  0  2  0  0  0  0  0  0
  160.3070  212.2890  150.2290 C   0  0  0  0  0  2  0  0  0  0  0  0
  161.7640  206.3480  148.6210 C   0  0  0  0  0  0  0  0  0  0  0  0
  162.0720  206.4870  147.1700 C   0  0  0  0  0  1  0  0  0  0  0  0
  161.4610  207.3010  150.8250 C   0  0  0  0  0  0  0  0  0  0  0  0
  161.4890  205.1160  149.1260 N   0  0  0  0  0  0  0  0  0  0  0  0
  161.1800  206.0180  151.3140 C   0  0  0  0  0  3  0  0  0  0  0  0
  161.7570  207.4690  149.4640 C   0  0  0  0  0  0  0  0  0  0  0  0
  162.0400  208.7340  148.9560 O   0  0  0  0  0  1  0  0  0  0  0  0
  161.2030  204.9290  150.4430 C   0  0  0  0  0  0  0  0  0  0  0  0
  160.5640  202.6390  149.3840 C   0  0  0  0  0  1  0  0  0  0  0  0
  160.8440  203.2900  151.0550 S   0  0  0  0  0  0  0  0  0  0  0  0
  1  3  2  0  0  0  0
  1  4  1  0  0  0  0
  2  4  1  1  0  0  0
  2  5  1  0  0  0  0
  3 20  1  0  0  0  0
  4 11  2  0  0  0  0
  5 12  1  6  0  0  0
  5 10  1  0  0  0  0
  6 22  1  0  0  0  0
  6 21  1  0  0  0  0
  7 15  1  6  0  0  0
  7  2  1  0  0  0  0
  9  8  1  6  0  0  0
  9 12  1  0  0  0  0
 10 19  1  0  0  0  0
 10 16  1  1  0  0  0
 11 14  1  0  0  0  0
 11 13  1  0  0  0  0
 15 17  1  0  0  0  0
 17 25  1  6  0  0  0
 17  1  1  0  0  0  0
 18 22  1  6  0  0  0
 18  7  1  0  0  0  0
 18  9  1  0  0  0  0
 19 13  1  0  0  0  0
 20 14  2  0  0  0  0
 21  8  1  0  0  0  0
 23 26  2  0  0  0  0
 23 28  1  0  0  0  0
 24 23  1  0  0  0  0
 25 27  1  0  0  0  0
 26 30  1  0  0  0  0
 28 25  2  0  0  0  0
 29 28  1  0  0  0  0
 30 32  1  0  0  0  0
 30 27  2  0  0  0  0
 31 32  1  0  0  0  0
M  END
>  <MODEL>
7

>  <REMARK>
 VINA RESULT:      -6.3      3.056      6.705
  Name = 
  2 active torsions:
  status: ('A' for Active; 'I' for Inactive)
    1  A    between atoms: S_15  and  C_26
    2  A    between atoms: C_16  and  C_27
                            x       y       z     vdW  Elec       q    Type
                         _______ _______ _______ _____ _____    ______ ____

>  <TORSDO>
F 2

$$$$
