=
 OpenBabel11052422483D

 28 30  0  0  1  0  0  0  0  0999 V2000
  161.2550  204.5530  149.0290 C   0  0  2  0  0  3  0  0  0  0  0  0
  161.4670  205.8880  153.8240 C   0  0  0  0  0  1  0  0  0  0  0  0
  161.1760  208.0210  150.7120 C   0  0  0  0  0  2  0  0  0  0  0  0
  161.3280  205.2370  151.4220 C   0  0  1  0  0  3  0  0  0  0  0  0
  161.6260  206.9790  149.6970 C   0  0  0  0  0  2  0  0  0  0  0  0
  161.0790  202.9180  150.5990 C   0  0  0  0  0  2  0  0  0  0  0  0
  160.9510  206.3130  152.4510 C   0  0  2  0  0  3  0  0  0  0  0  0
  160.7110  203.8750  151.7330 C   0  0  0  0  0  2  0  0  0  0  0  0
  161.5380  207.6200  152.0780 N   0  0  0  0  0  0  0  0  0  0  0  0
  160.5470  203.3850  149.3820 O   0  0  0  0  0  0  0  0  0  0  0  0
  160.9140  205.6760  150.0200 C   0  0  1  0  0  3  0  0  0  0  0  0
  160.8730  204.9580  147.6090 C   0  0  0  0  0  2  0  0  0  0  0  0
  161.9290  204.5480  146.6260 C   0  0  0  0  0  0  0  0  0  0  0  0
  163.1980  204.9100  146.8310 C   0  0  0  0  0  3  0  0  0  0  0  0
  164.1890  204.5360  145.9780 F   0  0  0  0  0  0  0  0  0  0  0  0
  160.9690  202.5020  145.9010 O   0  0  0  0  0  1  0  0  0  0  0  0
  161.5690  203.6800  145.4540 C   0  0  1  0  0  3  0  0  0  0  0  0
  161.2530  205.5370  143.9840 O   0  0  0  0  0  1  0  0  0  0  0  0
  160.6290  204.4010  144.5000 C   0  0  0  0  0  2  0  0  0  0  0  0
  161.1140  208.6950  152.9910 C   0  0  0  0  0  2  0  0  0  0  0  0
  160.9960  210.0830  152.3390 C   0  0  0  0  0  2  0  0  0  0  0  0
  158.9090  211.4700  152.6820 C   0  0  0  0  0  3  0  0  0  0  0  0
  161.6110  211.2160  154.9740 O   0  0  0  0  0  0  0  0  0  0  0  0
  159.6330  212.3630  154.9740 N   0  0  0  0  0  0  0  0  0  0  0  0
  160.1500  211.0180  153.1430 C   0  0  0  0  0  0  0  0  0  0  0  0
  160.5260  211.5210  154.4090 C   0  0  0  0  0  0  0  0  0  0  0  0
  159.7400  213.0360  156.2570 C   0  0  0  0  0  1  0  0  0  0  0  0
  158.3730  212.4830  153.9090 S   0  0  0  0  0  0  0  0  0  0  0  0
  1 12  1  6  0  0  0
  1 10  1  0  0  0  0
  1 11  1  0  0  0  0
  3  9  1  0  0  0  0
  4  8  1  1  0  0  0
  4  7  1  0  0  0  0
  5  3  1  0  0  0  0
  6  8  1  0  0  0  0
  7  2  1  1  0  0  0
  9  7  1  0  0  0  0
  9 20  1  0  0  0  0
 10  6  1  0  0  0  0
 11  5  1  6  0  0  0
 11  4  1  0  0  0  0
 13 14  2  0  0  0  0
 13 12  1  0  0  0  0
 15 14  1  0  0  0  0
 17 16  1  1  0  0  0
 17 13  1  0  0  0  0
 18 19  1  0  0  0  0
 19 17  1  0  0  0  0
 21 20  1  0  0  0  0
 21 25  1  0  0  0  0
 22 25  2  0  0  0  0
 22 28  1  0  0  0  0
 24 27  1  0  0  0  0
 25 26  1  0  0  0  0
 26 24  1  0  0  0  0
 26 23  2  0  0  0  0
 28 24  1  0  0  0  0
M  END
>  <MODEL>
1

>  <REMARK>
 VINA RESULT:      -8.3      0.000      0.000
  Name = 
  7 active torsions:
  status: ('A' for Active; 'I' for Inactive)
    1  A    between atoms: C_1  and  C_2
    2  A    between atoms: C_2  and  C_3
    3  A    between atoms: C_3  and  C_11
    4  A    between atoms: C_11  and  C_22
    5  A    between atoms: C_13  and  C_18
    6  A    between atoms: C_14  and  C_18
    7  A    between atoms: C_14  and  N_25
                            x       y       z     vdW  Elec       q    Type
                         _______ _______ _______ _____ _____    ______ ____

>  <TORSDO>
F 7

$$$$
=
 OpenBabel11052422483D

 28 30  0  0  1  0  0  0  0  0999 V2000
  161.2680  204.6160  149.0690 C   0  0  2  0  0  3  0  0  0  0  0  0
  161.5370  205.9600  153.8580 C   0  0  0  0  0  1  0  0  0  0  0  0
  161.3150  208.0900  150.7400 C   0  0  0  0  0  2  0  0  0  0  0  0
  161.3710  205.3050  151.4590 C   0  0  1  0  0  3  0  0  0  0  0  0
  161.7260  207.0290  149.7270 C   0  0  0  0  0  2  0  0  0  0  0  0
  161.0380  202.9930  150.6460 C   0  0  0  0  0  2  0  0  0  0  0  0
  161.0340  206.3980  152.4850 C   0  0  2  0  0  3  0  0  0  0  0  0
  160.7060  203.9670  151.7770 C   0  0  0  0  0  2  0  0  0  0  0  0
  161.6660  207.6820  152.1060 N   0  0  0  0  0  0  0  0  0  0  0  0
  160.5200  203.4740  149.4280 O   0  0  0  0  0  0  0  0  0  0  0  0
  160.9690  205.7540  150.0560 C   0  0  1  0  0  3  0  0  0  0  0  0
  160.8970  205.0280  147.6480 C   0  0  0  0  0  2  0  0  0  0  0  0
  161.9320  204.5710  146.6640 C   0  0  0  0  0  0  0  0  0  0  0  0
  163.2070  204.9350  146.8290 C   0  0  0  0  0  3  0  0  0  0  0  0
  164.1800  204.5200  145.9740 F   0  0  0  0  0  0  0  0  0  0  0  0
  160.9080  202.5230  146.0420 O   0  0  0  0  0  1  0  0  0  0  0  0
  161.5460  203.6560  145.5370 C   0  0  1  0  0  3  0  0  0  0  0  0
  161.2830  205.4580  143.9900 O   0  0  0  0  0  1  0  0  0  0  0  0
  160.6310  204.3570  144.5450 C   0  0  0  0  0  2  0  0  0  0  0  0
  161.2820  208.7750  153.0160 C   0  0  0  0  0  2  0  0  0  0  0  0
  160.3500  209.8290  152.3960 C   0  0  0  0  0  2  0  0  0  0  0  0
  160.5560  210.9660  154.6450 C   0  0  0  0  0  3  0  0  0  0  0  0
  158.6210  212.1500  151.9120 O   0  0  0  0  0  0  0  0  0  0  0  0
  159.0040  212.9130  154.0330 N   0  0  0  0  0  0  0  0  0  0  0  0
  160.0290  210.9350  153.3500 C   0  0  0  0  0  0  0  0  0  0  0  0
  159.1790  212.0190  153.0340 C   0  0  0  0  0  0  0  0  0  0  0  0
  158.1920  214.1170  154.0100 C   0  0  0  0  0  1  0  0  0  0  0  0
  159.9040  212.3640  155.3070 S   0  0  0  0  0  0  0  0  0  0  0  0
  1 12  1  6  0  0  0
  1 10  1  0  0  0  0
  1 11  1  0  0  0  0
  3  9  1  0  0  0  0
  4  8  1  1  0  0  0
  4  7  1  0  0  0  0
  5  3  1  0  0  0  0
  6  8  1  0  0  0  0
  7  2  1  1  0  0  0
  9  7  1  0  0  0  0
  9 20  1  0  0  0  0
 10  6  1  0  0  0  0
 11  5  1  6  0  0  0
 11  4  1  0  0  0  0
 13 14  2  0  0  0  0
 13 12  1  0  0  0  0
 15 14  1  0  0  0  0
 17 16  1  1  0  0  0
 17 13  1  0  0  0  0
 18 19  1  0  0  0  0
 19 17  1  0  0  0  0
 21 20  1  0  0  0  0
 21 25  1  0  0  0  0
 22 28  1  0  0  0  0
 23 26  2  0  0  0  0
 24 28  1  0  0  0  0
 25 22  2  0  0  0  0
 26 25  1  0  0  0  0
 26 24  1  0  0  0  0
 27 24  1  0  0  0  0
M  END
>  <MODEL>
2

>  <REMARK>
 VINA RESULT:      -8.2      1.123      1.271
  Name = 
  7 active torsions:
  status: ('A' for Active; 'I' for Inactive)
    1  A    between atoms: C_1  and  C_2
    2  A    between atoms: C_2  and  C_3
    3  A    between atoms: C_3  and  C_11
    4  A    between atoms: C_11  and  C_22
    5  A    between atoms: C_13  and  C_18
    6  A    between atoms: C_14  and  C_18
    7  A    between atoms: C_14  and  N_25
                            x       y       z     vdW  Elec       q    Type
                         _______ _______ _______ _____ _____    ______ ____

>  <TORSDO>
F 7

$$$$
=
 OpenBabel11052422483D

 28 30  0  0  1  0  0  0  0  0999 V2000
  161.0550  205.8490  148.3490 C   0  0  2  0  0  3  0  0  0  0  0  0
  161.4320  209.0350  152.1610 C   0  0  0  0  0  1  0  0  0  0  0  0
  161.1480  205.2620  152.1590 C   0  0  0  0  0  2  0  0  0  0  0  0
  161.2740  207.4240  150.2650 C   0  0  1  0  0  3  0  0  0  0  0  0
  160.6270  205.0880  150.7380 C   0  0  0  0  0  2  0  0  0  0  0  0
  161.5530  208.0180  147.8800 C   0  0  0  0  0  2  0  0  0  0  0  0
  161.7220  207.6010  151.7240 C   0  0  2  0  0  3  0  0  0  0  0  0
  162.0140  208.3480  149.3000 C   0  0  0  0  0  2  0  0  0  0  0  0
  161.0060  206.6530  152.6080 N   0  0  0  0  0  0  0  0  0  0  0  0
  161.8780  206.6850  147.5650 O   0  0  0  0  0  0  0  0  0  0  0  0
  161.4590  205.9740  149.8260 C   0  0  1  0  0  3  0  0  0  0  0  0
  161.2080  204.4090  147.8720 C   0  0  0  0  0  2  0  0  0  0  0  0
  162.0940  204.3300  146.6630 C   0  0  0  0  0  0  0  0  0  0  0  0
  163.3870  204.6470  146.7700 C   0  0  0  0  0  3  0  0  0  0  0  0
  164.2280  204.5630  145.7050 F   0  0  0  0  0  0  0  0  0  0  0  0
  160.8680  202.6300  145.5510 O   0  0  0  0  0  1  0  0  0  0  0  0
  161.5400  203.8370  145.3570 C   0  0  1  0  0  3  0  0  0  0  0  0
  161.2660  205.6090  143.7770 O   0  0  0  0  0  1  0  0  0  0  0  0
  160.5930  204.8540  144.7380 C   0  0  0  0  0  2  0  0  0  0  0  0
  161.4850  206.7290  153.9990 C   0  0  0  0  0  2  0  0  0  0  0  0
  160.4440  207.2380  155.0100 C   0  0  0  0  0  2  0  0  0  0  0  0
  161.9900  208.3520  156.6720 C   0  0  0  0  0  3  0  0  0  0  0  0
  159.3880  209.9720  154.8770 O   0  0  0  0  0  0  0  0  0  0  0  0
  160.9220  210.6690  156.4230 N   0  0  0  0  0  0  0  0  0  0  0  0
  160.9250  208.4320  155.7680 C   0  0  0  0  0  0  0  0  0  0  0  0
  160.3540  209.7190  155.6460 C   0  0  0  0  0  0  0  0  0  0  0  0
  160.5530  212.0710  156.5180 C   0  0  0  0  0  1  0  0  0  0  0  0
  162.1340  209.9170  157.2600 S   0  0  0  0  0  0  0  0  0  0  0  0
  1 12  1  6  0  0  0
  1 11  1  0  0  0  0
  3  9  1  0  0  0  0
  4  8  1  6  0  0  0
  4  7  1  0  0  0  0
  5  3  1  0  0  0  0
  6  8  1  0  0  0  0
  7  2  1  1  0  0  0
  7  9  1  0  0  0  0
  9 20  1  0  0  0  0
 10  6  1  0  0  0  0
 10  1  1  0  0  0  0
 11  4  1  0  0  0  0
 11  5  1  1  0  0  0
 13 14  2  0  0  0  0
 13 12  1  0  0  0  0
 15 14  1  0  0  0  0
 17 16  1  1  0  0  0
 17 13  1  0  0  0  0
 18 19  1  0  0  0  0
 19 17  1  0  0  0  0
 20 21  1  0  0  0  0
 21 25  1  0  0  0  0
 22 28  1  0  0  0  0
 23 26  2  0  0  0  0
 24 27  1  0  0  0  0
 24 28  1  0  0  0  0
 25 22  2  0  0  0  0
 26 25  1  0  0  0  0
 26 24  1  0  0  0  0
M  END
>  <MODEL>
3

>  <REMARK>
 VINA RESULT:      -7.5      1.972      2.933
  Name = 
  7 active torsions:
  status: ('A' for Active; 'I' for Inactive)
    1  A    between atoms: C_1  and  C_2
    2  A    between atoms: C_2  and  C_3
    3  A    between atoms: C_3  and  C_11
    4  A    between atoms: C_11  and  C_22
    5  A    between atoms: C_13  and  C_18
    6  A    between atoms: C_14  and  C_18
    7  A    between atoms: C_14  and  N_25
                            x       y       z     vdW  Elec       q    Type
                         _______ _______ _______ _____ _____    ______ ____

>  <TORSDO>
F 7

$$$$
=
 OpenBabel11052422483D

 28 30  0  0  1  0  0  0  0  0999 V2000
  161.4410  204.9170  148.2900 C   0  0  2  0  0  3  0  0  0  0  0  0
  160.7880  208.5630  151.6210 C   0  0  0  0  0  1  0  0  0  0  0  0
  161.6860  204.9250  152.1380 C   0  0  0  0  0  2  0  0  0  0  0  0
  161.1490  206.7340  149.9670 C   0  0  1  0  0  3  0  0  0  0  0  0
  161.2540  204.4030  150.7740 C   0  0  0  0  0  2  0  0  0  0  0  0
  161.2460  207.0460  147.5150 C   0  0  0  0  0  2  0  0  0  0  0  0
  161.5100  207.2420  151.3710 C   0  0  2  0  0  3  0  0  0  0  0  0
  161.5730  207.6970  148.8590 C   0  0  0  0  0  2  0  0  0  0  0  0
  161.1180  206.2530  152.4010 N   0  0  0  0  0  0  0  0  0  0  0  0
  161.9700  205.8480  147.3710 O   0  0  0  0  0  0  0  0  0  0  0  0
  161.7770  205.3650  149.7210 C   0  0  1  0  0  3  0  0  0  0  0  0
  162.0360  203.5420  148.0060 C   0  0  0  0  0  2  0  0  0  0  0  0
  161.1580  202.7520  147.0810 C   0  0  0  0  0  0  0  0  0  0  0  0
  161.0280  203.1340  145.8080 C   0  0  0  0  0  3  0  0  0  0  0  0
  160.2630  202.4310  144.9310 F   0  0  0  0  0  0  0  0  0  0  0  0
  161.3540  200.4200  147.4680 O   0  0  0  0  0  1  0  0  0  0  0  0
  160.4820  201.5040  147.5700 C   0  0  1  0  0  3  0  0  0  0  0  0
  160.8760  200.9510  149.8620 O   0  0  0  0  0  1  0  0  0  0  0  0
  160.0210  201.6530  149.0120 C   0  0  0  0  0  2  0  0  0  0  0  0
  161.5400  206.6660  153.7500 C   0  0  0  0  0  2  0  0  0  0  0  0
  160.4120  207.2260  154.6330 C   0  0  0  0  0  2  0  0  0  0  0  0
  161.8090  208.1030  156.5500 C   0  0  0  0  0  3  0  0  0  0  0  0
  159.6090  210.0470  154.5500 O   0  0  0  0  0  0  0  0  0  0  0  0
  160.9750  210.5170  156.3230 N   0  0  0  0  0  0  0  0  0  0  0  0
  160.8840  208.3290  155.5250 C   0  0  0  0  0  0  0  0  0  0  0  0
  160.4400  209.6670  155.4180 C   0  0  0  0  0  0  0  0  0  0  0  0
  160.7120  211.9390  156.4640 C   0  0  0  0  0  1  0  0  0  0  0  0
  162.0000  209.6140  157.2550 S   0  0  0  0  0  0  0  0  0  0  0  0
  1 12  1  6  0  0  0
  1 11  1  0  0  0  0
  3  9  1  0  0  0  0
  4  8  1  6  0  0  0
  4  7  1  0  0  0  0
  5  3  1  0  0  0  0
  6  8  1  0  0  0  0
  7  2  1  1  0  0  0
  7  9  1  0  0  0  0
  9 20  1  0  0  0  0
 10  6  1  0  0  0  0
 10  1  1  0  0  0  0
 11  4  1  0  0  0  0
 11  5  1  1  0  0  0
 13 17  1  0  0  0  0
 13 12  1  0  0  0  0
 14 13  2  0  0  0  0
 15 14  1  0  0  0  0
 17 16  1  1  0  0  0
 17 19  1  0  0  0  0
 19 18  1  0  0  0  0
 20 21  1  0  0  0  0
 21 25  1  0  0  0  0
 22 28  1  0  0  0  0
 23 26  2  0  0  0  0
 24 27  1  0  0  0  0
 24 28  1  0  0  0  0
 25 22  2  0  0  0  0
 26 25  1  0  0  0  0
 26 24  1  0  0  0  0
M  END
>  <MODEL>
4

>  <REMARK>
 VINA RESULT:      -7.5      2.377      3.598
  Name = 
  7 active torsions:
  status: ('A' for Active; 'I' for Inactive)
    1  A    between atoms: C_1  and  C_2
    2  A    between atoms: C_2  and  C_3
    3  A    between atoms: C_3  and  C_11
    4  A    between atoms: C_11  and  C_22
    5  A    between atoms: C_13  and  C_18
    6  A    between atoms: C_14  and  C_18
    7  A    between atoms: C_14  and  N_25
                            x       y       z     vdW  Elec       q    Type
                         _______ _______ _______ _____ _____    ______ ____

>  <TORSDO>
F 7

$$$$
=
 OpenBabel11052422483D

 28 30  0  0  1  0  0  0  0  0999 V2000
  160.0030  209.7070  155.2800 C   0  0  2  0  0  3  0  0  0  0  0  0
  161.2080  205.4420  153.0050 C   0  0  0  0  0  1  0  0  0  0  0  0
  161.2130  208.9890  151.6910 C   0  0  0  0  0  2  0  0  0  0  0  0
  160.6390  207.5890  154.1370 C   0  0  1  0  0  3  0  0  0  0  0  0
  160.3260  209.6140  152.7600 C   0  0  0  0  0  2  0  0  0  0  0  0
  160.1870  207.8340  156.5560 C   0  0  0  0  0  2  0  0  0  0  0  0
  161.4670  206.9460  153.0140 C   0  0  2  0  0  3  0  0  0  0  0  0
  161.0060  207.0600  155.5230 C   0  0  0  0  0  2  0  0  0  0  0  0
  161.1020  207.5250  151.7010 N   0  0  0  0  0  0  0  0  0  0  0  0
  160.5070  209.2030  156.4990 O   0  0  0  0  0  0  0  0  0  0  0  0
  160.7980  209.1070  154.1110 C   0  0  1  0  0  3  0  0  0  0  0  0
  160.1210  211.2270  155.2830 C   0  0  0  0  0  2  0  0  0  0  0  0
  158.7680  211.8750  155.2380 C   0  0  0  0  0  0  0  0  0  0  0  0
  157.7200  211.2550  155.7880 C   0  0  0  0  0  3  0  0  0  0  0  0
  156.4830  211.8200  155.7920 F   0  0  0  0  0  0  0  0  0  0  0  0
  159.3310  214.1760  155.3790 O   0  0  0  0  0  1  0  0  0  0  0  0
  158.6090  213.2420  154.6360 C   0  0  1  0  0  3  0  0  0  0  0  0
  158.2190  212.5080  152.3950 O   0  0  0  0  0  1  0  0  0  0  0  0
  159.0790  213.2670  153.1890 C   0  0  0  0  0  2  0  0  0  0  0  0
  161.9480  207.0010  150.6140 C   0  0  0  0  0  2  0  0  0  0  0  0
  161.2640  206.9430  149.2380 C   0  0  0  0  0  2  0  0  0  0  0  0
  161.1150  204.4290  149.4570 C   0  0  0  0  0  3  0  0  0  0  0  0
  161.5920  206.2040  146.4180 O   0  0  0  0  0  0  0  0  0  0  0  0
  161.4290  203.9860  146.9520 N   0  0  0  0  0  0  0  0  0  0  0  0
  161.2710  205.5660  148.6580 C   0  0  0  0  0  0  0  0  0  0  0  0
  161.4400  205.2970  147.2810 C   0  0  0  0  0  0  0  0  0  0  0  0
  161.5810  203.4050  145.6290 C   0  0  0  0  0  1  0  0  0  0  0  0
  161.2060  203.1580  148.3650 S   0  0  0  0  0  0  0  0  0  0  0  0
  1 12  1  1  0  0  0
  1 10  1  0  0  0  0
  3  9  1  0  0  0  0
  3  5  1  0  0  0  0
  4  8  1  1  0  0  0
  7  2  1  6  0  0  0
  7  4  1  0  0  0  0
  8  6  1  0  0  0  0
  9  7  1  0  0  0  0
 10  6  1  0  0  0  0
 11  5  1  6  0  0  0
 11  4  1  0  0  0  0
 11  1  1  0  0  0  0
 13 12  1  0  0  0  0
 13 14  2  0  0  0  0
 14 15  1  0  0  0  0
 17 13  1  0  0  0  0
 17 16  1  1  0  0  0
 18 19  1  0  0  0  0
 19 17  1  0  0  0  0
 20  9  1  0  0  0  0
 21 20  1  0  0  0  0
 23 26  2  0  0  0  0
 24 26  1  0  0  0  0
 24 28  1  0  0  0  0
 25 21  1  0  0  0  0
 25 22  2  0  0  0  0
 26 25  1  0  0  0  0
 27 24  1  0  0  0  0
 28 22  1  0  0  0  0
M  END
>  <MODEL>
5

>  <REMARK>
 VINA RESULT:      -7.2      4.120      9.260
  Name = 
  7 active torsions:
  status: ('A' for Active; 'I' for Inactive)
    1  A    between atoms: C_1  and  C_2
    2  A    between atoms: C_2  and  C_3
    3  A    between atoms: C_3  and  C_11
    4  A    between atoms: C_11  and  C_22
    5  A    between atoms: C_13  and  C_18
    6  A    between atoms: C_14  and  C_18
    7  A    between atoms: C_14  and  N_25
                            x       y       z     vdW  Elec       q    Type
                         _______ _______ _______ _____ _____    ______ ____

>  <TORSDO>
F 7

$$$$
=
 OpenBabel11052422483D

 28 30  0  0  1  0  0  0  0  0999 V2000
  160.7610  209.6200  154.0510 C   0  0  2  0  0  3  0  0  0  0  0  0
  162.6390  206.9980  150.2540 C   0  0  0  0  0  1  0  0  0  0  0  0
  161.1870  205.8220  153.5430 C   0  0  0  0  0  2  0  0  0  0  0  0
  161.6680  208.2920  152.1490 C   0  0  1  0  0  3  0  0  0  0  0  0
  161.2730  207.1410  154.2980 C   0  0  0  0  0  2  0  0  0  0  0  0
  161.2100  210.7220  152.1130 C   0  0  0  0  0  2  0  0  0  0  0  0
  161.6530  206.9420  151.4170 C   0  0  2  0  0  3  0  0  0  0  0  0
  161.2450  209.4570  151.2560 C   0  0  0  0  0  2  0  0  0  0  0  0
  162.0270  205.8450  152.3390 N   0  0  0  0  0  0  0  0  0  0  0  0
  160.2630  210.5810  153.1450 O   0  0  0  0  0  0  0  0  0  0  0  0
  160.7650  208.2380  153.3790 C   0  0  1  0  0  3  0  0  0  0  0  0
  159.8820  209.6070  155.2970 C   0  0  0  0  0  2  0  0  0  0  0  0
  159.9390  210.9240  156.0130 C   0  0  0  0  0  0  0  0  0  0  0  0
  161.0680  211.2960  156.6220 C   0  0  0  0  0  3  0  0  0  0  0  0
  161.1680  212.4940  157.2590 F   0  0  0  0  0  0  0  0  0  0  0  0
  159.0270  212.9520  155.1840 O   0  0  0  0  0  1  0  0  0  0  0  0
  158.7530  211.8450  155.9880 C   0  0  1  0  0  3  0  0  0  0  0  0
  157.1030  211.7030  154.2640 O   0  0  0  0  0  1  0  0  0  0  0  0
  157.5110  211.1340  155.4700 C   0  0  0  0  0  2  0  0  0  0  0  0
  161.9260  204.5250  151.6930 C   0  0  0  0  0  2  0  0  0  0  0  0
  160.5980  204.2670  150.9620 C   0  0  0  0  0  2  0  0  0  0  0  0
  160.6920  201.9620  149.9250 C   0  0  0  0  0  3  0  0  0  0  0  0
  161.0950  205.0250  148.1730 O   0  0  0  0  0  0  0  0  0  0  0  0
  161.1340  202.8250  147.5520 N   0  0  0  0  0  0  0  0  0  0  0  0
  160.7620  203.3530  149.7910 C   0  0  0  0  0  0  0  0  0  0  0  0
  161.0040  203.8050  148.4740 C   0  0  0  0  0  0  0  0  0  0  0  0
  161.3890  202.9770  146.1290 C   0  0  0  0  0  1  0  0  0  0  0  0
  160.9470  201.3980  148.3650 S   0  0  0  0  0  0  0  0  0  0  0  0
  1 12  1  1  0  0  0
  3  5  1  0  0  0  0
  4  8  1  6  0  0  0
  4 11  1  0  0  0  0
  6 10  1  0  0  0  0
  7  2  1  6  0  0  0
  7  4  1  0  0  0  0
  7  9  1  0  0  0  0
  8  6  1  0  0  0  0
  9  3  1  0  0  0  0
 10  1  1  0  0  0  0
 11  1  1  0  0  0  0
 11  5  1  1  0  0  0
 12 13  1  0  0  0  0
 13 14  2  0  0  0  0
 14 15  1  0  0  0  0
 17 16  1  6  0  0  0
 17 13  1  0  0  0  0
 18 19  1  0  0  0  0
 19 17  1  0  0  0  0
 20  9  1  0  0  0  0
 21 20  1  0  0  0  0
 23 26  2  0  0  0  0
 24 28  1  0  0  0  0
 24 26  1  0  0  0  0
 25 22  2  0  0  0  0
 25 21  1  0  0  0  0
 26 25  1  0  0  0  0
 27 24  1  0  0  0  0
 28 22  1  0  0  0  0
M  END
>  <MODEL>
6

>  <REMARK>
 VINA RESULT:      -7.1      4.240      9.436
  Name = 
  7 active torsions:
  status: ('A' for Active; 'I' for Inactive)
    1  A    between atoms: C_1  and  C_2
    2  A    between atoms: C_2  and  C_3
    3  A    between atoms: C_3  and  C_11
    4  A    between atoms: C_11  and  C_22
    5  A    between atoms: C_13  and  C_18
    6  A    between atoms: C_14  and  C_18
    7  A    between atoms: C_14  and  N_25
                            x       y       z     vdW  Elec       q    Type
                         _______ _______ _______ _____ _____    ______ ____

>  <TORSDO>
F 7

$$$$
=
 OpenBabel11052422483D

 28 30  0  0  1  0  0  0  0  0999 V2000
  161.4560  204.0320  148.0740 C   0  0  2  0  0  3  0  0  0  0  0  0
  161.5860  208.9680  148.7320 C   0  0  0  0  0  1  0  0  0  0  0  0
  161.5490  206.1720  151.2800 C   0  0  0  0  0  2  0  0  0  0  0  0
  161.5520  206.4960  148.4210 C   0  0  1  0  0  3  0  0  0  0  0  0
  161.0550  205.0580  150.3660 C   0  0  0  0  0  2  0  0  0  0  0  0
  161.8150  205.3410  146.2500 C   0  0  0  0  0  2  0  0  0  0  0  0
  161.9730  207.6330  149.3630 C   0  0  2  0  0  3  0  0  0  0  0  0
  162.2400  206.5660  147.0590 C   0  0  0  0  0  2  0  0  0  0  0  0
  161.3120  207.4910  150.6810 N   0  0  0  0  0  0  0  0  0  0  0  0
  162.2300  204.1650  146.9020 O   0  0  0  0  0  0  0  0  0  0  0  0
  161.8360  205.1410  149.0660 C   0  0  1  0  0  3  0  0  0  0  0  0
  161.7070  202.6580  148.6850 C   0  0  0  0  0  2  0  0  0  0  0  0
  160.5300  201.7500  148.4810 C   0  0  0  0  0  0  0  0  0  0  0  0
  159.5390  201.7420  149.3760 C   0  0  0  0  0  3  0  0  0  0  0  0
  158.4430  200.9540  149.2140 F   0  0  0  0  0  0  0  0  0  0  0  0
  160.4610  201.7170  146.1090 O   0  0  0  0  0  1  0  0  0  0  0  0
  160.4400  200.9050  147.2430 C   0  0  1  0  0  3  0  0  0  0  0  0
  161.4920  199.1570  145.9970 O   0  0  0  0  0  1  0  0  0  0  0  0
  161.5810  199.9010  147.1730 C   0  0  0  0  0  2  0  0  0  0  0  0
  161.7720  208.5110  151.6400 C   0  0  0  0  0  2  0  0  0  0  0  0
  160.6470  209.2100  152.4220 C   0  0  0  0  0  2  0  0  0  0  0  0
  161.4530  210.5730  154.3940 C   0  0  0  0  0  3  0  0  0  0  0  0
  160.4250  207.1750  154.5240 O   0  0  0  0  0  0  0  0  0  0  0  0
  161.2010  208.6590  156.0810 N   0  0  0  0  0  0  0  0  0  0  0  0
  160.9760  209.3660  153.8720 C   0  0  0  0  0  0  0  0  0  0  0  0
  160.8430  208.3270  154.8210 C   0  0  0  0  0  0  0  0  0  0  0  0
  161.1780  207.8110  157.2610 C   0  0  0  0  0  1  0  0  0  0  0  0
  161.6800  210.2410  156.0230 S   0  0  0  0  0  0  0  0  0  0  0  0
  1 12  1  1  0  0  0
  1 11  1  0  0  0  0
  4  8  1  6  0  0  0
  4 11  1  0  0  0  0
  4  7  1  0  0  0  0
  5  3  1  0  0  0  0
  6 10  1  0  0  0  0
  6  8  1  0  0  0  0
  7  2  1  6  0  0  0
  7  9  1  0  0  0  0
  9  3  1  0  0  0  0
  9 20  1  0  0  0  0
 10  1  1  0  0  0  0
 11  5  1  1  0  0  0
 13 12  1  0  0  0  0
 13 14  2  0  0  0  0
 15 14  1  0  0  0  0
 17 16  1  6  0  0  0
 17 13  1  0  0  0  0
 18 19  1  0  0  0  0
 19 17  1  0  0  0  0
 20 21  1  0  0  0  0
 21 25  1  0  0  0  0
 22 28  1  0  0  0  0
 23 26  2  0  0  0  0
 24 27  1  0  0  0  0
 25 22  2  0  0  0  0
 25 26  1  0  0  0  0
 26 24  1  0  0  0  0
 28 24  1  0  0  0  0
M  END
>  <MODEL>
7

>  <REMARK>
 VINA RESULT:      -7.1      2.778      3.987
  Name = 
  7 active torsions:
  status: ('A' for Active; 'I' for Inactive)
    1  A    between atoms: C_1  and  C_2
    2  A    between atoms: C_2  and  C_3
    3  A    between atoms: C_3  and  C_11
    4  A    between atoms: C_11  and  C_22
    5  A    between atoms: C_13  and  C_18
    6  A    between atoms: C_14  and  C_18
    7  A    between atoms: C_14  and  N_25
                            x       y       z     vdW  Elec       q    Type
                         _______ _______ _______ _____ _____    ______ ____

>  <TORSDO>
F 7

$$$$
=
 OpenBabel11052422483D

 28 30  0  0  1  0  0  0  0  0999 V2000
  160.9600  203.2750  149.2720 C   0  0  2  0  0  3  0  0  0  0  0  0
  161.6190  206.0900  153.3290 C   0  0  0  0  0  1  0  0  0  0  0  0
  160.6910  207.0850  149.7990 C   0  0  0  0  0  2  0  0  0  0  0  0
  161.2550  204.6940  151.2970 C   0  0  1  0  0  3  0  0  0  0  0  0
  161.1270  205.8070  149.0960 C   0  0  0  0  0  2  0  0  0  0  0  0
  161.1750  202.2220  151.2760 C   0  0  0  0  0  2  0  0  0  0  0  0
  160.8880  206.0140  151.9910 C   0  0  2  0  0  3  0  0  0  0  0  0
  160.8450  203.4640  152.1040 C   0  0  0  0  0  2  0  0  0  0  0  0
  161.2670  207.1710  151.1470 N   0  0  0  0  0  0  0  0  0  0  0  0
  160.4430  202.2350  150.0740 O   0  0  0  0  0  0  0  0  0  0  0  0
  160.6180  204.6300  149.9110 C   0  0  1  0  0  3  0  0  0  0  0  0
  160.3560  203.1740  147.8750 C   0  0  0  0  0  2  0  0  0  0  0  0
  160.9150  202.0000  147.1270 C   0  0  0  0  0  0  0  0  0  0  0  0
  161.2500  200.8920  147.7930 C   0  0  0  0  0  3  0  0  0  0  0  0
  161.7350  199.7960  147.1490 F   0  0  0  0  0  0  0  0  0  0  0  0
  160.0170  201.2980  145.0460 O   0  0  0  0  0  1  0  0  0  0  0  0
  161.0360  202.0510  145.6310 C   0  0  1  0  0  3  0  0  0  0  0  0
  162.2570  204.0170  145.0370 O   0  0  0  0  0  1  0  0  0  0  0  0
  160.9720  203.4820  145.1190 C   0  0  0  0  0  2  0  0  0  0  0  0
  160.8390  208.4490  151.7410 C   0  0  0  0  0  2  0  0  0  0  0  0
  161.9400  209.2020  152.5060 C   0  0  0  0  0  2  0  0  0  0  0  0
  161.5740  209.1940  155.0080 C   0  0  0  0  0  3  0  0  0  0  0  0
  160.5580  211.7750  152.7900 O   0  0  0  0  0  0  0  0  0  0  0  0
  160.3760  211.4600  155.0470 N   0  0  0  0  0  0  0  0  0  0  0  0
  161.4320  209.8230  153.7670 C   0  0  0  0  0  0  0  0  0  0  0  0
  160.7700  211.0710  153.8140 C   0  0  0  0  0  0  0  0  0  0  0  0
  159.6750  212.6800  155.4080 C   0  0  0  0  0  1  0  0  0  0  0  0
  160.8480  210.2590  156.0820 S   0  0  0  0  0  0  0  0  0  0  0  0
  1 12  1  6  0  0  0
  1 11  1  0  0  0  0
  1 10  1  0  0  0  0
  3  9  1  0  0  0  0
  4  7  1  0  0  0  0
  4  8  1  1  0  0  0
  5  3  1  0  0  0  0
  6  8  1  0  0  0  0
  7  2  1  1  0  0  0
  9 20  1  0  0  0  0
  9  7  1  0  0  0  0
 10  6  1  0  0  0  0
 11  5  1  6  0  0  0
 11  4  1  0  0  0  0
 13 14  2  0  0  0  0
 13 12  1  0  0  0  0
 15 14  1  0  0  0  0
 17 16  1  6  0  0  0
 17 13  1  0  0  0  0
 18 19  1  0  0  0  0
 19 17  1  0  0  0  0
 20 21  1  0  0  0  0
 21 25  1  0  0  0  0
 22 28  1  0  0  0  0
 23 26  2  0  0  0  0
 24 27  1  0  0  0  0
 24 28  1  0  0  0  0
 25 26  1  0  0  0  0
 25 22  2  0  0  0  0
 26 24  1  0  0  0  0
M  END
>  <MODEL>
8

>  <REMARK>
 VINA RESULT:      -7.0      1.948      2.198
  Name = 
  7 active torsions:
  status: ('A' for Active; 'I' for Inactive)
    1  A    between atoms: C_1  and  C_2
    2  A    between atoms: C_2  and  C_3
    3  A    between atoms: C_3  and  C_11
    4  A    between atoms: C_11  and  C_22
    5  A    between atoms: C_13  and  C_18
    6  A    between atoms: C_14  and  C_18
    7  A    between atoms: C_14  and  N_25
                            x       y       z     vdW  Elec       q    Type
                         _______ _______ _______ _____ _____    ______ ____

>  <TORSDO>
F 7

$$$$
=
 OpenBabel11052422483D

 28 30  0  0  1  0  0  0  0  0999 V2000
  160.2520  210.1730  154.8720 C   0  0  2  0  0  3  0  0  0  0  0  0
  161.1120  205.4310  153.6100 C   0  0  0  0  0  1  0  0  0  0  0  0
  161.1950  208.5670  151.4960 C   0  0  0  0  0  2  0  0  0  0  0  0
  160.7150  207.8120  154.2300 C   0  0  1  0  0  3  0  0  0  0  0  0
  160.4080  209.4760  152.4310 C   0  0  0  0  0  2  0  0  0  0  0  0
  160.4310  208.6410  156.5430 C   0  0  0  0  0  2  0  0  0  0  0  0
  161.4390  206.8780  153.2490 C   0  0  2  0  0  3  0  0  0  0  0  0
  161.1460  207.6010  155.6800 C   0  0  0  0  0  2  0  0  0  0  0  0
  161.0180  207.1550  151.8570 N   0  0  0  0  0  0  0  0  0  0  0  0
  160.8100  209.9380  156.1470 O   0  0  0  0  0  0  0  0  0  0  0  0
  160.9420  209.2700  153.8380 C   0  0  1  0  0  3  0  0  0  0  0  0
  160.4400  211.6420  154.5090 C   0  0  0  0  0  2  0  0  0  0  0  0
  159.3200  212.4810  155.0520 C   0  0  0  0  0  0  0  0  0  0  0  0
  159.5970  213.5140  155.8520 C   0  0  0  0  0  3  0  0  0  0  0  0
  158.6130  214.3140  156.3430 F   0  0  0  0  0  0  0  0  0  0  0  0
  157.1120  212.0010  155.7760 O   0  0  0  0  0  1  0  0  0  0  0  0
  157.9030  212.1970  154.6440 C   0  0  1  0  0  3  0  0  0  0  0  0
  155.9370  213.2530  153.7870 O   0  0  0  0  0  1  0  0  0  0  0  0
  157.3290  213.3340  153.8120 C   0  0  0  0  0  2  0  0  0  0  0  0
  161.7680  206.3430  150.8830 C   0  0  0  0  0  2  0  0  0  0  0  0
  160.9390  205.2540  150.1810 C   0  0  0  0  0  2  0  0  0  0  0  0
  160.8710  206.5500  148.0110 C   0  0  0  0  0  3  0  0  0  0  0  0
  161.4620  203.0600  148.3050 O   0  0  0  0  0  0  0  0  0  0  0  0
  161.3280  204.5030  146.5360 N   0  0  0  0  0  0  0  0  0  0  0  0
  161.0350  205.3390  148.6920 C   0  0  0  0  0  0  0  0  0  0  0  0
  161.2880  204.2260  147.8590 C   0  0  0  0  0  0  0  0  0  0  0  0
  161.5620  203.5730  145.4440 C   0  0  0  0  0  1  0  0  0  0  0  0
  161.0530  206.1270  146.3970 S   0  0  0  0  0  0  0  0  0  0  0  0
  1 12  1  6  0  0  0
  1 10  1  0  0  0  0
  3  9  1  0  0  0  0
  3  5  1  0  0  0  0
  4  8  1  1  0  0  0
  7  2  1  1  0  0  0
  7  4  1  0  0  0  0
  8  6  1  0  0  0  0
  9  7  1  0  0  0  0
 10  6  1  0  0  0  0
 11  5  1  6  0  0  0
 11  4  1  0  0  0  0
 11  1  1  0  0  0  0
 12 13  1  0  0  0  0
 13 14  2  0  0  0  0
 14 15  1  0  0  0  0
 17 13  1  0  0  0  0
 17 16  1  1  0  0  0
 18 19  1  0  0  0  0
 19 17  1  0  0  0  0
 20  9  1  0  0  0  0
 21 20  1  0  0  0  0
 22 25  2  0  0  0  0
 24 26  1  0  0  0  0
 25 21  1  0  0  0  0
 26 23  2  0  0  0  0
 26 25  1  0  0  0  0
 27 24  1  0  0  0  0
 28 24  1  0  0  0  0
 28 22  1  0  0  0  0
M  END
>  <MODEL>
9

>  <REMARK>
 VINA RESULT:      -6.9      4.198      9.417
  Name = 
  7 active torsions:
  status: ('A' for Active; 'I' for Inactive)
    1  A    between atoms: C_1  and  C_2
    2  A    between atoms: C_2  and  C_3
    3  A    between atoms: C_3  and  C_11
    4  A    between atoms: C_11  and  C_22
    5  A    between atoms: C_13  and  C_18
    6  A    between atoms: C_14  and  C_18
    7  A    between atoms: C_14  and  N_25
                            x       y       z     vdW  Elec       q    Type
                         _______ _______ _______ _____ _____    ______ ____

>  <TORSDO>
F 7

$$$$
