=
 OpenBabel11062409173D

 37 45  0  0  1  0  0  0  0  0999 V2000
  159.4010  212.7810  150.9000 O   0  0  0  0  0  0  0  0  0  0  0  0
  159.4620  214.4530  154.4220 C   0  0  0  0  0  2  0  0  0  0  0  0
  159.3300  209.2230  154.0590 C   0  0  2  0  0  3  0  0  0  0  0  0
  159.1220  212.9810  149.5320 C   0  0  0  0  0  0  0  0  0  0  0  0
  162.2950  209.6910  151.4750 C   0  0  0  0  0  2  0  0  0  0  0  0
  160.5640  212.6990  155.9440 C   0  0  0  0  0  2  0  0  0  0  0  0
  160.1110  209.6120  152.8020 C   0  0  2  0  0  3  0  0  0  0  0  0
  158.5880  214.3480  149.1870 C   0  0  0  0  0  2  0  0  0  0  0  0
  158.0860  210.0960  154.0190 C   0  0  0  0  0  2  0  0  0  0  0  0
  161.6260  209.3200  152.8070 C   0  0  1  0  0  3  0  0  0  0  0  0
  161.0940  211.4010  155.8890 O   0  0  0  0  0  0  0  0  0  0  0  0
  159.9520  212.3930  148.5400 O   0  0  0  0  0  0  0  0  0  0  0  0
  158.4680  211.3800  153.2840 C   0  0  1  0  0  3  0  0  0  0  0  0
  158.7020  212.4600  154.3360 C   0  0  1  0  0  0  0  0  0  0  0  0
  161.4070  208.5190  155.5350 C   0  0  0  0  0  2  0  0  0  0  0  0
  157.6660  213.1300  149.1690 C   0  0  0  0  0  2  0  0  0  0  0  0
  160.0460  210.5460  156.2560 C   0  0  0  0  0  2  0  0  0  0  0  0
  157.5150  213.0330  155.0900 C   0  0  0  0  0  2  0  0  0  0  0  0
  161.1900  212.0020  149.1040 C   0  0  2  0  0  3  0  0  0  0  0  0
  162.1030  211.0400  151.1610 O   0  0  0  0  0  0  0  0  0  0  0  0
  160.0620  209.2470  155.4390 C   0  0  1  0  0  3  0  0  0  0  0  0
  159.7750  211.0740  152.5490 C   0  0  2  0  0  3  0  0  0  0  0  0
  160.0670  213.0730  154.5610 C   0  0  1  0  0  3  0  0  0  0  0  0
  161.9660  207.8510  153.1560 C   0  0  1  0  0  3  0  0  0  0  0  0
  158.1460  213.8260  153.9710 C   0  0  1  0  0  3  0  0  0  0  0  0
  160.9890  211.0560  150.3070 C   0  0  1  0  0  3  0  0  0  0  0  0
  159.6930  211.4160  151.0620 C   0  0  2  0  0  3  0  0  0  0  0  0
  161.5020  207.3750  154.5380 C   0  0  0  0  0  2  0  0  0  0  0  0
  161.1110  207.2840  150.8400 C   0  0  0  0  0  3  0  0  0  0  0  0
  161.5800  206.8610  152.0940 C   0  0  0  0  0  0  0  0  0  0  0  0
  161.6950  205.4920  152.3600 C   0  0  0  0  0  3  0  0  0  0  0  0
  161.4630  203.2290  151.6490 F   0  0  0  0  0  0  0  0  0  0  0  0
  160.8830  204.9790  150.1380 C   0  0  0  0  0  3  0  0  0  0  0  0
  161.3480  204.5520  151.3860 C   0  0  0  0  0  0  0  0  0  0  0  0
  160.7650  206.3440  149.8650 C   0  0  0  0  0  3  0  0  0  0  0  0
  162.0720  213.2190  149.3920 C   0  0  0  0  0  2  0  0  0  0  0  0
  162.3150  214.0040  148.1180 C   0  0  0  0  0  1  0  0  0  0  0  0
  1 27  1  0  0  0  0
  2 23  1  0  0  0  0
  3  9  1  1  0  0  0
  3 21  1  0  0  0  0
  4  1  1  0  0  0  0
  5 10  1  0  0  0  0
  7 10  1  0  0  0  0
  7  3  1  0  0  0  0
  8  4  1  0  0  0  0
 10 24  1  0  0  0  0
 11  6  1  0  0  0  0
 11 17  1  0  0  0  0
 12 19  1  0  0  0  0
 12  4  1  0  0  0  0
 13  9  1  0  0  0  0
 13 14  1  0  0  0  0
 14 23  1  0  0  0  0
 14 18  1  0  0  0  0
 16  8  1  0  0  0  0
 16  4  1  0  0  0  0
 19 36  1  0  0  0  0
 19 26  1  0  0  0  0
 20  5  1  0  0  0  0
 21 15  1  0  0  0  0
 21 17  1  0  0  0  0
 22  7  1  0  0  0  0
 22 13  1  0  0  0  0
 23  6  1  0  0  0  0
 24 28  1  0  0  0  0
 25 14  1  0  0  0  0
 25  2  1  0  0  0  0
 25 18  1  0  0  0  0
 26 27  1  0  0  0  0
 26 20  1  0  0  0  0
 27 22  1  0  0  0  0
 28 15  1  0  0  0  0
 29 30  1  0  0  0  0
 30 31  2  0  0  0  0
 30 24  1  0  0  0  0
 33 34  2  0  0  0  0
 34 32  1  0  0  0  0
 34 31  1  0  0  0  0
 35 33  1  0  0  0  0
 35 29  2  0  0  0  0
 37 36  1  0  0  0  0
M  END
>  <MODEL>
1

>  <REMARK>
 VINA RESULT:      -0.4      0.000      0.000
  Name = 
  2 active torsions:
  status: ('A' for Active; 'I' for Inactive)
    1  A    between atoms: C_6  and  C_31
    2  A    between atoms: C_11  and  C_26
                            x       y       z     vdW  Elec       q    Type
                         _______ _______ _______ _____ _____    ______ ____

>  <TORSDO>
F 2

$$$$
=
 OpenBabel11062409173D

 37 45  0  0  1  0  0  0  0  0999 V2000
  161.6820  210.7380  149.1760 O   0  0  0  0  0  0  0  0  0  0  0  0
  160.8160  207.3010  147.5530 C   0  0  0  0  0  2  0  0  0  0  0  0
  162.3740  207.4620  152.5570 C   0  0  2  0  0  3  0  0  0  0  0  0
  162.0370  212.0790  148.9200 C   0  0  0  0  0  0  0  0  0  0  0  0
  159.6740  210.3360  152.9260 C   0  0  0  0  0  2  0  0  0  0  0  0
  160.0710  205.8300  149.5260 C   0  0  0  0  0  2  0  0  0  0  0  0
  161.6520  208.8020  152.4030 C   0  0  2  0  0  3  0  0  0  0  0  0
  162.2200  212.4190  147.4630 C   0  0  0  0  0  2  0  0  0  0  0  0
  163.3380  207.4130  151.3830 C   0  0  0  0  0  2  0  0  0  0  0  0
  160.2770  208.9330  153.0920 C   0  0  1  0  0  3  0  0  0  0  0  0
  159.9150  205.8900  150.9180 O   0  0  0  0  0  0  0  0  0  0  0  0
  161.5010  213.1250  149.7180 O   0  0  0  0  0  0  0  0  0  0  0  0
  162.7050  208.2260  150.2550 C   0  0  1  0  0  3  0  0  0  0  0  0
  162.0840  207.2410  149.2690 C   0  0  1  0  0  0  0  0  0  0  0  0
  160.4200  206.1700  153.7820 C   0  0  0  0  0  2  0  0  0  0  0  0
  163.4300  212.3040  148.3880 C   0  0  0  0  0  2  0  0  0  0  0  0
  161.1090  205.3940  151.4570 C   0  0  0  0  0  2  0  0  0  0  0  0
  162.9920  206.3970  148.3920 C   0  0  0  0  0  2  0  0  0  0  0  0
  160.3610  212.6700  150.4230 C   0  0  2  0  0  3  0  0  0  0  0  0
  159.5300  210.6780  151.5770 O   0  0  0  0  0  0  0  0  0  0  0  0
  161.5240  206.1610  152.7200 C   0  0  1  0  0  3  0  0  0  0  0  0
  161.6090  209.0730  150.9070 C   0  0  2  0  0  3  0  0  0  0  0  0
  160.5900  207.1720  149.0440 C   0  0  1  0  0  3  0  0  0  0  0  0
  160.3070  208.5660  154.5960 C   0  0  1  0  0  3  0  0  0  0  0  0
  162.2910  207.6000  147.8070 C   0  0  1  0  0  3  0  0  0  0  0  0
  160.6810  211.4200  151.2700 C   0  0  1  0  0  3  0  0  0  0  0  0
  161.7500  210.5570  150.5680 C   0  0  2  0  0  3  0  0  0  0  0  0
  160.7360  207.1300  154.9170 C   0  0  0  0  0  2  0  0  0  0  0  0
  162.2850  209.2220  156.0350 C   0  0  0  0  0  3  0  0  0  0  0  0
  161.0500  209.5500  155.4540 C   0  0  0  0  0  0  0  0  0  0  0  0
  160.5000  210.8180  155.6730 C   0  0  0  0  0  3  0  0  0  0  0  0
  160.6400  212.9780  156.6720 F   0  0  0  0  0  0  0  0  0  0  0  0
  162.4070  211.4210  157.0380 C   0  0  0  0  0  3  0  0  0  0  0  0
  161.1770  211.7520  156.4630 C   0  0  0  0  0  0  0  0  0  0  0  0
  162.9620  210.1560  156.8240 C   0  0  0  0  0  3  0  0  0  0  0  0
  159.1610  212.5120  149.4850 C   0  0  0  0  0  2  0  0  0  0  0  0
  158.7750  213.8560  148.8970 C   0  0  0  0  0  1  0  0  0  0  0  0
  1 27  1  0  0  0  0
  2 25  1  0  0  0  0
  2 23  1  0  0  0  0
  3  9  1  6  0  0  0
  3 21  1  0  0  0  0
  4  1  1  0  0  0  0
  4 12  1  0  0  0  0
  5 10  1  0  0  0  0
  6 11  1  0  0  0  0
  7  3  1  0  0  0  0
  7 10  1  0  0  0  0
  8 16  1  0  0  0  0
  8  4  1  0  0  0  0
 10 24  1  0  0  0  0
 11 17  1  0  0  0  0
 12 19  1  0  0  0  0
 13 22  1  0  0  0  0
 13  9  1  0  0  0  0
 14 13  1  0  0  0  0
 15 28  1  0  0  0  0
 16  4  1  0  0  0  0
 17 21  1  0  0  0  0
 18 14  1  0  0  0  0
 19 26  1  0  0  0  0
 20  5  1  0  0  0  0
 21 15  1  0  0  0  0
 22  7  1  0  0  0  0
 23 14  1  0  0  0  0
 23  6  1  0  0  0  0
 24 28  1  0  0  0  0
 24 30  1  0  0  0  0
 25 18  1  0  0  0  0
 25 14  1  0  0  0  0
 26 20  1  0  0  0  0
 27 22  1  0  0  0  0
 27 26  1  0  0  0  0
 29 35  1  0  0  0  0
 30 31  1  0  0  0  0
 30 29  2  0  0  0  0
 31 34  2  0  0  0  0
 34 32  1  0  0  0  0
 34 33  1  0  0  0  0
 35 33  2  0  0  0  0
 36 19  1  0  0  0  0
 37 36  1  0  0  0  0
M  END
>  <MODEL>
2

>  <REMARK>
 VINA RESULT:      -0.4      2.593      6.063
  Name = 
  2 active torsions:
  status: ('A' for Active; 'I' for Inactive)
    1  A    between atoms: C_6  and  C_31
    2  A    between atoms: C_11  and  C_26
                            x       y       z     vdW  Elec       q    Type
                         _______ _______ _______ _____ _____    ______ ____

>  <TORSDO>
F 2

$$$$
=
 OpenBabel11062409173D

 37 45  0  0  1  0  0  0  0  0999 V2000
  160.6870  211.8930  149.6240 O   0  0  0  0  0  0  0  0  0  0  0  0
  161.2100  208.1640  148.6150 C   0  0  0  0  0  2  0  0  0  0  0  0
  161.9410  209.6050  153.6030 C   0  0  2  0  0  3  0  0  0  0  0  0
  160.6190  213.2190  149.1480 C   0  0  0  0  0  0  0  0  0  0  0  0
  158.4310  211.3990  153.2180 C   0  0  0  0  0  2  0  0  0  0  0  0
  160.7230  206.8440  150.7660 C   0  0  0  0  0  2  0  0  0  0  0  0
  160.8510  210.5760  153.1460 C   0  0  2  0  0  3  0  0  0  0  0  0
  160.8760  213.3760  147.6710 C   0  0  0  0  0  2  0  0  0  0  0  0
  163.0180  209.7120  152.5360 C   0  0  0  0  0  2  0  0  0  0  0  0
  159.4280  210.3300  153.6910 C   0  0  1  0  0  3  0  0  0  0  0  0
  160.3690  207.0560  152.1070 O   0  0  0  0  0  0  0  0  0  0  0  0
  159.6700  214.1260  149.6920 O   0  0  0  0  0  0  0  0  0  0  0  0
  162.3130  210.0780  151.2300 C   0  0  1  0  0  3  0  0  0  0  0  0
  162.1850  208.8030  150.4020 C   0  0  1  0  0  0  0  0  0  0  0  0
  160.3640  207.9220  154.8960 C   0  0  0  0  0  2  0  0  0  0  0  0
  161.9220  213.8250  148.6900 C   0  0  0  0  0  2  0  0  0  0  0  0
  161.5760  207.0870  152.8190 C   0  0  0  0  0  2  0  0  0  0  0  0
  163.4270  208.1990  149.7710 C   0  0  0  0  0  2  0  0  0  0  0  0
  158.6550  213.4190  150.3810 C   0  0  2  0  0  3  0  0  0  0  0  0
  158.3670  211.4620  151.8220 O   0  0  0  0  0  0  0  0  0  0  0  0
  161.5450  208.1320  153.9420 C   0  0  1  0  0  3  0  0  0  0  0  0
  160.9250  210.5860  151.6260 C   0  0  2  0  0  3  0  0  0  0  0  0
  160.8380  208.1920  150.0810 C   0  0  1  0  0  3  0  0  0  0  0  0
  159.3720  210.2280  155.2340 C   0  0  1  0  0  3  0  0  0  0  0  0
  162.4590  208.9850  148.9190 C   0  0  1  0  0  3  0  0  0  0  0  0
  159.2460  212.4990  151.4700 C   0  0  1  0  0  3  0  0  0  0  0  0
  160.6210  211.9590  151.0260 C   0  0  2  0  0  3  0  0  0  0  0  0
  160.1960  209.0930  155.8520 C   0  0  0  0  0  2  0  0  0  0  0  0
  160.9250  211.8790  156.3660 C   0  0  0  0  0  3  0  0  0  0  0  0
  159.6330  211.5250  155.9470 C   0  0  0  0  0  0  0  0  0  0  0  0
  158.5660  212.3970  156.1910 C   0  0  0  0  0  3  0  0  0  0  0  0
  157.7500  214.4530  157.0800 F   0  0  0  0  0  0  0  0  0  0  0  0
  160.0740  213.9600  157.2600 C   0  0  0  0  0  3  0  0  0  0  0  0
  158.7850  213.6130  156.8460 C   0  0  0  0  0  0  0  0  0  0  0  0
  161.1440  213.0940  157.0200 C   0  0  0  0  0  3  0  0  0  0  0  0
  157.7090  212.7200  149.4010 C   0  0  0  0  0  2  0  0  0  0  0  0
  156.4180  213.5040  149.2670 C   0  0  0  0  0  1  0  0  0  0  0  0
  1 27  1  0  0  0  0
  2 25  1  0  0  0  0
  2 23  1  0  0  0  0
  3  9  1  6  0  0  0
  3 21  1  0  0  0  0
  4  1  1  0  0  0  0
  4 12  1  0  0  0  0
  5 10  1  0  0  0  0
  6 11  1  0  0  0  0
  7  3  1  0  0  0  0
  7 10  1  0  0  0  0
  8 16  1  0  0  0  0
  8  4  1  0  0  0  0
 10 24  1  0  0  0  0
 11 17  1  0  0  0  0
 12 19  1  0  0  0  0
 13 22  1  0  0  0  0
 13  9  1  0  0  0  0
 14 13  1  0  0  0  0
 15 28  1  0  0  0  0
 16  4  1  0  0  0  0
 17 21  1  0  0  0  0
 18 14  1  0  0  0  0
 19 26  1  0  0  0  0
 20  5  1  0  0  0  0
 21 15  1  0  0  0  0
 22  7  1  0  0  0  0
 23 14  1  0  0  0  0
 23  6  1  0  0  0  0
 24 28  1  0  0  0  0
 24 30  1  0  0  0  0
 25 18  1  0  0  0  0
 25 14  1  0  0  0  0
 26 20  1  0  0  0  0
 27 26  1  0  0  0  0
 27 22  1  0  0  0  0
 29 35  1  0  0  0  0
 30 31  1  0  0  0  0
 30 29  2  0  0  0  0
 31 34  2  0  0  0  0
 34 32  1  0  0  0  0
 34 33  1  0  0  0  0
 35 33  2  0  0  0  0
 36 19  1  0  0  0  0
 37 36  1  0  0  0  0
M  END
>  <MODEL>
3

>  <REMARK>
 VINA RESULT:      -0.2      2.675      6.064
  Name = 
  2 active torsions:
  status: ('A' for Active; 'I' for Inactive)
    1  A    between atoms: C_6  and  C_31
    2  A    between atoms: C_11  and  C_26
                            x       y       z     vdW  Elec       q    Type
                         _______ _______ _______ _____ _____    ______ ____

>  <TORSDO>
F 2

$$$$
=
 OpenBabel11062409173D

 37 45  0  0  1  0  0  0  0  0999 V2000
  157.5170  211.3650  155.5670 O   0  0  0  0  0  0  0  0  0  0  0  0
  160.8290  209.9710  157.0800 C   0  0  0  0  0  2  0  0  0  0  0  0
  160.2450  210.1230  151.8710 C   0  0  2  0  0  3  0  0  0  0  0  0
  156.1610  211.6510  155.8250 C   0  0  0  0  0  0  0  0  0  0  0  0
  159.0850  213.8610  152.4750 C   0  0  0  0  0  2  0  0  0  0  0  0
  162.5980  210.4150  155.2680 C   0  0  0  0  0  2  0  0  0  0  0  0
  159.4220  211.3320  152.3210 C   0  0  2  0  0  3  0  0  0  0  0  0
  155.6830  211.2660  157.2020 C   0  0  0  0  0  2  0  0  0  0  0  0
  159.7430  208.9780  152.7360 C   0  0  0  0  0  2  0  0  0  0  0  0
  160.0230  212.7250  152.0400 C   0  0  1  0  0  3  0  0  0  0  0  0
  162.7100  210.9540  153.9780 O   0  0  0  0  0  0  0  0  0  0  0  0
  155.5620  212.8220  155.2880 O   0  0  0  0  0  0  0  0  0  0  0  0
  159.2730  209.5910  154.0540 C   0  0  1  0  0  3  0  0  0  0  0  0
  160.3710  209.3580  155.0880 C   0  0  1  0  0  0  0  0  0  0  0  0
  162.4020  211.4530  151.1170 C   0  0  0  0  0  2  0  0  0  0  0  0
  155.2510  210.4580  155.9800 C   0  0  0  0  0  2  0  0  0  0  0  0
  162.5940  209.8690  153.1000 C   0  0  0  0  0  2  0  0  0  0  0  0
  160.6070  207.9550  155.6180 C   0  0  0  0  0  2  0  0  0  0  0  0
  156.5600  213.7410  154.8810 C   0  0  2  0  0  3  0  0  0  0  0  0
  158.7720  213.7780  153.8360 O   0  0  0  0  0  0  0  0  0  0  0  0
  161.8030  210.2420  151.8390 C   0  0  1  0  0  3  0  0  0  0  0  0
  159.1120  211.0890  153.7910 C   0  0  2  0  0  3  0  0  0  0  0  0
  161.1460  210.5040  155.7000 C   0  0  1  0  0  3  0  0  0  0  0  0
  160.4230  212.9330  150.5590 C   0  0  1  0  0  3  0  0  0  0  0  0
  159.8650  208.9610  156.4650 C   0  0  1  0  0  3  0  0  0  0  0  0
  157.5450  213.0990  153.8810 C   0  0  1  0  0  3  0  0  0  0  0  0
  157.7300  211.6010  154.1980 C   0  0  2  0  0  3  0  0  0  0  0  0
  161.4840  211.9670  150.0190 C   0  0  0  0  0  2  0  0  0  0  0  0
  159.4350  212.9160  148.2270 C   0  0  0  0  0  3  0  0  0  0  0  0
  159.2580  213.0280  149.6150 C   0  0  0  0  0  0  0  0  0  0  0  0
  157.9740  213.2280  150.1320 C   0  0  0  0  0  3  0  0  0  0  0  0
  155.6320  213.5060  149.7790 F   0  0  0  0  0  0  0  0  0  0  0  0
  157.0550  213.1990  147.8920 C   0  0  0  0  0  3  0  0  0  0  0  0
  156.8740  213.3130  149.2730 C   0  0  0  0  0  0  0  0  0  0  0  0
  158.3360  213.0000  147.3680 C   0  0  0  0  0  3  0  0  0  0  0  0
  157.2230  214.4040  156.0910 C   0  0  0  0  0  2  0  0  0  0  0  0
  156.2560  214.4530  157.2580 C   0  0  0  0  0  1  0  0  0  0  0  0
  1  4  1  0  0  0  0
  3  7  1  0  0  0  0
  3  9  1  1  0  0  0
  4 16  1  0  0  0  0
  4  8  1  0  0  0  0
  5 20  1  0  0  0  0
  6 23  1  0  0  0  0
  7 22  1  0  0  0  0
  9 13  1  0  0  0  0
 10  7  1  0  0  0  0
 10  5  1  0  0  0  0
 11  6  1  0  0  0  0
 12  4  1  0  0  0  0
 13 14  1  0  0  0  0
 14 18  1  0  0  0  0
 14 23  1  0  0  0  0
 14 25  1  0  0  0  0
 15 21  1  0  0  0  0
 16  8  1  0  0  0  0
 17 11  1  0  0  0  0
 18 25  1  0  0  0  0
 19 12  1  0  0  0  0
 19 36  1  0  0  0  0
 20 26  1  0  0  0  0
 21  3  1  0  0  0  0
 21 17  1  0  0  0  0
 22 13  1  0  0  0  0
 22 27  1  0  0  0  0
 23  2  1  0  0  0  0
 24 10  1  0  0  0  0
 25  2  1  0  0  0  0
 26 27  1  0  0  0  0
 26 19  1  0  0  0  0
 27  1  1  0  0  0  0
 28 24  1  0  0  0  0
 28 15  1  0  0  0  0
 29 30  1  0  0  0  0
 30 31  2  0  0  0  0
 30 24  1  0  0  0  0
 33 34  2  0  0  0  0
 34 32  1  0  0  0  0
 34 31  1  0  0  0  0
 35 33  1  0  0  0  0
 35 29  2  0  0  0  0
 36 37  1  0  0  0  0
M  END
>  <MODEL>
4

>  <REMARK>
 VINA RESULT:       0.0      3.065      6.365
  Name = 
  2 active torsions:
  status: ('A' for Active; 'I' for Inactive)
    1  A    between atoms: C_6  and  C_31
    2  A    between atoms: C_11  and  C_26
                            x       y       z     vdW  Elec       q    Type
                         _______ _______ _______ _____ _____    ______ ____

>  <TORSDO>
F 2

$$$$
=
 OpenBabel11062409173D

 37 45  0  0  1  0  0  0  0  0999 V2000
  159.4790  212.4860  152.1400 O   0  0  0  0  0  0  0  0  0  0  0  0
  160.4860  213.0890  155.8580 C   0  0  0  0  0  2  0  0  0  0  0  0
  160.0250  208.1770  154.0820 C   0  0  2  0  0  3  0  0  0  0  0  0
  158.8800  213.0590  150.9990 C   0  0  0  0  0  0  0  0  0  0  0  0
  162.2770  209.4380  151.0780 C   0  0  0  0  0  2  0  0  0  0  0  0
  161.8470  211.0050  156.4990 C   0  0  0  0  0  2  0  0  0  0  0  0
  160.4870  208.9270  152.8310 C   0  0  2  0  0  3  0  0  0  0  0  0
  158.3420  214.4530  151.1980 C   0  0  0  0  0  2  0  0  0  0  0  0
  158.8510  208.9920  154.6010 C   0  0  0  0  0  2  0  0  0  0  0  0
  161.9420  208.6860  152.3750 C   0  0  1  0  0  3  0  0  0  0  0  0
  162.2860  209.7900  155.9490 O   0  0  0  0  0  0  0  0  0  0  0  0
  159.4100  212.8000  149.7060 O   0  0  0  0  0  0  0  0  0  0  0  0
  159.1000  210.4410  154.1870 C   0  0  1  0  0  3  0  0  0  0  0  0
  159.6370  211.1840  155.4070 C   0  0  1  0  0  0  0  0  0  0  0  0
  162.3670  207.1370  154.7310 C   0  0  0  0  0  2  0  0  0  0  0  0
  157.3880  213.2680  151.0690 C   0  0  0  0  0  2  0  0  0  0  0  0
  161.3220  208.8390  156.3100 C   0  0  0  0  0  2  0  0  0  0  0  0
  158.7000  211.4870  156.5630 C   0  0  0  0  0  2  0  0  0  0  0  0
  160.7300  212.2970  149.8090 C   0  0  2  0  0  3  0  0  0  0  0  0
  162.0770  210.8150  151.2160 O   0  0  0  0  0  0  0  0  0  0  0  0
  161.0750  207.8270  155.1830 C   0  0  1  0  0  3  0  0  0  0  0  0
  160.1690  210.3920  153.0930 C   0  0  2  0  0  3  0  0  0  0  0  0
  161.0420  211.7430  155.4460 C   0  0  1  0  0  3  0  0  0  0  0  0
  162.2890  207.1880  152.2000 C   0  0  1  0  0  3  0  0  0  0  0  0
  159.0720  212.5820  155.5920 C   0  0  1  0  0  3  0  0  0  0  0  0
  160.7890  211.0430  150.7080 C   0  0  1  0  0  3  0  0  0  0  0  0
  159.7380  211.1400  151.8320 C   0  0  2  0  0  3  0  0  0  0  0  0
  162.1590  206.3270  153.4610 C   0  0  0  0  0  2  0  0  0  0  0  0
  160.9090  205.3210  151.1840 C   0  0  0  0  0  3  0  0  0  0  0  0
  161.6060  206.5300  151.0330 C   0  0  0  0  0  0  0  0  0  0  0  0
  161.6640  207.1400  149.7750 C   0  0  0  0  0  3  0  0  0  0  0  0
  161.0910  207.1460  147.4620 F   0  0  0  0  0  0  0  0  0  0  0  0
  160.3380  205.3480  148.8330 C   0  0  0  0  0  3  0  0  0  0  0  0
  161.0320  206.5510  148.6770 C   0  0  0  0  0  0  0  0  0  0  0  0
  160.2760  204.7330  150.0860 C   0  0  0  0  0  3  0  0  0  0  0  0
  161.7120  213.4060  150.1980 C   0  0  0  0  0  2  0  0  0  0  0  0
  161.7940  214.4450  149.0970 C   0  0  0  0  0  1  0  0  0  0  0  0
  3  9  1  1  0  0  0
  3 21  1  0  0  0  0
  4 16  1  0  0  0  0
  4  8  1  0  0  0  0
  4  1  1  0  0  0  0
  5 20  1  0  0  0  0
  5 10  1  0  0  0  0
  7 22  1  0  0  0  0
  7  3  1  0  0  0  0
 10  7  1  0  0  0  0
 11 17  1  0  0  0  0
 11  6  1  0  0  0  0
 12 19  1  0  0  0  0
 12  4  1  0  0  0  0
 13  9  1  0  0  0  0
 13 14  1  0  0  0  0
 14 23  1  0  0  0  0
 14 25  1  0  0  0  0
 14 18  1  0  0  0  0
 15 21  1  0  0  0  0
 16  8  1  0  0  0  0
 19 36  1  0  0  0  0
 19 26  1  0  0  0  0
 21 17  1  0  0  0  0
 22 13  1  0  0  0  0
 23  2  1  0  0  0  0
 23  6  1  0  0  0  0
 24 10  1  0  0  0  0
 24 28  1  0  0  0  0
 25  2  1  0  0  0  0
 25 18  1  0  0  0  0
 26 20  1  0  0  0  0
 26 27  1  0  0  0  0
 27  1  1  0  0  0  0
 27 22  1  0  0  0  0
 28 15  1  0  0  0  0
 30 29  1  0  0  0  0
 30 24  1  0  0  0  0
 31 30  2  0  0  0  0
 32 34  1  0  0  0  0
 33 35  1  0  0  0  0
 34 33  2  0  0  0  0
 34 31  1  0  0  0  0
 35 29  2  0  0  0  0
 37 36  1  0  0  0  0
M  END
>  <MODEL>
5

>  <REMARK>
 VINA RESULT:       0.1      1.554      1.925
  Name = 
  2 active torsions:
  status: ('A' for Active; 'I' for Inactive)
    1  A    between atoms: C_6  and  C_31
    2  A    between atoms: C_11  and  C_26
                            x       y       z     vdW  Elec       q    Type
                         _______ _______ _______ _____ _____    ______ ____

>  <TORSDO>
F 2

$$$$
