=
 OpenBabel11052422543D

 28 31  0  0  1  0  0  0  0  0999 V2000
  161.3900  207.9930  151.6400 C   0  0  0  0  0  0  0  0  0  0  0  0
  161.0530  206.5750  147.0230 C   0  0  0  0  0  2  0  0  0  0  0  0
  160.1440  204.6480  151.5060 O   0  0  0  0  0  1  0  0  0  0  0  0
  161.2040  203.4770  146.6190 C   0  0  0  0  0  3  0  0  0  0  0  0
  161.5300  205.8830  149.3530 C   0  0  2  0  0  3  0  0  0  0  0  0
  161.1310  205.2780  144.8660 C   0  0  0  0  0  0  0  0  0  0  0  0
  161.4130  205.6330  147.8930 C   0  0  1  0  0  3  0  0  0  0  0  0
  161.2900  203.5880  149.0020 O   0  0  0  0  0  0  0  0  0  0  0  0
  161.3670  204.0240  145.2580 C   0  0  0  0  0  3  0  0  0  0  0  0
  162.3330  205.6040  152.0430 C   0  0  2  0  0  3  0  0  0  0  0  0
  162.5560  206.8170  149.7850 N   0  0  0  0  0  2  0  0  0  0  0  0
  161.2350  204.1870  147.7500 C   0  0  0  0  0  0  0  0  0  0  0  0
  160.6060  206.5990  153.5720 C   0  0  0  0  0  2  0  0  0  0  0  0
  161.5220  204.4680  151.3540 C   0  0  2  0  0  3  0  0  0  0  0  0
  161.9310  205.8410  153.5000 C   0  0  0  0  0  2  0  0  0  0  0  0
  161.3910  205.6090  143.5780 F   0  0  0  0  0  0  0  0  0  0  0  0
  160.4050  206.2770  145.7090 C   0  0  0  0  0  2  0  0  0  0  0  0
  161.8880  204.5180  149.8900 C   0  0  2  0  0  3  0  0  0  0  0  0
  160.6290  207.8510  152.7390 C   0  0  0  0  0  3  0  0  0  0  0  0
  162.4340  206.9620  151.2540 C   0  0  1  0  0  3  0  0  0  0  0  0
  161.3700  209.3140  150.9300 C   0  0  0  0  0  2  0  0  0  0  0  0
  161.7460  210.4500  151.8750 C   0  0  0  0  0  2  0  0  0  0  0  0
  160.5140  210.9760  152.6040 C   0  0  2  0  0  3  0  0  0  0  0  0
  158.5460  212.4560  152.1860 C   0  0  0  0  0  1  0  0  0  0  0  0
  160.0410  212.2800  151.9790 C   0  0  0  0  0  2  0  0  0  0  0  0
  160.8330  211.2070  154.0730 C   0  0  0  0  0  2  0  0  0  0  0  0
  162.0430  210.5960  154.4100 O   0  0  0  0  0  0  0  0  0  0  0  0
  162.1880  210.8170  155.7810 C   0  0  0  0  0  1  0  0  0  0  0  0
  1 19  2  0  0  0  0
  4 12  2  0  0  0  0
  5 11  1  6  0  0  0
  5 18  1  0  0  0  0
  6  9  2  0  0  0  0
  6 17  1  0  0  0  0
  7  2  1  1  0  0  0
  7  5  1  0  0  0  0
  9  4  1  0  0  0  0
 10 15  1  1  0  0  0
 12  7  1  0  0  0  0
 12  8  1  0  0  0  0
 14  3  1  6  0  0  0
 14 10  1  0  0  0  0
 15 13  1  0  0  0  0
 16  6  1  0  0  0  0
 17  2  1  0  0  0  0
 18  8  1  6  0  0  0
 18 14  1  0  0  0  0
 19 13  1  0  0  0  0
 20 11  1  6  0  0  0
 20  1  1  0  0  0  0
 20 10  1  0  0  0  0
 21  1  1  0  0  0  0
 21 22  1  0  0  0  0
 23 22  1  6  0  0  0
 23 26  1  0  0  0  0
 25 24  1  0  0  0  0
 25 23  1  0  0  0  0
 26 27  1  0  0  0  0
 27 28  1  0  0  0  0
M  END
>  <MODEL>
1

>  <REMARK>
 VINA RESULT:      -7.3      0.000      0.000
  Name = 
  6 active torsions:
  status: ('A' for Active; 'I' for Inactive)
    1  A    between atoms: C_1  and  C_2
    2  A    between atoms: C_2  and  C_3
    3  A    between atoms: C_3  and  C_7
    4  A    between atoms: O_6  and  C_28
    5  A    between atoms: C_7  and  C_11
    6  A    between atoms: C_7  and  C_28
                            x       y       z     vdW  Elec       q    Type
                         _______ _______ _______ _____ _____    ______ ____

>  <TORSDO>
F 6

$$$$
=
 OpenBabel11052422543D

 28 31  0  0  1  0  0  0  0  0999 V2000
  160.9980  203.6340  149.5580 C   0  0  0  0  0  0  0  0  0  0  0  0
  161.7580  208.3340  148.6780 C   0  0  0  0  0  2  0  0  0  0  0  0
  162.8020  205.0830  152.2800 O   0  0  0  0  0  1  0  0  0  0  0  0
  162.1550  210.0730  151.2490 C   0  0  0  0  0  3  0  0  0  0  0  0
  161.3130  206.6160  150.4060 C   0  0  2  0  0  3  0  0  0  0  0  0
  161.9900  210.8360  148.8580 C   0  0  0  0  0  0  0  0  0  0  0  0
  161.5290  208.0140  149.9500 C   0  0  1  0  0  3  0  0  0  0  0  0
  161.9560  207.9090  152.2390 O   0  0  0  0  0  0  0  0  0  0  0  0
  161.9560  211.0640  150.1730 C   0  0  0  0  0  3  0  0  0  0  0  0
  160.4620  204.4320  151.9740 C   0  0  2  0  0  3  0  0  0  0  0  0
  160.1260  205.9360  149.9140 N   0  0  0  0  0  2  0  0  0  0  0  0
  161.9580  208.7570  151.1370 C   0  0  0  0  0  0  0  0  0  0  0  0
  161.9300  202.4370  151.5550 C   0  0  0  0  0  2  0  0  0  0  0  0
  161.4820  205.4530  152.5560 C   0  0  2  0  0  3  0  0  0  0  0  0
  160.7580  202.9830  152.3690 C   0  0  0  0  0  2  0  0  0  0  0  0
  161.7290  211.8670  148.0200 F   0  0  0  0  0  0  0  0  0  0  0  0
  162.5000  209.5640  148.2610 C   0  0  0  0  0  2  0  0  0  0  0  0
  161.1720  206.7770  151.9000 C   0  0  2  0  0  3  0  0  0  0  0  0
  161.7270  202.6320  150.0780 C   0  0  0  0  0  3  0  0  0  0  0  0
  160.1620  204.5490  150.4340 C   0  0  1  0  0  3  0  0  0  0  0  0
  160.8200  203.6860  148.0700 C   0  0  0  0  0  2  0  0  0  0  0  0
  162.1680  203.7720  147.3610 C   0  0  0  0  0  2  0  0  0  0  0  0
  162.0010  204.3260  145.9490 C   0  0  2  0  0  3  0  0  0  0  0  0
  160.4560  206.1760  145.2990 C   0  0  0  0  0  1  0  0  0  0  0  0
  161.7620  205.8280  145.9910 C   0  0  0  0  0  2  0  0  0  0  0  0
  160.8310  203.6470  145.2550 C   0  0  0  0  0  2  0  0  0  0  0  0
  160.9800  202.2580  145.2950 O   0  0  0  0  0  0  0  0  0  0  0  0
  159.7450  201.7520  144.8860 C   0  0  0  0  0  1  0  0  0  0  0  0
  1 19  2  0  0  0  0
  5 11  1  6  0  0  0
  5 18  1  0  0  0  0
  6  9  2  0  0  0  0
  7  2  1  6  0  0  0
  7  5  1  0  0  0  0
  7 12  1  0  0  0  0
  9  4  1  0  0  0  0
 10 15  1  6  0  0  0
 10 14  1  0  0  0  0
 11 20  1  0  0  0  0
 12  4  2  0  0  0  0
 12  8  1  0  0  0  0
 13 15  1  0  0  0  0
 14  3  1  6  0  0  0
 16  6  1  0  0  0  0
 17  2  1  0  0  0  0
 17  6  1  0  0  0  0
 18  8  1  1  0  0  0
 18 14  1  0  0  0  0
 19 13  1  0  0  0  0
 20  1  1  6  0  0  0
 20 10  1  0  0  0  0
 21  1  1  0  0  0  0
 22 21  1  0  0  0  0
 23 26  1  1  0  0  0
 23 25  1  0  0  0  0
 23 22  1  0  0  0  0
 24 25  1  0  0  0  0
 26 27  1  0  0  0  0
 28 27  1  0  0  0  0
M  END
>  <MODEL>
2

>  <REMARK>
 VINA RESULT:      -7.2      2.614      6.936
  Name = 
  6 active torsions:
  status: ('A' for Active; 'I' for Inactive)
    1  A    between atoms: C_1  and  C_2
    2  A    between atoms: C_2  and  C_3
    3  A    between atoms: C_3  and  C_7
    4  A    between atoms: O_6  and  C_28
    5  A    between atoms: C_7  and  C_11
    6  A    between atoms: C_7  and  C_28
                            x       y       z     vdW  Elec       q    Type
                         _______ _______ _______ _____ _____    ______ ____

>  <TORSDO>
F 6

$$$$
=
 OpenBabel11052422543D

 28 31  0  0  1  0  0  0  0  0999 V2000
  160.3750  210.4870  153.6510 C   0  0  0  0  0  0  0  0  0  0  0  0
  160.7260  207.0600  150.2490 C   0  0  0  0  0  2  0  0  0  0  0  0
  159.5550  207.3110  155.0660 O   0  0  0  0  0  1  0  0  0  0  0  0
  161.2860  204.1930  151.3690 C   0  0  0  0  0  3  0  0  0  0  0  0
  161.0180  207.6090  152.6470 C   0  0  2  0  0  3  0  0  0  0  0  0
  161.1980  204.9420  148.9700 C   0  0  0  0  0  0  0  0  0  0  0  0
  161.0950  206.6970  151.4760 C   0  0  1  0  0  3  0  0  0  0  0  0
  161.0910  205.4070  153.4160 O   0  0  0  0  0  0  0  0  0  0  0  0
  161.5350  204.0660  149.9190 C   0  0  0  0  0  3  0  0  0  0  0  0
  161.5420  208.7360  155.1780 C   0  0  2  0  0  3  0  0  0  0  0  0
  161.8710  208.7850  152.6270 N   0  0  0  0  0  2  0  0  0  0  0  0
  161.1060  205.3410  152.0280 C   0  0  0  0  0  0  0  0  0  0  0  0
  159.5500  210.0410  155.9770 C   0  0  0  0  0  2  0  0  0  0  0  0
  160.9530  207.2990  155.0770 C   0  0  2  0  0  3  0  0  0  0  0  0
  160.9540  209.5540  156.3300 C   0  0  0  0  0  2  0  0  0  0  0  0
  161.5590  204.6760  147.6920 F   0  0  0  0  0  0  0  0  0  0  0  0
  160.2690  206.0900  149.2070 C   0  0  0  0  0  2  0  0  0  0  0  0
  161.4720  206.7230  153.7810 C   0  0  2  0  0  3  0  0  0  0  0  0
  159.5180  210.7510  154.6520 C   0  0  0  0  0  3  0  0  0  0  0  0
  161.5690  209.5720  153.8460 C   0  0  1  0  0  3  0  0  0  0  0  0
  160.2780  211.3070  152.3990 C   0  0  0  0  0  2  0  0  0  0  0  0
  158.9320  212.0180  152.3130 C   0  0  0  0  0  2  0  0  0  0  0  0
  159.1250  213.5230  152.1570 C   0  0  2  0  0  3  0  0  0  0  0  0
  157.1570  213.4370  153.6910 C   0  0  0  0  0  1  0  0  0  0  0  0
  158.3320  214.2750  153.2160 C   0  0  0  0  0  2  0  0  0  0  0  0
  158.6730  213.9700  150.7750 C   0  0  0  0  0  2  0  0  0  0  0  0
  157.7280  213.0780  150.2610 O   0  0  0  0  0  0  0  0  0  0  0  0
  156.6930  213.8860  149.7850 C   0  0  0  0  0  1  0  0  0  0  0  0
  1 20  1  0  0  0  0
  1 19  2  0  0  0  0
  4 12  2  0  0  0  0
  5 11  1  6  0  0  0
  5 18  1  0  0  0  0
  6 17  1  0  0  0  0
  6  9  2  0  0  0  0
  7  2  1  6  0  0  0
  7 12  1  0  0  0  0
  7  5  1  0  0  0  0
  9  4  1  0  0  0  0
 10 15  1  1  0  0  0
 12  8  1  0  0  0  0
 13 15  1  0  0  0  0
 14  3  1  6  0  0  0
 14 10  1  0  0  0  0
 16  6  1  0  0  0  0
 17  2  1  0  0  0  0
 18  8  1  6  0  0  0
 18 14  1  0  0  0  0
 19 13  1  0  0  0  0
 20 11  1  6  0  0  0
 20 10  1  0  0  0  0
 21  1  1  0  0  0  0
 22 21  1  0  0  0  0
 23 26  1  6  0  0  0
 23 22  1  0  0  0  0
 23 25  1  0  0  0  0
 25 24  1  0  0  0  0
 27 26  1  0  0  0  0
 28 27  1  0  0  0  0
M  END
>  <MODEL>
3

>  <REMARK>
 VINA RESULT:      -7.1      2.392      4.349
  Name = 
  6 active torsions:
  status: ('A' for Active; 'I' for Inactive)
    1  A    between atoms: C_1  and  C_2
    2  A    between atoms: C_2  and  C_3
    3  A    between atoms: C_3  and  C_7
    4  A    between atoms: O_6  and  C_28
    5  A    between atoms: C_7  and  C_11
    6  A    between atoms: C_7  and  C_28
                            x       y       z     vdW  Elec       q    Type
                         _______ _______ _______ _____ _____    ______ ____

>  <TORSDO>
F 6

$$$$
=
 OpenBabel11052422543D

 28 31  0  0  1  0  0  0  0  0999 V2000
  161.1200  208.0840  152.2490 C   0  0  0  0  0  0  0  0  0  0  0  0
  160.9520  206.7090  147.6100 C   0  0  0  0  0  2  0  0  0  0  0  0
  160.1490  204.6510  152.0560 O   0  0  0  0  0  1  0  0  0  0  0  0
  161.3570  203.6380  147.1670 C   0  0  0  0  0  3  0  0  0  0  0  0
  161.4570  206.0240  149.9360 C   0  0  2  0  0  3  0  0  0  0  0  0
  161.1600  205.4520  145.4370 C   0  0  0  0  0  0  0  0  0  0  0  0
  161.3770  205.7860  148.4720 C   0  0  1  0  0  3  0  0  0  0  0  0
  161.4060  203.7220  149.5530 O   0  0  0  0  0  0  0  0  0  0  0  0
  161.4910  204.2160  145.8150 C   0  0  0  0  0  3  0  0  0  0  0  0
  162.2470  205.7730  152.6320 C   0  0  2  0  0  3  0  0  0  0  0  0
  162.3980  207.0320  150.3940 N   0  0  0  0  0  2  0  0  0  0  0  0
  161.3170  204.3320  148.3070 C   0  0  0  0  0  0  0  0  0  0  0  0
  160.4290  206.6040  154.1520 C   0  0  0  0  0  2  0  0  0  0  0  0
  161.5390  204.5850  151.9180 C   0  0  2  0  0  3  0  0  0  0  0  0
  161.8110  205.9560  154.0870 C   0  0  0  0  0  2  0  0  0  0  0  0
  161.4070  205.8210  144.1570 F   0  0  0  0  0  0  0  0  0  0  0  0
  160.3450  206.3770  146.2840 C   0  0  0  0  0  2  0  0  0  0  0  0
  161.9170  204.6850  150.4600 C   0  0  2  0  0  3  0  0  0  0  0  0
  160.3610  207.8650  153.3360 C   0  0  0  0  0  3  0  0  0  0  0  0
  162.2480  207.1450  151.8630 C   0  0  1  0  0  3  0  0  0  0  0  0
  161.0020  209.4080  151.5550 C   0  0  0  0  0  2  0  0  0  0  0  0
  161.7160  210.5030  152.3410 C   0  0  0  0  0  2  0  0  0  0  0  0
  160.7090  211.4460  152.9920 C   0  0  2  0  0  3  0  0  0  0  0  0
  161.9970  210.6920  154.9940 C   0  0  0  0  0  1  0  0  0  0  0  0
  160.6620  211.2190  154.4960 C   0  0  0  0  0  2  0  0  0  0  0  0
  159.3250  211.2210  152.4040 C   0  0  0  0  0  2  0  0  0  0  0  0
  158.6220  212.4270  152.3380 O   0  0  0  0  0  0  0  0  0  0  0  0
  159.3320  213.2060  151.4220 C   0  0  0  0  0  1  0  0  0  0  0  0
  1 19  2  0  0  0  0
  4 12  2  0  0  0  0
  5 11  1  6  0  0  0
  5 18  1  0  0  0  0
  6  9  2  0  0  0  0
  6 17  1  0  0  0  0
  7  2  1  1  0  0  0
  7  5  1  0  0  0  0
  9  4  1  0  0  0  0
 10 15  1  1  0  0  0
 12  7  1  0  0  0  0
 12  8  1  0  0  0  0
 14  3  1  6  0  0  0
 14 10  1  0  0  0  0
 15 13  1  0  0  0  0
 16  6  1  0  0  0  0
 17  2  1  0  0  0  0
 18  8  1  6  0  0  0
 18 14  1  0  0  0  0
 19 13  1  0  0  0  0
 20 11  1  6  0  0  0
 20  1  1  0  0  0  0
 20 10  1  0  0  0  0
 21  1  1  0  0  0  0
 21 22  1  0  0  0  0
 23 22  1  6  0  0  0
 23 25  1  0  0  0  0
 25 24  1  0  0  0  0
 26 23  1  0  0  0  0
 27 26  1  0  0  0  0
 28 27  1  0  0  0  0
M  END
>  <MODEL>
4

>  <REMARK>
 VINA RESULT:      -7.1      1.073      1.858
  Name = 
  6 active torsions:
  status: ('A' for Active; 'I' for Inactive)
    1  A    between atoms: C_1  and  C_2
    2  A    between atoms: C_2  and  C_3
    3  A    between atoms: C_3  and  C_7
    4  A    between atoms: O_6  and  C_28
    5  A    between atoms: C_7  and  C_11
    6  A    between atoms: C_7  and  C_28
                            x       y       z     vdW  Elec       q    Type
                         _______ _______ _______ _____ _____    ______ ____

>  <TORSDO>
F 6

$$$$
=
 OpenBabel11052422543D

 28 31  0  0  1  0  0  0  0  0999 V2000
  160.5630  211.3850  153.0350 C   0  0  0  0  0  0  0  0  0  0  0  0
  160.8380  207.1350  150.7340 C   0  0  0  0  0  2  0  0  0  0  0  0
  159.5680  208.7630  155.2480 O   0  0  0  0  0  1  0  0  0  0  0  0
  161.2410  204.6750  152.6250 C   0  0  0  0  0  3  0  0  0  0  0  0
  161.0980  208.3190  152.8930 C   0  0  2  0  0  3  0  0  0  0  0  0
  161.2420  204.7280  150.1110 C   0  0  0  0  0  0  0  0  0  0  0  0
  161.1610  207.1150  152.0250 C   0  0  1  0  0  3  0  0  0  0  0  0
  161.0540  206.4190  154.2460 O   0  0  0  0  0  0  0  0  0  0  0  0
  161.5170  204.1400  151.2770 C   0  0  0  0  0  3  0  0  0  0  0  0
  161.6140  210.0890  155.0280 C   0  0  2  0  0  3  0  0  0  0  0  0
  162.0040  209.4110  152.5770 N   0  0  0  0  0  2  0  0  0  0  0  0
  161.0980  205.9670  152.9330 C   0  0  0  0  0  0  0  0  0  0  0  0
  159.6650  211.6370  155.3630 C   0  0  0  0  0  2  0  0  0  0  0  0
  160.9630  208.7030  155.3100 C   0  0  2  0  0  3  0  0  0  0  0  0
  161.0380  211.2170  155.8860 C   0  0  0  0  0  2  0  0  0  0  0  0
  161.6200  204.1020  148.9710 F   0  0  0  0  0  0  0  0  0  0  0  0
  160.3610  205.9300  149.9870 C   0  0  0  0  0  2  0  0  0  0  0  0
  161.4850  207.7700  154.2440 C   0  0  2  0  0  3  0  0  0  0  0  0
  159.6960  211.9500  153.8930 C   0  0  0  0  0  3  0  0  0  0  0  0
  161.7100  210.5170  153.5180 C   0  0  1  0  0  3  0  0  0  0  0  0
  160.5330  211.8260  151.6020 C   0  0  0  0  0  2  0  0  0  0  0  0
  159.7360  213.1160  151.4430 C   0  0  0  0  0  2  0  0  0  0  0  0
  160.1020  213.8200  150.1400 C   0  0  2  0  0  3  0  0  0  0  0  0
  157.6570  213.4350  149.8130 C   0  0  0  0  0  1  0  0  0  0  0  0
  158.8480  214.2900  149.4180 C   0  0  0  0  0  2  0  0  0  0  0  0
  160.8820  212.8790  149.2360 C   0  0  0  0  0  2  0  0  0  0  0  0
  161.9600  213.5480  148.6510 O   0  0  0  0  0  0  0  0  0  0  0  0
  162.7210  212.5440  148.0480 C   0  0  0  0  0  1  0  0  0  0  0  0
  1 20  1  0  0  0  0
  1 19  2  0  0  0  0
  4 12  2  0  0  0  0
  5 11  1  6  0  0  0
  5 18  1  0  0  0  0
  6  9  2  0  0  0  0
  7  2  1  6  0  0  0
  7  5  1  0  0  0  0
  7 12  1  0  0  0  0
  9  4  1  0  0  0  0
 10 14  1  0  0  0  0
 10 15  1  1  0  0  0
 12  8  1  0  0  0  0
 13 15  1  0  0  0  0
 14  3  1  6  0  0  0
 16  6  1  0  0  0  0
 17  6  1  0  0  0  0
 17  2  1  0  0  0  0
 18  8  1  1  0  0  0
 18 14  1  0  0  0  0
 19 13  1  0  0  0  0
 20 11  1  6  0  0  0
 20 10  1  0  0  0  0
 21  1  1  0  0  0  0
 22 21  1  0  0  0  0
 23 26  1  6  0  0  0
 23 22  1  0  0  0  0
 25 24  1  0  0  0  0
 25 23  1  0  0  0  0
 27 26  1  0  0  0  0
 28 27  1  0  0  0  0
M  END
>  <MODEL>
5

>  <REMARK>
 VINA RESULT:      -7.1      2.880      5.030
  Name = 
  6 active torsions:
  status: ('A' for Active; 'I' for Inactive)
    1  A    between atoms: C_1  and  C_2
    2  A    between atoms: C_2  and  C_3
    3  A    between atoms: C_3  and  C_7
    4  A    between atoms: O_6  and  C_28
    5  A    between atoms: C_7  and  C_11
    6  A    between atoms: C_7  and  C_28
                            x       y       z     vdW  Elec       q    Type
                         _______ _______ _______ _____ _____    ______ ____

>  <TORSDO>
F 6

$$$$
=
 OpenBabel11052422543D

 28 31  0  0  1  0  0  0  0  0999 V2000
  161.2240  203.6970  148.4110 C   0  0  0  0  0  0  0  0  0  0  0  0
  161.6220  207.7700  150.9980 C   0  0  0  0  0  2  0  0  0  0  0  0
  162.3320  202.9100  151.7150 O   0  0  0  0  0  1  0  0  0  0  0  0
  161.3530  207.3590  154.0870 C   0  0  0  0  0  3  0  0  0  0  0  0
  161.0560  205.3590  151.0410 C   0  0  2  0  0  3  0  0  0  0  0  0
  161.5470  209.5170  152.8100 C   0  0  0  0  0  0  0  0  0  0  0  0
  161.2010  206.6990  151.6670 C   0  0  1  0  0  3  0  0  0  0  0  0
  161.2090  205.0920  153.3540 O   0  0  0  0  0  0  0  0  0  0  0  0
  161.2490  208.8210  153.9100 C   0  0  0  0  0  3  0  0  0  0  0  0
  160.1720  202.7210  150.5790 C   0  0  2  0  0  3  0  0  0  0  0  0
  160.0590  205.2230  149.9920 N   0  0  0  0  0  2  0  0  0  0  0  0
  161.3230  206.4540  153.1060 C   0  0  0  0  0  0  0  0  0  0  0  0
  161.8970  201.4420  149.2780 C   0  0  0  0  0  2  0  0  0  0  0  0
  160.9520  203.0600  151.8830 C   0  0  2  0  0  3  0  0  0  0  0  0
  160.5450  201.3620  149.9830 C   0  0  0  0  0  2  0  0  0  0  0  0
  161.3360  210.8550  152.8190 F   0  0  0  0  0  0  0  0  0  0  0  0
  162.2920  208.9370  151.6510 C   0  0  0  0  0  2  0  0  0  0  0  0
  160.6270  204.4990  152.2050 C   0  0  2  0  0  3  0  0  0  0  0  0
  161.9490  202.5720  148.2870 C   0  0  0  0  0  3  0  0  0  0  0  0
  160.1490  203.8390  149.4730 C   0  0  1  0  0  3  0  0  0  0  0  0
  161.3170  204.7250  147.3240 C   0  0  0  0  0  2  0  0  0  0  0  0
  162.3480  204.3210  146.2750 C   0  0  0  0  0  2  0  0  0  0  0  0
  161.7130  204.2610  144.8890 C   0  0  2  0  0  3  0  0  0  0  0  0
  160.1830  206.2020  145.2430 C   0  0  0  0  0  1  0  0  0  0  0  0
  161.3340  205.6560  144.4160 C   0  0  0  0  0  2  0  0  0  0  0  0
  160.4710  203.3830  144.9190 C   0  0  0  0  0  2  0  0  0  0  0  0
  160.8090  202.0730  145.2690 O   0  0  0  0  0  0  0  0  0  0  0  0
  159.7070  201.3040  144.8890 C   0  0  0  0  0  1  0  0  0  0  0  0
  2 17  1  0  0  0  0
  5 11  1  6  0  0  0
  5  7  1  0  0  0  0
  5 18  1  0  0  0  0
  6 16  1  0  0  0  0
  6  9  2  0  0  0  0
  7  2  1  6  0  0  0
  7 12  1  0  0  0  0
  9  4  1  0  0  0  0
 10 15  1  6  0  0  0
 10 14  1  0  0  0  0
 12  8  1  0  0  0  0
 12  4  2  0  0  0  0
 13 15  1  0  0  0  0
 14  3  1  6  0  0  0
 14 18  1  0  0  0  0
 17  6  1  0  0  0  0
 18  8  1  1  0  0  0
 19  1  2  0  0  0  0
 19 13  1  0  0  0  0
 20  1  1  1  0  0  0
 20 11  1  0  0  0  0
 20 10  1  0  0  0  0
 21  1  1  0  0  0  0
 22 21  1  0  0  0  0
 23 25  1  1  0  0  0
 23 26  1  0  0  0  0
 23 22  1  0  0  0  0
 25 24  1  0  0  0  0
 26 27  1  0  0  0  0
 28 27  1  0  0  0  0
M  END
>  <MODEL>
6

>  <REMARK>
 VINA RESULT:      -6.9      2.929      7.652
  Name = 
  6 active torsions:
  status: ('A' for Active; 'I' for Inactive)
    1  A    between atoms: C_1  and  C_2
    2  A    between atoms: C_2  and  C_3
    3  A    between atoms: C_3  and  C_7
    4  A    between atoms: O_6  and  C_28
    5  A    between atoms: C_7  and  C_11
    6  A    between atoms: C_7  and  C_28
                            x       y       z     vdW  Elec       q    Type
                         _______ _______ _______ _____ _____    ______ ____

>  <TORSDO>
F 6

$$$$
=
 OpenBabel11052422543D

 28 31  0  0  1  0  0  0  0  0999 V2000
  161.6130  208.3800  151.2980 C   0  0  0  0  0  0  0  0  0  0  0  0
  161.2150  206.5710  146.8250 C   0  0  0  0  0  2  0  0  0  0  0  0
  160.1080  205.1430  151.4480 O   0  0  0  0  0  1  0  0  0  0  0  0
  161.1250  203.4450  146.7080 C   0  0  0  0  0  3  0  0  0  0  0  0
  161.6110  206.0620  149.2160 C   0  0  2  0  0  3  0  0  0  0  0  0
  161.2130  205.0770  144.7970 C   0  0  0  0  0  0  0  0  0  0  0  0
  161.4900  205.6880  147.7830 C   0  0  1  0  0  3  0  0  0  0  0  0
  161.1940  203.7700  149.0730 O   0  0  0  0  0  0  0  0  0  0  0  0
  161.3450  203.8500  145.3060 C   0  0  0  0  0  3  0  0  0  0  0  0
  162.3600  205.9720  151.9340 C   0  0  2  0  0  3  0  0  0  0  0  0
  162.7020  206.9500  149.5790 N   0  0  0  0  0  2  0  0  0  0  0  0
  161.1990  204.2530  147.7700 C   0  0  0  0  0  0  0  0  0  0  0  0
  160.7010  207.2350  153.3340 C   0  0  0  0  0  2  0  0  0  0  0  0
  161.4690  204.8430  151.3380 C   0  0  2  0  0  3  0  0  0  0  0  0
  161.9630  206.3730  153.3560 C   0  0  0  0  0  2  0  0  0  0  0  0
  161.5120  205.2660  143.4890 F   0  0  0  0  0  0  0  0  0  0  0  0
  160.5590  206.2030  145.5320 C   0  0  0  0  0  2  0  0  0  0  0  0
  161.8540  204.7290  149.8820 C   0  0  2  0  0  3  0  0  0  0  0  0
  160.8320  208.3990  152.3910 C   0  0  0  0  0  3  0  0  0  0  0  0
  162.5760  207.2390  151.0270 C   0  0  1  0  0  3  0  0  0  0  0  0
  161.7050  209.6260  150.4690 C   0  0  0  0  0  2  0  0  0  0  0  0
  161.2430  210.8450  151.2610 C   0  0  0  0  0  2  0  0  0  0  0  0
  161.3170  212.1050  150.4040 C   0  0  2  0  0  3  0  0  0  0  0  0
  159.6280  212.9720  152.0250 C   0  0  0  0  0  1  0  0  0  0  0  0
  160.0530  212.9360  150.5670 C   0  0  0  0  0  2  0  0  0  0  0  0
  161.4920  211.7340  148.9400 C   0  0  0  0  0  2  0  0  0  0  0  0
  161.9190  212.8430  148.2050 O   0  0  0  0  0  0  0  0  0  0  0  0
  163.2560  212.5770  147.8970 C   0  0  0  0  0  1  0  0  0  0  0  0
  1 19  2  0  0  0  0
  4 12  2  0  0  0  0
  5 11  1  6  0  0  0
  5 18  1  0  0  0  0
  6  9  2  0  0  0  0
  6 17  1  0  0  0  0
  7  2  1  1  0  0  0
  7  5  1  0  0  0  0
  9  4  1  0  0  0  0
 10 15  1  1  0  0  0
 12  7  1  0  0  0  0
 12  8  1  0  0  0  0
 13 15  1  0  0  0  0
 14  3  1  6  0  0  0
 14 10  1  0  0  0  0
 16  6  1  0  0  0  0
 17  2  1  0  0  0  0
 18  8  1  6  0  0  0
 18 14  1  0  0  0  0
 19 13  1  0  0  0  0
 20 11  1  6  0  0  0
 20  1  1  0  0  0  0
 20 10  1  0  0  0  0
 21 22  1  0  0  0  0
 21  1  1  0  0  0  0
 23 26  1  6  0  0  0
 23 25  1  0  0  0  0
 23 22  1  0  0  0  0
 25 24  1  0  0  0  0
 27 26  1  0  0  0  0
 28 27  1  0  0  0  0
M  END
>  <MODEL>
7

>  <REMARK>
 VINA RESULT:      -6.8      1.766      2.328
  Name = 
  6 active torsions:
  status: ('A' for Active; 'I' for Inactive)
    1  A    between atoms: C_1  and  C_2
    2  A    between atoms: C_2  and  C_3
    3  A    between atoms: C_3  and  C_7
    4  A    between atoms: O_6  and  C_28
    5  A    between atoms: C_7  and  C_11
    6  A    between atoms: C_7  and  C_28
                            x       y       z     vdW  Elec       q    Type
                         _______ _______ _______ _____ _____    ______ ____

>  <TORSDO>
F 6

$$$$
=
 OpenBabel11052422543D

 28 31  0  0  1  0  0  0  0  0999 V2000
  161.4700  203.1580  148.2790 C   0  0  0  0  0  0  0  0  0  0  0  0
  161.8390  207.3890  150.6040 C   0  0  0  0  0  2  0  0  0  0  0  0
  162.1410  202.5650  151.7380 O   0  0  0  0  0  1  0  0  0  0  0  0
  161.1930  207.2330  153.6610 C   0  0  0  0  0  3  0  0  0  0  0  0
  161.1130  205.0250  150.7480 C   0  0  2  0  0  3  0  0  0  0  0  0
  161.6730  209.2710  152.2690 C   0  0  0  0  0  0  0  0  0  0  0  0
  161.2740  206.3980  151.2920 C   0  0  1  0  0  3  0  0  0  0  0  0
  160.9850  204.9270  153.0760 O   0  0  0  0  0  0  0  0  0  0  0  0
  161.2060  208.6800  153.3710 C   0  0  0  0  0  3  0  0  0  0  0  0
  160.1160  202.4140  150.3700 C   0  0  2  0  0  3  0  0  0  0  0  0
  160.2360  204.8650  149.6000 N   0  0  0  0  0  2  0  0  0  0  0  0
  161.2150  206.2580  152.7490 C   0  0  0  0  0  0  0  0  0  0  0  0
  161.8910  200.9420  149.3750 C   0  0  0  0  0  2  0  0  0  0  0  0
  160.7640  202.8070  151.7300 C   0  0  2  0  0  3  0  0  0  0  0  0
  160.4640  200.9940  149.9190 C   0  0  0  0  0  2  0  0  0  0  0  0
  161.5500  210.6160  152.1590 F   0  0  0  0  0  0  0  0  0  0  0  0
  162.5050  208.5620  151.2490 C   0  0  0  0  0  2  0  0  0  0  0  0
  160.5000  204.2820  151.9100 C   0  0  2  0  0  3  0  0  0  0  0  0
  162.1290  201.9870  148.3210 C   0  0  0  0  0  3  0  0  0  0  0  0
  160.2930  203.4420  149.1930 C   0  0  1  0  0  3  0  0  0  0  0  0
  161.7550  204.0930  147.1420 C   0  0  0  0  0  2  0  0  0  0  0  0
  161.6780  203.3660  145.8030 C   0  0  0  0  0  2  0  0  0  0  0  0
  160.4390  203.7960  145.0250 C   0  0  2  0  0  3  0  0  0  0  0  0
  160.0860  201.3360  145.2610 C   0  0  0  0  0  1  0  0  0  0  0  0
  159.7040  202.5810  144.4800 C   0  0  0  0  0  2  0  0  0  0  0  0
  160.8340  204.7070  143.8720 C   0  0  0  0  0  2  0  0  0  0  0  0
  161.0980  205.9970  144.3400 O   0  0  0  0  0  0  0  0  0  0  0  0
  160.0820  206.2600  145.2610 C   0  0  0  0  0  1  0  0  0  0  0  0
  1 19  2  0  0  0  0
  2 17  1  0  0  0  0
  5 11  1  6  0  0  0
  5  7  1  0  0  0  0
  5 18  1  0  0  0  0
  6  9  2  0  0  0  0
  7  2  1  1  0  0  0
  7 12  1  0  0  0  0
  9  4  1  0  0  0  0
 10 15  1  6  0  0  0
 10 14  1  0  0  0  0
 12  8  1  0  0  0  0
 12  4  2  0  0  0  0
 13 15  1  0  0  0  0
 14  3  1  6  0  0  0
 14 18  1  0  0  0  0
 16  6  1  0  0  0  0
 17  6  1  0  0  0  0
 18  8  1  1  0  0  0
 19 13  1  0  0  0  0
 20  1  1  1  0  0  0
 20 11  1  0  0  0  0
 20 10  1  0  0  0  0
 21  1  1  0  0  0  0
 22 21  1  0  0  0  0
 23 26  1  6  0  0  0
 23 22  1  0  0  0  0
 25 23  1  0  0  0  0
 25 24  1  0  0  0  0
 26 27  1  0  0  0  0
 27 28  1  0  0  0  0
M  END
>  <MODEL>
8

>  <REMARK>
 VINA RESULT:      -6.4      2.916      7.683
  Name = 
  6 active torsions:
  status: ('A' for Active; 'I' for Inactive)
    1  A    between atoms: C_1  and  C_2
    2  A    between atoms: C_2  and  C_3
    3  A    between atoms: C_3  and  C_7
    4  A    between atoms: O_6  and  C_28
    5  A    between atoms: C_7  and  C_11
    6  A    between atoms: C_7  and  C_28
                            x       y       z     vdW  Elec       q    Type
                         _______ _______ _______ _____ _____    ______ ____

>  <TORSDO>
F 6

$$$$
=
 OpenBabel11052422543D

 28 31  0  0  1  0  0  0  0  0999 V2000
  161.0030  205.5260  149.5480 C   0  0  0  0  0  0  0  0  0  0  0  0
  160.6560  207.5960  153.9110 C   0  0  0  0  0  2  0  0  0  0  0  0
  160.9130  209.0790  149.1800 O   0  0  0  0  0  1  0  0  0  0  0  0
  161.7670  210.5180  154.0360 C   0  0  0  0  0  3  0  0  0  0  0  0
  161.5800  207.7800  151.6200 C   0  0  2  0  0  3  0  0  0  0  0  0
  160.9220  209.0860  155.9230 C   0  0  0  0  0  0  0  0  0  0  0  0
  161.3950  208.2510  153.0170 C   0  0  1  0  0  3  0  0  0  0  0  0
  162.0670  210.0600  151.7120 O   0  0  0  0  0  0  0  0  0  0  0  0
  161.5950  210.1380  155.4530 C   0  0  0  0  0  3  0  0  0  0  0  0
  162.7130  207.4240  149.0610 C   0  0  2  0  0  3  0  0  0  0  0  0
  162.2830  206.5220  151.4320 N   0  0  0  0  0  2  0  0  0  0  0  0
  161.6850  209.6860  152.9950 C   0  0  0  0  0  0  0  0  0  0  0  0
  160.9310  206.8180  147.3990 C   0  0  0  0  0  2  0  0  0  0  0  0
  162.2490  208.8390  149.5140 C   0  0  2  0  0  3  0  0  0  0  0  0
  162.4140  207.1270  147.5900 C   0  0  0  0  0  2  0  0  0  0  0  0
  160.9190  208.8700  157.2610 F   0  0  0  0  0  0  0  0  0  0  0  0
  160.0040  208.2590  155.0820 C   0  0  0  0  0  2  0  0  0  0  0  0
  162.4200  208.8780  151.0130 C   0  0  2  0  0  3  0  0  0  0  0  0
  160.4530  205.7470  148.3410 C   0  0  0  0  0  3  0  0  0  0  0  0
  162.2790  206.2240  149.9820 C   0  0  1  0  0  3  0  0  0  0  0  0
  160.4770  204.3880  150.3700 C   0  0  0  0  0  2  0  0  0  0  0  0
  161.1350  203.0720  149.9690 C   0  0  0  0  0  2  0  0  0  0  0  0
  160.5810  202.5750  148.6370 C   0  0  2  0  0  3  0  0  0  0  0  0
  161.5630  200.2900  148.4200 C   0  0  0  0  0  1  0  0  0  0  0  0
  160.2980  201.0820  148.7010 C   0  0  0  0  0  2  0  0  0  0  0  0
  161.5750  202.8530  147.5200 C   0  0  0  0  0  2  0  0  0  0  0  0
  160.9700  202.6710  146.2740 O   0  0  0  0  0  0  0  0  0  0  0  0
  161.5480  203.6380  145.4490 C   0  0  0  0  0  1  0  0  0  0  0  0
  1 21  1  0  0  0  0
  2 17  1  0  0  0  0
  4  9  1  0  0  0  0
  5 11  1  1  0  0  0
  5  7  1  0  0  0  0
  6 16  1  0  0  0  0
  7  2  1  6  0  0  0
  8 12  1  0  0  0  0
  9  6  2  0  0  0  0
 10 15  1  6  0  0  0
 10 14  1  0  0  0  0
 10 20  1  0  0  0  0
 12  7  1  0  0  0  0
 12  4  2  0  0  0  0
 13 15  1  0  0  0  0
 13 19  1  0  0  0  0
 14  3  1  1  0  0  0
 14 18  1  0  0  0  0
 17  6  1  0  0  0  0
 18  5  1  0  0  0  0
 18  8  1  1  0  0  0
 19  1  2  0  0  0  0
 20  1  1  6  0  0  0
 20 11  1  0  0  0  0
 22 21  1  0  0  0  0
 23 26  1  6  0  0  0
 23 25  1  0  0  0  0
 23 22  1  0  0  0  0
 24 25  1  0  0  0  0
 27 26  1  0  0  0  0
 28 27  1  0  0  0  0
M  END
>  <MODEL>
9

>  <REMARK>
 VINA RESULT:      -6.3      3.316      8.339
  Name = 
  6 active torsions:
  status: ('A' for Active; 'I' for Inactive)
    1  A    between atoms: C_1  and  C_2
    2  A    between atoms: C_2  and  C_3
    3  A    between atoms: C_3  and  C_7
    4  A    between atoms: O_6  and  C_28
    5  A    between atoms: C_7  and  C_11
    6  A    between atoms: C_7  and  C_28
                            x       y       z     vdW  Elec       q    Type
                         _______ _______ _______ _____ _____    ______ ____

>  <TORSDO>
F 6

$$$$
