=
 OpenBabel11052422033D

 30 33  0  0  1  0  0  0  0  0999 V2000
  161.5420  210.6060  149.4740 C   0  0  0  0  0  0  0  0  0  0  0  0
  162.1310  208.2120  150.0790 C   0  0  0  0  0  2  0  0  0  0  0  0
  162.1860  209.2720  154.0300 O   0  0  0  0  0  0  0  0  0  0  0  0
  159.4290  211.4490  151.7060 C   0  0  0  0  0  2  0  0  0  0  0  0
  161.8460  211.9770  149.7630 N   0  0  0  0  0  0  0  0  0  0  0  0
  158.6210  213.1950  149.2310 C   0  0  0  0  0  0  0  0  0  0  0  0
  159.8560  212.7150  148.7780 O   0  0  0  0  0  0  0  0  0  0  0  0
  161.4670  214.3530  149.7750 C   0  0  0  0  0  1  0  0  0  0  0  0
  159.5660  211.5420  154.5800 C   0  0  2  0  0  3  0  0  0  0  0  0
  161.8880  210.5410  154.5280 C   0  0  0  0  0  0  0  0  0  0  0  0
  161.0730  212.9610  149.4220 C   0  0  0  0  0  0  0  0  0  0  0  0
  159.1800  212.9480  151.7380 C   0  0  1  0  0  3  0  0  0  0  0  0
  161.7250  207.1030  151.0360 C   0  0  0  0  0  2  0  0  0  0  0  0
  158.9280  212.8340  154.3180 N   0  0  0  0  0  2  0  0  0  0  0  0
  157.7220  213.4400  148.3870 O   0  0  0  0  0  0  0  0  0  0  0  0
  161.2060  210.2730  148.3040 O   0  0  0  0  0  0  0  0  0  0  0  0
  161.5020  208.7450  152.8980 C   0  0  2  0  0  3  0  0  0  0  0  0
  162.2040  207.4730  152.4250 C   0  0  1  0  0  3  0  0  0  0  0  0
  158.3150  213.3390  150.6270 N   0  0  0  0  0  2  0  0  0  0  0  0
  161.6420  209.5680  150.5260 C   0  0  0  0  0  0  0  0  0  0  0  0
  160.8090  211.1560  152.2940 C   0  0  1  0  0  3  0  0  0  0  0  0
  162.4520  210.9470  155.5770 O   0  0  0  0  0  0  0  0  0  0  0  0
  160.9010  211.4220  153.8210 C   0  0  1  0  0  3  0  0  0  0  0  0
  157.8730  214.4530  153.0490 O   0  0  0  0  0  0  0  0  0  0  0  0
  161.9260  206.4300  153.3070 O   0  0  0  0  0  1  0  0  0  0  0  0
  161.3560  209.8160  151.8330 C   0  0  0  0  0  0  0  0  0  0  0  0
  158.5980  213.4230  153.0500 C   0  0  0  0  0  0  0  0  0  0  0  0
  158.5940  210.3600  154.3940 C   0  0  0  0  0  3  0  0  0  0  0  0
  157.1520  210.7820  154.6190 C   0  0  0  0  0  1  0  0  0  0  0  0
  158.9100  209.2460  155.3730 C   0  0  0  0  0  1  0  0  0  0  0  0
  1  5  1  0  0  0  0
  1 20  1  0  0  0  0
  2 20  1  0  0  0  0
  2 13  1  0  0  0  0
  3 10  1  0  0  0  0
  6 19  1  0  0  0  0
  7  6  1  0  0  0  0
  7 11  1  0  0  0  0
  9 28  1  6  0  0  0
 10 22  2  0  0  0  0
 11  5  2  0  0  0  0
 11  8  1  0  0  0  0
 12  4  1  1  0  0  0
 12 27  1  0  0  0  0
 13 18  1  0  0  0  0
 14  9  1  0  0  0  0
 15  6  2  0  0  0  0
 16  1  2  0  0  0  0
 17 26  1  6  0  0  0
 17  3  1  0  0  0  0
 18 17  1  0  0  0  0
 18 25  1  1  0  0  0
 19 12  1  0  0  0  0
 20 26  2  0  0  0  0
 21  4  1  1  0  0  0
 21 23  1  0  0  0  0
 23 10  1  1  0  0  0
 23  9  1  0  0  0  0
 24 27  2  0  0  0  0
 26 21  1  0  0  0  0
 27 14  1  0  0  0  0
 28 29  1  0  0  0  0
 28 30  1  0  0  0  0
M  END
>  <MODEL>
1

>  <REMARK>
 VINA RESULT:      -1.8      0.000      0.000
  Name = 
  1 active torsions:
  status: ('A' for Active; 'I' for Inactive)
    1  A    between atoms: C_7  and  C_10
                            x       y       z     vdW  Elec       q    Type
                         _______ _______ _______ _____ _____    ______ ____

>  <TORSDO>
F 1

$$$$
=
 OpenBabel11052422033D

 30 33  0  0  1  0  0  0  0  0999 V2000
  157.9330  213.8220  150.4060 C   0  0  0  0  0  0  0  0  0  0  0  0
  157.6400  213.6310  147.8910 C   0  0  0  0  0  2  0  0  0  0  0  0
  161.5630  212.5190  147.5650 O   0  0  0  0  0  0  0  0  0  0  0  0
  159.7250  211.2930  151.1490 C   0  0  0  0  0  2  0  0  0  0  0  0
  158.8170  214.2920  151.4320 N   0  0  0  0  0  0  0  0  0  0  0  0
  158.0540  211.8030  153.7530 C   0  0  0  0  0  0  0  0  0  0  0  0
  157.7620  212.9840  153.0600 O   0  0  0  0  0  0  0  0  0  0  0  0
  159.6970  214.4530  153.6650 C   0  0  0  0  0  1  0  0  0  0  0  0
  162.3280  210.4270  150.2770 C   0  0  2  0  0  3  0  0  0  0  0  0
  162.4440  212.3460  148.6330 C   0  0  0  0  0  0  0  0  0  0  0  0
  158.7260  213.9190  152.6710 C   0  0  0  0  0  0  0  0  0  0  0  0
  160.2990  211.3770  152.5550 C   0  0  1  0  0  3  0  0  0  0  0  0
  157.9350  212.6860  146.7380 C   0  0  0  0  0  2  0  0  0  0  0  0
  162.4650  210.2160  151.7210 N   0  0  0  0  0  2  0  0  0  0  0  0
  157.1890  211.3340  154.5360 O   0  0  0  0  0  0  0  0  0  0  0  0
  156.6860  213.8560  150.5920 O   0  0  0  0  0  0  0  0  0  0  0  0
  160.1850  212.1810  147.6820 C   0  0  2  0  0  3  0  0  0  0  0  0
  159.4250  212.7130  146.4680 C   0  0  1  0  0  3  0  0  0  0  0  0
  159.2670  211.0640  153.5410 N   0  0  0  0  0  2  0  0  0  0  0  0
  158.4630  213.3200  149.1170 C   0  0  0  0  0  0  0  0  0  0  0  0
  160.4610  212.2810  150.2450 C   0  0  1  0  0  3  0  0  0  0  0  0
  163.6700  212.5790  148.4750 O   0  0  0  0  0  0  0  0  0  0  0  0
  161.9370  211.8850  149.9680 C   0  0  1  0  0  3  0  0  0  0  0  0
  161.7440  210.0490  153.9110 O   0  0  0  0  0  0  0  0  0  0  0  0
  159.7120  211.9260  145.3540 O   0  0  0  0  0  1  0  0  0  0  0  0
  159.6460  212.6530  149.0190 C   0  0  0  0  0  0  0  0  0  0  0  0
  161.5050  210.4880  152.7540 C   0  0  0  0  0  0  0  0  0  0  0  0
  161.4470  209.3530  149.6090 C   0  0  0  0  0  3  0  0  0  0  0  0
  161.3500  208.0990  150.4620 C   0  0  0  0  0  1  0  0  0  0  0  0
  162.0180  208.9550  148.2610 C   0  0  0  0  0  1  0  0  0  0  0  0
  1 16  2  0  0  0  0
  1  5  1  0  0  0  0
  2 20  1  0  0  0  0
  3 10  1  0  0  0  0
  5 11  2  0  0  0  0
  6 15  2  0  0  0  0
  7  6  1  0  0  0  0
  9 28  1  1  0  0  0
  9 14  1  0  0  0  0
 11  7  1  0  0  0  0
 11  8  1  0  0  0  0
 12  4  1  6  0  0  0
 12 27  1  0  0  0  0
 12 19  1  0  0  0  0
 13  2  1  0  0  0  0
 14 27  1  0  0  0  0
 17  3  1  6  0  0  0
 17 26  1  0  0  0  0
 18 25  1  6  0  0  0
 18 13  1  0  0  0  0
 18 17  1  0  0  0  0
 19  6  1  0  0  0  0
 20  1  1  0  0  0  0
 21  4  1  6  0  0  0
 22 10  2  0  0  0  0
 23 10  1  6  0  0  0
 23 21  1  0  0  0  0
 23  9  1  0  0  0  0
 26 20  2  0  0  0  0
 26 21  1  0  0  0  0
 27 24  2  0  0  0  0
 28 29  1  0  0  0  0
 30 28  1  0  0  0  0
M  END
>  <MODEL>
2

>  <REMARK>
 VINA RESULT:      -0.5      1.915      5.784
  Name = 
  1 active torsions:
  status: ('A' for Active; 'I' for Inactive)
    1  A    between atoms: C_7  and  C_10
                            x       y       z     vdW  Elec       q    Type
                         _______ _______ _______ _____ _____    ______ ____

>  <TORSDO>
F 1

$$$$
=
 OpenBabel11052422033D

 30 33  0  0  1  0  0  0  0  0999 V2000
  161.1910  205.6550  153.1240 C   0  0  0  0  0  0  0  0  0  0  0  0
  160.1030  206.0420  155.3850 C   0  0  0  0  0  2  0  0  0  0  0  0
  161.7960  209.7640  155.5110 O   0  0  0  0  0  0  0  0  0  0  0  0
  160.8340  208.4470  151.6290 C   0  0  0  0  0  2  0  0  0  0  0  0
  162.4060  205.8290  152.3840 N   0  0  0  0  0  0  0  0  0  0  0  0
  160.8870  206.3590  149.2900 C   0  0  0  0  0  0  0  0  0  0  0  0
  161.3050  205.5340  150.3410 O   0  0  0  0  0  0  0  0  0  0  0  0
  163.7720  205.9580  150.4080 C   0  0  0  0  0  1  0  0  0  0  0  0
  161.6690  211.1240  152.2780 C   0  0  2  0  0  3  0  0  0  0  0  0
  162.5760  210.3300  154.5020 C   0  0  0  0  0  0  0  0  0  0  0  0
  162.4650  205.7530  151.0910 C   0  0  0  0  0  0  0  0  0  0  0  0
  161.6940  208.5540  150.3800 C   0  0  1  0  0  3  0  0  0  0  0  0
  159.2900  207.0810  156.1410 C   0  0  0  0  0  2  0  0  0  0  0  0
  162.0500  211.0790  150.8640 N   0  0  0  0  0  2  0  0  0  0  0  0
  160.2350  205.8480  148.3450 O   0  0  0  0  0  0  0  0  0  0  0  0
  160.4560  204.6560  152.8940 O   0  0  0  0  0  0  0  0  0  0  0  0
  160.6970  208.9120  155.2050 C   0  0  2  0  0  3  0  0  0  0  0  0
  160.2010  208.2420  156.4850 C   0  0  1  0  0  3  0  0  0  0  0  0
  161.1030  207.7790  149.2910 N   0  0  0  0  0  2  0  0  0  0  0  0
  160.7980  206.6200  154.1770 C   0  0  0  0  0  0  0  0  0  0  0  0
  161.7250  208.5600  152.8660 C   0  0  1  0  0  3  0  0  0  0  0  0
  163.4900  211.1410  154.8000 O   0  0  0  0  0  0  0  0  0  0  0  0
  162.3300  209.9760  153.0640 C   0  0  1  0  0  3  0  0  0  0  0  0
  162.1300  210.2130  148.7220 O   0  0  0  0  0  0  0  0  0  0  0  0
  159.5040  209.1680  157.2590 O   0  0  0  0  0  1  0  0  0  0  0  0
  161.0780  207.9500  154.0960 C   0  0  0  0  0  0  0  0  0  0  0  0
  161.9270  209.9820  149.9440 C   0  0  0  0  0  0  0  0  0  0  0  0
  160.1460  211.2620  152.4700 C   0  0  0  0  0  3  0  0  0  0  0  0
  159.5280  212.1600  151.4110 C   0  0  0  0  0  1  0  0  0  0  0  0
  159.8280  211.8580  153.8280 C   0  0  0  0  0  1  0  0  0  0  0  0
  1 20  1  0  0  0  0
  2 13  1  0  0  0  0
  5  1  1  0  0  0  0
  6 19  1  0  0  0  0
  6  7  1  0  0  0  0
  7 11  1  0  0  0  0
  8 11  1  0  0  0  0
  9 28  1  6  0  0  0
  9 23  1  0  0  0  0
 10 22  2  0  0  0  0
 10  3  1  0  0  0  0
 11  5  2  0  0  0  0
 12  4  1  1  0  0  0
 13 18  1  0  0  0  0
 14  9  1  0  0  0  0
 15  6  2  0  0  0  0
 16  1  2  0  0  0  0
 17 26  1  6  0  0  0
 17  3  1  0  0  0  0
 17 18  1  0  0  0  0
 18 25  1  1  0  0  0
 19 12  1  0  0  0  0
 20  2  1  0  0  0  0
 21  4  1  6  0  0  0
 21 23  1  0  0  0  0
 21 26  1  0  0  0  0
 23 10  1  1  0  0  0
 24 27  2  0  0  0  0
 26 20  2  0  0  0  0
 27 12  1  0  0  0  0
 27 14  1  0  0  0  0
 28 30  1  0  0  0  0
 29 28  1  0  0  0  0
M  END
>  <MODEL>
3

>  <REMARK>
 VINA RESULT:      -0.3      2.580      5.325
  Name = 
  1 active torsions:
  status: ('A' for Active; 'I' for Inactive)
    1  A    between atoms: C_7  and  C_10
                            x       y       z     vdW  Elec       q    Type
                         _______ _______ _______ _____ _____    ______ ____

>  <TORSDO>
F 1

$$$$
=
 OpenBabel11052422033D

 30 33  0  0  1  0  0  0  0  0999 V2000
  159.4760  211.1530  154.5240 C   0  0  0  0  0  0  0  0  0  0  0  0
  158.5910  212.7620  152.7700 C   0  0  0  0  0  2  0  0  0  0  0  0
  161.7380  211.7780  150.3480 O   0  0  0  0  0  0  0  0  0  0  0  0
  160.4280  208.6320  152.8230 C   0  0  0  0  0  2  0  0  0  0  0  0
  160.6690  210.7030  155.1790 N   0  0  0  0  0  0  0  0  0  0  0  0
  159.6420  207.3960  155.5940 C   0  0  0  0  0  0  0  0  0  0  0  0
  159.6200  208.7540  155.9370 O   0  0  0  0  0  0  0  0  0  0  0  0
  162.0200  209.2050  156.4910 C   0  0  0  0  0  1  0  0  0  0  0  0
  162.3290  208.3340  150.6820 C   0  0  2  0  0  3  0  0  0  0  0  0
  162.7200  210.8330  150.6460 C   0  0  0  0  0  0  0  0  0  0  0  0
  160.7320  209.5970  155.8530 C   0  0  0  0  0  0  0  0  0  0  0  0
  161.2910  207.6760  153.6300 C   0  0  1  0  0  3  0  0  0  0  0  0
  158.2900  212.8340  151.2820 C   0  0  0  0  0  2  0  0  0  0  0  0
  162.7000  207.1820  151.5070 N   0  0  0  0  0  2  0  0  0  0  0  0
  158.8640  206.6110  156.1930 O   0  0  0  0  0  0  0  0  0  0  0  0
  158.3860  211.1790  155.1590 O   0  0  0  0  0  0  0  0  0  0  0  0
  160.3880  211.5950  150.7610 C   0  0  2  0  0  3  0  0  0  0  0  0
  159.6050  212.8860  150.5310 C   0  0  1  0  0  3  0  0  0  0  0  0
  160.4570  206.8810  154.5300 N   0  0  0  0  0  2  0  0  0  0  0  0
  159.5100  211.6160  153.1170 C   0  0  0  0  0  0  0  0  0  0  0  0
  161.2370  209.8890  152.5010 C   0  0  1  0  0  3  0  0  0  0  0  0
  163.8870  210.9840  150.2000 O   0  0  0  0  0  0  0  0  0  0  0  0
  162.3940  209.6400  151.4960 C   0  0  1  0  0  3  0  0  0  0  0  0
  162.4650  205.6410  153.2140 O   0  0  0  0  0  0  0  0  0  0  0  0
  159.3580  213.0470  149.1690 O   0  0  0  0  0  1  0  0  0  0  0  0
  160.3460  211.0780  152.1880 C   0  0  0  0  0  0  0  0  0  0  0  0
  162.1400  206.7720  152.7650 C   0  0  0  0  0  0  0  0  0  0  0  0
  161.0150  208.1030  149.9100 C   0  0  0  0  0  3  0  0  0  0  0  0
  160.5270  206.6720  150.0530 C   0  0  0  0  0  1  0  0  0  0  0  0
  161.2040  208.3840  148.4320 C   0  0  0  0  0  1  0  0  0  0  0  0
  1 16  2  0  0  0  0
  1  5  1  0  0  0  0
  2 20  1  0  0  0  0
  3 10  1  0  0  0  0
  5 11  2  0  0  0  0
  6  7  1  0  0  0  0
  6 15  2  0  0  0  0
  9 28  1  1  0  0  0
  9 23  1  0  0  0  0
  9 14  1  0  0  0  0
 11  7  1  0  0  0  0
 11  8  1  0  0  0  0
 12  4  1  6  0  0  0
 12 19  1  0  0  0  0
 13  2  1  0  0  0  0
 14 27  1  0  0  0  0
 17  3  1  1  0  0  0
 17 26  1  0  0  0  0
 18 25  1  6  0  0  0
 18 17  1  0  0  0  0
 18 13  1  0  0  0  0
 19  6  1  0  0  0  0
 20  1  1  0  0  0  0
 21  4  1  6  0  0  0
 22 10  2  0  0  0  0
 23 10  1  6  0  0  0
 23 21  1  0  0  0  0
 26 21  1  0  0  0  0
 26 20  2  0  0  0  0
 27 24  2  0  0  0  0
 27 12  1  0  0  0  0
 28 29  1  0  0  0  0
 30 28  1  0  0  0  0
M  END
>  <MODEL>
4

>  <REMARK>
 VINA RESULT:      -0.2      2.399      6.539
  Name = 
  1 active torsions:
  status: ('A' for Active; 'I' for Inactive)
    1  A    between atoms: C_7  and  C_10
                            x       y       z     vdW  Elec       q    Type
                         _______ _______ _______ _____ _____    ______ ____

>  <TORSDO>
F 1

$$$$
=
 OpenBabel11052422033D

 30 33  0  0  1  0  0  0  0  0999 V2000
  162.0500  208.6750  150.1670 C   0  0  0  0  0  0  0  0  0  0  0  0
  161.7010  206.6110  151.6030 C   0  0  0  0  0  2  0  0  0  0  0  0
  161.6130  208.9940  154.9270 O   0  0  0  0  0  0  0  0  0  0  0  0
  160.0880  210.8300  151.4570 C   0  0  0  0  0  2  0  0  0  0  0  0
  162.7660  209.9150  150.0830 N   0  0  0  0  0  0  0  0  0  0  0  0
  160.2490  211.6900  148.4470 C   0  0  0  0  0  0  0  0  0  0  0  0
  161.2920  210.7560  148.4720 O   0  0  0  0  0  0  0  0  0  0  0  0
  163.2250  212.1320  149.2710 C   0  0  0  0  0  1  0  0  0  0  0  0
  159.8820  211.9360  154.1070 C   0  0  2  0  0  3  0  0  0  0  0  0
  161.7070  210.3870  154.9230 C   0  0  0  0  0  0  0  0  0  0  0  0
  162.4260  210.8760  149.2810 C   0  0  0  0  0  0  0  0  0  0  0  0
  160.3660  212.2420  150.9640 C   0  0  1  0  0  3  0  0  0  0  0  0
  160.8220  206.0930  152.7290 C   0  0  0  0  0  2  0  0  0  0  0  0
  159.7640  213.1630  153.3150 N   0  0  0  0  0  2  0  0  0  0  0  0
  159.6030  211.8440  147.3790 O   0  0  0  0  0  0  0  0  0  0  0  0
  161.7720  208.0410  149.1120 O   0  0  0  0  0  0  0  0  0  0  0  0
  160.9400  208.2980  153.8830 C   0  0  2  0  0  3  0  0  0  0  0  0
  161.2180  206.8010  154.0090 C   0  0  1  0  0  3  0  0  0  0  0  0
  159.8360  212.4180  149.6130 N   0  0  0  0  0  2  0  0  0  0  0  0
  161.6540  208.1150  151.4790 C   0  0  0  0  0  0  0  0  0  0  0  0
  161.1980  210.4060  152.4190 C   0  0  1  0  0  3  0  0  0  0  0  0
  162.2380  210.9780  155.8980 O   0  0  0  0  0  0  0  0  0  0  0  0
  161.1800  211.1810  153.7640 C   0  0  1  0  0  3  0  0  0  0  0  0
  159.4980  214.4220  151.3940 O   0  0  0  0  0  0  0  0  0  0  0  0
  160.4900  206.2770  155.0760 O   0  0  0  0  0  1  0  0  0  0  0  0
  161.3060  208.8960  152.5380 C   0  0  0  0  0  0  0  0  0  0  0  0
  159.8200  213.3070  151.8860 C   0  0  0  0  0  0  0  0  0  0  0  0
  158.5960  211.0870  154.0670 C   0  0  0  0  0  3  0  0  0  0  0  0
  157.3570  211.9550  153.9240 C   0  0  0  0  0  1  0  0  0  0  0  0
  158.4500  210.2750  155.3400 C   0  0  0  0  0  1  0  0  0  0  0  0
  1 20  1  0  0  0  0
  2 13  1  0  0  0  0
  5  1  1  0  0  0  0
  6  7  1  0  0  0  0
  6 19  1  0  0  0  0
  7 11  1  0  0  0  0
  8 11  1  0  0  0  0
  9 28  1  6  0  0  0
 10  3  1  0  0  0  0
 10 22  2  0  0  0  0
 11  5  2  0  0  0  0
 12  4  1  1  0  0  0
 12 27  1  0  0  0  0
 13 18  1  0  0  0  0
 14  9  1  0  0  0  0
 15  6  2  0  0  0  0
 16  1  2  0  0  0  0
 17 26  1  6  0  0  0
 17 18  1  0  0  0  0
 17  3  1  0  0  0  0
 18 25  1  1  0  0  0
 19 12  1  0  0  0  0
 20  2  1  0  0  0  0
 20 26  2  0  0  0  0
 21  4  1  1  0  0  0
 21 26  1  0  0  0  0
 21 23  1  0  0  0  0
 23  9  1  0  0  0  0
 23 10  1  1  0  0  0
 24 27  2  0  0  0  0
 27 14  1  0  0  0  0
 28 30  1  0  0  0  0
 29 28  1  0  0  0  0
M  END
>  <MODEL>
5

>  <REMARK>
 VINA RESULT:      -0.0      1.451      1.806
  Name = 
  1 active torsions:
  status: ('A' for Active; 'I' for Inactive)
    1  A    between atoms: C_7  and  C_10
                            x       y       z     vdW  Elec       q    Type
                         _______ _______ _______ _____ _____    ______ ____

>  <TORSDO>
F 1

$$$$
=
 OpenBabel11052422033D

 30 33  0  0  1  0  0  0  0  0999 V2000
  158.7660  213.5490  152.5010 C   0  0  0  0  0  0  0  0  0  0  0  0
  159.3260  213.6080  150.0260 C   0  0  0  0  0  2  0  0  0  0  0  0
  162.5880  211.2490  150.7540 O   0  0  0  0  0  0  0  0  0  0  0  0
  159.3360  210.5250  153.3300 C   0  0  0  0  0  2  0  0  0  0  0  0
  159.3340  213.6330  153.8150 N   0  0  0  0  0  0  0  0  0  0  0  0
  157.0980  211.4280  155.3320 C   0  0  0  0  0  0  0  0  0  0  0  0
  157.4350  212.6750  154.7910 O   0  0  0  0  0  0  0  0  0  0  0  0
  159.3840  213.3620  156.2050 C   0  0  0  0  0  1  0  0  0  0  0  0
  161.6900  208.8750  153.1790 C   0  0  2  0  0  3  0  0  0  0  0  0
  162.9440  210.7280  151.9990 C   0  0  0  0  0  0  0  0  0  0  0  0
  158.7090  213.2460  154.8830 C   0  0  0  0  0  0  0  0  0  0  0  0
  159.3800  210.3320  154.8380 C   0  0  1  0  0  3  0  0  0  0  0  0
  159.7060  212.6840  148.8800 C   0  0  0  0  0  2  0  0  0  0  0  0
  161.2440  208.5510  154.5370 N   0  0  0  0  0  2  0  0  0  0  0  0
  155.9160  211.2380  155.7160 O   0  0  0  0  0  0  0  0  0  0  0  0
  157.6040  213.9950  152.2930 O   0  0  0  0  0  0  0  0  0  0  0  0
  161.2220  211.3930  150.3790 C   0  0  2  0  0  3  0  0  0  0  0  0
  161.1310  212.2180  149.0960 C   0  0  1  0  0  3  0  0  0  0  0  0
  158.0260  210.3340  155.3870 N   0  0  0  0  0  2  0  0  0  0  0  0
  159.5360  212.9690  151.3770 C   0  0  0  0  0  0  0  0  0  0  0  0
  160.6020  211.2520  152.8790 C   0  0  1  0  0  3  0  0  0  0  0  0
  164.1570  210.5380  152.2720 O   0  0  0  0  0  0  0  0  0  0  0  0
  161.8890  210.3940  153.0130 C   0  0  1  0  0  3  0  0  0  0  0  0
  159.7890  208.5190  156.3340 O   0  0  0  0  0  0  0  0  0  0  0  0
  161.5380  211.4430  148.0110 O   0  0  0  0  0  1  0  0  0  0  0  0
  160.4180  211.9460  151.5410 C   0  0  0  0  0  0  0  0  0  0  0  0
  160.1130  209.0760  155.2510 C   0  0  0  0  0  0  0  0  0  0  0  0
  160.8190  208.2030  152.1000 C   0  0  0  0  0  3  0  0  0  0  0  0
  160.5480  206.7440  152.4290 C   0  0  0  0  0  1  0  0  0  0  0  0
  161.5040  208.2550  150.7480 C   0  0  0  0  0  1  0  0  0  0  0  0
  1  5  1  0  0  0  0
  2 20  1  0  0  0  0
  3 10  1  0  0  0  0
  5 11  2  0  0  0  0
  6 19  1  0  0  0  0
  6 15  2  0  0  0  0
  7 11  1  0  0  0  0
  7  6  1  0  0  0  0
  9 28  1  6  0  0  0
  9 14  1  0  0  0  0
 10 22  2  0  0  0  0
 11  8  1  0  0  0  0
 12  4  1  6  0  0  0
 12 27  1  0  0  0  0
 12 19  1  0  0  0  0
 13 18  1  0  0  0  0
 13  2  1  0  0  0  0
 14 27  1  0  0  0  0
 16  1  2  0  0  0  0
 17  3  1  1  0  0  0
 17 26  1  0  0  0  0
 18 25  1  6  0  0  0
 18 17  1  0  0  0  0
 20 26  2  0  0  0  0
 20  1  1  0  0  0  0
 21 23  1  0  0  0  0
 21  4  1  6  0  0  0
 23 10  1  6  0  0  0
 23  9  1  0  0  0  0
 26 21  1  0  0  0  0
 27 24  2  0  0  0  0
 28 29  1  0  0  0  0
 30 28  1  0  0  0  0
M  END
>  <MODEL>
6

>  <REMARK>
 VINA RESULT:       0.0      2.073      5.176
  Name = 
  1 active torsions:
  status: ('A' for Active; 'I' for Inactive)
    1  A    between atoms: C_7  and  C_10
                            x       y       z     vdW  Elec       q    Type
                         _______ _______ _______ _____ _____    ______ ____

>  <TORSDO>
F 1

$$$$
=
 OpenBabel11052422033D

 30 33  0  0  1  0  0  0  0  0999 V2000
  161.4290  210.8280  150.9220 C   0  0  0  0  0  0  0  0  0  0  0  0
  162.0350  208.7900  152.3090 C   0  0  0  0  0  2  0  0  0  0  0  0
  160.4560  210.6220  155.6080 O   0  0  0  0  0  0  0  0  0  0  0  0
  158.5410  211.6390  151.9980 C   0  0  0  0  0  2  0  0  0  0  0  0
  161.4290  212.2620  150.9170 N   0  0  0  0  0  0  0  0  0  0  0  0
  158.5240  212.6300  149.0240 C   0  0  0  0  0  0  0  0  0  0  0  0
  159.8870  212.3420  149.1590 O   0  0  0  0  0  0  0  0  0  0  0  0
  160.7840  214.4530  150.1630 C   0  0  0  0  0  1  0  0  0  0  0  0
  157.5650  212.3450  154.6130 C   0  0  2  0  0  3  0  0  0  0  0  0
  159.8380  211.8730  155.6170 C   0  0  0  0  0  0  0  0  0  0  0  0
  160.7280  212.9670  150.0850 C   0  0  0  0  0  0  0  0  0  0  0  0
  158.1160  213.0250  151.5400 C   0  0  1  0  0  3  0  0  0  0  0  0
  161.4370  207.8400  153.3330 C   0  0  0  0  0  2  0  0  0  0  0  0
  156.9200  213.3910  153.8150 N   0  0  0  0  0  2  0  0  0  0  0  0
  157.9890  212.4990  147.8930 O   0  0  0  0  0  0  0  0  0  0  0  0
  161.6060  210.1990  149.8430 O   0  0  0  0  0  0  0  0  0  0  0  0
  160.3240  209.7410  154.4970 C   0  0  2  0  0  3  0  0  0  0  0  0
  161.3030  208.5790  154.6490 C   0  0  1  0  0  3  0  0  0  0  0  0
  157.6960  212.9880  150.1410 N   0  0  0  0  0  2  0  0  0  0  0  0
  161.2500  210.0730  152.1830 C   0  0  0  0  0  0  0  0  0  0  0  0
  159.6200  211.7740  153.0730 C   0  0  1  0  0  3  0  0  0  0  0  0
  159.9080  212.5950  156.6450 O   0  0  0  0  0  0  0  0  0  0  0  0
  159.0920  212.3600  154.4100 C   0  0  1  0  0  3  0  0  0  0  0  0
  156.2340  214.4530  151.8790 O   0  0  0  0  0  0  0  0  0  0  0  0
  160.8430  207.7040  155.6310 O   0  0  0  0  0  1  0  0  0  0  0  0
  160.4610  210.5160  153.2000 C   0  0  0  0  0  0  0  0  0  0  0  0
  157.0260  213.6230  152.4010 C   0  0  0  0  0  0  0  0  0  0  0  0
  156.8900  210.9710  154.4340 C   0  0  0  0  0  3  0  0  0  0  0  0
  155.4580  211.1110  153.9480 C   0  0  0  0  0  1  0  0  0  0  0  0
  156.8630  210.2120  155.7470 C   0  0  0  0  0  1  0  0  0  0  0  0
  1 20  1  0  0  0  0
  2 13  1  0  0  0  0
  3 10  1  0  0  0  0
  5  1  1  0  0  0  0
  6  7  1  0  0  0  0
  6 19  1  0  0  0  0
  7 11  1  0  0  0  0
  9 28  1  6  0  0  0
 10 22  2  0  0  0  0
 11  8  1  0  0  0  0
 11  5  2  0  0  0  0
 12  4  1  1  0  0  0
 12 27  1  0  0  0  0
 13 18  1  0  0  0  0
 14  9  1  0  0  0  0
 15  6  2  0  0  0  0
 16  1  2  0  0  0  0
 17 26  1  6  0  0  0
 17 18  1  0  0  0  0
 17  3  1  0  0  0  0
 18 25  1  1  0  0  0
 19 12  1  0  0  0  0
 20  2  1  0  0  0  0
 20 26  2  0  0  0  0
 21  4  1  6  0  0  0
 21 26  1  0  0  0  0
 21 23  1  0  0  0  0
 23  9  1  0  0  0  0
 23 10  1  1  0  0  0
 24 27  2  0  0  0  0
 27 14  1  0  0  0  0
 28 30  1  0  0  0  0
 29 28  1  0  0  0  0
M  END
>  <MODEL>
7

>  <REMARK>
 VINA RESULT:       0.1      1.525      1.912
  Name = 
  1 active torsions:
  status: ('A' for Active; 'I' for Inactive)
    1  A    between atoms: C_7  and  C_10
                            x       y       z     vdW  Elec       q    Type
                         _______ _______ _______ _____ _____    ______ ____

>  <TORSDO>
F 1

$$$$
=
 OpenBabel11052422033D

 30 33  0  0  1  0  0  0  0  0999 V2000
  161.7250  208.8250  149.4980 C   0  0  0  0  0  0  0  0  0  0  0  0
  161.9010  211.2780  148.8680 C   0  0  0  0  0  2  0  0  0  0  0  0
  159.2080  212.1790  151.8130 O   0  0  0  0  0  0  0  0  0  0  0  0
  161.6590  208.8670  152.6840 C   0  0  0  0  0  2  0  0  0  0  0  0
  160.8000  207.7890  149.8560 N   0  0  0  0  0  0  0  0  0  0  0  0
  162.9550  206.0930  152.0110 C   0  0  0  0  0  0  0  0  0  0  0  0
  162.5080  206.4510  150.7330 O   0  0  0  0  0  0  0  0  0  0  0  0
  160.1310  205.6620  150.7590 C   0  0  0  0  0  1  0  0  0  0  0  0
  159.8970  210.1300  154.5780 C   0  0  2  0  0  3  0  0  0  0  0  0
  158.6410  211.2590  152.6960 C   0  0  0  0  0  0  0  0  0  0  0  0
  161.1650  206.6760  150.4120 C   0  0  0  0  0  0  0  0  0  0  0  0
  161.2310  207.5340  153.2770 C   0  0  1  0  0  3  0  0  0  0  0  0
  162.0900  212.6470  149.5010 C   0  0  0  0  0  2  0  0  0  0  0  0
  159.9980  208.7980  155.1800 N   0  0  0  0  0  2  0  0  0  0  0  0
  163.9880  205.3820  152.1110 O   0  0  0  0  0  0  0  0  0  0  0  0
  162.7610  208.5370  148.8380 O   0  0  0  0  0  0  0  0  0  0  0  0
  160.5510  212.0380  151.3630 C   0  0  2  0  0  3  0  0  0  0  0  0
  160.8120  213.0200  150.2230 C   0  0  1  0  0  3  0  0  0  0  0  0
  162.3310  206.5750  153.2110 N   0  0  0  0  0  2  0  0  0  0  0  0
  161.4670  210.2350  149.8690 C   0  0  0  0  0  0  0  0  0  0  0  0
  160.4430  209.5590  152.0680 C   0  0  1  0  0  3  0  0  0  0  0  0
  157.4780  211.4530  153.1370 O   0  0  0  0  0  0  0  0  0  0  0  0
  159.4070  210.0410  153.1200 C   0  0  1  0  0  3  0  0  0  0  0  0
  160.8410  206.6640  155.4630 O   0  0  0  0  0  0  0  0  0  0  0  0
  160.9250  214.3120  150.7340 O   0  0  0  0  0  1  0  0  0  0  0  0
  160.8370  210.5870  151.0230 C   0  0  0  0  0  0  0  0  0  0  0  0
  160.7220  207.6550  154.6950 C   0  0  0  0  0  0  0  0  0  0  0  0
  161.1720  210.9680  154.7950 C   0  0  0  0  0  3  0  0  0  0  0  0
  162.1410  210.2780  155.7400 C   0  0  0  0  0  1  0  0  0  0  0  0
  160.8310  212.3220  155.3870 C   0  0  0  0  0  1  0  0  0  0  0  0
  1  5  1  0  0  0  0
  1 20  1  0  0  0  0
  2 13  1  0  0  0  0
  2 20  1  0  0  0  0
  3 10  1  0  0  0  0
  5 11  2  0  0  0  0
  6 15  2  0  0  0  0
  6 19  1  0  0  0  0
  7  6  1  0  0  0  0
  9 28  1  6  0  0  0
  9 14  1  0  0  0  0
 10 22  2  0  0  0  0
 11  7  1  0  0  0  0
 11  8  1  0  0  0  0
 12  4  1  1  0  0  0
 12 27  1  0  0  0  0
 13 18  1  0  0  0  0
 16  1  2  0  0  0  0
 17 26  1  6  0  0  0
 17  3  1  0  0  0  0
 18 25  1  1  0  0  0
 18 17  1  0  0  0  0
 19 12  1  0  0  0  0
 20 26  2  0  0  0  0
 21  4  1  1  0  0  0
 21 23  1  0  0  0  0
 23 10  1  6  0  0  0
 23  9  1  0  0  0  0
 26 21  1  0  0  0  0
 27 14  1  0  0  0  0
 27 24  2  0  0  0  0
 28 30  1  0  0  0  0
 28 29  1  0  0  0  0
M  END
>  <MODEL>
8

>  <REMARK>
 VINA RESULT:       0.5      2.511      5.580
  Name = 
  1 active torsions:
  status: ('A' for Active; 'I' for Inactive)
    1  A    between atoms: C_7  and  C_10
                            x       y       z     vdW  Elec       q    Type
                         _______ _______ _______ _____ _____    ______ ____

>  <TORSDO>
F 1

$$$$
=
 OpenBabel11052422033D

 30 33  0  0  1  0  0  0  0  0999 V2000
  155.8660  213.9330  152.3710 C   0  0  0  0  0  0  0  0  0  0  0  0
  155.7510  214.0750  149.8390 C   0  0  0  0  0  2  0  0  0  0  0  0
  159.8390  214.0150  149.6950 O   0  0  0  0  0  0  0  0  0  0  0  0
  158.2020  211.8300  152.9020 C   0  0  0  0  0  2  0  0  0  0  0  0
  156.5530  214.4370  153.5240 N   0  0  0  0  0  0  0  0  0  0  0  0
  156.3350  211.5040  155.3990 C   0  0  0  0  0  0  0  0  0  0  0  0
  155.7870  212.6720  154.8570 O   0  0  0  0  0  0  0  0  0  0  0  0
  157.2570  214.4530  155.8250 C   0  0  0  0  0  1  0  0  0  0  0  0
  160.9780  211.7710  152.1420 C   0  0  2  0  0  3  0  0  0  0  0  0
  160.6830  213.8940  150.7990 C   0  0  0  0  0  0  0  0  0  0  0  0
  156.5010  213.8620  154.6860 C   0  0  0  0  0  0  0  0  0  0  0  0
  158.6680  211.8290  154.3490 C   0  0  1  0  0  3  0  0  0  0  0  0
  156.3300  213.4240  148.5940 C   0  0  0  0  0  2  0  0  0  0  0  0
  161.0950  211.3740  153.5470 N   0  0  0  0  0  2  0  0  0  0  0  0
  155.5810  210.7210  156.0310 O   0  0  0  0  0  0  0  0  0  0  0  0
  154.6440  213.6340  152.4530 O   0  0  0  0  0  0  0  0  0  0  0  0
  158.5870  213.3380  149.6450 C   0  0  2  0  0  3  0  0  0  0  0  0
  157.7760  213.8540  148.4580 C   0  0  1  0  0  3  0  0  0  0  0  0
  157.7040  211.1240  155.1900 N   0  0  0  0  0  2  0  0  0  0  0  0
  156.5670  213.7850  151.0750 C   0  0  0  0  0  0  0  0  0  0  0  0
  158.7070  213.0970  152.2110 C   0  0  1  0  0  3  0  0  0  0  0  0
  161.8160  214.4390  150.7810 O   0  0  0  0  0  0  0  0  0  0  0  0
  160.2460  213.1200  152.0080 C   0  0  1  0  0  3  0  0  0  0  0  0
  160.3360  210.6950  155.6230 O   0  0  0  0  0  0  0  0  0  0  0  0
  158.3050  213.3460  147.2730 O   0  0  0  0  0  1  0  0  0  0  0  0
  157.8830  213.4480  150.9850 C   0  0  0  0  0  0  0  0  0  0  0  0
  160.0490  211.2400  154.5230 C   0  0  0  0  0  0  0  0  0  0  0  0
  160.4300  210.6340  151.2560 C   0  0  0  0  0  3  0  0  0  0  0  0
  160.5120  209.2890  151.9580 C   0  0  0  0  0  1  0  0  0  0  0  0
  161.2190  210.5320  149.9650 C   0  0  0  0  0  1  0  0  0  0  0  0
  1 16  2  0  0  0  0
  1  5  1  0  0  0  0
  2 20  1  0  0  0  0
  3 10  1  0  0  0  0
  5 11  2  0  0  0  0
  6 15  2  0  0  0  0
  7  6  1  0  0  0  0
  9 28  1  6  0  0  0
  9 14  1  0  0  0  0
 11  7  1  0  0  0  0
 11  8  1  0  0  0  0
 12  4  1  6  0  0  0
 12 27  1  0  0  0  0
 12 19  1  0  0  0  0
 13  2  1  0  0  0  0
 14 27  1  0  0  0  0
 17  3  1  1  0  0  0
 17 26  1  0  0  0  0
 18 25  1  6  0  0  0
 18 13  1  0  0  0  0
 18 17  1  0  0  0  0
 19  6  1  0  0  0  0
 20  1  1  0  0  0  0
 21  4  1  6  0  0  0
 22 10  2  0  0  0  0
 23 10  1  6  0  0  0
 23  9  1  0  0  0  0
 23 21  1  0  0  0  0
 26 20  2  0  0  0  0
 26 21  1  0  0  0  0
 27 24  2  0  0  0  0
 28 29  1  0  0  0  0
 30 28  1  0  0  0  0
M  END
>  <MODEL>
9

>  <REMARK>
 VINA RESULT:       0.7      2.291      6.222
  Name = 
  1 active torsions:
  status: ('A' for Active; 'I' for Inactive)
    1  A    between atoms: C_7  and  C_10
                            x       y       z     vdW  Elec       q    Type
                         _______ _______ _______ _____ _____    ______ ____

>  <TORSDO>
F 1

$$$$
