=
 OpenBabel11052422413D

 31 34  0  0  1  0  0  0  0  0999 V2000
  161.3110  205.1700  148.8170 C   0  0  0  0  0  0  0  0  0  0  0  0
  161.2890  208.1580  151.0830 C   0  0  0  0  0  0  0  0  0  0  0  0
  160.8420  207.5340  152.4120 C   0  0  1  0  0  3  0  0  0  0  0  0
  161.3910  206.1280  154.2960 C   0  0  0  0  0  2  0  0  0  0  0  0
  161.4200  207.3430  149.9230 C   0  0  0  0  0  0  0  0  0  0  0  0
  161.7040  205.7510  147.6110 C   0  0  0  0  0  3  0  0  0  0  0  0
  161.6460  206.3090  152.8130 C   0  0  0  0  0  2  0  0  0  0  0  0
  161.8000  210.1150  149.6850 C   0  0  0  0  0  0  0  0  0  0  0  0
  161.0480  203.7090  148.8860 C   0  0  0  0  0  1  0  0  0  0  0  0
  161.8360  210.4240  153.2460 C   0  0  0  0  0  2  0  0  0  0  0  0
  160.9010  207.4670  154.8220 C   0  0  2  0  0  3  0  0  0  0  0  0
  161.9900  209.2900  148.5810 C   0  0  0  0  0  3  0  0  0  0  0  0
  161.4410  209.5710  150.9310 C   0  0  0  0  0  0  0  0  0  0  0  0
  161.1680  205.9590  149.9600 C   0  0  0  0  0  3  0  0  0  0  0  0
  159.5970  207.3270  155.2950 O   0  0  0  0  0  1  0  0  0  0  0  0
  161.7940  207.9200  148.6860 C   0  0  0  0  0  0  0  0  0  0  0  0
  161.9420  207.1250  147.5450 C   0  0  0  0  0  3  0  0  0  0  0  0
  161.1800  210.4630  151.9780 O   0  0  0  0  0  0  0  0  0  0  0  0
  162.1290  209.1150  153.6450 O   0  0  0  0  0  0  0  0  0  0  0  0
  160.9110  208.4250  153.6440 C   0  0  1  0  0  3  0  0  0  0  0  0
  162.0110  211.5860  149.5150 C   0  0  0  0  0  2  0  0  0  0  0  0
  160.0370  212.2610  147.4320 C   0  0  0  0  0  1  0  0  0  0  0  0
  163.5810  211.6470  147.7300 O   0  0  0  0  0  0  0  0  0  0  0  0
  162.4040  211.9010  148.1060 C   0  0  0  0  0  0  0  0  0  0  0  0
  161.4570  212.4880  147.1930 N   0  0  0  0  0  0  0  0  0  0  0  0
  162.4800  214.4520  146.2300 C   0  0  0  0  0  2  0  0  0  0  0  0
  161.8790  213.2800  146.0540 C   0  0  0  0  0  0  0  0  0  0  0  0
  162.7570  212.9710  143.7400 C   0  0  0  0  0  1  0  0  0  0  0  0
  161.5370  212.8930  144.6400 C   0  0  2  0  0  3  0  0  0  0  0  0
  160.4170  213.7110  144.0780 C   0  0  0  0  0  3  0  0  0  0  0  0
  159.1930  213.2020  143.9590 C   0  0  0  0  0  2  0  0  0  0  0  0
  1  9  1  0  0  0  0
  1 14  1  0  0  0  0
  2  3  1  0  0  0  0
  3  7  1  1  0  0  0
  3 20  1  0  0  0  0
  4 11  1  0  0  0  0
  5 14  2  0  0  0  0
  5  2  1  0  0  0  0
  6  1  2  0  0  0  0
  7  4  1  0  0  0  0
  8 13  1  0  0  0  0
 10 19  1  0  0  0  0
 11 15  1  6  0  0  0
 12 16  1  0  0  0  0
 12  8  2  0  0  0  0
 13  2  2  0  0  0  0
 13 18  1  0  0  0  0
 16  5  1  0  0  0  0
 17  6  1  0  0  0  0
 17 16  2  0  0  0  0
 18 10  1  0  0  0  0
 20 19  1  6  0  0  0
 20 11  1  0  0  0  0
 21  8  1  0  0  0  0
 23 24  2  0  0  0  0
 24 21  1  0  0  0  0
 25 22  1  0  0  0  0
 25 24  1  0  0  0  0
 27 26  2  0  0  0  0
 27 25  1  0  0  0  0
 29 28  1  6  0  0  0
 29 27  1  0  0  0  0
 30 29  1  0  0  0  0
 31 30  2  0  0  0  0
M  END
>  <MODEL>
1

>  <REMARK>
 VINA RESULT:      -7.9      0.000      0.000
  Name = 
  5 active torsions:
  status: ('A' for Active; 'I' for Inactive)
    1  A    between atoms: C_1  and  C_24
    2  A    between atoms: C_9  and  C_23
    3  A    between atoms: C_15  and  C_23
    4  A    between atoms: C_19  and  N_22
    5  A    between atoms: C_19  and  C_24
                            x       y       z     vdW  Elec       q    Type
                         _______ _______ _______ _____ _____    ______ ____

>  <TORSDO>
F 5

$$$$
=
 OpenBabel11052422413D

 31 34  0  0  1  0  0  0  0  0999 V2000
  160.7280  202.3650  150.8710 C   0  0  0  0  0  0  0  0  0  0  0  0
  161.6930  205.7980  149.7100 C   0  0  0  0  0  0  0  0  0  0  0  0
  161.8730  205.5730  148.2020 C   0  0  1  0  0  3  0  0  0  0  0  0
  160.8400  205.1550  146.0600 C   0  0  0  0  0  2  0  0  0  0  0  0
  161.3250  204.7100  150.5510 C   0  0  0  0  0  0  0  0  0  0  0  0
  160.5800  202.5780  152.2420 C   0  0  0  0  0  3  0  0  0  0  0  0
  160.6970  204.8740  147.5430 C   0  0  0  0  0  2  0  0  0  0  0  0
  161.9010  207.1970  151.7210 C   0  0  0  0  0  0  0  0  0  0  0  0
  160.4840  201.0160  150.2990 C   0  0  0  0  0  1  0  0  0  0  0  0
  161.8840  208.7280  148.4910 C   0  0  0  0  0  2  0  0  0  0  0  0
  161.7380  206.3760  145.9320 C   0  0  2  0  0  3  0  0  0  0  0  0
  161.4720  206.1390  152.5140 C   0  0  0  0  0  3  0  0  0  0  0  0
  162.0270  207.0420  150.3290 C   0  0  0  0  0  0  0  0  0  0  0  0
  161.0980  203.4210  150.0360 C   0  0  0  0  0  3  0  0  0  0  0  0
  162.9080  206.0180  145.2630 O   0  0  0  0  0  1  0  0  0  0  0  0
  161.1960  204.9020  151.9480 C   0  0  0  0  0  0  0  0  0  0  0  0
  160.8170  203.8440  152.7800 C   0  0  0  0  0  3  0  0  0  0  0  0
  162.5470  208.1190  149.6000 O   0  0  0  0  0  0  0  0  0  0  0  0
  161.1610  207.7980  147.7350 O   0  0  0  0  0  0  0  0  0  0  0  0
  162.0770  206.8150  147.3450 C   0  0  1  0  0  3  0  0  0  0  0  0
  162.1980  208.5050  152.3830 C   0  0  0  0  0  2  0  0  0  0  0  0
  161.5760  208.5780  155.2640 C   0  0  0  0  0  1  0  0  0  0  0  0
  160.0130  209.4050  152.1180 O   0  0  0  0  0  0  0  0  0  0  0  0
  160.9430  209.1190  152.9200 C   0  0  0  0  0  0  0  0  0  0  0  0
  160.7990  209.3830  154.3290 N   0  0  0  0  0  0  0  0  0  0  0  0
  158.7940  210.0780  155.4810 C   0  0  0  0  0  2  0  0  0  0  0  0
  159.9050  210.4080  154.8290 C   0  0  0  0  0  0  0  0  0  0  0  0
  160.0610  212.7080  155.7830 C   0  0  0  0  0  1  0  0  0  0  0  0
  160.1070  211.8670  154.5200 C   0  0  2  0  0  3  0  0  0  0  0  0
  159.1270  212.3790  153.5120 C   0  0  0  0  0  3  0  0  0  0  0  0
  159.5370  212.8330  152.3290 C   0  0  0  0  0  2  0  0  0  0  0  0
  1  6  1  0  0  0  0
  2 13  2  0  0  0  0
  2  5  1  0  0  0  0
  3  7  1  6  0  0  0
  3  2  1  0  0  0  0
  4  7  1  0  0  0  0
  5 16  2  0  0  0  0
  6 17  2  0  0  0  0
  8 21  1  0  0  0  0
  8 12  2  0  0  0  0
  9  1  1  0  0  0  0
 10 18  1  0  0  0  0
 11 15  1  6  0  0  0
 11  4  1  0  0  0  0
 11 20  1  0  0  0  0
 13  8  1  0  0  0  0
 14  5  1  0  0  0  0
 14  1  2  0  0  0  0
 16 12  1  0  0  0  0
 16 17  1  0  0  0  0
 18 13  1  0  0  0  0
 19 10  1  0  0  0  0
 20 19  1  1  0  0  0
 20  3  1  0  0  0  0
 21 24  1  0  0  0  0
 23 24  2  0  0  0  0
 24 25  1  0  0  0  0
 25 27  1  0  0  0  0
 25 22  1  0  0  0  0
 27 26  2  0  0  0  0
 29 27  1  0  0  0  0
 29 28  1  1  0  0  0
 30 29  1  0  0  0  0
 31 30  2  0  0  0  0
M  END
>  <MODEL>
2

>  <REMARK>
 VINA RESULT:      -7.7      3.573      6.879
  Name = 
  5 active torsions:
  status: ('A' for Active; 'I' for Inactive)
    1  A    between atoms: C_1  and  C_24
    2  A    between atoms: C_9  and  C_23
    3  A    between atoms: C_15  and  C_23
    4  A    between atoms: C_19  and  N_22
    5  A    between atoms: C_19  and  C_24
                            x       y       z     vdW  Elec       q    Type
                         _______ _______ _______ _____ _____    ______ ____

>  <TORSDO>
F 5

$$$$
=
 OpenBabel11052422413D

 31 34  0  0  1  0  0  0  0  0999 V2000
  161.0890  203.5180  151.9420 C   0  0  0  0  0  0  0  0  0  0  0  0
  161.6910  206.5670  149.8440 C   0  0  0  0  0  0  0  0  0  0  0  0
  161.9620  205.9450  148.4680 C   0  0  1  0  0  3  0  0  0  0  0  0
  161.0800  204.8050  146.5310 C   0  0  0  0  0  2  0  0  0  0  0  0
  161.4180  205.7280  150.9620 C   0  0  0  0  0  0  0  0  0  0  0  0
  160.8580  204.0930  153.1920 C   0  0  0  0  0  3  0  0  0  0  0  0
  160.9060  204.9440  148.0300 C   0  0  0  0  0  2  0  0  0  0  0  0
  161.6440  208.4980  151.3660 C   0  0  0  0  0  0  0  0  0  0  0  0
  161.0320  202.0410  151.7840 C   0  0  0  0  0  1  0  0  0  0  0  0
  161.5860  209.0250  147.8310 C   0  0  0  0  0  2  0  0  0  0  0  0
  161.8310  206.0400  146.0610 C   0  0  2  0  0  3  0  0  0  0  0  0
  161.3100  207.6660  152.4280 C   0  0  0  0  0  3  0  0  0  0  0  0
  161.8480  207.9680  150.0790 C   0  0  0  0  0  0  0  0  0  0  0  0
  161.3680  204.3270  150.8400 C   0  0  0  0  0  3  0  0  0  0  0  0
  163.0630  205.6560  145.5330 O   0  0  0  0  0  1  0  0  0  0  0  0
  161.2060  206.2950  152.2420 C   0  0  0  0  0  0  0  0  0  0  0  0
  160.9200  205.4800  153.3420 C   0  0  0  0  0  3  0  0  0  0  0  0
  162.2680  208.8470  149.0740 O   0  0  0  0  0  0  0  0  0  0  0  0
  161.0120  207.8350  147.3710 O   0  0  0  0  0  0  0  0  0  0  0  0
  162.0540  206.9040  147.2890 C   0  0  1  0  0  3  0  0  0  0  0  0
  161.7550  209.9670  151.6230 C   0  0  0  0  0  2  0  0  0  0  0  0
  159.2350  210.9530  152.7940 C   0  0  0  0  0  1  0  0  0  0  0  0
  162.6400  210.3090  153.8030 O   0  0  0  0  0  0  0  0  0  0  0  0
  161.6050  210.2570  153.0840 C   0  0  0  0  0  0  0  0  0  0  0  0
  160.3030  210.4700  153.6610 N   0  0  0  0  0  0  0  0  0  0  0  0
  159.3010  211.0780  155.7720 C   0  0  0  0  0  2  0  0  0  0  0  0
  160.0370  210.2270  155.0650 C   0  0  0  0  0  0  0  0  0  0  0  0
  159.7020  207.9700  156.0730 C   0  0  0  0  0  1  0  0  0  0  0  0
  160.6860  209.0970  155.8190 C   0  0  2  0  0  3  0  0  0  0  0  0
  161.3100  209.5500  157.1020 C   0  0  0  0  0  3  0  0  0  0  0  0
  162.6320  209.5370  157.2600 C   0  0  0  0  0  2  0  0  0  0  0  0
  1  6  1  0  0  0  0
  2 13  2  0  0  0  0
  2  5  1  0  0  0  0
  3  7  1  6  0  0  0
  3  2  1  0  0  0  0
  4  7  1  0  0  0  0
  5 16  2  0  0  0  0
  6 17  2  0  0  0  0
  8 21  1  0  0  0  0
  8 12  2  0  0  0  0
  9  1  1  0  0  0  0
 10 18  1  0  0  0  0
 11 15  1  1  0  0  0
 11  4  1  0  0  0  0
 11 20  1  0  0  0  0
 13  8  1  0  0  0  0
 14  5  1  0  0  0  0
 14  1  2  0  0  0  0
 16 12  1  0  0  0  0
 16 17  1  0  0  0  0
 18 13  1  0  0  0  0
 19 10  1  0  0  0  0
 20 19  1  1  0  0  0
 20  3  1  0  0  0  0
 21 24  1  0  0  0  0
 22 25  1  0  0  0  0
 24 25  1  0  0  0  0
 24 23  2  0  0  0  0
 25 27  1  0  0  0  0
 27 26  2  0  0  0  0
 27 29  1  0  0  0  0
 29 28  1  1  0  0  0
 29 30  1  0  0  0  0
 30 31  2  0  0  0  0
M  END
>  <MODEL>
3

>  <REMARK>
 VINA RESULT:      -7.6      3.236      7.300
  Name = 
  5 active torsions:
  status: ('A' for Active; 'I' for Inactive)
    1  A    between atoms: C_1  and  C_24
    2  A    between atoms: C_9  and  C_23
    3  A    between atoms: C_15  and  C_23
    4  A    between atoms: C_19  and  N_22
    5  A    between atoms: C_19  and  C_24
                            x       y       z     vdW  Elec       q    Type
                         _______ _______ _______ _____ _____    ______ ____

>  <TORSDO>
F 5

$$$$
=
 OpenBabel11052422413D

 31 34  0  0  1  0  0  0  0  0999 V2000
  161.4730  206.1500  146.4580 C   0  0  0  0  0  0  0  0  0  0  0  0
  161.0350  204.6010  149.8460 C   0  0  0  0  0  0  0  0  0  0  0  0
  160.4690  203.2220  149.4820 C   0  0  1  0  0  3  0  0  0  0  0  0
  160.8650  201.0310  148.5470 C   0  0  0  0  0  2  0  0  0  0  0  0
  161.3420  205.5370  148.8170 C   0  0  0  0  0  0  0  0  0  0  0  0
  161.9740  207.4060  146.8010 C   0  0  0  0  0  3  0  0  0  0  0  0
  161.2810  202.4830  148.4320 C   0  0  0  0  0  2  0  0  0  0  0  0
  161.6060  206.3300  151.4970 C   0  0  0  0  0  0  0  0  0  0  0  0
  161.2780  205.7940  145.0290 C   0  0  0  0  0  1  0  0  0  0  0  0
  161.2110  202.9360  152.5480 C   0  0  0  0  0  2  0  0  0  0  0  0
  160.2490  200.8610  149.9270 C   0  0  2  0  0  3  0  0  0  0  0  0
  161.9650  207.2030  150.4760 C   0  0  0  0  0  3  0  0  0  0  0  0
  161.1320  205.0390  151.2020 C   0  0  0  0  0  0  0  0  0  0  0  0
  161.1580  205.2270  147.4570 C   0  0  0  0  0  3  0  0  0  0  0  0
  158.9080  200.5060  149.7920 O   0  0  0  0  0  1  0  0  0  0  0  0
  161.8280  206.8250  149.1480 C   0  0  0  0  0  0  0  0  0  0  0  0
  162.1480  207.7440  148.1440 C   0  0  0  0  0  3  0  0  0  0  0  0
  160.7050  204.2430  152.2720 O   0  0  0  0  0  0  0  0  0  0  0  0
  161.5210  202.2350  151.3780 O   0  0  0  0  0  0  0  0  0  0  0  0
  160.3480  202.2110  150.6150 C   0  0  1  0  0  3  0  0  0  0  0  0
  161.7600  206.7920  152.9120 C   0  0  0  0  0  2  0  0  0  0  0  0
  160.9110  207.6620  155.5980 C   0  0  0  0  0  1  0  0  0  0  0  0
  160.4690  208.6380  152.1510 O   0  0  0  0  0  0  0  0  0  0  0  0
  160.9820  208.0490  153.1420 C   0  0  0  0  0  0  0  0  0  0  0  0
  160.8230  208.5820  154.4700 N   0  0  0  0  0  0  0  0  0  0  0  0
  161.5780  210.8270  154.9400 C   0  0  0  0  0  2  0  0  0  0  0  0
  160.5720  209.9900  154.7070 C   0  0  0  0  0  0  0  0  0  0  0  0
  158.8260  211.4390  153.6690 C   0  0  0  0  0  1  0  0  0  0  0  0
  159.1780  210.5430  154.8430 C   0  0  2  0  0  3  0  0  0  0  0  0
  158.9740  211.2670  156.1360 C   0  0  0  0  0  3  0  0  0  0  0  0
  157.8140  211.8610  156.4100 C   0  0  0  0  0  2  0  0  0  0  0  0
  1  6  2  0  0  0  0
  1 14  1  0  0  0  0
  2 13  2  0  0  0  0
  3  7  1  6  0  0  0
  3  2  1  0  0  0  0
  3 20  1  0  0  0  0
  4 11  1  0  0  0  0
  5 16  1  0  0  0  0
  5  2  1  0  0  0  0
  6 17  1  0  0  0  0
  7  4  1  0  0  0  0
  8 21  1  0  0  0  0
  9  1  1  0  0  0  0
 11 15  1  6  0  0  0
 11 20  1  0  0  0  0
 12  8  2  0  0  0  0
 13  8  1  0  0  0  0
 13 18  1  0  0  0  0
 14  5  2  0  0  0  0
 16 12  1  0  0  0  0
 17 16  2  0  0  0  0
 18 10  1  0  0  0  0
 19 10  1  0  0  0  0
 20 19  1  1  0  0  0
 21 24  1  0  0  0  0
 23 24  2  0  0  0  0
 24 25  1  0  0  0  0
 25 27  1  0  0  0  0
 25 22  1  0  0  0  0
 27 29  1  0  0  0  0
 27 26  2  0  0  0  0
 29 28  1  6  0  0  0
 29 30  1  0  0  0  0
 30 31  2  0  0  0  0
M  END
>  <MODEL>
4

>  <REMARK>
 VINA RESULT:      -7.4      3.925      7.092
  Name = 
  5 active torsions:
  status: ('A' for Active; 'I' for Inactive)
    1  A    between atoms: C_1  and  C_24
    2  A    between atoms: C_9  and  C_23
    3  A    between atoms: C_15  and  C_23
    4  A    between atoms: C_19  and  N_22
    5  A    between atoms: C_19  and  C_24
                            x       y       z     vdW  Elec       q    Type
                         _______ _______ _______ _____ _____    ______ ____

>  <TORSDO>
F 5

$$$$
=
 OpenBabel11052422413D

 31 34  0  0  1  0  0  0  0  0999 V2000
  160.6870  206.7660  154.3640 C   0  0  0  0  0  0  0  0  0  0  0  0
  161.1190  208.8320  151.2640 C   0  0  0  0  0  0  0  0  0  0  0  0
  160.4810  210.1620  151.6890 C   0  0  1  0  0  3  0  0  0  0  0  0
  160.6320  212.1660  153.0280 C   0  0  0  0  0  2  0  0  0  0  0  0
  161.1550  207.7380  152.1760 C   0  0  0  0  0  0  0  0  0  0  0  0
  161.2560  205.5580  153.9630 C   0  0  0  0  0  3  0  0  0  0  0  0
  161.0030  210.6960  153.0120 C   0  0  0  0  0  2  0  0  0  0  0  0
  162.0850  207.3540  149.5540 C   0  0  0  0  0  0  0  0  0  0  0  0
  160.1390  206.9080  155.7380 C   0  0  0  0  0  1  0  0  0  0  0  0
  161.9720  210.8820  148.9890 C   0  0  0  0  0  2  0  0  0  0  0  0
  160.3830  212.5690  151.5830 C   0  0  2  0  0  3  0  0  0  0  0  0
  162.1740  206.3210  150.4810 C   0  0  0  0  0  3  0  0  0  0  0  0
  161.5530  208.6030  149.9230 C   0  0  0  0  0  0  0  0  0  0  0  0
  160.6350  207.8440  153.4780 C   0  0  0  0  0  3  0  0  0  0  0  0
  159.0520  212.9550  151.4350 O   0  0  0  0  0  1  0  0  0  0  0  0
  161.7070  206.4970  151.7760 C   0  0  0  0  0  0  0  0  0  0  0  0
  161.7630  205.4220  152.6690 C   0  0  0  0  0  3  0  0  0  0  0  0
  161.4110  209.5700  148.9200 O   0  0  0  0  0  0  0  0  0  0  0  0
  161.9780  211.3830  150.2950 O   0  0  0  0  0  0  0  0  0  0  0  0
  160.6510  211.3370  150.7370 C   0  0  1  0  0  3  0  0  0  0  0  0
  162.5900  207.1080  148.1680 C   0  0  0  0  0  2  0  0  0  0  0  0
  163.7700  204.9330  146.5640 C   0  0  0  0  0  1  0  0  0  0  0  0
  160.5130  206.2550  147.3850 O   0  0  0  0  0  0  0  0  0  0  0  0
  161.7570  206.0710  147.4820 C   0  0  0  0  0  0  0  0  0  0  0  0
  162.3630  204.8800  146.9430 N   0  0  0  0  0  0  0  0  0  0  0  0
  160.9660  203.4140  145.6280 C   0  0  0  0  0  2  0  0  0  0  0  0
  161.6140  203.6520  146.7640 C   0  0  0  0  0  0  0  0  0  0  0  0
  160.6250  201.4560  147.4160 C   0  0  0  0  0  1  0  0  0  0  0  0
  161.4140  202.6660  147.8840 C   0  0  2  0  0  3  0  0  0  0  0  0
  160.7640  203.2850  149.0820 C   0  0  0  0  0  3  0  0  0  0  0  0
  160.7400  202.6480  150.2510 C   0  0  0  0  0  2  0  0  0  0  0  0
  1  9  1  0  0  0  0
  2  3  1  0  0  0  0
  2  5  1  0  0  0  0
  3  7  1  1  0  0  0
  5 14  1  0  0  0  0
  6  1  1  0  0  0  0
  7  4  1  0  0  0  0
  8 13  1  0  0  0  0
  8 12  2  0  0  0  0
 10 19  1  0  0  0  0
 11 15  1  1  0  0  0
 11  4  1  0  0  0  0
 12 16  1  0  0  0  0
 13  2  2  0  0  0  0
 14  1  2  0  0  0  0
 16  5  2  0  0  0  0
 16 17  1  0  0  0  0
 17  6  2  0  0  0  0
 18 10  1  0  0  0  0
 18 13  1  0  0  0  0
 20 19  1  1  0  0  0
 20 11  1  0  0  0  0
 20  3  1  0  0  0  0
 21  8  1  0  0  0  0
 22 25  1  0  0  0  0
 23 24  2  0  0  0  0
 24 21  1  0  0  0  0
 25 24  1  0  0  0  0
 26 27  2  0  0  0  0
 27 25  1  0  0  0  0
 27 29  1  0  0  0  0
 29 28  1  6  0  0  0
 29 30  1  0  0  0  0
 30 31  2  0  0  0  0
M  END
>  <MODEL>
5

>  <REMARK>
 VINA RESULT:      -7.3      3.241      6.774
  Name = 
  5 active torsions:
  status: ('A' for Active; 'I' for Inactive)
    1  A    between atoms: C_1  and  C_24
    2  A    between atoms: C_9  and  C_23
    3  A    between atoms: C_15  and  C_23
    4  A    between atoms: C_19  and  N_22
    5  A    between atoms: C_19  and  C_24
                            x       y       z     vdW  Elec       q    Type
                         _______ _______ _______ _____ _____    ______ ____

>  <TORSDO>
F 5

$$$$
=
 OpenBabel11052422413D

 31 34  0  0  1  0  0  0  0  0999 V2000
  162.0660  210.7850  149.3490 C   0  0  0  0  0  0  0  0  0  0  0  0
  161.4820  208.6660  152.3880 C   0  0  0  0  0  0  0  0  0  0  0  0
  161.6050  209.7020  153.5140 C   0  0  1  0  0  3  0  0  0  0  0  0
  160.6410  211.5930  154.6650 C   0  0  0  0  0  2  0  0  0  0  0  0
  161.6510  209.0670  151.0320 C   0  0  0  0  0  0  0  0  0  0  0  0
  161.9660  209.8320  148.3350 C   0  0  0  0  0  3  0  0  0  0  0  0
  160.7510  210.9400  153.3020 C   0  0  0  0  0  2  0  0  0  0  0  0
  161.2890  206.3420  151.6080 C   0  0  0  0  0  0  0  0  0  0  0  0
  162.3310  212.2070  149.0080 C   0  0  0  0  0  1  0  0  0  0  0  0
  160.3840  207.1650  154.9670 C   0  0  0  0  0  2  0  0  0  0  0  0
  160.9640  210.5180  155.6910 C   0  0  2  0  0  3  0  0  0  0  0  0
  161.3880  206.7660  150.2880 C   0  0  0  0  0  3  0  0  0  0  0  0
  161.3450  207.2700  152.6630 C   0  0  0  0  0  0  0  0  0  0  0  0
  161.9130  210.4040  150.6840 C   0  0  0  0  0  3  0  0  0  0  0  0
  162.1170  210.8780  156.3880 O   0  0  0  0  0  1  0  0  0  0  0  0
  161.5780  208.1080  149.9920 C   0  0  0  0  0  0  0  0  0  0  0  0
  161.7260  208.4950  148.6560 C   0  0  0  0  0  3  0  0  0  0  0  0
  161.3280  206.7690  153.9710 O   0  0  0  0  0  0  0  0  0  0  0  0
  160.0280  208.5130  154.8470 O   0  0  0  0  0  0  0  0  0  0  0  0
  161.2220  209.2400  154.9130 C   0  0  1  0  0  3  0  0  0  0  0  0
  161.0980  204.8830  151.8720 C   0  0  0  0  0  2  0  0  0  0  0  0
  161.9730  202.1070  151.3950 C   0  0  0  0  0  1  0  0  0  0  0  0
  160.3740  204.8060  149.6090 O   0  0  0  0  0  0  0  0  0  0  0  0
  160.8020  204.1530  150.5990 C   0  0  0  0  0  0  0  0  0  0  0  0
  160.9980  202.7290  150.5060 N   0  0  0  0  0  0  0  0  0  0  0  0
  159.1870  201.2380  149.9350 C   0  0  0  0  0  2  0  0  0  0  0  0
  160.2670  201.9150  149.5560 C   0  0  0  0  0  0  0  0  0  0  0  0
  161.6000  200.4180  148.0710 C   0  0  0  0  0  1  0  0  0  0  0  0
  160.7620  201.6810  148.1540 C   0  0  2  0  0  3  0  0  0  0  0  0
  161.5210  202.8520  147.6120 C   0  0  0  0  0  3  0  0  0  0  0  0
  161.2280  203.3610  146.4170 C   0  0  0  0  0  2  0  0  0  0  0  0
  1 14  1  0  0  0  0
  2 13  2  0  0  0  0
  2  3  1  0  0  0  0
  3  7  1  6  0  0  0
  3 20  1  0  0  0  0
  4 11  1  0  0  0  0
  5  2  1  0  0  0  0
  6 17  1  0  0  0  0
  6  1  2  0  0  0  0
  7  4  1  0  0  0  0
  8 21  1  0  0  0  0
  8 13  1  0  0  0  0
  9  1  1  0  0  0  0
 11 15  1  6  0  0  0
 12  8  2  0  0  0  0
 13 18  1  0  0  0  0
 14  5  2  0  0  0  0
 16 12  1  0  0  0  0
 16  5  1  0  0  0  0
 17 16  2  0  0  0  0
 18 10  1  0  0  0  0
 19 10  1  0  0  0  0
 20 19  1  6  0  0  0
 20 11  1  0  0  0  0
 23 24  2  0  0  0  0
 24 21  1  0  0  0  0
 25 24  1  0  0  0  0
 25 22  1  0  0  0  0
 27 26  2  0  0  0  0
 27 25  1  0  0  0  0
 29 28  1  1  0  0  0
 29 27  1  0  0  0  0
 30 29  1  0  0  0  0
 31 30  2  0  0  0  0
M  END
>  <MODEL>
6

>  <REMARK>
 VINA RESULT:      -7.3      3.428      7.254
  Name = 
  5 active torsions:
  status: ('A' for Active; 'I' for Inactive)
    1  A    between atoms: C_1  and  C_24
    2  A    between atoms: C_9  and  C_23
    3  A    between atoms: C_15  and  C_23
    4  A    between atoms: C_19  and  N_22
    5  A    between atoms: C_19  and  C_24
                            x       y       z     vdW  Elec       q    Type
                         _______ _______ _______ _____ _____    ______ ____

>  <TORSDO>
F 5

$$$$
=
 OpenBabel11052422413D

 31 34  0  0  1  0  0  0  0  0999 V2000
  160.8990  204.6060  152.5820 C   0  0  0  0  0  0  0  0  0  0  0  0
  161.3020  207.5420  150.2830 C   0  0  0  0  0  0  0  0  0  0  0  0
  161.0300  208.7160  151.2330 C   0  0  1  0  0  3  0  0  0  0  0  0
  161.7960  210.0740  153.0770 C   0  0  0  0  0  2  0  0  0  0  0  0
  161.2390  206.2050  150.7700 C   0  0  0  0  0  0  0  0  0  0  0  0
  161.1350  203.5460  151.7070 C   0  0  0  0  0  3  0  0  0  0  0  0
  161.8420  208.6670  152.5160 C   0  0  0  0  0  2  0  0  0  0  0  0
  161.6720  206.6340  148.0290 C   0  0  0  0  0  0  0  0  0  0  0  0
  160.6010  204.3360  154.0120 C   0  0  0  0  0  1  0  0  0  0  0  0
  162.2290  210.1090  148.6530 C   0  0  0  0  0  2  0  0  0  0  0  0
  161.4310  210.9930  151.9210 C   0  0  2  0  0  3  0  0  0  0  0  0
  161.6750  205.3400  148.5380 C   0  0  0  0  0  3  0  0  0  0  0  0
  161.4780  207.7370  148.8790 C   0  0  0  0  0  0  0  0  0  0  0  0
  160.9480  205.9220  152.1170 C   0  0  0  0  0  3  0  0  0  0  0  0
  160.2050  211.6000  152.1860 O   0  0  0  0  0  1  0  0  0  0  0  0
  161.4500  205.1170  149.8890 C   0  0  0  0  0  0  0  0  0  0  0  0
  161.4070  203.8010  150.3610 C   0  0  0  0  0  3  0  0  0  0  0  0
  161.3990  209.0050  148.2890 O   0  0  0  0  0  0  0  0  0  0  0  0
  162.5320  210.1110  150.0190 O   0  0  0  0  0  0  0  0  0  0  0  0
  161.3050  210.1120  150.6910 C   0  0  1  0  0  3  0  0  0  0  0  0
  161.9060  206.8190  146.5630 C   0  0  0  0  0  2  0  0  0  0  0  0
  163.0410  204.4120  145.2920 C   0  0  0  0  0  1  0  0  0  0  0  0
  159.9060  206.1960  145.4380 O   0  0  0  0  0  0  0  0  0  0  0  0
  161.0740  205.8580  145.7730 C   0  0  0  0  0  0  0  0  0  0  0  0
  161.5950  204.5660  145.4030 N   0  0  0  0  0  0  0  0  0  0  0  0
  159.6220  203.5900  144.4100 C   0  0  0  0  0  2  0  0  0  0  0  0
  160.7270  203.4380  145.1340 C   0  0  0  0  0  0  0  0  0  0  0  0
  160.0850  201.0270  145.1090 C   0  0  0  0  0  1  0  0  0  0  0  0
  160.9460  202.0900  145.7670 C   0  0  2  0  0  3  0  0  0  0  0  0
  160.7190  202.1080  147.2460 C   0  0  0  0  0  3  0  0  0  0  0  0
  161.1640  201.1190  148.0180 C   0  0  0  0  0  2  0  0  0  0  0  0
  1  9  1  0  0  0  0
  2  5  1  0  0  0  0
  2  3  1  0  0  0  0
  3  7  1  1  0  0  0
  5 14  2  0  0  0  0
  6  1  2  0  0  0  0
  7  4  1  0  0  0  0
  8 12  2  0  0  0  0
  8 13  1  0  0  0  0
 10 19  1  0  0  0  0
 11 15  1  1  0  0  0
 11  4  1  0  0  0  0
 12 16  1  0  0  0  0
 13  2  2  0  0  0  0
 14  1  1  0  0  0  0
 16 17  2  0  0  0  0
 16  5  1  0  0  0  0
 17  6  1  0  0  0  0
 18 10  1  0  0  0  0
 18 13  1  0  0  0  0
 20 19  1  1  0  0  0
 20  3  1  0  0  0  0
 20 11  1  0  0  0  0
 21  8  1  0  0  0  0
 22 25  1  0  0  0  0
 23 24  2  0  0  0  0
 24 21  1  0  0  0  0
 25 24  1  0  0  0  0
 26 27  2  0  0  0  0
 27 25  1  0  0  0  0
 27 29  1  0  0  0  0
 29 28  1  6  0  0  0
 29 30  1  0  0  0  0
 30 31  2  0  0  0  0
M  END
>  <MODEL>
7

>  <REMARK>
 VINA RESULT:      -6.8      3.295      6.601
  Name = 
  5 active torsions:
  status: ('A' for Active; 'I' for Inactive)
    1  A    between atoms: C_1  and  C_24
    2  A    between atoms: C_9  and  C_23
    3  A    between atoms: C_15  and  C_23
    4  A    between atoms: C_19  and  N_22
    5  A    between atoms: C_19  and  C_24
                            x       y       z     vdW  Elec       q    Type
                         _______ _______ _______ _____ _____    ______ ____

>  <TORSDO>
F 5

$$$$
=
 OpenBabel11052422413D

 31 34  0  0  1  0  0  0  0  0999 V2000
  160.8920  205.0820  149.6540 C   0  0  0  0  0  0  0  0  0  0  0  0
  161.1950  208.2810  151.5860 C   0  0  0  0  0  0  0  0  0  0  0  0
  160.6240  207.8720  152.9510 C   0  0  1  0  0  3  0  0  0  0  0  0
  160.9150  206.6250  154.9980 C   0  0  0  0  0  2  0  0  0  0  0  0
  161.2550  207.3310  150.5270 C   0  0  0  0  0  0  0  0  0  0  0  0
  161.4000  205.4680  148.4130 C   0  0  0  0  0  3  0  0  0  0  0  0
  161.2410  206.6050  153.5180 C   0  0  0  0  0  2  0  0  0  0  0  0
  162.0120  209.9860  150.0150 C   0  0  0  0  0  0  0  0  0  0  0  0
  160.4330  203.6840  149.8640 C   0  0  0  0  0  1  0  0  0  0  0  0
  161.9690  210.6830  153.5210 C   0  0  0  0  0  2  0  0  0  0  0  0
  160.5910  208.0670  155.3540 C   0  0  2  0  0  3  0  0  0  0  0  0
  162.1270  209.0270  149.0160 C   0  0  0  0  0  3  0  0  0  0  0  0
  161.5410  209.6360  151.2930 C   0  0  0  0  0  0  0  0  0  0  0  0
  160.8180  206.0050  150.6980 C   0  0  0  0  0  3  0  0  0  0  0  0
  159.2650  208.1510  155.7760 O   0  0  0  0  0  1  0  0  0  0  0  0
  161.7450  207.7140  149.2550 C   0  0  0  0  0  0  0  0  0  0  0  0
  161.8230  206.7840  148.2130 C   0  0  0  0  0  3  0  0  0  0  0  0
  161.3660  210.6660  152.2260 O   0  0  0  0  0  0  0  0  0  0  0  0
  162.0690  209.4000  154.0700 O   0  0  0  0  0  0  0  0  0  0  0  0
  160.7700  208.8780  154.0840 C   0  0  1  0  0  3  0  0  0  0  0  0
  162.4240  211.3890  149.7010 C   0  0  0  0  0  2  0  0  0  0  0  0
  162.4890  212.9820  147.2200 C   0  0  0  0  0  1  0  0  0  0  0  0
  160.2870  212.3810  150.0160 O   0  0  0  0  0  0  0  0  0  0  0  0
  161.2510  212.1880  149.2260 C   0  0  0  0  0  0  0  0  0  0  0  0
  161.2200  212.7250  147.8900 N   0  0  0  0  0  0  0  0  0  0  0  0
  159.9620  213.7730  146.1150 C   0  0  0  0  0  2  0  0  0  0  0  0
  159.9740  213.0200  147.2110 C   0  0  0  0  0  0  0  0  0  0  0  0
  157.6130  212.4170  146.6780 C   0  0  0  0  0  1  0  0  0  0  0  0
  158.6390  212.6190  147.7780 C   0  0  2  0  0  3  0  0  0  0  0  0
  158.1330  213.5940  148.7950 C   0  0  0  0  0  3  0  0  0  0  0  0
  157.0070  213.3590  149.4650 C   0  0  0  0  0  2  0  0  0  0  0  0
  1  9  1  0  0  0  0
  1 14  1  0  0  0  0
  2  3  1  0  0  0  0
  3  7  1  1  0  0  0
  3 20  1  0  0  0  0
  4 11  1  0  0  0  0
  5 14  2  0  0  0  0
  5  2  1  0  0  0  0
  6  1  2  0  0  0  0
  7  4  1  0  0  0  0
  8 13  1  0  0  0  0
 10 19  1  0  0  0  0
 11 15  1  6  0  0  0
 12 16  1  0  0  0  0
 12  8  2  0  0  0  0
 13  2  2  0  0  0  0
 13 18  1  0  0  0  0
 16  5  1  0  0  0  0
 17  6  1  0  0  0  0
 17 16  2  0  0  0  0
 18 10  1  0  0  0  0
 20 19  1  1  0  0  0
 20 11  1  0  0  0  0
 21  8  1  0  0  0  0
 22 25  1  0  0  0  0
 24 21  1  0  0  0  0
 24 23  2  0  0  0  0
 25 24  1  0  0  0  0
 26 27  2  0  0  0  0
 27 29  1  0  0  0  0
 27 25  1  0  0  0  0
 29 28  1  6  0  0  0
 29 30  1  0  0  0  0
 30 31  2  0  0  0  0
M  END
>  <MODEL>
8

>  <REMARK>
 VINA RESULT:      -6.5      1.422      2.312
  Name = 
  5 active torsions:
  status: ('A' for Active; 'I' for Inactive)
    1  A    between atoms: C_1  and  C_24
    2  A    between atoms: C_9  and  C_23
    3  A    between atoms: C_15  and  C_23
    4  A    between atoms: C_19  and  N_22
    5  A    between atoms: C_19  and  C_24
                            x       y       z     vdW  Elec       q    Type
                         _______ _______ _______ _____ _____    ______ ____

>  <TORSDO>
F 5

$$$$
=
 OpenBabel11052422413D

 31 34  0  0  1  0  0  0  0  0999 V2000
  161.0160  206.8420  147.0390 C   0  0  0  0  0  0  0  0  0  0  0  0
  160.9830  204.8850  150.2370 C   0  0  0  0  0  0  0  0  0  0  0  0
  160.4230  203.5350  149.7660 C   0  0  1  0  0  3  0  0  0  0  0  0
  160.7850  201.4900  148.5350 C   0  0  0  0  0  2  0  0  0  0  0  0
  161.1520  205.9480  149.3050 C   0  0  0  0  0  0  0  0  0  0  0  0
  161.5130  208.0690  147.4800 C   0  0  0  0  0  3  0  0  0  0  0  0
  161.1430  202.9620  148.5570 C   0  0  0  0  0  2  0  0  0  0  0  0
  161.6720  206.4280  152.0230 C   0  0  0  0  0  0  0  0  0  0  0  0
  160.6840  206.6500  145.6030 C   0  0  0  0  0  1  0  0  0  0  0  0
  161.4910  202.9200  152.6840 C   0  0  0  0  0  2  0  0  0  0  0  0
  160.3230  201.1320  149.9390 C   0  0  2  0  0  3  0  0  0  0  0  0
  161.8950  207.4300  151.0860 C   0  0  0  0  0  3  0  0  0  0  0  0
  161.2080  205.1620  151.6210 C   0  0  0  0  0  0  0  0  0  0  0  0
  160.8360  205.7940  147.9430 C   0  0  0  0  0  3  0  0  0  0  0  0
  158.9860  200.7380  149.8970 O   0  0  0  0  0  1  0  0  0  0  0  0
  161.6310  207.2070  149.7410 C   0  0  0  0  0  0  0  0  0  0  0  0
  161.8170  208.2520  148.8310 C   0  0  0  0  0  3  0  0  0  0  0  0
  160.9200  204.2280  152.6230 O   0  0  0  0  0  0  0  0  0  0  0  0
  161.6980  202.3760  151.4120 O   0  0  0  0  0  0  0  0  0  0  0  0
  160.4530  202.3930  150.7730 C   0  0  1  0  0  3  0  0  0  0  0  0
  161.9600  206.7240  153.4600 C   0  0  0  0  0  2  0  0  0  0  0  0
  162.4940  209.5340  154.1800 C   0  0  0  0  0  1  0  0  0  0  0  0
  159.8280  207.1140  154.4390 O   0  0  0  0  0  0  0  0  0  0  0  0
  160.9080  207.6230  154.0320 C   0  0  0  0  0  0  0  0  0  0  0  0
  161.1210  209.0450  154.1140 N   0  0  0  0  0  0  0  0  0  0  0  0
  159.3990  210.2680  155.2830 C   0  0  0  0  0  2  0  0  0  0  0  0
  160.0190  209.9850  154.1420 C   0  0  0  0  0  0  0  0  0  0  0  0
  160.5190  211.1560  151.9960 C   0  0  0  0  0  1  0  0  0  0  0  0
  159.4350  210.5710  152.8840 C   0  0  2  0  0  3  0  0  0  0  0  0
  158.3790  211.5940  153.1660 C   0  0  0  0  0  3  0  0  0  0  0  0
  158.4530  212.8150  152.6400 C   0  0  0  0  0  2  0  0  0  0  0  0
  1  6  2  0  0  0  0
  1 14  1  0  0  0  0
  2 13  2  0  0  0  0
  3  7  1  6  0  0  0
  3  2  1  0  0  0  0
  3 20  1  0  0  0  0
  4  7  1  0  0  0  0
  4 11  1  0  0  0  0
  5 16  1  0  0  0  0
  5  2  1  0  0  0  0
  6 17  1  0  0  0  0
  8 21  1  0  0  0  0
  9  1  1  0  0  0  0
 11 15  1  6  0  0  0
 11 20  1  0  0  0  0
 12  8  2  0  0  0  0
 13  8  1  0  0  0  0
 13 18  1  0  0  0  0
 14  5  2  0  0  0  0
 16 12  1  0  0  0  0
 17 16  2  0  0  0  0
 18 10  1  0  0  0  0
 19 10  1  0  0  0  0
 20 19  1  6  0  0  0
 21 24  1  0  0  0  0
 24 25  1  0  0  0  0
 24 23  2  0  0  0  0
 25 27  1  0  0  0  0
 25 22  1  0  0  0  0
 27 26  2  0  0  0  0
 29 28  1  1  0  0  0
 29 30  1  0  0  0  0
 29 27  1  0  0  0  0
 31 30  2  0  0  0  0
M  END
>  <MODEL>
9

>  <REMARK>
 VINA RESULT:      -6.4      3.880      6.581
  Name = 
  5 active torsions:
  status: ('A' for Active; 'I' for Inactive)
    1  A    between atoms: C_1  and  C_24
    2  A    between atoms: C_9  and  C_23
    3  A    between atoms: C_15  and  C_23
    4  A    between atoms: C_19  and  N_22
    5  A    between atoms: C_19  and  C_24
                            x       y       z     vdW  Elec       q    Type
                         _______ _______ _______ _____ _____    ______ ____

>  <TORSDO>
F 5

$$$$
