=
 OpenBabel11062408283D

 32 37  0  0  1  0  0  0  0  0999 V2000
  161.3820  206.9260  151.0800 C   0  0  0  0  0  0  0  0  0  0  0  0
  161.2910  205.0010  149.5510 C   0  0  0  0  0  0  0  0  0  0  0  0
  161.3470  207.4130  152.3950 C   0  0  0  0  0  3  0  0  0  0  0  0
  161.3150  205.5320  150.8590 C   0  0  0  0  0  0  0  0  0  0  0  0
  161.1420  203.6070  149.3610 C   0  0  0  0  0  0  0  0  0  0  0  0
  160.8410  204.2100  144.5900 N   0  0  0  0  0  2  0  0  0  0  0  0
  161.4350  205.8340  148.4230 C   0  0  0  0  0  0  0  0  0  0  0  0
  161.1870  203.2480  145.6370 C   0  0  0  0  0  2  0  0  0  0  0  0
  161.1750  203.8890  146.9970 C   0  0  0  0  0  0  0  0  0  0  0  0
  161.2450  204.6530  151.9660 C   0  0  0  0  0  0  0  0  0  0  0  0
  161.0860  203.1000  148.0990 N   0  0  0  0  0  0  0  0  0  0  0  0
  161.1350  203.2760  151.7640 C   0  0  0  0  0  3  0  0  0  0  0  0
  161.2440  205.1610  153.2680 C   0  0  0  0  0  3  0  0  0  0  0  0
  161.8070  207.2820  148.6020 C   0  0  0  0  0  2  0  0  0  0  0  0
  161.2840  207.8840  149.9160 C   0  0  2  0  0  3  0  0  0  0  0  0
  161.3930  205.2740  147.1350 C   0  0  0  0  0  0  0  0  0  0  0  0
  161.0790  202.7490  150.4720 C   0  0  0  0  0  0  0  0  0  0  0  0
  161.2960  206.5390  153.4810 C   0  0  0  0  0  3  0  0  0  0  0  0
  161.7900  205.3170  144.6580 C   0  0  0  0  0  2  0  0  0  0  0  0
  161.5180  206.1460  145.9100 C   0  0  0  0  0  2  0  0  0  0  0  0
  160.9370  201.2720  150.2980 C   0  0  0  0  0  2  0  0  0  0  0  0
  159.6440  200.9700  149.8720 O   0  0  0  0  0  1  0  0  0  0  0  0
  161.8810  209.1950  150.2240 N   0  0  0  0  0  0  0  0  0  0  0  0
  161.5100  209.6080  151.5900 C   0  0  1  0  0  3  0  0  0  0  0  0
  162.7220  210.0710  152.3800 C   0  0  0  0  0  1  0  0  0  0  0  0
  160.3120  210.5750  151.6900 C   0  0  0  0  0  2  0  0  0  0  0  0
  159.7680  210.7170  153.1040 C   0  0  0  0  0  1  0  0  0  0  0  0
  161.5660  210.1950  149.1960 C   0  0  0  0  0  2  0  0  0  0  0  0
  162.7130  211.1800  149.0540 C   0  0  0  0  0  2  0  0  0  0  0  0
  162.9820  212.9370  147.3660 C   0  0  0  0  0  2  0  0  0  0  0  0
  161.7200  212.3340  147.2290 O   0  0  0  0  0  0  0  0  0  0  0  0
  162.1960  212.5090  148.5420 C   0  0  1  0  0  3  0  0  0  0  0  0
  1  3  1  0  0  0  0
  2  4  1  0  0  0  0
  3 18  2  0  0  0  0
  4  1  2  0  0  0  0
  4 10  1  0  0  0  0
  5  2  1  0  0  0  0
  5 17  1  0  0  0  0
  6 19  1  0  0  0  0
  6  8  1  0  0  0  0
  7 14  1  0  0  0  0
  7  2  2  0  0  0  0
  8  9  1  0  0  0  0
  9 16  2  0  0  0  0
  9 11  1  0  0  0  0
 10 13  2  0  0  0  0
 11  5  2  0  0  0  0
 12 10  1  0  0  0  0
 13 18  1  0  0  0  0
 14 15  1  0  0  0  0
 15 23  1  1  0  0  0
 15  1  1  0  0  0  0
 16  7  1  0  0  0  0
 17 12  2  0  0  0  0
 19 20  1  0  0  0  0
 20 16  1  0  0  0  0
 21 17  1  0  0  0  0
 22 21  1  0  0  0  0
 23 24  1  0  0  0  0
 24 26  1  0  0  0  0
 24 25  1  6  0  0  0
 26 27  1  0  0  0  0
 28 23  1  0  0  0  0
 29 28  1  0  0  0  0
 30 32  1  0  0  0  0
 31 30  1  0  0  0  0
 31 32  1  0  0  0  0
 32 29  1  6  0  0  0
M  END
>  <MODEL>
1

>  <REMARK>
 VINA RESULT:      -9.0      0.000      0.000
  Name = 
  7 active torsions:
  status: ('A' for Active; 'I' for Inactive)
    1  A    between atoms: C_3  and  C_22
    2  A    between atoms: C_13  and  C_29
    3  A    between atoms: C_15  and  C_20
    4  A    between atoms: C_15  and  C_26
    5  A    between atoms: N_16  and  C_20
    6  A    between atoms: N_16  and  C_22
    7  A    between atoms: N_16  and  C_27
                            x       y       z     vdW  Elec       q    Type
                         _______ _______ _______ _____ _____    ______ ____

>  <TORSDO>
F 7

$$$$
=
 OpenBabel11062408283D

 32 37  0  0  1  0  0  0  0  0999 V2000
  161.6970  208.7640  151.2120 C   0  0  0  0  0  0  0  0  0  0  0  0
  161.4410  206.6570  149.9700 C   0  0  0  0  0  0  0  0  0  0  0  0
  161.9500  210.1440  151.1900 C   0  0  0  0  0  3  0  0  0  0  0  0
  161.6380  208.0550  149.9920 C   0  0  0  0  0  0  0  0  0  0  0  0
  161.4680  205.9630  148.7370 C   0  0  0  0  0  0  0  0  0  0  0  0
  161.1350  201.7330  151.0210 N   0  0  0  0  0  2  0  0  0  0  0  0
  161.1980  205.9360  151.1560 C   0  0  0  0  0  0  0  0  0  0  0  0
  160.8760  202.4100  149.7500 C   0  0  0  0  0  2  0  0  0  0  0  0
  161.1220  203.8900  149.8550 C   0  0  0  0  0  0  0  0  0  0  0  0
  161.8030  208.7510  148.7710 C   0  0  0  0  0  0  0  0  0  0  0  0
  161.3120  204.6110  148.7200 N   0  0  0  0  0  0  0  0  0  0  0  0
  161.7900  208.0590  147.5590 C   0  0  0  0  0  3  0  0  0  0  0  0
  162.0220  210.1320  148.7730 C   0  0  0  0  0  3  0  0  0  0  0  0
  160.9530  206.6730  152.4460 C   0  0  0  0  0  2  0  0  0  0  0  0
  161.6950  208.0180  152.5250 C   0  0  2  0  0  3  0  0  0  0  0  0
  161.0200  204.5430  151.0990 C   0  0  0  0  0  0  0  0  0  0  0  0
  161.6280  206.6720  147.5350 C   0  0  0  0  0  0  0  0  0  0  0  0
  162.0930  210.8270  149.9820 C   0  0  0  0  0  3  0  0  0  0  0  0
  160.2830  202.3370  152.0400 C   0  0  0  0  0  2  0  0  0  0  0  0
  160.7830  203.7440  152.3570 C   0  0  0  0  0  2  0  0  0  0  0  0
  161.6440  205.9640  146.2190 C   0  0  0  0  0  2  0  0  0  0  0  0
  160.4920  206.2810  145.5000 O   0  0  0  0  0  1  0  0  0  0  0  0
  161.2370  208.8600  153.6430 N   0  0  0  0  0  0  0  0  0  0  0  0
  161.3670  208.1240  154.9140 C   0  0  1  0  0  3  0  0  0  0  0  0
  161.9650  208.9950  156.0040 C   0  0  0  0  0  1  0  0  0  0  0  0
  160.1070  207.3570  155.3690 C   0  0  0  0  0  2  0  0  0  0  0  0
  160.0780  207.0820  156.8660 C   0  0  0  0  0  1  0  0  0  0  0  0
  159.8930  209.4020  153.4060 C   0  0  0  0  0  2  0  0  0  0  0  0
  159.8110  210.8370  153.8960 C   0  0  0  0  0  2  0  0  0  0  0  0
  158.9150  213.0660  153.4090 C   0  0  0  0  0  2  0  0  0  0  0  0
  159.8560  212.7050  152.4290 O   0  0  0  0  0  0  0  0  0  0  0  0
  159.0250  211.6780  152.9120 C   0  0  1  0  0  3  0  0  0  0  0  0
  1 15  1  0  0  0  0
  2  4  1  0  0  0  0
  2  7  1  0  0  0  0
  3  1  1  0  0  0  0
  4  1  2  0  0  0  0
  5  2  2  0  0  0  0
  6 19  1  0  0  0  0
  7 14  1  0  0  0  0
  8  9  1  0  0  0  0
  8  6  1  0  0  0  0
  9 16  1  0  0  0  0
 10 13  2  0  0  0  0
 10  4  1  0  0  0  0
 11  5  1  0  0  0  0
 11  9  2  0  0  0  0
 12 10  1  0  0  0  0
 13 18  1  0  0  0  0
 14 15  1  0  0  0  0
 15 23  1  1  0  0  0
 16  7  2  0  0  0  0
 16 20  1  0  0  0  0
 17 12  2  0  0  0  0
 17  5  1  0  0  0  0
 18  3  2  0  0  0  0
 19 20  1  0  0  0  0
 21 17  1  0  0  0  0
 22 21  1  0  0  0  0
 23 24  1  0  0  0  0
 24 26  1  0  0  0  0
 24 25  1  1  0  0  0
 26 27  1  0  0  0  0
 28 23  1  0  0  0  0
 28 29  1  0  0  0  0
 31 32  1  0  0  0  0
 31 30  1  0  0  0  0
 32 30  1  0  0  0  0
 32 29  1  1  0  0  0
M  END
>  <MODEL>
2

>  <REMARK>
 VINA RESULT:      -8.9      2.276      4.939
  Name = 
  7 active torsions:
  status: ('A' for Active; 'I' for Inactive)
    1  A    between atoms: C_3  and  C_22
    2  A    between atoms: C_13  and  C_29
    3  A    between atoms: C_15  and  C_20
    4  A    between atoms: C_15  and  C_26
    5  A    between atoms: N_16  and  C_20
    6  A    between atoms: N_16  and  C_22
    7  A    between atoms: N_16  and  C_27
                            x       y       z     vdW  Elec       q    Type
                         _______ _______ _______ _____ _____    ______ ____

>  <TORSDO>
F 7

$$$$
=
 OpenBabel11062408283D

 32 37  0  0  1  0  0  0  0  0999 V2000
  161.7760  206.3740  150.7360 C   0  0  0  0  0  0  0  0  0  0  0  0
  161.3950  208.7690  151.1460 C   0  0  0  0  0  0  0  0  0  0  0  0
  161.8570  205.0700  151.2460 C   0  0  0  0  0  3  0  0  0  0  0  0
  161.4340  207.4340  151.6050 C   0  0  0  0  0  0  0  0  0  0  0  0
  161.1300  209.8180  152.0580 C   0  0  0  0  0  0  0  0  0  0  0  0
  161.9590  213.1090  148.6380 N   0  0  0  0  0  2  0  0  0  0  0  0
  161.5960  209.0800  149.7860 C   0  0  0  0  0  0  0  0  0  0  0  0
  161.2600  212.8720  149.9020 C   0  0  0  0  0  2  0  0  0  0  0  0
  161.3620  211.4330  150.3250 C   0  0  0  0  0  0  0  0  0  0  0  0
  161.1510  207.1590  152.9640 C   0  0  0  0  0  0  0  0  0  0  0  0
  161.1260  211.1070  151.6220 N   0  0  0  0  0  0  0  0  0  0  0  0
  160.8550  208.2000  153.8450 C   0  0  0  0  0  3  0  0  0  0  0  0
  161.2070  205.8470  153.4410 C   0  0  0  0  0  3  0  0  0  0  0  0
  161.6670  207.9740  148.7670 C   0  0  0  0  0  2  0  0  0  0  0  0
  162.2460  206.6660  149.3300 C   0  0  2  0  0  3  0  0  0  0  0  0
  161.5640  210.4200  149.3670 C   0  0  0  0  0  0  0  0  0  0  0  0
  160.8460  209.5250  153.4030 C   0  0  0  0  0  0  0  0  0  0  0  0
  161.5580  204.8040  152.5820 C   0  0  0  0  0  3  0  0  0  0  0  0
  161.3870  212.2220  147.6290 C   0  0  0  0  0  2  0  0  0  0  0  0
  161.8010  210.7820  147.9210 C   0  0  0  0  0  2  0  0  0  0  0  0
  160.5470  210.6130  154.3830 C   0  0  0  0  0  2  0  0  0  0  0  0
  161.7110  210.9640  155.0670 O   0  0  0  0  0  1  0  0  0  0  0  0
  162.0520  205.5170  148.4290 N   0  0  0  0  0  0  0  0  0  0  0  0
  162.0790  205.9690  147.0260 C   0  0  1  0  0  3  0  0  0  0  0  0
  162.9830  205.0950  146.1760 C   0  0  0  0  0  1  0  0  0  0  0  0
  160.6990  206.2240  146.3830 C   0  0  0  0  0  2  0  0  0  0  0  0
  160.5990  205.7200  144.9510 C   0  0  0  0  0  1  0  0  0  0  0  0
  160.8560  204.7420  148.7800 C   0  0  0  0  0  2  0  0  0  0  0  0
  161.0590  203.2780  148.4330 C   0  0  0  0  0  2  0  0  0  0  0  0
  160.7470  201.0120  149.3140 C   0  0  0  0  0  2  0  0  0  0  0  0
  161.1220  201.8800  150.3540 O   0  0  0  0  0  0  0  0  0  0  0  0
  160.2570  202.4040  149.3760 C   0  0  1  0  0  3  0  0  0  0  0  0
  1  3  2  0  0  0  0
  1  4  1  0  0  0  0
  2  4  2  0  0  0  0
  2  5  1  0  0  0  0
  3 18  1  0  0  0  0
  4 10  1  0  0  0  0
  5 17  2  0  0  0  0
  6  8  1  0  0  0  0
  7  2  1  0  0  0  0
  8  9  1  0  0  0  0
  9 11  2  0  0  0  0
 10 13  1  0  0  0  0
 10 12  2  0  0  0  0
 11  5  1  0  0  0  0
 14 15  1  0  0  0  0
 14  7  1  0  0  0  0
 15 23  1  6  0  0  0
 15  1  1  0  0  0  0
 16  7  2  0  0  0  0
 16  9  1  0  0  0  0
 17 12  1  0  0  0  0
 17 21  1  0  0  0  0
 18 13  2  0  0  0  0
 19 20  1  0  0  0  0
 19  6  1  0  0  0  0
 20 16  1  0  0  0  0
 21 22  1  0  0  0  0
 23 28  1  0  0  0  0
 24 25  1  6  0  0  0
 24 23  1  0  0  0  0
 26 24  1  0  0  0  0
 27 26  1  0  0  0  0
 29 28  1  0  0  0  0
 30 32  1  0  0  0  0
 30 31  1  0  0  0  0
 32 29  1  6  0  0  0
 32 31  1  0  0  0  0
M  END
>  <MODEL>
3

>  <REMARK>
 VINA RESULT:      -8.3      2.083      7.100
  Name = 
  7 active torsions:
  status: ('A' for Active; 'I' for Inactive)
    1  A    between atoms: C_3  and  C_22
    2  A    between atoms: C_13  and  C_29
    3  A    between atoms: C_15  and  C_20
    4  A    between atoms: C_15  and  C_26
    5  A    between atoms: N_16  and  C_20
    6  A    between atoms: N_16  and  C_22
    7  A    between atoms: N_16  and  C_27
                            x       y       z     vdW  Elec       q    Type
                         _______ _______ _______ _____ _____    ______ ____

>  <TORSDO>
F 7

$$$$
=
 OpenBabel11062408283D

 32 37  0  0  1  0  0  0  0  0999 V2000
  161.6010  204.3340  149.9520 C   0  0  0  0  0  0  0  0  0  0  0  0
  161.4510  206.5640  150.9800 C   0  0  0  0  0  0  0  0  0  0  0  0
  161.5480  202.9400  150.1020 C   0  0  0  0  0  3  0  0  0  0  0  0
  161.3530  205.1580  151.0730 C   0  0  0  0  0  0  0  0  0  0  0  0
  161.2770  207.3580  152.1380 C   0  0  0  0  0  0  0  0  0  0  0  0
  162.4690  211.3320  149.6880 N   0  0  0  0  0  2  0  0  0  0  0  0
  161.6990  207.1980  149.7460 C   0  0  0  0  0  0  0  0  0  0  0  0
  161.7340  210.8420  150.8550 C   0  0  0  0  0  2  0  0  0  0  0  0
  161.6890  209.3390  150.8860 C   0  0  0  0  0  0  0  0  0  0  0  0
  161.0270  204.5660  152.3160 C   0  0  0  0  0  0  0  0  0  0  0  0
  161.4040  208.7100  152.0550 N   0  0  0  0  0  0  0  0  0  0  0  0
  160.8210  205.3640  153.4430 C   0  0  0  0  0  3  0  0  0  0  0  0
  160.9480  203.1750  152.4330 C   0  0  0  0  0  3  0  0  0  0  0  0
  161.6760  206.3960  148.4720 C   0  0  0  0  0  2  0  0  0  0  0  0
  162.1170  204.9360  148.6670 C   0  0  2  0  0  3  0  0  0  0  0  0
  161.8040  208.5980  149.6930 C   0  0  0  0  0  0  0  0  0  0  0  0
  160.9480  206.7520  153.3630 C   0  0  0  0  0  0  0  0  0  0  0  0
  161.2070  202.3640  151.3260 C   0  0  0  0  0  3  0  0  0  0  0  0
  161.8270  210.8000  148.4900 C   0  0  0  0  0  2  0  0  0  0  0  0
  162.0940  209.3010  148.3890 C   0  0  0  0  0  2  0  0  0  0  0  0
  160.7440  207.5700  154.5970 C   0  0  0  0  0  2  0  0  0  0  0  0
  160.2200  206.7680  155.6110 O   0  0  0  0  0  1  0  0  0  0  0  0
  161.8240  204.0880  147.4980 N   0  0  0  0  0  0  0  0  0  0  0  0
  162.0770  204.8390  146.2550 C   0  0  1  0  0  3  0  0  0  0  0  0
  163.4210  204.4750  145.6490 C   0  0  0  0  0  1  0  0  0  0  0  0
  160.9250  204.8350  145.2290 C   0  0  0  0  0  2  0  0  0  0  0  0
  160.1870  206.1640  145.1470 C   0  0  0  0  0  1  0  0  0  0  0  0
  160.4800  203.5000  147.5720 C   0  0  0  0  0  2  0  0  0  0  0  0
  160.5520  201.9990  147.3510 C   0  0  0  0  0  2  0  0  0  0  0  0
  160.3730  200.3810  145.5190 C   0  0  0  0  0  2  0  0  0  0  0  0
  159.7170  201.5740  145.1670 O   0  0  0  0  0  0  0  0  0  0  0  0
  160.9070  201.7030  145.9090 C   0  0  1  0  0  3  0  0  0  0  0  0
  1  3  2  0  0  0  0
  1  4  1  0  0  0  0
  2  4  2  0  0  0  0
  2  5  1  0  0  0  0
  3 18  1  0  0  0  0
  4 10  1  0  0  0  0
  5 17  2  0  0  0  0
  6  8  1  0  0  0  0
  7  2  1  0  0  0  0
  8  9  1  0  0  0  0
  9 11  2  0  0  0  0
 10 13  1  0  0  0  0
 10 12  2  0  0  0  0
 11  5  1  0  0  0  0
 14 15  1  0  0  0  0
 14  7  1  0  0  0  0
 15 23  1  6  0  0  0
 15  1  1  0  0  0  0
 16  7  2  0  0  0  0
 16  9  1  0  0  0  0
 17 12  1  0  0  0  0
 17 21  1  0  0  0  0
 18 13  2  0  0  0  0
 19  6  1  0  0  0  0
 20 19  1  0  0  0  0
 20 16  1  0  0  0  0
 21 22  1  0  0  0  0
 23 28  1  0  0  0  0
 24 25  1  6  0  0  0
 24 23  1  0  0  0  0
 26 24  1  0  0  0  0
 27 26  1  0  0  0  0
 29 28  1  0  0  0  0
 30 32  1  0  0  0  0
 31 30  1  0  0  0  0
 31 32  1  0  0  0  0
 32 29  1  1  0  0  0
M  END
>  <MODEL>
4

>  <REMARK>
 VINA RESULT:      -8.2      2.411      6.787
  Name = 
  7 active torsions:
  status: ('A' for Active; 'I' for Inactive)
    1  A    between atoms: C_3  and  C_22
    2  A    between atoms: C_13  and  C_29
    3  A    between atoms: C_15  and  C_20
    4  A    between atoms: C_15  and  C_26
    5  A    between atoms: N_16  and  C_20
    6  A    between atoms: N_16  and  C_22
    7  A    between atoms: N_16  and  C_27
                            x       y       z     vdW  Elec       q    Type
                         _______ _______ _______ _____ _____    ______ ____

>  <TORSDO>
F 7

$$$$
=
 OpenBabel11062408283D

 32 37  0  0  1  0  0  0  0  0999 V2000
  160.0120  209.2310  154.8240 C   0  0  0  0  0  0  0  0  0  0  0  0
  161.0370  208.6830  152.6560 C   0  0  0  0  0  0  0  0  0  0  0  0
  159.5660  208.7970  156.0820 C   0  0  0  0  0  3  0  0  0  0  0  0
  160.6240  208.3030  153.9520 C   0  0  0  0  0  0  0  0  0  0  0  0
  161.5720  207.7130  151.7770 C   0  0  0  0  0  0  0  0  0  0  0  0
  161.7270  210.9320  148.1950 N   0  0  0  0  0  2  0  0  0  0  0  0
  160.9450  210.0220  152.2250 C   0  0  0  0  0  0  0  0  0  0  0  0
  162.3180  209.6880  148.6880 C   0  0  0  0  0  2  0  0  0  0  0  0
  161.8170  209.3480  150.0640 C   0  0  0  0  0  0  0  0  0  0  0  0
  160.8040  206.9640  154.3730 C   0  0  0  0  0  0  0  0  0  0  0  0
  161.9390  208.0740  150.5170 N   0  0  0  0  0  0  0  0  0  0  0  0
  161.3680  206.0250  153.5070 C   0  0  0  0  0  3  0  0  0  0  0  0
  160.3810  206.5630  155.6430 C   0  0  0  0  0  3  0  0  0  0  0  0
  160.5820  211.1030  153.2070 C   0  0  0  0  0  2  0  0  0  0  0  0
  159.6560  210.6140  154.3330 C   0  0  2  0  0  3  0  0  0  0  0  0
  161.3530  210.3620  150.9250 C   0  0  0  0  0  0  0  0  0  0  0  0
  161.7490  206.3890  152.2140 C   0  0  0  0  0  0  0  0  0  0  0  0
  159.7640  207.4800  156.4970 C   0  0  0  0  0  3  0  0  0  0  0  0
  162.0410  211.9930  149.1460 C   0  0  0  0  0  2  0  0  0  0  0  0
  161.2410  211.7840  150.4290 C   0  0  0  0  0  2  0  0  0  0  0  0
  162.3260  205.3490  151.3100 C   0  0  0  0  0  2  0  0  0  0  0  0
  161.7670  204.1060  151.6040 O   0  0  0  0  0  1  0  0  0  0  0  0
  159.5350  211.5820  155.4370 N   0  0  0  0  0  0  0  0  0  0  0  0
  158.4560  212.5440  155.1450 C   0  0  1  0  0  3  0  0  0  0  0  0
  158.9530  213.6930  154.2850 C   0  0  0  0  0  1  0  0  0  0  0  0
  157.1360  211.9290  154.6350 C   0  0  0  0  0  2  0  0  0  0  0  0
  156.3200  211.2610  155.7320 C   0  0  0  0  0  1  0  0  0  0  0  0
  160.8210  212.2120  155.7570 C   0  0  0  0  0  2  0  0  0  0  0  0
  161.2640  211.8210  157.1560 C   0  0  0  0  0  2  0  0  0  0  0  0
  162.8700  209.9710  157.2530 C   0  0  0  0  0  2  0  0  0  0  0  0
  162.9840  210.6380  156.0210 O   0  0  0  0  0  0  0  0  0  0  0  0
  162.7300  211.4390  157.1490 C   0  0  1  0  0  3  0  0  0  0  0  0
  1  3  1  0  0  0  0
  2  4  1  0  0  0  0
  3 18  2  0  0  0  0
  4 10  1  0  0  0  0
  4  1  2  0  0  0  0
  5 17  1  0  0  0  0
  5  2  2  0  0  0  0
  6  8  1  0  0  0  0
  6 19  1  0  0  0  0
  7  2  1  0  0  0  0
  7 14  1  0  0  0  0
  8  9  1  0  0  0  0
  9 11  2  0  0  0  0
  9 16  1  0  0  0  0
 10 13  2  0  0  0  0
 11  5  1  0  0  0  0
 12 10  1  0  0  0  0
 13 18  1  0  0  0  0
 14 15  1  0  0  0  0
 15  1  1  0  0  0  0
 15 23  1  1  0  0  0
 16  7  2  0  0  0  0
 17 12  2  0  0  0  0
 19 20  1  0  0  0  0
 20 16  1  0  0  0  0
 21 22  1  0  0  0  0
 21 17  1  0  0  0  0
 23 28  1  0  0  0  0
 24 25  1  6  0  0  0
 24 23  1  0  0  0  0
 26 24  1  0  0  0  0
 26 27  1  0  0  0  0
 28 29  1  0  0  0  0
 31 32  1  0  0  0  0
 31 30  1  0  0  0  0
 32 29  1  6  0  0  0
 32 30  1  0  0  0  0
M  END
>  <MODEL>
5

>  <REMARK>
 VINA RESULT:      -7.7      3.547      6.015
  Name = 
  7 active torsions:
  status: ('A' for Active; 'I' for Inactive)
    1  A    between atoms: C_3  and  C_22
    2  A    between atoms: C_13  and  C_29
    3  A    between atoms: C_15  and  C_20
    4  A    between atoms: C_15  and  C_26
    5  A    between atoms: N_16  and  C_20
    6  A    between atoms: N_16  and  C_22
    7  A    between atoms: N_16  and  C_27
                            x       y       z     vdW  Elec       q    Type
                         _______ _______ _______ _____ _____    ______ ____

>  <TORSDO>
F 7

$$$$
=
 OpenBabel11062408283D

 32 37  0  0  1  0  0  0  0  0999 V2000
  161.0390  204.5260  149.4760 C   0  0  0  0  0  0  0  0  0  0  0  0
  161.3760  206.6070  150.7430 C   0  0  0  0  0  0  0  0  0  0  0  0
  160.8460  203.1360  149.4840 C   0  0  0  0  0  3  0  0  0  0  0  0
  161.1270  205.2170  150.7040 C   0  0  0  0  0  0  0  0  0  0  0  0
  161.5390  207.2570  151.9890 C   0  0  0  0  0  0  0  0  0  0  0  0
  162.6900  211.3790  149.7770 N   0  0  0  0  0  2  0  0  0  0  0  0
  161.4450  207.3690  149.5590 C   0  0  0  0  0  0  0  0  0  0  0  0
  162.1520  210.8170  151.0160 C   0  0  0  0  0  2  0  0  0  0  0  0
  161.9290  209.3340  150.8950 C   0  0  0  0  0  0  0  0  0  0  0  0
  160.9890  204.5030  151.9180 C   0  0  0  0  0  0  0  0  0  0  0  0
  161.8120  208.5900  152.0240 N   0  0  0  0  0  0  0  0  0  0  0  0
  161.1150  205.1640  153.1410 C   0  0  0  0  0  3  0  0  0  0  0  0
  160.7640  203.1240  151.9010 C   0  0  0  0  0  3  0  0  0  0  0  0
  161.0650  206.7450  148.2430 C   0  0  0  0  0  2  0  0  0  0  0  0
  161.3540  205.2360  148.1810 C   0  0  2  0  0  3  0  0  0  0  0  0
  161.7080  208.7460  149.6350 C   0  0  0  0  0  0  0  0  0  0  0  0
  161.3930  206.5320  153.1840 C   0  0  0  0  0  0  0  0  0  0  0  0
  160.6920  202.4420  150.6840 C   0  0  0  0  0  3  0  0  0  0  0  0
  161.7580  211.0730  148.6960 C   0  0  0  0  0  2  0  0  0  0  0  0
  161.8130  209.5810  148.3810 C   0  0  0  0  0  2  0  0  0  0  0  0
  161.5450  207.1980  154.5130 C   0  0  0  0  0  2  0  0  0  0  0  0
  160.3900  207.0080  155.2700 O   0  0  0  0  0  1  0  0  0  0  0  0
  160.7280  204.5800  147.0200 N   0  0  0  0  0  0  0  0  0  0  0  0
  161.7050  203.7010  146.3520 C   0  0  1  0  0  3  0  0  0  0  0  0
  163.1320  204.1260  146.6510 C   0  0  0  0  0  1  0  0  0  0  0  0
  161.4700  202.1860  146.5340 C   0  0  0  0  0  2  0  0  0  0  0  0
  160.4470  201.6140  145.5630 C   0  0  0  0  0  1  0  0  0  0  0  0
  160.0910  205.5500  146.1200 C   0  0  0  0  0  2  0  0  0  0  0  0
  160.3290  205.1580  144.6720 C   0  0  0  0  0  2  0  0  0  0  0  0
  162.4150  205.5150  143.4350 C   0  0  0  0  0  2  0  0  0  0  0  0
  161.3170  205.8640  142.6300 O   0  0  0  0  0  0  0  0  0  0  0  0
  161.2210  206.1800  143.9970 C   0  0  1  0  0  3  0  0  0  0  0  0
  1  3  2  0  0  0  0
  1  4  1  0  0  0  0
  2  5  1  0  0  0  0
  3 18  1  0  0  0  0
  4  2  2  0  0  0  0
  4 10  1  0  0  0  0
  5 11  1  0  0  0  0
  5 17  2  0  0  0  0
  6  8  1  0  0  0  0
  7 16  2  0  0  0  0
  7  2  1  0  0  0  0
  9  8  1  0  0  0  0
  9 11  2  0  0  0  0
 10 12  2  0  0  0  0
 12 17  1  0  0  0  0
 13 10  1  0  0  0  0
 14  7  1  0  0  0  0
 15 23  1  6  0  0  0
 15 14  1  0  0  0  0
 15  1  1  0  0  0  0
 16  9  1  0  0  0  0
 17 21  1  0  0  0  0
 18 13  2  0  0  0  0
 19  6  1  0  0  0  0
 20 19  1  0  0  0  0
 20 16  1  0  0  0  0
 21 22  1  0  0  0  0
 24 26  1  0  0  0  0
 24 25  1  1  0  0  0
 24 23  1  0  0  0  0
 27 26  1  0  0  0  0
 28 23  1  0  0  0  0
 29 28  1  0  0  0  0
 30 32  1  0  0  0  0
 31 30  1  0  0  0  0
 31 32  1  0  0  0  0
 32 29  1  1  0  0  0
M  END
>  <MODEL>
6

>  <REMARK>
 VINA RESULT:      -7.6      2.392      6.352
  Name = 
  7 active torsions:
  status: ('A' for Active; 'I' for Inactive)
    1  A    between atoms: C_3  and  C_22
    2  A    between atoms: C_13  and  C_29
    3  A    between atoms: C_15  and  C_20
    4  A    between atoms: C_15  and  C_26
    5  A    between atoms: N_16  and  C_20
    6  A    between atoms: N_16  and  C_22
    7  A    between atoms: N_16  and  C_27
                            x       y       z     vdW  Elec       q    Type
                         _______ _______ _______ _____ _____    ______ ____

>  <TORSDO>
F 7

$$$$
=
 OpenBabel11062408283D

 32 37  0  0  1  0  0  0  0  0999 V2000
  161.6480  208.9370  151.1170 C   0  0  0  0  0  0  0  0  0  0  0  0
  161.4840  206.7800  149.9460 C   0  0  0  0  0  0  0  0  0  0  0  0
  161.8820  210.3190  151.0540 C   0  0  0  0  0  3  0  0  0  0  0  0
  161.6600  208.1810  149.9230 C   0  0  0  0  0  0  0  0  0  0  0  0
  161.5820  206.0400  148.7440 C   0  0  0  0  0  0  0  0  0  0  0  0
  161.1910  201.8960  151.1710 N   0  0  0  0  0  2  0  0  0  0  0  0
  161.1900  206.1010  151.1460 C   0  0  0  0  0  0  0  0  0  0  0  0
  160.9880  202.5200  149.8630 C   0  0  0  0  0  2  0  0  0  0  0  0
  161.2080  204.0070  149.9230 C   0  0  0  0  0  0  0  0  0  0  0  0
  161.8780  208.8330  148.6860 C   0  0  0  0  0  0  0  0  0  0  0  0
  161.4460  204.6870  148.7720 N   0  0  0  0  0  0  0  0  0  0  0  0
  161.9360  208.0950  147.5030 C   0  0  0  0  0  3  0  0  0  0  0  0
  162.0770  210.2160  148.6460 C   0  0  0  0  0  3  0  0  0  0  0  0
  160.8710  206.8840  152.3910 C   0  0  0  0  0  2  0  0  0  0  0  0
  161.5890  208.2410  152.4560 C   0  0  2  0  0  3  0  0  0  0  0  0
  161.0340  204.7050  151.1330 C   0  0  0  0  0  0  0  0  0  0  0  0
  161.7940  206.7060  147.5240 C   0  0  0  0  0  0  0  0  0  0  0  0
  162.0780  210.9580  149.8290 C   0  0  0  0  0  3  0  0  0  0  0  0
  160.2800  202.5250  152.1220 C   0  0  0  0  0  2  0  0  0  0  0  0
  160.7440  203.9510  152.4080 C   0  0  0  0  0  2  0  0  0  0  0  0
  161.8860  205.9490  146.2390 C   0  0  0  0  0  2  0  0  0  0  0  0
  160.6960  206.0870  145.5250 O   0  0  0  0  0  1  0  0  0  0  0  0
  161.0640  209.1190  153.5160 N   0  0  0  0  0  0  0  0  0  0  0  0
  161.0590  208.4020  154.8050 C   0  0  1  0  0  3  0  0  0  0  0  0
  161.5750  206.9820  154.6550 C   0  0  0  0  0  1  0  0  0  0  0  0
  161.6970  209.1600  155.9880 C   0  0  0  0  0  2  0  0  0  0  0  0
  162.5700  210.3280  155.5560 C   0  0  0  0  0  1  0  0  0  0  0  0
  159.7630  209.6970  153.1540 C   0  0  0  0  0  2  0  0  0  0  0  0
  159.5780  211.0410  153.8360 C   0  0  0  0  0  2  0  0  0  0  0  0
  158.7530  213.1680  152.9400 C   0  0  0  0  0  2  0  0  0  0  0  0
  158.7210  212.1840  151.9370 O   0  0  0  0  0  0  0  0  0  0  0  0
  158.3900  211.7670  153.2400 C   0  0  1  0  0  3  0  0  0  0  0  0
  1 15  1  0  0  0  0
  2  7  1  0  0  0  0
  3  1  1  0  0  0  0
  4  2  1  0  0  0  0
  4  1  2  0  0  0  0
  5 11  1  0  0  0  0
  5  2  2  0  0  0  0
  6 19  1  0  0  0  0
  7 14  1  0  0  0  0
  8  9  1  0  0  0  0
  8  6  1  0  0  0  0
  9 16  1  0  0  0  0
 10  4  1  0  0  0  0
 11  9  2  0  0  0  0
 12 17  2  0  0  0  0
 12 10  1  0  0  0  0
 13 10  2  0  0  0  0
 13 18  1  0  0  0  0
 14 15  1  0  0  0  0
 15 23  1  1  0  0  0
 16  7  2  0  0  0  0
 16 20  1  0  0  0  0
 17  5  1  0  0  0  0
 18  3  2  0  0  0  0
 19 20  1  0  0  0  0
 21 17  1  0  0  0  0
 22 21  1  0  0  0  0
 23 24  1  0  0  0  0
 24 25  1  6  0  0  0
 24 26  1  0  0  0  0
 27 26  1  0  0  0  0
 28 23  1  0  0  0  0
 28 29  1  0  0  0  0
 30 32  1  0  0  0  0
 31 30  1  0  0  0  0
 31 32  1  0  0  0  0
 32 29  1  1  0  0  0
M  END
>  <MODEL>
7

>  <REMARK>
 VINA RESULT:      -7.4      2.261      4.931
  Name = 
  7 active torsions:
  status: ('A' for Active; 'I' for Inactive)
    1  A    between atoms: C_3  and  C_22
    2  A    between atoms: C_13  and  C_29
    3  A    between atoms: C_15  and  C_20
    4  A    between atoms: C_15  and  C_26
    5  A    between atoms: N_16  and  C_20
    6  A    between atoms: N_16  and  C_22
    7  A    between atoms: N_16  and  C_27
                            x       y       z     vdW  Elec       q    Type
                         _______ _______ _______ _____ _____    ______ ____

>  <TORSDO>
F 7

$$$$
=
 OpenBabel11062408283D

 32 37  0  0  1  0  0  0  0  0999 V2000
  161.8960  209.0700  149.2570 C   0  0  0  0  0  0  0  0  0  0  0  0
  161.3450  208.3920  151.5570 C   0  0  0  0  0  0  0  0  0  0  0  0
  162.2290  208.6970  147.9460 C   0  0  0  0  0  3  0  0  0  0  0  0
  161.6300  208.0640  150.2130 C   0  0  0  0  0  0  0  0  0  0  0  0
  161.1640  207.3610  152.5080 C   0  0  0  0  0  0  0  0  0  0  0  0
  160.8760  210.5920  156.0710 N   0  0  0  0  0  2  0  0  0  0  0  0
  161.2180  209.7340  151.9690 C   0  0  0  0  0  0  0  0  0  0  0  0
  160.4920  209.2370  155.6750 C   0  0  0  0  0  2  0  0  0  0  0  0
  160.8420  208.9640  154.2380 C   0  0  0  0  0  0  0  0  0  0  0  0
  161.6740  206.7040  149.8250 C   0  0  0  0  0  0  0  0  0  0  0  0
  160.9230  207.6780  153.8100 N   0  0  0  0  0  0  0  0  0  0  0  0
  161.4560  205.6970  150.7670 C   0  0  0  0  0  3  0  0  0  0  0  0
  161.9760  206.3590  148.5050 C   0  0  0  0  0  3  0  0  0  0  0  0
  161.1950  210.8350  150.9420 C   0  0  0  0  0  2  0  0  0  0  0  0
  162.0230  210.5120  149.6880 C   0  0  2  0  0  3  0  0  0  0  0  0
  160.9480  210.0240  153.3160 C   0  0  0  0  0  0  0  0  0  0  0  0
  161.2060  206.0160  152.1040 C   0  0  0  0  0  0  0  0  0  0  0  0
  162.2520  207.3550  147.5670 C   0  0  0  0  0  3  0  0  0  0  0  0
  160.2070  211.5340  155.1790 C   0  0  0  0  0  2  0  0  0  0  0  0
  160.8320  211.4530  153.7890 C   0  0  0  0  0  2  0  0  0  0  0  0
  161.0020  204.9090  153.0860 C   0  0  0  0  0  2  0  0  0  0  0  0
  160.8310  203.7020  152.4070 O   0  0  0  0  0  1  0  0  0  0  0  0
  161.7720  211.4480  148.5780 N   0  0  0  0  0  0  0  0  0  0  0  0
  162.8890  212.4040  148.4640 C   0  0  1  0  0  3  0  0  0  0  0  0
  163.9310  211.9260  147.4690 C   0  0  0  0  0  1  0  0  0  0  0  0
  162.4830  213.8790  148.2610 C   0  0  0  0  0  2  0  0  0  0  0  0
  162.7060  214.3740  146.8390 C   0  0  0  0  0  1  0  0  0  0  0  0
  160.4540  212.0860  148.6870 C   0  0  0  0  0  2  0  0  0  0  0  0
  159.8120  212.2030  147.3160 C   0  0  0  0  0  2  0  0  0  0  0  0
  157.5170  212.8440  146.7430 C   0  0  0  0  0  2  0  0  0  0  0  0
  157.7100  212.9530  148.1310 O   0  0  0  0  0  0  0  0  0  0  0  0
  158.7930  213.3240  147.3130 C   0  0  1  0  0  3  0  0  0  0  0  0
  1 15  1  0  0  0  0
  1  4  1  0  0  0  0
  2  7  2  0  0  0  0
  2  5  1  0  0  0  0
  3  1  2  0  0  0  0
  4  2  1  0  0  0  0
  5 11  2  0  0  0  0
  7 16  1  0  0  0  0
  8  6  1  0  0  0  0
  9  8  1  0  0  0  0
 10  4  2  0  0  0  0
 10 12  1  0  0  0  0
 11  9  1  0  0  0  0
 12 17  2  0  0  0  0
 13 10  1  0  0  0  0
 14  7  1  0  0  0  0
 15 23  1  6  0  0  0
 15 14  1  0  0  0  0
 16 20  1  0  0  0  0
 16  9  2  0  0  0  0
 17  5  1  0  0  0  0
 17 21  1  0  0  0  0
 18  3  1  0  0  0  0
 18 13  2  0  0  0  0
 19  6  1  0  0  0  0
 20 19  1  0  0  0  0
 22 21  1  0  0  0  0
 23 28  1  0  0  0  0
 24 25  1  6  0  0  0
 24 23  1  0  0  0  0
 26 24  1  0  0  0  0
 27 26  1  0  0  0  0
 29 28  1  0  0  0  0
 30 32  1  0  0  0  0
 30 31  1  0  0  0  0
 32 29  1  1  0  0  0
 32 31  1  0  0  0  0
M  END
>  <MODEL>
8

>  <REMARK>
 VINA RESULT:      -7.1      2.905      6.191
  Name = 
  7 active torsions:
  status: ('A' for Active; 'I' for Inactive)
    1  A    between atoms: C_3  and  C_22
    2  A    between atoms: C_13  and  C_29
    3  A    between atoms: C_15  and  C_20
    4  A    between atoms: C_15  and  C_26
    5  A    between atoms: N_16  and  C_20
    6  A    between atoms: N_16  and  C_22
    7  A    between atoms: N_16  and  C_27
                            x       y       z     vdW  Elec       q    Type
                         _______ _______ _______ _____ _____    ______ ____

>  <TORSDO>
F 7

$$$$
=
 OpenBabel11062408283D

 32 37  0  0  1  0  0  0  0  0999 V2000
  161.9940  208.4980  151.4260 C   0  0  0  0  0  0  0  0  0  0  0  0
  160.6830  209.3750  153.3140 C   0  0  0  0  0  0  0  0  0  0  0  0
  162.7040  207.4310  150.8540 C   0  0  0  0  0  3  0  0  0  0  0  0
  161.3610  208.3140  152.6760 C   0  0  0  0  0  0  0  0  0  0  0  0
  160.1290  209.1830  154.6010 C   0  0  0  0  0  0  0  0  0  0  0  0
  158.9450  213.8450  154.8750 N   0  0  0  0  0  2  0  0  0  0  0  0
  160.5280  210.6260  152.6820 C   0  0  0  0  0  0  0  0  0  0  0  0
  158.6110  212.5130  155.3790 C   0  0  0  0  0  2  0  0  0  0  0  0
  159.3840  211.4430  154.6590 C   0  0  0  0  0  0  0  0  0  0  0  0
  161.4280  207.0520  153.3120 C   0  0  0  0  0  0  0  0  0  0  0  0
  159.5050  210.2170  155.2290 N   0  0  0  0  0  0  0  0  0  0  0  0
  160.8440  206.8650  154.5670 C   0  0  0  0  0  3  0  0  0  0  0  0
  162.1130  205.9950  152.7070 C   0  0  0  0  0  3  0  0  0  0  0  0
  160.9180  210.7900  151.2370 C   0  0  0  0  0  2  0  0  0  0  0  0
  162.0800  209.8760  150.8150 C   0  0  2  0  0  3  0  0  0  0  0  0
  159.8600  211.6640  153.3510 C   0  0  0  0  0  0  0  0  0  0  0  0
  160.2010  207.9210  155.2150 C   0  0  0  0  0  0  0  0  0  0  0  0
  162.7490  206.1850  151.4790 C   0  0  0  0  0  3  0  0  0  0  0  0
  158.6700  213.8720  153.4420 C   0  0  0  0  0  2  0  0  0  0  0  0
  159.7020  213.0210  152.7080 C   0  0  0  0  0  2  0  0  0  0  0  0
  159.6100  207.6880  156.5680 C   0  0  0  0  0  2  0  0  0  0  0  0
  160.3690  206.7420  157.2560 O   0  0  0  0  0  1  0  0  0  0  0  0
  162.2700  209.8260  149.3550 N   0  0  0  0  0  0  0  0  0  0  0  0
  162.0840  211.1700  148.7780 C   0  0  1  0  0  3  0  0  0  0  0  0
  163.3980  211.7510  148.2860 C   0  0  0  0  0  1  0  0  0  0  0  0
  160.9390  211.3010  147.7520 C   0  0  0  0  0  2  0  0  0  0  0  0
  160.7620  212.7170  147.2240 C   0  0  0  0  0  1  0  0  0  0  0  0
  161.4360  208.7920  148.7300 C   0  0  0  0  0  2  0  0  0  0  0  0
  162.2940  207.8640  147.8870 C   0  0  0  0  0  2  0  0  0  0  0  0
  162.3000  205.8020  146.5630 C   0  0  0  0  0  2  0  0  0  0  0  0
  161.9800  205.5090  147.9000 O   0  0  0  0  0  0  0  0  0  0  0  0
  161.4610  206.7070  147.3760 C   0  0  1  0  0  3  0  0  0  0  0  0
  1  4  1  0  0  0  0
  2  5  1  0  0  0  0
  3  1  2  0  0  0  0
  3 18  1  0  0  0  0
  4 10  2  0  0  0  0
  4  2  1  0  0  0  0
  5 17  1  0  0  0  0
  5 11  2  0  0  0  0
  6  8  1  0  0  0  0
  7  2  2  0  0  0  0
  7 16  1  0  0  0  0
  9 11  1  0  0  0  0
  9  8  1  0  0  0  0
 10 12  1  0  0  0  0
 12 17  2  0  0  0  0
 13 10  1  0  0  0  0
 14  7  1  0  0  0  0
 15 23  1  6  0  0  0
 15 14  1  0  0  0  0
 15  1  1  0  0  0  0
 16  9  2  0  0  0  0
 17 21  1  0  0  0  0
 18 13  2  0  0  0  0
 19  6  1  0  0  0  0
 20 16  1  0  0  0  0
 20 19  1  0  0  0  0
 21 22  1  0  0  0  0
 24 25  1  6  0  0  0
 24 23  1  0  0  0  0
 26 24  1  0  0  0  0
 27 26  1  0  0  0  0
 28 23  1  0  0  0  0
 29 28  1  0  0  0  0
 30 32  1  0  0  0  0
 30 31  1  0  0  0  0
 32 29  1  1  0  0  0
 32 31  1  0  0  0  0
M  END
>  <MODEL>
9

>  <REMARK>
 VINA RESULT:      -7.0      3.090      7.125
  Name = 
  7 active torsions:
  status: ('A' for Active; 'I' for Inactive)
    1  A    between atoms: C_3  and  C_22
    2  A    between atoms: C_13  and  C_29
    3  A    between atoms: C_15  and  C_20
    4  A    between atoms: C_15  and  C_26
    5  A    between atoms: N_16  and  C_20
    6  A    between atoms: N_16  and  C_22
    7  A    between atoms: N_16  and  C_27
                            x       y       z     vdW  Elec       q    Type
                         _______ _______ _______ _____ _____    ______ ____

>  <TORSDO>
F 7

$$$$
