=
 OpenBabel11052422433D

 31 34  0  0  1  0  0  0  0  0999 V2000
  160.7400  209.6380  156.8370 C   0  0  0  0  0  2  0  0  0  0  0  0
  161.3250  210.6980  153.5410 C   0  0  1  0  0  3  0  0  0  0  0  0
  159.9420  211.2850  153.6670 C   0  0  0  0  0  0  0  0  0  0  0  0
  157.5260  210.8990  154.2000 C   0  0  0  0  0  2  0  0  0  0  0  0
  161.6920  209.5330  154.4660 C   0  0  1  0  0  3  0  0  0  0  0  0
  160.0460  207.3180  156.1510 C   0  0  0  0  0  2  0  0  0  0  0  0
  158.9580  210.8740  154.7320 C   0  0  0  0  0  2  0  0  0  0  0  0
  160.7790  208.9900  151.7290 C   0  0  1  0  0  3  0  0  0  0  0  0
  160.6260  208.1820  157.2610 C   0  0  0  0  0  2  0  0  0  0  0  0
  160.6190  212.4670  151.6530 C   0  0  0  0  0  2  0  0  0  0  0  0
  157.1990  212.2890  153.6560 C   0  0  0  0  0  2  0  0  0  0  0  0
  160.7780  207.9400  152.8180 C   0  0  0  0  0  3  0  0  0  0  0  0
  161.5420  210.2900  152.0630 C   0  0  1  0  0  3  0  0  0  0  0  0
  161.9510  209.8590  155.9400 C   0  0  0  0  0  2  0  0  0  0  0  0
  157.9200  213.5540  151.7630 O   0  0  0  0  0  0  0  0  0  0  0  0
  161.1210  208.1880  154.0890 C   0  0  0  0  0  0  0  0  0  0  0  0
  161.0790  207.0570  155.0660 C   0  0  0  0  0  2  0  0  0  0  0  0
  161.1870  211.2870  151.0980 O   0  0  0  0  0  0  0  0  0  0  0  0
  159.5960  212.1620  152.7150 C   0  0  0  0  0  0  0  0  0  0  0  0
  158.2270  212.7120  152.6470 C   0  0  0  0  0  0  0  0  0  0  0  0
  161.1950  208.3930  150.3850 C   0  0  0  0  0  2  0  0  0  0  0  0
  162.8850  206.7430  150.8350 O   0  0  0  0  0  1  0  0  0  0  0  0
  161.5420  206.9040  150.4780 C   0  0  2  0  0  3  0  0  0  0  0  0
  161.2150  206.1270  149.1880 C   0  0  2  0  0  0  0  0  0  0  0  0
  159.9810  206.5620  148.6880 O   0  0  0  0  0  1  0  0  0  0  0  0
  161.1130  204.6650  149.5400 C   0  0  0  0  0  0  0  0  0  0  0  0
  161.4170  203.7820  148.6930 O   0  0  0  0  0  0  0  0  0  0  0  0
  160.6130  204.2740  150.7780 O   0  0  0  0  0  1  0  0  0  0  0  0
  162.9150  207.5660  148.2530 F   0  0  0  0  0  0  0  0  0  0  0  0
  161.7370  206.2560  146.8300 O   0  0  0  0  0  1  0  0  0  0  0  0
  162.2940  206.3370  148.1090 C   0  0  2  0  0  3  0  0  0  0  0  0
  1  9  1  0  0  0  0
  2  3  1  6  0  0  0
  2  5  1  0  0  0  0
  3  7  1  0  0  0  0
  4  7  1  0  0  0  0
  5 14  1  1  0  0  0
  6  9  1  0  0  0  0
  8 21  1  6  0  0  0
  8 13  1  0  0  0  0
  8 12  1  0  0  0  0
 10 19  1  0  0  0  0
 11  4  1  0  0  0  0
 12 16  2  0  0  0  0
 13 18  1  6  0  0  0
 13  2  1  0  0  0  0
 14  1  1  0  0  0  0
 15 20  2  0  0  0  0
 16  5  1  0  0  0  0
 16 17  1  0  0  0  0
 17  6  1  0  0  0  0
 18 10  1  0  0  0  0
 19  3  2  0  0  0  0
 20 19  1  0  0  0  0
 20 11  1  0  0  0  0
 21 23  1  0  0  0  0
 23 22  1  6  0  0  0
 24 25  1  6  0  0  0
 24 26  1  0  0  0  0
 24 23  1  0  0  0  0
 26 28  1  0  0  0  0
 27 26  2  0  0  0  0
 31 30  1  6  0  0  0
 31 29  1  0  0  0  0
 31 24  1  0  0  0  0
M  END
>  <MODEL>
1

>  <REMARK>
 VINA RESULT:      -6.7      0.000      0.000
  Name = 
  5 active torsions:
  status: ('A' for Active; 'I' for Inactive)
    1  A    between atoms: C_1  and  C_19
    2  A    between atoms: C_9  and  C_19
    3  A    between atoms: C_9  and  C_23
    4  A    between atoms: C_15  and  C_23
    5  A    between atoms: C_19  and  C_22
                            x       y       z     vdW  Elec       q    Type
                         _______ _______ _______ _____ _____    ______ ____

>  <TORSDO>
F 5

$$$$
=
 OpenBabel11052422433D

 31 34  0  0  1  0  0  0  0  0999 V2000
  160.2000  201.9010  149.6930 C   0  0  0  0  0  2  0  0  0  0  0  0
  160.3690  205.3570  149.0930 C   0  0  1  0  0  3  0  0  0  0  0  0
  161.1630  204.9340  147.8840 C   0  0  0  0  0  0  0  0  0  0  0  0
  163.1140  203.6470  146.9860 C   0  0  0  0  0  2  0  0  0  0  0  0
  160.3040  204.3880  150.2790 C   0  0  1  0  0  3  0  0  0  0  0  0
  162.1020  201.9190  151.3410 C   0  0  0  0  0  2  0  0  0  0  0  0
  161.7840  203.5690  147.7330 C   0  0  0  0  0  2  0  0  0  0  0  0
  162.2510  206.5850  150.2960 C   0  0  1  0  0  3  0  0  0  0  0  0
  160.8370  201.2070  150.8870 C   0  0  0  0  0  2  0  0  0  0  0  0
  160.7540  207.2370  147.2200 C   0  0  0  0  0  2  0  0  0  0  0  0
  162.9080  204.3110  145.6250 C   0  0  0  0  0  2  0  0  0  0  0  0
  162.3730  205.3740  151.1940 C   0  0  0  0  0  3  0  0  0  0  0  0
  160.9010  206.7340  149.5620 C   0  0  1  0  0  3  0  0  0  0  0  0
  159.4280  203.1410  150.1230 C   0  0  0  0  0  2  0  0  0  0  0  0
  162.3810  206.5280  144.9120 O   0  0  0  0  0  0  0  0  0  0  0  0
  161.5360  204.3290  151.1480 C   0  0  0  0  0  0  0  0  0  0  0  0
  161.7680  203.1960  152.0960 C   0  0  0  0  0  2  0  0  0  0  0  0
  161.0500  207.7120  148.5280 O   0  0  0  0  0  0  0  0  0  0  0  0
  161.3570  205.8820  146.9580 C   0  0  0  0  0  0  0  0  0  0  0  0
  162.2260  205.6380  145.7890 C   0  0  0  0  0  0  0  0  0  0  0  0
  162.6660  207.8610  151.0280 C   0  0  0  0  0  2  0  0  0  0  0  0
  161.9190  210.0950  150.5440 O   0  0  0  0  0  1  0  0  0  0  0  0
  161.5300  208.8840  151.1270 C   0  0  2  0  0  3  0  0  0  0  0  0
  161.0370  209.0990  152.5710 C   0  0  2  0  0  0  0  0  0  0  0  0
  159.6610  209.3600  152.5550 O   0  0  0  0  0  1  0  0  0  0  0  0
  161.7570  210.2970  153.1340 C   0  0  0  0  0  0  0  0  0  0  0  0
  163.0070  210.2750  153.2900 O   0  0  0  0  0  0  0  0  0  0  0  0
  161.0400  211.4130  153.5530 O   0  0  0  0  0  1  0  0  0  0  0  0
  160.4130  206.8400  153.1600 F   0  0  0  0  0  0  0  0  0  0  0  0
  161.1910  208.1860  154.8060 O   0  0  0  0  0  1  0  0  0  0  0  0
  161.3010  207.8620  153.4510 C   0  0  2  0  0  3  0  0  0  0  0  0
  1 14  1  0  0  0  0
  1  9  1  0  0  0  0
  2  3  1  6  0  0  0
  2 13  1  0  0  0  0
  2  5  1  0  0  0  0
  4  7  1  0  0  0  0
  5 14  1  6  0  0  0
  5 16  1  0  0  0  0
  6 17  1  0  0  0  0
  7  3  1  0  0  0  0
  8 21  1  1  0  0  0
  8 12  1  0  0  0  0
  9  6  1  0  0  0  0
 10 18  1  0  0  0  0
 11 20  1  0  0  0  0
 11  4  1  0  0  0  0
 13 18  1  6  0  0  0
 13  8  1  0  0  0  0
 15 20  2  0  0  0  0
 16 12  2  0  0  0  0
 16 17  1  0  0  0  0
 19 10  1  0  0  0  0
 19  3  2  0  0  0  0
 20 19  1  0  0  0  0
 21 23  1  0  0  0  0
 23 22  1  1  0  0  0
 23 24  1  0  0  0  0
 24 25  1  6  0  0  0
 24 26  1  0  0  0  0
 24 31  1  0  0  0  0
 26 27  2  0  0  0  0
 26 28  1  0  0  0  0
 31 29  1  6  0  0  0
 31 30  1  0  0  0  0
M  END
>  <MODEL>
2

>  <REMARK>
 VINA RESULT:      -4.6      2.872      7.498
  Name = 
  5 active torsions:
  status: ('A' for Active; 'I' for Inactive)
    1  A    between atoms: C_1  and  C_19
    2  A    between atoms: C_9  and  C_19
    3  A    between atoms: C_9  and  C_23
    4  A    between atoms: C_15  and  C_23
    5  A    between atoms: C_19  and  C_22
                            x       y       z     vdW  Elec       q    Type
                         _______ _______ _______ _____ _____    ______ ____

>  <TORSDO>
F 5

$$$$
=
 OpenBabel11052422433D

 31 34  0  0  1  0  0  0  0  0999 V2000
  160.1980  201.9620  149.7590 C   0  0  0  0  0  2  0  0  0  0  0  0
  160.3870  205.4050  149.0900 C   0  0  1  0  0  3  0  0  0  0  0  0
  161.1690  204.9520  147.8840 C   0  0  0  0  0  0  0  0  0  0  0  0
  163.1040  203.6330  146.9950 C   0  0  0  0  0  2  0  0  0  0  0  0
  160.3250  204.4590  150.2950 C   0  0  1  0  0  3  0  0  0  0  0  0
  162.1130  201.9990  151.3920 C   0  0  0  0  0  2  0  0  0  0  0  0
  161.7790  203.5800  147.7550 C   0  0  0  0  0  2  0  0  0  0  0  0
  162.2880  206.6420  150.2540 C   0  0  1  0  0  3  0  0  0  0  0  0
  160.8390  201.2870  150.9610 C   0  0  0  0  0  2  0  0  0  0  0  0
  160.7710  207.2450  147.1780 C   0  0  0  0  0  2  0  0  0  0  0  0
  162.8910  204.2720  145.6240 C   0  0  0  0  0  2  0  0  0  0  0  0
  162.4080  205.4480  151.1750 C   0  0  0  0  0  3  0  0  0  0  0  0
  160.9330  206.7860  149.5280 C   0  0  1  0  0  3  0  0  0  0  0  0
  159.4380  203.2160  150.1700 C   0  0  0  0  0  2  0  0  0  0  0  0
  162.3750  206.4790  144.8720 O   0  0  0  0  0  0  0  0  0  0  0  0
  161.5630  204.4090  151.1560 C   0  0  0  0  0  0  0  0  0  0  0  0
  161.7940  203.2930  152.1240 C   0  0  0  0  0  2  0  0  0  0  0  0
  161.0810  207.7440  148.4740 O   0  0  0  0  0  0  0  0  0  0  0  0
  161.3620  205.8810  146.9380 C   0  0  0  0  0  0  0  0  0  0  0  0
  162.2210  205.6080  145.7670 C   0  0  0  0  0  0  0  0  0  0  0  0
  162.7170  207.9300  150.9570 C   0  0  0  0  0  2  0  0  0  0  0  0
  161.8210  210.0200  150.1770 O   0  0  0  0  0  1  0  0  0  0  0  0
  161.5860  208.9580  151.0560 C   0  0  2  0  0  3  0  0  0  0  0  0
  161.3600  209.4680  152.4930 C   0  0  2  0  0  0  0  0  0  0  0  0
  162.5060  210.1450  152.9270 O   0  0  0  0  0  1  0  0  0  0  0  0
  161.1310  208.2710  153.3800 C   0  0  0  0  0  0  0  0  0  0  0  0
  160.4030  207.3190  152.9910 O   0  0  0  0  0  0  0  0  0  0  0  0
  161.6620  208.2390  154.6650 O   0  0  0  0  0  1  0  0  0  0  0  0
  160.5020  211.7040  152.1770 F   0  0  0  0  0  0  0  0  0  0  0  0
  159.6480  210.4740  153.8750 O   0  0  0  0  0  1  0  0  0  0  0  0
  160.1550  210.4240  152.5740 C   0  0  2  0  0  3  0  0  0  0  0  0
  1 14  1  0  0  0  0
  1  9  1  0  0  0  0
  2  3  1  6  0  0  0
  2 13  1  0  0  0  0
  2  5  1  0  0  0  0
  4  7  1  0  0  0  0
  5 14  1  6  0  0  0
  5 16  1  0  0  0  0
  6 17  1  0  0  0  0
  7  3  1  0  0  0  0
  8 21  1  1  0  0  0
  8 12  1  0  0  0  0
  9  6  1  0  0  0  0
 10 18  1  0  0  0  0
 11 20  1  0  0  0  0
 11  4  1  0  0  0  0
 13 18  1  6  0  0  0
 13  8  1  0  0  0  0
 15 20  2  0  0  0  0
 16 12  2  0  0  0  0
 16 17  1  0  0  0  0
 19 10  1  0  0  0  0
 19  3  2  0  0  0  0
 20 19  1  0  0  0  0
 21 23  1  0  0  0  0
 23 22  1  6  0  0  0
 23 24  1  0  0  0  0
 24 31  1  0  0  0  0
 24 25  1  1  0  0  0
 24 26  1  0  0  0  0
 26 28  1  0  0  0  0
 27 26  2  0  0  0  0
 31 29  1  1  0  0  0
 31 30  1  0  0  0  0
M  END
>  <MODEL>
3

>  <REMARK>
 VINA RESULT:      -4.5      2.673      7.392
  Name = 
  5 active torsions:
  status: ('A' for Active; 'I' for Inactive)
    1  A    between atoms: C_1  and  C_19
    2  A    between atoms: C_9  and  C_19
    3  A    between atoms: C_9  and  C_23
    4  A    between atoms: C_15  and  C_23
    5  A    between atoms: C_19  and  C_22
                            x       y       z     vdW  Elec       q    Type
                         _______ _______ _______ _____ _____    ______ ____

>  <TORSDO>
F 5

$$$$
=
 OpenBabel11052422433D

 31 34  0  0  1  0  0  0  0  0999 V2000
  158.1630  212.7800  154.1720 C   0  0  0  0  0  2  0  0  0  0  0  0
  159.5570  209.6120  153.5770 C   0  0  1  0  0  3  0  0  0  0  0  0
  160.3030  209.8900  154.8570 C   0  0  0  0  0  0  0  0  0  0  0  0
  161.7990  211.4390  156.1350 C   0  0  0  0  0  2  0  0  0  0  0  0
  159.0270  210.8130  152.7860 C   0  0  1  0  0  3  0  0  0  0  0  0
  159.7460  213.9600  152.6120 C   0  0  0  0  0  2  0  0  0  0  0  0
  160.4400  211.2660  155.4570 C   0  0  0  0  0  2  0  0  0  0  0  0
  161.5840  209.5820  152.0310 C   0  0  1  0  0  3  0  0  0  0  0  0
  158.3790  213.9920  153.2800 C   0  0  0  0  0  2  0  0  0  0  0  0
  160.7770  207.5100  154.7100 C   0  0  0  0  0  2  0  0  0  0  0  0
  161.9940  210.3550  157.1940 C   0  0  0  0  0  2  0  0  0  0  0  0
  161.1810  210.9720  151.5910 C   0  0  0  0  0  3  0  0  0  0  0  0
  160.4620  208.7380  152.6730 C   0  0  1  0  0  3  0  0  0  0  0  0
  157.8080  211.5470  153.3510 C   0  0  0  0  0  2  0  0  0  0  0  0
  162.3360  207.9930  157.1220 O   0  0  0  0  0  0  0  0  0  0  0  0
  160.0530  211.5770  151.9850 C   0  0  0  0  0  0  0  0  0  0  0  0
  159.7730  212.9540  151.4720 C   0  0  0  0  0  2  0  0  0  0  0  0
  161.0560  207.6070  153.3190 O   0  0  0  0  0  0  0  0  0  0  0  0
  160.9150  208.8350  155.4110 C   0  0  0  0  0  0  0  0  0  0  0  0
  161.7850  208.9950  156.5940 C   0  0  0  0  0  0  0  0  0  0  0  0
  162.3130  208.8370  150.9130 C   0  0  0  0  0  2  0  0  0  0  0  0
  163.1660  206.6310  151.3450 O   0  0  0  0  0  1  0  0  0  0  0  0
  162.0310  207.3310  150.9220 C   0  0  2  0  0  3  0  0  0  0  0  0
  161.5310  206.8040  149.5630 C   0  0  2  0  0  0  0  0  0  0  0  0
  160.4240  207.5600  149.1540 O   0  0  0  0  0  1  0  0  0  0  0  0
  161.1040  205.3710  149.7490 C   0  0  0  0  0  0  0  0  0  0  0  0
  160.4460  205.0290  150.7680 O   0  0  0  0  0  1  0  0  0  0  0  0
  161.4930  204.3980  148.8350 O   0  0  0  0  0  0  0  0  0  0  0  0
  163.0320  208.2030  148.2870 F   0  0  0  0  0  0  0  0  0  0  0  0
  162.1620  206.3780  147.2670 O   0  0  0  0  0  1  0  0  0  0  0  0
  162.6230  206.8940  148.4810 C   0  0  2  0  0  3  0  0  0  0  0  0
  2  3  1  1  0  0  0
  3 19  2  0  0  0  0
  3  7  1  0  0  0  0
  4 11  1  0  0  0  0
  5 14  1  1  0  0  0
  5  2  1  0  0  0  0
  6  9  1  0  0  0  0
  7  4  1  0  0  0  0
  8 21  1  6  0  0  0
  8 13  1  0  0  0  0
  9  1  1  0  0  0  0
 10 19  1  0  0  0  0
 12 16  2  0  0  0  0
 12  8  1  0  0  0  0
 13 18  1  1  0  0  0
 13  2  1  0  0  0  0
 14  1  1  0  0  0  0
 16  5  1  0  0  0  0
 17 16  1  0  0  0  0
 17  6  1  0  0  0  0
 18 10  1  0  0  0  0
 19 20  1  0  0  0  0
 20 15  2  0  0  0  0
 20 11  1  0  0  0  0
 21 23  1  0  0  0  0
 23 22  1  6  0  0  0
 24 25  1  6  0  0  0
 24 26  1  0  0  0  0
 24 23  1  0  0  0  0
 26 27  1  0  0  0  0
 28 26  2  0  0  0  0
 29 31  1  0  0  0  0
 31 30  1  6  0  0  0
 31 24  1  0  0  0  0
M  END
>  <MODEL>
4

>  <REMARK>
 VINA RESULT:      -4.3      1.810      4.172
  Name = 
  5 active torsions:
  status: ('A' for Active; 'I' for Inactive)
    1  A    between atoms: C_1  and  C_19
    2  A    between atoms: C_9  and  C_19
    3  A    between atoms: C_9  and  C_23
    4  A    between atoms: C_15  and  C_23
    5  A    between atoms: C_19  and  C_22
                            x       y       z     vdW  Elec       q    Type
                         _______ _______ _______ _____ _____    ______ ____

>  <TORSDO>
F 5

$$$$
=
 OpenBabel11052422433D

 31 34  0  0  1  0  0  0  0  0999 V2000
  162.0760  206.0970  153.5790 C   0  0  0  0  0  2  0  0  0  0  0  0
  162.6030  207.5920  150.4450 C   0  0  1  0  0  3  0  0  0  0  0  0
  161.8500  208.7440  151.0610 C   0  0  0  0  0  0  0  0  0  0  0  0
  159.7780  209.5270  152.2290 C   0  0  0  0  0  2  0  0  0  0  0  0
  162.3850  206.1970  151.0430 C   0  0  1  0  0  3  0  0  0  0  0  0
  160.0770  204.7770  152.8060 C   0  0  0  0  0  2  0  0  0  0  0  0
  161.0020  208.6150  152.3000 C   0  0  0  0  0  2  0  0  0  0  0  0
  160.8850  207.0110  148.6530 C   0  0  1  0  0  3  0  0  0  0  0  0
  161.2220  204.8590  153.8040 C   0  0  0  0  0  2  0  0  0  0  0  0
  162.7340  209.9240  149.1270 C   0  0  0  0  0  2  0  0  0  0  0  0
  160.2200  210.9740  152.0120 C   0  0  0  0  0  2  0  0  0  0  0  0
  160.4640  205.8530  149.5310 C   0  0  0  0  0  3  0  0  0  0  0  0
  162.2970  207.5720  148.9270 C   0  0  1  0  0  3  0  0  0  0  0  0
  163.0250  205.9060  152.4030 C   0  0  0  0  0  2  0  0  0  0  0  0
  161.2070  212.1630  150.1910 O   0  0  0  0  0  0  0  0  0  0  0  0
  161.0940  205.5140  150.6640 C   0  0  0  0  0  0  0  0  0  0  0  0
  160.5760  204.3430  151.4370 C   0  0  0  0  0  2  0  0  0  0  0  0
  162.4210  208.8360  148.2650 O   0  0  0  0  0  0  0  0  0  0  0  0
  161.9150  209.9020  150.3910 C   0  0  0  0  0  0  0  0  0  0  0  0
  161.1190  211.0720  150.8140 C   0  0  0  0  0  0  0  0  0  0  0  0
  160.6530  206.6990  147.1750 C   0  0  0  0  0  2  0  0  0  0  0  0
  162.4870  205.1470  147.0730 O   0  0  0  0  0  1  0  0  0  0  0  0
  161.1260  205.2950  146.7850 C   0  0  2  0  0  3  0  0  0  0  0  0
  160.8310  204.9480  145.3130 C   0  0  2  0  0  0  0  0  0  0  0  0
  159.7060  205.6660  144.8860 O   0  0  0  0  0  1  0  0  0  0  0  0
  160.5280  203.4730  145.2350 C   0  0  0  0  0  0  0  0  0  0  0  0
  161.2060  202.6470  145.9030 O   0  0  0  0  0  1  0  0  0  0  0  0
  159.5460  203.0030  144.3700 O   0  0  0  0  0  0  0  0  0  0  0  0
  162.8710  206.2030  145.0010 F   0  0  0  0  0  0  0  0  0  0  0  0
  161.5750  205.8230  143.1840 O   0  0  0  0  0  1  0  0  0  0  0  0
  162.0210  205.2930  144.3970 C   0  0  2  0  0  3  0  0  0  0  0  0
  1  9  1  0  0  0  0
  2  5  1  0  0  0  0
  2  3  1  1  0  0  0
  3  7  1  0  0  0  0
  4  7  1  0  0  0  0
  5 14  1  1  0  0  0
  6  9  1  0  0  0  0
  8 21  1  6  0  0  0
  8 13  1  0  0  0  0
  8 12  1  0  0  0  0
 10 19  1  0  0  0  0
 11  4  1  0  0  0  0
 12 16  2  0  0  0  0
 13 18  1  1  0  0  0
 13  2  1  0  0  0  0
 14  1  1  0  0  0  0
 15 20  2  0  0  0  0
 16  5  1  0  0  0  0
 16 17  1  0  0  0  0
 17  6  1  0  0  0  0
 18 10  1  0  0  0  0
 19 20  1  0  0  0  0
 19  3  2  0  0  0  0
 20 11  1  0  0  0  0
 23 22  1  6  0  0  0
 23 21  1  0  0  0  0
 24 25  1  6  0  0  0
 24 23  1  0  0  0  0
 26 24  1  0  0  0  0
 26 27  1  0  0  0  0
 28 26  2  0  0  0  0
 31 30  1  6  0  0  0
 31 29  1  0  0  0  0
 31 24  1  0  0  0  0
M  END
>  <MODEL>
5

>  <REMARK>
 VINA RESULT:      -3.8      2.680      4.224
  Name = 
  5 active torsions:
  status: ('A' for Active; 'I' for Inactive)
    1  A    between atoms: C_1  and  C_19
    2  A    between atoms: C_9  and  C_19
    3  A    between atoms: C_9  and  C_23
    4  A    between atoms: C_15  and  C_23
    5  A    between atoms: C_19  and  C_22
                            x       y       z     vdW  Elec       q    Type
                         _______ _______ _______ _____ _____    ______ ____

>  <TORSDO>
F 5

$$$$
