=
 OpenBabel11062408483D

 55 59  0  0  1  0  0  0  0  0999 V2000
  161.4770  205.5040  152.4670 N   0  0  0  0  0  0  0  0  0  0  0  0
  160.7350  201.9980  150.1720 C   0  0  0  0  0  3  0  0  0  0  0  0
  161.2270  204.3130  151.6870 C   0  0  0  0  0  0  0  0  0  0  0  0
  161.9430  203.1290  151.9360 C   0  0  0  0  0  3  0  0  0  0  0  0
  160.0170  203.1680  149.9150 C   0  0  0  0  0  3  0  0  0  0  0  0
  161.6990  201.9770  151.1810 C   0  0  0  0  0  3  0  0  0  0  0  0
  160.2620  204.3200  150.6670 C   0  0  0  0  0  3  0  0  0  0  0  0
  162.7480  206.2180  152.3500 C   0  0  0  0  0  2  0  0  0  0  0  0
  162.7230  207.2080  151.1940 C   0  0  0  0  0  2  0  0  0  0  0  0
  161.8690  208.7390  152.9990 C   0  0  0  0  0  1  0  0  0  0  0  0
  160.7880  210.2720  150.8680 O   0  0  0  0  0  0  0  0  0  0  0  0
  161.6530  209.3960  150.5900 C   0  0  0  0  0  0  0  0  0  0  0  0
  162.0600  208.4450  151.5840 N   0  0  0  0  0  0  0  0  0  0  0  0
  162.2740  209.3540  149.2180 C   0  0  1  0  0  3  0  0  0  0  0  0
  163.8290  204.7050  145.8970 O   0  0  0  0  0  1  0  0  0  0  0  0
  160.5410  202.5380  146.1870 C   0  0  0  0  0  0  0  0  0  0  0  0
  161.2760  206.2100  146.1230 C   0  0  0  0  0  2  0  0  0  0  0  0
  160.9990  201.3540  146.7630 O   0  0  0  0  0  1  0  0  0  0  0  0
  160.5010  207.7310  148.6210 C   0  0  0  0  0  1  0  0  0  0  0  0
  160.3440  205.0320  146.4010 C   0  0  0  0  0  2  0  0  0  0  0  0
  162.8320  207.3390  147.7590 C   0  0  0  0  0  0  0  0  0  0  0  0
  163.1990  204.9520  147.1210 C   0  0  2  0  0  3  0  0  0  0  0  0
  164.0650  207.6000  147.8320 O   0  0  0  0  0  0  0  0  0  0  0  0
  162.2700  203.7930  147.4670 C   0  0  0  0  0  2  0  0  0  0  0  0
  159.6120  202.4890  145.3330 O   0  0  0  0  0  0  0  0  0  0  0  0
  161.1070  203.7930  146.5800 N   0  0  0  0  0  0  0  0  0  0  0  0
  161.8750  208.1760  148.4450 N   0  0  0  0  0  0  0  0  0  0  0  0
  162.4110  206.1750  147.0390 N   0  0  0  0  0  0  0  0  0  0  0  0
  163.3200  211.4810  148.2790 C   0  0  0  0  0  3  0  0  0  0  0  0
  163.2110  212.6760  147.5580 C   0  0  0  0  0  3  0  0  0  0  0  0
  160.9890  210.9960  147.8230 C   0  0  0  0  0  3  0  0  0  0  0  0
  160.8810  212.1890  147.0990 C   0  0  0  0  0  3  0  0  0  0  0  0
  161.9920  213.0330  146.9700 C   0  0  0  0  0  3  0  0  0  0  0  0
  162.2080  210.6300  148.4150 C   0  0  0  0  0  0  0  0  0  0  0  0
  160.4710  206.0150  153.3990 C   0  0  0  0  0  2  0  0  0  0  0  0
  161.1370  206.5660  154.6570 C   0  0  0  0  0  2  0  0  0  0  0  0
  160.1030  207.1420  155.6200 C   0  0  0  0  0  2  0  0  0  0  0  0
  160.6690  208.3200  156.4140 C   0  0  0  0  0  2  0  0  0  0  0  0
  158.4370  212.6180  156.6480 C   0  0  1  0  0  3  0  0  0  0  0  0
  160.2350  209.7140  155.9260 C   0  0  2  0  0  0  0  0  0  0  0  0
  160.9010  211.9520  156.7540 C   0  0  0  0  0  2  0  0  0  0  0  0
  159.1920  210.9550  153.9210 C   0  0  0  0  0  2  0  0  0  0  0  0
  159.6050  209.6130  154.5240 C   0  0  0  0  0  2  0  0  0  0  0  0
  161.3690  210.7650  155.9280 C   0  0  1  0  0  3  0  0  0  0  0  0
  159.4860  211.6530  157.2310 C   0  0  2  0  0  3  0  0  0  0  0  0
  158.6510  213.9980  157.2580 C   0  0  0  0  0  1  0  0  0  0  0  0
  162.7200  210.2960  156.4570 C   0  0  0  0  0  1  0  0  0  0  0  0
  159.1870  210.2020  156.9150 C   0  0  0  0  0  2  0  0  0  0  0  0
  158.0610  211.4460  154.5780 O   0  0  0  0  0  0  0  0  0  0  0  0
  158.4500  212.6770  155.1110 C   0  0  1  0  0  3  0  0  0  0  0  0
  157.5160  213.7580  154.5730 C   0  0  0  0  0  2  0  0  0  0  0  0
  156.4010  213.1580  153.9940 O   0  0  0  0  0  0  0  0  0  0  0  0
  156.3440  213.6890  152.7030 C   0  0  0  0  0  2  0  0  0  0  0  0
  154.7640  214.2270  151.2500 C   0  0  0  0  0  1  0  0  0  0  0  0
  155.1820  214.4490  152.5650 O   0  0  0  0  0  0  0  0  0  0  0  0
  1 35  1  0  0  0  0
  2  6  1  0  0  0  0
  3  4  1  0  0  0  0
  3  1  1  0  0  0  0
  5  2  2  0  0  0  0
  5  7  1  0  0  0  0
  6  4  2  0  0  0  0
  7  3  2  0  0  0  0
  8  1  1  0  0  0  0
  9 13  1  0  0  0  0
  9  8  1  0  0  0  0
 12 11  2  0  0  0  0
 12 13  1  0  0  0  0
 13 10  1  0  0  0  0
 14 12  1  1  0  0  0
 16 26  1  0  0  0  0
 16 18  1  0  0  0  0
 17 20  1  0  0  0  0
 17 28  1  0  0  0  0
 20 26  1  0  0  0  0
 21 23  2  0  0  0  0
 21 27  1  0  0  0  0
 22 15  1  6  0  0  0
 22 24  1  0  0  0  0
 25 16  2  0  0  0  0
 26 24  1  0  0  0  0
 27 19  1  0  0  0  0
 27 14  1  0  0  0  0
 28 22  1  0  0  0  0
 28 21  1  0  0  0  0
 29 34  1  0  0  0  0
 30 29  2  0  0  0  0
 31 34  2  0  0  0  0
 32 31  1  0  0  0  0
 33 32  2  0  0  0  0
 33 30  1  0  0  0  0
 34 14  1  0  0  0  0
 35 36  1  0  0  0  0
 36 37  1  0  0  0  0
 37 38  1  0  0  0  0
 39 45  1  0  0  0  0
 39 46  1  1  0  0  0
 40 44  1  0  0  0  0
 40 38  1  1  0  0  0
 40 48  1  0  0  0  0
 42 43  1  0  0  0  0
 42 49  1  0  0  0  0
 43 40  1  0  0  0  0
 44 47  1  1  0  0  0
 44 41  1  0  0  0  0
 45 41  1  6  0  0  0
 48 45  1  0  0  0  0
 49 50  1  0  0  0  0
 50 51  1  1  0  0  0
 50 39  1  0  0  0  0
 52 51  1  0  0  0  0
 53 52  1  0  0  0  0
 54 55  1  0  0  0  0
 55 53  1  0  0  0  0
M  END
>  <MODEL>
1

>  <REMARK>
 VINA RESULT:      -3.2      0.000      0.000
  Name = 
  16 active torsions:
  status: ('A' for Active; 'I' for Inactive)
    1  A    between atoms: C_3  and  O_25
    2  A    between atoms: C_3  and  O_38
    3  A    between atoms: C_6  and  C_22
    4  A    between atoms: C_8  and  C_43
    5  A    between atoms: C_8  and  C_54
    6  A    between atoms: C_19  and  C_45
    7  A    between atoms: C_22  and  C_43
    8  A    between atoms: C_26  and  C_45
    9  A    between atoms: C_27  and  N_51
   10  A    between atoms: C_29  and  O_38
   11  A    between atoms: C_29  and  C_53
   12  A    between atoms: C_35  and  C_40
   13  A    between atoms: C_35  and  N_51
   14  A    between atoms: N_37  and  C_40
   15  A    between atoms: C_45  and  N_49
   16  A    between atoms: N_51  and  C_54
                            x       y       z     vdW  Elec       q    Type
                         _______ _______ _______ _____ _____    ______ ____

>  <TORSDO>
F 16

$$$$
=
 OpenBabel11062408483D

 55 59  0  0  1  0  0  0  0  0999 V2000
  161.6020  212.0930  149.4560 N   0  0  0  0  0  0  0  0  0  0  0  0
  160.9100  213.3190  145.4390 C   0  0  0  0  0  3  0  0  0  0  0  0
  161.3670  212.5110  148.0920 C   0  0  0  0  0  0  0  0  0  0  0  0
  162.0920  213.5780  147.5330 C   0  0  0  0  0  3  0  0  0  0  0  0
  160.1830  212.2580  145.9820 C   0  0  0  0  0  3  0  0  0  0  0  0
  161.8650  213.9810  146.2130 C   0  0  0  0  0  3  0  0  0  0  0  0
  160.4090  211.8560  147.3020 C   0  0  0  0  0  3  0  0  0  0  0  0
  161.1830  212.9350  150.5760 C   0  0  0  0  0  2  0  0  0  0  0  0
  160.0340  212.3010  151.3460 C   0  0  0  0  0  2  0  0  0  0  0  0
  158.4520  213.5580  149.8480 C   0  0  0  0  0  1  0  0  0  0  0  0
  157.0710  214.2140  152.2400 O   0  0  0  0  0  0  0  0  0  0  0  0
  157.9250  213.2850  152.2820 C   0  0  0  0  0  0  0  0  0  0  0  0
  158.8070  213.0680  151.1730 N   0  0  0  0  0  0  0  0  0  0  0  0
  158.0090  212.3890  153.4910 C   0  0  1  0  0  3  0  0  0  0  0  0
  161.6700  208.4260  155.9280 O   0  0  0  0  0  1  0  0  0  0  0  0
  161.9930  205.8730  152.9320 C   0  0  0  0  0  0  0  0  0  0  0  0
  161.5430  209.5820  153.1930 C   0  0  0  0  0  2  0  0  0  0  0  0
  161.5150  204.6850  153.4850 O   0  0  0  0  0  1  0  0  0  0  0  0
  158.9800  210.6650  152.0030 C   0  0  0  0  0  1  0  0  0  0  0  0
  161.5080  208.2790  152.3990 C   0  0  0  0  0  2  0  0  0  0  0  0
  159.6270  210.6610  154.4340 C   0  0  0  0  0  0  0  0  0  0  0  0
  160.5010  208.4360  155.1620 C   0  0  2  0  0  3  0  0  0  0  0  0
  159.3930  211.0510  155.6120 O   0  0  0  0  0  0  0  0  0  0  0  0
  160.3950  207.1430  154.3610 C   0  0  0  0  0  2  0  0  0  0  0  0
  162.9410  205.8290  152.1000 O   0  0  0  0  0  0  0  0  0  0  0  0
  161.3960  207.1240  153.2950 N   0  0  0  0  0  0  0  0  0  0  0  0
  158.9540  211.2840  153.3190 N   0  0  0  0  0  0  0  0  0  0  0  0
  160.5210  209.5600  154.2350 N   0  0  0  0  0  0  0  0  0  0  0  0
  157.1020  213.1160  155.7610 C   0  0  0  0  0  3  0  0  0  0  0  0
  157.2590  213.7990  156.9730 C   0  0  0  0  0  3  0  0  0  0  0  0
  159.3560  213.7390  155.1210 C   0  0  0  0  0  3  0  0  0  0  0  0
  159.5140  214.4180  156.3350 C   0  0  0  0  0  3  0  0  0  0  0  0
  158.4630  214.4520  157.2610 C   0  0  0  0  0  3  0  0  0  0  0  0
  158.1530  213.0800  154.8260 C   0  0  0  0  0  0  0  0  0  0  0  0
  162.2740  210.8260  149.7470 C   0  0  0  0  0  2  0  0  0  0  0  0
  161.3900  209.6470  149.3470 C   0  0  0  0  0  2  0  0  0  0  0  0
  162.0970  208.3190  149.6030 C   0  0  0  0  0  2  0  0  0  0  0  0
  161.1220  207.1430  149.5430 C   0  0  0  0  0  2  0  0  0  0  0  0
  162.8770  205.2380  145.4440 C   0  0  1  0  0  3  0  0  0  0  0  0
  161.0700  206.3970  148.1980 C   0  0  2  0  0  0  0  0  0  0  0  0
  161.9860  204.1770  147.5900 C   0  0  0  0  0  2  0  0  0  0  0  0
  159.8140  206.3040  145.9470 C   0  0  0  0  0  2  0  0  0  0  0  0
  159.9880  207.0120  147.2900 C   0  0  0  0  0  2  0  0  0  0  0  0
  160.8540  204.8720  148.3280 C   0  0  1  0  0  3  0  0  0  0  0  0
  162.8730  205.2560  146.9840 C   0  0  2  0  0  3  0  0  0  0  0  0
  163.6030  203.9840  144.9720 C   0  0  0  0  0  1  0  0  0  0  0  0
  160.7810  204.3230  149.7490 C   0  0  0  0  0  1  0  0  0  0  0  0
  162.4350  206.5900  147.5530 C   0  0  0  0  0  2  0  0  0  0  0  0
  160.9040  206.5800  145.1180 O   0  0  0  0  0  0  0  0  0  0  0  0
  161.4700  205.3370  144.8290 C   0  0  1  0  0  3  0  0  0  0  0  0
  161.4950  205.1530  143.3140 C   0  0  0  0  0  2  0  0  0  0  0  0
  161.8040  206.3670  142.7070 O   0  0  0  0  0  0  0  0  0  0  0  0
  161.7930  206.0900  141.3380 C   0  0  0  0  0  2  0  0  0  0  0  0
  162.0590  206.9820  139.3300 C   0  0  0  0  0  1  0  0  0  0  0  0
  162.4850  207.0920  140.6560 O   0  0  0  0  0  0  0  0  0  0  0  0
  1 35  1  0  0  0  0
  1  8  1  0  0  0  0
  2  5  2  0  0  0  0
  2  6  1  0  0  0  0
  3  1  1  0  0  0  0
  4  3  1  0  0  0  0
  5  7  1  0  0  0  0
  6  4  2  0  0  0  0
  7  3  2  0  0  0  0
  8  9  1  0  0  0  0
 10 13  1  0  0  0  0
 11 12  2  0  0  0  0
 13  9  1  0  0  0  0
 13 12  1  0  0  0  0
 14 12  1  6  0  0  0
 14 34  1  0  0  0  0
 16 26  1  0  0  0  0
 16 18  1  0  0  0  0
 17 28  1  0  0  0  0
 19 27  1  0  0  0  0
 20 17  1  0  0  0  0
 20 26  1  0  0  0  0
 21 23  2  0  0  0  0
 22 15  1  6  0  0  0
 24 22  1  0  0  0  0
 25 16  2  0  0  0  0
 26 24  1  0  0  0  0
 27 14  1  0  0  0  0
 27 21  1  0  0  0  0
 28 21  1  0  0  0  0
 28 22  1  0  0  0  0
 29 30  1  0  0  0  0
 30 33  2  0  0  0  0
 31 32  2  0  0  0  0
 32 33  1  0  0  0  0
 34 31  1  0  0  0  0
 34 29  2  0  0  0  0
 36 37  1  0  0  0  0
 36 35  1  0  0  0  0
 38 37  1  0  0  0  0
 39 46  1  1  0  0  0
 39 45  1  0  0  0  0
 40 44  1  0  0  0  0
 40 38  1  1  0  0  0
 41 44  1  0  0  0  0
 42 43  1  0  0  0  0
 43 40  1  0  0  0  0
 44 47  1  1  0  0  0
 45 48  1  6  0  0  0
 45 41  1  0  0  0  0
 48 40  1  0  0  0  0
 49 42  1  0  0  0  0
 50 51  1  6  0  0  0
 50 49  1  0  0  0  0
 50 39  1  0  0  0  0
 52 51  1  0  0  0  0
 53 52  1  0  0  0  0
 54 55  1  0  0  0  0
 55 53  1  0  0  0  0
M  END
>  <MODEL>
2

>  <REMARK>
 VINA RESULT:      -1.8      2.746      9.870
  Name = 
  16 active torsions:
  status: ('A' for Active; 'I' for Inactive)
    1  A    between atoms: C_3  and  O_25
    2  A    between atoms: C_3  and  O_38
    3  A    between atoms: C_6  and  C_22
    4  A    between atoms: C_8  and  C_43
    5  A    between atoms: C_8  and  C_54
    6  A    between atoms: C_19  and  C_45
    7  A    between atoms: C_22  and  C_43
    8  A    between atoms: C_26  and  C_45
    9  A    between atoms: C_27  and  N_51
   10  A    between atoms: C_29  and  O_38
   11  A    between atoms: C_29  and  C_53
   12  A    between atoms: C_35  and  C_40
   13  A    between atoms: C_35  and  N_51
   14  A    between atoms: N_37  and  C_40
   15  A    between atoms: C_45  and  N_49
   16  A    between atoms: N_51  and  C_54
                            x       y       z     vdW  Elec       q    Type
                         _______ _______ _______ _____ _____    ______ ____

>  <TORSDO>
F 16

$$$$
=
 OpenBabel11062408483D

 55 59  0  0  1  0  0  0  0  0999 V2000
  161.0240  208.3450  151.9230 N   0  0  0  0  0  0  0  0  0  0  0  0
  162.1530  204.2420  151.9750 C   0  0  0  0  0  3  0  0  0  0  0  0
  161.4080  206.9520  151.9400 C   0  0  0  0  0  0  0  0  0  0  0  0
  162.7410  206.5720  151.7020 C   0  0  0  0  0  3  0  0  0  0  0  0
  160.8260  204.6060  152.2120 C   0  0  0  0  0  3  0  0  0  0  0  0
  163.1120  205.2240  151.7190 C   0  0  0  0  0  3  0  0  0  0  0  0
  160.4550  205.9540  152.1930 C   0  0  0  0  0  3  0  0  0  0  0  0
  160.0710  208.8670  152.9030 C   0  0  0  0  0  2  0  0  0  0  0  0
  159.7970  210.3460  152.6750 C   0  0  0  0  0  2  0  0  0  0  0  0
  162.0210  210.9040  153.7100 C   0  0  0  0  0  1  0  0  0  0  0  0
  160.5600  212.7450  155.3020 O   0  0  0  0  0  0  0  0  0  0  0  0
  159.9950  212.2640  154.2810 C   0  0  0  0  0  0  0  0  0  0  0  0
  160.5940  211.1670  153.5770 N   0  0  0  0  0  0  0  0  0  0  0  0
  158.6970  212.8490  153.7880 C   0  0  1  0  0  3  0  0  0  0  0  0
  161.3730  214.4520  148.7550 O   0  0  0  0  0  1  0  0  0  0  0  0
  159.1310  212.5090  146.1490 C   0  0  0  0  0  0  0  0  0  0  0  0
  158.5010  214.1460  149.4590 C   0  0  0  0  0  2  0  0  0  0  0  0
  160.0480  211.6720  145.5150 O   0  0  0  0  0  1  0  0  0  0  0  0
  157.5560  212.2980  151.6610 C   0  0  0  0  0  1  0  0  0  0  0  0
  158.0910  213.2090  148.3250 C   0  0  0  0  0  2  0  0  0  0  0  0
  159.7470  213.5300  151.5670 C   0  0  0  0  0  0  0  0  0  0  0  0
  160.8540  213.2930  149.3400 C   0  0  2  0  0  3  0  0  0  0  0  0
  160.8060  213.8900  152.1530 O   0  0  0  0  0  0  0  0  0  0  0  0
  160.4470  212.3030  148.2540 C   0  0  0  0  0  2  0  0  0  0  0  0
  158.1810  213.0030  145.4810 O   0  0  0  0  0  0  0  0  0  0  0  0
  159.2600  212.7840  147.5490 N   0  0  0  0  0  0  0  0  0  0  0  0
  158.6490  212.9850  152.3310 N   0  0  0  0  0  0  0  0  0  0  0  0
  159.6800  213.6200  150.1390 N   0  0  0  0  0  0  0  0  0  0  0  0
  157.3670  210.9130  154.7800 C   0  0  0  0  0  3  0  0  0  0  0  0
  156.1680  210.3860  155.2730 C   0  0  0  0  0  3  0  0  0  0  0  0
  156.2840  213.0550  154.4410 C   0  0  0  0  0  3  0  0  0  0  0  0
  155.0860  212.5290  154.9370 C   0  0  0  0  0  3  0  0  0  0  0  0
  155.0260  211.1910  155.3500 C   0  0  0  0  0  3  0  0  0  0  0  0
  157.4340  212.2540  154.3630 C   0  0  0  0  0  0  0  0  0  0  0  0
  161.5680  209.2610  150.9210 C   0  0  0  0  0  2  0  0  0  0  0  0
  162.4390  208.5060  149.9200 C   0  0  0  0  0  2  0  0  0  0  0  0
  161.6340  208.0910  148.6930 C   0  0  0  0  0  2  0  0  0  0  0  0
  162.4360  207.1600  147.7820 C   0  0  0  0  0  2  0  0  0  0  0  0
  161.6030  202.4340  147.0970 C   0  0  1  0  0  3  0  0  0  0  0  0
  161.6800  205.9190  147.2760 C   0  0  2  0  0  0  0  0  0  0  0  0
  160.4570  204.1870  148.5570 C   0  0  0  0  0  2  0  0  0  0  0  0
  160.5870  204.8940  145.1770 C   0  0  0  0  0  2  0  0  0  0  0  0
  161.3890  206.0520  145.7690 C   0  0  0  0  0  2  0  0  0  0  0  0
  160.3750  205.6170  148.0470 C   0  0  1  0  0  3  0  0  0  0  0  0
  161.7800  203.6030  148.0820 C   0  0  2  0  0  3  0  0  0  0  0  0
  161.0280  201.2410  147.8510 C   0  0  0  0  0  1  0  0  0  0  0  0
  160.0550  206.5420  149.2170 C   0  0  0  0  0  1  0  0  0  0  0  0
  162.6070  204.7340  147.5060 C   0  0  0  0  0  2  0  0  0  0  0  0
  161.3870  203.7530  145.0930 O   0  0  0  0  0  0  0  0  0  0  0  0
  160.7410  202.7920  145.8730 C   0  0  1  0  0  3  0  0  0  0  0  0
  160.4510  201.5720  145.0030 C   0  0  0  0  0  2  0  0  0  0  0  0
  160.8610  200.4210  145.6700 O   0  0  0  0  0  0  0  0  0  0  0  0
  160.2200  199.3760  144.9990 C   0  0  0  0  0  2  0  0  0  0  0  0
  162.1400  198.4420  145.5790 C   0  0  0  0  0  1  0  0  0  0  0  0
  160.7850  198.1600  145.3870 O   0  0  0  0  0  0  0  0  0  0  0  0
  1  3  1  0  0  0  0
  1  8  1  0  0  0  0
  2  5  1  0  0  0  0
  3  7  1  0  0  0  0
  4  6  1  0  0  0  0
  4  3  2  0  0  0  0
  6  2  2  0  0  0  0
  7  5  2  0  0  0  0
  9  8  1  0  0  0  0
  9 13  1  0  0  0  0
 12 11  2  0  0  0  0
 13 10  1  0  0  0  0
 13 12  1  0  0  0  0
 14 12  1  6  0  0  0
 14 34  1  0  0  0  0
 16 26  1  0  0  0  0
 17 28  1  0  0  0  0
 18 16  1  0  0  0  0
 19 27  1  0  0  0  0
 20 17  1  0  0  0  0
 21 23  2  0  0  0  0
 21 27  1  0  0  0  0
 22 15  1  6  0  0  0
 22 28  1  0  0  0  0
 24 22  1  0  0  0  0
 25 16  2  0  0  0  0
 26 24  1  0  0  0  0
 26 20  1  0  0  0  0
 27 14  1  0  0  0  0
 28 21  1  0  0  0  0
 29 30  1  0  0  0  0
 30 33  2  0  0  0  0
 31 32  2  0  0  0  0
 32 33  1  0  0  0  0
 34 31  1  0  0  0  0
 34 29  2  0  0  0  0
 35  1  1  0  0  0  0
 36 35  1  0  0  0  0
 37 36  1  0  0  0  0
 38 37  1  0  0  0  0
 39 46  1  1  0  0  0
 39 45  1  0  0  0  0
 40 48  1  0  0  0  0
 40 38  1  1  0  0  0
 40 44  1  0  0  0  0
 42 43  1  0  0  0  0
 43 40  1  0  0  0  0
 44 41  1  0  0  0  0
 44 47  1  1  0  0  0
 45 48  1  6  0  0  0
 45 41  1  0  0  0  0
 49 42  1  0  0  0  0
 49 50  1  0  0  0  0
 50 51  1  6  0  0  0
 50 39  1  0  0  0  0
 51 52  1  0  0  0  0
 53 55  1  0  0  0  0
 53 52  1  0  0  0  0
 55 54  1  0  0  0  0
M  END
>  <MODEL>
3

>  <REMARK>
 VINA RESULT:      -1.3      2.769      9.724
  Name = 
  16 active torsions:
  status: ('A' for Active; 'I' for Inactive)
    1  A    between atoms: C_3  and  O_25
    2  A    between atoms: C_3  and  O_38
    3  A    between atoms: C_6  and  C_22
    4  A    between atoms: C_8  and  C_43
    5  A    between atoms: C_8  and  C_54
    6  A    between atoms: C_19  and  C_45
    7  A    between atoms: C_22  and  C_43
    8  A    between atoms: C_26  and  C_45
    9  A    between atoms: C_27  and  N_51
   10  A    between atoms: C_29  and  O_38
   11  A    between atoms: C_29  and  C_53
   12  A    between atoms: C_35  and  C_40
   13  A    between atoms: C_35  and  N_51
   14  A    between atoms: N_37  and  C_40
   15  A    between atoms: C_45  and  N_49
   16  A    between atoms: N_51  and  C_54
                            x       y       z     vdW  Elec       q    Type
                         _______ _______ _______ _____ _____    ______ ____

>  <TORSDO>
F 16

$$$$
=
 OpenBabel11062408483D

 55 59  0  0  1  0  0  0  0  0999 V2000
  161.4140  212.4640  149.6080 N   0  0  0  0  0  0  0  0  0  0  0  0
  161.4230  213.6910  145.5330 C   0  0  0  0  0  3  0  0  0  0  0  0
  161.4160  212.8800  148.2240 C   0  0  0  0  0  0  0  0  0  0  0  0
  160.2090  213.1380  147.5500 C   0  0  0  0  0  3  0  0  0  0  0  0
  162.6280  213.4390  146.1900 C   0  0  0  0  0  3  0  0  0  0  0  0
  160.2120  213.5410  146.2110 C   0  0  0  0  0  3  0  0  0  0  0  0
  162.6260  213.0340  147.5290 C   0  0  0  0  0  3  0  0  0  0  0  0
  160.8330  213.3190  150.6430 C   0  0  0  0  0  2  0  0  0  0  0  0
  159.9550  212.5180  151.5940 C   0  0  0  0  0  2  0  0  0  0  0  0
  158.0490  213.1210  150.0670 C   0  0  0  0  0  1  0  0  0  0  0  0
  156.5500  213.4690  152.4530 O   0  0  0  0  0  0  0  0  0  0  0  0
  157.6510  212.8560  152.5280 C   0  0  0  0  0  0  0  0  0  0  0  0
  158.5490  212.8520  151.4090 N   0  0  0  0  0  0  0  0  0  0  0  0
  158.0200  212.1120  153.7850 C   0  0  1  0  0  3  0  0  0  0  0  0
  161.4620  207.8190  155.9700 O   0  0  0  0  0  1  0  0  0  0  0  0
  161.9550  205.6290  152.7210 C   0  0  0  0  0  0  0  0  0  0  0  0
  161.5330  209.2900  153.3880 C   0  0  0  0  0  2  0  0  0  0  0  0
  161.4260  204.3940  153.0970 O   0  0  0  0  0  1  0  0  0  0  0  0
  159.0680  210.5540  152.1700 C   0  0  0  0  0  1  0  0  0  0  0  0
  161.5350  208.0890  152.4450 C   0  0  0  0  0  2  0  0  0  0  0  0
  159.5500  210.2540  154.6200 C   0  0  0  0  0  0  0  0  0  0  0  0
  160.3470  207.9420  155.1360 C   0  0  2  0  0  3  0  0  0  0  0  0
  159.2420  210.5080  155.8180 O   0  0  0  0  0  0  0  0  0  0  0  0
  160.2800  206.7530  154.1830 C   0  0  0  0  0  2  0  0  0  0  0  0
  162.9560  205.6640  151.9530 O   0  0  0  0  0  0  0  0  0  0  0  0
  161.3490  206.8400  153.1890 N   0  0  0  0  0  0  0  0  0  0  0  0
  158.9610  211.0160  153.5450 N   0  0  0  0  0  0  0  0  0  0  0  0
  160.4430  209.1660  154.3510 N   0  0  0  0  0  0  0  0  0  0  0  0
  159.6260  213.6410  155.0430 C   0  0  0  0  0  3  0  0  0  0  0  0
  159.9590  214.3860  156.1810 C   0  0  0  0  0  3  0  0  0  0  0  0
  157.5140  213.0290  156.0640 C   0  0  0  0  0  3  0  0  0  0  0  0
  157.8460  213.7770  157.2000 C   0  0  0  0  0  3  0  0  0  0  0  0
  159.0720  214.4530  157.2610 C   0  0  0  0  0  3  0  0  0  0  0  0
  158.3980  212.9590  154.9760 C   0  0  0  0  0  0  0  0  0  0  0  0
  162.0040  211.1860  150.0080 C   0  0  0  0  0  2  0  0  0  0  0  0
  161.7950  210.1360  148.9200 C   0  0  0  0  0  2  0  0  0  0  0  0
  163.0000  209.2060  148.8150 C   0  0  0  0  0  2  0  0  0  0  0  0
  162.7330  207.8610  149.4920 C   0  0  0  0  0  2  0  0  0  0  0  0
  161.7460  203.3750  147.9410 C   0  0  1  0  0  3  0  0  0  0  0  0
  162.0920  206.7860  148.5960 C   0  0  2  0  0  0  0  0  0  0  0  0
  160.3280  205.1320  149.1330 C   0  0  0  0  0  2  0  0  0  0  0  0
  161.7320  206.1140  146.1320 C   0  0  0  0  0  2  0  0  0  0  0  0
  162.3770  207.0930  147.1130 C   0  0  0  0  0  2  0  0  0  0  0  0
  160.5740  206.5990  148.8210 C   0  0  1  0  0  3  0  0  0  0  0  0
  161.6690  204.4160  149.0730 C   0  0  2  0  0  3  0  0  0  0  0  0
  160.8250  202.2110  148.2850 C   0  0  0  0  0  1  0  0  0  0  0  0
  159.9470  207.4510  149.9190 C   0  0  0  0  0  1  0  0  0  0  0  0
  162.7540  205.4690  148.9740 C   0  0  0  0  0  2  0  0  0  0  0  0
  162.3940  204.8850  146.1800 O   0  0  0  0  0  0  0  0  0  0  0  0
  161.4210  203.9560  146.5540 C   0  0  1  0  0  3  0  0  0  0  0  0
  161.3460  202.8710  145.4830 C   0  0  0  0  0  2  0  0  0  0  0  0
  160.1250  202.9610  144.8200 O   0  0  0  0  0  0  0  0  0  0  0  0
  159.6960  201.6380  144.6880 C   0  0  0  0  0  2  0  0  0  0  0  0
  160.3890  199.7880  145.6850 C   0  0  0  0  0  1  0  0  0  0  0  0
  160.7940  200.7820  144.7900 O   0  0  0  0  0  0  0  0  0  0  0  0
  1 35  1  0  0  0  0
  1  8  1  0  0  0  0
  2  5  2  0  0  0  0
  2  6  1  0  0  0  0
  3  1  1  0  0  0  0
  4  3  1  0  0  0  0
  5  7  1  0  0  0  0
  6  4  2  0  0  0  0
  7  3  2  0  0  0  0
  8  9  1  0  0  0  0
 10 13  1  0  0  0  0
 11 12  2  0  0  0  0
 13  9  1  0  0  0  0
 13 12  1  0  0  0  0
 14 12  1  6  0  0  0
 14 34  1  0  0  0  0
 16 18  1  0  0  0  0
 16 26  1  0  0  0  0
 17 28  1  0  0  0  0
 19 27  1  0  0  0  0
 20 26  1  0  0  0  0
 20 17  1  0  0  0  0
 21 23  2  0  0  0  0
 22 15  1  1  0  0  0
 24 22  1  0  0  0  0
 25 16  2  0  0  0  0
 26 24  1  0  0  0  0
 27 14  1  0  0  0  0
 27 21  1  0  0  0  0
 28 21  1  0  0  0  0
 28 22  1  0  0  0  0
 29 30  1  0  0  0  0
 30 33  2  0  0  0  0
 31 32  2  0  0  0  0
 32 33  1  0  0  0  0
 34 29  2  0  0  0  0
 34 31  1  0  0  0  0
 36 35  1  0  0  0  0
 37 36  1  0  0  0  0
 37 38  1  0  0  0  0
 39 46  1  1  0  0  0
 39 45  1  0  0  0  0
 40 44  1  0  0  0  0
 40 48  1  0  0  0  0
 40 38  1  1  0  0  0
 42 49  1  0  0  0  0
 42 43  1  0  0  0  0
 43 40  1  0  0  0  0
 44 41  1  0  0  0  0
 44 47  1  1  0  0  0
 45 48  1  6  0  0  0
 45 41  1  0  0  0  0
 49 50  1  0  0  0  0
 50 51  1  6  0  0  0
 50 39  1  0  0  0  0
 52 51  1  0  0  0  0
 53 55  1  0  0  0  0
 53 52  1  0  0  0  0
 55 54  1  0  0  0  0
M  END
>  <MODEL>
4

>  <REMARK>
 VINA RESULT:      -1.1      2.333      9.761
  Name = 
  16 active torsions:
  status: ('A' for Active; 'I' for Inactive)
    1  A    between atoms: C_3  and  O_25
    2  A    between atoms: C_3  and  O_38
    3  A    between atoms: C_6  and  C_22
    4  A    between atoms: C_8  and  C_43
    5  A    between atoms: C_8  and  C_54
    6  A    between atoms: C_19  and  C_45
    7  A    between atoms: C_22  and  C_43
    8  A    between atoms: C_26  and  C_45
    9  A    between atoms: C_27  and  N_51
   10  A    between atoms: C_29  and  O_38
   11  A    between atoms: C_29  and  C_53
   12  A    between atoms: C_35  and  C_40
   13  A    between atoms: C_35  and  N_51
   14  A    between atoms: N_37  and  C_40
   15  A    between atoms: C_45  and  N_49
   16  A    between atoms: N_51  and  C_54
                            x       y       z     vdW  Elec       q    Type
                         _______ _______ _______ _____ _____    ______ ____

>  <TORSDO>
F 16

$$$$
=
 OpenBabel11062408483D

 55 59  0  0  1  0  0  0  0  0999 V2000
  161.5730  208.1470  140.7580 N   0  0  0  0  0  0  0  0  0  0  0  0
  162.2950  206.2570  137.0140 C   0  0  0  0  0  3  0  0  0  0  0  0
  161.8200  207.5050  139.4870 C   0  0  0  0  0  0  0  0  0  0  0  0
  162.5290  206.2920  139.4210 C   0  0  0  0  0  3  0  0  0  0  0  0
  161.5890  207.4610  137.0660 C   0  0  0  0  0  3  0  0  0  0  0  0
  162.7660  205.6710  138.1900 C   0  0  0  0  0  3  0  0  0  0  0  0
  161.3540  208.0830  138.2960 C   0  0  0  0  0  3  0  0  0  0  0  0
  160.9290  209.4590  140.8180 C   0  0  0  0  0  2  0  0  0  0  0  0
  161.8860  210.5220  141.3360 C   0  0  0  0  0  2  0  0  0  0  0  0
  162.9750  210.6640  139.0730 C   0  0  0  0  0  1  0  0  0  0  0  0
  163.0570  213.4630  139.5430 O   0  0  0  0  0  0  0  0  0  0  0  0
  162.3160  212.7580  140.2830 C   0  0  0  0  0  0  0  0  0  0  0  0
  162.4100  211.3280  140.2420 N   0  0  0  0  0  0  0  0  0  0  0  0
  161.3180  213.4150  141.2010 C   0  0  1  0  0  3  0  0  0  0  0  0
  157.4810  211.6270  137.0620 O   0  0  0  0  0  1  0  0  0  0  0  0
  154.2920  211.0220  139.3130 C   0  0  0  0  0  0  0  0  0  0  0  0
  157.1650  213.4240  139.4090 C   0  0  0  0  0  2  0  0  0  0  0  0
  154.0210  209.6700  139.1090 O   0  0  0  0  0  0  0  0  0  0  0  0
  158.9370  213.2300  141.8540 C   0  0  0  0  0  1  0  0  0  0  0  0
  155.9730  212.7310  140.0640 C   0  0  0  0  0  2  0  0  0  0  0  0
  159.5800  212.6920  139.4820 C   0  0  0  0  0  0  0  0  0  0  0  0
  157.8690  211.2630  138.3550 C   0  0  2  0  0  3  0  0  0  0  0  0
  160.4870  212.4150  138.6490 O   0  0  0  0  0  0  0  0  0  0  0  0
  156.7230  210.5400  139.0550 C   0  0  0  0  0  2  0  0  0  0  0  0
  153.3330  211.8290  139.4640 O   0  0  0  0  0  1  0  0  0  0  0  0
  155.6490  211.4810  139.3700 N   0  0  0  0  0  0  0  0  0  0  0  0
  159.9300  213.1890  140.7920 N   0  0  0  0  0  0  0  0  0  0  0  0
  158.2140  212.4500  139.1250 N   0  0  0  0  0  0  0  0  0  0  0  0
  160.5140  212.7260  143.5200 C   0  0  0  0  0  3  0  0  0  0  0  0
  160.7390  212.5840  144.8950 C   0  0  0  0  0  3  0  0  0  0  0  0
  162.7760  213.5520  143.2380 C   0  0  0  0  0  3  0  0  0  0  0  0
  163.0020  213.4060  144.6110 C   0  0  0  0  0  3  0  0  0  0  0  0
  161.9810  212.9250  145.4420 C   0  0  0  0  0  3  0  0  0  0  0  0
  161.5340  213.2090  142.6810 C   0  0  0  0  0  0  0  0  0  0  0  0
  161.9730  207.5070  142.0110 C   0  0  0  0  0  2  0  0  0  0  0  0
  161.2710  206.1600  142.1740 C   0  0  0  0  0  2  0  0  0  0  0  0
  161.4870  205.5930  143.5740 C   0  0  0  0  0  2  0  0  0  0  0  0
  161.0250  206.5720  144.6540 C   0  0  0  0  0  2  0  0  0  0  0  0
  160.5380  204.0180  148.7470 C   0  0  1  0  0  3  0  0  0  0  0  0
  161.3370  206.1520  146.1010 C   0  0  2  0  0  0  0  0  0  0  0  0
  162.3540  204.0590  146.9510 C   0  0  0  0  0  2  0  0  0  0  0  0
  161.6820  207.0830  148.4810 C   0  0  0  0  0  2  0  0  0  0  0  0
  161.3240  207.3840  147.0260 C   0  0  0  0  0  2  0  0  0  0  0  0
  162.6650  205.3770  146.2620 C   0  0  1  0  0  3  0  0  0  0  0  0
  160.8600  204.0310  147.2410 C   0  0  2  0  0  3  0  0  0  0  0  0
  160.9590  202.6730  149.3250 C   0  0  0  0  0  1  0  0  0  0  0  0
  163.4380  205.0940  144.9780 C   0  0  0  0  0  1  0  0  0  0  0  0
  160.2240  205.2000  146.5170 C   0  0  0  0  0  2  0  0  0  0  0  0
  160.6320  206.3990  149.0990 O   0  0  0  0  0  0  0  0  0  0  0  0
  161.1800  205.1850  149.5180 C   0  0  1  0  0  3  0  0  0  0  0  0
  160.9790  205.0530  151.0250 C   0  0  0  0  0  2  0  0  0  0  0  0
  161.8810  205.8820  151.6850 O   0  0  0  0  0  0  0  0  0  0  0  0
  161.0950  206.9090  152.2150 C   0  0  0  0  0  2  0  0  0  0  0  0
  161.1660  207.2600  154.3980 C   0  0  0  0  0  1  0  0  0  0  0  0
  160.5320  206.4880  153.4210 O   0  0  0  0  0  0  0  0  0  0  0  0
  1  8  1  0  0  0  0
  1 35  1  0  0  0  0
  2  5  2  0  0  0  0
  2  6  1  0  0  0  0
  3  1  1  0  0  0  0
  4  3  1  0  0  0  0
  5  7  1  0  0  0  0
  6  4  2  0  0  0  0
  7  3  2  0  0  0  0
  8  9  1  0  0  0  0
 10 13  1  0  0  0  0
 11 12  2  0  0  0  0
 13 12  1  0  0  0  0
 13  9  1  0  0  0  0
 14 12  1  6  0  0  0
 14 34  1  0  0  0  0
 16 26  1  0  0  0  0
 16 25  1  0  0  0  0
 17 20  1  0  0  0  0
 18 16  2  0  0  0  0
 21 27  1  0  0  0  0
 22 15  1  6  0  0  0
 22 24  1  0  0  0  0
 22 28  1  0  0  0  0
 23 21  2  0  0  0  0
 24 26  1  0  0  0  0
 26 20  1  0  0  0  0
 27 14  1  0  0  0  0
 27 19  1  0  0  0  0
 28 17  1  0  0  0  0
 28 21  1  0  0  0  0
 29 30  1  0  0  0  0
 30 33  2  0  0  0  0
 31 32  2  0  0  0  0
 32 33  1  0  0  0  0
 34 31  1  0  0  0  0
 34 29  2  0  0  0  0
 35 36  1  0  0  0  0
 36 37  1  0  0  0  0
 37 38  1  0  0  0  0
 39 46  1  1  0  0  0
 39 50  1  0  0  0  0
 40 38  1  6  0  0  0
 40 44  1  0  0  0  0
 40 48  1  0  0  0  0
 40 43  1  0  0  0  0
 41 45  1  0  0  0  0
 42 49  1  0  0  0  0
 43 42  1  0  0  0  0
 44 47  1  6  0  0  0
 44 41  1  0  0  0  0
 45 48  1  1  0  0  0
 45 39  1  0  0  0  0
 49 50  1  0  0  0  0
 50 51  1  1  0  0  0
 51 52  1  0  0  0  0
 52 53  1  0  0  0  0
 53 55  1  0  0  0  0
 55 54  1  0  0  0  0
M  END
>  <MODEL>
5

>  <REMARK>
 VINA RESULT:      -0.3      6.652     10.952
  Name = 
  16 active torsions:
  status: ('A' for Active; 'I' for Inactive)
    1  A    between atoms: C_3  and  O_25
    2  A    between atoms: C_3  and  O_38
    3  A    between atoms: C_6  and  C_22
    4  A    between atoms: C_8  and  C_43
    5  A    between atoms: C_8  and  C_54
    6  A    between atoms: C_19  and  C_45
    7  A    between atoms: C_22  and  C_43
    8  A    between atoms: C_26  and  C_45
    9  A    between atoms: C_27  and  N_51
   10  A    between atoms: C_29  and  O_38
   11  A    between atoms: C_29  and  C_53
   12  A    between atoms: C_35  and  C_40
   13  A    between atoms: C_35  and  N_51
   14  A    between atoms: N_37  and  C_40
   15  A    between atoms: C_45  and  N_49
   16  A    between atoms: N_51  and  C_54
                            x       y       z     vdW  Elec       q    Type
                         _______ _______ _______ _____ _____    ______ ____

>  <TORSDO>
F 16

$$$$
