=
 OpenBabel11052422163D

 25 29  0  0  1  0  0  0  0  0999 V2000
  161.3120  204.9110  148.7750 C   0  0  0  0  0  0  0  0  0  0  0  0
  160.8760  206.2400  149.3140 C   0  0  0  0  0  0  0  0  0  0  0  0
  162.5120  205.8480  146.8830 C   0  0  0  0  0  3  0  0  0  0  0  0
  160.9320  203.6780  149.0530 C   0  0  0  0  0  0  0  0  0  0  0  0
  160.3830  200.9630  149.1720 C   0  0  0  0  0  3  0  0  0  0  0  0
  162.3290  207.1910  147.4880 C   0  0  0  0  0  3  0  0  0  0  0  0
  161.4340  202.8240  148.0760 C   0  0  0  0  0  0  0  0  0  0  0  0
  161.1730  201.4550  148.1190 C   0  0  0  0  0  3  0  0  0  0  0  0
  161.5760  208.6840  149.3020 C   0  0  0  0  0  0  0  0  0  0  0  0
  161.8380  209.9500  148.5600 C   0  0  0  0  0  1  0  0  0  0  0  0
  160.9920  206.3490  150.8060 C   0  0  0  0  0  3  0  0  0  0  0  0
  159.8610  201.8360  150.1490 C   0  0  0  0  0  3  0  0  0  0  0  0
  162.0410  204.7910  147.5390 C   0  0  0  0  0  0  0  0  0  0  0  0
  162.1030  203.4260  147.1370 N   0  0  0  0  0  0  0  0  0  0  0  0
  161.3540  208.7280  150.5840 N   0  0  0  0  0  0  0  0  0  0  0  0
  160.1290  203.2130  150.0940 C   0  0  0  0  0  3  0  0  0  0  0  0
  161.1530  207.5480  151.3930 C   0  0  0  0  0  0  0  0  0  0  0  0
  161.6210  207.3740  148.6250 C   0  0  2  0  0  3  0  0  0  0  0  0
  161.2380  209.0600  154.8590 C   0  0  0  0  0  0  0  0  0  0  0  0
  161.1800  207.6640  152.8670 C   0  0  0  0  0  0  0  0  0  0  0  0
  161.2120  208.9320  153.4670 C   0  0  0  0  0  3  0  0  0  0  0  0
  161.2720  210.3210  155.4390 O   0  0  0  0  0  1  0  0  0  0  0  0
  161.1700  206.5240  153.6890 C   0  0  0  0  0  3  0  0  0  0  0  0
  161.2290  207.9190  155.6660 C   0  0  0  0  0  3  0  0  0  0  0  0
  161.1960  206.6520  155.0810 C   0  0  0  0  0  3  0  0  0  0  0  0
  1  4  1  0  0  0  0
  1  2  2  0  0  0  0
  2 11  1  0  0  0  0
  3  6  2  0  0  0  0
  3 13  1  0  0  0  0
  4 16  1  0  0  0  0
  5 12  1  0  0  0  0
  7  8  1  0  0  0  0
  7  4  2  0  0  0  0
  8  5  2  0  0  0  0
  9 15  2  0  0  0  0
 10  9  1  0  0  0  0
 11 17  2  0  0  0  0
 13  1  1  0  0  0  0
 14 13  2  0  0  0  0
 14  7  1  0  0  0  0
 15 17  1  0  0  0  0
 16 12  2  0  0  0  0
 17 20  1  0  0  0  0
 18  6  1  1  0  0  0
 18  9  1  0  0  0  0
 18  2  1  0  0  0  0
 19 22  1  0  0  0  0
 19 24  1  0  0  0  0
 20 21  1  0  0  0  0
 20 23  2  0  0  0  0
 21 19  2  0  0  0  0
 23 25  1  0  0  0  0
 25 24  2  0  0  0  0
M  END
>  <MODEL>
1

>  <REMARK>
 VINA RESULT:      -9.7      0.000      0.000
  Name = 
  1 active torsions:
  status: ('A' for Active; 'I' for Inactive)
    1  A    between atoms: C_6  and  C_23
                            x       y       z     vdW  Elec       q    Type
                         _______ _______ _______ _____ _____    ______ ____

>  <TORSDO>
F 1

$$$$
=
 OpenBabel11052422163D

 25 29  0  0  1  0  0  0  0  0999 V2000
  161.2130  206.5320  151.1600 C   0  0  0  0  0  0  0  0  0  0  0  0
  161.4930  207.5940  152.1780 C   0  0  1  0  0  3  0  0  0  0  0  0
  161.0780  204.7300  152.7830 C   0  0  0  0  0  3  0  0  0  0  0  0
  161.3070  206.5240  149.8430 C   0  0  0  0  0  0  0  0  0  0  0  0
  161.4760  205.9690  147.1320 C   0  0  0  0  0  3  0  0  0  0  0  0
  161.1050  205.7550  153.8560 C   0  0  0  0  0  3  0  0  0  0  0  0
  161.2110  205.2100  149.3940 C   0  0  0  0  0  0  0  0  0  0  0  0
  161.2890  204.9100  148.0360 C   0  0  0  0  0  3  0  0  0  0  0  0
  161.1160  208.0940  154.6420 C   0  0  0  0  0  0  0  0  0  0  0  0
  161.3370  207.7600  156.0770 C   0  0  0  0  0  1  0  0  0  0  0  0
  160.7380  208.8690  151.9380 C   0  0  0  0  0  3  0  0  0  0  0  0
  161.5920  207.2980  147.5930 C   0  0  0  0  0  3  0  0  0  0  0  0
  161.1030  205.1410  151.5180 C   0  0  0  0  0  0  0  0  0  0  0  0
  161.0910  204.3320  150.3460 N   0  0  0  0  0  0  0  0  0  0  0  0
  160.7480  209.3000  154.3160 N   0  0  0  0  0  0  0  0  0  0  0  0
  161.5140  207.5870  148.9650 C   0  0  0  0  0  3  0  0  0  0  0  0
  160.4510  209.6960  152.9580 C   0  0  0  0  0  0  0  0  0  0  0  0
  161.2480  207.0730  153.5860 C   0  0  0  0  0  0  0  0  0  0  0  0
  159.6800  213.0980  151.4970 C   0  0  0  0  0  0  0  0  0  0  0  0
  159.7830  210.9920  152.7090 C   0  0  0  0  0  0  0  0  0  0  0  0
  160.3000  211.8700  151.7440 C   0  0  0  0  0  3  0  0  0  0  0  0
  160.2020  213.9580  150.5400 O   0  0  0  0  0  1  0  0  0  0  0  0
  158.6310  211.3670  153.4220 C   0  0  0  0  0  3  0  0  0  0  0  0
  158.5360  213.4610  152.2120 C   0  0  0  0  0  3  0  0  0  0  0  0
  158.0120  212.5960  153.1750 C   0  0  0  0  0  3  0  0  0  0  0  0
  1 13  1  0  0  0  0
  1  2  1  0  0  0  0
  2 11  1  6  0  0  0
  2 18  1  0  0  0  0
  3  6  1  0  0  0  0
  4  1  2  0  0  0  0
  5 12  1  0  0  0  0
  5  8  2  0  0  0  0
  7  4  1  0  0  0  0
  7 14  2  0  0  0  0
  8  7  1  0  0  0  0
  9 10  1  0  0  0  0
 11 17  2  0  0  0  0
 12 16  2  0  0  0  0
 13  3  2  0  0  0  0
 14 13  1  0  0  0  0
 15  9  2  0  0  0  0
 16  4  1  0  0  0  0
 17 15  1  0  0  0  0
 18  6  2  0  0  0  0
 18  9  1  0  0  0  0
 19 21  2  0  0  0  0
 19 24  1  0  0  0  0
 20 17  1  0  0  0  0
 20 23  2  0  0  0  0
 21 20  1  0  0  0  0
 22 19  1  0  0  0  0
 24 25  2  0  0  0  0
 25 23  1  0  0  0  0
M  END
>  <MODEL>
2

>  <REMARK>
 VINA RESULT:      -9.4      2.751      4.974
  Name = 
  1 active torsions:
  status: ('A' for Active; 'I' for Inactive)
    1  A    between atoms: C_6  and  C_23
                            x       y       z     vdW  Elec       q    Type
                         _______ _______ _______ _____ _____    ______ ____

>  <TORSDO>
F 1

$$$$
=
 OpenBabel11052422163D

 25 29  0  0  1  0  0  0  0  0999 V2000
  161.6660  206.5590  149.2610 C   0  0  0  0  0  0  0  0  0  0  0  0
  162.2660  207.8540  149.7150 C   0  0  1  0  0  3  0  0  0  0  0  0
  160.8120  205.9550  151.4530 C   0  0  0  0  0  3  0  0  0  0  0  0
  161.8110  205.8600  148.1500 C   0  0  0  0  0  0  0  0  0  0  0  0
  161.8900  203.9920  146.1030 C   0  0  0  0  0  3  0  0  0  0  0  0
  161.1610  207.3210  151.9160 C   0  0  0  0  0  3  0  0  0  0  0  0
  161.2640  204.5950  148.3420 C   0  0  0  0  0  0  0  0  0  0  0  0
  161.2900  203.6430  147.3240 C   0  0  0  0  0  3  0  0  0  0  0  0
  161.9840  209.6150  151.5280 C   0  0  0  0  0  0  0  0  0  0  0  0
  162.0030  210.0030  152.9660 C   0  0  0  0  0  1  0  0  0  0  0  0
  162.0370  208.9890  148.7600 C   0  0  0  0  0  3  0  0  0  0  0  0
  162.4590  205.2700  145.9200 C   0  0  0  0  0  3  0  0  0  0  0  0
  161.0420  205.6430  150.1800 C   0  0  0  0  0  0  0  0  0  0  0  0
  160.7910  204.3970  149.5360 N   0  0  0  0  0  0  0  0  0  0  0  0
  162.0950  210.5370  150.6150 N   0  0  0  0  0  0  0  0  0  0  0  0
  162.4290  206.2200  146.9530 C   0  0  0  0  0  3  0  0  0  0  0  0
  162.0240  210.2600  149.1980 C   0  0  0  0  0  0  0  0  0  0  0  0
  161.7840  208.2130  151.1130 C   0  0  0  0  0  0  0  0  0  0  0  0
  160.5740  212.5550  146.5650 C   0  0  0  0  0  0  0  0  0  0  0  0
  161.8850  211.3820  148.2450 C   0  0  0  0  0  0  0  0  0  0  0  0
  160.7210  211.5000  147.4710 C   0  0  0  0  0  3  0  0  0  0  0  0
  159.4180  212.6590  145.8040 O   0  0  0  0  0  1  0  0  0  0  0  0
  162.9000  212.3440  148.0980 C   0  0  0  0  0  3  0  0  0  0  0  0
  161.5890  213.5050  146.4270 C   0  0  0  0  0  3  0  0  0  0  0  0
  162.7520  213.3990  147.1930 C   0  0  0  0  0  3  0  0  0  0  0  0
  1  2  1  0  0  0  0
  1 13  1  0  0  0  0
  2 11  1  6  0  0  0
  2 18  1  0  0  0  0
  3  6  1  0  0  0  0
  4  7  1  0  0  0  0
  4  1  2  0  0  0  0
  5  8  2  0  0  0  0
  7 14  2  0  0  0  0
  8  7  1  0  0  0  0
  9 10  1  0  0  0  0
 11 17  2  0  0  0  0
 12  5  1  0  0  0  0
 12 16  2  0  0  0  0
 13  3  2  0  0  0  0
 14 13  1  0  0  0  0
 15  9  2  0  0  0  0
 16  4  1  0  0  0  0
 17 15  1  0  0  0  0
 18  9  1  0  0  0  0
 18  6  2  0  0  0  0
 19 21  1  0  0  0  0
 20 17  1  0  0  0  0
 21 20  2  0  0  0  0
 22 19  1  0  0  0  0
 23 20  1  0  0  0  0
 24 19  2  0  0  0  0
 24 25  1  0  0  0  0
 25 23  2  0  0  0  0
M  END
>  <MODEL>
3

>  <REMARK>
 VINA RESULT:      -9.4      2.786      5.601
  Name = 
  1 active torsions:
  status: ('A' for Active; 'I' for Inactive)
    1  A    between atoms: C_6  and  C_23
                            x       y       z     vdW  Elec       q    Type
                         _______ _______ _______ _____ _____    ______ ____

>  <TORSDO>
F 1

$$$$
=
 OpenBabel11052422163D

 25 29  0  0  1  0  0  0  0  0999 V2000
  160.8340  208.9580  153.3890 C   0  0  0  0  0  0  0  0  0  0  0  0
  161.6410  208.4780  152.2220 C   0  0  0  0  0  0  0  0  0  0  0  0
  160.4520  211.1730  152.4690 C   0  0  0  0  0  3  0  0  0  0  0  0
  160.6540  208.4660  154.6010 C   0  0  0  0  0  0  0  0  0  0  0  0
  160.0870  207.9270  157.2610 C   0  0  0  0  0  3  0  0  0  0  0  0
  161.0240  210.6910  151.1870 C   0  0  0  0  0  3  0  0  0  0  0  0
  160.0500  209.4370  155.3940 C   0  0  0  0  0  0  0  0  0  0  0  0
  159.7520  209.1850  156.7320 C   0  0  0  0  0  3  0  0  0  0  0  0
  161.9480  208.9210  149.7380 C   0  0  0  0  0  0  0  0  0  0  0  0
  162.3320  209.8360  148.6260 C   0  0  0  0  0  1  0  0  0  0  0  0
  161.3070  207.0770  151.7980 C   0  0  0  0  0  3  0  0  0  0  0  0
  160.7170  206.9530  156.4580 C   0  0  0  0  0  3  0  0  0  0  0  0
  160.3540  210.3130  153.4790 C   0  0  0  0  0  0  0  0  0  0  0  0
  159.8460  210.5680  154.7850 N   0  0  0  0  0  0  0  0  0  0  0  0
  161.9330  207.6350  149.5310 N   0  0  0  0  0  0  0  0  0  0  0  0
  161.0130  207.2200  155.1110 C   0  0  0  0  0  3  0  0  0  0  0  0
  161.5140  206.6790  150.5310 C   0  0  0  0  0  0  0  0  0  0  0  0
  161.5280  209.4430  151.0510 C   0  0  2  0  0  3  0  0  0  0  0  0
  161.1310  203.5820  148.3940 C   0  0  0  0  0  0  0  0  0  0  0  0
  161.2660  205.2760  150.1350 C   0  0  0  0  0  0  0  0  0  0  0  0
  161.3620  204.9040  148.7850 C   0  0  0  0  0  3  0  0  0  0  0  0
  161.2280  203.2280  147.0560 O   0  0  0  0  0  1  0  0  0  0  0  0
  160.9370  204.2970  151.0880 C   0  0  0  0  0  3  0  0  0  0  0  0
  160.8030  202.6170  149.3500 C   0  0  0  0  0  3  0  0  0  0  0  0
  160.7060  202.9740  150.6970 C   0  0  0  0  0  3  0  0  0  0  0  0
  1 13  1  0  0  0  0
  1  4  1  0  0  0  0
  2  1  2  0  0  0  0
  3 13  1  0  0  0  0
  4 16  2  0  0  0  0
  4  7  1  0  0  0  0
  6  3  2  0  0  0  0
  7  8  2  0  0  0  0
  8  5  1  0  0  0  0
  9 18  1  0  0  0  0
 10  9  1  0  0  0  0
 11  2  1  0  0  0  0
 12  5  2  0  0  0  0
 13 14  2  0  0  0  0
 14  7  1  0  0  0  0
 15  9  2  0  0  0  0
 15 17  1  0  0  0  0
 16 12  1  0  0  0  0
 17 11  2  0  0  0  0
 18  6  1  6  0  0  0
 18  2  1  0  0  0  0
 19 21  2  0  0  0  0
 19 24  1  0  0  0  0
 20 17  1  0  0  0  0
 20 23  2  0  0  0  0
 21 20  1  0  0  0  0
 22 19  1  0  0  0  0
 24 25  2  0  0  0  0
 25 23  1  0  0  0  0
M  END
>  <MODEL>
4

>  <REMARK>
 VINA RESULT:      -9.2      2.762      6.962
  Name = 
  1 active torsions:
  status: ('A' for Active; 'I' for Inactive)
    1  A    between atoms: C_6  and  C_23
                            x       y       z     vdW  Elec       q    Type
                         _______ _______ _______ _____ _____    ______ ____

>  <TORSDO>
F 1

$$$$
=
 OpenBabel11052422163D

 25 29  0  0  1  0  0  0  0  0999 V2000
  160.8380  209.5640  152.7660 C   0  0  0  0  0  0  0  0  0  0  0  0
  161.7170  209.4240  151.5610 C   0  0  0  0  0  0  0  0  0  0  0  0
  160.2640  211.8830  152.3280 C   0  0  0  0  0  3  0  0  0  0  0  0
  160.6770  208.8050  153.8350 C   0  0  0  0  0  0  0  0  0  0  0  0
  160.0990  207.6490  156.2870 C   0  0  0  0  0  3  0  0  0  0  0  0
  160.9120  211.7450  150.9990 C   0  0  0  0  0  3  0  0  0  0  0  0
  159.9610  209.5200  154.7890 C   0  0  0  0  0  0  0  0  0  0  0  0
  159.6560  208.9560  156.0270 C   0  0  0  0  0  3  0  0  0  0  0  0
  162.0410  210.4260  149.2470 C   0  0  0  0  0  0  0  0  0  0  0  0
  162.3610  211.5920  148.3760 C   0  0  0  0  0  1  0  0  0  0  0  0
  161.5320  208.1260  150.8310 C   0  0  0  0  0  3  0  0  0  0  0  0
  160.8420  206.9340  155.3230 C   0  0  0  0  0  3  0  0  0  0  0  0
  160.2250  210.8170  153.1230 C   0  0  0  0  0  0  0  0  0  0  0  0
  159.6630  210.7340  154.4300 N   0  0  0  0  0  0  0  0  0  0  0  0
  162.1570  209.2200  148.7680 N   0  0  0  0  0  0  0  0  0  0  0  0
  161.1440  207.5140  154.0800 C   0  0  0  0  0  3  0  0  0  0  0  0
  161.8090  208.0350  149.5190 C   0  0  0  0  0  0  0  0  0  0  0  0
  161.5390  210.6080  150.6220 C   0  0  2  0  0  3  0  0  0  0  0  0
  162.1180  205.3860  146.8370 C   0  0  0  0  0  0  0  0  0  0  0  0
  161.7100  206.7350  148.8190 C   0  0  0  0  0  0  0  0  0  0  0  0
  162.2040  206.6070  147.5120 C   0  0  0  0  0  3  0  0  0  0  0  0
  162.6090  205.2720  145.5440 O   0  0  0  0  0  1  0  0  0  0  0  0
  161.1300  205.6160  149.4400 C   0  0  0  0  0  3  0  0  0  0  0  0
  161.5380  204.2800  147.4640 C   0  0  0  0  0  3  0  0  0  0  0  0
  161.0430  204.3950  148.7650 C   0  0  0  0  0  3  0  0  0  0  0  0
  1 13  1  0  0  0  0
  1  4  1  0  0  0  0
  2  1  2  0  0  0  0
  3 13  1  0  0  0  0
  4 16  2  0  0  0  0
  4  7  1  0  0  0  0
  6  3  2  0  0  0  0
  7  8  2  0  0  0  0
  8  5  1  0  0  0  0
  9 18  1  0  0  0  0
 10  9  1  0  0  0  0
 11  2  1  0  0  0  0
 12  5  2  0  0  0  0
 13 14  2  0  0  0  0
 14  7  1  0  0  0  0
 15  9  2  0  0  0  0
 15 17  1  0  0  0  0
 16 12  1  0  0  0  0
 17 11  2  0  0  0  0
 18  6  1  6  0  0  0
 18  2  1  0  0  0  0
 19 24  2  0  0  0  0
 19 21  1  0  0  0  0
 20 23  1  0  0  0  0
 20 17  1  0  0  0  0
 21 20  2  0  0  0  0
 22 19  1  0  0  0  0
 24 25  1  0  0  0  0
 25 23  2  0  0  0  0
M  END
>  <MODEL>
5

>  <REMARK>
 VINA RESULT:      -9.0      2.943      7.016
  Name = 
  1 active torsions:
  status: ('A' for Active; 'I' for Inactive)
    1  A    between atoms: C_6  and  C_23
                            x       y       z     vdW  Elec       q    Type
                         _______ _______ _______ _____ _____    ______ ____

>  <TORSDO>
F 1

$$$$
=
 OpenBabel11052422163D

 25 29  0  0  1  0  0  0  0  0999 V2000
  161.6210  206.4550  149.1510 C   0  0  0  0  0  0  0  0  0  0  0  0
  162.2170  207.7440  149.6280 C   0  0  1  0  0  3  0  0  0  0  0  0
  160.8350  205.7750  151.3460 C   0  0  0  0  0  3  0  0  0  0  0  0
  161.7450  205.7910  148.0170 C   0  0  0  0  0  0  0  0  0  0  0  0
  161.7920  203.9850  145.9140 C   0  0  0  0  0  3  0  0  0  0  0  0
  161.1780  207.1320  151.8400 C   0  0  0  0  0  3  0  0  0  0  0  0
  161.2200  204.5130  148.1850 C   0  0  0  0  0  0  0  0  0  0  0  0
  161.2290  203.5910  147.1400 C   0  0  0  0  0  3  0  0  0  0  0  0
  161.9620  209.4470  151.4990 C   0  0  0  0  0  0  0  0  0  0  0  0
  162.0150  209.7930  152.9470 C   0  0  0  0  0  1  0  0  0  0  0  0
  161.9480  208.9030  148.7130 C   0  0  0  0  0  3  0  0  0  0  0  0
  162.3400  205.2750  145.7540 C   0  0  0  0  0  3  0  0  0  0  0  0
  161.0340  205.5040  150.0590 C   0  0  0  0  0  0  0  0  0  0  0  0
  160.7810  204.2740  149.3860 N   0  0  0  0  0  0  0  0  0  0  0  0
  162.0360  210.3970  150.6110 N   0  0  0  0  0  0  0  0  0  0  0  0
  162.3260  206.1940  146.8150 C   0  0  0  0  0  3  0  0  0  0  0  0
  161.9310  210.1600  149.1890 C   0  0  0  0  0  0  0  0  0  0  0  0
  161.7690  208.0560  151.0480 C   0  0  0  0  0  0  0  0  0  0  0  0
  162.5450  213.4340  147.3970 C   0  0  0  0  0  0  0  0  0  0  0  0
  161.7520  211.3080  148.2740 C   0  0  0  0  0  0  0  0  0  0  0  0
  162.6990  212.3420  148.2570 C   0  0  0  0  0  3  0  0  0  0  0  0
  163.4890  214.4510  147.3910 O   0  0  0  0  0  1  0  0  0  0  0  0
  160.6450  211.3850  147.4100 C   0  0  0  0  0  3  0  0  0  0  0  0
  161.4400  213.5010  146.5440 C   0  0  0  0  0  3  0  0  0  0  0  0
  160.4910  212.4770  146.5510 C   0  0  0  0  0  3  0  0  0  0  0  0
  1  2  1  0  0  0  0
  1 13  1  0  0  0  0
  2 11  1  6  0  0  0
  2 18  1  0  0  0  0
  3  6  1  0  0  0  0
  4  7  1  0  0  0  0
  4  1  2  0  0  0  0
  5  8  2  0  0  0  0
  7 14  2  0  0  0  0
  8  7  1  0  0  0  0
  9 10  1  0  0  0  0
 11 17  2  0  0  0  0
 12  5  1  0  0  0  0
 12 16  2  0  0  0  0
 13  3  2  0  0  0  0
 14 13  1  0  0  0  0
 15  9  2  0  0  0  0
 16  4  1  0  0  0  0
 17 15  1  0  0  0  0
 18  9  1  0  0  0  0
 18  6  2  0  0  0  0
 19 21  1  0  0  0  0
 20 17  1  0  0  0  0
 21 20  2  0  0  0  0
 22 19  1  0  0  0  0
 23 20  1  0  0  0  0
 24 25  1  0  0  0  0
 24 19  2  0  0  0  0
 25 23  2  0  0  0  0
M  END
>  <MODEL>
6

>  <REMARK>
 VINA RESULT:      -8.9      2.666      5.462
  Name = 
  1 active torsions:
  status: ('A' for Active; 'I' for Inactive)
    1  A    between atoms: C_6  and  C_23
                            x       y       z     vdW  Elec       q    Type
                         _______ _______ _______ _____ _____    ______ ____

>  <TORSDO>
F 1

$$$$
=
 OpenBabel11052422163D

 25 29  0  0  1  0  0  0  0  0999 V2000
  160.8550  209.1820  153.4380 C   0  0  0  0  0  0  0  0  0  0  0  0
  161.6620  208.7940  152.2370 C   0  0  0  0  0  0  0  0  0  0  0  0
  160.4500  211.4540  152.6820 C   0  0  0  0  0  3  0  0  0  0  0  0
  160.6840  208.6020  154.6120 C   0  0  0  0  0  0  0  0  0  0  0  0
  160.1310  207.8670  157.2270 C   0  0  0  0  0  3  0  0  0  0  0  0
  161.0220  211.0700  151.3670 C   0  0  0  0  0  3  0  0  0  0  0  0
  160.0740  209.5080  155.4750 C   0  0  0  0  0  0  0  0  0  0  0  0
  159.7830  209.1570  156.7920 C   0  0  0  0  0  3  0  0  0  0  0  0
  161.9560  209.4180  149.7900 C   0  0  0  0  0  0  0  0  0  0  0  0
  162.3280  210.4140  148.7460 C   0  0  0  0  0  1  0  0  0  0  0  0
  161.3380  207.4250  151.7140 C   0  0  0  0  0  3  0  0  0  0  0  0
  160.7660  206.9590  156.3540 C   0  0  0  0  0  3  0  0  0  0  0  0
  160.3630  210.5220  153.6270 C   0  0  0  0  0  0  0  0  0  0  0  0
  159.8590  210.6770  154.9500 N   0  0  0  0  0  0  0  0  0  0  0  0
  161.9510  208.1510  149.4910 N   0  0  0  0  0  0  0  0  0  0  0  0
  161.0550  207.3250  155.0290 C   0  0  0  0  0  3  0  0  0  0  0  0
  161.5440  207.1210  150.4210 C   0  0  0  0  0  0  0  0  0  0  0  0
  161.5360  209.8400  151.1400 C   0  0  2  0  0  3  0  0  0  0  0  0
  160.9530  203.3850  150.3830 C   0  0  0  0  0  0  0  0  0  0  0  0
  161.3070  205.7480  149.9250 C   0  0  0  0  0  0  0  0  0  0  0  0
  161.1770  204.6890  150.8360 C   0  0  0  0  0  3  0  0  0  0  0  0
  160.8280  202.3470  151.2950 O   0  0  0  0  0  1  0  0  0  0  0  0
  161.2040  205.4780  148.5490 C   0  0  0  0  0  3  0  0  0  0  0  0
  160.8530  203.1280  149.0130 C   0  0  0  0  0  3  0  0  0  0  0  0
  160.9790  204.1740  148.0970 C   0  0  0  0  0  3  0  0  0  0  0  0
  1 13  1  0  0  0  0
  1  4  1  0  0  0  0
  2  1  2  0  0  0  0
  3 13  1  0  0  0  0
  4 16  2  0  0  0  0
  4  7  1  0  0  0  0
  6  3  2  0  0  0  0
  7  8  2  0  0  0  0
  8  5  1  0  0  0  0
  9 18  1  0  0  0  0
 10  9  1  0  0  0  0
 11  2  1  0  0  0  0
 12  5  2  0  0  0  0
 13 14  2  0  0  0  0
 14  7  1  0  0  0  0
 15  9  2  0  0  0  0
 15 17  1  0  0  0  0
 16 12  1  0  0  0  0
 17 11  2  0  0  0  0
 18  6  1  6  0  0  0
 18  2  1  0  0  0  0
 19 21  1  0  0  0  0
 19 22  1  0  0  0  0
 20 17  1  0  0  0  0
 20 21  2  0  0  0  0
 23 20  1  0  0  0  0
 24 19  2  0  0  0  0
 25 23  2  0  0  0  0
 25 24  1  0  0  0  0
M  END
>  <MODEL>
7

>  <REMARK>
 VINA RESULT:      -8.8      2.501      6.931
  Name = 
  1 active torsions:
  status: ('A' for Active; 'I' for Inactive)
    1  A    between atoms: C_6  and  C_23
                            x       y       z     vdW  Elec       q    Type
                         _______ _______ _______ _____ _____    ______ ____

>  <TORSDO>
F 1

$$$$
=
 OpenBabel11052422163D

 25 29  0  0  1  0  0  0  0  0999 V2000
  161.3630  205.6340  150.3020 C   0  0  0  0  0  0  0  0  0  0  0  0
  161.7540  206.6500  151.3320 C   0  0  1  0  0  3  0  0  0  0  0  0
  160.6980  203.9530  151.9240 C   0  0  0  0  0  3  0  0  0  0  0  0
  161.5850  205.5640  149.0030 C   0  0  0  0  0  0  0  0  0  0  0  0
  161.9050  204.8970  146.3310 C   0  0  0  0  0  3  0  0  0  0  0  0
  160.8280  204.9860  152.9820 C   0  0  0  0  0  3  0  0  0  0  0  0
  161.2640  204.2830  148.5620 C   0  0  0  0  0  0  0  0  0  0  0  0
  161.4140  203.9290  147.2230 C   0  0  0  0  0  3  0  0  0  0  0  0
  161.2430  207.2980  153.7370 C   0  0  0  0  0  0  0  0  0  0  0  0
  161.2460  206.9730  155.1910 C   0  0  0  0  0  1  0  0  0  0  0  0
  161.3060  208.0440  150.9990 C   0  0  0  0  0  3  0  0  0  0  0  0
  162.2460  206.1880  146.7860 C   0  0  0  0  0  3  0  0  0  0  0  0
  160.9320  204.3080  150.6640 C   0  0  0  0  0  0  0  0  0  0  0  0
  160.8720  203.4800  149.5060 N   0  0  0  0  0  0  0  0  0  0  0  0
  161.1670  208.5420  153.3600 N   0  0  0  0  0  0  0  0  0  0  0  0
  162.0930  206.5330  148.1390 C   0  0  0  0  0  3  0  0  0  0  0  0
  161.0960  208.9450  151.9740 C   0  0  0  0  0  0  0  0  0  0  0  0
  161.2660  206.2370  152.7130 C   0  0  0  0  0  0  0  0  0  0  0  0
  160.9340  212.2590  150.1570 C   0  0  0  0  0  0  0  0  0  0  0  0
  160.7390  210.3420  151.6410 C   0  0  0  0  0  0  0  0  0  0  0  0
  161.2620  210.9400  150.4850 C   0  0  0  0  0  3  0  0  0  0  0  0
  161.4600  212.8390  149.0110 O   0  0  0  0  0  1  0  0  0  0  0  0
  159.8760  211.0880  152.4620 C   0  0  0  0  0  3  0  0  0  0  0  0
  160.0770  212.9920  150.9810 C   0  0  0  0  0  3  0  0  0  0  0  0
  159.5480  212.4070  152.1340 C   0  0  0  0  0  3  0  0  0  0  0  0
  1 13  1  0  0  0  0
  1  2  1  0  0  0  0
  2 11  1  6  0  0  0
  2 18  1  0  0  0  0
  3  6  1  0  0  0  0
  4  1  2  0  0  0  0
  5 12  1  0  0  0  0
  5  8  2  0  0  0  0
  7  4  1  0  0  0  0
  7 14  2  0  0  0  0
  8  7  1  0  0  0  0
  9 10  1  0  0  0  0
 11 17  2  0  0  0  0
 12 16  2  0  0  0  0
 13  3  2  0  0  0  0
 14 13  1  0  0  0  0
 15  9  2  0  0  0  0
 16  4  1  0  0  0  0
 17 15  1  0  0  0  0
 18  6  2  0  0  0  0
 18  9  1  0  0  0  0
 19 21  2  0  0  0  0
 19 24  1  0  0  0  0
 20 17  1  0  0  0  0
 20 23  2  0  0  0  0
 21 20  1  0  0  0  0
 22 19  1  0  0  0  0
 24 25  2  0  0  0  0
 25 23  1  0  0  0  0
M  END
>  <MODEL>
8

>  <REMARK>
 VINA RESULT:      -8.7      2.405      4.540
  Name = 
  1 active torsions:
  status: ('A' for Active; 'I' for Inactive)
    1  A    between atoms: C_6  and  C_23
                            x       y       z     vdW  Elec       q    Type
                         _______ _______ _______ _____ _____    ______ ____

>  <TORSDO>
F 1

$$$$
=
 OpenBabel11052422163D

 25 29  0  0  1  0  0  0  0  0999 V2000
  161.4700  204.9550  149.2760 C   0  0  0  0  0  0  0  0  0  0  0  0
  161.9850  205.8890  150.3270 C   0  0  1  0  0  3  0  0  0  0  0  0
  160.5710  203.3480  150.8600 C   0  0  0  0  0  3  0  0  0  0  0  0
  161.6900  204.8800  147.9760 C   0  0  0  0  0  0  0  0  0  0  0  0
  161.9400  204.2270  145.2930 C   0  0  0  0  0  3  0  0  0  0  0  0
  160.8310  204.3330  151.9390 C   0  0  0  0  0  3  0  0  0  0  0  0
  161.2040  203.6630  147.5080 C   0  0  0  0  0  0  0  0  0  0  0  0
  161.3150  203.3170  146.1630 C   0  0  0  0  0  3  0  0  0  0  0  0
  161.5480  206.5530  152.7420 C   0  0  0  0  0  0  0  0  0  0  0  0
  161.4950  206.2030  154.1900 C   0  0  0  0  0  1  0  0  0  0  0  0
  161.7320  207.3360  150.0200 C   0  0  0  0  0  3  0  0  0  0  0  0
  162.4480  205.4510  145.7770 C   0  0  0  0  0  3  0  0  0  0  0  0
  160.8620  203.6920  149.6080 C   0  0  0  0  0  0  0  0  0  0  0  0
  160.6990  202.9020  148.4340 N   0  0  0  0  0  0  0  0  0  0  0  0
  161.6420  207.8030  152.3900 N   0  0  0  0  0  0  0  0  0  0  0  0
  162.3310  205.7880  147.1350 C   0  0  0  0  0  3  0  0  0  0  0  0
  161.6370  208.2390  151.0120 C   0  0  0  0  0  0  0  0  0  0  0  0
  161.4350  205.5180  151.6970 C   0  0  0  0  0  0  0  0  0  0  0  0
  160.6690  211.8790  151.3510 C   0  0  0  0  0  0  0  0  0  0  0  0
  161.4740  209.6770  150.7050 C   0  0  0  0  0  0  0  0  0  0  0  0
  160.8310  210.5180  151.6250 C   0  0  0  0  0  3  0  0  0  0  0  0
  160.0290  212.7000  152.2690 O   0  0  0  0  0  1  0  0  0  0  0  0
  161.9560  210.2250  149.5040 C   0  0  0  0  0  3  0  0  0  0  0  0
  161.1510  212.4130  150.1530 C   0  0  0  0  0  3  0  0  0  0  0  0
  161.7940  211.5860  149.2300 C   0  0  0  0  0  3  0  0  0  0  0  0
  1 13  1  0  0  0  0
  1  2  1  0  0  0  0
  2 11  1  6  0  0  0
  2 18  1  0  0  0  0
  3  6  1  0  0  0  0
  4  1  2  0  0  0  0
  5 12  1  0  0  0  0
  5  8  2  0  0  0  0
  7  4  1  0  0  0  0
  7 14  2  0  0  0  0
  8  7  1  0  0  0  0
  9 10  1  0  0  0  0
 11 17  2  0  0  0  0
 12 16  2  0  0  0  0
 13  3  2  0  0  0  0
 14 13  1  0  0  0  0
 15  9  2  0  0  0  0
 16  4  1  0  0  0  0
 17 15  1  0  0  0  0
 18  6  2  0  0  0  0
 18  9  1  0  0  0  0
 19 21  1  0  0  0  0
 19 22  1  0  0  0  0
 20 17  1  0  0  0  0
 20 21  2  0  0  0  0
 23 20  1  0  0  0  0
 24 19  2  0  0  0  0
 25 23  2  0  0  0  0
 25 24  1  0  0  0  0
M  END
>  <MODEL>
9

>  <REMARK>
 VINA RESULT:      -8.4      1.861      4.218
  Name = 
  1 active torsions:
  status: ('A' for Active; 'I' for Inactive)
    1  A    between atoms: C_6  and  C_23
                            x       y       z     vdW  Elec       q    Type
                         _______ _______ _______ _____ _____    ______ ____

>  <TORSDO>
F 1

$$$$
