=
 OpenBabel11062409113D

 37 40  0  0  1  0  0  0  0  0999 V2000
  160.7050  205.4620  153.6160 N   0  0  0  0  0  2  0  0  0  0  0  0
  161.4220  210.0840  153.9110 C   0  0  2  0  0  3  0  0  0  0  0  0
  161.1200  207.6500  154.6560 C   0  0  2  0  0  3  0  0  0  0  0  0
  160.7350  210.6250  152.7250 N   0  0  0  0  0  0  0  0  0  0  0  0
  161.7280  208.6120  153.6330 C   0  0  1  0  0  3  0  0  0  0  0  0
  161.4770  208.0520  156.0920 C   0  0  0  0  0  2  0  0  0  0  0  0
  161.1710  208.3450  152.3230 N   0  0  2  0  0  0  0  0  0  0  0  0
  161.2260  206.1700  151.2990 C   0  0  0  0  0  3  0  0  0  0  0  0
  160.7420  210.3580  155.2670 C   0  0  1  0  0  3  0  0  0  0  0  0
  161.4410  209.5640  156.3660 C   0  0  0  0  0  2  0  0  0  0  0  0
  162.0240  207.3880  151.6280 C   0  0  0  0  0  2  0  0  0  0  0  0
  160.8240  211.8350  155.6010 C   0  0  0  0  0  1  0  0  0  0  0  0
  161.0680  209.6620  151.6780 C   0  0  2  0  0  3  0  0  0  0  0  0
  161.6510  206.2490  154.4000 C   0  0  0  0  0  2  0  0  0  0  0  0
  160.6370  205.3570  152.1840 C   0  0  0  0  0  3  0  0  0  0  0  0
  159.2770  210.5730  152.8840 C   0  0  0  0  0  2  0  0  0  0  0  0
  159.4750  212.7070  151.5830 C   0  0  0  0  0  1  0  0  0  0  0  0
  158.6200  211.9110  152.5520 C   0  0  2  0  0  3  0  0  0  0  0  0
  158.3280  212.7140  153.8190 C   0  0  0  0  0  2  0  0  0  0  0  0
  157.0430  211.1490  155.3440 C   0  0  0  0  0  2  0  0  0  0  0  0
  156.9750  212.3780  154.4400 C   0  0  1  0  0  3  0  0  0  0  0  0
  156.4240  213.5320  155.1470 N   0  0  0  0  0  2  0  0  0  0  0  0
  154.8840  214.4310  156.6780 N   0  0  0  0  0  2  0  0  0  0  0  0
  155.2730  212.0630  156.8640 C   0  0  0  0  0  2  0  0  0  0  0  0
  155.4340  213.3810  156.1700 C   0  0  0  0  0  0  0  0  0  0  0  0
  155.6690  210.9020  155.9540 C   0  0  0  0  0  2  0  0  0  0  0  0
  162.3620  210.1000  150.9670 C   0  0  0  0  0  2  0  0  0  0  0  0
  162.0390  211.7340  149.1840 C   0  0  0  0  0  3  0  0  0  0  0  0
  162.1080  210.4420  149.5350 C   0  0  0  0  0  0  0  0  0  0  0  0
  162.6810  213.3730  147.4380 C   0  0  0  0  0  1  0  0  0  0  0  0
  161.7730  212.2090  147.7880 C   0  0  0  0  0  2  0  0  0  0  0  0
  161.9030  209.3290  148.5510 C   0  0  0  0  0  2  0  0  0  0  0  0
  162.6510  208.2120  148.9230 O   0  0  0  0  0  0  0  0  0  0  0  0
  162.4430  207.2930  147.8920 C   0  0  0  0  0  2  0  0  0  0  0  0
  161.0400  206.9190  147.8420 N   0  0  0  0  0  2  0  0  0  0  0  0
  162.2100  205.8000  146.0370 C   0  0  0  0  0  1  0  0  0  0  0  0
  160.8930  205.9490  146.7700 C   0  0  0  0  0  2  0  0  0  0  0  0
  1 14  1  0  0  0  0
  2  4  1  6  0  0  0
  2  9  1  0  0  0  0
  3 14  1  6  0  0  0
  3  6  1  0  0  0  0
  4 16  1  0  0  0  0
  5  2  1  0  0  0  0
  5  3  1  0  0  0  0
  6 10  1  0  0  0  0
  7  5  1  0  0  0  0
  8 11  1  0  0  0  0
  8 15  2  0  0  0  0
  9 12  1  0  0  0  0
  9 10  1  0  0  0  0
 11  7  1  0  0  0  0
 13  7  1  0  0  0  0
 13  4  1  0  0  0  0
 15  1  1  0  0  0  0
 17 18  1  0  0  0  0
 18 16  1  0  0  0  0
 18 19  1  0  0  0  0
 19 21  1  0  0  0  0
 20 26  1  0  0  0  0
 21 22  1  0  0  0  0
 21 20  1  0  0  0  0
 22 25  1  0  0  0  0
 25 23  2  0  0  0  0
 25 24  1  0  0  0  0
 26 24  1  0  0  0  0
 27 13  1  0  0  0  0
 28 29  2  0  0  0  0
 29 27  1  0  0  0  0
 30 31  1  0  0  0  0
 31 28  1  0  0  0  0
 32 33  1  0  0  0  0
 32 29  1  0  0  0  0
 34 33  1  0  0  0  0
 35 34  1  0  0  0  0
 36 37  1  0  0  0  0
 37 35  1  0  0  0  0
M  END
>  <MODEL>
1

>  <REMARK>
 VINA RESULT:      -5.5      0.000      0.000
  Name = 
  12 active torsions:
  status: ('A' for Active; 'I' for Inactive)
    1  A    between atoms: N_1  and  C_5
    2  A    between atoms: N_1  and  C_23
    3  A    between atoms: C_5  and  O_17
    4  A    between atoms: C_6  and  C_37
    5  A    between atoms: N_10  and  C_14
    6  A    between atoms: C_14  and  C_31
    7  A    between atoms: O_17  and  C_26
    8  A    between atoms: C_26  and  C_33
    9  A    between atoms: C_27  and  C_34
   10  A    between atoms: C_29  and  C_36
   11  A    between atoms: C_31  and  C_37
   12  A    between atoms: C_33  and  C_36
                            x       y       z     vdW  Elec       q    Type
                         _______ _______ _______ _____ _____    ______ ____

>  <TORSDO>
F 12

$$$$
=
 OpenBabel11062409113D

 37 40  0  0  1  0  0  0  0  0999 V2000
  162.5220  209.8670  157.1470 N   0  0  0  0  0  2  0  0  0  0  0  0
  160.3980  208.0580  153.3820 C   0  0  2  0  0  3  0  0  0  0  0  0
  161.5660  208.1590  155.6610 C   0  0  2  0  0  3  0  0  0  0  0  0
  160.7060  209.0160  152.3060 N   0  0  0  0  0  0  0  0  0  0  0  0
  160.5490  208.7960  154.7130 C   0  0  1  0  0  3  0  0  0  0  0  0
  161.2950  206.6620  155.8590 C   0  0  0  0  0  2  0  0  0  0  0  0
  160.9810  210.1340  154.3620 N   0  0  2  0  0  0  0  0  0  0  0  0
  161.4940  211.8120  156.0050 C   0  0  0  0  0  3  0  0  0  0  0  0
  161.1280  206.7020  153.3080 C   0  0  1  0  0  3  0  0  0  0  0  0
  160.8770  205.9100  154.5870 C   0  0  0  0  0  2  0  0  0  0  0  0
  160.3980  211.0840  155.3020 C   0  0  0  0  0  2  0  0  0  0  0  0
  160.6200  205.9010  152.1250 C   0  0  0  0  0  1  0  0  0  0  0  0
  160.5650  210.3130  152.9640 C   0  0  2  0  0  3  0  0  0  0  0  0
  161.4870  208.8480  157.0140 C   0  0  0  0  0  2  0  0  0  0  0  0
  162.4270  211.2560  156.7870 C   0  0  0  0  0  3  0  0  0  0  0  0
  162.1110  208.9160  151.8910 C   0  0  0  0  0  2  0  0  0  0  0  0
  162.2450  210.3160  149.8160 C   0  0  0  0  0  1  0  0  0  0  0  0
  162.2560  208.9040  150.3710 C   0  0  2  0  0  3  0  0  0  0  0  0
  161.1720  208.0460  149.7180 C   0  0  0  0  0  2  0  0  0  0  0  0
  160.7780  205.5690  149.3460 C   0  0  0  0  0  2  0  0  0  0  0  0
  161.7170  206.7530  149.1180 C   0  0  1  0  0  3  0  0  0  0  0  0
  162.0240  206.9260  147.6990 N   0  0  0  0  0  2  0  0  0  0  0  0
  162.5050  205.9920  145.5970 N   0  0  0  0  0  2  0  0  0  0  0  0
  161.4410  204.5140  147.1720 C   0  0  0  0  0  2  0  0  0  0  0  0
  162.1070  205.8080  146.8100 C   0  0  0  0  0  0  0  0  0  0  0  0
  161.3700  204.3300  148.6870 C   0  0  0  0  0  2  0  0  0  0  0  0
  159.1160  210.8120  152.8140 C   0  0  0  0  0  2  0  0  0  0  0  0
  159.9660  212.5120  151.2810 C   0  0  0  0  0  3  0  0  0  0  0  0
  159.0710  212.1850  152.2250 C   0  0  0  0  0  0  0  0  0  0  0  0
  160.6930  213.7520  149.2630 C   0  0  0  0  0  1  0  0  0  0  0  0
  160.0380  213.8570  150.6260 C   0  0  0  0  0  2  0  0  0  0  0  0
  158.0500  213.1570  152.7370 C   0  0  0  0  0  2  0  0  0  0  0  0
  157.7690  212.9010  154.0790 O   0  0  0  0  0  0  0  0  0  0  0  0
  156.5750  213.5850  154.3220 C   0  0  0  0  0  2  0  0  0  0  0  0
  155.5180  212.6350  154.6240 N   0  0  0  0  0  2  0  0  0  0  0  0
  155.4010  210.2580  155.0840 C   0  0  0  0  0  1  0  0  0  0  0  0
  156.1160  211.5570  155.3920 C   0  0  0  0  0  2  0  0  0  0  0  0
  2  4  1  6  0  0  0
  2  5  1  0  0  0  0
  3  6  1  1  0  0  0
  3 14  1  0  0  0  0
  4 13  1  0  0  0  0
  5  3  1  0  0  0  0
  7  5  1  0  0  0  0
  7 11  1  0  0  0  0
  8 15  2  0  0  0  0
  9  2  1  0  0  0  0
  9 10  1  0  0  0  0
 10  6  1  0  0  0  0
 11  8  1  0  0  0  0
 12  9  1  0  0  0  0
 13  7  1  0  0  0  0
 14  1  1  0  0  0  0
 15  1  1  0  0  0  0
 16  4  1  0  0  0  0
 17 18  1  0  0  0  0
 18 16  1  0  0  0  0
 19 18  1  0  0  0  0
 21 20  1  0  0  0  0
 21 19  1  0  0  0  0
 22 21  1  0  0  0  0
 23 25  2  0  0  0  0
 24 26  1  0  0  0  0
 25 24  1  0  0  0  0
 25 22  1  0  0  0  0
 26 20  1  0  0  0  0
 27 13  1  0  0  0  0
 28 29  2  0  0  0  0
 29 32  1  0  0  0  0
 29 27  1  0  0  0  0
 30 31  1  0  0  0  0
 31 28  1  0  0  0  0
 32 33  1  0  0  0  0
 33 34  1  0  0  0  0
 34 35  1  0  0  0  0
 35 37  1  0  0  0  0
 36 37  1  0  0  0  0
M  END
>  <MODEL>
2

>  <REMARK>
 VINA RESULT:      -5.3      2.110      7.601
  Name = 
  12 active torsions:
  status: ('A' for Active; 'I' for Inactive)
    1  A    between atoms: N_1  and  C_5
    2  A    between atoms: N_1  and  C_23
    3  A    between atoms: C_5  and  O_17
    4  A    between atoms: C_6  and  C_37
    5  A    between atoms: N_10  and  C_14
    6  A    between atoms: C_14  and  C_31
    7  A    between atoms: O_17  and  C_26
    8  A    between atoms: C_26  and  C_33
    9  A    between atoms: C_27  and  C_34
   10  A    between atoms: C_29  and  C_36
   11  A    between atoms: C_31  and  C_37
   12  A    between atoms: C_33  and  C_36
                            x       y       z     vdW  Elec       q    Type
                         _______ _______ _______ _____ _____    ______ ____

>  <TORSDO>
F 12

$$$$
=
 OpenBabel11062409113D

 37 40  0  0  1  0  0  0  0  0999 V2000
  162.5140  209.4350  156.5180 N   0  0  0  0  0  2  0  0  0  0  0  0
  160.3450  208.4590  152.4810 C   0  0  2  0  0  3  0  0  0  0  0  0
  161.6530  208.0860  154.6520 C   0  0  2  0  0  3  0  0  0  0  0  0
  160.4670  209.7050  151.7020 N   0  0  0  0  0  0  0  0  0  0  0  0
  160.5060  208.8220  153.9570 C   0  0  1  0  0  3  0  0  0  0  0  0
  161.5660  206.5700  154.4370 C   0  0  0  0  0  2  0  0  0  0  0  0
  160.7600  210.2480  153.9770 N   0  0  2  0  0  0  0  0  0  0  0  0
  161.1960  211.4690  156.0010 C   0  0  0  0  0  3  0  0  0  0  0  0
  161.2150  207.2790  152.0060 C   0  0  1  0  0  3  0  0  0  0  0  0
  161.1460  206.1440  153.0220 C   0  0  0  0  0  2  0  0  0  0  0  0
  160.1420  210.8260  155.1640 C   0  0  0  0  0  2  0  0  0  0  0  0
  160.7170  206.7710  150.6670 C   0  0  0  0  0  1  0  0  0  0  0  0
  160.2280  210.7460  152.7000 C   0  0  2  0  0  3  0  0  0  0  0  0
  161.5930  208.3670  156.1460 C   0  0  0  0  0  2  0  0  0  0  0  0
  162.2390  210.8450  156.5620 C   0  0  0  0  0  3  0  0  0  0  0  0
  161.8410  209.9010  151.2240 C   0  0  0  0  0  2  0  0  0  0  0  0
  162.3310  208.9650  148.9510 C   0  0  0  0  0  1  0  0  0  0  0  0
  161.8860  210.1910  149.7260 C   0  0  2  0  0  3  0  0  0  0  0  0
  162.7810  211.3920  149.4200 C   0  0  0  0  0  2  0  0  0  0  0  0
  163.0570  213.3930  147.8880 C   0  0  0  0  0  2  0  0  0  0  0  0
  162.0730  212.4700  148.6050 C   0  0  1  0  0  3  0  0  0  0  0  0
  161.1190  211.8770  147.6710 N   0  0  0  0  0  2  0  0  0  0  0  0
  159.7350  212.0740  145.7810 N   0  0  0  0  0  2  0  0  0  0  0  0
  161.4840  213.7180  145.9650 C   0  0  0  0  0  2  0  0  0  0  0  0
  160.6710  212.5820  146.5090 C   0  0  0  0  0  0  0  0  0  0  0  0
  162.2770  214.4140  147.0690 C   0  0  0  0  0  2  0  0  0  0  0  0
  158.7250  211.0790  152.7480 C   0  0  0  0  0  2  0  0  0  0  0  0
  159.0040  212.9670  151.2270 C   0  0  0  0  0  3  0  0  0  0  0  0
  158.4690  212.4990  152.3650 C   0  0  0  0  0  0  0  0  0  0  0  0
  159.0710  214.4510  149.2430 C   0  0  0  0  0  1  0  0  0  0  0  0
  158.8380  214.3730  150.7400 C   0  0  0  0  0  2  0  0  0  0  0  0
  157.6540  213.3600  153.2830 C   0  0  0  0  0  2  0  0  0  0  0  0
  158.3400  213.5760  154.4780 O   0  0  0  0  0  0  0  0  0  0  0  0
  157.3630  213.4460  155.4690 C   0  0  0  0  0  2  0  0  0  0  0  0
  156.1830  212.8040  154.9150 N   0  0  0  0  0  2  0  0  0  0  0  0
  155.5450  210.4690  155.0550 C   0  0  0  0  0  1  0  0  0  0  0  0
  155.8020  211.7440  155.8320 C   0  0  0  0  0  2  0  0  0  0  0  0
  1 15  1  0  0  0  0
  2  4  1  6  0  0  0
  2  5  1  0  0  0  0
  3  6  1  1  0  0  0
  3 14  1  0  0  0  0
  4 13  1  0  0  0  0
  5  7  1  0  0  0  0
  5  3  1  0  0  0  0
  7 11  1  0  0  0  0
  8 15  2  0  0  0  0
  9  2  1  0  0  0  0
  9 10  1  0  0  0  0
 10  6  1  0  0  0  0
 11  8  1  0  0  0  0
 12  9  1  0  0  0  0
 13 27  1  0  0  0  0
 13  7  1  0  0  0  0
 14  1  1  0  0  0  0
 16  4  1  0  0  0  0
 17 18  1  0  0  0  0
 18 16  1  0  0  0  0
 19 18  1  0  0  0  0
 20 21  1  0  0  0  0
 21 19  1  0  0  0  0
 22 21  1  0  0  0  0
 23 25  2  0  0  0  0
 24 25  1  0  0  0  0
 24 26  1  0  0  0  0
 25 22  1  0  0  0  0
 26 20  1  0  0  0  0
 28 29  2  0  0  0  0
 29 27  1  0  0  0  0
 29 32  1  0  0  0  0
 30 31  1  0  0  0  0
 31 28  1  0  0  0  0
 32 33  1  0  0  0  0
 33 34  1  0  0  0  0
 35 34  1  0  0  0  0
 35 37  1  0  0  0  0
 36 37  1  0  0  0  0
M  END
>  <MODEL>
3

>  <REMARK>
 VINA RESULT:      -5.2      2.334      7.234
  Name = 
  12 active torsions:
  status: ('A' for Active; 'I' for Inactive)
    1  A    between atoms: N_1  and  C_5
    2  A    between atoms: N_1  and  C_23
    3  A    between atoms: C_5  and  O_17
    4  A    between atoms: C_6  and  C_37
    5  A    between atoms: N_10  and  C_14
    6  A    between atoms: C_14  and  C_31
    7  A    between atoms: O_17  and  C_26
    8  A    between atoms: C_26  and  C_33
    9  A    between atoms: C_27  and  C_34
   10  A    between atoms: C_29  and  C_36
   11  A    between atoms: C_31  and  C_37
   12  A    between atoms: C_33  and  C_36
                            x       y       z     vdW  Elec       q    Type
                         _______ _______ _______ _____ _____    ______ ____

>  <TORSDO>
F 12

$$$$
=
 OpenBabel11062409113D

 37 40  0  0  1  0  0  0  0  0999 V2000
  157.9890  213.1280  145.5800 N   0  0  0  0  0  2  0  0  0  0  0  0
  161.8290  213.1610  148.2650 C   0  0  2  0  0  3  0  0  0  0  0  0
  160.3640  213.3530  146.1720 C   0  0  2  0  0  3  0  0  0  0  0  0
  161.5040  212.2280  149.3590 N   0  0  0  0  0  0  0  0  0  0  0  0
  160.5070  213.6450  147.6670 C   0  0  1  0  0  3  0  0  0  0  0  0
  161.5750  213.8560  145.3770 C   0  0  0  0  0  2  0  0  0  0  0  0
  159.4740  212.9440  148.4010 N   0  0  2  0  0  0  0  0  0  0  0  0
  157.1330  213.1790  147.9060 C   0  0  0  0  0  3  0  0  0  0  0  0
  162.8600  212.6590  147.2350 C   0  0  1  0  0  3  0  0  0  0  0  0
  162.9320  213.6300  146.0610 C   0  0  0  0  0  2  0  0  0  0  0  0
  158.3180  213.8200  148.5490 C   0  0  0  0  0  2  0  0  0  0  0  0
  164.2310  212.5610  147.8770 C   0  0  0  0  0  1  0  0  0  0  0  0
  160.1100  212.5440  149.6640 C   0  0  2  0  0  3  0  0  0  0  0  0
  159.1180  214.0490  145.6460 C   0  0  0  0  0  2  0  0  0  0  0  0
  157.0210  212.8620  146.6100 C   0  0  0  0  0  3  0  0  0  0  0  0
  161.5180  210.8360  148.8940 C   0  0  0  0  0  2  0  0  0  0  0  0
  162.7120  210.3740  151.0500 C   0  0  0  0  0  1  0  0  0  0  0  0
  161.6990  209.8520  150.0470 C   0  0  2  0  0  3  0  0  0  0  0  0
  162.0910  208.4660  149.5380 C   0  0  0  0  0  2  0  0  0  0  0  0
  161.3940  206.0320  149.3920 C   0  0  0  0  0  2  0  0  0  0  0  0
  161.2650  207.3450  150.1630 C   0  0  1  0  0  3  0  0  0  0  0  0
  161.6030  207.1720  151.5740 N   0  0  0  0  0  2  0  0  0  0  0  0
  161.5330  205.8800  153.5360 N   0  0  0  0  0  2  0  0  0  0  0  0
  161.1440  204.6790  151.4860 C   0  0  0  0  0  2  0  0  0  0  0  0
  161.3350  205.9470  152.2630 C   0  0  0  0  0  0  0  0  0  0  0  0
  160.5750  204.9580  150.0970 C   0  0  0  0  0  2  0  0  0  0  0  0
  160.0540  213.6330  150.7520 C   0  0  0  0  0  2  0  0  0  0  0  0
  159.8840  211.8600  152.4210 C   0  0  0  0  0  3  0  0  0  0  0  0
  159.5180  213.0920  152.0370 C   0  0  0  0  0  0  0  0  0  0  0  0
  160.3260  210.0560  154.0620 C   0  0  0  0  0  1  0  0  0  0  0  0
  159.4050  211.1970  153.6760 C   0  0  0  0  0  2  0  0  0  0  0  0
  158.5630  213.9310  152.8320 C   0  0  0  0  0  2  0  0  0  0  0  0
  157.2680  213.4210  152.7260 O   0  0  0  0  0  0  0  0  0  0  0  0
  156.5690  214.0230  153.7750 C   0  0  0  0  0  2  0  0  0  0  0  0
  155.5370  213.1220  154.2580 N   0  0  0  0  0  2  0  0  0  0  0  0
  155.5730  210.8000  154.9530 C   0  0  0  0  0  1  0  0  0  0  0  0
  156.1790  212.1730  155.1510 C   0  0  0  0  0  2  0  0  0  0  0  0
  1 14  1  0  0  0  0
  1 15  1  0  0  0  0
  2  4  1  1  0  0  0
  3  6  1  6  0  0  0
  3  5  1  0  0  0  0
  4 13  1  0  0  0  0
  5  2  1  0  0  0  0
  5  7  1  0  0  0  0
  6 10  1  0  0  0  0
  7 11  1  0  0  0  0
  7 13  1  0  0  0  0
  8 11  1  0  0  0  0
  9 12  1  0  0  0  0
  9  2  1  0  0  0  0
 10  9  1  0  0  0  0
 13 27  1  0  0  0  0
 14  3  1  0  0  0  0
 15  8  2  0  0  0  0
 16  4  1  0  0  0  0
 16 18  1  0  0  0  0
 18 17  1  0  0  0  0
 19 18  1  0  0  0  0
 19 21  1  0  0  0  0
 20 26  1  0  0  0  0
 20 21  1  0  0  0  0
 21 22  1  0  0  0  0
 22 25  1  0  0  0  0
 24 25  1  0  0  0  0
 25 23  2  0  0  0  0
 26 24  1  0  0  0  0
 27 29  1  0  0  0  0
 28 31  1  0  0  0  0
 29 28  2  0  0  0  0
 29 32  1  0  0  0  0
 31 30  1  0  0  0  0
 33 32  1  0  0  0  0
 33 34  1  0  0  0  0
 34 35  1  0  0  0  0
 35 37  1  0  0  0  0
 36 37  1  0  0  0  0
M  END
>  <MODEL>
4

>  <REMARK>
 VINA RESULT:      -5.1      2.823      8.648
  Name = 
  12 active torsions:
  status: ('A' for Active; 'I' for Inactive)
    1  A    between atoms: N_1  and  C_5
    2  A    between atoms: N_1  and  C_23
    3  A    between atoms: C_5  and  O_17
    4  A    between atoms: C_6  and  C_37
    5  A    between atoms: N_10  and  C_14
    6  A    between atoms: C_14  and  C_31
    7  A    between atoms: O_17  and  C_26
    8  A    between atoms: C_26  and  C_33
    9  A    between atoms: C_27  and  C_34
   10  A    between atoms: C_29  and  C_36
   11  A    between atoms: C_31  and  C_37
   12  A    between atoms: C_33  and  C_36
                            x       y       z     vdW  Elec       q    Type
                         _______ _______ _______ _____ _____    ______ ____

>  <TORSDO>
F 12

$$$$
=
 OpenBabel11062409113D

 37 40  0  0  1  0  0  0  0  0999 V2000
  158.0390  212.9550  145.5430 N   0  0  0  0  0  2  0  0  0  0  0  0
  161.8600  213.0910  148.2520 C   0  0  2  0  0  3  0  0  0  0  0  0
  160.4100  213.2020  146.1420 C   0  0  2  0  0  3  0  0  0  0  0  0
  161.5270  212.2020  149.3800 N   0  0  0  0  0  0  0  0  0  0  0  0
  160.5430  213.5520  147.6260 C   0  0  1  0  0  3  0  0  0  0  0  0
  161.6270  213.6720  145.3370 C   0  0  0  0  0  2  0  0  0  0  0  0
  159.5040  212.8810  148.3800 N   0  0  2  0  0  0  0  0  0  0  0  0
  157.1670  213.0980  147.8590 C   0  0  0  0  0  3  0  0  0  0  0  0
  162.8980  212.5480  147.2500 C   0  0  1  0  0  3  0  0  0  0  0  0
  162.9790  213.4710  146.0390 C   0  0  0  0  0  2  0  0  0  0  0  0
  158.3470  213.7630  148.4840 C   0  0  0  0  0  2  0  0  0  0  0  0
  164.2640  212.4750  147.9050 C   0  0  0  0  0  1  0  0  0  0  0  0
  160.1310  212.5310  149.6620 C   0  0  2  0  0  3  0  0  0  0  0  0
  159.1680  213.8770  145.5810 C   0  0  0  0  0  2  0  0  0  0  0  0
  157.0640  212.7310  146.5760 C   0  0  0  0  0  3  0  0  0  0  0  0
  161.5430  210.7930  148.9700 C   0  0  0  0  0  2  0  0  0  0  0  0
  162.6500  210.4350  151.1900 C   0  0  0  0  0  1  0  0  0  0  0  0
  161.6940  209.8550  150.1650 C   0  0  2  0  0  3  0  0  0  0  0  0
  162.1390  208.4610  149.7220 C   0  0  0  0  0  2  0  0  0  0  0  0
  161.3740  206.0540  149.4970 C   0  0  0  0  0  2  0  0  0  0  0  0
  161.2760  207.3460  150.3060 C   0  0  1  0  0  3  0  0  0  0  0  0
  161.5980  207.1200  151.7140 N   0  0  0  0  0  2  0  0  0  0  0  0
  161.4750  205.7710  153.6350 N   0  0  0  0  0  2  0  0  0  0  0  0
  161.0690  204.6450  151.5460 C   0  0  0  0  0  2  0  0  0  0  0  0
  161.2900  205.8820  152.3630 C   0  0  0  0  0  0  0  0  0  0  0  0
  160.5190  204.9830  150.1620 C   0  0  0  0  0  2  0  0  0  0  0  0
  160.0680  213.6620  150.7060 C   0  0  0  0  0  2  0  0  0  0  0  0
  158.4280  214.1300  152.4510 C   0  0  0  0  0  3  0  0  0  0  0  0
  159.2830  213.2510  151.9080 C   0  0  0  0  0  0  0  0  0  0  0  0
  156.1200  213.8670  153.3170 C   0  0  0  0  0  1  0  0  0  0  0  0
  157.5960  213.8490  153.6650 C   0  0  0  0  0  2  0  0  0  0  0  0
  159.5070  211.8860  152.4860 C   0  0  0  0  0  2  0  0  0  0  0  0
  160.4380  211.9460  153.5230 O   0  0  0  0  0  0  0  0  0  0  0  0
  160.3840  210.6820  154.1150 C   0  0  0  0  0  2  0  0  0  0  0  0
  160.9540  210.7390  155.4500 N   0  0  0  0  0  2  0  0  0  0  0  0
  160.0260  208.5180  155.7400 C   0  0  0  0  0  1  0  0  0  0  0  0
  160.1160  209.9190  156.3080 C   0  0  0  0  0  2  0  0  0  0  0  0
  1 14  1  0  0  0  0
  1 15  1  0  0  0  0
  2  4  1  1  0  0  0
  3  6  1  6  0  0  0
  3  5  1  0  0  0  0
  4 13  1  0  0  0  0
  5  2  1  0  0  0  0
  5  7  1  0  0  0  0
  6 10  1  0  0  0  0
  7 11  1  0  0  0  0
  7 13  1  0  0  0  0
  8 11  1  0  0  0  0
  9 12  1  0  0  0  0
  9  2  1  0  0  0  0
 10  9  1  0  0  0  0
 13 27  1  0  0  0  0
 14  3  1  0  0  0  0
 15  8  2  0  0  0  0
 16  4  1  0  0  0  0
 16 18  1  0  0  0  0
 18 17  1  0  0  0  0
 19 18  1  0  0  0  0
 19 21  1  0  0  0  0
 20 26  1  0  0  0  0
 20 21  1  0  0  0  0
 21 22  1  0  0  0  0
 22 25  1  0  0  0  0
 24 25  1  0  0  0  0
 25 23  2  0  0  0  0
 26 24  1  0  0  0  0
 27 29  1  0  0  0  0
 28 31  1  0  0  0  0
 29 28  2  0  0  0  0
 29 32  1  0  0  0  0
 30 31  1  0  0  0  0
 32 33  1  0  0  0  0
 33 34  1  0  0  0  0
 34 35  1  0  0  0  0
 35 37  1  0  0  0  0
 36 37  1  0  0  0  0
M  END
>  <MODEL>
5

>  <REMARK>
 VINA RESULT:      -5.0      2.701      8.343
  Name = 
  12 active torsions:
  status: ('A' for Active; 'I' for Inactive)
    1  A    between atoms: N_1  and  C_5
    2  A    between atoms: N_1  and  C_23
    3  A    between atoms: C_5  and  O_17
    4  A    between atoms: C_6  and  C_37
    5  A    between atoms: N_10  and  C_14
    6  A    between atoms: C_14  and  C_31
    7  A    between atoms: O_17  and  C_26
    8  A    between atoms: C_26  and  C_33
    9  A    between atoms: C_27  and  C_34
   10  A    between atoms: C_29  and  C_36
   11  A    between atoms: C_31  and  C_37
   12  A    between atoms: C_33  and  C_36
                            x       y       z     vdW  Elec       q    Type
                         _______ _______ _______ _____ _____    ______ ____

>  <TORSDO>
F 12

$$$$
=
 OpenBabel11062409113D

 37 40  0  0  1  0  0  0  0  0999 V2000
  160.5840  205.4790  150.2000 N   0  0  0  0  0  2  0  0  0  0  0  0
  161.5250  209.1830  152.9120 C   0  0  2  0  0  3  0  0  0  0  0  0
  161.1440  206.7410  152.2330 C   0  0  2  0  0  3  0  0  0  0  0  0
  160.8140  210.2940  152.2550 N   0  0  0  0  0  0  0  0  0  0  0  0
  161.7510  208.0960  151.8610 C   0  0  1  0  0  3  0  0  0  0  0  0
  161.5800  206.2910  153.6330 C   0  0  0  0  0  2  0  0  0  0  0  0
  161.1260  208.5940  150.6530 N   0  0  2  0  0  0  0  0  0  0  0  0
  161.0370  207.3270  148.6110 C   0  0  0  0  0  3  0  0  0  0  0  0
  160.9180  208.6850  154.2380 C   0  0  1  0  0  3  0  0  0  0  0  0
  161.6260  207.4100  154.6840 C   0  0  0  0  0  2  0  0  0  0  0  0
  161.9040  208.1560  149.5000 C   0  0  0  0  0  2  0  0  0  0  0  0
  161.0810  209.7400  155.3150 C   0  0  0  0  0  1  0  0  0  0  0  0
  161.0570  210.0510  150.8340 C   0  0  2  0  0  3  0  0  0  0  0  0
  161.5980  205.6980  151.2250 C   0  0  0  0  0  2  0  0  0  0  0  0
  160.4500  206.1720  148.9470 C   0  0  0  0  0  3  0  0  0  0  0  0
  159.3620  210.1860  152.4480 C   0  0  0  0  0  2  0  0  0  0  0  0
  159.7530  212.6240  152.8800 C   0  0  0  0  0  1  0  0  0  0  0  0
  158.7630  211.4790  152.9930 C   0  0  2  0  0  3  0  0  0  0  0  0
  158.2840  211.3050  154.4340 C   0  0  0  0  0  2  0  0  0  0  0  0
  156.8480  212.6730  156.0140 C   0  0  0  0  0  2  0  0  0  0  0  0
  156.9110  211.9220  154.6850 C   0  0  1  0  0  3  0  0  0  0  0  0
  156.5120  212.7770  153.5690 N   0  0  0  0  0  2  0  0  0  0  0  0
  155.1130  214.4490  152.6900 N   0  0  0  0  0  2  0  0  0  0  0  0
  155.2230  214.3430  155.0930 C   0  0  0  0  0  2  0  0  0  0  0  0
  155.5280  213.8040  153.7270 C   0  0  0  0  0  0  0  0  0  0  0  0
  155.4650  213.2900  156.1730 C   0  0  0  0  0  2  0  0  0  0  0  0
  162.3380  210.7860  150.3970 C   0  0  0  0  0  2  0  0  0  0  0  0
  163.0780  211.9670  148.3940 C   0  0  0  0  0  3  0  0  0  0  0  0
  162.0760  211.6970  149.2430 C   0  0  0  0  0  0  0  0  0  0  0  0
  163.1030  214.3260  147.6330 C   0  0  0  0  0  1  0  0  0  0  0  0
  162.9510  212.8770  147.2110 C   0  0  0  0  0  2  0  0  0  0  0  0
  160.7130  212.3050  149.0960 C   0  0  0  0  0  2  0  0  0  0  0  0
  160.6390  213.5040  149.8060 O   0  0  0  0  0  0  0  0  0  0  0  0
  159.4260  214.0710  149.4080 C   0  0  0  0  0  2  0  0  0  0  0  0
  158.9020  213.3550  148.2580 N   0  0  0  0  0  2  0  0  0  0  0  0
  156.8930  213.4570  149.6100 C   0  0  0  0  0  1  0  0  0  0  0  0
  157.4710  213.5990  148.2180 C   0  0  0  0  0  2  0  0  0  0  0  0
  1 14  1  0  0  0  0
  2  4  1  6  0  0  0
  2  9  1  0  0  0  0
  3 14  1  6  0  0  0
  3  6  1  0  0  0  0
  4 16  1  0  0  0  0
  5  3  1  0  0  0  0
  5  2  1  0  0  0  0
  6 10  1  0  0  0  0
  7 13  1  0  0  0  0
  7  5  1  0  0  0  0
  8 15  2  0  0  0  0
  8 11  1  0  0  0  0
  9 10  1  0  0  0  0
  9 12  1  0  0  0  0
 11  7  1  0  0  0  0
 13  4  1  0  0  0  0
 15  1  1  0  0  0  0
 16 18  1  0  0  0  0
 17 18  1  0  0  0  0
 18 19  1  0  0  0  0
 19 21  1  0  0  0  0
 20 26  1  0  0  0  0
 21 20  1  0  0  0  0
 22 25  1  0  0  0  0
 22 21  1  0  0  0  0
 23 25  2  0  0  0  0
 24 26  1  0  0  0  0
 25 24  1  0  0  0  0
 27 13  1  0  0  0  0
 28 29  2  0  0  0  0
 29 27  1  0  0  0  0
 31 30  1  0  0  0  0
 31 28  1  0  0  0  0
 32 29  1  0  0  0  0
 32 33  1  0  0  0  0
 34 33  1  0  0  0  0
 35 34  1  0  0  0  0
 37 35  1  0  0  0  0
 37 36  1  0  0  0  0
M  END
>  <MODEL>
6

>  <REMARK>
 VINA RESULT:      -5.0      2.059      3.533
  Name = 
  12 active torsions:
  status: ('A' for Active; 'I' for Inactive)
    1  A    between atoms: N_1  and  C_5
    2  A    between atoms: N_1  and  C_23
    3  A    between atoms: C_5  and  O_17
    4  A    between atoms: C_6  and  C_37
    5  A    between atoms: N_10  and  C_14
    6  A    between atoms: C_14  and  C_31
    7  A    between atoms: O_17  and  C_26
    8  A    between atoms: C_26  and  C_33
    9  A    between atoms: C_27  and  C_34
   10  A    between atoms: C_29  and  C_36
   11  A    between atoms: C_31  and  C_37
   12  A    between atoms: C_33  and  C_36
                            x       y       z     vdW  Elec       q    Type
                         _______ _______ _______ _____ _____    ______ ____

>  <TORSDO>
F 12

$$$$
=
 OpenBabel11062409113D

 37 40  0  0  1  0  0  0  0  0999 V2000
  162.1860  210.3540  157.2610 N   0  0  0  0  0  2  0  0  0  0  0  0
  160.3590  208.1190  153.5700 C   0  0  2  0  0  3  0  0  0  0  0  0
  161.4380  208.4730  155.8670 C   0  0  2  0  0  3  0  0  0  0  0  0
  160.6160  209.0300  152.4410 N   0  0  0  0  0  0  0  0  0  0  0  0
  160.3990  208.9520  154.8510 C   0  0  1  0  0  3  0  0  0  0  0  0
  161.2970  206.9740  156.1580 C   0  0  0  0  0  2  0  0  0  0  0  0
  160.7200  210.2980  154.4240 N   0  0  2  0  0  0  0  0  0  0  0  0
  161.0250  212.1190  155.9640 C   0  0  0  0  0  3  0  0  0  0  0  0
  161.2110  206.8340  153.6070 C   0  0  1  0  0  3  0  0  0  0  0  0
  160.9900  206.1060  154.9280 C   0  0  0  0  0  2  0  0  0  0  0  0
  160.0230  211.2490  155.2820 C   0  0  0  0  0  2  0  0  0  0  0  0
  160.8160  205.9160  152.4660 C   0  0  0  0  0  1  0  0  0  0  0  0
  160.3360  210.3490  153.0060 C   0  0  2  0  0  3  0  0  0  0  0  0
  161.2520  209.2380  157.1680 C   0  0  0  0  0  2  0  0  0  0  0  0
  161.9780  211.7020  156.8070 C   0  0  0  0  0  3  0  0  0  0  0  0
  162.0370  209.0340  152.0710 C   0  0  0  0  0  2  0  0  0  0  0  0
  162.3120  210.2630  149.9040 C   0  0  0  0  0  1  0  0  0  0  0  0
  162.2330  208.8980  150.5640 C   0  0  2  0  0  3  0  0  0  0  0  0
  161.1310  208.0450  149.9350 C   0  0  0  0  0  2  0  0  0  0  0  0
  160.7030  205.5750  149.5600 C   0  0  0  0  0  2  0  0  0  0  0  0
  161.6550  206.7470  149.3290 C   0  0  1  0  0  3  0  0  0  0  0  0
  161.9570  206.9180  147.9090 N   0  0  0  0  0  2  0  0  0  0  0  0
  162.4140  205.9830  145.8020 N   0  0  0  0  0  2  0  0  0  0  0  0
  161.3400  204.5150  147.3800 C   0  0  0  0  0  2  0  0  0  0  0  0
  162.0200  205.8010  147.0170 C   0  0  0  0  0  0  0  0  0  0  0  0
  161.2750  204.3290  148.8950 C   0  0  0  0  0  2  0  0  0  0  0  0
  158.8540  210.7020  152.7840 C   0  0  0  0  0  2  0  0  0  0  0  0
  157.6510  212.7510  153.3400 C   0  0  0  0  0  3  0  0  0  0  0  0
  158.6570  212.1780  152.6640 C   0  0  0  0  0  0  0  0  0  0  0  0
  155.8470  214.4460  153.4570 C   0  0  0  0  0  1  0  0  0  0  0  0
  157.3370  214.2150  153.2910 C   0  0  0  0  0  2  0  0  0  0  0  0
  159.5690  212.9580  151.7650 C   0  0  0  0  0  2  0  0  0  0  0  0
  159.0970  212.9260  150.4530 O   0  0  0  0  0  0  0  0  0  0  0  0
  159.8430  213.9040  149.7900 C   0  0  0  0  0  2  0  0  0  0  0  0
  159.9220  213.5870  148.3740 N   0  0  0  0  0  2  0  0  0  0  0  0
  161.4900  212.5840  146.8220 C   0  0  0  0  0  1  0  0  0  0  0  0
  161.3300  213.4700  148.0400 C   0  0  0  0  0  2  0  0  0  0  0  0
  2  4  1  6  0  0  0
  2  9  1  0  0  0  0
  2  5  1  0  0  0  0
  3  6  1  1  0  0  0
  3 14  1  0  0  0  0
  4 13  1  0  0  0  0
  5  3  1  0  0  0  0
  7  5  1  0  0  0  0
  7 11  1  0  0  0  0
  8 15  2  0  0  0  0
  9 10  1  0  0  0  0
 10  6  1  0  0  0  0
 11  8  1  0  0  0  0
 12  9  1  0  0  0  0
 13  7  1  0  0  0  0
 14  1  1  0  0  0  0
 15  1  1  0  0  0  0
 16  4  1  0  0  0  0
 17 18  1  0  0  0  0
 18 16  1  0  0  0  0
 19 18  1  0  0  0  0
 21 20  1  0  0  0  0
 21 19  1  0  0  0  0
 22 21  1  0  0  0  0
 23 25  2  0  0  0  0
 24 26  1  0  0  0  0
 25 24  1  0  0  0  0
 25 22  1  0  0  0  0
 26 20  1  0  0  0  0
 27 13  1  0  0  0  0
 29 27  1  0  0  0  0
 29 28  2  0  0  0  0
 31 28  1  0  0  0  0
 31 30  1  0  0  0  0
 32 29  1  0  0  0  0
 33 32  1  0  0  0  0
 34 33  1  0  0  0  0
 35 34  1  0  0  0  0
 36 37  1  0  0  0  0
 37 35  1  0  0  0  0
M  END
>  <MODEL>
7

>  <REMARK>
 VINA RESULT:      -4.9      2.455      7.202
  Name = 
  12 active torsions:
  status: ('A' for Active; 'I' for Inactive)
    1  A    between atoms: N_1  and  C_5
    2  A    between atoms: N_1  and  C_23
    3  A    between atoms: C_5  and  O_17
    4  A    between atoms: C_6  and  C_37
    5  A    between atoms: N_10  and  C_14
    6  A    between atoms: C_14  and  C_31
    7  A    between atoms: O_17  and  C_26
    8  A    between atoms: C_26  and  C_33
    9  A    between atoms: C_27  and  C_34
   10  A    between atoms: C_29  and  C_36
   11  A    between atoms: C_31  and  C_37
   12  A    between atoms: C_33  and  C_36
                            x       y       z     vdW  Elec       q    Type
                         _______ _______ _______ _____ _____    ______ ____

>  <TORSDO>
F 12

$$$$
=
 OpenBabel11062409113D

 37 40  0  0  1  0  0  0  0  0999 V2000
  160.4410  206.3820  154.6530 N   0  0  0  0  0  2  0  0  0  0  0  0
  160.9510  211.0160  154.1860 C   0  0  2  0  0  3  0  0  0  0  0  0
  160.6730  208.7360  155.3210 C   0  0  2  0  0  3  0  0  0  0  0  0
  160.3590  211.3070  152.8680 N   0  0  0  0  0  0  0  0  0  0  0  0
  161.3380  209.5370  154.1990 C   0  0  1  0  0  3  0  0  0  0  0  0
  160.8780  209.3980  156.6880 C   0  0  0  0  0  2  0  0  0  0  0  0
  160.9170  209.0180  152.9140 N   0  0  2  0  0  0  0  0  0  0  0  0
  161.1510  206.7050  152.3000 C   0  0  0  0  0  3  0  0  0  0  0  0
  160.1370  211.4830  155.4090 C   0  0  1  0  0  3  0  0  0  0  0  0
  160.7590  210.9300  156.6860 C   0  0  0  0  0  2  0  0  0  0  0  0
  161.8670  208.0030  152.4760 C   0  0  0  0  0  2  0  0  0  0  0  0
  160.1300  212.9980  155.4810 C   0  0  0  0  0  1  0  0  0  0  0  0
  160.8250  210.1960  152.0400 C   0  0  2  0  0  3  0  0  0  0  0  0
  161.2790  207.3410  155.3630 C   0  0  0  0  0  2  0  0  0  0  0  0
  160.5120  206.0270  153.2610 C   0  0  0  0  0  3  0  0  0  0  0  0
  158.8950  211.2040  152.9070 C   0  0  0  0  0  2  0  0  0  0  0  0
  156.7600  212.4120  153.4240 C   0  0  0  0  0  1  0  0  0  0  0  0
  158.2340  212.5670  153.1010 C   0  0  2  0  0  3  0  0  0  0  0  0
  158.4400  213.4610  151.8790 C   0  0  0  0  0  2  0  0  0  0  0  0
  156.3100  214.4530  150.9240 C   0  0  0  0  0  2  0  0  0  0  0  0
  157.3300  213.3180  150.8410 C   0  0  1  0  0  3  0  0  0  0  0  0
  157.8860  213.1960  149.4950 N   0  0  0  0  0  2  0  0  0  0  0  0
  157.5950  213.2580  147.1640 N   0  0  0  0  0  2  0  0  0  0  0  0
  155.8980  214.3780  148.4530 C   0  0  0  0  0  2  0  0  0  0  0  0
  157.1080  213.5010  148.3330 C   0  0  0  0  0  0  0  0  0  0  0  0
  155.2610  214.2610  149.8360 C   0  0  0  0  0  2  0  0  0  0  0  0
  162.1630  210.5740  151.3770 C   0  0  0  0  0  2  0  0  0  0  0  0
  161.5880  211.8710  149.3910 C   0  0  0  0  0  3  0  0  0  0  0  0
  162.0180  210.7060  149.8960 C   0  0  0  0  0  0  0  0  0  0  0  0
  161.1610  213.6040  147.6710 C   0  0  0  0  0  1  0  0  0  0  0  0
  161.3840  212.1260  147.9290 C   0  0  0  0  0  2  0  0  0  0  0  0
  162.3240  209.5190  149.0310 C   0  0  0  0  0  2  0  0  0  0  0  0
  161.3580  208.5290  149.2100 O   0  0  0  0  0  0  0  0  0  0  0  0
  161.8890  207.4040  148.5740 C   0  0  0  0  0  2  0  0  0  0  0  0
  160.8230  206.4690  148.2580 N   0  0  0  0  0  2  0  0  0  0  0  0
  161.5810  204.1970  147.8800 C   0  0  0  0  0  1  0  0  0  0  0  0
  161.1460  205.2140  148.9150 C   0  0  0  0  0  2  0  0  0  0  0  0
  1 14  1  0  0  0  0
  2  4  1  6  0  0  0
  2  5  1  0  0  0  0
  2  9  1  0  0  0  0
  3 14  1  1  0  0  0
  3  6  1  0  0  0  0
  4 16  1  0  0  0  0
  5  3  1  0  0  0  0
  7  5  1  0  0  0  0
  8 11  1  0  0  0  0
  8 15  2  0  0  0  0
  9 12  1  0  0  0  0
  9 10  1  0  0  0  0
 10  6  1  0  0  0  0
 11  7  1  0  0  0  0
 13  4  1  0  0  0  0
 13  7  1  0  0  0  0
 15  1  1  0  0  0  0
 16 18  1  0  0  0  0
 18 17  1  0  0  0  0
 19 18  1  0  0  0  0
 21 20  1  0  0  0  0
 21 19  1  0  0  0  0
 22 21  1  0  0  0  0
 23 25  2  0  0  0  0
 24 26  1  0  0  0  0
 25 24  1  0  0  0  0
 25 22  1  0  0  0  0
 26 20  1  0  0  0  0
 27 13  1  0  0  0  0
 28 29  2  0  0  0  0
 29 27  1  0  0  0  0
 30 31  1  0  0  0  0
 31 28  1  0  0  0  0
 32 33  1  0  0  0  0
 32 29  1  0  0  0  0
 34 33  1  0  0  0  0
 35 34  1  0  0  0  0
 35 37  1  0  0  0  0
 36 37  1  0  0  0  0
M  END
>  <MODEL>
8

>  <REMARK>
 VINA RESULT:      -4.8      2.295      3.394
  Name = 
  12 active torsions:
  status: ('A' for Active; 'I' for Inactive)
    1  A    between atoms: N_1  and  C_5
    2  A    between atoms: N_1  and  C_23
    3  A    between atoms: C_5  and  O_17
    4  A    between atoms: C_6  and  C_37
    5  A    between atoms: N_10  and  C_14
    6  A    between atoms: C_14  and  C_31
    7  A    between atoms: O_17  and  C_26
    8  A    between atoms: C_26  and  C_33
    9  A    between atoms: C_27  and  C_34
   10  A    between atoms: C_29  and  C_36
   11  A    between atoms: C_31  and  C_37
   12  A    between atoms: C_33  and  C_36
                            x       y       z     vdW  Elec       q    Type
                         _______ _______ _______ _____ _____    ______ ____

>  <TORSDO>
F 12

$$$$
=
 OpenBabel11062409113D

 37 40  0  0  1  0  0  0  0  0999 V2000
  160.6410  205.7620  151.1970 N   0  0  0  0  0  2  0  0  0  0  0  0
  161.5370  209.9530  153.0910 C   0  0  2  0  0  3  0  0  0  0  0  0
  161.2030  207.4180  152.9240 C   0  0  2  0  0  3  0  0  0  0  0  0
  160.7900  210.8950  152.2370 N   0  0  0  0  0  0  0  0  0  0  0  0
  161.7720  208.6810  152.2750 C   0  0  1  0  0  3  0  0  0  0  0  0
  161.6710  207.2670  154.3760 C   0  0  0  0  0  2  0  0  0  0  0  0
  161.1170  208.9140  151.0040 N   0  0  2  0  0  0  0  0  0  0  0  0
  161.0270  207.2600  149.2610 C   0  0  0  0  0  3  0  0  0  0  0  0
  160.9620  209.7200  154.5010 C   0  0  1  0  0  3  0  0  0  0  0  0
  161.7070  208.5760  155.1800 C   0  0  0  0  0  2  0  0  0  0  0  0
  161.8870  208.2680  149.9470 C   0  0  0  0  0  2  0  0  0  0  0  0
  161.1180  210.9740  155.3400 C   0  0  0  0  0  1  0  0  0  0  0  0
  161.0170  210.3760  150.8900 C   0  0  2  0  0  3  0  0  0  0  0  0
  161.6650  206.2020  152.1370 C   0  0  0  0  0  2  0  0  0  0  0  0
  160.4720  206.1850  149.8330 C   0  0  0  0  0  3  0  0  0  0  0  0
  159.3450  210.7990  152.4770 C   0  0  0  0  0  2  0  0  0  0  0  0
  159.5300  213.2990  152.4970 C   0  0  0  0  0  1  0  0  0  0  0  0
  158.6320  212.1170  152.1850 C   0  0  2  0  0  3  0  0  0  0  0  0
  157.3100  212.2130  152.9470 C   0  0  0  0  0  2  0  0  0  0  0  0
  157.9410  212.8140  155.3280 C   0  0  0  0  0  2  0  0  0  0  0  0
  157.4170  211.7280  154.3900 C   0  0  1  0  0  3  0  0  0  0  0  0
  156.1410  211.1890  154.8560 N   0  0  0  0  0  2  0  0  0  0  0  0
  154.7500  210.4970  156.6200 N   0  0  0  0  0  2  0  0  0  0  0  0
  156.5720  211.9450  157.2390 C   0  0  0  0  0  2  0  0  0  0  0  0
  155.8320  211.0940  156.2500 C   0  0  0  0  0  0  0  0  0  0  0  0
  157.9820  212.2670  156.7500 C   0  0  0  0  0  2  0  0  0  0  0  0
  162.2730  211.0330  150.2890 C   0  0  0  0  0  2  0  0  0  0  0  0
  162.9240  212.1170  148.2020 C   0  0  0  0  0  3  0  0  0  0  0  0
  161.9420  211.8260  149.0670 C   0  0  0  0  0  0  0  0  0  0  0  0
  163.1220  214.3650  147.1770 C   0  0  0  0  0  1  0  0  0  0  0  0
  162.7280  212.9180  146.9510 C   0  0  0  0  0  2  0  0  0  0  0  0
  160.5320  212.2960  148.8710 C   0  0  0  0  0  2  0  0  0  0  0  0
  160.4050  213.6240  149.2810 O   0  0  0  0  0  0  0  0  0  0  0  0
  159.1690  214.0300  148.7700 C   0  0  0  0  0  2  0  0  0  0  0  0
  159.2270  214.0740  147.3190 N   0  0  0  0  0  2  0  0  0  0  0  0
  157.3610  212.5970  146.8590 C   0  0  0  0  0  1  0  0  0  0  0  0
  157.8590  214.0270  146.8340 C   0  0  0  0  0  2  0  0  0  0  0  0
  1 14  1  0  0  0  0
  2  4  1  6  0  0  0
  2  9  1  0  0  0  0
  3 14  1  6  0  0  0
  3  6  1  0  0  0  0
  4 16  1  0  0  0  0
  5  3  1  0  0  0  0
  5  2  1  0  0  0  0
  6 10  1  0  0  0  0
  7  5  1  0  0  0  0
  8 15  2  0  0  0  0
  8 11  1  0  0  0  0
  9 10  1  0  0  0  0
  9 12  1  0  0  0  0
 11  7  1  0  0  0  0
 13  7  1  0  0  0  0
 13  4  1  0  0  0  0
 15  1  1  0  0  0  0
 18 16  1  0  0  0  0
 18 17  1  0  0  0  0
 18 19  1  0  0  0  0
 19 21  1  0  0  0  0
 20 26  1  0  0  0  0
 21 22  1  0  0  0  0
 21 20  1  0  0  0  0
 22 25  1  0  0  0  0
 25 23  2  0  0  0  0
 25 24  1  0  0  0  0
 26 24  1  0  0  0  0
 27 13  1  0  0  0  0
 28 29  2  0  0  0  0
 29 27  1  0  0  0  0
 31 30  1  0  0  0  0
 31 28  1  0  0  0  0
 32 29  1  0  0  0  0
 32 33  1  0  0  0  0
 34 33  1  0  0  0  0
 35 34  1  0  0  0  0
 37 36  1  0  0  0  0
 37 35  1  0  0  0  0
M  END
>  <MODEL>
9

>  <REMARK>
 VINA RESULT:      -4.5      2.291      3.280
  Name = 
  12 active torsions:
  status: ('A' for Active; 'I' for Inactive)
    1  A    between atoms: N_1  and  C_5
    2  A    between atoms: N_1  and  C_23
    3  A    between atoms: C_5  and  O_17
    4  A    between atoms: C_6  and  C_37
    5  A    between atoms: N_10  and  C_14
    6  A    between atoms: C_14  and  C_31
    7  A    between atoms: O_17  and  C_26
    8  A    between atoms: C_26  and  C_33
    9  A    between atoms: C_27  and  C_34
   10  A    between atoms: C_29  and  C_36
   11  A    between atoms: C_31  and  C_37
   12  A    between atoms: C_33  and  C_36
                            x       y       z     vdW  Elec       q    Type
                         _______ _______ _______ _____ _____    ______ ____

>  <TORSDO>
F 12

$$$$
