=
 OpenBabel11052423063D

 27 31  0  0  1  0  0  0  0  0999 V2000
  160.4380  205.6920  148.8630 C   0  0  0  0  0  3  0  0  0  0  0  0
  161.0340  205.5790  151.2740 C   0  0  0  0  0  0  0  0  0  0  0  0
  161.7400  207.8360  150.5610 C   0  0  0  0  0  3  0  0  0  0  0  0
  160.8410  207.5770  155.2730 S   0  0  0  0  0  0  0  0  0  0  0  0
  159.9510  210.1960  155.3300 C   0  0  0  0  0  1  0  0  0  0  0  0
  161.3800  204.8190  152.5120 C   0  0  0  0  0  3  0  0  0  0  0  0
  160.3620  208.8560  153.2410 C   0  0  0  0  0  0  0  0  0  0  0  0
  160.0380  209.7870  152.4530 O   0  0  0  0  0  0  0  0  0  0  0  0
  160.7540  207.5750  152.7980 C   0  0  0  0  0  0  0  0  0  0  0  0
  160.8540  204.9450  150.0840 C   0  0  0  0  0  0  0  0  0  0  0  0
  160.3690  209.0190  154.5910 N   0  0  0  0  0  0  0  0  0  0  0  0
  161.0670  206.7380  153.8500 C   0  0  0  0  0  0  0  0  0  0  0  0
  160.8060  206.9250  148.4790 C   0  0  0  0  0  0  0  0  0  0  0  0
  160.7530  207.0740  151.3830 C   0  0  2  0  0  3  0  0  0  0  0  0
  161.3950  205.3620  153.6890 N   0  0  0  0  0  0  0  0  0  0  0  0
  161.7880  207.7430  149.2300 C   0  0  0  0  0  0  0  0  0  0  0  0
  161.2340  200.6830  149.5330 C   0  0  0  0  0  3  0  0  0  0  0  0
  160.9620  203.4630  149.9140 C   0  0  0  0  0  0  0  0  0  0  0  0
  161.0170  202.5860  151.0140 C   0  0  0  0  0  3  0  0  0  0  0  0
  161.1440  201.2060  150.8240 C   0  0  0  0  0  3  0  0  0  0  0  0
  161.2010  201.5400  148.4310 C   0  0  0  0  0  3  0  0  0  0  0  0
  161.0670  202.9170  148.6220 C   0  0  0  0  0  3  0  0  0  0  0  0
  162.9020  209.9530  149.2280 C   0  0  0  0  0  2  0  0  0  0  0  0
  162.0120  209.8980  148.0090 C   0  0  0  0  0  2  0  0  0  0  0  0
  162.7310  208.6420  148.4810 C   0  0  0  0  0  3  0  0  0  0  0  0
  160.2730  207.4580  147.3020 O   0  0  0  0  0  0  0  0  0  0  0  0
  160.3810  206.8140  146.1310 O   0  0  0  0  0  1  0  0  0  0  0  0
  1 10  1  0  0  0  0
  2 14  1  0  0  0  0
  2  6  1  0  0  0  0
  6 15  2  0  0  0  0
  7 11  1  0  0  0  0
  8  7  2  0  0  0  0
  9  7  1  0  0  0  0
  9 12  2  0  0  0  0
 10  2  2  0  0  0  0
 11  4  1  0  0  0  0
 11  5  1  0  0  0  0
 12  4  1  0  0  0  0
 13  1  2  0  0  0  0
 13 16  1  0  0  0  0
 14  3  1  6  0  0  0
 14  9  1  0  0  0  0
 15 12  1  0  0  0  0
 16  3  2  0  0  0  0
 17 20  1  0  0  0  0
 18 10  1  0  0  0  0
 18 19  1  0  0  0  0
 20 19  2  0  0  0  0
 21 22  1  0  0  0  0
 21 17  2  0  0  0  0
 22 18  2  0  0  0  0
 24 25  1  0  0  0  0
 24 23  1  0  0  0  0
 25 23  1  0  0  0  0
 25 16  1  0  0  0  0
 26 13  1  0  0  0  0
 27 26  1  0  0  0  0
M  END
>  <MODEL>
1

>  <REMARK>
 VINA RESULT:      -6.4      0.000      0.000
  Name = 
  3 active torsions:
  status: ('A' for Active; 'I' for Inactive)
    1  A    between atoms: C_9  and  C_15
    2  A    between atoms: C_18  and  O_22
    3  A    between atoms: C_20  and  C_26
                            x       y       z     vdW  Elec       q    Type
                         _______ _______ _______ _____ _____    ______ ____

>  <TORSDO>
F 3

$$$$
=
 OpenBabel11052423063D

 27 31  0  0  0  0  0  0  0  0999 V2000
  162.5500  208.8320  148.6020 C   0  0  0  0  0  3  0  0  0  0  0  0
  161.4640  209.9520  150.5370 C   0  0  0  0  0  0  0  0  0  0  0  0
  160.8320  207.5740  150.7550 C   0  0  0  0  0  3  0  0  0  0  0  0
  160.7250  209.9140  154.9500 S   0  0  0  0  0  0  0  0  0  0  0  0
  161.4740  207.6360  156.3330 C   0  0  0  0  0  1  0  0  0  0  0  0
  160.8960  211.1550  151.2150 C   0  0  0  0  0  2  0  0  0  0  0  0
  161.5690  207.9050  153.8330 C   0  0  0  0  0  0  0  0  0  0  0  0
  162.0140  206.7430  153.6190 O   0  0  0  0  0  0  0  0  0  0  0  0
  161.3330  208.8400  152.8030 C   0  0  0  0  0  0  0  0  0  0  0  0
  161.9180  210.0130  149.2570 C   0  0  0  0  0  0  0  0  0  0  0  0
  161.2700  208.3470  155.0830 N   0  0  0  0  0  0  0  0  0  0  0  0
  160.8400  210.0330  153.2910 C   0  0  0  0  0  0  0  0  0  0  0  0
  162.2210  207.5370  148.7300 C   0  0  0  0  0  0  0  0  0  0  0  0
  161.6540  208.6730  151.3450 C   0  0  0  0  0  0  0  0  0  0  0  0
  160.6100  211.1800  152.4800 N   0  0  0  0  0  0  0  0  0  0  0  0
  161.0700  207.0740  149.5410 C   0  0  0  0  0  0  0  0  0  0  0  0
  161.9740  213.5980  146.8580 C   0  0  0  0  0  3  0  0  0  0  0  0
  161.9090  211.2630  148.4360 C   0  0  0  0  0  0  0  0  0  0  0  0
  160.8030  211.6310  147.6460 C   0  0  0  0  0  3  0  0  0  0  0  0
  160.8330  212.7930  146.8690 C   0  0  0  0  0  3  0  0  0  0  0  0
  163.0870  213.2380  147.6200 C   0  0  0  0  0  3  0  0  0  0  0  0
  163.0530  212.0800  148.4010 C   0  0  0  0  0  3  0  0  0  0  0  0
  160.0800  204.9150  150.2340 C   0  0  0  0  0  2  0  0  0  0  0  0
  161.1040  204.6170  149.1640 C   0  0  0  0  0  2  0  0  0  0  0  0
  160.2700  205.8880  149.0840 C   0  0  0  0  0  3  0  0  0  0  0  0
  162.9680  206.5750  148.0440 O   0  0  0  0  0  0  0  0  0  0  0  0
  162.6470  206.1980  146.7980 O   0  0  0  0  0  1  0  0  0  0  0  0
  1 13  2  0  0  0  0
  1 10  1  0  0  0  0
  2  6  1  0  0  0  0
  2 14  1  0  0  0  0
  3 14  1  0  0  0  0
  4 11  1  0  0  0  0
  6 15  1  0  0  0  0
  7 11  1  0  0  0  0
  8  7  2  0  0  0  0
  9 12  1  0  0  0  0
  9  7  1  0  0  0  0
 10  2  2  0  0  0  0
 11  5  1  0  0  0  0
 12  4  1  0  0  0  0
 13 16  1  0  0  0  0
 14  9  2  0  0  0  0
 15 12  2  0  0  0  0
 16  3  2  0  0  0  0
 17 20  2  0  0  0  0
 17 21  1  0  0  0  0
 18 10  1  0  0  0  0
 19 18  2  0  0  0  0
 20 19  1  0  0  0  0
 21 22  2  0  0  0  0
 22 18  1  0  0  0  0
 24 23  1  0  0  0  0
 25 24  1  0  0  0  0
 25 16  1  0  0  0  0
 25 23  1  0  0  0  0
 26 13  1  0  0  0  0
 27 26  1  0  0  0  0
M  END
>  <MODEL>
2

>  <REMARK>
 VINA RESULT:      -6.4      2.167      6.081
  Name = 
  3 active torsions:
  status: ('A' for Active; 'I' for Inactive)
    1  A    between atoms: C_9  and  C_15
    2  A    between atoms: C_18  and  O_22
    3  A    between atoms: C_20  and  C_26
                            x       y       z     vdW  Elec       q    Type
                         _______ _______ _______ _____ _____    ______ ____

>  <TORSDO>
F 3

$$$$
=
 OpenBabel11052423063D

 27 31  0  0  1  0  0  0  0  0999 V2000
  162.1700  207.2070  150.0800 C   0  0  0  0  0  3  0  0  0  0  0  0
  161.0180  205.0960  150.7070 C   0  0  0  0  0  0  0  0  0  0  0  0
  160.7450  205.2540  148.2570 C   0  0  0  0  0  3  0  0  0  0  0  0
  160.4820  200.7340  149.8650 S   0  0  0  0  0  0  0  0  0  0  0  0
  161.6080  199.7530  147.5360 C   0  0  0  0  0  1  0  0  0  0  0  0
  160.3120  204.2220  151.6900 C   0  0  0  0  0  3  0  0  0  0  0  0
  161.5570  202.1780  148.2060 C   0  0  0  0  0  0  0  0  0  0  0  0
  162.1550  202.5860  147.1720 O   0  0  0  0  0  0  0  0  0  0  0  0
  161.1450  203.0380  149.2460 C   0  0  0  0  0  0  0  0  0  0  0  0
  161.4030  206.3580  151.0350 C   0  0  0  0  0  0  0  0  0  0  0  0
  161.2520  200.8670  148.3960 N   0  0  0  0  0  0  0  0  0  0  0  0
  160.5070  202.3540  150.2600 C   0  0  0  0  0  0  0  0  0  0  0  0
  162.0370  207.2850  148.7460 C   0  0  0  0  0  0  0  0  0  0  0  0
  161.4240  204.5090  149.3600 C   0  0  2  0  0  3  0  0  0  0  0  0
  160.0800  202.9640  151.4730 N   0  0  0  0  0  0  0  0  0  0  0  0
  161.0000  206.5380  147.9960 C   0  0  0  0  0  0  0  0  0  0  0  0
  160.6860  208.1530  154.8920 C   0  0  0  0  0  3  0  0  0  0  0  0
  161.1790  206.9650  152.3840 C   0  0  0  0  0  0  0  0  0  0  0  0
  161.1850  206.1940  153.5620 C   0  0  0  0  0  3  0  0  0  0  0  0
  160.9480  206.7850  154.8070 C   0  0  0  0  0  3  0  0  0  0  0  0
  160.6580  208.9310  153.7330 C   0  0  0  0  0  3  0  0  0  0  0  0
  160.9010  208.3400  152.4900 C   0  0  0  0  0  3  0  0  0  0  0  0
  159.6760  206.1010  145.9510 C   0  0  0  0  0  2  0  0  0  0  0  0
  161.0110  206.6550  145.5120 C   0  0  0  0  0  2  0  0  0  0  0  0
  160.3600  207.1660  146.7900 C   0  0  0  0  0  3  0  0  0  0  0  0
  162.8840  208.1310  148.0260 O   0  0  0  0  0  0  0  0  0  0  0  0
  162.8000  209.4650  148.1380 O   0  0  0  0  0  1  0  0  0  0  0  0
  1 10  1  0  0  0  0
  2 10  2  0  0  0  0
  2  6  1  0  0  0  0
  4 12  1  0  0  0  0
  5 11  1  0  0  0  0
  7 11  1  0  0  0  0
  7  9  1  0  0  0  0
  8  7  2  0  0  0  0
  9 14  1  0  0  0  0
  9 12  2  0  0  0  0
 10 18  1  0  0  0  0
 11  4  1  0  0  0  0
 12 15  1  0  0  0  0
 13  1  2  0  0  0  0
 14  3  1  6  0  0  0
 14  2  1  0  0  0  0
 15  6  2  0  0  0  0
 16  3  2  0  0  0  0
 16 13  1  0  0  0  0
 18 22  2  0  0  0  0
 18 19  1  0  0  0  0
 19 20  2  0  0  0  0
 20 17  1  0  0  0  0
 21 17  2  0  0  0  0
 22 21  1  0  0  0  0
 23 25  1  0  0  0  0
 24 23  1  0  0  0  0
 24 25  1  0  0  0  0
 25 16  1  0  0  0  0
 26 27  1  0  0  0  0
 26 13  1  0  0  0  0
M  END
>  <MODEL>
3

>  <REMARK>
 VINA RESULT:      -5.8      2.853      6.136
  Name = 
  3 active torsions:
  status: ('A' for Active; 'I' for Inactive)
    1  A    between atoms: C_9  and  C_15
    2  A    between atoms: C_18  and  O_22
    3  A    between atoms: C_20  and  C_26
                            x       y       z     vdW  Elec       q    Type
                         _______ _______ _______ _____ _____    ______ ____

>  <TORSDO>
F 3

$$$$
=
 OpenBabel11052423063D

 27 31  0  0  1  0  0  0  0  0999 V2000
  160.0610  211.8120  152.4190 C   0  0  0  0  0  3  0  0  0  0  0  0
  161.2660  210.0030  151.2130 C   0  0  1  0  0  3  0  0  0  0  0  0
  161.5810  209.4770  153.6060 C   0  0  0  0  0  3  0  0  0  0  0  0
  161.9520  205.6020  150.7910 S   0  0  0  0  0  0  0  0  0  0  0  0
  160.9000  203.9680  152.7610 C   0  0  0  0  0  1  0  0  0  0  0  0
  161.9800  209.4650  150.0180 C   0  0  0  0  0  3  0  0  0  0  0  0
  160.8640  206.4840  152.7990 C   0  0  0  0  0  0  0  0  0  0  0  0
  160.2740  206.5640  153.9120 O   0  0  0  0  0  0  0  0  0  0  0  0
  161.2300  207.6150  152.0390 C   0  0  0  0  0  0  0  0  0  0  0  0
  160.8360  211.2930  151.2570 C   0  0  0  0  0  0  0  0  0  0  0  0
  161.2060  205.2900  152.2450 N   0  0  0  0  0  0  0  0  0  0  0  0
  161.8700  207.2650  150.8670 C   0  0  0  0  0  0  0  0  0  0  0  0
  160.2170  211.5170  153.7200 C   0  0  0  0  0  0  0  0  0  0  0  0
  160.9030  209.0480  152.3460 C   0  0  0  0  0  0  0  0  0  0  0  0
  162.2540  208.2060  149.8700 N   0  0  0  0  0  0  0  0  0  0  0  0
  161.2910  210.6260  154.2210 C   0  0  0  0  0  0  0  0  0  0  0  0
  161.3570  214.1540  148.0700 C   0  0  0  0  0  3  0  0  0  0  0  0
  161.0160  212.2610  150.1310 C   0  0  0  0  0  0  0  0  0  0  0  0
  161.9540  212.0480  149.1030 C   0  0  0  0  0  3  0  0  0  0  0  0
  162.1170  212.9830  148.0770 C   0  0  0  0  0  3  0  0  0  0  0  0
  160.4350  214.3910  149.0920 C   0  0  0  0  0  3  0  0  0  0  0  0
  160.2680  213.4520  150.1130 C   0  0  0  0  0  3  0  0  0  0  0  0
  162.3310  209.6120  156.2240 C   0  0  0  0  0  2  0  0  0  0  0  0
  161.0920  210.3450  156.6830 C   0  0  0  0  0  2  0  0  0  0  0  0
  161.9340  210.9120  155.5480 C   0  0  0  0  0  3  0  0  0  0  0  0
  159.3580  212.0970  154.6570 O   0  0  0  0  0  0  0  0  0  0  0  0
  158.1880  211.5280  154.9790 O   0  0  0  0  0  1  0  0  0  0  0  0
  1 13  1  0  0  0  0
  2  6  1  6  0  0  0
  2 10  1  0  0  0  0
  2 14  1  0  0  0  0
  3 16  1  0  0  0  0
  4 12  1  0  0  0  0
  4 11  1  0  0  0  0
  7  8  2  0  0  0  0
  9 14  1  0  0  0  0
  9  7  1  0  0  0  0
 10  1  2  0  0  0  0
 11  5  1  0  0  0  0
 11  7  1  0  0  0  0
 12  9  2  0  0  0  0
 13 16  2  0  0  0  0
 13 26  1  0  0  0  0
 14  3  2  0  0  0  0
 15  6  2  0  0  0  0
 15 12  1  0  0  0  0
 16 25  1  0  0  0  0
 17 20  2  0  0  0  0
 17 21  1  0  0  0  0
 18 10  1  0  0  0  0
 19 18  2  0  0  0  0
 20 19  1  0  0  0  0
 21 22  2  0  0  0  0
 22 18  1  0  0  0  0
 23 24  1  0  0  0  0
 25 23  1  0  0  0  0
 25 24  1  0  0  0  0
 26 27  1  0  0  0  0
M  END
>  <MODEL>
4

>  <REMARK>
 VINA RESULT:      -5.3      3.329      7.525
  Name = 
  3 active torsions:
  status: ('A' for Active; 'I' for Inactive)
    1  A    between atoms: C_9  and  C_15
    2  A    between atoms: C_18  and  O_22
    3  A    between atoms: C_20  and  C_26
                            x       y       z     vdW  Elec       q    Type
                         _______ _______ _______ _____ _____    ______ ____

>  <TORSDO>
F 3

$$$$
=
 OpenBabel11052423063D

 27 31  0  0  1  0  0  0  0  0999 V2000
  162.0630  210.4210  154.1600 C   0  0  0  0  0  3  0  0  0  0  0  0
  159.7700  211.0550  153.4400 C   0  0  1  0  0  3  0  0  0  0  0  0
  159.5130  210.3410  155.7900 C   0  0  0  0  0  3  0  0  0  0  0  0
  156.0590  213.3690  154.3830 S   0  0  0  0  0  0  0  0  0  0  0  0
  155.8610  214.4530  156.9210 C   0  0  0  0  0  1  0  0  0  0  0  0
  158.7310  211.2690  152.3890 C   0  0  0  0  0  3  0  0  0  0  0  0
  157.7140  212.9420  156.1360 C   0  0  0  0  0  0  0  0  0  0  0  0
  158.3270  212.9440  157.2390 O   0  0  0  0  0  0  0  0  0  0  0  0
  158.1800  212.2500  154.9980 C   0  0  0  0  0  0  0  0  0  0  0  0
  161.0010  210.5690  153.1250 C   0  0  0  0  0  0  0  0  0  0  0  0
  156.5410  213.6050  155.9580 N   0  0  0  0  0  0  0  0  0  0  0  0
  157.3310  212.3950  153.9210 C   0  0  0  0  0  0  0  0  0  0  0  0
  161.9270  210.0490  155.4430 C   0  0  0  0  0  0  0  0  0  0  0  0
  159.4820  211.5130  154.8650 C   0  0  0  0  0  0  0  0  0  0  0  0
  157.6130  211.8840  152.6220 N   0  0  0  0  0  0  0  0  0  0  0  0
  160.6270  209.6460  156.0310 C   0  0  0  0  0  0  0  0  0  0  0  0
  162.1570  209.5330  149.1000 C   0  0  0  0  0  3  0  0  0  0  0  0
  161.4240  210.2320  151.7300 C   0  0  0  0  0  0  0  0  0  0  0  0
  161.6200  211.2220  150.7490 C   0  0  0  0  0  3  0  0  0  0  0  0
  161.9910  210.8760  149.4460 C   0  0  0  0  0  3  0  0  0  0  0  0
  161.9480  208.5370  150.0550 C   0  0  0  0  0  3  0  0  0  0  0  0
  161.5840  208.8850  151.3580 C   0  0  0  0  0  3  0  0  0  0  0  0
  161.2560  207.3070  156.5380 C   0  0  0  0  0  2  0  0  0  0  0  0
  159.7480  207.3870  156.5850 C   0  0  0  0  0  2  0  0  0  0  0  0
  160.5870  208.5620  157.0700 C   0  0  0  0  0  3  0  0  0  0  0  0
  163.0580  210.0010  156.2620 O   0  0  0  0  0  0  0  0  0  0  0  0
  163.4300  211.0540  157.0030 O   0  0  0  0  0  1  0  0  0  0  0  0
  1 13  1  0  0  0  0
  2  6  1  6  0  0  0
  2 14  1  0  0  0  0
  3 16  1  0  0  0  0
  4 11  1  0  0  0  0
  6 15  2  0  0  0  0
  7  8  2  0  0  0  0
  9  7  1  0  0  0  0
 10  2  1  0  0  0  0
 10  1  2  0  0  0  0
 11  7  1  0  0  0  0
 11  5  1  0  0  0  0
 12  4  1  0  0  0  0
 12  9  2  0  0  0  0
 13 16  2  0  0  0  0
 13 26  1  0  0  0  0
 14  9  1  0  0  0  0
 14  3  2  0  0  0  0
 15 12  1  0  0  0  0
 16 25  1  0  0  0  0
 17 20  2  0  0  0  0
 17 21  1  0  0  0  0
 18 10  1  0  0  0  0
 19 18  2  0  0  0  0
 20 19  1  0  0  0  0
 21 22  2  0  0  0  0
 22 18  1  0  0  0  0
 23 24  1  0  0  0  0
 23 25  1  0  0  0  0
 24 25  1  0  0  0  0
 26 27  1  0  0  0  0
M  END
>  <MODEL>
5

>  <REMARK>
 VINA RESULT:      -5.3      5.192      7.603
  Name = 
  3 active torsions:
  status: ('A' for Active; 'I' for Inactive)
    1  A    between atoms: C_9  and  C_15
    2  A    between atoms: C_18  and  O_22
    3  A    between atoms: C_20  and  C_26
                            x       y       z     vdW  Elec       q    Type
                         _______ _______ _______ _____ _____    ______ ____

>  <TORSDO>
F 3

$$$$
=
 OpenBabel11052423063D

 27 31  0  0  1  0  0  0  0  0999 V2000
  158.8920  210.0160  155.5070 C   0  0  0  0  0  3  0  0  0  0  0  0
  159.1000  211.9220  153.9250 C   0  0  0  0  0  0  0  0  0  0  0  0
  161.3410  210.8830  153.9520 C   0  0  0  0  0  3  0  0  0  0  0  0
  160.4690  213.3080  149.8970 S   0  0  0  0  0  0  0  0  0  0  0  0
  162.0120  211.5510  148.4180 C   0  0  0  0  0  1  0  0  0  0  0  0
  158.6740  213.2540  153.4040 C   0  0  0  0  0  3  0  0  0  0  0  0
  161.2490  211.1630  150.7840 C   0  0  0  0  0  0  0  0  0  0  0  0
  161.8130  210.0390  150.8940 O   0  0  0  0  0  0  0  0  0  0  0  0
  160.4790  211.7420  151.8150 C   0  0  1  0  0  3  0  0  0  0  0  0
  158.5180  211.3760  155.0270 C   0  0  0  0  0  0  0  0  0  0  0  0
  161.3480  211.9160  149.6560 N   0  0  0  0  0  0  0  0  0  0  0  0
  159.9760  212.9750  151.4550 C   0  0  0  0  0  0  0  0  0  0  0  0
  160.1050  209.4400  155.5090 C   0  0  0  0  0  0  0  0  0  0  0  0
  160.1160  211.1100  153.1280 C   0  0  0  0  0  0  0  0  0  0  0  0
  159.0840  213.7290  152.2690 N   0  0  0  0  0  0  0  0  0  0  0  0
  161.3310  210.1440  155.0640 C   0  0  0  0  0  0  0  0  0  0  0  0
  155.3070  213.1950  157.2610 C   0  0  0  0  0  3  0  0  0  0  0  0
  157.4090  212.0340  155.7860 C   0  0  0  0  0  0  0  0  0  0  0  0
  157.5620  213.2980  156.3870 C   0  0  0  0  0  3  0  0  0  0  0  0
  156.5160  213.8770  157.1120 C   0  0  0  0  0  3  0  0  0  0  0  0
  155.1440  211.9330  156.6870 C   0  0  0  0  0  3  0  0  0  0  0  0
  156.1880  211.3580  155.9570 C   0  0  0  0  0  3  0  0  0  0  0  0
  162.4370  209.8710  157.2610 C   0  0  0  0  0  2  0  0  0  0  0  0
  163.0620  211.0710  156.5890 C   0  0  0  0  0  2  0  0  0  0  0  0
  162.6360  209.8700  155.7550 C   0  0  0  0  0  3  0  0  0  0  0  0
  160.2370  208.1320  155.9820 O   0  0  0  0  0  0  0  0  0  0  0  0
  160.4530  207.1050  155.1470 O   0  0  0  0  0  1  0  0  0  0  0  0
  1 13  1  0  0  0  0
  2 10  1  0  0  0  0
  3 16  1  0  0  0  0
  4 12  1  0  0  0  0
  5 11  1  0  0  0  0
  6  2  2  0  0  0  0
  7  8  2  0  0  0  0
  9  7  1  6  0  0  0
  9 14  1  0  0  0  0
 10  1  2  0  0  0  0
 10 18  1  0  0  0  0
 11  4  1  0  0  0  0
 11  7  1  0  0  0  0
 12  9  1  0  0  0  0
 12 15  2  0  0  0  0
 13 26  1  0  0  0  0
 14  2  1  0  0  0  0
 14  3  2  0  0  0  0
 15  6  1  0  0  0  0
 16 13  2  0  0  0  0
 16 25  1  0  0  0  0
 18 22  2  0  0  0  0
 18 19  1  0  0  0  0
 19 20  2  0  0  0  0
 20 17  1  0  0  0  0
 21 17  2  0  0  0  0
 22 21  1  0  0  0  0
 24 23  1  0  0  0  0
 25 24  1  0  0  0  0
 25 23  1  0  0  0  0
 27 26  1  0  0  0  0
M  END
>  <MODEL>
6

>  <REMARK>
 VINA RESULT:      -4.7      5.966      8.977
  Name = 
  3 active torsions:
  status: ('A' for Active; 'I' for Inactive)
    1  A    between atoms: C_9  and  C_15
    2  A    between atoms: C_18  and  O_22
    3  A    between atoms: C_20  and  C_26
                            x       y       z     vdW  Elec       q    Type
                         _______ _______ _______ _____ _____    ______ ____

>  <TORSDO>
F 3

$$$$
=
 OpenBabel11052423063D

 27 31  0  0  1  0  0  0  0  0999 V2000
  160.6300  210.1200  151.2000 C   0  0  0  0  0  3  0  0  0  0  0  0
  161.7510  208.6190  149.5660 C   0  0  0  0  0  0  0  0  0  0  0  0
  161.6860  207.3200  151.6660 C   0  0  0  0  0  3  0  0  0  0  0  0
  161.9460  204.5280  147.7650 S   0  0  0  0  0  0  0  0  0  0  0  0
  160.4560  202.5420  148.9860 C   0  0  0  0  0  1  0  0  0  0  0  0
  162.5440  208.3820  148.3230 C   0  0  0  0  0  3  0  0  0  0  0  0
  160.7220  204.8890  149.8540 C   0  0  0  0  0  0  0  0  0  0  0  0
  160.0060  204.7050  150.8770 O   0  0  0  0  0  0  0  0  0  0  0  0
  161.3180  206.1300  149.5460 C   0  0  1  0  0  3  0  0  0  0  0  0
  161.4800  209.8800  149.9990 C   0  0  0  0  0  0  0  0  0  0  0  0
  160.9850  203.8940  148.9660 N   0  0  0  0  0  0  0  0  0  0  0  0
  162.0570  206.0730  148.3820 C   0  0  0  0  0  0  0  0  0  0  0  0
  160.5780  209.4070  152.3370 C   0  0  0  0  0  0  0  0  0  0  0  0
  161.1310  207.4250  150.2830 C   0  0  0  0  0  0  0  0  0  0  0  0
  162.6800  207.2080  147.7890 N   0  0  0  0  0  0  0  0  0  0  0  0
  161.4610  208.2460  152.6000 C   0  0  0  0  0  0  0  0  0  0  0  0
  162.7350  213.4870  147.9930 C   0  0  0  0  0  3  0  0  0  0  0  0
  161.9210  211.1140  149.2780 C   0  0  0  0  0  0  0  0  0  0  0  0
  163.1120  211.1570  148.5290 C   0  0  0  0  0  3  0  0  0  0  0  0
  163.5120  212.3320  147.8860 C   0  0  0  0  0  3  0  0  0  0  0  0
  161.5600  213.4680  148.7470 C   0  0  0  0  0  3  0  0  0  0  0  0
  161.1590  212.2910  149.3840 C   0  0  0  0  0  3  0  0  0  0  0  0
  161.9330  206.5040  154.2930 C   0  0  0  0  0  2  0  0  0  0  0  0
  160.8500  207.3950  154.8550 C   0  0  0  0  0  2  0  0  0  0  0  0
  161.9560  207.9930  153.9960 C   0  0  0  0  0  3  0  0  0  0  0  0
  159.6810  209.7890  153.3390 O   0  0  0  0  0  0  0  0  0  0  0  0
  159.8600  210.9140  154.0450 O   0  0  0  0  0  1  0  0  0  0  0  0
  1 13  1  0  0  0  0
  2 10  1  0  0  0  0
  2 14  1  0  0  0  0
  3 16  1  0  0  0  0
  4 12  1  0  0  0  0
  4 11  1  0  0  0  0
  6  2  2  0  0  0  0
  7  8  2  0  0  0  0
  9 12  1  6  0  0  0
  9  7  1  0  0  0  0
  9 14  1  0  0  0  0
 10  1  2  0  0  0  0
 11  5  1  0  0  0  0
 11  7  1  0  0  0  0
 13 16  2  0  0  0  0
 13 26  1  0  0  0  0
 14  3  2  0  0  0  0
 15  6  1  0  0  0  0
 15 12  2  0  0  0  0
 16 25  1  0  0  0  0
 17 21  1  0  0  0  0
 18 22  1  0  0  0  0
 18 10  1  0  0  0  0
 19 18  2  0  0  0  0
 20 17  2  0  0  0  0
 20 19  1  0  0  0  0
 21 22  2  0  0  0  0
 23 24  1  0  0  0  0
 25 23  1  0  0  0  0
 25 24  1  0  0  0  0
 26 27  1  0  0  0  0
M  END
>  <MODEL>
7

>  <REMARK>
 VINA RESULT:      -4.6      3.016      7.257
  Name = 
  3 active torsions:
  status: ('A' for Active; 'I' for Inactive)
    1  A    between atoms: C_9  and  C_15
    2  A    between atoms: C_18  and  O_22
    3  A    between atoms: C_20  and  C_26
                            x       y       z     vdW  Elec       q    Type
                         _______ _______ _______ _____ _____    ______ ____

>  <TORSDO>
F 3

$$$$
=
 OpenBabel11052423063D

 27 31  0  0  1  0  0  0  0  0999 V2000
  161.2230  209.5360  152.2980 C   0  0  0  0  0  3  0  0  0  0  0  0
  160.0350  211.4720  153.3070 C   0  0  0  0  0  0  0  0  0  0  0  0
  160.3860  212.1150  150.9480 C   0  0  0  0  0  3  0  0  0  0  0  0
  156.6600  214.3880  152.9560 S   0  0  0  0  0  0  0  0  0  0  0  0
  155.2980  214.4530  150.5480 C   0  0  0  0  0  1  0  0  0  0  0  0
  159.6450  212.3140  154.4770 C   0  0  0  0  0  3  0  0  0  0  0  0
  157.3550  213.0790  151.0070 C   0  0  0  0  0  0  0  0  0  0  0  0
  157.4100  212.5820  149.8480 O   0  0  0  0  0  0  0  0  0  0  0  0
  158.2710  212.7520  152.0290 C   0  0  0  0  0  0  0  0  0  0  0  0
  160.8870  210.4210  153.4480 C   0  0  0  0  0  0  0  0  0  0  0  0
  156.4040  213.9830  151.3620 N   0  0  0  0  0  0  0  0  0  0  0  0
  158.0040  213.4320  153.1990 C   0  0  0  0  0  0  0  0  0  0  0  0
  161.3990  209.8780  151.0110 C   0  0  0  0  0  0  0  0  0  0  0  0
  159.3620  211.7220  151.9620 C   0  0  2  0  0  3  0  0  0  0  0  0
  158.7120  213.2130  154.4150 N   0  0  0  0  0  0  0  0  0  0  0  0
  161.3430  211.2800  150.5350 C   0  0  0  0  0  0  0  0  0  0  0  0
  162.6000  209.3210  157.2520 C   0  0  0  0  0  3  0  0  0  0  0  0
  161.4810  210.0090  154.7590 C   0  0  0  0  0  0  0  0  0  0  0  0
  160.9440  208.9560  155.5240 C   0  0  0  0  0  3  0  0  0  0  0  0
  161.5050  208.6100  156.7570 C   0  0  0  0  0  3  0  0  0  0  0  0
  163.1330  210.3800  156.5150 C   0  0  0  0  0  3  0  0  0  0  0  0
  162.5760  210.7210  155.2800 C   0  0  0  0  0  3  0  0  0  0  0  0
  161.5980  212.8470  148.6370 C   0  0  0  0  0  2  0  0  0  0  0  0
  161.6100  211.4480  148.0690 C   0  0  0  0  0  2  0  0  0  0  0  0
  162.2500  211.7230  149.4220 C   0  0  0  0  0  3  0  0  0  0  0  0
  161.6830  208.8800  150.0740 O   0  0  0  0  0  0  0  0  0  0  0  0
  160.8820  207.8150  149.9220 O   0  0  0  0  0  1  0  0  0  0  0  0
  1 10  1  0  0  0  0
  2 10  2  0  0  0  0
  2  6  1  0  0  0  0
  4 12  1  0  0  0  0
  5 11  1  0  0  0  0
  7 11  1  0  0  0  0
  7  9  1  0  0  0  0
  8  7  2  0  0  0  0
  9 12  2  0  0  0  0
 10 18  1  0  0  0  0
 11  4  1  0  0  0  0
 12 15  1  0  0  0  0
 13  1  2  0  0  0  0
 14  3  1  6  0  0  0
 14  9  1  0  0  0  0
 14  2  1  0  0  0  0
 15  6  2  0  0  0  0
 16  3  2  0  0  0  0
 16 13  1  0  0  0  0
 18 22  2  0  0  0  0
 18 19  1  0  0  0  0
 19 20  2  0  0  0  0
 20 17  1  0  0  0  0
 21 17  2  0  0  0  0
 22 21  1  0  0  0  0
 23 25  1  0  0  0  0
 24 23  1  0  0  0  0
 24 25  1  0  0  0  0
 25 16  1  0  0  0  0
 26 13  1  0  0  0  0
 27 26  1  0  0  0  0
M  END
>  <MODEL>
8

>  <REMARK>
 VINA RESULT:      -4.6      5.187      6.935
  Name = 
  3 active torsions:
  status: ('A' for Active; 'I' for Inactive)
    1  A    between atoms: C_9  and  C_15
    2  A    between atoms: C_18  and  O_22
    3  A    between atoms: C_20  and  C_26
                            x       y       z     vdW  Elec       q    Type
                         _______ _______ _______ _____ _____    ______ ____

>  <TORSDO>
F 3

$$$$
=
 OpenBabel11052423063D

 27 31  0  0  1  0  0  0  0  0999 V2000
  161.7160  206.0990  152.9520 C   0  0  0  0  0  3  0  0  0  0  0  0
  161.3140  206.8890  150.6300 C   0  0  0  0  0  0  0  0  0  0  0  0
  160.6740  208.7990  152.0610 C   0  0  0  0  0  3  0  0  0  0  0  0
  161.9390  210.1460  147.6260 S   0  0  0  0  0  0  0  0  0  0  0  0
  162.9690  212.5390  148.5580 C   0  0  0  0  0  1  0  0  0  0  0  0
  161.0290  206.6440  149.1850 C   0  0  0  0  0  3  0  0  0  0  0  0
  162.3180  210.5860  150.0040 C   0  0  0  0  0  0  0  0  0  0  0  0
  162.6260  211.1510  151.0900 O   0  0  0  0  0  0  0  0  0  0  0  0
  161.8230  209.2660  149.9370 C   0  0  1  0  0  3  0  0  0  0  0  0
  161.3620  205.8650  151.5230 C   0  0  0  0  0  0  0  0  0  0  0  0
  162.4290  211.2140  148.8040 N   0  0  0  0  0  0  0  0  0  0  0  0
  161.5530  208.8810  148.6400 C   0  0  0  0  0  0  0  0  0  0  0  0
  161.3850  207.1420  153.7290 C   0  0  0  0  0  0  0  0  0  0  0  0
  161.6820  208.2990  151.0780 C   0  0  0  0  0  0  0  0  0  0  0  0
  161.1400  207.5670  148.2800 N   0  0  0  0  0  0  0  0  0  0  0  0
  160.5120  208.2470  153.2660 C   0  0  0  0  0  0  0  0  0  0  0  0
  160.8330  201.7430  150.3640 C   0  0  0  0  0  3  0  0  0  0  0  0
  161.1610  204.4310  151.1470 C   0  0  0  0  0  0  0  0  0  0  0  0
  161.3280  203.3840  152.0730 C   0  0  0  0  0  3  0  0  0  0  0  0
  161.1570  202.0510  151.6860 C   0  0  0  0  0  3  0  0  0  0  0  0
  160.6820  202.7670  149.4270 C   0  0  0  0  0  3  0  0  0  0  0  0
  160.8460  204.0990  149.8170 C   0  0  0  0  0  3  0  0  0  0  0  0
  159.2960  210.3320  153.8130 C   0  0  0  0  0  2  0  0  0  0  0  0
  160.2400  210.0480  154.9580 C   0  0  0  0  0  2  0  0  0  0  0  0
  159.5610  208.8960  154.2300 C   0  0  0  0  0  3  0  0  0  0  0  0
  161.8470  207.1830  155.0470 O   0  0  0  0  0  0  0  0  0  0  0  0
  161.0340  206.9250  156.0820 O   0  0  0  0  0  1  0  0  0  0  0  0
  1 13  1  0  0  0  0
  2 14  1  0  0  0  0
  2 10  1  0  0  0  0
  3 16  1  0  0  0  0
  4 12  1  0  0  0  0
  4 11  1  0  0  0  0
  5 11  1  0  0  0  0
  6  2  2  0  0  0  0
  7  8  2  0  0  0  0
  9 12  1  6  0  0  0
  9  7  1  0  0  0  0
  9 14  1  0  0  0  0
 10  1  2  0  0  0  0
 11  7  1  0  0  0  0
 13 26  1  0  0  0  0
 14  3  2  0  0  0  0
 15 12  2  0  0  0  0
 15  6  1  0  0  0  0
 16 13  2  0  0  0  0
 16 25  1  0  0  0  0
 17 20  1  0  0  0  0
 18 10  1  0  0  0  0
 18 19  1  0  0  0  0
 20 19  2  0  0  0  0
 21 22  1  0  0  0  0
 21 17  2  0  0  0  0
 22 18  2  0  0  0  0
 23 25  1  0  0  0  0
 23 24  1  0  0  0  0
 25 24  1  0  0  0  0
 26 27  1  0  0  0  0
M  END
>  <MODEL>
9

>  <REMARK>
 VINA RESULT:      -4.5      3.085      4.985
  Name = 
  3 active torsions:
  status: ('A' for Active; 'I' for Inactive)
    1  A    between atoms: C_9  and  C_15
    2  A    between atoms: C_18  and  O_22
    3  A    between atoms: C_20  and  C_26
                            x       y       z     vdW  Elec       q    Type
                         _______ _______ _______ _____ _____    ______ ____

>  <TORSDO>
F 3

$$$$
