=
 OpenBabel11062410363D

 32 37  0  0  0  0  0  0  0  0999 V2000
  161.3270  203.1550  146.9140 C   0  0  0  0  0  3  0  0  0  0  0  0
  161.2440  206.4650  150.7450 C   0  0  0  0  0  0  0  0  0  0  0  0
  162.1840  210.7400  148.5600 C   0  0  0  0  0  3  0  0  0  0  0  0
  162.0980  211.3930  149.7880 C   0  0  0  0  0  3  0  0  0  0  0  0
  160.8730  206.4040  153.2120 C   0  0  0  0  0  0  0  0  0  0  0  0
  160.8030  207.1220  154.4000 C   0  0  0  0  0  0  0  0  0  0  0  0
  161.1470  204.4310  149.3950 C   0  0  0  0  0  0  0  0  0  0  0  0
  161.6110  206.5560  148.3300 C   0  0  0  0  0  3  0  0  0  0  0  0
  160.8650  208.8790  155.7130 N   0  0  0  0  0  0  0  0  0  0  0  0
  161.5150  204.5380  146.9980 C   0  0  0  0  0  3  0  0  0  0  0  0
  161.9940  209.3600  148.4900 C   0  0  0  0  0  3  0  0  0  0  0  0
  161.5240  207.2150  149.5710 C   0  0  0  0  0  0  0  0  0  0  0  0
  161.7150  208.6080  149.6470 C   0  0  0  0  0  0  0  0  0  0  0  0
  161.3500  208.5390  152.0680 C   0  0  0  0  0  0  0  0  0  0  0  0
  160.6000  207.8290  156.4800 N   0  0  0  0  0  0  0  0  0  0  0  0
  161.0490  202.4050  148.0680 C   0  0  0  0  0  0  0  0  0  0  0  0
  161.4260  205.1790  148.2360 C   0  0  0  0  0  0  0  0  0  0  0  0
  160.5530  206.7170  155.7000 C   0  0  0  0  0  3  0  0  0  0  0  0
  160.9610  203.0490  149.3070 C   0  0  0  0  0  3  0  0  0  0  0  0
  161.8220  210.6640  150.9450 C   0  0  0  0  0  3  0  0  0  0  0  0
  161.6280  209.2710  150.8950 C   0  0  0  0  0  0  0  0  0  0  0  0
  161.2650  209.2120  153.3090 C   0  0  0  0  0  3  0  0  0  0  0  0
  161.0600  205.0740  150.6280 C   0  0  0  0  0  3  0  0  0  0  0  0
  160.6730  205.0620  153.2480 F   0  0  0  0  0  0  0  0  0  0  0  0
  160.9880  210.2390  156.2070 C   0  0  0  0  0  1  0  0  0  0  0  0
  161.1540  207.1160  152.0040 C   0  0  0  0  0  0  0  0  0  0  0  0
  160.9910  208.4650  154.4450 C   0  0  0  0  0  0  0  0  0  0  0  0
  160.8540  200.9910  148.0030 N   0  0  0  0  0  2  0  0  0  0  0  0
  161.7530  200.1010  147.2830 C   0  0  0  0  0  2  0  0  0  0  0  0
  161.1050  199.6510  146.0220 C   0  0  0  0  0  0  0  0  0  0  0  0
  160.3570  200.5470  145.2690 O   0  0  0  0  0  0  0  0  0  0  0  0
  161.2640  198.4700  145.6200 O   0  0  0  0  0  1  0  0  0  0  0  0
  1 10  2  0  0  0  0
  1 16  1  0  0  0  0
  2 26  1  0  0  0  0
  3  4  1  0  0  0  0
  4 20  2  0  0  0  0
  5 24  1  0  0  0  0
  5  6  1  0  0  0  0
  6 27  2  0  0  0  0
  6 18  1  0  0  0  0
  7 23  2  0  0  0  0
  8 12  1  0  0  0  0
  9 25  1  0  0  0  0
  9 15  1  0  0  0  0
 10 17  1  0  0  0  0
 11  3  2  0  0  0  0
 11 13  1  0  0  0  0
 12 13  1  0  0  0  0
 12  2  2  0  0  0  0
 13 21  2  0  0  0  0
 14 22  2  0  0  0  0
 16 19  2  0  0  0  0
 17  8  2  0  0  0  0
 17  7  1  0  0  0  0
 18 15  2  0  0  0  0
 19  7  1  0  0  0  0
 21 20  1  0  0  0  0
 21 14  1  0  0  0  0
 22 27  1  0  0  0  0
 23  2  1  0  0  0  0
 26 14  1  0  0  0  0
 26  5  2  0  0  0  0
 27  9  1  0  0  0  0
 28 16  1  0  0  0  0
 29 28  1  0  0  0  0
 30 29  1  0  0  0  0
 31 30  2  0  0  0  0
 32 30  1  0  0  0  0
M  END
>  <MODEL>
1

>  <REMARK>
 VINA RESULT:     -10.9      0.000      0.000
  Name = 
  3 active torsions:
  status: ('A' for Active; 'I' for Inactive)
    1  A    between atoms: C_1  and  C_10
    2  A    between atoms: C_10  and  N_24
    3  A    between atoms: C_19  and  N_24
                            x       y       z     vdW  Elec       q    Type
                         _______ _______ _______ _____ _____    ______ ____

>  <TORSDO>
F 3

$$$$
=
 OpenBabel11062410363D

 32 37  0  0  0  0  0  0  0  0999 V2000
  162.1160  211.8370  150.0950 C   0  0  0  0  0  3  0  0  0  0  0  0
  161.5250  206.9190  149.0440 C   0  0  0  0  0  0  0  0  0  0  0  0
  161.0280  204.8760  153.4610 C   0  0  0  0  0  3  0  0  0  0  0  0
  160.8930  203.6210  152.8710 C   0  0  0  0  0  3  0  0  0  0  0  0
  161.4400  205.4770  147.0090 C   0  0  0  0  0  0  0  0  0  0  0  0
  161.2980  204.1940  146.4930 C   0  0  0  0  0  0  0  0  0  0  0  0
  161.8500  209.3340  148.8760 C   0  0  0  0  0  0  0  0  0  0  0  0
  161.6020  208.3070  151.0550 C   0  0  0  0  0  3  0  0  0  0  0  0
  161.0110  202.0190  146.5180 N   0  0  0  0  0  0  0  0  0  0  0  0
  161.9250  210.6990  150.8840 C   0  0  0  0  0  3  0  0  0  0  0  0
  161.2170  206.0040  152.6630 C   0  0  0  0  0  3  0  0  0  0  0  0
  161.4660  207.0380  150.4590 C   0  0  0  0  0  0  0  0  0  0  0  0
  161.2750  205.8960  151.2610 C   0  0  0  0  0  0  0  0  0  0  0  0
  161.1930  204.4880  149.2580 C   0  0  0  0  0  0  0  0  0  0  0  0
  161.1240  202.3820  145.2460 N   0  0  0  0  0  0  0  0  0  0  0  0
  162.1740  211.7300  148.6960 C   0  0  0  0  0  0  0  0  0  0  0  0
  161.7920  209.4470  150.2790 C   0  0  0  0  0  0  0  0  0  0  0  0
  161.3040  203.7280  145.1890 C   0  0  0  0  0  3  0  0  0  0  0  0
  162.0400  210.4750  148.0930 C   0  0  0  0  0  3  0  0  0  0  0  0
  160.9480  203.4950  151.4830 C   0  0  0  0  0  3  0  0  0  0  0  0
  161.1390  204.6210  150.6610 C   0  0  0  0  0  0  0  0  0  0  0  0
  161.0560  203.2090  148.6700 C   0  0  0  0  0  3  0  0  0  0  0  0
  161.7170  208.0840  148.2770 C   0  0  0  0  0  3  0  0  0  0  0  0
  161.6200  206.5110  146.1480 F   0  0  0  0  0  0  0  0  0  0  0  0
  160.8080  200.6510  146.9610 C   0  0  0  0  0  1  0  0  0  0  0  0
  161.3890  205.6460  148.4280 C   0  0  0  0  0  0  0  0  0  0  0  0
  161.1140  203.1110  147.2880 C   0  0  0  0  0  0  0  0  0  0  0  0
  162.3680  212.8820  147.8730 N   0  0  0  0  0  2  0  0  0  0  0  0
  161.2780  213.5460  147.1740 C   0  0  0  0  0  2  0  0  0  0  0  0
  161.1300  212.9640  145.8130 C   0  0  0  0  0  0  0  0  0  0  0  0
  159.9990  212.2240  145.4950 O   0  0  0  0  0  1  0  0  0  0  0  0
  162.0110  213.1720  144.9400 O   0  0  0  0  0  0  0  0  0  0  0  0
  1 10  1  0  0  0  0
  2 12  1  0  0  0  0
  4  3  1  0  0  0  0
  5 26  1  0  0  0  0
  6  5  2  0  0  0  0
  6 27  1  0  0  0  0
  7 17  1  0  0  0  0
  9 25  1  0  0  0  0
  9 27  1  0  0  0  0
 11  3  2  0  0  0  0
 12  8  2  0  0  0  0
 12 13  1  0  0  0  0
 13 11  1  0  0  0  0
 14 21  1  0  0  0  0
 15  9  1  0  0  0  0
 16  1  2  0  0  0  0
 17 10  2  0  0  0  0
 17  8  1  0  0  0  0
 18 15  2  0  0  0  0
 18  6  1  0  0  0  0
 19 16  1  0  0  0  0
 19  7  2  0  0  0  0
 20  4  2  0  0  0  0
 21 13  2  0  0  0  0
 21 20  1  0  0  0  0
 22 14  1  0  0  0  0
 23  7  1  0  0  0  0
 23  2  2  0  0  0  0
 24  5  1  0  0  0  0
 26  2  1  0  0  0  0
 26 14  2  0  0  0  0
 27 22  2  0  0  0  0
 28 16  1  0  0  0  0
 29 28  1  0  0  0  0
 30 29  1  0  0  0  0
 31 30  1  0  0  0  0
 32 30  2  0  0  0  0
M  END
>  <MODEL>
2

>  <REMARK>
 VINA RESULT:      -9.7      4.463      8.642
  Name = 
  3 active torsions:
  status: ('A' for Active; 'I' for Inactive)
    1  A    between atoms: C_1  and  C_10
    2  A    between atoms: C_10  and  N_24
    3  A    between atoms: C_19  and  N_24
                            x       y       z     vdW  Elec       q    Type
                         _______ _______ _______ _____ _____    ______ ____

>  <TORSDO>
F 3

$$$$
=
 OpenBabel11062410363D

 32 37  0  0  0  0  0  0  0  0999 V2000
  161.5000  203.9090  146.2870 C   0  0  0  0  0  3  0  0  0  0  0  0
  161.3430  207.0080  150.2890 C   0  0  0  0  0  0  0  0  0  0  0  0
  162.1640  211.4160  148.3320 C   0  0  0  0  0  3  0  0  0  0  0  0
  162.0650  212.0000  149.5940 C   0  0  0  0  0  3  0  0  0  0  0  0
  160.9820  206.8060  152.7500 C   0  0  0  0  0  0  0  0  0  0  0  0
  160.8960  207.4590  153.9750 C   0  0  0  0  0  0  0  0  0  0  0  0
  161.2950  205.0470  148.8340 C   0  0  0  0  0  0  0  0  0  0  0  0
  161.7000  207.2360  147.8820 C   0  0  0  0  0  3  0  0  0  0  0  0
  160.9170  209.1440  155.3790 N   0  0  0  0  0  0  0  0  0  0  0  0
  161.6520  205.2900  146.4440 C   0  0  0  0  0  3  0  0  0  0  0  0
  162.0100  210.0370  148.1890 C   0  0  0  0  0  3  0  0  0  0  0  0
  161.6000  207.8260  149.1570 C   0  0  0  0  0  0  0  0  0  0  0  0
  161.7550  209.2180  149.3060 C   0  0  0  0  0  0  0  0  0  0  0  0
  161.3990  209.0110  151.7200 C   0  0  0  0  0  0  0  0  0  0  0  0
  160.6820  208.0480  156.0900 N   0  0  0  0  0  0  0  0  0  0  0  0
  161.2450  203.0920  147.4000 C   0  0  0  0  0  0  0  0  0  0  0  0
  161.5500  205.8620  147.7150 C   0  0  0  0  0  0  0  0  0  0  0  0
  160.6620  206.9790  155.2520 C   0  0  0  0  0  3  0  0  0  0  0  0
  161.1440  203.6670  148.6720 C   0  0  0  0  0  3  0  0  0  0  0  0
  161.8120  211.2040  150.7110 C   0  0  0  0  0  3  0  0  0  0  0  0
  161.6540  209.8110  150.5870 C   0  0  0  0  0  0  0  0  0  0  0  0
  161.3010  209.6140  152.9960 C   0  0  0  0  0  3  0  0  0  0  0  0
  161.1950  205.6210  150.0990 C   0  0  0  0  0  3  0  0  0  0  0  0
  160.8170  205.4590  152.7160 F   0  0  0  0  0  0  0  0  0  0  0  0
  161.0060  210.4790  155.9440 C   0  0  0  0  0  1  0  0  0  0  0  0
  161.2390  207.5890  151.5810 C   0  0  0  0  0  0  0  0  0  0  0  0
  161.0490  208.8020  154.0910 C   0  0  0  0  0  0  0  0  0  0  0  0
  161.0870  201.6780  147.2610 N   0  0  0  0  0  2  0  0  0  0  0  0
  161.4270  200.7360  148.3160 C   0  0  0  0  0  2  0  0  0  0  0  0
  160.5550  200.9730  149.4960 C   0  0  0  0  0  0  0  0  0  0  0  0
  159.1860  201.1380  149.3260 O   0  0  0  0  0  0  0  0  0  0  0  0
  161.0500  200.9890  150.6530 O   0  0  0  0  0  1  0  0  0  0  0  0
  1 10  2  0  0  0  0
  1 16  1  0  0  0  0
  2 26  1  0  0  0  0
  3  4  1  0  0  0  0
  4 20  2  0  0  0  0
  5  6  1  0  0  0  0
  6 27  2  0  0  0  0
  6 18  1  0  0  0  0
  7 23  2  0  0  0  0
  8 12  1  0  0  0  0
  9 25  1  0  0  0  0
  9 15  1  0  0  0  0
 10 17  1  0  0  0  0
 11  3  2  0  0  0  0
 11 13  1  0  0  0  0
 12 13  1  0  0  0  0
 12  2  2  0  0  0  0
 13 21  2  0  0  0  0
 14 22  2  0  0  0  0
 16 19  2  0  0  0  0
 17  8  2  0  0  0  0
 17  7  1  0  0  0  0
 18 15  2  0  0  0  0
 19  7  1  0  0  0  0
 21 20  1  0  0  0  0
 21 14  1  0  0  0  0
 22 27  1  0  0  0  0
 23  2  1  0  0  0  0
 24  5  1  0  0  0  0
 26 14  1  0  0  0  0
 26  5  2  0  0  0  0
 27  9  1  0  0  0  0
 28 16  1  0  0  0  0
 28 29  1  0  0  0  0
 29 30  1  0  0  0  0
 30 32  1  0  0  0  0
 31 30  2  0  0  0  0
M  END
>  <MODEL>
3

>  <REMARK>
 VINA RESULT:      -9.5      1.448      1.581
  Name = 
  3 active torsions:
  status: ('A' for Active; 'I' for Inactive)
    1  A    between atoms: C_1  and  C_10
    2  A    between atoms: C_10  and  N_24
    3  A    between atoms: C_19  and  N_24
                            x       y       z     vdW  Elec       q    Type
                         _______ _______ _______ _____ _____    ______ ____

>  <TORSDO>
F 3

$$$$
=
 OpenBabel11062410363D

 32 37  0  0  0  0  0  0  0  0999 V2000
  161.2090  208.6830  154.8790 C   0  0  0  0  0  3  0  0  0  0  0  0
  161.0720  206.1840  150.4770 C   0  0  0  0  0  0  0  0  0  0  0  0
  161.2190  201.4890  151.8440 C   0  0  0  0  0  3  0  0  0  0  0  0
  161.1700  201.0940  150.5080 C   0  0  0  0  0  3  0  0  0  0  0  0
  160.9590  206.7530  148.0500 C   0  0  0  0  0  0  0  0  0  0  0  0
  160.9130  206.2830  146.7420 C   0  0  0  0  0  0  0  0  0  0  0  0
  161.1100  207.9270  152.1890 C   0  0  0  0  0  0  0  0  0  0  0  0
  161.1820  205.5980  152.8480 C   0  0  0  0  0  3  0  0  0  0  0  0
  160.8730  204.8090  145.1180 N   0  0  0  0  0  0  0  0  0  0  0  0
  161.2200  207.3270  154.5400 C   0  0  0  0  0  3  0  0  0  0  0  0
  161.2060  202.8450  152.1690 C   0  0  0  0  0  3  0  0  0  0  0  0
  161.1330  205.1980  151.4980 C   0  0  0  0  0  0  0  0  0  0  0  0
  161.1450  203.8300  151.1650 C   0  0  0  0  0  0  0  0  0  0  0  0
  161.0340  204.3960  148.7850 C   0  0  0  0  0  0  0  0  0  0  0  0
  160.8260  206.0100  144.5550 N   0  0  0  0  0  0  0  0  0  0  0  0
  161.1480  209.6660  153.8780 C   0  0  0  0  0  0  0  0  0  0  0  0
  161.1710  206.9450  153.1970 C   0  0  0  0  0  0  0  0  0  0  0  0
  160.8490  206.9530  145.5330 C   0  0  0  0  0  3  0  0  0  0  0  0
  161.0990  209.2810  152.5340 C   0  0  0  0  0  3  0  0  0  0  0  0
  161.1090  202.0550  149.5000 C   0  0  0  0  0  3  0  0  0  0  0  0
  161.0960  203.4290  149.8080 C   0  0  0  0  0  0  0  0  0  0  0  0
  160.9860  203.9840  147.4330 C   0  0  0  0  0  3  0  0  0  0  0  0
  161.0620  207.5420  150.8510 C   0  0  0  0  0  3  0  0  0  0  0  0
  160.9420  208.0930  148.2630 F   0  0  0  0  0  0  0  0  0  0  0  0
  160.8650  203.5590  144.3770 C   0  0  0  0  0  1  0  0  0  0  0  0
  161.0220  205.7970  149.1120 C   0  0  0  0  0  0  0  0  0  0  0  0
  160.9260  204.9590  146.4490 C   0  0  0  0  0  0  0  0  0  0  0  0
  161.1350  211.0570  154.2050 N   0  0  0  0  0  2  0  0  0  0  0  0
  160.1810  211.6420  155.1350 C   0  0  0  0  0  2  0  0  0  0  0  0
  158.7960  211.3710  154.6650 C   0  0  0  0  0  0  0  0  0  0  0  0
  158.3940  211.8000  153.4070 O   0  0  0  0  0  0  0  0  0  0  0  0
  158.0000  210.7240  155.3920 O   0  0  0  0  0  1  0  0  0  0  0  0
  2 23  2  0  0  0  0
  2 12  1  0  0  0  0
  3 11  1  0  0  0  0
  4  3  2  0  0  0  0
  5 24  1  0  0  0  0
  5 26  1  0  0  0  0
  6  5  2  0  0  0  0
  7 19  2  0  0  0  0
  7 17  1  0  0  0  0
  8 17  1  0  0  0  0
  9 27  1  0  0  0  0
 10  1  1  0  0  0  0
 12  8  2  0  0  0  0
 13 12  1  0  0  0  0
 13 11  2  0  0  0  0
 14 26  2  0  0  0  0
 14 21  1  0  0  0  0
 15  9  1  0  0  0  0
 15 18  2  0  0  0  0
 16 28  1  0  0  0  0
 16  1  2  0  0  0  0
 17 10  2  0  0  0  0
 18  6  1  0  0  0  0
 19 16  1  0  0  0  0
 20 21  2  0  0  0  0
 20  4  1  0  0  0  0
 21 13  1  0  0  0  0
 22 14  1  0  0  0  0
 23  7  1  0  0  0  0
 25  9  1  0  0  0  0
 26  2  1  0  0  0  0
 27  6  1  0  0  0  0
 27 22  2  0  0  0  0
 28 29  1  0  0  0  0
 30 29  1  0  0  0  0
 30 32  1  0  0  0  0
 31 30  2  0  0  0  0
M  END
>  <MODEL>
4

>  <REMARK>
 VINA RESULT:      -9.5      4.391      9.090
  Name = 
  3 active torsions:
  status: ('A' for Active; 'I' for Inactive)
    1  A    between atoms: C_1  and  C_10
    2  A    between atoms: C_10  and  N_24
    3  A    between atoms: C_19  and  N_24
                            x       y       z     vdW  Elec       q    Type
                         _______ _______ _______ _____ _____    ______ ____

>  <TORSDO>
F 3

$$$$
=
 OpenBabel11062410363D

 32 37  0  0  0  0  0  0  0  0999 V2000
  160.9930  201.8770  150.4590 C   0  0  0  0  0  3  0  0  0  0  0  0
  161.2680  206.9320  150.5920 C   0  0  0  0  0  0  0  0  0  0  0  0
  161.0530  207.9450  155.3730 C   0  0  0  0  0  3  0  0  0  0  0  0
  161.1450  209.3080  155.0940 C   0  0  0  0  0  3  0  0  0  0  0  0
  161.4670  208.8000  148.9490 C   0  0  0  0  0  0  0  0  0  0  0  0
  161.5560  210.1730  148.7480 C   0  0  0  0  0  0  0  0  0  0  0  0
  161.1800  204.6030  149.8610 C   0  0  0  0  0  0  0  0  0  0  0  0
  161.0750  205.1220  152.2240 C   0  0  0  0  0  3  0  0  0  0  0  0
  161.6440  212.2980  149.2840 N   0  0  0  0  0  0  0  0  0  0  0  0
  160.9860  202.8170  151.4950 C   0  0  0  0  0  3  0  0  0  0  0  0
  161.0610  207.0190  154.3310 C   0  0  0  0  0  3  0  0  0  0  0  0
  161.1680  206.4990  151.9410 C   0  0  0  0  0  0  0  0  0  0  0  0
  161.1600  207.4380  152.9900 C   0  0  0  0  0  0  0  0  0  0  0  0
  161.3560  209.2660  151.3720 C   0  0  0  0  0  0  0  0  0  0  0  0
  161.7160  212.2270  147.9610 N   0  0  0  0  0  0  0  0  0  0  0  0
  161.0930  202.2950  149.1220 C   0  0  0  0  0  0  0  0  0  0  0  0
  161.0800  204.1790  151.2000 C   0  0  0  0  0  0  0  0  0  0  0  0
  161.6640  210.9210  147.5890 C   0  0  0  0  0  3  0  0  0  0  0  0
  161.1860  203.6600  148.8300 C   0  0  0  0  0  3  0  0  0  0  0  0
  161.2450  209.7420  153.7720 C   0  0  0  0  0  3  0  0  0  0  0  0
  161.2540  208.8220  152.7060 C   0  0  0  0  0  0  0  0  0  0  0  0
  161.4490  210.6510  151.1000 C   0  0  0  0  0  3  0  0  0  0  0  0
  161.2720  205.9620  149.5710 C   0  0  0  0  0  3  0  0  0  0  0  0
  161.4840  207.9790  147.8680 F   0  0  0  0  0  0  0  0  0  0  0  0
  161.6720  213.5400  150.0370 C   0  0  0  0  0  1  0  0  0  0  0  0
  161.3640  208.3170  150.2910 C   0  0  0  0  0  0  0  0  0  0  0  0
  161.5470  211.0570  149.7770 C   0  0  0  0  0  0  0  0  0  0  0  0
  161.1010  201.3510  148.0500 N   0  0  0  0  0  2  0  0  0  0  0  0
  160.8970  201.7300  146.6600 C   0  0  0  0  0  2  0  0  0  0  0  0
  160.7880  200.5080  145.8200 C   0  0  0  0  0  0  0  0  0  0  0  0
  161.3970  199.3290  146.2280 O   0  0  0  0  0  1  0  0  0  0  0  0
  160.1130  200.5330  144.7580 O   0  0  0  0  0  0  0  0  0  0  0  0
  1 10  1  0  0  0  0
  2 12  1  0  0  0  0
  4  3  1  0  0  0  0
  5 26  1  0  0  0  0
  6  5  2  0  0  0  0
  6 27  1  0  0  0  0
  7 17  1  0  0  0  0
  9 27  1  0  0  0  0
  9 25  1  0  0  0  0
 11  3  2  0  0  0  0
 12  8  2  0  0  0  0
 12 13  1  0  0  0  0
 13 11  1  0  0  0  0
 14 21  1  0  0  0  0
 15  9  1  0  0  0  0
 16  1  2  0  0  0  0
 17 10  2  0  0  0  0
 17  8  1  0  0  0  0
 18 15  2  0  0  0  0
 18  6  1  0  0  0  0
 19 16  1  0  0  0  0
 19  7  2  0  0  0  0
 20  4  2  0  0  0  0
 21 13  2  0  0  0  0
 21 20  1  0  0  0  0
 22 14  1  0  0  0  0
 23  7  1  0  0  0  0
 23  2  2  0  0  0  0
 24  5  1  0  0  0  0
 26  2  1  0  0  0  0
 26 14  2  0  0  0  0
 27 22  2  0  0  0  0
 28 16  1  0  0  0  0
 29 28  1  0  0  0  0
 30 31  1  0  0  0  0
 30 29  1  0  0  0  0
 32 30  2  0  0  0  0
M  END
>  <MODEL>
5

>  <REMARK>
 VINA RESULT:      -8.7      2.481      4.582
  Name = 
  3 active torsions:
  status: ('A' for Active; 'I' for Inactive)
    1  A    between atoms: C_1  and  C_10
    2  A    between atoms: C_10  and  N_24
    3  A    between atoms: C_19  and  N_24
                            x       y       z     vdW  Elec       q    Type
                         _______ _______ _______ _____ _____    ______ ____

>  <TORSDO>
F 3

$$$$
=
 OpenBabel11062410363D

 32 37  0  0  0  0  0  0  0  0999 V2000
  161.3290  204.3280  143.8180 C   0  0  0  0  0  3  0  0  0  0  0  0
  161.3030  205.9630  148.6110 C   0  0  0  0  0  0  0  0  0  0  0  0
  160.8100  201.8430  151.2020 C   0  0  0  0  0  3  0  0  0  0  0  0
  160.8350  202.5780  152.3860 C   0  0  0  0  0  3  0  0  0  0  0  0
  161.4680  208.1490  149.8020 C   0  0  0  0  0  0  0  0  0  0  0  0
  161.4850  208.8150  151.0230 C   0  0  0  0  0  0  0  0  0  0  0  0
  161.3850  205.8360  146.1730 C   0  0  0  0  0  0  0  0  0  0  0  0
  161.1410  203.8060  147.4710 C   0  0  0  0  0  3  0  0  0  0  0  0
  161.4240  209.0540  153.2030 N   0  0  0  0  0  0  0  0  0  0  0  0
  161.2210  203.6860  145.0560 C   0  0  0  0  0  3  0  0  0  0  0  0
  160.9190  202.4950  149.9750 C   0  0  0  0  0  3  0  0  0  0  0  0
  161.1670  204.5500  148.6670 C   0  0  0  0  0  0  0  0  0  0  0  0
  161.0560  203.8950  149.9090 C   0  0  0  0  0  0  0  0  0  0  0  0
  161.2180  206.0450  151.0700 C   0  0  0  0  0  0  0  0  0  0  0  0
  161.5610  210.2670  152.6820 N   0  0  0  0  0  0  0  0  0  0  0  0
  161.4660  205.7240  143.7520 C   0  0  0  0  0  0  0  0  0  0  0  0
  161.2480  204.4360  146.2340 C   0  0  0  0  0  0  0  0  0  0  0  0
  161.6030  210.1600  151.3280 C   0  0  0  0  0  3  0  0  0  0  0  0
  161.4920  206.4730  144.9340 C   0  0  0  0  0  3  0  0  0  0  0  0
  160.9700  203.9660  152.3400 C   0  0  0  0  0  3  0  0  0  0  0  0
  161.0820  204.6420  151.1110 C   0  0  0  0  0  0  0  0  0  0  0  0
  161.2420  206.7820  152.2780 C   0  0  0  0  0  3  0  0  0  0  0  0
  161.4100  206.5800  147.3500 C   0  0  0  0  0  3  0  0  0  0  0  0
  161.5810  208.8750  148.6610 F   0  0  0  0  0  0  0  0  0  0  0  0
  161.3450  208.7810  154.6270 C   0  0  0  0  0  1  0  0  0  0  0  0
  161.3310  206.7260  149.8090 C   0  0  0  0  0  0  0  0  0  0  0  0
  161.3770  208.1600  152.2060 C   0  0  0  0  0  0  0  0  0  0  0  0
  161.5780  206.3990  142.4970 N   0  0  0  0  0  2  0  0  0  0  0  0
  162.3310  205.8600  141.3750 C   0  0  0  0  0  2  0  0  0  0  0  0
  162.2080  206.7730  140.2080 C   0  0  0  0  0  0  0  0  0  0  0  0
  162.3310  206.2710  138.9180 O   0  0  0  0  0  0  0  0  0  0  0  0
  161.9560  207.9920  140.3860 O   0  0  0  0  0  1  0  0  0  0  0  0
  1 10  1  0  0  0  0
  2 12  1  0  0  0  0
  2 26  1  0  0  0  0
  3  4  1  0  0  0  0
  5 26  2  0  0  0  0
  5  6  1  0  0  0  0
  6 18  1  0  0  0  0
  6 27  2  0  0  0  0
  7 17  1  0  0  0  0
  7 23  1  0  0  0  0
  8 12  2  0  0  0  0
  9 25  1  0  0  0  0
 10 17  2  0  0  0  0
 11  3  2  0  0  0  0
 12 13  1  0  0  0  0
 13 11  1  0  0  0  0
 13 21  2  0  0  0  0
 14 21  1  0  0  0  0
 14 22  2  0  0  0  0
 15  9  1  0  0  0  0
 16  1  2  0  0  0  0
 16 19  1  0  0  0  0
 17  8  1  0  0  0  0
 18 15  2  0  0  0  0
 19  7  2  0  0  0  0
 20  4  2  0  0  0  0
 21 20  1  0  0  0  0
 23  2  2  0  0  0  0
 24  5  1  0  0  0  0
 26 14  1  0  0  0  0
 27 22  1  0  0  0  0
 27  9  1  0  0  0  0
 28 16  1  0  0  0  0
 29 28  1  0  0  0  0
 30 32  1  0  0  0  0
 30 29  1  0  0  0  0
 31 30  2  0  0  0  0
M  END
>  <MODEL>
6

>  <REMARK>
 VINA RESULT:      -8.2      3.629      5.617
  Name = 
  3 active torsions:
  status: ('A' for Active; 'I' for Inactive)
    1  A    between atoms: C_1  and  C_10
    2  A    between atoms: C_10  and  N_24
    3  A    between atoms: C_19  and  N_24
                            x       y       z     vdW  Elec       q    Type
                         _______ _______ _______ _____ _____    ______ ____

>  <TORSDO>
F 3

$$$$
