=
 OpenBabel11052422483D

 28 31  0  0  1  0  0  0  0  0999 V2000
  161.2630  208.1180  153.6720 C   0  0  2  0  0  3  0  0  0  0  0  0
  160.9810  209.7910  155.2550 C   0  0  2  0  0  3  0  0  0  0  0  0
  161.0050  208.4410  155.9900 C   0  0  2  0  0  3  0  0  0  0  0  0
  162.2490  208.1870  156.5760 O   0  0  0  0  0  1  0  0  0  0  0  0
  160.7610  207.4220  154.9100 C   0  0  0  0  0  2  0  0  0  0  0  0
  160.9790  209.5550  153.8100 N   0  0  0  0  0  0  0  0  0  0  0  0
  161.7420  211.4990  156.7470 O   0  0  0  0  0  1  0  0  0  0  0  0
  162.1130  210.7400  155.6370 C   0  0  0  0  0  2  0  0  0  0  0  0
  160.7520  207.4590  152.3880 C   0  0  0  0  0  2  0  0  0  0  0  0
  161.8660  206.9070  151.6150 N   0  0  0  0  0  0  0  0  0  0  0  0
  160.8300  205.4770  150.0130 C   0  0  2  0  0  3  0  0  0  0  0  0
  161.8110  207.5710  150.3190 C   0  0  0  0  0  2  0  0  0  0  0  0
  161.0570  204.6410  152.3820 C   0  0  0  0  0  1  0  0  0  0  0  0
  161.6570  205.4990  151.2700 C   0  0  2  0  0  3  0  0  0  0  0  0
  161.3260  204.3870  149.0840 C   0  0  0  0  0  1  0  0  0  0  0  0
  161.0100  206.7750  149.3880 N   0  0  0  0  0  2  0  0  0  0  0  0
  159.6270  209.8760  153.3340 C   0  0  0  0  0  2  0  0  0  0  0  0
  157.1730  211.4350  154.8270 C   0  0  1  0  0  3  0  0  0  0  0  0
  157.5870  213.1340  153.2750 C   0  0  0  0  0  0  0  0  0  0  0  0
  159.3510  211.3840  153.3450 C   0  0  2  0  0  3  0  0  0  0  0  0
  156.1040  212.5470  154.8380 C   0  0  2  0  0  3  0  0  0  0  0  0
  157.8520  211.6930  153.4760 C   0  0  1  0  0  3  0  0  0  0  0  0
  159.7210  213.5750  152.1560 C   0  0  0  0  0  2  0  0  0  0  0  0
  156.6310  213.6070  153.9940 N   0  0  0  0  0  0  0  0  0  0  0  0
  158.3620  213.9250  152.4290 O   0  0  0  0  0  0  0  0  0  0  0  0
  155.6450  213.1720  156.4500 Cl  0  0  0  0  0  0  0  0  0  0  0  0
  158.1570  211.5820  155.9890 C   0  0  0  0  0  1  0  0  0  0  0  0
  159.9170  212.0570  152.0900 C   0  0  0  0  0  2  0  0  0  0  0  0
  1  9  1  6  0  0  0
  1  6  1  0  0  0  0
  1  5  1  0  0  0  0
  2  8  1  6  0  0  0
  2  3  1  0  0  0  0
  3  4  1  6  0  0  0
  5  3  1  0  0  0  0
  6  2  1  0  0  0  0
  8  7  1  0  0  0  0
 10  9  1  0  0  0  0
 11 15  1  6  0  0  0
 11 14  1  0  0  0  0
 12 10  1  0  0  0  0
 14 10  1  0  0  0  0
 14 13  1  1  0  0  0
 16 11  1  0  0  0  0
 16 12  1  0  0  0  0
 17  6  1  0  0  0  0
 18 21  1  0  0  0  0
 18 27  1  1  0  0  0
 19 24  2  0  0  0  0
 20 17  1  6  0  0  0
 20 22  1  0  0  0  0
 21 26  1  1  0  0  0
 22 19  1  1  0  0  0
 22 18  1  0  0  0  0
 23 25  1  0  0  0  0
 24 21  1  0  0  0  0
 25 19  1  0  0  0  0
 28 23  1  0  0  0  0
 28 20  1  0  0  0  0
M  END
>  <MODEL>
1

>  <REMARK>
 VINA RESULT:      -6.3      0.000      0.000
  Name = 
  5 active torsions:
  status: ('A' for Active; 'I' for Inactive)
    1  A    between atoms: C_1  and  C_2
    2  A    between atoms: C_2  and  N_3
    3  A    between atoms: C_10  and  C_17
    4  A    between atoms: C_16  and  C_20
    5  A    between atoms: C_17  and  N_27
                            x       y       z     vdW  Elec       q    Type
                         _______ _______ _______ _____ _____    ______ ____

>  <TORSDO>
F 5

$$$$
=
 OpenBabel11052422483D

 28 31  0  0  1  0  0  0  0  0999 V2000
  161.5480  203.6260  148.8650 C   0  0  2  0  0  3  0  0  0  0  0  0
  160.5200  203.3340  150.9260 C   0  0  2  0  0  3  0  0  0  0  0  0
  160.0260  202.2210  149.9860 C   0  0  2  0  0  3  0  0  0  0  0  0
  160.6860  201.0100  150.2190 O   0  0  0  0  0  1  0  0  0  0  0  0
  160.3800  202.7100  148.6070 C   0  0  0  0  0  2  0  0  0  0  0  0
  161.3340  204.2830  150.1640 N   0  0  0  0  0  0  0  0  0  0  0  0
  162.6260  202.6330  151.8160 O   0  0  0  0  0  1  0  0  0  0  0  0
  161.2870  202.8370  152.1470 C   0  0  0  0  0  2  0  0  0  0  0  0
  161.8260  204.5590  147.6840 C   0  0  0  0  0  2  0  0  0  0  0  0
  161.0720  204.1320  146.5040 N   0  0  0  0  0  0  0  0  0  0  0  0
  161.9650  205.4410  144.7210 C   0  0  2  0  0  3  0  0  0  0  0  0
  162.0010  203.3310  145.7150 C   0  0  0  0  0  2  0  0  0  0  0  0
  160.3400  206.5410  146.3060 C   0  0  0  0  0  1  0  0  0  0  0  0
  160.7650  205.2500  145.6090 C   0  0  2  0  0  3  0  0  0  0  0  0
  161.5200  205.7530  143.3070 C   0  0  0  0  0  1  0  0  0  0  0  0
  162.6880  204.1820  144.7430 N   0  0  0  0  0  2  0  0  0  0  0  0
  160.5270  205.5020  150.0140 C   0  0  0  0  0  2  0  0  0  0  0  0
  160.7230  206.8370  152.9900 C   0  0  1  0  0  3  0  0  0  0  0  0
  161.2700  208.8000  151.8440 C   0  0  0  0  0  0  0  0  0  0  0  0
  161.2990  206.7630  150.4200 C   0  0  2  0  0  3  0  0  0  0  0  0
  160.7640  208.0840  153.8970 C   0  0  2  0  0  3  0  0  0  0  0  0
  160.6370  207.4850  151.6030 C   0  0  1  0  0  3  0  0  0  0  0  0
  162.3030  208.9330  149.6260 C   0  0  0  0  0  2  0  0  0  0  0  0
  161.3300  209.1450  153.0810 N   0  0  0  0  0  0  0  0  0  0  0  0
  161.8210  209.5630  150.8160 O   0  0  0  0  0  0  0  0  0  0  0  0
  161.6600  207.9020  155.4350 Cl  0  0  0  0  0  0  0  0  0  0  0  0
  161.9860  205.9870  153.1370 C   0  0  0  0  0  1  0  0  0  0  0  0
  161.4480  207.7230  149.2350 C   0  0  0  0  0  2  0  0  0  0  0  0
  1  9  1  6  0  0  0
  1  6  1  0  0  0  0
  2  8  1  1  0  0  0
  3  4  1  1  0  0  0
  3  2  1  0  0  0  0
  5  1  1  0  0  0  0
  5  3  1  0  0  0  0
  6  2  1  0  0  0  0
  7  8  1  0  0  0  0
 10  9  1  0  0  0  0
 11 15  1  6  0  0  0
 11 16  1  0  0  0  0
 11 14  1  0  0  0  0
 12 10  1  0  0  0  0
 14 13  1  1  0  0  0
 14 10  1  0  0  0  0
 16 12  1  0  0  0  0
 17  6  1  0  0  0  0
 18 27  1  6  0  0  0
 18 21  1  0  0  0  0
 19 24  2  0  0  0  0
 20 17  1  6  0  0  0
 20 22  1  0  0  0  0
 21 26  1  1  0  0  0
 22 19  1  1  0  0  0
 22 18  1  0  0  0  0
 23 25  1  0  0  0  0
 24 21  1  0  0  0  0
 25 19  1  0  0  0  0
 28 23  1  0  0  0  0
 28 20  1  0  0  0  0
M  END
>  <MODEL>
2

>  <REMARK>
 VINA RESULT:      -5.7      4.071      6.810
  Name = 
  5 active torsions:
  status: ('A' for Active; 'I' for Inactive)
    1  A    between atoms: C_1  and  C_2
    2  A    between atoms: C_2  and  N_3
    3  A    between atoms: C_10  and  C_17
    4  A    between atoms: C_16  and  C_20
    5  A    between atoms: C_17  and  N_27
                            x       y       z     vdW  Elec       q    Type
                         _______ _______ _______ _____ _____    ______ ____

>  <TORSDO>
F 5

$$$$
=
 OpenBabel11052422483D

 28 31  0  0  1  0  0  0  0  0999 V2000
  160.1650  210.2100  153.9220 C   0  0  2  0  0  3  0  0  0  0  0  0
  161.5850  208.7090  154.9790 C   0  0  2  0  0  3  0  0  0  0  0  0
  161.7720  210.0860  155.6390 C   0  0  2  0  0  3  0  0  0  0  0  0
  161.0810  210.1820  156.8510 O   0  0  0  0  0  1  0  0  0  0  0  0
  161.1710  211.0560  154.6580 C   0  0  0  0  0  2  0  0  0  0  0  0
  160.7070  208.8460  153.8150 N   0  0  0  0  0  0  0  0  0  0  0  0
  159.6720  207.5490  155.8220 O   0  0  0  0  0  1  0  0  0  0  0  0
  161.0620  207.6240  155.9140 C   0  0  0  0  0  2  0  0  0  0  0  0
  159.7170  210.8530  152.6080 C   0  0  0  0  0  2  0  0  0  0  0  0
  159.9220  212.3030  152.6480 N   0  0  0  0  0  0  0  0  0  0  0  0
  158.6740  213.1340  150.7940 C   0  0  2  0  0  3  0  0  0  0  0  0
  158.6590  212.8640  153.1110 C   0  0  0  0  0  2  0  0  0  0  0  0
  160.9100  212.0600  150.3360 C   0  0  0  0  0  1  0  0  0  0  0  0
  160.0650  212.8790  151.3090 C   0  0  2  0  0  3  0  0  0  0  0  0
  158.6290  214.4530  150.0500 C   0  0  0  0  0  1  0  0  0  0  0  0
  157.8150  213.2000  151.9640 N   0  0  0  0  0  2  0  0  0  0  0  0
  161.5600  208.7080  152.6270 C   0  0  0  0  0  2  0  0  0  0  0  0
  161.2360  207.6520  149.5510 C   0  0  1  0  0  3  0  0  0  0  0  0
  160.6710  205.6080  150.5350 C   0  0  0  0  0  0  0  0  0  0  0  0
  161.6260  207.2600  152.1270 C   0  0  2  0  0  3  0  0  0  0  0  0
  160.7040  206.6140  148.5420 C   0  0  2  0  0  3  0  0  0  0  0  0
  160.7610  207.0440  150.8760 C   0  0  1  0  0  3  0  0  0  0  0  0
  161.3730  204.8310  152.7490 C   0  0  0  0  0  2  0  0  0  0  0  0
  160.6210  205.3610  149.2730 N   0  0  0  0  0  0  0  0  0  0  0  0
  160.7110  204.6060  151.5030 O   0  0  0  0  0  0  0  0  0  0  0  0
  161.6580  206.4260  147.0400 Cl  0  0  0  0  0  0  0  0  0  0  0  0
  162.7610  207.7660  149.4980 C   0  0  0  0  0  1  0  0  0  0  0  0
  161.2110  206.2770  153.2280 C   0  0  0  0  0  2  0  0  0  0  0  0
  1  9  1  6  0  0  0
  1  5  1  0  0  0  0
  2  3  1  0  0  0  0
  2  8  1  1  0  0  0
  3  4  1  1  0  0  0
  5  3  1  0  0  0  0
  6  1  1  0  0  0  0
  6  2  1  0  0  0  0
  7  8  1  0  0  0  0
  9 10  1  0  0  0  0
 10 12  1  0  0  0  0
 11 15  1  1  0  0  0
 11 14  1  0  0  0  0
 11 16  1  0  0  0  0
 14 13  1  6  0  0  0
 14 10  1  0  0  0  0
 16 12  1  0  0  0  0
 17  6  1  0  0  0  0
 18 27  1  1  0  0  0
 18 22  1  0  0  0  0
 19 25  1  0  0  0  0
 20 17  1  1  0  0  0
 20 28  1  0  0  0  0
 21 26  1  6  0  0  0
 21 24  1  0  0  0  0
 21 18  1  0  0  0  0
 22 19  1  6  0  0  0
 22 20  1  0  0  0  0
 23 28  1  0  0  0  0
 24 19  2  0  0  0  0
 25 23  1  0  0  0  0
M  END
>  <MODEL>
3

>  <REMARK>
 VINA RESULT:      -5.4      3.185      6.969
  Name = 
  5 active torsions:
  status: ('A' for Active; 'I' for Inactive)
    1  A    between atoms: C_1  and  C_2
    2  A    between atoms: C_2  and  N_3
    3  A    between atoms: C_10  and  C_17
    4  A    between atoms: C_16  and  C_20
    5  A    between atoms: C_17  and  N_27
                            x       y       z     vdW  Elec       q    Type
                         _______ _______ _______ _____ _____    ______ ____

>  <TORSDO>
F 5

$$$$
=
 OpenBabel11052422483D

 28 31  0  0  1  0  0  0  0  0999 V2000
  158.2070  212.7620  152.0320 C   0  0  2  0  0  3  0  0  0  0  0  0
  158.0010  212.3570  154.3090 C   0  0  2  0  0  3  0  0  0  0  0  0
  157.2100  213.6340  153.9790 C   0  0  2  0  0  3  0  0  0  0  0  0
  155.8370  213.3850  153.8790 O   0  0  0  0  0  1  0  0  0  0  0  0
  157.7270  214.0580  152.6310 C   0  0  0  0  0  2  0  0  0  0  0  0
  158.7410  211.9270  153.1200 N   0  0  0  0  0  0  0  0  0  0  0  0
  156.9880  211.3530  156.2280 O   0  0  0  0  0  1  0  0  0  0  0  0
  157.1550  211.2090  154.8510 C   0  0  0  0  0  2  0  0  0  0  0  0
  159.1440  212.9840  150.8430 C   0  0  0  0  0  2  0  0  0  0  0  0
  158.6310  214.0470  149.9760 N   0  0  0  0  0  0  0  0  0  0  0  0
  159.3300  213.4200  147.7840 C   0  0  2  0  0  3  0  0  0  0  0  0
  157.5140  213.4550  149.2490 C   0  0  0  0  0  2  0  0  0  0  0  0
  161.0370  214.4530  149.3270 C   0  0  0  0  0  1  0  0  0  0  0  0
  159.5700  214.3920  148.9070 C   0  0  2  0  0  3  0  0  0  0  0  0
  159.4140  214.1350  146.4510 C   0  0  0  0  0  1  0  0  0  0  0  0
  157.9880  212.9000  147.9800 N   0  0  0  0  0  2  0  0  0  0  0  0
  160.1560  212.2310  153.3740 C   0  0  0  0  0  2  0  0  0  0  0  0
  160.8310  209.3370  152.0150 C   0  0  1  0  0  3  0  0  0  0  0  0
  160.9960  208.5760  154.2190 C   0  0  0  0  0  0  0  0  0  0  0  0
  160.8970  211.0510  154.0140 C   0  0  2  0  0  3  0  0  0  0  0  0
  160.9560  207.8030  152.1250 C   0  0  2  0  0  3  0  0  0  0  0  0
  160.4270  209.7030  153.4480 C   0  0  1  0  0  3  0  0  0  0  0  0
  161.5600  209.9380  156.1760 C   0  0  0  0  0  2  0  0  0  0  0  0
  161.2710  207.5340  153.5180 N   0  0  0  0  0  0  0  0  0  0  0  0
  161.2750  208.6700  155.5810 O   0  0  0  0  0  0  0  0  0  0  0  0
  162.1480  207.0370  151.0320 Cl  0  0  0  0  0  0  0  0  0  0  0  0
  162.1590  209.9880  151.6210 C   0  0  0  0  0  1  0  0  0  0  0  0
  160.7380  211.0630  155.5390 C   0  0  0  0  0  2  0  0  0  0  0  0
  1  9  1  6  0  0  0
  1  5  1  0  0  0  0
  1  6  1  0  0  0  0
  2  8  1  6  0  0  0
  3  4  1  6  0  0  0
  3  2  1  0  0  0  0
  5  3  1  0  0  0  0
  6 17  1  0  0  0  0
  6  2  1  0  0  0  0
  8  7  1  0  0  0  0
 10  9  1  0  0  0  0
 11 15  1  6  0  0  0
 11 16  1  0  0  0  0
 11 14  1  0  0  0  0
 12 10  1  0  0  0  0
 14 13  1  1  0  0  0
 14 10  1  0  0  0  0
 16 12  1  0  0  0  0
 18 27  1  1  0  0  0
 18 21  1  0  0  0  0
 18 22  1  0  0  0  0
 19 25  1  0  0  0  0
 20 17  1  6  0  0  0
 20 28  1  0  0  0  0
 21 26  1  6  0  0  0
 21 24  1  0  0  0  0
 22 20  1  0  0  0  0
 22 19  1  1  0  0  0
 24 19  2  0  0  0  0
 25 23  1  0  0  0  0
 28 23  1  0  0  0  0
M  END
>  <MODEL>
4

>  <REMARK>
 VINA RESULT:      -5.2      3.430      6.791
  Name = 
  5 active torsions:
  status: ('A' for Active; 'I' for Inactive)
    1  A    between atoms: C_1  and  C_2
    2  A    between atoms: C_2  and  N_3
    3  A    between atoms: C_10  and  C_17
    4  A    between atoms: C_16  and  C_20
    5  A    between atoms: C_17  and  N_27
                            x       y       z     vdW  Elec       q    Type
                         _______ _______ _______ _____ _____    ______ ____

>  <TORSDO>
F 5

$$$$
=
 OpenBabel11052422483D

 28 31  0  0  1  0  0  0  0  0999 V2000
  162.2980  207.6710  150.8280 C   0  0  2  0  0  3  0  0  0  0  0  0
  161.7000  207.1890  148.6380 C   0  0  2  0  0  3  0  0  0  0  0  0
  161.4190  208.6800  148.8900 C   0  0  2  0  0  3  0  0  0  0  0  0
  162.4250  209.4970  148.3650 O   0  0  0  0  0  1  0  0  0  0  0  0
  161.4180  208.8130  150.3890 C   0  0  0  0  0  2  0  0  0  0  0  0
  162.0900  206.5510  149.8970 N   0  0  0  0  0  0  0  0  0  0  0  0
  162.1110  206.5210  146.3790 O   0  0  0  0  0  1  0  0  0  0  0  0
  162.7420  206.9150  147.5580 C   0  0  0  0  0  2  0  0  0  0  0  0
  162.1250  207.3430  152.3130 C   0  0  0  0  0  2  0  0  0  0  0  0
  160.9000  207.9510  152.8350 N   0  0  0  0  0  0  0  0  0  0  0  0
  161.3390  208.2830  155.1550 C   0  0  2  0  0  3  0  0  0  0  0  0
  161.2310  209.3490  153.0830 C   0  0  0  0  0  2  0  0  0  0  0  0
  160.7630  205.9550  154.3760 C   0  0  0  0  0  1  0  0  0  0  0  0
  160.5600  207.4540  154.1700 C   0  0  2  0  0  3  0  0  0  0  0  0
  160.4820  208.5960  156.3640 C   0  0  0  0  0  1  0  0  0  0  0  0
  161.6840  209.5140  154.4640 N   0  0  0  0  0  2  0  0  0  0  0  0
  160.9540  205.7190  150.3150 C   0  0  0  0  0  2  0  0  0  0  0  0
  160.5980  203.3570  148.0850 C   0  0  1  0  0  3  0  0  0  0  0  0
  160.6800  201.9050  149.9160 C   0  0  0  0  0  0  0  0  0  0  0  0
  161.3370  204.2410  150.4540 C   0  0  2  0  0  3  0  0  0  0  0  0
  160.2500  201.8970  147.7260 C   0  0  2  0  0  3  0  0  0  0  0  0
  160.4330  203.3310  149.6100 C   0  0  1  0  0  3  0  0  0  0  0  0
  161.7800  202.3500  152.0600 C   0  0  0  0  0  2  0  0  0  0  0  0
  160.5670  201.1150  148.9080 N   0  0  0  0  0  0  0  0  0  0  0  0
  161.0740  201.4710  151.1810 O   0  0  0  0  0  0  0  0  0  0  0  0
  161.0620  201.2360  146.2750 Cl  0  0  0  0  0  0  0  0  0  0  0  0
  162.0290  203.7150  147.6800 C   0  0  0  0  0  1  0  0  0  0  0  0
  161.3030  203.7990  151.9220 C   0  0  0  0  0  2  0  0  0  0  0  0
  1  9  1  1  0  0  0
  2  8  1  6  0  0  0
  2  3  1  0  0  0  0
  2  6  1  0  0  0  0
  3  4  1  6  0  0  0
  3  5  1  0  0  0  0
  5  1  1  0  0  0  0
  6 17  1  0  0  0  0
  6  1  1  0  0  0  0
  7  8  1  0  0  0  0
  9 10  1  0  0  0  0
 10 12  1  0  0  0  0
 10 14  1  0  0  0  0
 11 15  1  1  0  0  0
 12 16  1  0  0  0  0
 14 13  1  6  0  0  0
 14 11  1  0  0  0  0
 16 11  1  0  0  0  0
 18 27  1  1  0  0  0
 18 22  1  0  0  0  0
 19 25  1  0  0  0  0
 20 17  1  1  0  0  0
 20 28  1  0  0  0  0
 21 26  1  6  0  0  0
 21 18  1  0  0  0  0
 21 24  1  0  0  0  0
 22 19  1  1  0  0  0
 22 20  1  0  0  0  0
 24 19  2  0  0  0  0
 25 23  1  0  0  0  0
 28 23  1  0  0  0  0
M  END
>  <MODEL>
5

>  <REMARK>
 VINA RESULT:      -5.2      4.992      8.931
  Name = 
  5 active torsions:
  status: ('A' for Active; 'I' for Inactive)
    1  A    between atoms: C_1  and  C_2
    2  A    between atoms: C_2  and  N_3
    3  A    between atoms: C_10  and  C_17
    4  A    between atoms: C_16  and  C_20
    5  A    between atoms: C_17  and  N_27
                            x       y       z     vdW  Elec       q    Type
                         _______ _______ _______ _____ _____    ______ ____

>  <TORSDO>
F 5

$$$$
=
 OpenBabel11052422483D

 28 31  0  0  1  0  0  0  0  0999 V2000
  160.9290  207.0480  149.9570 C   0  0  2  0  0  3  0  0  0  0  0  0
  161.9960  209.0780  150.3170 C   0  0  2  0  0  3  0  0  0  0  0  0
  162.6150  208.4300  149.0670 C   0  0  2  0  0  3  0  0  0  0  0  0
  162.1070  208.9820  147.8870 O   0  0  0  0  0  1  0  0  0  0  0  0
  162.1980  206.9860  149.1480 C   0  0  0  0  0  2  0  0  0  0  0  0
  161.0690  208.1320  150.9430 N   0  0  0  0  0  0  0  0  0  0  0  0
  162.2440  211.3820  149.7260 O   0  0  0  0  0  1  0  0  0  0  0  0
  161.3000  210.4110  150.0600 C   0  0  0  0  0  2  0  0  0  0  0  0
  160.5350  205.6810  150.5230 C   0  0  0  0  0  2  0  0  0  0  0  0
  161.5810  204.6920  150.2540 N   0  0  0  0  0  0  0  0  0  0  0  0
  160.4130  202.6200  150.0840 C   0  0  2  0  0  3  0  0  0  0  0  0
  161.4210  204.3250  148.8520 C   0  0  0  0  0  2  0  0  0  0  0  0
  160.8310  203.5640  152.3850 C   0  0  0  0  0  1  0  0  0  0  0  0
  161.3400  203.4280  150.9520 C   0  0  2  0  0  3  0  0  0  0  0  0
  160.8290  201.1630  150.0960 C   0  0  0  0  0  1  0  0  0  0  0  0
  160.5450  203.1590  148.7420 N   0  0  0  0  0  2  0  0  0  0  0  0
  161.7230  207.6530  152.1680 C   0  0  0  0  0  2  0  0  0  0  0  0
  161.0360  210.4680  153.6780 C   0  0  1  0  0  3  0  0  0  0  0  0
  160.5790  209.1190  155.5320 C   0  0  0  0  0  0  0  0  0  0  0  0
  160.8460  207.8540  153.4090 C   0  0  2  0  0  3  0  0  0  0  0  0
  160.8090  211.2700  154.9770 C   0  0  2  0  0  3  0  0  0  0  0  0
  161.2960  209.0660  154.2400 C   0  0  1  0  0  3  0  0  0  0  0  0
  159.8780  206.7730  155.4690 C   0  0  0  0  0  2  0  0  0  0  0  0
  160.3240  210.3080  155.9520 N   0  0  0  0  0  0  0  0  0  0  0  0
  160.1520  207.9720  156.1980 O   0  0  0  0  0  0  0  0  0  0  0  0
  159.7060  212.6720  154.8460 Cl  0  0  0  0  0  0  0  0  0  0  0  0
  159.8020  210.4930  152.7730 C   0  0  0  0  0  1  0  0  0  0  0  0
  160.8310  206.5950  154.2840 C   0  0  0  0  0  2  0  0  0  0  0  0
  1  9  1  1  0  0  0
  1  6  1  0  0  0  0
  2  8  1  6  0  0  0
  2  6  1  0  0  0  0
  3  4  1  6  0  0  0
  3  5  1  0  0  0  0
  3  2  1  0  0  0  0
  5  1  1  0  0  0  0
  6 17  1  0  0  0  0
  7  8  1  0  0  0  0
 10  9  1  0  0  0  0
 10 14  1  0  0  0  0
 11 15  1  6  0  0  0
 11 14  1  0  0  0  0
 12 10  1  0  0  0  0
 14 13  1  1  0  0  0
 16 12  1  0  0  0  0
 16 11  1  0  0  0  0
 18 27  1  6  0  0  0
 18 22  1  0  0  0  0
 18 21  1  0  0  0  0
 19 24  2  0  0  0  0
 19 25  1  0  0  0  0
 20 17  1  6  0  0  0
 20 22  1  0  0  0  0
 20 28  1  0  0  0  0
 21 26  1  6  0  0  0
 21 24  1  0  0  0  0
 22 19  1  1  0  0  0
 23 25  1  0  0  0  0
 28 23  1  0  0  0  0
M  END
>  <MODEL>
6

>  <REMARK>
 VINA RESULT:      -5.1      2.639      4.942
  Name = 
  5 active torsions:
  status: ('A' for Active; 'I' for Inactive)
    1  A    between atoms: C_1  and  C_2
    2  A    between atoms: C_2  and  N_3
    3  A    between atoms: C_10  and  C_17
    4  A    between atoms: C_16  and  C_20
    5  A    between atoms: C_17  and  N_27
                            x       y       z     vdW  Elec       q    Type
                         _______ _______ _______ _____ _____    ______ ____

>  <TORSDO>
F 5

$$$$
=
 OpenBabel11052422483D

 28 31  0  0  1  0  0  0  0  0999 V2000
  160.9750  208.0970  154.1080 C   0  0  2  0  0  3  0  0  0  0  0  0
  160.3900  208.8960  156.2070 C   0  0  2  0  0  3  0  0  0  0  0  0
  160.0220  207.4040  156.1470 C   0  0  2  0  0  3  0  0  0  0  0  0
  160.9740  206.6050  156.7900 O   0  0  0  0  0  1  0  0  0  0  0  0
  160.0250  207.0760  154.6780 C   0  0  0  0  0  2  0  0  0  0  0  0
  160.8280  209.3400  154.8820 N   0  0  0  0  0  0  0  0  0  0  0  0
  162.6510  209.5500  156.6360 O   0  0  0  0  0  1  0  0  0  0  0  0
  161.4390  209.2480  157.2580 C   0  0  0  0  0  2  0  0  0  0  0  0
  160.8340  208.2370  152.5900 C   0  0  0  0  0  2  0  0  0  0  0  0
  162.1350  208.0850  151.9370 N   0  0  0  0  0  0  0  0  0  0  0  0
  161.6180  207.8610  149.6200 C   0  0  2  0  0  3  0  0  0  0  0  0
  162.3780  209.3480  151.2490 C   0  0  0  0  0  2  0  0  0  0  0  0
  161.2770  205.8580  151.1140 C   0  0  0  0  0  1  0  0  0  0  0  0
  162.0940  207.1180  150.8380 C   0  0  2  0  0  3  0  0  0  0  0  0
  162.3900  207.4060  148.3990 C   0  0  0  0  0  1  0  0  0  0  0  0
  161.8830  209.2670  149.8750 N   0  0  0  0  0  2  0  0  0  0  0  0
  159.7470  210.1750  154.3410 C   0  0  0  0  0  2  0  0  0  0  0  0
  157.2400  212.2560  154.0920 C   0  0  1  0  0  3  0  0  0  0  0  0
  158.6190  213.7300  155.2730 C   0  0  0  0  0  0  0  0  0  0  0  0
  159.4520  211.3890  155.2300 C   0  0  2  0  0  3  0  0  0  0  0  0
  156.6800  213.6920  154.1660 C   0  0  2  0  0  3  0  0  0  0  0  0
  158.7080  212.4940  154.4660 C   0  0  1  0  0  3  0  0  0  0  0  0
  160.4260  213.1000  156.8030 C   0  0  0  0  0  2  0  0  0  0  0  0
  157.5330  214.3990  155.1070 N   0  0  0  0  0  0  0  0  0  0  0  0
  159.6030  214.0960  156.1900 O   0  0  0  0  0  0  0  0  0  0  0  0
  154.9560  213.8350  154.6210 Cl  0  0  0  0  0  0  0  0  0  0  0  0
  156.5480  211.3260  155.0920 C   0  0  0  0  0  1  0  0  0  0  0  0
  160.7410  211.9500  155.8410 C   0  0  0  0  0  2  0  0  0  0  0  0
  1  9  1  6  0  0  0
  1  5  1  0  0  0  0
  1  6  1  0  0  0  0
  2  8  1  1  0  0  0
  3  2  1  0  0  0  0
  3  4  1  1  0  0  0
  5  3  1  0  0  0  0
  6  2  1  0  0  0  0
  7  8  1  0  0  0  0
 10  9  1  0  0  0  0
 11 15  1  6  0  0  0
 11 16  1  0  0  0  0
 11 14  1  0  0  0  0
 12 10  1  0  0  0  0
 14 13  1  1  0  0  0
 14 10  1  0  0  0  0
 16 12  1  0  0  0  0
 17  6  1  0  0  0  0
 18 21  1  0  0  0  0
 18 22  1  0  0  0  0
 18 27  1  1  0  0  0
 19 25  1  0  0  0  0
 20 17  1  6  0  0  0
 20 28  1  0  0  0  0
 21 26  1  1  0  0  0
 21 24  1  0  0  0  0
 22 20  1  0  0  0  0
 22 19  1  1  0  0  0
 24 19  2  0  0  0  0
 25 23  1  0  0  0  0
 28 23  1  0  0  0  0
M  END
>  <MODEL>
7

>  <REMARK>
 VINA RESULT:      -5.0      1.738      2.208
  Name = 
  5 active torsions:
  status: ('A' for Active; 'I' for Inactive)
    1  A    between atoms: C_1  and  C_2
    2  A    between atoms: C_2  and  N_3
    3  A    between atoms: C_10  and  C_17
    4  A    between atoms: C_16  and  C_20
    5  A    between atoms: C_17  and  N_27
                            x       y       z     vdW  Elec       q    Type
                         _______ _______ _______ _____ _____    ______ ____

>  <TORSDO>
F 5

$$$$
=
 OpenBabel11052422483D

 28 31  0  0  1  0  0  0  0  0999 V2000
  161.2930  207.0640  151.1440 C   0  0  2  0  0  3  0  0  0  0  0  0
  161.4750  204.7500  151.1770 C   0  0  2  0  0  3  0  0  0  0  0  0
  162.2130  205.3040  152.4080 C   0  0  2  0  0  3  0  0  0  0  0  0
  161.4440  205.1930  153.5710 O   0  0  0  0  0  1  0  0  0  0  0  0
  162.4180  206.7620  152.0980 C   0  0  0  0  0  2  0  0  0  0  0  0
  161.0540  205.8650  150.3250 N   0  0  0  0  0  0  0  0  0  0  0  0
  160.7370  202.5840  151.8720 O   0  0  0  0  0  1  0  0  0  0  0  0
  160.2860  203.8520  151.5020 C   0  0  0  0  0  2  0  0  0  0  0  0
  161.5220  208.3640  150.3690 C   0  0  0  0  0  2  0  0  0  0  0  0
  162.0820  209.3940  151.2460 N   0  0  0  0  0  0  0  0  0  0  0  0
  160.4360  211.1190  151.2680 C   0  0  2  0  0  3  0  0  0  0  0  0
  161.3050  209.3230  152.4780 C   0  0  0  0  0  2  0  0  0  0  0  0
  161.9400  210.9360  149.2510 C   0  0  0  0  0  1  0  0  0  0  0  0
  161.8030  210.7470  150.7610 C   0  0  2  0  0  3  0  0  0  0  0  0
  160.4230  212.5680  151.7100 C   0  0  0  0  0  1  0  0  0  0  0  0
  160.1790  210.2550  152.4070 N   0  0  0  0  0  2  0  0  0  0  0  0
  161.9300  205.8460  149.1460 C   0  0  0  0  0  2  0  0  0  0  0  0
  161.7250  202.9610  147.6250 C   0  0  1  0  0  3  0  0  0  0  0  0
  161.1930  204.2310  145.7360 C   0  0  0  0  0  0  0  0  0  0  0  0
  161.1620  205.5240  147.8590 C   0  0  2  0  0  3  0  0  0  0  0  0
  161.6860  202.1340  146.3230 C   0  0  2  0  0  3  0  0  0  0  0  0
  161.8220  204.3850  147.0660 C   0  0  1  0  0  3  0  0  0  0  0  0
  160.1730  206.4590  145.7370 C   0  0  0  0  0  2  0  0  0  0  0  0
  161.1290  203.0180  145.3130 N   0  0  0  0  0  0  0  0  0  0  0  0
  160.6520  205.3080  145.0360 O   0  0  0  0  0  0  0  0  0  0  0  0
  160.7800  200.5930  146.4040 Cl  0  0  0  0  0  0  0  0  0  0  0  0
  160.4570  202.7670  148.4580 C   0  0  0  0  0  1  0  0  0  0  0  0
  161.0240  206.7680  146.9730 C   0  0  0  0  0  2  0  0  0  0  0  0
  1  9  1  6  0  0  0
  1  5  1  0  0  0  0
  2  8  1  1  0  0  0
  2  3  1  0  0  0  0
  3  4  1  1  0  0  0
  5  3  1  0  0  0  0
  6  1  1  0  0  0  0
  6  2  1  0  0  0  0
  8  7  1  0  0  0  0
  9 10  1  0  0  0  0
 10 12  1  0  0  0  0
 11 15  1  1  0  0  0
 11 16  1  0  0  0  0
 14 13  1  6  0  0  0
 14 10  1  0  0  0  0
 14 11  1  0  0  0  0
 16 12  1  0  0  0  0
 17  6  1  0  0  0  0
 18 27  1  6  0  0  0
 20 17  1  1  0  0  0
 21 26  1  1  0  0  0
 21 18  1  0  0  0  0
 22 19  1  6  0  0  0
 22 18  1  0  0  0  0
 22 20  1  0  0  0  0
 23 28  1  0  0  0  0
 24 19  2  0  0  0  0
 24 21  1  0  0  0  0
 25 19  1  0  0  0  0
 25 23  1  0  0  0  0
 28 20  1  0  0  0  0
M  END
>  <MODEL>
8

>  <REMARK>
 VINA RESULT:      -4.9      4.777      8.797
  Name = 
  5 active torsions:
  status: ('A' for Active; 'I' for Inactive)
    1  A    between atoms: C_1  and  C_2
    2  A    between atoms: C_2  and  N_3
    3  A    between atoms: C_10  and  C_17
    4  A    between atoms: C_16  and  C_20
    5  A    between atoms: C_17  and  N_27
                            x       y       z     vdW  Elec       q    Type
                         _______ _______ _______ _____ _____    ______ ____

>  <TORSDO>
F 5

$$$$
=
 OpenBabel11052422483D

 28 31  0  0  1  0  0  0  0  0999 V2000
  160.6890  204.5340  150.4550 C   0  0  2  0  0  3  0  0  0  0  0  0
  161.1370  202.2580  150.4010 C   0  0  2  0  0  3  0  0  0  0  0  0
  161.4700  202.7750  151.8100 C   0  0  2  0  0  3  0  0  0  0  0  0
  160.4540  202.4850  152.7260 O   0  0  0  0  0  1  0  0  0  0  0  0
  161.5680  204.2680  151.6490 C   0  0  0  0  0  2  0  0  0  0  0  0
  160.8110  203.3930  149.5340 N   0  0  0  0  0  0  0  0  0  0  0  0
  159.0840  201.5700  149.3850 O   0  0  0  0  0  1  0  0  0  0  0  0
  160.0230  201.2170  150.3540 C   0  0  0  0  0  2  0  0  0  0  0  0
  160.9460  205.9130  149.8420 C   0  0  0  0  0  2  0  0  0  0  0  0
  162.0030  206.6130  150.5750 N   0  0  0  0  0  0  0  0  0  0  0  0
  161.5460  208.9260  150.2180 C   0  0  2  0  0  3  0  0  0  0  0  0
  161.3540  207.1790  151.7520 C   0  0  0  0  0  2  0  0  0  0  0  0
  162.6430  207.6290  148.3530 C   0  0  0  0  0  1  0  0  0  0  0  0
  162.4790  207.8000  149.8620 C   0  0  2  0  0  3  0  0  0  0  0  0
  162.3300  210.2070  150.4190 C   0  0  0  0  0  1  0  0  0  0  0  0
  160.9050  208.5410  151.4630 N   0  0  0  0  0  2  0  0  0  0  0  0
  161.9500  203.5660  148.6230 C   0  0  0  0  0  2  0  0  0  0  0  0
  161.4280  205.2140  145.8500 C   0  0  1  0  0  3  0  0  0  0  0  0
  160.3720  203.2560  145.1310 C   0  0  0  0  0  0  0  0  0  0  0  0
  161.6730  202.9840  147.2320 C   0  0  2  0  0  3  0  0  0  0  0  0
  160.6770  205.3790  144.5120 C   0  0  2  0  0  3  0  0  0  0  0  0
  160.8000  203.9200  146.3810 C   0  0  1  0  0  3  0  0  0  0  0  0
  160.8310  200.9900  145.9410 C   0  0  0  0  0  2  0  0  0  0  0  0
  160.2840  204.0380  144.1140 N   0  0  0  0  0  0  0  0  0  0  0  0
  160.1540  201.8810  145.0530 O   0  0  0  0  0  0  0  0  0  0  0  0
  161.5810  206.2030  143.2060 Cl  0  0  0  0  0  0  0  0  0  0  0  0
  162.9360  205.0630  145.6390 C   0  0  0  0  0  1  0  0  0  0  0  0
  161.0160  201.6030  147.3330 C   0  0  0  0  0  2  0  0  0  0  0  0
  1  9  1  6  0  0  0
  1  5  1  0  0  0  0
  2  8  1  1  0  0  0
  2  3  1  0  0  0  0
  3  4  1  1  0  0  0
  5  3  1  0  0  0  0
  6  2  1  0  0  0  0
  6  1  1  0  0  0  0
  7  8  1  0  0  0  0
  9 10  1  0  0  0  0
 10 12  1  0  0  0  0
 11 15  1  1  0  0  0
 11 16  1  0  0  0  0
 14 13  1  6  0  0  0
 14 11  1  0  0  0  0
 14 10  1  0  0  0  0
 16 12  1  0  0  0  0
 17  6  1  0  0  0  0
 18 27  1  6  0  0  0
 18 22  1  0  0  0  0
 20 28  1  0  0  0  0
 20 17  1  1  0  0  0
 21 26  1  6  0  0  0
 21 18  1  0  0  0  0
 22 19  1  6  0  0  0
 22 20  1  0  0  0  0
 23 28  1  0  0  0  0
 24 21  1  0  0  0  0
 24 19  2  0  0  0  0
 25 19  1  0  0  0  0
 25 23  1  0  0  0  0
M  END
>  <MODEL>
9

>  <REMARK>
 VINA RESULT:      -4.9      5.928      9.684
  Name = 
  5 active torsions:
  status: ('A' for Active; 'I' for Inactive)
    1  A    between atoms: C_1  and  C_2
    2  A    between atoms: C_2  and  N_3
    3  A    between atoms: C_10  and  C_17
    4  A    between atoms: C_16  and  C_20
    5  A    between atoms: C_17  and  N_27
                            x       y       z     vdW  Elec       q    Type
                         _______ _______ _______ _____ _____    ______ ____

>  <TORSDO>
F 5

$$$$
