=
 OpenBabel11062410523D

 32 36  0  0  1  0  0  0  0  0999 V2000
  161.6180  212.7380  149.2920 N   0  0  0  0  0  0  0  0  0  0  0  0
  161.6360  207.6570  149.2020 C   0  0  0  0  0  0  0  0  0  0  0  0
  161.8240  206.2700  153.9070 O   0  0  0  0  0  0  0  0  0  0  0  0
  160.8880  205.2480  153.6490 C   0  0  0  0  0  2  0  0  0  0  0  0
  161.7080  205.7730  147.4840 C   0  0  0  0  0  0  0  0  0  0  0  0
  161.6000  204.4090  147.1680 C   0  0  0  0  0  0  0  0  0  0  0  0
  161.7020  209.9600  148.5880 C   0  0  0  0  0  0  0  0  0  0  0  0
  161.8910  209.3520  150.9140 C   0  0  0  0  0  3  0  0  0  0  0  0
  162.0360  211.7800  150.3250 C   0  0  0  0  0  2  0  0  0  0  0  0
  161.5440  207.3300  153.0200 C   0  0  0  0  0  2  0  0  0  0  0  0
  161.7610  208.0020  150.5650 C   0  0  0  0  0  0  0  0  0  0  0  0
  161.8940  206.9050  151.5910 C   0  0  2  0  0  3  0  0  0  0  0  0
  161.2670  205.2620  149.8110 C   0  0  0  0  0  0  0  0  0  0  0  0
  162.1230  212.3470  147.9670 C   0  0  0  0  0  2  0  0  0  0  0  0
  161.8380  210.3390  149.9320 C   0  0  0  0  0  0  0  0  0  0  0  0
  161.5790  210.9900  147.5110 C   0  0  0  0  0  2  0  0  0  0  0  0
  161.1400  204.6230  152.2730 C   0  0  0  0  0  2  0  0  0  0  0  0
  160.9980  205.7210  151.2200 C   0  0  1  0  0  3  0  0  0  0  0  0
  161.1530  203.9490  149.4820 N   0  0  0  0  0  0  0  0  0  0  0  0
  161.5950  208.6440  148.2640 N   0  0  0  0  0  0  0  0  0  0  0  0
  161.9730  206.5930  146.5650 O   0  0  0  0  0  0  0  0  0  0  0  0
  161.5320  206.2180  148.8110 C   0  0  1  0  0  3  0  0  0  0  0  0
  161.3150  203.4920  148.2130 C   0  0  0  0  0  0  0  0  0  0  0  0
  161.2230  202.0180  148.0000 C   0  0  0  0  0  2  0  0  0  0  0  0
  160.8460  201.3280  149.2970 C   0  0  0  0  0  1  0  0  0  0  0  0
  160.7690  203.9650  144.8330 C   0  0  0  0  0  1  0  0  0  0  0  0
  161.7870  204.0440  145.8210 O   0  0  0  0  0  0  0  0  0  0  0  0
  160.1620  212.8470  149.2880 C   0  0  0  0  0  2  0  0  0  0  0  0
  158.3110  213.4270  150.8940 C   0  0  0  0  0  0  0  0  0  0  0  0
  159.6980  213.2720  150.5990 N   0  0  0  0  0  2  0  0  0  0  0  0
  157.4390  213.2150  150.0110 O   0  0  0  0  0  0  0  0  0  0  0  0
  157.9190  213.8120  152.1690 O   0  0  0  0  0  1  0  0  0  0  0  0
  1  9  1  0  0  0  0
  2 11  1  0  0  0  0
  4  3  1  0  0  0  0
  6  5  1  0  0  0  0
  6 23  2  0  0  0  0
  7 15  2  0  0  0  0
 10  3  1  0  0  0  0
 11  8  2  0  0  0  0
 11 12  1  0  0  0  0
 12 10  1  1  0  0  0
 13 18  1  0  0  0  0
 14  1  1  0  0  0  0
 15  9  1  0  0  0  0
 15  8  1  0  0  0  0
 16 14  1  0  0  0  0
 16  7  1  0  0  0  0
 17  4  1  0  0  0  0
 18 12  1  0  0  0  0
 18 17  1  1  0  0  0
 19 13  2  0  0  0  0
 20  7  1  0  0  0  0
 20  2  2  0  0  0  0
 21  5  2  0  0  0  0
 22  5  1  1  0  0  0
 22  2  1  0  0  0  0
 22 13  1  0  0  0  0
 23 19  1  0  0  0  0
 24 23  1  0  0  0  0
 24 25  1  0  0  0  0
 26 27  1  0  0  0  0
 27  6  1  0  0  0  0
 28  1  1  0  0  0  0
 28 30  1  0  0  0  0
 29 32  1  0  0  0  0
 30 29  1  0  0  0  0
 31 29  2  0  0  0  0
M  END
>  <MODEL>
1

>  <REMARK>
 VINA RESULT:      -7.6      0.000      0.000
  Name = 
  4 active torsions:
  status: ('A' for Active; 'I' for Inactive)
    1  A    between atoms: N_2  and  C_24
    2  A    between atoms: C_7  and  O_22
    3  A    between atoms: N_10  and  C_24
    4  A    between atoms: C_11  and  C_32
                            x       y       z     vdW  Elec       q    Type
                         _______ _______ _______ _____ _____    ______ ____

>  <TORSDO>
F 4

$$$$
=
 OpenBabel11062410523D

 32 36  0  0  1  0  0  0  0  0999 V2000
  161.3870  210.1480  153.1640 N   0  0  0  0  0  0  0  0  0  0  0  0
  161.4990  206.3620  149.7760 C   0  0  0  0  0  0  0  0  0  0  0  0
  161.1290  202.2400  152.4150 O   0  0  0  0  0  0  0  0  0  0  0  0
  160.2480  201.6980  151.4550 C   0  0  0  0  0  2  0  0  0  0  0  0
  161.8140  206.0490  147.2640 C   0  0  0  0  0  0  0  0  0  0  0  0
  161.7680  205.2310  146.1240 C   0  0  0  0  0  0  0  0  0  0  0  0
  161.6030  208.4990  150.8280 C   0  0  0  0  0  0  0  0  0  0  0  0
  161.5140  206.5130  152.1930 C   0  0  0  0  0  3  0  0  0  0  0  0
  161.6910  208.7230  153.3550 C   0  0  0  0  0  2  0  0  0  0  0  0
  160.9430  203.6370  152.4140 C   0  0  0  0  0  2  0  0  0  0  0  0
  161.4500  205.7280  151.0360 C   0  0  0  0  0  0  0  0  0  0  0  0
  161.4730  204.2220  151.1010 C   0  0  2  0  0  3  0  0  0  0  0  0
  161.0980  204.1790  148.6270 C   0  0  0  0  0  0  0  0  0  0  0  0
  162.0580  210.6800  151.9680 C   0  0  0  0  0  2  0  0  0  0  0  0
  161.5660  207.9020  152.0980 C   0  0  0  0  0  0  0  0  0  0  0  0
  161.5980  209.9870  150.6820 C   0  0  0  0  0  2  0  0  0  0  0  0
  160.6790  202.1030  150.0420 C   0  0  0  0  0  2  0  0  0  0  0  0
  160.6490  203.6280  149.9560 C   0  0  1  0  0  3  0  0  0  0  0  0
  161.0470  203.4080  147.5110 N   0  0  0  0  0  0  0  0  0  0  0  0
  161.5590  207.7220  149.7130 N   0  0  0  0  0  0  0  0  0  0  0  0
  162.1770  207.2500  147.1390 O   0  0  0  0  0  0  0  0  0  0  0  0
  161.4680  205.5350  148.5310 C   0  0  1  0  0  3  0  0  0  0  0  0
  161.3720  203.8770  146.2780 C   0  0  0  0  0  0  0  0  0  0  0  0
  161.3310  202.9070  145.1450 C   0  0  0  0  0  2  0  0  0  0  0  0
  160.4460  201.7280  145.5020 C   0  0  0  0  0  1  0  0  0  0  0  0
  161.3310  205.8300  143.7180 C   0  0  0  0  0  1  0  0  0  0  0  0
  162.1260  205.8180  144.8950 O   0  0  0  0  0  0  0  0  0  0  0  0
  159.9410  210.3330  153.0800 C   0  0  0  0  0  2  0  0  0  0  0  0
  159.1720  210.8410  155.4240 C   0  0  0  0  0  0  0  0  0  0  0  0
  159.5070  211.2690  154.1050 N   0  0  0  0  0  2  0  0  0  0  0  0
  159.2270  209.6230  155.7370 O   0  0  0  0  0  0  0  0  0  0  0  0
  158.7860  211.7780  156.3730 O   0  0  0  0  0  1  0  0  0  0  0  0
  1  9  1  0  0  0  0
  2 11  1  0  0  0  0
  4  3  1  0  0  0  0
  6 23  2  0  0  0  0
  6  5  1  0  0  0  0
  7 15  2  0  0  0  0
 10  3  1  0  0  0  0
 11 12  1  0  0  0  0
 11  8  2  0  0  0  0
 12 10  1  1  0  0  0
 13 18  1  0  0  0  0
 14  1  1  0  0  0  0
 15  8  1  0  0  0  0
 15  9  1  0  0  0  0
 16  7  1  0  0  0  0
 16 14  1  0  0  0  0
 17  4  1  0  0  0  0
 18 17  1  6  0  0  0
 18 12  1  0  0  0  0
 19 13  2  0  0  0  0
 20  2  2  0  0  0  0
 20  7  1  0  0  0  0
 21  5  2  0  0  0  0
 22  5  1  1  0  0  0
 22 13  1  0  0  0  0
 22  2  1  0  0  0  0
 23 19  1  0  0  0  0
 24 25  1  0  0  0  0
 24 23  1  0  0  0  0
 26 27  1  0  0  0  0
 27  6  1  0  0  0  0
 28  1  1  0  0  0  0
 28 30  1  0  0  0  0
 29 31  2  0  0  0  0
 29 32  1  0  0  0  0
 30 29  1  0  0  0  0
M  END
>  <MODEL>
2

>  <REMARK>
 VINA RESULT:      -7.4      2.618      3.392
  Name = 
  4 active torsions:
  status: ('A' for Active; 'I' for Inactive)
    1  A    between atoms: N_2  and  C_24
    2  A    between atoms: C_7  and  O_22
    3  A    between atoms: N_10  and  C_24
    4  A    between atoms: C_11  and  C_32
                            x       y       z     vdW  Elec       q    Type
                         _______ _______ _______ _____ _____    ______ ____

>  <TORSDO>
F 4

$$$$
=
 OpenBabel11062410523D

 32 36  0  0  1  0  0  0  0  0999 V2000
  160.8450  208.9140  156.3680 N   0  0  0  0  0  0  0  0  0  0  0  0
  161.0300  206.6280  151.8330 C   0  0  0  0  0  0  0  0  0  0  0  0
  161.9380  210.2100  148.6030 O   0  0  0  0  0  0  0  0  0  0  0  0
  162.8390  209.3700  147.9150 C   0  0  0  0  0  2  0  0  0  0  0  0
  160.6660  204.3050  150.8440 C   0  0  0  0  0  0  0  0  0  0  0  0
  160.7620  203.4130  149.7630 C   0  0  2  0  0  3  0  0  0  0  0  0
  160.7300  207.0990  154.1510 C   0  0  0  0  0  0  0  0  0  0  0  0
  161.0820  208.9210  152.6110 C   0  0  0  0  0  3  0  0  0  0  0  0
  160.7050  209.4830  155.0200 C   0  0  0  0  0  2  0  0  0  0  0  0
  161.9700  209.8390  149.9620 C   0  0  0  0  0  2  0  0  0  0  0  0
  161.1910  208.0020  151.5590 C   0  0  0  0  0  0  0  0  0  0  0  0
  161.3350  208.4550  150.1280 C   0  0  2  0  0  3  0  0  0  0  0  0
  161.6280  206.0570  149.4750 C   0  0  0  0  0  0  0  0  0  0  0  0
  160.0800  207.6650  156.5000 C   0  0  0  0  0  2  0  0  0  0  0  0
  160.8760  208.4750  153.9140 C   0  0  0  0  0  0  0  0  0  0  0  0
  160.5690  206.5740  155.5420 C   0  0  0  0  0  2  0  0  0  0  0  0
  162.3180  207.9300  147.8920 C   0  0  0  0  0  2  0  0  0  0  0  0
  162.1790  207.4520  149.3370 C   0  0  1  0  0  3  0  0  0  0  0  0
  161.7240  205.1750  148.4460 N   0  0  0  0  0  0  0  0  0  0  0  0
  160.8220  206.2210  153.1160 N   0  0  0  0  0  0  0  0  0  0  0  0
  160.1700  203.8970  151.9280 O   0  0  0  0  0  0  0  0  0  0  0  0
  161.1090  205.6380  150.7160 C   0  0  0  0  0  0  0  0  0  0  0  0
  161.3080  203.8860  148.5410 C   0  0  0  0  0  0  0  0  0  0  0  0
  161.4160  203.0400  147.3170 C   0  0  0  0  0  2  0  0  0  0  0  0
  161.5740  203.9190  146.0900 C   0  0  0  0  0  1  0  0  0  0  0  0
  161.0830  200.9180  149.8610 C   0  0  0  0  0  1  0  0  0  0  0  0
  160.3010  202.0990  149.9700 O   0  0  0  0  0  0  0  0  0  0  0  0
  162.2590  208.6970  156.6620 C   0  0  0  0  0  2  0  0  0  0  0  0
  163.4820  210.8910  156.4780 C   0  0  0  0  0  0  0  0  0  0  0  0
  162.8240  209.8960  157.2610 N   0  0  0  0  0  2  0  0  0  0  0  0
  163.6080  210.7490  155.2330 O   0  0  0  0  0  0  0  0  0  0  0  0
  163.9830  212.0290  157.0950 O   0  0  0  0  0  1  0  0  0  0  0  0
  1 14  1  0  0  0  0
  1 28  1  0  0  0  0
  2 20  1  0  0  0  0
  3 10  1  0  0  0  0
  4  3  1  0  0  0  0
  5 21  2  0  0  0  0
  6 27  1  6  0  0  0
  6  5  1  0  0  0  0
  7 16  1  0  0  0  0
  8 15  2  0  0  0  0
  9  1  1  0  0  0  0
 11  2  2  0  0  0  0
 11  8  1  0  0  0  0
 12 10  1  1  0  0  0
 12 11  1  0  0  0  0
 13 22  2  0  0  0  0
 15  7  1  0  0  0  0
 15  9  1  0  0  0  0
 16 14  1  0  0  0  0
 17  4  1  0  0  0  0
 18 17  1  6  0  0  0
 18 13  1  0  0  0  0
 18 12  1  0  0  0  0
 19 23  2  0  0  0  0
 19 13  1  0  0  0  0
 20  7  2  0  0  0  0
 22  5  1  0  0  0  0
 22  2  1  0  0  0  0
 23  6  1  0  0  0  0
 24 23  1  0  0  0  0
 25 24  1  0  0  0  0
 26 27  1  0  0  0  0
 28 30  1  0  0  0  0
 29 32  1  0  0  0  0
 29 30  1  0  0  0  0
 31 29  2  0  0  0  0
M  END
>  <MODEL>
3

>  <REMARK>
 VINA RESULT:      -6.9      3.371      5.669
  Name = 
  4 active torsions:
  status: ('A' for Active; 'I' for Inactive)
    1  A    between atoms: N_2  and  C_24
    2  A    between atoms: C_7  and  O_22
    3  A    between atoms: N_10  and  C_24
    4  A    between atoms: C_11  and  C_32
                            x       y       z     vdW  Elec       q    Type
                         _______ _______ _______ _____ _____    ______ ____

>  <TORSDO>
F 4

$$$$
=
 OpenBabel11062410523D

 32 36  0  0  1  0  0  0  0  0999 V2000
  161.9640  204.7750  151.1110 N   0  0  0  0  0  0  0  0  0  0  0  0
  160.6980  209.5280  152.3870 C   0  0  0  0  0  0  0  0  0  0  0  0
  162.2550  212.3340  148.6730 O   0  0  0  0  0  0  0  0  0  0  0  0
  161.0690  213.0940  148.7420 C   0  0  0  0  0  2  0  0  0  0  0  0
  159.6690  210.7700  154.3630 C   0  0  0  0  0  0  0  0  0  0  0  0
  159.1200  211.9400  154.9140 C   0  0  0  0  0  0  0  0  0  0  0  0
  161.0980  207.1780  152.4140 C   0  0  0  0  0  0  0  0  0  0  0  0
  161.9720  208.5040  150.6000 C   0  0  0  0  0  3  0  0  0  0  0  0
  162.4830  206.0540  150.6090 C   0  0  0  0  0  2  0  0  0  0  0  0
  161.9380  211.0220  149.0820 C   0  0  0  0  0  2  0  0  0  0  0  0
  161.3960  209.6480  151.1670 C   0  0  0  0  0  0  0  0  0  0  0  0
  161.6230  211.0180  150.5810 C   0  0  2  0  0  3  0  0  0  0  0  0
  160.0020  211.9250  152.2600 C   0  0  0  0  0  0  0  0  0  0  0  0
  161.8340  204.7920  152.5760 C   0  0  0  0  0  2  0  0  0  0  0  0
  161.8060  207.2610  151.2050 C   0  0  0  0  0  0  0  0  0  0  0  0
  160.8450  205.8550  153.0640 C   0  0  0  0  0  2  0  0  0  0  0  0
  160.6360  213.2820  150.2000 C   0  0  0  0  0  2  0  0  0  0  0  0
  160.3910  211.9010  150.8040 C   0  0  1  0  0  3  0  0  0  0  0  0
  159.4570  213.0410  152.8070 N   0  0  0  0  0  0  0  0  0  0  0  0
  160.5590  208.3000  152.9610 N   0  0  0  0  0  0  0  0  0  0  0  0
  159.7700  209.7450  155.0880 O   0  0  0  0  0  0  0  0  0  0  0  0
  160.1070  210.7450  153.0230 C   0  0  1  0  0  3  0  0  0  0  0  0
  159.0240  213.0940  154.0930 C   0  0  0  0  0  0  0  0  0  0  0  0
  158.5000  214.4020  154.5860 C   0  0  0  0  0  2  0  0  0  0  0  0
  156.9920  214.4500  154.4300 C   0  0  0  0  0  1  0  0  0  0  0  0
  157.3730  211.6640  156.7060 C   0  0  0  0  0  1  0  0  0  0  0  0
  158.7030  211.8850  156.2570 O   0  0  0  0  0  0  0  0  0  0  0  0
  160.6830  204.4830  150.4740 C   0  0  0  0  0  2  0  0  0  0  0  0
  161.1680  203.0010  148.4960 C   0  0  0  0  0  0  0  0  0  0  0  0
  160.7360  203.1730  149.8450 N   0  0  0  0  0  2  0  0  0  0  0  0
  161.5030  203.9940  147.7980 O   0  0  0  0  0  0  0  0  0  0  0  0
  161.2230  201.7260  147.9500 O   0  0  0  0  0  1  0  0  0  0  0  0
  1 14  1  0  0  0  0
  2 20  1  0  0  0  0
  2 22  1  0  0  0  0
  3  4  1  0  0  0  0
  3 10  1  0  0  0  0
  4 17  1  0  0  0  0
  5  6  1  0  0  0  0
  5 21  2  0  0  0  0
  6 27  1  0  0  0  0
  7 20  2  0  0  0  0
  7 16  1  0  0  0  0
  8 11  1  0  0  0  0
  8 15  2  0  0  0  0
  9  1  1  0  0  0  0
  9 15  1  0  0  0  0
 11  2  2  0  0  0  0
 12 10  1  6  0  0  0
 12 18  1  0  0  0  0
 12 11  1  0  0  0  0
 13 19  2  0  0  0  0
 14 16  1  0  0  0  0
 15  7  1  0  0  0  0
 18 17  1  1  0  0  0
 18 13  1  0  0  0  0
 19 23  1  0  0  0  0
 22 13  1  1  0  0  0
 22  5  1  0  0  0  0
 23 24  1  0  0  0  0
 23  6  2  0  0  0  0
 25 24  1  0  0  0  0
 27 26  1  0  0  0  0
 28  1  1  0  0  0  0
 29 30  1  0  0  0  0
 30 28  1  0  0  0  0
 31 29  2  0  0  0  0
 32 29  1  0  0  0  0
M  END
>  <MODEL>
4

>  <REMARK>
 VINA RESULT:      -6.2      2.855      9.054
  Name = 
  4 active torsions:
  status: ('A' for Active; 'I' for Inactive)
    1  A    between atoms: N_2  and  C_24
    2  A    between atoms: C_7  and  O_22
    3  A    between atoms: N_10  and  C_24
    4  A    between atoms: C_11  and  C_32
                            x       y       z     vdW  Elec       q    Type
                         _______ _______ _______ _____ _____    ______ ____

>  <TORSDO>
F 4

$$$$
=
 OpenBabel11062410523D

 32 36  0  0  1  0  0  0  0  0999 V2000
  160.7040  208.6470  156.2980 N   0  0  0  0  0  0  0  0  0  0  0  0
  161.1300  207.5530  151.3540 C   0  0  0  0  0  0  0  0  0  0  0  0
  161.7200  211.8770  149.1070 O   0  0  0  0  0  0  0  0  0  0  0  0
  162.6990  211.3120  148.2640 C   0  0  0  0  0  2  0  0  0  0  0  0
  160.9900  205.5160  149.8250 C   0  0  0  0  0  0  0  0  0  0  0  0
  161.1750  204.9250  148.5650 C   0  0  2  0  0  3  0  0  0  0  0  0
  160.7730  207.4200  153.7070 C   0  0  0  0  0  0  0  0  0  0  0  0
  160.9630  209.5850  152.6620 C   0  0  0  0  0  3  0  0  0  0  0  0
  160.5200  209.5110  155.1240 C   0  0  0  0  0  2  0  0  0  0  0  0
  161.7780  211.1920  150.3380 C   0  0  0  0  0  2  0  0  0  0  0  0
  161.1640  208.9620  151.4240 C   0  0  0  0  0  0  0  0  0  0  0  0
  161.2730  209.7580  150.1480 C   0  0  2  0  0  3  0  0  0  0  0  0
  161.7920  207.6260  148.9460 C   0  0  0  0  0  0  0  0  0  0  0  0
  160.0580  207.3400  156.1040 C   0  0  0  0  0  2  0  0  0  0  0  0
  160.7910  208.8200  153.8130 C   0  0  0  0  0  0  0  0  0  0  0  0
  160.6530  206.5620  154.9260 C   0  0  0  0  0  2  0  0  0  0  0  0
  162.3160  209.8800  147.8810 C   0  0  0  0  0  2  0  0  0  0  0  0
  162.2120  209.0560  149.1630 C   0  0  1  0  0  3  0  0  0  0  0  0
  161.9770  207.0310  147.7390 N   0  0  0  0  0  0  0  0  0  0  0  0
  160.9520  206.8310  152.4950 N   0  0  0  0  0  0  0  0  0  0  0  0
  160.5270  204.8150  150.7650 O   0  0  0  0  0  0  0  0  0  0  0  0
  161.3070  206.8740  150.0340 C   0  0  0  0  0  0  0  0  0  0  0  0
  161.6820  205.7260  147.5090 C   0  0  0  0  0  0  0  0  0  0  0  0
  161.8760  205.2140  146.1200 C   0  0  0  0  0  2  0  0  0  0  0  0
  160.8350  205.8160  145.1950 C   0  0  0  0  0  1  0  0  0  0  0  0
  160.9080  202.5890  149.4680 C   0  0  0  0  0  1  0  0  0  0  0  0
  160.8370  203.5640  148.4360 O   0  0  0  0  0  0  0  0  0  0  0  0
  162.1300  208.4920  156.5720 C   0  0  0  0  0  2  0  0  0  0  0  0
  163.2750  210.7350  156.5610 C   0  0  0  0  0  0  0  0  0  0  0  0
  162.6280  209.6730  157.2600 N   0  0  0  0  0  2  0  0  0  0  0  0
  163.4500  210.6710  155.3160 O   0  0  0  0  0  0  0  0  0  0  0  0
  163.7110  211.8520  157.2610 O   0  0  0  0  0  1  0  0  0  0  0  0
  1 28  1  0  0  0  0
  2 11  2  0  0  0  0
  2 20  1  0  0  0  0
  3 10  1  0  0  0  0
  4  3  1  0  0  0  0
  5 22  1  0  0  0  0
  5 21  2  0  0  0  0
  6 27  1  6  0  0  0
  6  5  1  0  0  0  0
  7 15  1  0  0  0  0
  7 16  1  0  0  0  0
  8 15  2  0  0  0  0
  9  1  1  0  0  0  0
 11  8  1  0  0  0  0
 12 10  1  1  0  0  0
 12 11  1  0  0  0  0
 13 18  1  0  0  0  0
 13 22  2  0  0  0  0
 14  1  1  0  0  0  0
 15  9  1  0  0  0  0
 16 14  1  0  0  0  0
 17  4  1  0  0  0  0
 18 17  1  6  0  0  0
 18 12  1  0  0  0  0
 19 13  1  0  0  0  0
 20  7  2  0  0  0  0
 22  2  1  0  0  0  0
 23 19  2  0  0  0  0
 23  6  1  0  0  0  0
 24 23  1  0  0  0  0
 25 24  1  0  0  0  0
 27 26  1  0  0  0  0
 28 30  1  0  0  0  0
 29 30  1  0  0  0  0
 29 32  1  0  0  0  0
 31 29  2  0  0  0  0
M  END
>  <MODEL>
5

>  <REMARK>
 VINA RESULT:      -6.2      3.287      5.742
  Name = 
  4 active torsions:
  status: ('A' for Active; 'I' for Inactive)
    1  A    between atoms: N_2  and  C_24
    2  A    between atoms: C_7  and  O_22
    3  A    between atoms: N_10  and  C_24
    4  A    between atoms: C_11  and  C_32
                            x       y       z     vdW  Elec       q    Type
                         _______ _______ _______ _____ _____    ______ ____

>  <TORSDO>
F 4

$$$$
=
 OpenBabel11062410523D

 32 36  0  0  1  0  0  0  0  0999 V2000
  160.8050  209.2970  157.1740 N   0  0  0  0  0  0  0  0  0  0  0  0
  161.4170  207.8140  152.3520 C   0  0  0  0  0  0  0  0  0  0  0  0
  161.1000  202.9160  152.4450 O   0  0  0  0  0  0  0  0  0  0  0  0
  160.3330  202.9370  151.2620 C   0  0  0  0  0  2  0  0  0  0  0  0
  161.9450  208.8500  150.0820 C   0  0  0  0  0  0  0  0  0  0  0  0
  162.0390  208.7400  148.6860 C   0  0  2  0  0  3  0  0  0  0  0  0
  161.3050  209.0980  154.3570 C   0  0  0  0  0  0  0  0  0  0  0  0
  161.2340  206.6920  154.4910 C   0  0  0  0  0  3  0  0  0  0  0  0
  161.1810  207.9840  156.6340 C   0  0  0  0  0  2  0  0  0  0  0  0
  160.8280  204.1100  153.1450 C   0  0  0  0  0  2  0  0  0  0  0  0
  161.3100  206.6190  153.0950 C   0  0  0  0  0  0  0  0  0  0  0  0
  161.4220  205.2960  152.3790 C   0  0  2  0  0  3  0  0  0  0  0  0
  161.2430  206.5350  150.2120 C   0  0  0  0  0  0  0  0  0  0  0  0
  161.5320  210.3800  156.4940 C   0  0  0  0  0  2  0  0  0  0  0  0
  161.2060  207.9300  155.1290 C   0  0  0  0  0  0  0  0  0  0  0  0
  161.2170  210.4470  154.9970 C   0  0  0  0  0  2  0  0  0  0  0  0
  160.8460  204.0210  150.3090 C   0  0  0  0  0  2  0  0  0  0  0  0
  160.7280  205.3700  151.0160 C   0  0  1  0  0  3  0  0  0  0  0  0
  161.3270  206.4530  148.8590 N   0  0  0  0  0  0  0  0  0  0  0  0
  161.3950  209.0100  153.0040 N   0  0  0  0  0  0  0  0  0  0  0  0
  162.2410  209.9470  150.6280 O   0  0  0  0  0  0  0  0  0  0  0  0
  161.5340  207.7500  150.8640 C   0  0  0  0  0  0  0  0  0  0  0  0
  161.7170  207.4960  148.0820 C   0  0  0  0  0  0  0  0  0  0  0  0
  161.8250  207.2520  146.6130 C   0  0  0  0  0  2  0  0  0  0  0  0
  161.3550  205.8480  146.2840 C   0  0  0  0  0  1  0  0  0  0  0  0
  161.9670  211.2030  148.1700 C   0  0  0  0  0  1  0  0  0  0  0  0
  162.4540  209.8830  147.9760 O   0  0  0  0  0  0  0  0  0  0  0  0
  159.3610  209.4800  157.0540 C   0  0  0  0  0  2  0  0  0  0  0  0
  158.0280  211.5380  156.4810 C   0  0  0  0  0  0  0  0  0  0  0  0
  159.0260  210.8800  157.2600 N   0  0  0  0  0  2  0  0  0  0  0  0
  157.4140  210.9220  155.5700 O   0  0  0  0  0  0  0  0  0  0  0  0
  157.7280  212.8700  156.7330 O   0  0  0  0  0  1  0  0  0  0  0  0
  2 20  2  0  0  0  0
  2 11  1  0  0  0  0
  3 10  1  0  0  0  0
  4  3  1  0  0  0  0
  5 21  2  0  0  0  0
  5 22  1  0  0  0  0
  6 27  1  1  0  0  0
  6  5  1  0  0  0  0
  7 16  1  0  0  0  0
  7 15  2  0  0  0  0
  8 15  1  0  0  0  0
  9  1  1  0  0  0  0
 11  8  2  0  0  0  0
 12 11  1  0  0  0  0
 12 10  1  1  0  0  0
 13 22  2  0  0  0  0
 13 18  1  0  0  0  0
 14  1  1  0  0  0  0
 15  9  1  0  0  0  0
 16 14  1  0  0  0  0
 17  4  1  0  0  0  0
 18 17  1  6  0  0  0
 18 12  1  0  0  0  0
 19 13  1  0  0  0  0
 20  7  1  0  0  0  0
 22  2  1  0  0  0  0
 23  6  1  0  0  0  0
 23 19  2  0  0  0  0
 24 23  1  0  0  0  0
 25 24  1  0  0  0  0
 27 26  1  0  0  0  0
 28  1  1  0  0  0  0
 28 30  1  0  0  0  0
 29 32  1  0  0  0  0
 29 30  1  0  0  0  0
 31 29  2  0  0  0  0
M  END
>  <MODEL>
6

>  <REMARK>
 VINA RESULT:      -6.1      3.420      5.338
  Name = 
  4 active torsions:
  status: ('A' for Active; 'I' for Inactive)
    1  A    between atoms: N_2  and  C_24
    2  A    between atoms: C_7  and  O_22
    3  A    between atoms: N_10  and  C_24
    4  A    between atoms: C_11  and  C_32
                            x       y       z     vdW  Elec       q    Type
                         _______ _______ _______ _____ _____    ______ ____

>  <TORSDO>
F 4

$$$$
=
 OpenBabel11062410523D

 32 36  0  0  1  0  0  0  0  0999 V2000
  161.2350  202.0540  148.2300 N   0  0  0  0  0  0  0  0  0  0  0  0
  161.3820  206.1260  151.2670 C   0  0  0  0  0  0  0  0  0  0  0  0
  162.6480  209.8750  148.3630 O   0  0  0  0  0  0  0  0  0  0  0  0
  161.7090  210.7020  149.0120 C   0  0  0  0  0  2  0  0  0  0  0  0
  161.1270  206.6770  153.7450 C   0  0  0  0  0  0  0  0  0  0  0  0
  160.9920  207.6220  154.7750 C   0  0  2  0  0  3  0  0  0  0  0  0
  161.2430  203.9000  150.4250 C   0  0  0  0  0  0  0  0  0  0  0  0
  161.9600  205.6760  148.9590 C   0  0  0  0  0  3  0  0  0  0  0  0
  161.8990  203.3500  148.0360 C   0  0  0  0  0  2  0  0  0  0  0  0
  162.1480  208.5570  148.4050 C   0  0  0  0  0  2  0  0  0  0  0  0
  161.7960  206.5950  150.0030 C   0  0  0  0  0  0  0  0  0  0  0  0
  162.1850  208.0430  149.8470 C   0  0  2  0  0  3  0  0  0  0  0  0
  161.2280  208.4700  152.1200 C   0  0  0  0  0  0  0  0  0  0  0  0
  161.4450  201.5480  149.5950 C   0  0  0  0  0  2  0  0  0  0  0  0
  161.6610  204.3300  149.1560 C   0  0  0  0  0  0  0  0  0  0  0  0
  160.8540  202.4760  150.6610 C   0  0  0  0  0  2  0  0  0  0  0  0
  161.6680  210.3960  150.5120 C   0  0  0  0  0  2  0  0  0  0  0  0
  161.2640  208.9330  150.6870 C   0  0  1  0  0  3  0  0  0  0  0  0
  161.0820  209.3680  153.1290 N   0  0  0  0  0  0  0  0  0  0  0  0
  161.1050  204.8020  151.4330 N   0  0  0  0  0  0  0  0  0  0  0  0
  161.1580  205.4520  154.0420 O   0  0  0  0  0  0  0  0  0  0  0  0
  161.2360  207.0900  152.4010 C   0  0  0  0  0  0  0  0  0  0  0  0
  160.9730  208.9990  154.4310 C   0  0  0  0  0  0  0  0  0  0  0  0
  160.8790  210.0900  155.4450 C   0  0  0  0  0  2  0  0  0  0  0  0
  162.2400  210.3390  156.0680 C   0  0  0  0  0  1  0  0  0  0  0  0
  159.6890  207.0400  156.8500 C   0  0  0  0  0  1  0  0  0  0  0  0
  160.8870  207.1310  156.0900 O   0  0  0  0  0  0  0  0  0  0  0  0
  159.8110  202.1860  147.9330 C   0  0  0  0  0  2  0  0  0  0  0  0
  160.0010  201.6390  145.4820 C   0  0  0  0  0  0  0  0  0  0  0  0
  159.4740  201.3670  146.7790 N   0  0  0  0  0  2  0  0  0  0  0  0
  160.7680  202.6190  145.2930 O   0  0  0  0  0  1  0  0  0  0  0  0
  159.6670  200.8120  144.4180 O   0  0  0  0  0  0  0  0  0  0  0  0
  1 14  1  0  0  0  0
  2 20  1  0  0  0  0
  2 22  1  0  0  0  0
  3 10  1  0  0  0  0
  3  4  1  0  0  0  0
  4 17  1  0  0  0  0
  5 21  2  0  0  0  0
  5  6  1  0  0  0  0
  6 27  1  1  0  0  0
  7 16  1  0  0  0  0
  7 20  2  0  0  0  0
  8 15  2  0  0  0  0
  8 11  1  0  0  0  0
  9  1  1  0  0  0  0
  9 15  1  0  0  0  0
 11  2  2  0  0  0  0
 12 10  1  6  0  0  0
 12 11  1  0  0  0  0
 12 18  1  0  0  0  0
 13 22  2  0  0  0  0
 13 19  1  0  0  0  0
 14 16  1  0  0  0  0
 15  7  1  0  0  0  0
 18 17  1  1  0  0  0
 18 13  1  0  0  0  0
 19 23  2  0  0  0  0
 22  5  1  0  0  0  0
 23  6  1  0  0  0  0
 23 24  1  0  0  0  0
 24 25  1  0  0  0  0
 27 26  1  0  0  0  0
 28  1  1  0  0  0  0
 29 30  1  0  0  0  0
 30 28  1  0  0  0  0
 31 29  1  0  0  0  0
 32 29  2  0  0  0  0
M  END
>  <MODEL>
7

>  <REMARK>
 VINA RESULT:      -5.9      2.813      8.558
  Name = 
  4 active torsions:
  status: ('A' for Active; 'I' for Inactive)
    1  A    between atoms: N_2  and  C_24
    2  A    between atoms: C_7  and  O_22
    3  A    between atoms: N_10  and  C_24
    4  A    between atoms: C_11  and  C_32
                            x       y       z     vdW  Elec       q    Type
                         _______ _______ _______ _____ _____    ______ ____

>  <TORSDO>
F 4

$$$$
=
 OpenBabel11062410523D

 32 36  0  0  1  0  0  0  0  0999 V2000
  162.0830  204.4150  146.3050 N   0  0  0  0  0  0  0  0  0  0  0  0
  161.5430  207.4660  150.3330 C   0  0  0  0  0  0  0  0  0  0  0  0
  162.3110  212.0090  148.6410 O   0  0  0  0  0  0  0  0  0  0  0  0
  161.2420  212.4890  149.4260 C   0  0  0  0  0  2  0  0  0  0  0  0
  161.1450  207.2680  152.8450 C   0  0  0  0  0  0  0  0  0  0  0  0
  160.8430  207.8640  154.0800 C   0  0  2  0  0  3  0  0  0  0  0  0
  161.7590  205.5640  148.9120 C   0  0  0  0  0  0  0  0  0  0  0  0
  162.2410  207.7560  148.0320 C   0  0  0  0  0  3  0  0  0  0  0  0
  162.5520  205.7920  146.5120 C   0  0  0  0  0  2  0  0  0  0  0  0
  162.0120  210.6760  148.2910 C   0  0  0  0  0  2  0  0  0  0  0  0
  161.9150  208.3190  149.2720 C   0  0  0  0  0  0  0  0  0  0  0  0
  162.0880  209.7930  149.5400 C   0  0  2  0  0  3  0  0  0  0  0  0
  161.0190  209.4380  151.7750 C   0  0  0  0  0  0  0  0  0  0  0  0
  162.3310  203.5840  147.4920 C   0  0  0  0  0  2  0  0  0  0  0  0
  162.1420  206.3810  147.8370 C   0  0  0  0  0  0  0  0  0  0  0  0
  161.5810  204.0910  148.7280 C   0  0  0  0  0  2  0  0  0  0  0  0
  161.2090  211.7750  150.7810 C   0  0  0  0  0  2  0  0  0  0  0  0
  161.0230  210.2810  150.5260 C   0  0  1  0  0  3  0  0  0  0  0  0
  160.7150  209.9920  152.9770 N   0  0  0  0  0  0  0  0  0  0  0  0
  161.4620  206.1240  150.1150 N   0  0  0  0  0  0  0  0  0  0  0  0
  161.3500  206.0250  152.8010 O   0  0  0  0  0  0  0  0  0  0  0  0
  161.2260  208.0480  151.6720 C   0  0  0  0  0  0  0  0  0  0  0  0
  160.6280  209.2660  154.1210 C   0  0  0  0  0  0  0  0  0  0  0  0
  160.3460  210.0090  155.3840 C   0  0  0  0  0  2  0  0  0  0  0  0
  160.7390  211.4660  155.2280 C   0  0  0  0  0  1  0  0  0  0  0  0
  159.7060  206.9530  156.1340 C   0  0  0  0  0  1  0  0  0  0  0  0
  160.7780  207.0180  155.2040 O   0  0  0  0  0  0  0  0  0  0  0  0
  160.6640  204.4290  145.9610 C   0  0  0  0  0  2  0  0  0  0  0  0
  160.1560  202.0250  145.4070 C   0  0  0  0  0  0  0  0  0  0  0  0
  160.3830  203.3730  145.0000 N   0  0  0  0  0  2  0  0  0  0  0  0
  160.2110  201.7030  146.6230 O   0  0  0  0  0  1  0  0  0  0  0  0
  159.8670  201.0590  144.4530 O   0  0  0  0  0  0  0  0  0  0  0  0
  1  9  1  0  0  0  0
  1 14  1  0  0  0  0
  2 22  1  0  0  0  0
  3  4  1  0  0  0  0
  4 17  1  0  0  0  0
  5  6  1  0  0  0  0
  6 23  1  0  0  0  0
  6 27  1  1  0  0  0
  7 20  2  0  0  0  0
  8 11  1  0  0  0  0
  9 15  1  0  0  0  0
 10  3  1  0  0  0  0
 11 12  1  0  0  0  0
 11  2  2  0  0  0  0
 12 10  1  6  0  0  0
 12 18  1  0  0  0  0
 13 19  1  0  0  0  0
 14 16  1  0  0  0  0
 15  8  2  0  0  0  0
 15  7  1  0  0  0  0
 16  7  1  0  0  0  0
 18 17  1  1  0  0  0
 18 13  1  0  0  0  0
 19 23  2  0  0  0  0
 20  2  1  0  0  0  0
 21  5  2  0  0  0  0
 22 13  2  0  0  0  0
 22  5  1  0  0  0  0
 23 24  1  0  0  0  0
 25 24  1  0  0  0  0
 27 26  1  0  0  0  0
 28  1  1  0  0  0  0
 29 31  1  0  0  0  0
 30 29  1  0  0  0  0
 30 28  1  0  0  0  0
 32 29  2  0  0  0  0
M  END
>  <MODEL>
8

>  <REMARK>
 VINA RESULT:      -5.6      2.567      8.099
  Name = 
  4 active torsions:
  status: ('A' for Active; 'I' for Inactive)
    1  A    between atoms: N_2  and  C_24
    2  A    between atoms: C_7  and  O_22
    3  A    between atoms: N_10  and  C_24
    4  A    between atoms: C_11  and  C_32
                            x       y       z     vdW  Elec       q    Type
                         _______ _______ _______ _____ _____    ______ ____

>  <TORSDO>
F 4

$$$$
=
 OpenBabel11062410523D

 32 36  0  0  1  0  0  0  0  0999 V2000
  162.0050  205.8630  148.8260 N   0  0  0  0  0  0  0  0  0  0  0  0
  160.8350  209.9780  151.5680 C   0  0  0  0  0  0  0  0  0  0  0  0
  161.8330  213.8080  148.6640 O   0  0  0  0  0  0  0  0  0  0  0  0
  160.6530  214.4490  149.0940 C   0  0  0  0  0  2  0  0  0  0  0  0
  160.0550  210.5480  153.9290 C   0  0  0  0  0  0  0  0  0  0  0  0
  159.5640  211.4800  154.8570 C   0  0  2  0  0  3  0  0  0  0  0  0
  161.2770  207.7440  150.8640 C   0  0  0  0  0  0  0  0  0  0  0  0
  161.8780  209.5780  149.4190 C   0  0  0  0  0  3  0  0  0  0  0  0
  162.4290  207.2590  148.6560 C   0  0  0  0  0  2  0  0  0  0  0  0
  161.5980  212.4180  148.7110 C   0  0  0  0  0  2  0  0  0  0  0  0
  161.3620  210.4790  150.3590 C   0  0  0  0  0  0  0  0  0  0  0  0
  161.4840  211.9700  150.1720 C   0  0  2  0  0  3  0  0  0  0  0  0
  160.0850  212.2700  152.2250 C   0  0  0  0  0  0  0  0  0  0  0  0
  162.0700  205.4550  150.2370 C   0  0  0  0  0  2  0  0  0  0  0  0
  161.8170  208.2070  149.6540 C   0  0  0  0  0  0  0  0  0  0  0  0
  161.1360  206.2790  151.1290 C   0  0  0  0  0  2  0  0  0  0  0  0
  160.4150  214.1910  150.5850 C   0  0  0  0  0  2  0  0  0  0  0  0
  160.2770  212.6830  150.7890 C   0  0  1  0  0  3  0  0  0  0  0  0
  159.5970  213.1520  153.1350 N   0  0  0  0  0  0  0  0  0  0  0  0
  160.7950  208.6320  151.7740 N   0  0  0  0  0  0  0  0  0  0  0  0
  160.2700  209.3650  154.3080 O   0  0  0  0  0  0  0  0  0  0  0  0
  160.3120  210.9300  152.5960 C   0  0  0  0  0  0  0  0  0  0  0  0
  159.3380  212.8130  154.4240 C   0  0  0  0  0  0  0  0  0  0  0  0
  158.8610  213.8950  155.3340 C   0  0  0  0  0  2  0  0  0  0  0  0
  157.4030  214.2050  155.0530 C   0  0  0  0  0  1  0  0  0  0  0  0
  160.2330  211.1320  157.2600 C   0  0  0  0  0  1  0  0  0  0  0  0
  159.3300  211.0220  156.1680 O   0  0  0  0  0  0  0  0  0  0  0  0
  160.6560  205.6940  148.2930 C   0  0  0  0  0  2  0  0  0  0  0  0
  160.9190  205.3730  145.8090 C   0  0  0  0  0  0  0  0  0  0  0  0
  160.6010  206.1970  146.9290 N   0  0  0  0  0  2  0  0  0  0  0  0
  161.2780  204.1770  145.9730 O   0  0  0  0  0  1  0  0  0  0  0  0
  160.8270  205.8940  144.5260 O   0  0  0  0  0  0  0  0  0  0  0  0
  1 14  1  0  0  0  0
  2 20  1  0  0  0  0
  2 22  1  0  0  0  0
  3 10  1  0  0  0  0
  3  4  1  0  0  0  0
  4 17  1  0  0  0  0
  5 21  2  0  0  0  0
  5  6  1  0  0  0  0
  6 27  1  1  0  0  0
  7 16  1  0  0  0  0
  7 20  2  0  0  0  0
  8 15  2  0  0  0  0
  8 11  1  0  0  0  0
  9  1  1  0  0  0  0
  9 15  1  0  0  0  0
 11  2  2  0  0  0  0
 12 10  1  6  0  0  0
 12 11  1  0  0  0  0
 12 18  1  0  0  0  0
 13 22  2  0  0  0  0
 13 19  1  0  0  0  0
 14 16  1  0  0  0  0
 15  7  1  0  0  0  0
 18 17  1  1  0  0  0
 18 13  1  0  0  0  0
 19 23  2  0  0  0  0
 22  5  1  0  0  0  0
 23  6  1  0  0  0  0
 23 24  1  0  0  0  0
 25 24  1  0  0  0  0
 27 26  1  0  0  0  0
 28  1  1  0  0  0  0
 29 31  1  0  0  0  0
 29 30  1  0  0  0  0
 30 28  1  0  0  0  0
 32 29  2  0  0  0  0
M  END
>  <MODEL>
9

>  <REMARK>
 VINA RESULT:      -5.4      2.822      8.704
  Name = 
  4 active torsions:
  status: ('A' for Active; 'I' for Inactive)
    1  A    between atoms: N_2  and  C_24
    2  A    between atoms: C_7  and  O_22
    3  A    between atoms: N_10  and  C_24
    4  A    between atoms: C_11  and  C_32
                            x       y       z     vdW  Elec       q    Type
                         _______ _______ _______ _____ _____    ______ ____

>  <TORSDO>
F 4

$$$$
