=
 OpenBabel11062409293D

 34 38  0  0  1  0  0  0  0  0999 V2000
  161.8510  209.1480  152.2710 C   0  0  1  0  0  3  0  0  0  0  0  0
  161.9710  211.5290  150.2980 O   0  0  0  0  0  0  0  0  0  0  0  0
  161.9070  206.9250  150.4370 C   0  0  0  0  0  3  0  0  0  0  0  0
  161.6880  207.7520  152.7100 N   0  0  0  0  0  0  0  0  0  0  0  0
  161.8050  208.1640  149.9700 C   0  0  0  0  0  0  0  0  0  0  0  0
  162.1230  208.5790  148.6470 N   0  0  0  0  0  0  0  0  0  0  0  0
  161.7400  206.7300  151.8940 C   0  0  0  0  0  0  0  0  0  0  0  0
  161.9060  210.3190  149.9550 C   0  0  0  0  0  0  0  0  0  0  0  0
  161.5840  209.2580  150.8400 N   0  0  0  0  0  0  0  0  0  0  0  0
  162.1820  209.8510  148.6370 N   0  0  0  0  0  0  0  0  0  0  0  0
  160.7640  211.0830  155.3230 C   0  0  0  0  0  3  0  0  0  0  0  0
  159.2960  210.8440  155.4280 C   0  0  0  0  0  2  0  0  0  0  0  0
  158.5490  211.5440  154.3430 C   0  0  0  0  0  0  0  0  0  0  0  0
  158.7320  211.2510  153.0530 C   0  0  0  0  0  3  0  0  0  0  0  0
  161.4880  210.6910  154.2750 C   0  0  0  0  0  3  0  0  0  0  0  0
  159.7600  210.3400  152.5110 C   0  0  0  0  0  3  0  0  0  0  0  0
  160.9510  210.0490  153.0530 C   0  0  0  0  0  0  0  0  0  0  0  0
  156.0540  211.8210  155.0380 O   0  0  0  0  0  1  0  0  0  0  0  0
  156.9260  213.5180  153.3520 O   0  0  0  0  0  1  0  0  0  0  0  0
  157.2780  212.6950  154.8010 S   0  0  0  0  0  3  0  0  0  0  0  0
  161.6500  205.3430  152.4430 C   0  0  0  0  0  2  0  0  0  0  0  0
  160.5330  202.0040  150.8410 C   0  0  0  0  0  2  0  0  0  0  0  0
  161.2900  204.6770  150.1300 O   0  0  0  0  0  0  0  0  0  0  0  0
  160.8940  201.8210  147.0580 C   0  0  0  0  0  0  0  0  0  0  0  0
  160.6740  201.4600  148.3980 C   0  0  0  0  0  3  0  0  0  0  0  0
  160.8100  202.4010  149.4210 C   0  0  0  0  0  0  0  0  0  0  0  0
  161.3720  204.0980  147.7820 C   0  0  0  0  0  3  0  0  0  0  0  0
  161.1480  203.7310  149.1110 C   0  0  0  0  0  0  0  0  0  0  0  0
  161.2450  203.1510  146.7630 C   0  0  0  0  0  3  0  0  0  0  0  0
  160.9480  204.3820  151.4860 C   0  0  1  0  0  3  0  0  0  0  0  0
  161.2570  202.9220  151.8250 C   0  0  0  0  0  2  0  0  0  0  0  0
  160.7590  200.8490  146.0050 N   0  0  0  0  0  0  0  0  0  0  0  0
  161.3940  199.5430  146.0990 C   0  0  0  0  0  1  0  0  0  0  0  0
  159.9810  201.1340  144.8100 C   0  0  0  0  0  1  0  0  0  0  0  0
  1  4  1  0  0  0  0
  1 17  1  1  0  0  0
  3  7  1  0  0  0  0
  5  3  2  0  0  0  0
  5  9  1  0  0  0  0
  6  5  1  0  0  0  0
  7 21  1  0  0  0  0
  7  4  2  0  0  0  0
  8  2  2  0  0  0  0
  8  9  1  0  0  0  0
  9  1  1  0  0  0  0
 10  6  2  0  0  0  0
 10  8  1  0  0  0  0
 11 12  1  0  0  0  0
 13 20  1  0  0  0  0
 13 12  1  0  0  0  0
 14 13  2  0  0  0  0
 15 11  2  0  0  0  0
 16 17  2  0  0  0  0
 16 14  1  0  0  0  0
 17 15  1  0  0  0  0
 19 20  1  0  0  0  0
 20 18  1  0  0  0  0
 22 31  1  0  0  0  0
 23 30  1  0  0  0  0
 24 25  1  0  0  0  0
 25 26  2  0  0  0  0
 26 22  1  0  0  0  0
 27 28  2  0  0  0  0
 28 26  1  0  0  0  0
 28 23  1  0  0  0  0
 29 24  2  0  0  0  0
 29 27  1  0  0  0  0
 30 31  1  0  0  0  0
 30 21  1  1  0  0  0
 32 33  1  0  0  0  0
 32 24  1  0  0  0  0
 34 32  1  0  0  0  0
M  END
>  <MODEL>
1

>  <REMARK>
 VINA RESULT:      -9.7      0.000      0.000
  Name = 
  5 active torsions:
  status: ('A' for Active; 'I' for Inactive)
    1  A    between atoms: C_1  and  C_34
    2  A    between atoms: C_7  and  N_11
    3  A    between atoms: C_17  and  C_18
    4  A    between atoms: C_18  and  C_30
    5  A    between atoms: S_24  and  C_25
                            x       y       z     vdW  Elec       q    Type
                         _______ _______ _______ _____ _____    ______ ____

>  <TORSDO>
F 5

$$$$
=
 OpenBabel11062409293D

 34 38  0  0  1  0  0  0  0  0999 V2000
  159.6380  210.1420  155.2470 C   0  0  1  0  0  3  0  0  0  0  0  0
  160.5430  212.7150  156.7080 O   0  0  0  0  0  0  0  0  0  0  0  0
  161.9540  208.4670  155.6240 C   0  0  0  0  0  3  0  0  0  0  0  0
  159.7700  208.8160  154.6200 N   0  0  0  0  0  0  0  0  0  0  0  0
  161.9920  209.7400  155.9970 C   0  0  0  0  0  0  0  0  0  0  0  0
  162.9020  210.3000  156.9370 N   0  0  0  0  0  0  0  0  0  0  0  0
  160.8010  208.0310  154.8050 C   0  0  0  0  0  0  0  0  0  0  0  0
  161.2630  211.6950  156.5450 C   0  0  0  0  0  0  0  0  0  0  0  0
  160.9500  210.6340  155.6570 N   0  0  0  0  0  0  0  0  0  0  0  0
  162.4730  211.4550  157.2610 N   0  0  0  0  0  0  0  0  0  0  0  0
  159.3880  212.2410  152.1210 C   0  0  0  0  0  3  0  0  0  0  0  0
  158.8320  213.5470  152.5780 C   0  0  0  0  0  2  0  0  0  0  0  0
  157.3990  213.4230  152.9760 C   0  0  0  0  0  0  0  0  0  0  0  0
  157.0100  212.6470  153.9900 C   0  0  0  0  0  3  0  0  0  0  0  0
  159.4760  211.1760  152.9150 C   0  0  0  0  0  3  0  0  0  0  0  0
  157.8710  211.7160  154.7460 C   0  0  0  0  0  3  0  0  0  0  0  0
  158.9770  211.0990  154.3080 C   0  0  0  0  0  0  0  0  0  0  0  0
  154.8640  213.8820  152.5990 O   0  0  0  0  0  1  0  0  0  0  0  0
  156.3310  214.0120  150.5220 O   0  0  0  0  0  1  0  0  0  0  0  0
  156.2060  214.4530  152.1620 S   0  0  0  0  0  3  0  0  0  0  0  0
  160.8070  206.6660  154.1970 C   0  0  0  0  0  2  0  0  0  0  0  0
  161.6750  207.8250  150.6110 C   0  0  0  0  0  2  0  0  0  0  0  0
  161.0870  205.4510  152.1070 O   0  0  0  0  0  0  0  0  0  0  0  0
  161.2460  205.1850  147.9060 C   0  0  0  0  0  0  0  0  0  0  0  0
  161.4610  206.4150  148.5490 C   0  0  0  0  0  3  0  0  0  0  0  0
  161.4040  206.5110  149.9410 C   0  0  0  0  0  0  0  0  0  0  0  0
  160.9320  204.1370  150.0820 C   0  0  0  0  0  3  0  0  0  0  0  0
  161.1510  205.3620  150.7130 C   0  0  0  0  0  0  0  0  0  0  0  0
  160.9790  204.0480  148.6880 C   0  0  0  0  0  3  0  0  0  0  0  0
  161.4290  206.6520  152.8020 C   0  0  1  0  0  3  0  0  0  0  0  0
  161.0280  207.8880  151.9940 C   0  0  0  0  0  2  0  0  0  0  0  0
  161.3000  205.0900  146.4700 N   0  0  0  0  0  0  0  0  0  0  0  0
  161.9500  203.9660  145.8130 C   0  0  0  0  0  1  0  0  0  0  0  0
  160.7040  206.1120  145.6240 C   0  0  0  0  0  1  0  0  0  0  0  0
  1 17  1  6  0  0  0
  1  9  1  0  0  0  0
  3  5  2  0  0  0  0
  4  7  2  0  0  0  0
  4  1  1  0  0  0  0
  5  6  1  0  0  0  0
  6 10  2  0  0  0  0
  7  3  1  0  0  0  0
  8  2  2  0  0  0  0
  8 10  1  0  0  0  0
  9  5  1  0  0  0  0
  9  8  1  0  0  0  0
 11 12  1  0  0  0  0
 11 15  2  0  0  0  0
 12 13  1  0  0  0  0
 13 14  2  0  0  0  0
 14 16  1  0  0  0  0
 15 17  1  0  0  0  0
 17 16  2  0  0  0  0
 19 20  1  0  0  0  0
 20 18  1  0  0  0  0
 20 13  1  0  0  0  0
 21  7  1  0  0  0  0
 22 31  1  0  0  0  0
 23 30  1  0  0  0  0
 24 25  2  0  0  0  0
 24 29  1  0  0  0  0
 25 26  1  0  0  0  0
 26 22  1  0  0  0  0
 26 28  2  0  0  0  0
 27 28  1  0  0  0  0
 28 23  1  0  0  0  0
 29 27  2  0  0  0  0
 30 21  1  1  0  0  0
 31 30  1  0  0  0  0
 32 24  1  0  0  0  0
 33 32  1  0  0  0  0
 34 32  1  0  0  0  0
M  END
>  <MODEL>
2

>  <REMARK>
 VINA RESULT:      -9.5      2.719      4.457
  Name = 
  5 active torsions:
  status: ('A' for Active; 'I' for Inactive)
    1  A    between atoms: C_1  and  C_34
    2  A    between atoms: C_7  and  N_11
    3  A    between atoms: C_17  and  C_18
    4  A    between atoms: C_18  and  C_30
    5  A    between atoms: S_24  and  C_25
                            x       y       z     vdW  Elec       q    Type
                         _______ _______ _______ _____ _____    ______ ____

>  <TORSDO>
F 5

$$$$
=
 OpenBabel11062409293D

 34 38  0  0  1  0  0  0  0  0999 V2000
  162.2520  208.1610  150.3060 C   0  0  1  0  0  3  0  0  0  0  0  0
  161.9500  205.7680  152.2450 O   0  0  0  0  0  0  0  0  0  0  0  0
  161.2190  210.3050  151.9330 C   0  0  0  0  0  3  0  0  0  0  0  0
  162.0580  209.5270  149.7910 N   0  0  0  0  0  0  0  0  0  0  0  0
  161.1370  209.0520  152.3630 C   0  0  0  0  0  0  0  0  0  0  0  0
  160.9630  208.6510  153.7170 N   0  0  0  0  0  0  0  0  0  0  0  0
  161.6190  210.5170  150.5240 C   0  0  0  0  0  0  0  0  0  0  0  0
  161.5630  206.9410  152.4910 C   0  0  0  0  0  0  0  0  0  0  0  0
  161.4580  207.9650  151.5160 N   0  0  0  0  0  0  0  0  0  0  0  0
  161.2130  207.4040  153.7940 N   0  0  0  0  0  0  0  0  0  0  0  0
  160.5540  205.0590  148.9900 C   0  0  0  0  0  3  0  0  0  0  0  0
  161.5830  204.3840  148.1480 C   0  0  0  0  0  2  0  0  0  0  0  0
  161.8470  205.1420  146.8920 C   0  0  0  0  0  0  0  0  0  0  0  0
  162.3440  206.3810  146.9030 C   0  0  0  0  0  3  0  0  0  0  0  0
  160.7240  206.2760  149.5040 C   0  0  0  0  0  3  0  0  0  0  0  0
  162.5600  207.2150  148.1010 C   0  0  0  0  0  3  0  0  0  0  0  0
  161.8930  207.1540  149.2620 C   0  0  0  0  0  0  0  0  0  0  0  0
  160.4000  204.9790  144.7320 O   0  0  0  0  0  1  0  0  0  0  0  0
  161.0720  202.7600  145.7820 O   0  0  0  0  0  1  0  0  0  0  0  0
  161.6240  204.3080  145.3410 S   0  0  0  0  0  3  0  0  0  0  0  0
  161.5370  211.8900  149.9370 C   0  0  0  0  0  2  0  0  0  0  0  0
  162.8410  212.9650  146.4590 C   0  0  0  0  0  2  0  0  0  0  0  0
  160.4780  211.9780  147.7480 O   0  0  0  0  0  0  0  0  0  0  0  0
  160.1730  213.3330  143.7710 C   0  0  0  0  0  0  0  0  0  0  0  0
  161.4040  213.3820  144.4470 C   0  0  0  0  0  3  0  0  0  0  0  0
  161.5100  212.9400  145.7670 C   0  0  0  0  0  0  0  0  0  0  0  0
  159.1530  212.3680  145.7620 C   0  0  0  0  0  3  0  0  0  0  0  0
  160.3810  212.4180  146.4240 C   0  0  0  0  0  0  0  0  0  0  0  0
  159.0500  212.8220  144.4440 C   0  0  0  0  0  3  0  0  0  0  0  0
  161.7340  211.8900  148.4230 C   0  0  1  0  0  3  0  0  0  0  0  0
  162.6770  213.0100  147.9770 C   0  0  0  0  0  2  0  0  0  0  0  0
  160.0650  213.7940  142.4110 N   0  0  0  0  0  0  0  0  0  0  0  0
  158.7980  213.7480  141.6980 C   0  0  0  0  0  1  0  0  0  0  0  0
  161.2180  214.3260  141.7020 C   0  0  0  0  0  1  0  0  0  0  0  0
  1 17  1  6  0  0  0
  1  9  1  0  0  0  0
  2  8  2  0  0  0  0
  3  5  2  0  0  0  0
  4  1  1  0  0  0  0
  4  7  2  0  0  0  0
  5  6  1  0  0  0  0
  6 10  2  0  0  0  0
  7  3  1  0  0  0  0
  8 10  1  0  0  0  0
  9  5  1  0  0  0  0
  9  8  1  0  0  0  0
 11 15  2  0  0  0  0
 12 11  1  0  0  0  0
 13 14  2  0  0  0  0
 13 12  1  0  0  0  0
 14 16  1  0  0  0  0
 16 17  2  0  0  0  0
 17 15  1  0  0  0  0
 18 20  1  0  0  0  0
 20 19  1  0  0  0  0
 20 13  1  0  0  0  0
 21  7  1  0  0  0  0
 22 31  1  0  0  0  0
 23 30  1  0  0  0  0
 24 29  2  0  0  0  0
 24 25  1  0  0  0  0
 25 26  2  0  0  0  0
 26 28  1  0  0  0  0
 26 22  1  0  0  0  0
 27 28  2  0  0  0  0
 28 23  1  0  0  0  0
 29 27  1  0  0  0  0
 30 21  1  1  0  0  0
 31 30  1  0  0  0  0
 32 24  1  0  0  0  0
 33 32  1  0  0  0  0
 34 32  1  0  0  0  0
M  END
>  <MODEL>
3

>  <REMARK>
 VINA RESULT:      -9.5      4.720      9.233
  Name = 
  5 active torsions:
  status: ('A' for Active; 'I' for Inactive)
    1  A    between atoms: C_1  and  C_34
    2  A    between atoms: C_7  and  N_11
    3  A    between atoms: C_17  and  C_18
    4  A    between atoms: C_18  and  C_30
    5  A    between atoms: S_24  and  C_25
                            x       y       z     vdW  Elec       q    Type
                         _______ _______ _______ _____ _____    ______ ____

>  <TORSDO>
F 5

$$$$
=
 OpenBabel11062409293D

 34 38  0  0  1  0  0  0  0  0999 V2000
  159.7340  210.3370  154.3290 C   0  0  1  0  0  3  0  0  0  0  0  0
  159.6850  213.0710  155.7760 O   0  0  0  0  0  0  0  0  0  0  0  0
  161.7560  208.9580  155.8530 C   0  0  0  0  0  3  0  0  0  0  0  0
  160.2350  209.0020  153.9600 N   0  0  0  0  0  0  0  0  0  0  0  0
  161.5240  210.2450  156.0760 C   0  0  0  0  0  0  0  0  0  0  0  0
  161.8690  210.9550  157.2610 N   0  0  0  0  0  0  0  0  0  0  0  0
  161.1300  208.3500  154.6570 C   0  0  0  0  0  0  0  0  0  0  0  0
  160.4780  212.1320  156.0500 C   0  0  0  0  0  0  0  0  0  0  0  0
  160.6800  210.9960  155.2250 N   0  0  0  0  0  0  0  0  0  0  0  0
  161.2530  212.0700  157.2450 N   0  0  0  0  0  0  0  0  0  0  0  0
  160.7130  212.0350  151.1050 C   0  0  0  0  0  3  0  0  0  0  0  0
  160.0640  213.3770  151.1640 C   0  0  0  0  0  2  0  0  0  0  0  0
  158.5830  213.2760  151.0170 C   0  0  0  0  0  0  0  0  0  0  0  0
  157.8260  212.6220  151.9010 C   0  0  0  0  0  3  0  0  0  0  0  0
  160.4720  211.0760  151.9970 C   0  0  0  0  0  3  0  0  0  0  0  0
  158.3210  211.8060  153.0270 C   0  0  0  0  0  3  0  0  0  0  0  0
  159.4930  211.1600  153.1050 C   0  0  0  0  0  0  0  0  0  0  0  0
  156.6010  213.3210  149.3270 O   0  0  0  0  0  1  0  0  0  0  0  0
  158.8700  213.9960  148.3880 O   0  0  0  0  0  1  0  0  0  0  0  0
  157.8030  214.1780  149.7030 S   0  0  0  0  0  3  0  0  0  0  0  0
  161.5140  206.9630  154.2530 C   0  0  0  0  0  2  0  0  0  0  0  0
  160.6340  204.7720  151.1900 C   0  0  0  0  0  2  0  0  0  0  0  0
  161.4940  207.4230  151.8630 O   0  0  0  0  0  0  0  0  0  0  0  0
  161.5430  206.2690  147.8120 C   0  0  0  0  0  0  0  0  0  0  0  0
  161.1290  205.3650  148.8040 C   0  0  0  0  0  3  0  0  0  0  0  0
  161.1160  205.7400  150.1500 C   0  0  0  0  0  0  0  0  0  0  0  0
  161.9170  207.9460  149.5390 C   0  0  0  0  0  3  0  0  0  0  0  0
  161.5000  207.0420  150.5180 C   0  0  0  0  0  0  0  0  0  0  0  0
  161.9380  207.5630  148.1950 C   0  0  0  0  0  3  0  0  0  0  0  0
  160.9570  206.5800  152.8840 C   0  0  1  0  0  3  0  0  0  0  0  0
  161.2090  205.1040  152.5660 C   0  0  0  0  0  2  0  0  0  0  0  0
  161.5610  205.8780  146.4260 N   0  0  0  0  0  0  0  0  0  0  0  0
  162.6840  205.1430  145.8650 C   0  0  0  0  0  1  0  0  0  0  0  0
  160.4560  206.2020  145.5380 C   0  0  0  0  0  1  0  0  0  0  0  0
  1 17  1  6  0  0  0
  1  9  1  0  0  0  0
  2  8  2  0  0  0  0
  3  5  2  0  0  0  0
  4  1  1  0  0  0  0
  4  7  2  0  0  0  0
  5  6  1  0  0  0  0
  7  3  1  0  0  0  0
  8 10  1  0  0  0  0
  9  8  1  0  0  0  0
  9  5  1  0  0  0  0
 10  6  2  0  0  0  0
 11 12  1  0  0  0  0
 11 15  2  0  0  0  0
 13 12  1  0  0  0  0
 13 14  2  0  0  0  0
 14 16  1  0  0  0  0
 15 17  1  0  0  0  0
 16 17  2  0  0  0  0
 18 20  1  0  0  0  0
 19 20  1  0  0  0  0
 20 13  1  0  0  0  0
 21  7  1  0  0  0  0
 22 31  1  0  0  0  0
 23 30  1  0  0  0  0
 24 29  2  0  0  0  0
 24 25  1  0  0  0  0
 25 26  2  0  0  0  0
 26 28  1  0  0  0  0
 26 22  1  0  0  0  0
 27 28  2  0  0  0  0
 28 23  1  0  0  0  0
 29 27  1  0  0  0  0
 30 21  1  1  0  0  0
 31 30  1  0  0  0  0
 32 24  1  0  0  0  0
 33 32  1  0  0  0  0
 34 32  1  0  0  0  0
M  END
>  <MODEL>
4

>  <REMARK>
 VINA RESULT:      -9.1      3.031      4.716
  Name = 
  5 active torsions:
  status: ('A' for Active; 'I' for Inactive)
    1  A    between atoms: C_1  and  C_34
    2  A    between atoms: C_7  and  N_11
    3  A    between atoms: C_17  and  C_18
    4  A    between atoms: C_18  and  C_30
    5  A    between atoms: S_24  and  C_25
                            x       y       z     vdW  Elec       q    Type
                         _______ _______ _______ _____ _____    ______ ____

>  <TORSDO>
F 5

$$$$
=
 OpenBabel11062409293D

 34 38  0  0  1  0  0  0  0  0999 V2000
  160.3130  209.8540  152.7750 C   0  0  1  0  0  3  0  0  0  0  0  0
  159.7050  212.5250  154.2160 O   0  0  0  0  0  0  0  0  0  0  0  0
  161.1650  208.2260  154.9970 C   0  0  0  0  0  3  0  0  0  0  0  0
  160.8440  208.4910  152.6040 N   0  0  0  0  0  0  0  0  0  0  0  0
  160.9370  209.5210  155.1770 C   0  0  0  0  0  0  0  0  0  0  0  0
  160.6680  210.1490  156.4260 N   0  0  0  0  0  0  0  0  0  0  0  0
  161.2070  207.7290  153.6030 C   0  0  0  0  0  0  0  0  0  0  0  0
  160.1800  211.5020  154.7770 C   0  0  0  0  0  0  0  0  0  0  0  0
  160.7040  210.3830  154.0790 N   0  0  0  0  0  0  0  0  0  0  0  0
  160.2220  211.3190  156.1900 N   0  0  0  0  0  0  0  0  0  0  0  0
  160.2970  212.9680  150.6430 C   0  0  0  0  0  3  0  0  0  0  0  0
  160.4700  212.4780  149.2450 C   0  0  0  0  0  2  0  0  0  0  0  0
  161.8480  211.9580  149.0130 C   0  0  0  0  0  0  0  0  0  0  0  0
  162.3310  210.9070  149.6800 C   0  0  0  0  0  3  0  0  0  0  0  0
  160.4110  212.1740  151.7070 C   0  0  0  0  0  3  0  0  0  0  0  0
  161.6680  210.2180  150.8040 C   0  0  0  0  0  3  0  0  0  0  0  0
  160.7920  210.7430  151.6730 C   0  0  0  0  0  0  0  0  0  0  0  0
  163.0000  214.1250  148.1410 O   0  0  0  0  0  1  0  0  0  0  0  0
  161.7280  212.7720  146.3990 O   0  0  0  0  0  1  0  0  0  0  0  0
  162.8120  212.6770  147.7080 S   0  0  0  0  0  3  0  0  0  0  0  0
  161.6520  206.3270  153.3380 C   0  0  0  0  0  2  0  0  0  0  0  0
  160.8330  203.7750  150.5500 C   0  0  0  0  0  2  0  0  0  0  0  0
  161.3830  206.5640  150.9310 O   0  0  0  0  0  0  0  0  0  0  0  0
  161.2670  205.0640  146.9960 C   0  0  0  0  0  0  0  0  0  0  0  0
  161.0550  204.2080  148.0900 C   0  0  0  0  0  3  0  0  0  0  0  0
  161.0990  204.6980  149.3980 C   0  0  0  0  0  0  0  0  0  0  0  0
  161.5480  206.9230  148.5450 C   0  0  0  0  0  3  0  0  0  0  0  0
  161.3330  206.0660  149.6260 C   0  0  0  0  0  0  0  0  0  0  0  0
  161.5140  206.4260  147.2390 C   0  0  0  0  0  3  0  0  0  0  0  0
  161.0450  205.7540  152.0600 C   0  0  1  0  0  3  0  0  0  0  0  0
  161.4650  204.3000  151.8380 C   0  0  0  0  0  2  0  0  0  0  0  0
  161.2270  204.5550  145.6500 N   0  0  0  0  0  0  0  0  0  0  0  0
  161.2080  205.4530  144.5050 C   0  0  0  0  0  1  0  0  0  0  0  0
  161.2070  203.1250  145.3850 C   0  0  0  0  0  1  0  0  0  0  0  0
  1 17  1  6  0  0  0
  1  9  1  0  0  0  0
  2  8  2  0  0  0  0
  3  5  2  0  0  0  0
  4  1  1  0  0  0  0
  4  7  2  0  0  0  0
  5  6  1  0  0  0  0
  7  3  1  0  0  0  0
  8 10  1  0  0  0  0
  9  8  1  0  0  0  0
  9  5  1  0  0  0  0
 10  6  2  0  0  0  0
 11 15  2  0  0  0  0
 12 11  1  0  0  0  0
 13 12  1  0  0  0  0
 13 14  2  0  0  0  0
 14 16  1  0  0  0  0
 16 17  2  0  0  0  0
 17 15  1  0  0  0  0
 19 20  1  0  0  0  0
 20 18  1  0  0  0  0
 20 13  1  0  0  0  0
 21  7  1  0  0  0  0
 22 31  1  0  0  0  0
 23 30  1  0  0  0  0
 24 29  2  0  0  0  0
 24 25  1  0  0  0  0
 25 26  2  0  0  0  0
 26 28  1  0  0  0  0
 26 22  1  0  0  0  0
 27 28  2  0  0  0  0
 28 23  1  0  0  0  0
 29 27  1  0  0  0  0
 30 21  1  1  0  0  0
 31 30  1  0  0  0  0
 32 24  1  0  0  0  0
 33 32  1  0  0  0  0
 34 32  1  0  0  0  0
M  END
>  <MODEL>
5

>  <REMARK>
 VINA RESULT:      -9.0      2.819      4.777
  Name = 
  5 active torsions:
  status: ('A' for Active; 'I' for Inactive)
    1  A    between atoms: C_1  and  C_34
    2  A    between atoms: C_7  and  N_11
    3  A    between atoms: C_17  and  C_18
    4  A    between atoms: C_18  and  C_30
    5  A    between atoms: S_24  and  C_25
                            x       y       z     vdW  Elec       q    Type
                         _______ _______ _______ _____ _____    ______ ____

>  <TORSDO>
F 5

$$$$
=
 OpenBabel11062409293D

 34 38  0  0  1  0  0  0  0  0999 V2000
  160.2590  208.8450  152.8620 C   0  0  1  0  0  3  0  0  0  0  0  0
  159.8570  207.4560  155.5980 O   0  0  0  0  0  0  0  0  0  0  0  0
  161.8180  206.8570  151.4740 C   0  0  0  0  0  3  0  0  0  0  0  0
  160.8300  209.0750  151.5240 N   0  0  0  0  0  0  0  0  0  0  0  0
  161.5440  206.6990  152.7630 C   0  0  0  0  0  0  0  0  0  0  0  0
  161.5790  205.4660  153.4720 N   0  0  0  0  0  0  0  0  0  0  0  0
  161.5150  208.1740  150.8690 C   0  0  0  0  0  0  0  0  0  0  0  0
  160.5490  206.9900  154.6550 C   0  0  0  0  0  0  0  0  0  0  0  0
  160.9490  207.7370  153.5170 N   0  0  0  0  0  0  0  0  0  0  0  0
  160.9930  205.6370  154.5890 N   0  0  0  0  0  0  0  0  0  0  0  0
  161.6980  211.0820  155.5380 C   0  0  0  0  0  3  0  0  0  0  0  0
  160.5130  211.6500  156.2440 C   0  0  0  0  0  2  0  0  0  0  0  0
  159.7830  212.6300  155.3890 C   0  0  0  0  0  0  0  0  0  0  0  0
  159.2090  212.2760  154.2370 C   0  0  0  0  0  3  0  0  0  0  0  0
  161.5980  210.3630  154.4220 C   0  0  0  0  0  3  0  0  0  0  0  0
  159.3270  210.9580  153.5820 C   0  0  0  0  0  3  0  0  0  0  0  0
  160.3420  210.0890  153.6860 C   0  0  0  0  0  0  0  0  0  0  0  0
  160.4500  214.3430  157.2340 O   0  0  0  0  0  1  0  0  0  0  0  0
  157.9760  214.2690  156.6370 O   0  0  0  0  0  1  0  0  0  0  0  0
  159.5560  214.2790  156.0030 S   0  0  0  0  0  3  0  0  0  0  0  0
  161.9820  208.4670  149.4800 C   0  0  0  0  0  2  0  0  0  0  0  0
  162.3290  206.0380  146.4900 C   0  0  0  0  0  2  0  0  0  0  0  0
  161.7050  206.0570  149.2890 O   0  0  0  0  0  0  0  0  0  0  0  0
  161.0530  202.5090  147.1140 C   0  0  0  0  0  0  0  0  0  0  0  0
  161.5500  203.6550  146.4730 C   0  0  0  0  0  3  0  0  0  0  0  0
  161.7620  204.8360  147.1870 C   0  0  0  0  0  0  0  0  0  0  0  0
  161.0020  203.7430  149.2140 C   0  0  0  0  0  3  0  0  0  0  0  0
  161.4990  204.8770  148.5680 C   0  0  0  0  0  0  0  0  0  0  0  0
  160.7810  202.5670  148.4930 C   0  0  0  0  0  3  0  0  0  0  0  0
  162.3300  207.2000  148.7020 C   0  0  1  0  0  3  0  0  0  0  0  0
  161.9610  207.3280  147.2220 C   0  0  0  0  0  2  0  0  0  0  0  0
  160.8300  201.2940  146.3750 N   0  0  0  0  0  0  0  0  0  0  0  0
  160.0800  201.2970  145.1280 C   0  0  0  0  0  1  0  0  0  0  0  0
  161.3460  200.0180  146.8460 C   0  0  0  0  0  1  0  0  0  0  0  0
  1  9  1  0  0  0  0
  1 17  1  1  0  0  0
  3  5  2  0  0  0  0
  4  1  1  0  0  0  0
  5  6  1  0  0  0  0
  5  9  1  0  0  0  0
  6 10  2  0  0  0  0
  7  3  1  0  0  0  0
  7  4  2  0  0  0  0
  8  2  2  0  0  0  0
  9  8  1  0  0  0  0
 10  8  1  0  0  0  0
 11 12  1  0  0  0  0
 13 20  1  0  0  0  0
 13 12  1  0  0  0  0
 14 13  2  0  0  0  0
 15 11  2  0  0  0  0
 16 17  2  0  0  0  0
 16 14  1  0  0  0  0
 17 15  1  0  0  0  0
 20 19  1  0  0  0  0
 20 18  1  0  0  0  0
 21  7  1  0  0  0  0
 22 26  1  0  0  0  0
 22 31  1  0  0  0  0
 24 29  1  0  0  0  0
 25 24  2  0  0  0  0
 25 26  1  0  0  0  0
 26 28  2  0  0  0  0
 28 27  1  0  0  0  0
 28 23  1  0  0  0  0
 29 27  2  0  0  0  0
 30 23  1  0  0  0  0
 30 21  1  1  0  0  0
 31 30  1  0  0  0  0
 32 34  1  0  0  0  0
 32 24  1  0  0  0  0
 33 32  1  0  0  0  0
M  END
>  <MODEL>
6

>  <REMARK>
 VINA RESULT:      -8.7      2.078      3.553
  Name = 
  5 active torsions:
  status: ('A' for Active; 'I' for Inactive)
    1  A    between atoms: C_1  and  C_34
    2  A    between atoms: C_7  and  N_11
    3  A    between atoms: C_17  and  C_18
    4  A    between atoms: C_18  and  C_30
    5  A    between atoms: S_24  and  C_25
                            x       y       z     vdW  Elec       q    Type
                         _______ _______ _______ _____ _____    ______ ____

>  <TORSDO>
F 5

$$$$
=
 OpenBabel11062409293D

 34 38  0  0  1  0  0  0  0  0999 V2000
  159.7860  210.5410  154.3570 C   0  0  1  0  0  3  0  0  0  0  0  0
  160.4580  212.9840  156.1330 O   0  0  0  0  0  0  0  0  0  0  0  0
  161.5990  208.5770  155.4360 C   0  0  0  0  0  3  0  0  0  0  0  0
  159.9530  209.2030  153.7630 N   0  0  0  0  0  0  0  0  0  0  0  0
  161.6700  209.8370  155.8470 C   0  0  0  0  0  0  0  0  0  0  0  0
  162.2680  210.2800  157.0600 N   0  0  0  0  0  0  0  0  0  0  0  0
  160.7490  208.2910  154.2580 C   0  0  0  0  0  0  0  0  0  0  0  0
  161.0540  211.8770  156.1860 C   0  0  0  0  0  0  0  0  0  0  0  0
  160.9310  210.8580  155.2060 N   0  0  0  0  0  0  0  0  0  0  0  0
  161.9050  211.4840  157.2610 N   0  0  0  0  0  0  0  0  0  0  0  0
  158.0090  213.3480  152.5670 C   0  0  0  0  0  3  0  0  0  0  0  0
  158.1220  213.0130  151.1180 C   0  0  0  0  0  2  0  0  0  0  0  0
  159.5210  213.1760  150.6250 C   0  0  0  0  0  0  0  0  0  0  0  0
  160.5300  212.4440  151.1030 C   0  0  0  0  0  3  0  0  0  0  0  0
  158.6530  212.6720  153.5170 C   0  0  0  0  0  3  0  0  0  0  0  0
  160.4560  211.5110  152.2450 C   0  0  0  0  0  3  0  0  0  0  0  0
  159.6140  211.5690  153.2850 C   0  0  0  0  0  0  0  0  0  0  0  0
  158.7240  213.9180  148.2590 O   0  0  0  0  0  1  0  0  0  0  0  0
  161.2420  213.6820  148.5540 O   0  0  0  0  0  1  0  0  0  0  0  0
  159.8120  214.2750  149.2630 S   0  0  0  0  0  3  0  0  0  0  0  0
  160.7890  206.9310  153.6380 C   0  0  0  0  0  2  0  0  0  0  0  0
  161.5640  208.0840  150.0290 C   0  0  0  0  0  2  0  0  0  0  0  0
  161.1890  205.7000  151.5780 O   0  0  0  0  0  0  0  0  0  0  0  0
  161.3930  205.3550  147.3840 C   0  0  0  0  0  0  0  0  0  0  0  0
  161.4910  206.6140  148.0000 C   0  0  0  0  0  3  0  0  0  0  0  0
  161.4180  206.7350  149.3890 C   0  0  0  0  0  0  0  0  0  0  0  0
  161.1650  204.3320  149.5830 C   0  0  0  0  0  3  0  0  0  0  0  0
  161.2680  205.5860  150.1860 C   0  0  0  0  0  0  0  0  0  0  0  0
  161.2280  204.2160  148.1920 C   0  0  0  0  0  3  0  0  0  0  0  0
  161.4160  206.9430  152.2460 C   0  0  1  0  0  3  0  0  0  0  0  0
  160.9070  208.1180  151.4080 C   0  0  0  0  0  2  0  0  0  0  0  0
  161.4620  205.2330  145.9510 N   0  0  0  0  0  0  0  0  0  0  0  0
  162.5410  204.4980  145.3090 C   0  0  0  0  0  1  0  0  0  0  0  0
  160.4560  205.8380  145.0930 C   0  0  0  0  0  1  0  0  0  0  0  0
  1 17  1  6  0  0  0
  1  9  1  0  0  0  0
  2  8  2  0  0  0  0
  3  5  2  0  0  0  0
  4  7  2  0  0  0  0
  4  1  1  0  0  0  0
  5  6  1  0  0  0  0
  6 10  2  0  0  0  0
  7  3  1  0  0  0  0
  8 10  1  0  0  0  0
  9  5  1  0  0  0  0
  9  8  1  0  0  0  0
 11 15  2  0  0  0  0
 12 11  1  0  0  0  0
 13 14  2  0  0  0  0
 13 12  1  0  0  0  0
 14 16  1  0  0  0  0
 16 17  2  0  0  0  0
 17 15  1  0  0  0  0
 18 20  1  0  0  0  0
 19 20  1  0  0  0  0
 20 13  1  0  0  0  0
 21  7  1  0  0  0  0
 22 31  1  0  0  0  0
 23 30  1  0  0  0  0
 24 25  2  0  0  0  0
 24 29  1  0  0  0  0
 25 26  1  0  0  0  0
 26 22  1  0  0  0  0
 26 28  2  0  0  0  0
 27 28  1  0  0  0  0
 28 23  1  0  0  0  0
 29 27  2  0  0  0  0
 30 21  1  1  0  0  0
 31 30  1  0  0  0  0
 32 24  1  0  0  0  0
 33 32  1  0  0  0  0
 34 32  1  0  0  0  0
M  END
>  <MODEL>
7

>  <REMARK>
 VINA RESULT:      -8.7      2.917      4.829
  Name = 
  5 active torsions:
  status: ('A' for Active; 'I' for Inactive)
    1  A    between atoms: C_1  and  C_34
    2  A    between atoms: C_7  and  N_11
    3  A    between atoms: C_17  and  C_18
    4  A    between atoms: C_18  and  C_30
    5  A    between atoms: S_24  and  C_25
                            x       y       z     vdW  Elec       q    Type
                         _______ _______ _______ _____ _____    ______ ____

>  <TORSDO>
F 5

$$$$
=
 OpenBabel11062409293D

 34 38  0  0  1  0  0  0  0  0999 V2000
  160.8390  211.0260  149.5520 C   0  0  1  0  0  3  0  0  0  0  0  0
  159.5330  213.7100  150.3690 O   0  0  0  0  0  0  0  0  0  0  0  0
  161.3540  209.8680  152.1410 C   0  0  0  0  0  3  0  0  0  0  0  0
  161.5820  209.7670  149.7250 N   0  0  0  0  0  0  0  0  0  0  0  0
  160.9090  211.1150  152.0520 C   0  0  0  0  0  0  0  0  0  0  0  0
  160.2620  211.8390  153.0930 N   0  0  0  0  0  0  0  0  0  0  0  0
  161.7990  209.2120  150.8900 C   0  0  0  0  0  0  0  0  0  0  0  0
  159.9990  212.8660  151.1790 C   0  0  0  0  0  0  0  0  0  0  0  0
  160.8270  211.7760  150.8050 N   0  0  0  0  0  0  0  0  0  0  0  0
  159.7260  212.8730  152.5790 N   0  0  0  0  0  0  0  0  0  0  0  0
  163.4550  213.2370  147.9670 C   0  0  0  0  0  3  0  0  0  0  0  0
  162.6830  214.2890  147.2440 C   0  0  0  0  0  2  0  0  0  0  0  0
  161.9900  213.7320  146.0460 C   0  0  0  0  0  0  0  0  0  0  0  0
  161.0480  212.7920  146.1460 C   0  0  0  0  0  3  0  0  0  0  0  0
  162.8790  212.1730  148.5250 C   0  0  0  0  0  3  0  0  0  0  0  0
  160.6660  212.0780  147.3800 C   0  0  0  0  0  3  0  0  0  0  0  0
  161.4380  211.8380  148.4490 C   0  0  0  0  0  0  0  0  0  0  0  0
  161.0680  214.2000  143.6550 O   0  0  0  0  0  1  0  0  0  0  0  0
  163.4830  213.4020  143.7720 O   0  0  0  0  0  1  0  0  0  0  0  0
  162.3350  214.4530  144.4620 S   0  0  0  0  0  3  0  0  0  0  0  0
  162.4870  207.8880  150.9610 C   0  0  0  0  0  2  0  0  0  0  0  0
  160.8820  204.3850  150.6250 C   0  0  0  0  0  2  0  0  0  0  0  0
  161.9740  206.5020  149.0280 O   0  0  0  0  0  0  0  0  0  0  0  0
  161.1060  202.8250  147.1630 C   0  0  0  0  0  0  0  0  0  0  0  0
  160.8780  202.9960  148.5380 C   0  0  0  0  0  3  0  0  0  0  0  0
  161.1690  204.2110  149.1630 C   0  0  0  0  0  0  0  0  0  0  0  0
  161.9090  205.1220  147.0420 C   0  0  0  0  0  3  0  0  0  0  0  0
  161.6750  205.2840  148.4080 C   0  0  0  0  0  0  0  0  0  0  0  0
  161.6260  203.9020  146.4220 C   0  0  0  0  0  3  0  0  0  0  0  0
  161.6340  206.7560  150.3930 C   0  0  1  0  0  3  0  0  0  0  0  0
  161.7520  205.4840  151.2340 C   0  0  0  0  0  2  0  0  0  0  0  0
  160.8100  201.5710  146.5210 N   0  0  0  0  0  0  0  0  0  0  0  0
  160.0960  201.5220  145.2550 C   0  0  0  0  0  1  0  0  0  0  0  0
  161.2160  200.3070  147.1150 C   0  0  0  0  0  1  0  0  0  0  0  0
  1 17  1  6  0  0  0
  1  4  1  0  0  0  0
  1  9  1  0  0  0  0
  2  8  2  0  0  0  0
  4  7  2  0  0  0  0
  5  3  2  0  0  0  0
  5  6  1  0  0  0  0
  7 21  1  0  0  0  0
  7  3  1  0  0  0  0
  8 10  1  0  0  0  0
  9  8  1  0  0  0  0
  9  5  1  0  0  0  0
 10  6  2  0  0  0  0
 11 15  2  0  0  0  0
 12 11  1  0  0  0  0
 13 14  2  0  0  0  0
 13 12  1  0  0  0  0
 14 16  1  0  0  0  0
 16 17  2  0  0  0  0
 17 15  1  0  0  0  0
 18 20  1  0  0  0  0
 19 20  1  0  0  0  0
 20 13  1  0  0  0  0
 22 31  1  0  0  0  0
 23 30  1  0  0  0  0
 24 25  1  0  0  0  0
 25 26  2  0  0  0  0
 26 22  1  0  0  0  0
 27 28  2  0  0  0  0
 28 23  1  0  0  0  0
 28 26  1  0  0  0  0
 29 27  1  0  0  0  0
 29 24  2  0  0  0  0
 30 21  1  1  0  0  0
 30 31  1  0  0  0  0
 32 34  1  0  0  0  0
 32 24  1  0  0  0  0
 33 32  1  0  0  0  0
M  END
>  <MODEL>
8

>  <REMARK>
 VINA RESULT:      -8.2      3.555      5.514
  Name = 
  5 active torsions:
  status: ('A' for Active; 'I' for Inactive)
    1  A    between atoms: C_1  and  C_34
    2  A    between atoms: C_7  and  N_11
    3  A    between atoms: C_17  and  C_18
    4  A    between atoms: C_18  and  C_30
    5  A    between atoms: S_24  and  C_25
                            x       y       z     vdW  Elec       q    Type
                         _______ _______ _______ _____ _____    ______ ____

>  <TORSDO>
F 5

$$$$
=
 OpenBabel11062409293D

 34 38  0  0  1  0  0  0  0  0999 V2000
  161.2050  211.3250  152.1860 C   0  0  1  0  0  3  0  0  0  0  0  0
  160.1180  213.9940  151.0590 O   0  0  0  0  0  0  0  0  0  0  0  0
  162.0010  209.9980  149.7540 C   0  0  0  0  0  3  0  0  0  0  0  0
  161.6870  209.9330  152.1610 N   0  0  0  0  0  0  0  0  0  0  0  0
  161.3440  211.1500  149.6930 C   0  0  0  0  0  0  0  0  0  0  0  0
  161.3240  212.0340  148.5780 N   0  0  0  0  0  0  0  0  0  0  0  0
  162.0800  209.3270  151.0710 C   0  0  0  0  0  0  0  0  0  0  0  0
  160.5310  213.0360  150.3540 C   0  0  0  0  0  0  0  0  0  0  0  0
  160.7740  211.7290  150.8510 N   0  0  0  0  0  0  0  0  0  0  0  0
  160.8430  213.1470  148.9680 N   0  0  0  0  0  0  0  0  0  0  0  0
  159.7300  211.7190  155.6370 C   0  0  0  0  0  3  0  0  0  0  0  0
  158.5600  210.7950  155.6640 C   0  0  0  0  0  2  0  0  0  0  0  0
  157.4500  211.2930  154.8000 C   0  0  0  0  0  0  0  0  0  0  0  0
  157.5900  211.4400  153.4810 C   0  0  0  0  0  3  0  0  0  0  0  0
  160.4200  211.9800  154.5280 C   0  0  0  0  0  3  0  0  0  0  0  0
  158.8470  211.2860  152.7220 C   0  0  0  0  0  3  0  0  0  0  0  0
  160.0940  211.4740  153.1750 C   0  0  0  0  0  0  0  0  0  0  0  0
  156.1510  211.6190  157.0340 O   0  0  0  0  0  1  0  0  0  0  0  0
  155.0570  210.0700  155.3360 O   0  0  0  0  0  1  0  0  0  0  0  0
  155.8590  211.5570  155.5410 S   0  0  0  0  0  3  0  0  0  0  0  0
  162.6350  207.9420  151.1550 C   0  0  0  0  0  2  0  0  0  0  0  0
  160.7080  204.6400  150.5730 C   0  0  0  0  0  2  0  0  0  0  0  0
  162.2190  206.6210  149.1540 O   0  0  0  0  0  0  0  0  0  0  0  0
  161.1920  203.0650  147.1430 C   0  0  0  0  0  0  0  0  0  0  0  0
  160.8120  203.2600  148.4820 C   0  0  0  0  0  3  0  0  0  0  0  0
  161.1550  204.4340  149.1560 C   0  0  0  0  0  0  0  0  0  0  0  0
  162.2520  205.2570  147.1560 C   0  0  0  0  0  3  0  0  0  0  0  0
  161.8680  205.4450  148.4850 C   0  0  0  0  0  0  0  0  0  0  0  0
  161.9160  204.0770  146.4890 C   0  0  0  0  0  3  0  0  0  0  0  0
  161.7410  206.9120  150.4690 C   0  0  1  0  0  3  0  0  0  0  0  0
  161.6100  205.6340  151.3010 C   0  0  0  0  0  2  0  0  0  0  0  0
  160.8420  201.8510  146.4530 N   0  0  0  0  0  0  0  0  0  0  0  0
  161.1860  200.5470  146.9980 C   0  0  0  0  0  1  0  0  0  0  0  0
  160.1300  201.8830  145.1850 C   0  0  0  0  0  1  0  0  0  0  0  0
  1 17  1  1  0  0  0
  3  7  1  0  0  0  0
  4  1  1  0  0  0  0
  5  3  2  0  0  0  0
  5  9  1  0  0  0  0
  6 10  2  0  0  0  0
  6  5  1  0  0  0  0
  7 21  1  0  0  0  0
  7  4  2  0  0  0  0
  8  9  1  0  0  0  0
  8  2  2  0  0  0  0
  9  1  1  0  0  0  0
 10  8  1  0  0  0  0
 11 12  1  0  0  0  0
 13 20  1  0  0  0  0
 13 12  1  0  0  0  0
 14 13  2  0  0  0  0
 15 11  2  0  0  0  0
 16 17  2  0  0  0  0
 16 14  1  0  0  0  0
 17 15  1  0  0  0  0
 19 20  1  0  0  0  0
 20 18  1  0  0  0  0
 22 31  1  0  0  0  0
 23 30  1  0  0  0  0
 24 25  1  0  0  0  0
 25 26  2  0  0  0  0
 26 22  1  0  0  0  0
 27 28  2  0  0  0  0
 28 23  1  0  0  0  0
 28 26  1  0  0  0  0
 29 24  2  0  0  0  0
 29 27  1  0  0  0  0
 30 21  1  1  0  0  0
 30 31  1  0  0  0  0
 32 33  1  0  0  0  0
 32 24  1  0  0  0  0
 34 32  1  0  0  0  0
M  END
>  <MODEL>
9

>  <REMARK>
 VINA RESULT:      -8.2      1.774      2.345
  Name = 
  5 active torsions:
  status: ('A' for Active; 'I' for Inactive)
    1  A    between atoms: C_1  and  C_34
    2  A    between atoms: C_7  and  N_11
    3  A    between atoms: C_17  and  C_18
    4  A    between atoms: C_18  and  C_30
    5  A    between atoms: S_24  and  C_25
                            x       y       z     vdW  Elec       q    Type
                         _______ _______ _______ _____ _____    ______ ____

>  <TORSDO>
F 5

$$$$
