=
 OpenBabel11062410023D

 43 49  0  0  1  0  0  0  0  0999 V2000
  160.4830  208.4070  155.0920 C   0  0  0  0  0  0  0  0  0  0  0  0
  161.6530  208.2420  150.1730 C   0  0  2  0  0  3  0  0  0  0  0  0
  161.5970  210.7040  149.1380 N   0  0  0  0  0  0  0  0  0  0  0  0
  161.3270  207.6920  152.9370 C   0  0  0  0  0  0  0  0  0  0  0  0
  160.5960  209.7430  154.6970 C   0  0  0  0  0  3  0  0  0  0  0  0
  159.9870  208.0880  156.3870 N   0  0  0  0  0  1  0  0  0  0  0  0
  161.4330  209.0410  152.5290 C   0  0  0  0  0  0  0  0  0  0  0  0
  160.8570  207.3820  154.2170 C   0  0  0  0  0  3  0  0  0  0  0  0
  161.0820  210.0600  153.4240 C   0  0  0  0  0  3  0  0  0  0  0  0
  161.6900  210.7250  150.6110 C   0  0  0  0  0  2  0  0  0  0  0  0
  162.0380  209.3370  151.1790 C   0  0  2  0  0  3  0  0  0  0  0  0
  161.9370  206.8710  150.7170 C   0  0  0  0  0  3  0  0  0  0  0  0
  162.3140  208.4920  148.8130 C   0  0  2  0  0  3  0  0  0  0  0  0
  162.6610  209.9140  148.6480 N   0  0  0  0  0  2  0  0  0  0  0  0
  161.7320  206.6130  152.0140 C   0  0  0  0  0  3  0  0  0  0  0  0
  161.7750  212.0690  148.6290 C   0  0  2  0  0  3  0  0  0  0  0  0
  161.0300  213.0660  149.5080 C   0  0  0  0  0  1  0  0  0  0  0  0
  161.2180  212.1820  147.2150 C   0  0  0  0  0  2  0  0  0  0  0  0
  159.7110  213.4530  145.9310 C   0  0  0  0  0  2  0  0  0  0  0  0
  160.3460  213.7540  144.5910 C   0  0  1  0  0  3  0  0  0  0  0  0
  163.8950  213.5530  144.2900 O   0  0  0  0  0  0  0  0  0  0  0  0
  160.7300  213.5310  146.9710 N   0  0  0  0  0  0  0  0  0  0  0  0
  161.7030  214.3670  144.9090 C   0  0  1  0  0  3  0  0  0  0  0  0
  161.8430  214.2980  146.4200 C   0  0  0  0  0  2  0  0  0  0  0  0
  160.6130  212.4420  143.8300 C   0  0  2  0  0  3  0  0  0  0  0  0
  162.0150  212.3660  143.6570 O   0  0  0  0  0  0  0  0  0  0  0  0
  162.6440  213.4250  144.2680 C   0  0  0  0  0  0  0  0  0  0  0  0
  158.9080  213.4610  142.1760 C   0  0  0  0  0  3  0  0  0  0  0  0
  159.9250  212.4430  142.5020 C   0  0  0  0  0  0  0  0  0  0  0  0
  160.1430  210.6330  139.2750 C   0  0  0  0  0  1  0  0  0  0  0  0
  158.4350  212.3050  140.0350 C   0  0  0  0  0  2  0  0  0  0  0  0
  159.6740  211.5630  140.2860 N   0  0  0  0  0  0  0  0  0  0  0  0
  158.2380  213.4220  141.0230 C   0  0  0  0  0  3  0  0  0  0  0  0
  160.2960  211.5600  141.5760 C   0  0  0  0  0  3  0  0  0  0  0  0
  161.3700  208.0500  147.6990 C   0  0  0  0  0  2  0  0  0  0  0  0
  162.4270  204.8500  146.0000 N   0  0  0  0  0  2  0  0  0  0  0  0
  161.1260  204.9230  144.8590 S   0  0  0  0  0  0  0  0  0  0  0  0
  161.6220  205.4610  143.5480 O   0  0  0  0  0  0  0  0  0  0  0  0
  160.0380  206.0190  147.0450 C   0  0  0  0  0  2  0  0  0  0  0  0
  162.5710  206.1880  146.5610 C   0  0  0  0  0  2  0  0  0  0  0  0
  161.4120  206.5410  147.5070 C   0  0  1  0  0  3  0  0  0  0  0  0
  160.5540  203.5490  144.6590 O   0  0  0  0  0  0  0  0  0  0  0  0
  159.8820  206.0060  145.5290 C   0  0  0  0  0  2  0  0  0  0  0  0
  1  6  1  0  0  0  0
  2 12  1  1  0  0  0
  2 11  1  0  0  0  0
  3 10  1  0  0  0  0
  4  8  1  0  0  0  0
  5  1  1  0  0  0  0
  7  4  2  0  0  0  0
  7  9  1  0  0  0  0
  8  1  2  0  0  0  0
  9  5  2  0  0  0  0
 11 10  1  6  0  0  0
 11  7  1  0  0  0  0
 12 15  2  0  0  0  0
 13 35  1  6  0  0  0
 13  2  1  0  0  0  0
 14 13  1  0  0  0  0
 14  3  1  0  0  0  0
 15  4  1  0  0  0  0
 16  3  1  0  0  0  0
 16 17  1  1  0  0  0
 18 16  1  0  0  0  0
 19 22  1  0  0  0  0
 20 23  1  0  0  0  0
 20 19  1  1  0  0  0
 22 18  1  0  0  0  0
 23 24  1  1  0  0  0
 24 22  1  0  0  0  0
 25 29  1  6  0  0  0
 25 20  1  0  0  0  0
 26 25  1  0  0  0  0
 26 27  1  0  0  0  0
 27 21  2  0  0  0  0
 27 23  1  0  0  0  0
 28 29  1  0  0  0  0
 30 32  1  0  0  0  0
 31 32  1  0  0  0  0
 31 33  1  0  0  0  0
 32 34  1  0  0  0  0
 33 28  2  0  0  0  0
 34 29  2  0  0  0  0
 36 40  1  0  0  0  0
 37 43  1  0  0  0  0
 37 36  1  0  0  0  0
 38 37  2  0  0  0  0
 39 41  1  0  0  0  0
 40 41  1  0  0  0  0
 41 35  1  6  0  0  0
 42 37  2  0  0  0  0
 43 39  1  0  0  0  0
M  END
>  <MODEL>
1

>  <REMARK>
 VINA RESULT:      -8.6      0.000      0.000
  Name = 
  6 active torsions:
  status: ('A' for Active; 'I' for Inactive)
    1  A    between atoms: C_1  and  C_34
    2  A    between atoms: C_1  and  C_35
    3  A    between atoms: C_2  and  C_6
    4  A    between atoms: C_2  and  N_13
    5  A    between atoms: C_6  and  N_12
    6  A    between atoms: C_14  and  C_22
                            x       y       z     vdW  Elec       q    Type
                         _______ _______ _______ _____ _____    ______ ____

>  <TORSDO>
F 6

$$$$
=
 OpenBabel11062410023D

 43 49  0  0  1  0  0  0  0  0999 V2000
  154.6410  213.8150  156.3270 C   0  0  0  0  0  0  0  0  0  0  0  0
  157.9720  213.1640  152.5760 C   0  0  2  0  0  3  0  0  0  0  0  0
  159.6820  211.2090  153.2030 N   0  0  0  0  0  0  0  0  0  0  0  0
  155.7170  213.8450  154.1580 C   0  0  0  0  0  0  0  0  0  0  0  0
  155.3660  212.6710  156.6750 C   0  0  0  0  0  3  0  0  0  0  0  0
  153.7300  214.3890  157.2570 N   0  0  0  0  0  1  0  0  0  0  0  0
  156.4610  212.6950  154.5090 C   0  0  0  0  0  0  0  0  0  0  0  0
  154.8090  214.3970  155.0660 C   0  0  0  0  0  3  0  0  0  0  0  0
  156.2630  212.1060  155.7640 C   0  0  0  0  0  3  0  0  0  0  0  0
  158.4600  211.1620  154.0300 C   0  0  0  0  0  2  0  0  0  0  0  0
  157.3560  212.0740  153.4650 C   0  0  2  0  0  3  0  0  0  0  0  0
  156.9230  214.1000  152.0470 C   0  0  0  0  0  3  0  0  0  0  0  0
  158.8320  212.5440  151.4680 C   0  0  2  0  0  3  0  0  0  0  0  0
  159.2880  211.1960  151.8460 N   0  0  0  0  0  2  0  0  0  0  0  0
  155.8910  214.4510  152.8220 C   0  0  0  0  0  3  0  0  0  0  0  0
  160.4760  210.0020  153.4550 C   0  0  2  0  0  3  0  0  0  0  0  0
  161.8580  210.3740  153.9800 C   0  0  0  0  0  1  0  0  0  0  0  0
  160.6620  209.2120  152.1640 C   0  0  0  0  0  2  0  0  0  0  0  0
  162.2260  208.5440  150.5400 C   0  0  0  0  0  2  0  0  0  0  0  0
  162.2320  207.0330  150.4600 C   0  0  1  0  0  3  0  0  0  0  0  0
  160.9720  205.1650  153.2260 O   0  0  0  0  0  0  0  0  0  0  0  0
  162.0740  208.9490  151.9330 N   0  0  0  0  0  0  0  0  0  0  0  0
  162.4380  206.5480  151.8880 C   0  0  1  0  0  3  0  0  0  0  0  0
  162.4380  207.7970  152.7530 C   0  0  0  0  0  2  0  0  0  0  0  0
  160.8490  206.5270  150.0090 C   0  0  2  0  0  3  0  0  0  0  0  0
  160.3510  205.7420  151.0750 O   0  0  0  0  0  0  0  0  0  0  0  0
  161.2170  205.7550  152.1420 C   0  0  0  0  0  0  0  0  0  0  0  0
  161.2690  204.2630  148.8350 C   0  0  0  0  0  3  0  0  0  0  0  0
  160.9580  205.7040  148.7650 C   0  0  0  0  0  0  0  0  0  0  0  0
  160.4020  206.1100  145.1240 C   0  0  0  0  0  1  0  0  0  0  0  0
  161.3980  204.1700  146.3620 C   0  0  0  0  0  2  0  0  0  0  0  0
  160.7600  205.4880  146.3860 N   0  0  0  0  0  0  0  0  0  0  0  0
  161.4420  203.5400  147.7270 C   0  0  0  0  0  3  0  0  0  0  0  0
  160.6930  206.2660  147.5870 C   0  0  0  0  0  3  0  0  0  0  0  0
  160.0310  213.4460  151.1920 C   0  0  0  0  0  2  0  0  0  0  0  0
  158.8640  213.9550  147.6390 N   0  0  0  0  0  2  0  0  0  0  0  0
  160.3100  213.2720  146.9730 S   0  0  0  0  0  0  0  0  0  0  0  0
  160.0630  211.8500  146.5610 O   0  0  0  0  0  0  0  0  0  0  0  0
  161.2030  214.4490  149.2050 C   0  0  0  0  0  2  0  0  0  0  0  0
  158.7960  213.5240  149.0310 C   0  0  0  0  0  2  0  0  0  0  0  0
  159.8470  214.2310  149.9020 C   0  0  1  0  0  3  0  0  0  0  0  0
  160.7460  214.0770  145.7830 O   0  0  0  0  0  0  0  0  0  0  0  0
  161.5640  213.3290  148.2360 C   0  0  0  0  0  2  0  0  0  0  0  0
  1  5  1  0  0  0  0
  1  6  1  0  0  0  0
  2 12  1  6  0  0  0
  2 11  1  0  0  0  0
  3 16  1  0  0  0  0
  3 10  1  0  0  0  0
  4  7  2  0  0  0  0
  4  8  1  0  0  0  0
  7  9  1  0  0  0  0
  8  1  2  0  0  0  0
  9  5  2  0  0  0  0
 11 10  1  1  0  0  0
 11  7  1  0  0  0  0
 12 15  2  0  0  0  0
 13 35  1  1  0  0  0
 13 14  1  0  0  0  0
 13  2  1  0  0  0  0
 14  3  1  0  0  0  0
 15  4  1  0  0  0  0
 16 17  1  6  0  0  0
 18 16  1  0  0  0  0
 19 22  1  0  0  0  0
 20 19  1  1  0  0  0
 20 23  1  0  0  0  0
 22 18  1  0  0  0  0
 22 24  1  0  0  0  0
 23 27  1  0  0  0  0
 23 24  1  1  0  0  0
 25 29  1  6  0  0  0
 25 20  1  0  0  0  0
 25 26  1  0  0  0  0
 26 27  1  0  0  0  0
 27 21  2  0  0  0  0
 29 28  1  0  0  0  0
 30 32  1  0  0  0  0
 31 32  1  0  0  0  0
 31 33  1  0  0  0  0
 32 34  1  0  0  0  0
 33 28  2  0  0  0  0
 34 29  2  0  0  0  0
 36 40  1  0  0  0  0
 37 36  1  0  0  0  0
 37 43  1  0  0  0  0
 38 37  2  0  0  0  0
 39 41  1  0  0  0  0
 40 41  1  0  0  0  0
 41 35  1  1  0  0  0
 42 37  2  0  0  0  0
 43 39  1  0  0  0  0
M  END
>  <MODEL>
2

>  <REMARK>
 VINA RESULT:      -7.5      4.193      8.408
  Name = 
  6 active torsions:
  status: ('A' for Active; 'I' for Inactive)
    1  A    between atoms: C_1  and  C_34
    2  A    between atoms: C_1  and  C_35
    3  A    between atoms: C_2  and  C_6
    4  A    between atoms: C_2  and  N_13
    5  A    between atoms: C_6  and  N_12
    6  A    between atoms: C_14  and  C_22
                            x       y       z     vdW  Elec       q    Type
                         _______ _______ _______ _____ _____    ______ ____

>  <TORSDO>
F 6

$$$$
=
 OpenBabel11062410023D

 43 49  0  0  1  0  0  0  0  0999 V2000
  161.8180  204.4970  147.1480 C   0  0  0  0  0  0  0  0  0  0  0  0
  161.6440  208.2380  150.5490 C   0  0  2  0  0  3  0  0  0  0  0  0
  162.1410  210.5780  149.3590 N   0  0  0  0  0  0  0  0  0  0  0  0
  161.3560  205.7910  149.1420 C   0  0  0  0  0  0  0  0  0  0  0  0
  161.9150  205.6760  146.4020 C   0  0  0  0  0  3  0  0  0  0  0  0
  162.0130  203.2380  146.5150 N   0  0  0  0  0  1  0  0  0  0  0  0
  161.4640  206.9850  148.3950 C   0  0  0  0  0  0  0  0  0  0  0  0
  161.5300  204.5530  148.5150 C   0  0  0  0  0  3  0  0  0  0  0  0
  161.7260  206.9150  147.0210 C   0  0  0  0  0  3  0  0  0  0  0  0
  161.7590  209.5340  148.3880 C   0  0  0  0  0  2  0  0  0  0  0  0
  161.1730  208.2940  149.0880 C   0  0  2  0  0  3  0  0  0  0  0  0
  161.1260  207.0130  151.2470 C   0  0  0  0  0  3  0  0  0  0  0  0
  161.2940  209.5360  151.2860 C   0  0  2  0  0  3  0  0  0  0  0  0
  161.1260  210.6510  150.3390 N   0  0  0  0  0  2  0  0  0  0  0  0
  161.0420  205.8540  150.5850 C   0  0  0  0  0  3  0  0  0  0  0  0
  162.2000  211.8710  148.6700 C   0  0  2  0  0  3  0  0  0  0  0  0
  161.5170  212.9500  149.5020 C   0  0  0  0  0  1  0  0  0  0  0  0
  161.4800  211.7890  147.3280 C   0  0  0  0  0  2  0  0  0  0  0  0
  159.6150  212.5360  146.1050 C   0  0  0  0  0  2  0  0  0  0  0  0
  160.1000  213.2310  144.8520 C   0  0  1  0  0  3  0  0  0  0  0  0
  163.4500  214.4530  144.7540 O   0  0  0  0  0  0  0  0  0  0  0  0
  160.5080  212.8650  147.2100 N   0  0  0  0  0  0  0  0  0  0  0  0
  161.1050  214.2720  145.3230 C   0  0  1  0  0  3  0  0  0  0  0  0
  161.2410  214.0660  146.8220 C   0  0  0  0  0  2  0  0  0  0  0  0
  160.8680  212.2330  143.9640 C   0  0  2  0  0  3  0  0  0  0  0  0
  162.1910  212.7270  143.8730 O   0  0  0  0  0  0  0  0  0  0  0  0
  162.3480  213.8570  144.6390 C   0  0  0  0  0  0  0  0  0  0  0  0
  159.1570  213.0460  142.2060 C   0  0  0  0  0  3  0  0  0  0  0  0
  160.2530  212.1420  142.6040 C   0  0  0  0  0  0  0  0  0  0  0  0
  160.8160  210.3080  139.4330 C   0  0  0  0  0  1  0  0  0  0  0  0
  158.9130  211.8120  140.0700 C   0  0  0  0  0  2  0  0  0  0  0  0
  160.2050  211.2030  140.3990 N   0  0  0  0  0  0  0  0  0  0  0  0
  158.5540  212.9200  141.0220 C   0  0  0  0  0  3  0  0  0  0  0  0
  160.7570  211.2850  141.7180 C   0  0  0  0  0  3  0  0  0  0  0  0
  162.3950  209.8620  152.2900 C   0  0  0  0  0  2  0  0  0  0  0  0
  162.1850  210.5660  155.9920 N   0  0  0  0  0  2  0  0  0  0  0  0
  161.1400  209.2150  156.2790 S   0  0  0  0  0  0  0  0  0  0  0  0
  161.9310  208.0610  156.8220 O   0  0  0  0  0  0  0  0  0  0  0  0
  160.4080  210.0000  153.8260 C   0  0  0  0  0  2  0  0  0  0  0  0
  162.8180  210.3430  154.6970 C   0  0  0  0  0  2  0  0  0  0  0  0
  161.8270  210.5250  153.5360 C   0  0  1  0  0  3  0  0  0  0  0  0
  160.0720  209.6040  157.2600 O   0  0  0  0  0  0  0  0  0  0  0  0
  160.4000  208.7670  154.7230 C   0  0  0  0  0  2  0  0  0  0  0  0
  1  8  1  0  0  0  0
  2 12  1  1  0  0  0
  2 13  1  0  0  0  0
  3 14  1  0  0  0  0
  4 15  1  0  0  0  0
  5  9  1  0  0  0  0
  5  1  2  0  0  0  0
  6  1  1  0  0  0  0
  7 11  1  0  0  0  0
  7  4  1  0  0  0  0
  8  4  2  0  0  0  0
  9  7  2  0  0  0  0
 10  3  1  0  0  0  0
 11 10  1  6  0  0  0
 11  2  1  0  0  0  0
 13 35  1  1  0  0  0
 14 13  1  0  0  0  0
 15 12  2  0  0  0  0
 16  3  1  0  0  0  0
 16 17  1  1  0  0  0
 18 16  1  0  0  0  0
 19 22  1  0  0  0  0
 20 23  1  0  0  0  0
 20 19  1  1  0  0  0
 22 18  1  0  0  0  0
 23 24  1  1  0  0  0
 24 22  1  0  0  0  0
 25 29  1  6  0  0  0
 25 20  1  0  0  0  0
 26 25  1  0  0  0  0
 26 27  1  0  0  0  0
 27 21  2  0  0  0  0
 27 23  1  0  0  0  0
 28 29  1  0  0  0  0
 30 32  1  0  0  0  0
 31 32  1  0  0  0  0
 31 33  1  0  0  0  0
 32 34  1  0  0  0  0
 33 28  2  0  0  0  0
 34 29  2  0  0  0  0
 36 37  1  0  0  0  0
 37 38  2  0  0  0  0
 37 42  2  0  0  0  0
 39 43  1  0  0  0  0
 40 36  1  0  0  0  0
 41 35  1  6  0  0  0
 41 39  1  0  0  0  0
 41 40  1  0  0  0  0
 43 37  1  0  0  0  0
M  END
>  <MODEL>
3

>  <REMARK>
 VINA RESULT:      -7.4      3.634      5.785
  Name = 
  6 active torsions:
  status: ('A' for Active; 'I' for Inactive)
    1  A    between atoms: C_1  and  C_34
    2  A    between atoms: C_1  and  C_35
    3  A    between atoms: C_2  and  C_6
    4  A    between atoms: C_2  and  N_13
    5  A    between atoms: C_6  and  N_12
    6  A    between atoms: C_14  and  C_22
                            x       y       z     vdW  Elec       q    Type
                         _______ _______ _______ _____ _____    ______ ____

>  <TORSDO>
F 6

$$$$
=
 OpenBabel11062410023D

 43 49  0  0  1  0  0  0  0  0999 V2000
  161.6900  204.4280  146.9950 C   0  0  0  0  0  0  0  0  0  0  0  0
  161.5960  207.9250  150.6490 C   0  0  2  0  0  3  0  0  0  0  0  0
  162.0280  210.3460  149.6070 N   0  0  0  0  0  0  0  0  0  0  0  0
  161.2850  205.5760  149.0880 C   0  0  0  0  0  0  0  0  0  0  0  0
  161.7490  205.6560  146.3290 C   0  0  0  0  0  3  0  0  0  0  0  0
  161.8750  203.2170  146.2700 N   0  0  0  0  0  1  0  0  0  0  0  0
  161.3550  206.8200  148.4220 C   0  0  0  0  0  0  0  0  0  0  0  0
  161.4490  204.3860  148.3720 C   0  0  0  0  0  3  0  0  0  0  0  0
  161.5690  206.8480  147.0380 C   0  0  0  0  0  3  0  0  0  0  0  0
  161.6230  209.3660  148.5800 C   0  0  0  0  0  2  0  0  0  0  0  0
  161.0740  208.0740  149.2130 C   0  0  2  0  0  3  0  0  0  0  0  0
  161.1160  206.6480  151.2790 C   0  0  0  0  0  3  0  0  0  0  0  0
  161.2600  209.1650  151.4850 C   0  0  2  0  0  3  0  0  0  0  0  0
  161.0470  210.3400  150.6240 N   0  0  0  0  0  2  0  0  0  0  0  0
  161.0210  205.5360  150.5410 C   0  0  0  0  0  3  0  0  0  0  0  0
  162.0500  211.6850  149.0070 C   0  0  2  0  0  3  0  0  0  0  0  0
  161.3270  212.6820  149.9050 C   0  0  0  0  0  1  0  0  0  0  0  0
  161.3410  211.6700  147.6570 C   0  0  0  0  0  2  0  0  0  0  0  0
  159.5010  212.4960  146.4460 C   0  0  0  0  0  2  0  0  0  0  0  0
  160.0120  213.2520  145.2390 C   0  0  1  0  0  3  0  0  0  0  0  0
  163.3710  214.4530  145.2610 O   0  0  0  0  0  0  0  0  0  0  0  0
  160.3780  212.7590  147.5810 N   0  0  0  0  0  0  0  0  0  0  0  0
  161.0160  214.2590  145.7810 C   0  0  1  0  0  3  0  0  0  0  0  0
  161.1260  213.9730  147.2690 C   0  0  0  0  0  2  0  0  0  0  0  0
  160.7870  212.2980  144.3120 C   0  0  2  0  0  3  0  0  0  0  0  0
  162.1140  212.7850  144.2680 O   0  0  0  0  0  0  0  0  0  0  0  0
  162.2670  213.8720  145.0960 C   0  0  0  0  0  0  0  0  0  0  0  0
  159.1610  213.2640  142.5500 C   0  0  0  0  0  3  0  0  0  0  0  0
  160.1940  212.2840  142.9390 C   0  0  0  0  0  0  0  0  0  0  0  0
  160.7080  210.5130  139.7240 C   0  0  0  0  0  1  0  0  0  0  0  0
  158.8860  212.1100  140.3740 C   0  0  0  0  0  2  0  0  0  0  0  0
  160.1320  211.4150  140.7060 N   0  0  0  0  0  0  0  0  0  0  0  0
  158.5750  213.2090  141.3520 C   0  0  0  0  0  3  0  0  0  0  0  0
  160.6630  211.4240  142.0360 C   0  0  0  0  0  3  0  0  0  0  0  0
  162.3910  209.4350  152.4710 C   0  0  0  0  0  2  0  0  0  0  0  0
  159.8140  208.9720  155.1890 N   0  0  0  0  0  2  0  0  0  0  0  0
  159.4910  210.6700  155.2940 S   0  0  0  0  0  0  0  0  0  0  0  0
  158.2350  211.0000  154.5390 O   0  0  0  0  0  0  0  0  0  0  0  0
  162.0930  210.6160  154.6720 C   0  0  0  0  0  2  0  0  0  0  0  0
  160.4790  208.7460  153.9110 C   0  0  0  0  0  2  0  0  0  0  0  0
  161.9170  209.2890  153.9100 C   0  0  1  0  0  3  0  0  0  0  0  0
  159.3350  211.0660  156.7340 O   0  0  0  0  0  0  0  0  0  0  0  0
  160.8750  211.5270  154.5750 C   0  0  0  0  0  2  0  0  0  0  0  0
  1  8  1  0  0  0  0
  2 12  1  1  0  0  0
  2 13  1  0  0  0  0
  3 14  1  0  0  0  0
  4 15  1  0  0  0  0
  5  1  2  0  0  0  0
  5  9  1  0  0  0  0
  6  1  1  0  0  0  0
  7  4  1  0  0  0  0
  7 11  1  0  0  0  0
  8  4  2  0  0  0  0
  9  7  2  0  0  0  0
 10  3  1  0  0  0  0
 11 10  1  6  0  0  0
 11  2  1  0  0  0  0
 13 35  1  1  0  0  0
 14 13  1  0  0  0  0
 15 12  2  0  0  0  0
 16  3  1  0  0  0  0
 16 17  1  1  0  0  0
 18 16  1  0  0  0  0
 19 22  1  0  0  0  0
 20 23  1  0  0  0  0
 20 19  1  1  0  0  0
 22 18  1  0  0  0  0
 23 24  1  1  0  0  0
 24 22  1  0  0  0  0
 25 29  1  6  0  0  0
 25 20  1  0  0  0  0
 26 25  1  0  0  0  0
 26 27  1  0  0  0  0
 27 21  2  0  0  0  0
 27 23  1  0  0  0  0
 28 29  1  0  0  0  0
 30 32  1  0  0  0  0
 31 32  1  0  0  0  0
 31 33  1  0  0  0  0
 32 34  1  0  0  0  0
 33 28  2  0  0  0  0
 34 29  2  0  0  0  0
 36 37  1  0  0  0  0
 37 42  2  0  0  0  0
 38 37  2  0  0  0  0
 40 36  1  0  0  0  0
 41 35  1  6  0  0  0
 41 40  1  0  0  0  0
 41 39  1  0  0  0  0
 43 39  1  0  0  0  0
 43 37  1  0  0  0  0
M  END
>  <MODEL>
4

>  <REMARK>
 VINA RESULT:      -7.0      3.453      5.785
  Name = 
  6 active torsions:
  status: ('A' for Active; 'I' for Inactive)
    1  A    between atoms: C_1  and  C_34
    2  A    between atoms: C_1  and  C_35
    3  A    between atoms: C_2  and  C_6
    4  A    between atoms: C_2  and  N_13
    5  A    between atoms: C_6  and  N_12
    6  A    between atoms: C_14  and  C_22
                            x       y       z     vdW  Elec       q    Type
                         _______ _______ _______ _____ _____    ______ ____

>  <TORSDO>
F 6

$$$$
=
 OpenBabel11062410023D

 43 49  0  0  1  0  0  0  0  0999 V2000
  159.1580  211.2140  154.9780 C   0  0  0  0  0  0  0  0  0  0  0  0
  161.3360  209.3190  150.8240 C   0  0  2  0  0  3  0  0  0  0  0  0
  161.4930  211.2020  148.9360 N   0  0  0  0  0  0  0  0  0  0  0  0
  160.4380  209.8180  153.4690 C   0  0  0  0  0  0  0  0  0  0  0  0
  159.3490  212.3110  154.1310 C   0  0  0  0  0  3  0  0  0  0  0  0
  158.4020  211.3640  156.1750 N   0  0  0  0  0  1  0  0  0  0  0  0
  160.6240  210.9200  152.6040 C   0  0  0  0  0  0  0  0  0  0  0  0
  159.7100  209.9710  154.6530 C   0  0  0  0  0  3  0  0  0  0  0  0
  160.0910  212.1670  152.9550 C   0  0  0  0  0  3  0  0  0  0  0  0
  161.2740  211.7800  150.2760 C   0  0  0  0  0  2  0  0  0  0  0  0
  161.4980  210.7380  151.3880 C   0  0  2  0  0  3  0  0  0  0  0  0
  161.5020  208.2790  151.8950 C   0  0  0  0  0  3  0  0  0  0  0  0
  162.2670  209.0960  149.6270 C   0  0  2  0  0  3  0  0  0  0  0  0
  162.6380  210.3760  149.0010 N   0  0  0  0  0  2  0  0  0  0  0  0
  161.0300  208.5090  153.1260 C   0  0  0  0  0  3  0  0  0  0  0  0
  161.7710  212.2870  147.9880 C   0  0  2  0  0  3  0  0  0  0  0  0
  161.5600  213.6420  148.6530 C   0  0  0  0  0  1  0  0  0  0  0  0
  160.8290  212.1990  146.7930 C   0  0  0  0  0  2  0  0  0  0  0  0
  159.4400  213.3720  145.3010 C   0  0  0  0  0  2  0  0  0  0  0  0
  160.1990  213.6120  144.0140 C   0  0  1  0  0  3  0  0  0  0  0  0
  163.7620  213.4560  144.0690 O   0  0  0  0  0  0  0  0  0  0  0  0
  160.3510  213.5240  146.4290 N   0  0  0  0  0  0  0  0  0  0  0  0
  161.5100  214.2650  144.4270 C   0  0  1  0  0  3  0  0  0  0  0  0
  161.5030  214.2800  145.9450 C   0  0  0  0  0  2  0  0  0  0  0  0
  160.5540  212.2650  143.3560 C   0  0  2  0  0  3  0  0  0  0  0  0
  161.9670  212.2040  143.3240 O   0  0  0  0  0  0  0  0  0  0  0  0
  162.5200  213.3050  143.9330 C   0  0  0  0  0  0  0  0  0  0  0  0
  160.5230  211.1970  141.0020 C   0  0  0  0  0  3  0  0  0  0  0  0
  160.0000  212.1810  141.9700 C   0  0  0  0  0  0  0  0  0  0  0  0
  157.2340  213.6720  140.0040 C   0  0  0  0  0  1  0  0  0  0  0  0
  159.0920  212.1760  139.2310 C   0  0  0  0  0  2  0  0  0  0  0  0
  158.3990  212.8670  140.3220 N   0  0  0  0  0  0  0  0  0  0  0  0
  160.0840  211.1680  139.7420 C   0  0  0  0  0  3  0  0  0  0  0  0
  158.9680  212.9530  141.6340 C   0  0  0  0  0  3  0  0  0  0  0  0
  161.5790  208.1940  148.6080 C   0  0  0  0  0  2  0  0  0  0  0  0
  162.8660  205.1550  146.7760 N   0  0  0  0  0  2  0  0  0  0  0  0
  161.3640  204.3090  146.9440 S   0  0  0  0  0  0  0  0  0  0  0  0
  160.5770  204.4050  145.6690 O   0  0  0  0  0  0  0  0  0  0  0  0
  161.4680  205.7500  149.1970 C   0  0  0  0  0  2  0  0  0  0  0  0
  162.5840  206.5660  147.0130 C   0  0  0  0  0  2  0  0  0  0  0  0
  162.2850  206.8510  148.4930 C   0  0  1  0  0  3  0  0  0  0  0  0
  161.6310  202.8670  147.2680 O   0  0  0  0  0  0  0  0  0  0  0  0
  160.4610  205.0730  148.2740 C   0  0  0  0  0  2  0  0  0  0  0  0
  1  6  1  0  0  0  0
  2 11  1  0  0  0  0
  2 12  1  1  0  0  0
  3 14  1  0  0  0  0
  3 10  1  0  0  0  0
  4  8  2  0  0  0  0
  5  1  2  0  0  0  0
  7  9  2  0  0  0  0
  7  4  1  0  0  0  0
  8  1  1  0  0  0  0
  9  5  1  0  0  0  0
 11 10  1  6  0  0  0
 11  7  1  0  0  0  0
 12 15  2  0  0  0  0
 13 35  1  6  0  0  0
 13  2  1  0  0  0  0
 14 13  1  0  0  0  0
 15  4  1  0  0  0  0
 16 17  1  1  0  0  0
 16  3  1  0  0  0  0
 18 16  1  0  0  0  0
 19 22  1  0  0  0  0
 20 23  1  0  0  0  0
 20 19  1  1  0  0  0
 22 18  1  0  0  0  0
 23 24  1  1  0  0  0
 24 22  1  0  0  0  0
 25 29  1  6  0  0  0
 25 20  1  0  0  0  0
 26 25  1  0  0  0  0
 26 27  1  0  0  0  0
 27 21  2  0  0  0  0
 27 23  1  0  0  0  0
 28 29  1  0  0  0  0
 30 32  1  0  0  0  0
 31 33  1  0  0  0  0
 31 32  1  0  0  0  0
 32 34  1  0  0  0  0
 33 28  2  0  0  0  0
 34 29  2  0  0  0  0
 36 37  1  0  0  0  0
 36 40  1  0  0  0  0
 37 42  2  0  0  0  0
 37 43  1  0  0  0  0
 38 37  2  0  0  0  0
 40 41  1  0  0  0  0
 41 35  1  6  0  0  0
 41 39  1  0  0  0  0
 43 39  1  0  0  0  0
M  END
>  <MODEL>
5

>  <REMARK>
 VINA RESULT:      -6.3      1.352      1.935
  Name = 
  6 active torsions:
  status: ('A' for Active; 'I' for Inactive)
    1  A    between atoms: C_1  and  C_34
    2  A    between atoms: C_1  and  C_35
    3  A    between atoms: C_2  and  C_6
    4  A    between atoms: C_2  and  N_13
    5  A    between atoms: C_6  and  N_12
    6  A    between atoms: C_14  and  C_22
                            x       y       z     vdW  Elec       q    Type
                         _______ _______ _______ _____ _____    ______ ____

>  <TORSDO>
F 6

$$$$
=
 OpenBabel11062410023D

 43 49  0  0  1  0  0  0  0  0999 V2000
  160.3040  208.0590  155.6370 C   0  0  0  0  0  0  0  0  0  0  0  0
  161.6590  207.1900  150.8410 C   0  0  2  0  0  3  0  0  0  0  0  0
  161.5860  209.4660  149.4450 N   0  0  0  0  0  0  0  0  0  0  0  0
  161.2440  207.0530  153.6450 C   0  0  0  0  0  0  0  0  0  0  0  0
  160.4020  209.3240  155.0480 C   0  0  0  0  0  3  0  0  0  0  0  0
  159.7670  207.9250  156.9480 N   0  0  0  0  0  1  0  0  0  0  0  0
  161.3340  208.3270  153.0410 C   0  0  0  0  0  0  0  0  0  0  0  0
  160.7330  206.9250  154.9400 C   0  0  0  0  0  3  0  0  0  0  0  0
  160.9270  209.4590  153.7600 C   0  0  0  0  0  3  0  0  0  0  0  0
  161.6240  209.7100  150.9000 C   0  0  0  0  0  2  0  0  0  0  0  0
  161.9820  208.4340  151.6820 C   0  0  2  0  0  3  0  0  0  0  0  0
  161.9540  205.9240  151.5960 C   0  0  0  0  0  3  0  0  0  0  0  0
  162.3650  207.2510  149.4820 C   0  0  2  0  0  3  0  0  0  0  0  0
  162.6850  208.6410  149.1160 N   0  0  0  0  0  2  0  0  0  0  0  0
  161.7070  205.8580  152.9090 C   0  0  0  0  0  3  0  0  0  0  0  0
  161.7530  210.7430  148.7420 C   0  0  2  0  0  3  0  0  0  0  0  0
  163.0470  211.4230  149.1720 C   0  0  0  0  0  1  0  0  0  0  0  0
  160.5980  211.6820  149.0730 C   0  0  0  0  0  2  0  0  0  0  0  0
  160.7900  212.9300  151.0570 C   0  0  0  0  0  2  0  0  0  0  0  0
  159.5040  213.6950  151.2800 C   0  0  1  0  0  3  0  0  0  0  0  0
  157.3510  214.2750  148.4950 O   0  0  0  0  0  0  0  0  0  0  0  0
  161.1040  212.9260  149.6330 N   0  0  0  0  0  0  0  0  0  0  0  0
  159.2490  214.4530  149.9850 C   0  0  1  0  0  3  0  0  0  0  0  0
  160.3420  214.0130  149.0270 C   0  0  0  0  0  2  0  0  0  0  0  0
  158.3330  212.7100  151.4620 C   0  0  2  0  0  3  0  0  0  0  0  0
  157.4420  212.9570  150.3920 O   0  0  0  0  0  0  0  0  0  0  0  0
  157.9430  213.9170  149.5460 C   0  0  0  0  0  0  0  0  0  0  0  0
  156.5230  213.8800  152.8880 C   0  0  0  0  0  3  0  0  0  0  0  0
  157.6460  212.9300  152.7720 C   0  0  0  0  0  0  0  0  0  0  0  0
  157.7040  211.5130  156.1960 C   0  0  0  0  0  1  0  0  0  0  0  0
  156.4750  213.5250  155.3410 C   0  0  0  0  0  2  0  0  0  0  0  0
  157.3380  212.3690  155.0820 N   0  0  0  0  0  0  0  0  0  0  0  0
  155.9550  214.1360  154.0680 C   0  0  0  0  0  3  0  0  0  0  0  0
  158.0040  212.1990  153.8260 C   0  0  0  0  0  3  0  0  0  0  0  0
  161.4730  206.6200  148.4170 C   0  0  0  0  0  2  0  0  0  0  0  0
  162.4740  204.5170  145.4470 N   0  0  0  0  0  2  0  0  0  0  0  0
  161.0440  203.5440  145.5440 S   0  0  0  0  0  0  0  0  0  0  0  0
  160.0390  204.0070  144.5300 O   0  0  0  0  0  0  0  0  0  0  0  0
  161.5210  204.1240  148.1130 C   0  0  0  0  0  2  0  0  0  0  0  0
  162.2090  205.7320  146.2100 C   0  0  0  0  0  2  0  0  0  0  0  0
  162.1750  205.4630  147.7230 C   0  0  1  0  0  3  0  0  0  0  0  0
  161.3960  202.1060  145.2890 O   0  0  0  0  0  0  0  0  0  0  0  0
  160.3800  203.7240  147.1850 C   0  0  0  0  0  2  0  0  0  0  0  0
  1  6  1  0  0  0  0
  2 12  1  1  0  0  0
  2 11  1  0  0  0  0
  3 10  1  0  0  0  0
  4  8  1  0  0  0  0
  5  1  1  0  0  0  0
  7  4  2  0  0  0  0
  7  9  1  0  0  0  0
  8  1  2  0  0  0  0
  9  5  2  0  0  0  0
 11 10  1  6  0  0  0
 11  7  1  0  0  0  0
 12 15  2  0  0  0  0
 13 35  1  6  0  0  0
 13  2  1  0  0  0  0
 14  3  1  0  0  0  0
 14 13  1  0  0  0  0
 15  4  1  0  0  0  0
 16 18  1  0  0  0  0
 16 17  1  1  0  0  0
 16  3  1  0  0  0  0
 18 22  1  0  0  0  0
 20 19  1  6  0  0  0
 20 25  1  0  0  0  0
 21 27  2  0  0  0  0
 22 19  1  0  0  0  0
 23 24  1  6  0  0  0
 23 20  1  0  0  0  0
 24 22  1  0  0  0  0
 25 29  1  1  0  0  0
 26 25  1  0  0  0  0
 27 23  1  0  0  0  0
 27 26  1  0  0  0  0
 28 33  2  0  0  0  0
 29 28  1  0  0  0  0
 29 34  2  0  0  0  0
 32 31  1  0  0  0  0
 32 30  1  0  0  0  0
 33 31  1  0  0  0  0
 34 32  1  0  0  0  0
 36 37  1  0  0  0  0
 36 40  1  0  0  0  0
 37 43  1  0  0  0  0
 38 37  2  0  0  0  0
 40 41  1  0  0  0  0
 41 39  1  0  0  0  0
 41 35  1  1  0  0  0
 42 37  2  0  0  0  0
 43 39  1  0  0  0  0
M  END
>  <MODEL>
6

>  <REMARK>
 VINA RESULT:      -5.7      4.145      6.369
  Name = 
  6 active torsions:
  status: ('A' for Active; 'I' for Inactive)
    1  A    between atoms: C_1  and  C_34
    2  A    between atoms: C_1  and  C_35
    3  A    between atoms: C_2  and  C_6
    4  A    between atoms: C_2  and  N_13
    5  A    between atoms: C_6  and  N_12
    6  A    between atoms: C_14  and  C_22
                            x       y       z     vdW  Elec       q    Type
                         _______ _______ _______ _____ _____    ______ ____

>  <TORSDO>
F 6

$$$$
